Measured thermophysical data. Isothermal vapor liquid equilibrium at 333.15K and excess volumes and molar refractivity deviation at 298.15K for the ternary system di-butyl ether (1) + ethanol (2) + toluene (3) and its binary subsystems
Source: Fluid Phase Equilib., 2007, 10.1016/j.fluid.2007.08.020
Compound 1: dibutyl ether, C8H18O, InChI=1S/C8H18O/c1-3-5-7-9-8-6-4-2/h3-8H2,1-2H3
Compound 2: ethanol, C2H6O, InChI=1S/C2H6O/c1-2-3/h3H,2H2,1H3
Compound 3: toluene, C7H8, InChI=1S/C7H8/c1-7-5-3-2-4-6-7/h2-6H,1H3

System: dibutyl ether; phases: Liquid
Property: Refractive index (Na D-line) (Liquid); method: Standard Abbe refractometry
Temperature, K	Pressure, kPa	Refractive index (Na D-line)	uncertainty
298.15	101.325	1.39646	0.00068

System: dibutyl ether; phases: Liquid
Property: Mass density, kg/m3 (Liquid); method: VIBTUB:UFactor:2
Temperature, K	Pressure, kPa	Mass density, kg/m3	uncertainty
298.15	101.325	764.22	0.33

System: ethanol; phases: Liquid
Property: Refractive index (Na D-line) (Liquid); method: Standard Abbe refractometry
Temperature, K	Pressure, kPa	Refractive index (Na D-line)	uncertainty
298.15	101.325	1.35928	0.00068

System: ethanol; phases: Liquid
Property: Mass density, kg/m3 (Liquid); method: VIBTUB:UFactor:2
Temperature, K	Pressure, kPa	Mass density, kg/m3	uncertainty
298.15	101.325	785.27	0.31

System: toluene; phases: Liquid
Property: Refractive index (Na D-line) (Liquid); method: Standard Abbe refractometry
Temperature, K	Pressure, kPa	Refractive index (Na D-line)	uncertainty
298.15	101.325	1.49397	0.00068

System: toluene; phases: Liquid
Property: Mass density, kg/m3 (Liquid); method: VIBTUB:UFactor:2
Temperature, K	Pressure, kPa	Mass density, kg/m3	uncertainty
298.15	101.325	862.19	0.23

System: toluene + dibutyl ether; phases: Liquid
Fixed: Pressure, kPa = 101.3
Fixed: Temperature, K = 298.15
Property: Refractive index (Na D-line) (Liquid); method: Standard Abbe refractometry
Mole fraction of dibutyl ether	Refractive index (Na D-line)	uncertainty
0.0487	1.48652	0.00068
0.0996	1.47981	0.00068
0.1995	1.46604	0.00068
0.3005	1.45424	0.00068
0.4002	1.44362	0.00068
0.4994	1.43399	0.00068
0.5996	1.42528	0.00068
0.699	1.41712	0.00068
0.799	1.40983	0.00068
0.8993	1.40297	0.00068
0.9501	1.39968	0.00068

System: toluene + dibutyl ether; phases: Liquid
Fixed: Pressure, kPa = 101.3
Fixed: Temperature, K = 298.15
Property: Mass density, kg/m3 (Liquid); method: VIBTUB:UFactor:2
Mole fraction of dibutyl ether	Mass density, kg/m3	uncertainty
0.0487	855	0.2
0.0996	847.9	0.2
0.1995	835.1	0.3
0.3005	823.2	0.3
0.4002	812.6	0.3
0.4994	803	0.3
0.5996	794	0.3
0.699	785.7	0.3
0.799	778.1	0.3
0.8993	770.9	0.3
0.9501	767.4	0.3

System: toluene + dibutyl ether; phases: Gas, Liquid
Fixed: Temperature, K = 333.15
Property: Mole fraction of dibutyl ether (Gas); method: Chromatography
Mole fraction of dibutyl ether	Mole fraction of dibutyl ether	uncertainty
0.0197	0.0061	0.0061
0.0401	0.012	0.012
0.0595	0.018	0.018
0.0797	0.0258	0.0258
0.1202	0.0385	0.03
0.1699	0.0567	0.03
0.2295	0.0902	0.03
0.2899	0.1185	0.03
0.3503	0.1469	0.03
0.4098	0.1757	0.03
0.4699	0.2045	0.0301
0.5305	0.2567	0.0301
0.5902	0.3103	0.0301
0.6511	0.3549	0.0302
0.7103	0.4156	0.0302
0.7701	0.4908	0.0303
0.8295	0.6096	0.0302
0.8804	0.6746	0.0301
0.9205	0.8005	0.03
0.9399	0.8453	0.03
0.9592	0.8455	0.03
0.9807	0.9215	0.03

System: ethanol + toluene; phases: Liquid
Fixed: Pressure, kPa = 101.3
Fixed: Temperature, K = 298.15
Property: Refractive index (Na D-line) (Liquid); method: Standard Abbe refractometry
Mole fraction of ethanol	Refractive index (Na D-line)	uncertainty
0.0517	1.49021	0.00068
0.1055	1.48623	0.00068
0.1989	1.4777	0.00068
0.2994	1.46802	0.00068
0.4104	1.4562	0.00068
0.4996	1.44612	0.00068
0.6008	1.43354	0.00068
0.7016	1.418	0.00068
0.7999	1.4009	0.00068
0.8987	1.38211	0.00068
0.9496	1.3709	0.00068

System: ethanol + toluene; phases: Liquid
Fixed: Pressure, kPa = 101.3
Fixed: Temperature, K = 298.15
Property: Mass density, kg/m3 (Liquid); method: VIBTUB:UFactor:2
Mole fraction of ethanol	Mass density, kg/m3	uncertainty
0.0517	859.6	0.2
0.1055	857.2	0.2
0.1989	852.7	0.2
0.2994	847.5	0.2
0.4104	841.3	0.3
0.4996	835.7	0.3
0.6008	828.5	0.3
0.7016	820.4	0.3
0.7999	811	0.3
0.8987	799.9	0.3
0.9496	793.3	0.3

System: ethanol + toluene; phases: Gas, Liquid
Fixed: Temperature, K = 333.15
Property: Mole fraction of ethanol (Gas); method: Chromatography
Mole fraction of ethanol	Mole fraction of ethanol	uncertainty
0.0195	0.3144	0.0104
0.0384	0.4011	0.0106
0.0584	0.4661	0.0108
0.0797	0.501	0.0109
0.1195	0.5523	0.0107
0.1686	0.5956	0.0106
0.2286	0.6257	0.0105
0.2892	0.6363	0.0105
0.3491	0.6618	0.0104
0.4084	0.6719	0.0104
0.4695	0.6849	0.0104
0.5292	0.698	0.0103
0.5896	0.717	0.0103
0.6501	0.7306	0.0103
0.7094	0.7523	0.0102
0.7699	0.7799	0.0102
0.8299	0.8147	0.0101
0.8804	0.8531	0.0101
0.9197	0.8881	0.01
0.94	0.9125	0.01
0.9601	0.9371	0.01
0.9797	0.9669	0.01

System: ethanol + toluene + dibutyl ether; phases: Liquid
Fixed: Pressure, kPa = 101.3
Fixed: Temperature, K = 298.15
Property: Refractive index (Na D-line) (Liquid); method: Standard Abbe refractometry
Mole fraction of dibutyl ether	Mole fraction of ethanol	Refractive index (Na D-line)	uncertainty
0.0196	0.1809	1.47718	0.00068
0.0292	0.9013	1.37731	0.00068
0.0303	0.2695	1.46673	0.00068
0.0318	0.0704	1.48435	0.00068
0.0398	0.3607	1.45667	0.00068
0.0501	0.4503	1.44546	0.00068
0.0595	0.5402	1.43216	0.00068
0.0698	0.0272	1.48163	0.00068
0.07	0.899	1.37248	0.00068
0.0898	0.2103	1.46446	0.00068
0.0903	0.6993	1.40497	0.00068
0.0998	0.7987	1.38729	0.00068
0.1006	0.1004	1.47232	0.00068
0.1202	0.28	1.45313	0.00068
0.1206	0.5994	1.41555	0.00068
0.1493	0.1493	1.46156	0.00068
0.1494	0.3507	1.44129	0.00068
0.1502	0.4993	1.42425	0.00068
0.159	0.6922	1.397	0.00068
0.1798	0.0191	1.4671	0.00068
0.1798	0.4214	1.43032	0.00068
0.1803	0.7999	1.37743	0.00068
0.2	0.6008	1.40512	0.00068
0.2007	0.2005	1.44995	0.00068
0.21	0.7002	1.39048	0.00068
0.2103	0.0882	1.45877	0.00068
0.2498	0.5003	1.41309	0.00068
0.2504	0.2489	1.43925	0.00068
0.2696	0.7005	1.38375	0.00068
0.2703	0.0296	1.45541	0.00068
0.2802	0.6	1.39629	0.00068
0.2807	0.1176	1.44813	0.00068
0.2996	0.2996	1.42944	0.00068
0.2996	0.4004	1.41996	0.00068
0.3495	0.1505	1.43686	0.00068
0.3504	0.4995	1.40167	0.00068
0.3596	0.0406	1.44467	0.00068
0.36	0.6008	1.38816	0.00068
0.3991	0.3001	1.418	0.00068
0.4005	0.1803	1.42875	0.00068
0.4012	0.0568	1.43903	0.00068
0.4204	0.399	1.40583	0.00068
0.4495	0.5	1.39244	0.00068
0.5003	0.0494	1.4301	0.00068
0.5009	0.2478	1.41301	0.00068
0.5013	0.1478	1.42188	0.00068
0.5013	0.348	1.4036	0.00068
0.5401	0.3998	1.39492	0.00068
0.5965	0.2045	1.40893	0.00068
0.5997	0.2792	1.40184	0.00068
0.6003	0.0403	1.42211	0.00068
0.6008	0.3597	1.39462	0.00068
0.6032	0.1157	1.4158	0.00068
0.7003	0.2701	1.39561	0.00068
0.7005	0.1499	1.40517	0.00068
0.701	0.0895	1.41013	0.00068
0.7016	0.2095	1.4001	0.00068
0.7042	0.0263	1.41481	0.00068
0.7994	0.1795	1.39589	0.00068
0.7998	0.1009	1.40191	0.00068
0.8042	0.0155	1.40824	0.00068
0.9	0.0705	1.39773	0.00068
0.9011	0.0277	1.40072	0.00068

System: ethanol + toluene + dibutyl ether; phases: Liquid
Fixed: Pressure, kPa = 101.3
Fixed: Temperature, K = 298.15
Property: Mass density, kg/m3 (Liquid); method: VIBTUB:UFactor:2
Mole fraction of dibutyl ether	Mole fraction of ethanol	Mass density, kg/m3	uncertainty
0.0196	0.1809	850.58	0.24
0.0292	0.9013	793.12	0.29
0.0303	0.2695	844.45	0.24
0.0318	0.0704	854.04	0.23
0.0398	0.3607	837.87	0.25
0.0501	0.4503	830.54	0.26
0.0595	0.5402	822.77	0.27
0.0698	0.0272	850.69	0.24
0.07	0.899	785.96	0.3
0.0898	0.2103	838.77	0.25
0.0903	0.6993	804.38	0.28
0.0998	0.7987	792.65	0.3
0.1006	0.1004	842.97	0.24
0.1202	0.28	830.63	0.26
0.1206	0.5994	808.52	0.28
0.1493	0.1493	833.94	0.25
0.1494	0.3507	822.29	0.27
0.1502	0.4993	812.07	0.28
0.159	0.6922	795.03	0.29
0.1798	0.0191	836.58	0.25
0.1798	0.4214	813.46	0.28
0.1803	0.7999	779.84	0.31
0.2	0.6008	796.78	0.29
0.2007	0.2005	824.52	0.26
0.21	0.7002	785.61	0.3
0.2103	0.0882	829.44	0.26
0.2498	0.5003	799.11	0.29
0.2504	0.2489	815.54	0.27
0.2696	0.7005	778.3	0.31
0.2703	0.0296	825.22	0.26
0.2802	0.6	786.64	0.3
0.2807	0.1176	819.6	0.27
0.2996	0.2996	806.52	0.28
0.2996	0.4004	800.72	0.29
0.3495	0.1505	810	0.28
0.3504	0.4995	786.34	0.31
0.3596	0.0406	814.71	0.28
0.36	0.6008	776.6	0.32
0.3991	0.3001	795.33	0.29
0.4005	0.1803	802.71	0.29
0.4012	0.0568	809.49	0.28
0.4204	0.399	786.38	0.3
0.4495	0.5	775.49	0.32
0.5003	0.0494	800.23	0.29
0.5009	0.2478	788.51	0.3
0.5013	0.1478	794.59	0.3
0.5013	0.348	781.65	0.31
0.5401	0.3998	774.24	0.32
0.5965	0.2045	782.46	0.31
0.5997	0.2792	777.46	0.31
0.6003	0.0403	791.79	0.3
0.6008	0.3597	771.67	0.32
0.6032	0.1157	787.29	0.3
0.7003	0.2701	769.4	0.32
0.7005	0.1499	777.12	0.31
0.701	0.0895	780.68	0.31
0.7016	0.2095	773.29	0.31
0.7042	0.0263	783.87	0.3
0.7994	0.1795	767.55	0.32
0.7998	0.1009	772.38	0.31
0.8042	0.0155	776.78	0.31
0.9	0.0705	766.95	0.32
0.9011	0.0277	769.1	0.32

System: ethanol + toluene + dibutyl ether; phases: Gas, Liquid
Fixed: Temperature, K = 333.15
Property: Mole fraction of ethanol (Gas); method: CHROM:UFactor:4
Mole fraction of dibutyl ether	Mole fraction of ethanol	Mole fraction of ethanol	uncertainty
0.0197	0.1786	0.6198	0.0183
0.0199	0.8003	0.8269	0.0083
0.0294	0.0696	0.498	0.0239
0.0296	0.8998	0.904	0.0046
0.0297	0.7004	0.7855	0.0103
0.0298	0.2699	0.6601	0.0163
0.04	0.3592	0.6917	0.0148
0.0403	0.5994	0.7556	0.0117
0.0498	0.4489	0.7158	0.0136
0.06	0.5399	0.7455	0.0122
0.0698	0.9002	0.9345	0.0031
0.0896	0.2089	0.6467	0.017
0.0899	0.6998	0.8131	0.009
0.1001	0.7994	0.8715	0.0062
0.1196	0.6003	0.7862	0.0103
0.1199	0.2794	0.6775	0.0155
0.15	0.3492	0.7179	0.0135
0.15	0.5008	0.7661	0.0112
0.1797	0.8004	0.9207	0.0038
0.2003	0.5997	0.8211	0.0086
0.21	0.7001	0.8751	0.006
0.2501	0.4998	0.804	0.0094
0.2702	0.7001	0.9074	0.0044
0.2799	0.5998	0.8575	0.0068
0.3001	0.4004	0.7792	0.0106
0.3501	0.4993	0.8421	0.0076
0.3595	0.6006	0.894	0.0051
0.4202	0.4002	0.8261	0.0084
0.4504	0.4999	0.8847	0.0055
0.5404	0.3992	0.8678	0.0063

System: ethanol + toluene + dibutyl ether; phases: Gas, Liquid
Fixed: Temperature, K = 333.15
Property: Mole fraction of dibutyl ether (Gas); method: CHROM:UFactor:4
Mole fraction of dibutyl ether	Mole fraction of ethanol	Mole fraction of dibutyl ether	uncertainty
0.0197	0.1786	0.0034	0.0002
0.0199	0.8003	0.0072	0.0003
0.0294	0.0696	0.0058	0.0003
0.0296	0.8998	0.0135	0.0007
0.0297	0.7004	0.0085	0.0004
0.0298	0.2699	0.0051	0.0003
0.04	0.3592	0.0072	0.0003
0.0403	0.5994	0.0094	0.0005
0.0498	0.4489	0.0097	0.0005
0.06	0.5399	0.0131	0.0006
0.0698	0.9002	0.0337	0.0016
0.0699	0.0302	0.0176	0.0008
0.0896	0.2089	0.0161	0.0008
0.0899	0.6998	0.0253	0.0012
0.0992	0.1005	0.0182	0.0009
0.1001	0.7994	0.0355	0.0017
0.1196	0.6003	0.0284	0.0014
0.1199	0.2794	0.0215	0.001
0.15	0.3492	0.026	0.0012
0.15	0.5008	0.0299	0.0014
0.1502	0.1485	0.0269	0.0013
0.1797	0.8004	0.0609	0.0029
0.18	0.0189	0.0558	0.0027
0.1801	0.4203	0.0334	0.0016
0.2	0.1988	0.0371	0.0018
0.2003	0.5997	0.0456	0.0022
0.2099	0.0897	0.0415	0.002
0.21	0.7001	0.0555	0.0027
0.2499	0.2503	0.0449	0.0022
0.2501	0.4998	0.0487	0.0023
0.2702	0.7001	0.0696	0.0033
0.2705	0.0287	0.0701	0.0034
0.2799	0.5998	0.0619	0.003
0.28	0.1193	0.0538	0.0026
0.2998	0.3003	0.0534	0.0026
0.3001	0.4004	0.0564	0.0027
0.3501	0.4993	0.0678	0.0033
0.3503	0.1497	0.0642	0.0031
0.3595	0.6006	0.0789	0.0038
0.3609	0.0384	0.0864	0.0041
0.4	0.2996	0.0699	0.0034
0.4006	0.0579	0.0846	0.0041
0.4013	0.1785	0.0736	0.0035
0.4202	0.4002	0.0743	0.0036
0.4504	0.4999	0.0848	0.0041
0.4999	0.3503	0.0931	0.0045
0.5004	0.0482	0.123	0.0059
0.5017	0.1475	0.0967	0.0046
0.5017	0.2483	0.091	0.0044
0.5404	0.3992	0.0969	0.0047
0.5973	0.282	0.114	0.0055
0.598	0.2026	0.1102	0.0053
0.5997	0.0401	0.1731	0.0083
0.5999	0.1201	0.1	0.0048
0.6006	0.3598	0.1177	0.0056
0.7005	0.2699	0.133	0.0064
0.7009	0.0289	0.2522	0.0121
0.7012	0.0882	0.1636	0.0079
0.7019	0.1478	0.145	0.007
0.702	0.2081	0.1303	0.0063
0.8005	0.0197	0.3809	0.0183
0.8012	0.1789	0.1661	0.008
0.8028	0.0978	0.2048	0.0098
0.8981	0.0721	0.2505	0.012
0.9028	0.0274	0.4082	0.0196
