Measured thermophysical data. Analysis of the isomerism effect on the mutual solubilities of bis(trifluoromethylsulfonyl)imide-based ionic liquids with water
Source: Fluid Phase Equilib., 2014, 10.1016/j.fluid.2014.08.007
Compound 1: 1-methylimidazolium bis(trifluoromethylsulfonyl)imide, C6H7F6N3O4S2, InChI=1S/C4H6N2.C2F6NO4S2/c1-6-3-2-5-4-6;3-1(4,5)14(10,11)9-15(12,13)2(6,7)8/h2-4H,1H3;/q;-1/p+1, purity 99%
Compound 2: 1-ethylimidazolium bis[(trifluoromethyl)sulfonyl]imide, C7H9F6N3O4S2, InChI=1S/C5H8N2.C2F6NO4S2/c1-2-7-4-3-6-5-7;3-1(4,5)14(10,11)9-15(12,13)2(6,7)8/h3-5H,2H2,1H3;/q;-1/p+1, purity 99%
Compound 3: 1-ethyl-3-propylimidazolium bis(trifluoromethylsulfonyl)imide, C10H15F6N3O4S2, InChI=1S/C8H15N2.C2F6NO4S2/c1-3-5-10-7-6-9(4-2)8-10;3-1(4,5)14(10,11)9-15(12,13)2(6,7)8/h6-8H,3-5H2,1-2H3;/q+1;-1, purity 99%
Compound 4: 1-butyl-2,3-dimethyl-1H-imidazolium bis(trifluoromethylsulfonyl)amide, C11H17F6N3O4S2, InChI=1S/C9H17N2.C2F6NO4S2/c1-4-5-6-11-8-7-10(3)9(11)2;3-1(4,5)14(10,11)9-15(12,13)2(6,7)8/h7-8H,4-6H2,1-3H3;/q+1;-1, purity 99%
Compound 5: water, H2O, InChI=1S/H2O/h1H2

System: water + 1-methylimidazolium bis(trifluoromethylsulfonyl)imide; phases: Liquid mixture 1, Liquid mixture 2
Fixed: Pressure, kPa = 100
Property: Mole fraction of water (Liquid mixture 1); method: Titration method
Temperature, K	Mole fraction of water	uncertainty
288.15	0.627	0.026
293.15	0.648	0.01
298.15	0.667	0.015
303.15	0.686	0.005
308.15	0.709	0.005
313.15	0.72	0.009
318.15	0.736	0.028

System: water + 1-methylimidazolium bis(trifluoromethylsulfonyl)imide; phases: Liquid mixture 2, Liquid mixture 1
Fixed: Pressure, kPa = 100
Property: Mole fraction of 1-methylimidazolium bis(trifluoromethylsulfonyl)imide (Liquid mixture 2); method: UV-vis spectrophotometry
Temperature, K	Mole fraction of 1-methylimidazolium bis(trifluoromethylsulfonyl)imide	uncertainty
288.15	0.004132	0.000135
293.15	0.004206	0.000117
298.15	0.004359	0.000101
303.15	0.004499	0.000175
308.15	0.004811	0.000135
313.15	0.005393	0.000127
318.15	0.005945	0.000145

System: water + 1-ethylimidazolium bis[(trifluoromethyl)sulfonyl]imide; phases: Liquid mixture 1, Liquid mixture 2
Fixed: Pressure, kPa = 100
Property: Mole fraction of water (Liquid mixture 1); method: Titration method
Temperature, K	Mole fraction of water	uncertainty
288.15	0.604	0.028
293.15	0.612	0.028
298.15	0.628	0.017
303.15	0.641	0.012
308.15	0.659	0.015
313.15	0.673	0.02
318.15	0.682	0.034

System: water + 1-ethylimidazolium bis[(trifluoromethyl)sulfonyl]imide; phases: Liquid mixture 2, Liquid mixture 1
Fixed: Pressure, kPa = 100
Property: Mole fraction of 1-ethylimidazolium bis[(trifluoromethyl)sulfonyl]imide (Liquid mixture 2); method: UV-vis spectrophotometry
Temperature, K	Mole fraction of 1-ethylimidazolium bis[(trifluoromethyl)sulfonyl]imide	uncertainty
288.15	0.00236	5.5e-05
293.15	0.002388	7.3e-05
298.15	0.002451	5.7e-05
303.15	0.002549	5.9e-05
308.15	0.002669	7.7e-05
313.15	0.002979	0.000178
318.15	0.003233	7.5e-05

System: water + 1-ethyl-3-propylimidazolium bis(trifluoromethylsulfonyl)imide; phases: Liquid mixture 1, Liquid mixture 2
Fixed: Pressure, kPa = 100
Property: Mole fraction of water (Liquid mixture 1); method: Titration method
Temperature, K	Mole fraction of water	uncertainty
288.15	0.209	0.006
293.15	0.222	0.006
298.15	0.239	0.004
303.15	0.256	0.005
308.15	0.278	0.017
313.15	0.296	0.009
318.15	0.314	0.009

System: water + 1-ethyl-3-propylimidazolium bis(trifluoromethylsulfonyl)imide; phases: Liquid mixture 2, Liquid mixture 1
Fixed: Pressure, kPa = 100
Property: Mole fraction of 1-ethyl-3-propylimidazolium bis(trifluoromethylsulfonyl)imide (Liquid mixture 2); method: UV-vis spectrophotometry
Temperature, K	Mole fraction of 1-ethyl-3-propylimidazolium bis(trifluoromethylsulfonyl)imide	uncertainty
288.15	0.000311	7e-06
293.15	0.000317	7e-06
298.15	0.000325	8e-06
303.15	0.000336	9e-06
308.15	0.000351	9e-06
313.15	0.000387	1e-05
318.15	0.00041	4e-05

System: water + 1-butyl-2,3-dimethyl-1H-imidazolium bis(trifluoromethylsulfonyl)amide; phases: Liquid mixture 1, Liquid mixture 2
Fixed: Pressure, kPa = 100
Property: Mole fraction of water (Liquid mixture 1); method: Titration method
Temperature, K	Mole fraction of water	uncertainty
288.15	0.168	0.004
293.15	0.183	0.006
298.15	0.191	0.004
303.15	0.212	0.004
308.15	0.229	0.004
313.15	0.244	0.007
318.15	0.263	0.005

System: water + 1-butyl-2,3-dimethyl-1H-imidazolium bis(trifluoromethylsulfonyl)amide; phases: Liquid mixture 2, Liquid mixture 1
Fixed: Pressure, kPa = 100
Property: Mole fraction of 1-butyl-2,3-dimethyl-1H-imidazolium bis(trifluoromethylsulfonyl)amide (Liquid mixture 2); method: UV-vis spectrophotometry
Temperature, K	Mole fraction of 1-butyl-2,3-dimethyl-1H-imidazolium bis(trifluoromethylsulfonyl)amide	uncertainty
288.15	0.000203	7e-06
293.15	0.000206	2.3e-05
298.15	0.000209	5e-06
303.15	0.000217	1e-05
308.15	0.000237	6e-06
313.15	0.000246	1e-05
318.15	0.00027	6e-06
