Measured thermophysical data. Ionic liquids as solvents to separate the azeotropic mixture hexane/ethanol
Source: Fluid Phase Equilib., 2013, 10.1016/j.fluid.2012.10.004
Compound 1: hexane, C6H14, InChI=1S/C6H14/c1-3-5-6-4-2/h3-6H2,1-2H3, purity 99%
Compound 2: ethanol, C2H6O, InChI=1S/C2H6O/c1-2-3/h3H,2H2,1H3, purity 99.9%
Compound 3: 1-hexyl-3-methylimidazolium trifluoromethanesulfonate, C11H19F3N2O3S, InChI=1S/C10H19N2.CHF3O3S/c1-3-4-5-6-7-12-9-8-11(2)10-12;2-1(3,4)8(5,6)7/h8-10H,3-7H2,1-2H3;(H,5,6,7)/q+1;/p-1, purity 99%
Compound 4: 1-hexyl-3-methylimidazolium dicyanamide, C12H19N5, InChI=1S/C10H19N2.C2N3/c1-3-4-5-6-7-12-9-8-11(2)10-12;3-1-5-2-4/h8-10H,3-7H2,1-2H3;/q+1;-1, purity 97%
Compound 5: 1-hexyl-3-methylimidazolium bis[(trifluoromethyl)sulfonyl]imide, C12H19F6N3O4S2, InChI=1S/C10H19N2.C2F6NO4S2/c1-3-4-5-6-7-12-9-8-11(2)10-12;3-1(4,5)14(10,11)9-15(12,13)2(6,7)8/h8-10H,3-7H2,1-2H3;/q+1;-1, purity 99%
Compound 6: 1-methyl-3-propylimidazolium bis[(trifluoromethyl)sulfonyl]imide, C9H13F6N3O4S2, InChI=1S/C7H13N2.C2F6NO4S2/c1-3-4-9-6-5-8(2)7-9;3-1(4,5)14(10,11)9-15(12,13)2(6,7)8/h5-7H,3-4H2,1-2H3;/q+1;-1, purity 99%

System: hexane; phases: Liquid
Property: Mass density, kg/m3 (Liquid); method: Vibrating tube method
Temperature, K	Pressure, kPa	Mass density, kg/m3	uncertainty
298.15	101.325	655.2	1.33

System: hexane; phases: Liquid
Property: Refractive index (Na D-line) (Liquid); method: Standard Abbe refractometry
Temperature, K	Pressure, kPa	Refractive index (Na D-line)	uncertainty
298.15	101.325	1.37241	0.00039

System: ethanol; phases: Liquid
Property: Mass density, kg/m3 (Liquid); method: Vibrating tube method
Temperature, K	Pressure, kPa	Mass density, kg/m3	uncertainty
298.15	101.325	785.9	1.58
313.15	101	772.84	1.55

System: ethanol; phases: Liquid
Property: Refractive index (Na D-line) (Liquid); method: Standard Abbe refractometry
Temperature, K	Pressure, kPa	Refractive index (Na D-line)	uncertainty
298.15	101.325	1.35936	0.00032
313.15	101	1.35309	0.00032

System: 1-hexyl-3-methylimidazolium trifluoromethanesulfonate; phases: Liquid
Property: Mass density, kg/m3 (Liquid); method: Vibrating tube method
Temperature, K	Pressure, kPa	Mass density, kg/m3	uncertainty
303.15	101.325	1232.55	2.5
313.15	101	1224.57	2.48

System: 1-hexyl-3-methylimidazolium trifluoromethanesulfonate; phases: Liquid
Property: Refractive index (Na D-line) (Liquid); method: Standard Abbe refractometry
Temperature, K	Pressure, kPa	Refractive index (Na D-line)	uncertainty
303.15	101.325	1.43926	0.00037
313.15	101	1.43603	0.00037

System: 1-hexyl-3-methylimidazolium dicyanamide; phases: Liquid
Property: Mass density, kg/m3 (Liquid); method: Vibrating tube method
Temperature, K	Pressure, kPa	Mass density, kg/m3	uncertainty
298.15	101.325	1028.47	2.75
313.15	101	1019.23	2.71

System: 1-hexyl-3-methylimidazolium dicyanamide; phases: Liquid
Property: Refractive index (Na D-line) (Liquid); method: Standard Abbe refractometry
Temperature, K	Pressure, kPa	Refractive index (Na D-line)	uncertainty
298.15	101.325	1.50419	0.00068
313.15	101	1.49937	0.00068

System: 1-hexyl-3-methylimidazolium bis[(trifluoromethyl)sulfonyl]imide; phases: Liquid
Property: Mass density, kg/m3 (Liquid); method: Vibrating tube method
Temperature, K	Pressure, kPa	Mass density, kg/m3	uncertainty
298.15	101.325	1371.99	2.79
313.15	101	1356.95	2.76

System: 1-hexyl-3-methylimidazolium bis[(trifluoromethyl)sulfonyl]imide; phases: Liquid
Property: Refractive index (Na D-line) (Liquid); method: Standard Abbe refractometry
Temperature, K	Pressure, kPa	Refractive index (Na D-line)	uncertainty
298.15	101.325	1.43016	0.00037
313.15	101	1.42542	0.00037

System: 1-methyl-3-propylimidazolium bis[(trifluoromethyl)sulfonyl]imide; phases: Liquid
Property: Mass density, kg/m3 (Liquid); method: Vibrating tube method
Temperature, K	Pressure, kPa	Mass density, kg/m3	uncertainty
298.15	101.325	1473.97	3.01
313.15	101	1459.22	2.98

System: 1-methyl-3-propylimidazolium bis[(trifluoromethyl)sulfonyl]imide; phases: Liquid
Property: Refractive index (Na D-line) (Liquid); method: Standard Abbe refractometry
Temperature, K	Pressure, kPa	Refractive index (Na D-line)	uncertainty
298.15	101.325	1.42516	0.00037
313.15	101	1.42072	0.00037

System: ethanol + hexane + 1-hexyl-3-methylimidazolium trifluoromethanesulfonate; phases: Liquid
Fixed: Temperature, K = 313.15
Fixed: Pressure, kPa = 101
Property: Mass density, kg/m3 (Liquid); method: Vibrating tube method
Mass fraction of hexane	Mass fraction of ethanol	Mass density, kg/m3	uncertainty
0.107	0.841	774.06	1.55
0.212	0.742	752.56	1.52
0.326	0.635	733.05	1.48
0.427	0.54	716.68	1.46
0.518	0.453	702.73	1.44
0.628	0.351	687.55	1.4
0.724	0.26	674.44	1.37
0.768	0.219	668.51	1.36
0.105	0.795	786	1.58
0.211	0.7	764.69	1.54
0.324	0.6	743.7	1.51
0.426	0.509	725.56	1.48
0.525	0.422	708.73	1.45
0.622	0.336	693.18	1.41
0.717	0.251	679.12	1.38
0.051	0.756	825.26	1.66
0.104	0.714	811.85	1.63
0.204	0.635	787.85	1.59
0.318	0.544	761.82	1.54
0.417	0.465	742.19	1.51
0.516	0.386	721.6	1.47
0.614	0.307	704.69	1.44
0.049	0.662	859.25	1.73
0.101	0.626	843.31	1.7
0.199	0.558	815.89	1.65
0.306	0.483	786.39	1.59
0.403	0.416	761.71	1.55
0.466	0.372	746.56	1.52
0.047	0.565	897.46	1.81
0.097	0.535	878.68	1.77
0.191	0.48	847.79	1.71
0.263	0.437	823.51	1.67
0.316	0.405	806.48	1.63
0.047	0.484	930.2	1.88
0.093	0.46	910.26	1.84
0.141	0.436	891.72	1.8
0.185	0.414	876.46	1.77
0.036	0.381	982.24	1.98
0.062	0.371	968.48	1.95
0.092	0.359	953.68	1.92
0.157	0.334	925.3	1.86
0.026	0.291	1032.59	2.08
0.052	0.284	1016.65	2.04
0.087	0.273	998.22	2.01
0.018	0.206	1083.56	2.18
0.032	0.203	1074.1	2.16
0.017	0.095	1151.19	2.32
0	1	772.84	1.55
0	0.72	865.87	1.74
0	0.551	931.55	1.88
0	0.366	1013.63	2.04
0	0.252	1071.49	2.15
0	0.179	1111.76	2.24
0	0.123	1144.87	2.31
0	0.082	1170.66	2.36
0	0.056	1187.39	2.4
0	0.031	1203.9	2.43
0	0.015	1214.61	2.46
0	0.008	1219.8	2.47
0	0	1224.57	2.48

System: ethanol + hexane + 1-hexyl-3-methylimidazolium trifluoromethanesulfonate; phases: Liquid
Fixed: Temperature, K = 313.15
Fixed: Pressure, kPa = 101
Property: Refractive index (Na D-line) (Liquid); method: Standard Abbe refractometry
Mass fraction of hexane	Mass fraction of ethanol	Refractive index (Na D-line)	uncertainty
0.107	0.841	1.35709	0.00034
0.212	0.742	1.35744	0.00034
0.326	0.635	1.35795	0.00034
0.427	0.54	1.35851	0.00035
0.518	0.453	1.3591	0.00035
0.628	0.351	1.35981	0.00036
0.724	0.26	1.36047	0.00037
0.768	0.219	1.36091	0.00037
0.105	0.795	1.36021	0.00034
0.211	0.7	1.36019	0.00034
0.324	0.6	1.36028	0.00035
0.426	0.509	1.36048	0.00035
0.525	0.422	1.36072	0.00036
0.622	0.336	1.36106	0.00036
0.717	0.251	1.36144	0.00037
0.051	0.756	1.36585	0.00034
0.104	0.714	1.36547	0.00034
0.204	0.635	1.36525	0.00034
0.318	0.544	1.36421	0.00035
0.417	0.465	1.36375	0.00035
0.516	0.386	1.3635	0.00036
0.614	0.307	1.36317	0.00036
0.049	0.662	1.37239	0.00034
0.101	0.626	1.37161	0.00034
0.199	0.558	1.37091	0.00035
0.306	0.483	1.3689	0.00035
0.403	0.416	1.36763	0.00036
0.466	0.372	1.36695	0.00036
0.047	0.565	1.37959	0.00035
0.097	0.535	1.37862	0.00035
0.191	0.48	1.37641	0.00035
0.263	0.437	1.3746	0.00036
0.316	0.405	1.37333	0.00036
0.047	0.484	1.38571	0.00035
0.093	0.46	1.38435	0.00035
0.141	0.436	1.3828	0.00036
0.185	0.414	1.38144	0.00036
0.036	0.381	1.39501	0.00036
0.062	0.371	1.39382	0.00036
0.092	0.359	1.3927	0.00036
0.157	0.334	1.39107	0.00036
0.026	0.291	1.40352	0.00036
0.052	0.284	1.40227	0.00037
0.087	0.273	1.4004	0.00037
0.018	0.206	1.41288	0.00037
0.032	0.203	1.41143	0.00037
0.017	0.095	1.42403	0.00038
0	1	1.35309	0.00033
0	0.72	1.37175	0.00034
0	0.551	1.38502	0.00035
0	0.366	1.39893	0.00036
0	0.252	1.40929	0.00037
0	0.179	1.4163	0.00037
0	0.123	1.4224	0.00038
0	0.082	1.42682	0.00038
0	0.056	1.42966	0.00038
0	0.031	1.43265	0.00039
0	0.015	1.43444	0.00039
0	0.008	1.4353	0.00039
0	0	1.43603	0.00039

System: ethanol + hexane + 1-hexyl-3-methylimidazolium trifluoromethanesulfonate; phases: Liquid mixture 2, Liquid mixture 1
Fixed: Pressure, kPa = 101
Fixed: Temperature, K = 298.15
Property: Mole fraction of hexane (Liquid mixture 2); method: Density calibration data
Property: Mole fraction of ethanol (Liquid mixture 1); method: Density calibration data
Property: Mole fraction of hexane (Liquid mixture 1); method: Density calibration data
Mole fraction of ethanol	Mole fraction of hexane	uncertainty	Mole fraction of ethanol	uncertainty	Mole fraction of hexane	uncertainty
0	0.106	0.016	0		1	
0.169	0.096	0.016	0.001	0.001	0.999	
0.341	0.083	0.016	0.005	0.005	0.995	
0.478	0.081	0.016	0.019	0.019	0.981	
0.532	0.096	0.017	0.025	0.023	0.975	
0.58	0.116	0.017	0.051	0.023	0.949	
0.619	0.122	0.017	0.071	0.023	0.929	
0.649	0.141	0.02	0.109	0.023	0.891	
0.672	0.161	0.021	0.158	0.023	0.842	

System: ethanol + hexane + 1-hexyl-3-methylimidazolium dicyanamide; phases: Liquid
Fixed: Temperature, K = 313.15
Fixed: Pressure, kPa = 101
Property: Mass density, kg/m3 (Liquid); method: Vibrating tube method
Mass fraction of hexane	Mass fraction of ethanol	Mass density, kg/m3	uncertainty
0.1	0.852	766.94	1.54
0.203	0.755	749.19	1.51
0.296	0.667	734	1.48
0.405	0.563	717.05	1.45
0.507	0.467	702.47	1.43
0.603	0.375	689.13	1.4
0.703	0.281	675.68	1.37
0.75	0.236	669.3	1.36
0.104	0.802	776.16	1.56
0.206	0.711	757.4	1.53
0.315	0.613	738.83	1.49
0.418	0.521	721.1	1.46
0.518	0.431	705.33	1.43
0.616	0.343	690.52	1.4
0.714	0.256	676.52	1.37
0.051	0.761	806.09	1.62
0.106	0.717	794.07	1.6
0.213	0.631	772.26	1.56
0.307	0.555	752.9	1.52
0.414	0.47	732.65	1.49
0.517	0.387	714.23	1.45
0.052	0.661	828.09	1.67
0.107	0.623	814.33	1.65
0.216	0.547	788.81	1.6
0.265	0.513	777.93	1.58
0.054	0.566	849.03	1.73
0.109	0.534	833.71	1.69
0.163	0.501	818.98	1.67
0.053	0.481	869.31	1.79
0.108	0.453	852.58	1.75
0.15	0.432	841.32	1.72
0.02	0.398	904.54	1.89
0.036	0.391	897.53	1.88
0.063	0.38	890.41	1.86
0.02	0.284	933.66	2.03
0.041	0.278	926.05	2
0.016	0.195	959.63	2.18
0.033	0.191	953.17	2.15
0.016	0.101	985.7	2.38
0	0	1019.23	2.71
0	0.009	1016.5	2.68
0	0.044	1006.7	2.57
0	0.074	998.44	2.48
0	0.105	989.87	2.4
0	0.159	975.18	2.28
0	0.227	956.75	2.15
0	0.315	933.36	2.01
0	0.436	902.82	1.88
0	0.635	855.41	1.73
0	0.778	822.69	1.65
0	1	772.84	1.55

System: ethanol + hexane + 1-hexyl-3-methylimidazolium dicyanamide; phases: Liquid
Fixed: Temperature, K = 313.15
Fixed: Pressure, kPa = 101
Property: Refractive index (Na D-line) (Liquid); method: Standard Abbe refractometry
Mass fraction of hexane	Mass fraction of ethanol	Refractive index (Na D-line)	uncertainty
0.1	0.852	1.36012	0.00034
0.203	0.755	1.36013	0.00034
0.296	0.667	1.36021	0.00035
0.405	0.563	1.36041	0.00036
0.507	0.467	1.36066	0.00037
0.603	0.375	1.36097	0.00037
0.703	0.281	1.36133	0.00037
0.75	0.236	1.36157	0.00037
0.104	0.802	1.36629	0.00035
0.206	0.711	1.3656	0.00035
0.315	0.613	1.36504	0.00036
0.418	0.521	1.36437	0.00037
0.518	0.431	1.36391	0.00037
0.616	0.343	1.36359	0.00037
0.714	0.256	1.3633	0.00037
0.051	0.761	1.37848	0.00036
0.106	0.717	1.37726	0.00036
0.213	0.631	1.37675	0.00037
0.307	0.555	1.3733	0.00037
0.414	0.47	1.37141	0.00038
0.517	0.387	1.36971	0.00038
0.052	0.661	1.39189	0.00039
0.107	0.623	1.38989	0.00039
0.216	0.547	1.38762	0.00039
0.265	0.513	1.38561	0.00039
0.054	0.566	1.40456	0.00042
0.109	0.534	1.40172	0.00042
0.163	0.501	1.39912	0.00042
0.053	0.481	1.41743	0.00045
0.108	0.453	1.41353	0.00045
0.15	0.432	1.41238	0.00045
0.02	0.398	1.43372	0.00049
0.036	0.391	1.43219	0.00049
0.063	0.38	1.43054	0.00049
0.02	0.284	1.45074	0.00054
0.041	0.278	1.44922	0.00054
0.016	0.195	1.46545	0.00059
0.033	0.191	1.46373	0.00058
0.016	0.101	1.48074	0.00063
0	0	1.49937	0.00069
0	0.009	1.4978	0.00068
0	0.044	1.4919	0.00066
0	0.074	1.48696	0.00065
0	0.105	1.48178	0.00063
0	0.159	1.47307	0.00061
0	0.227	1.46247	0.00058
0	0.315	1.44917	0.00054
0	0.436	1.43182	0.00048
0	0.635	1.40428	0.00041
0	0.778	1.38418	0.00037
0	1	1.35309	0.00033

System: ethanol + hexane + 1-hexyl-3-methylimidazolium dicyanamide; phases: Liquid mixture 2, Liquid mixture 1
Fixed: Pressure, kPa = 101
Fixed: Temperature, K = 298.15
Property: Mole fraction of hexane (Liquid mixture 2); method: Density calibration data
Property: Mole fraction of ethanol (Liquid mixture 1); method: Density calibration data
Property: Mole fraction of hexane (Liquid mixture 1); method: Density calibration data
Mole fraction of ethanol	Mole fraction of hexane	uncertainty	Mole fraction of ethanol	uncertainty	Mole fraction of hexane	uncertainty
0	0.035	0.016	0		1	
0.163	0.057	0.016	0.001	0.001	0.999	
0.333	0.074	0.016	0.005	0.005	0.995	
0.472	0.07	0.016	0.009	0.009	0.991	
0.523	0.073	0.016	0.012	0.012	0.988	
0.583	0.088	0.017	0.016	0.016	0.984	
0.624	0.103	0.017	0.032	0.023	0.968	
0.661	0.114	0.017	0.049	0.023	0.951	
0.679	0.12	0.02	0.065	0.023	0.935	
0.727	0.158	0.021	0.086	0.023	0.914	

System: ethanol + hexane + 1-hexyl-3-methylimidazolium bis[(trifluoromethyl)sulfonyl]imide; phases: Liquid
Fixed: Temperature, K = 313.15
Fixed: Pressure, kPa = 101
Property: Mass density, kg/m3 (Liquid); method: Vibrating tube method
Mass fraction of hexane	Mass fraction of ethanol	Mass density, kg/m3	uncertainty
0.053	0.895	782.19	1.57
0.108	0.843	771.8	1.55
0.217	0.74	752.13	1.52
0.32	0.643	734.59	1.49
0.428	0.541	717.4	1.47
0.528	0.446	703.22	1.44
0.627	0.352	687.54	1.41
0.693	0.29	678.65	1.39
0.058	0.795	817.43	1.64
0.117	0.745	805.56	1.62
0.16	0.709	793.96	1.6
0.214	0.663	781.49	1.58
0.269	0.617	769.98	1.56
0.319	0.575	759.43	1.54
0.373	0.529	748.68	1.53
0.42	0.489	739.53	1.51
0.473	0.444	729.4	1.49
0.538	0.39	717.05	1.47
0.047	0.712	856.59	1.72
0.096	0.675	842.74	1.7
0.155	0.631	825.89	1.67
0.208	0.591	811.76	1.64
0.257	0.554	798.56	1.62
0.307	0.518	785.67	1.6
0.362	0.477	772.8	1.58
0.41	0.441	760.63	1.55
0.483	0.386	744.58	1.52
0.046	0.619	896.87	1.81
0.094	0.588	879.39	1.77
0.146	0.554	861.49	1.74
0.26	0.48	826.06	1.68
0.298	0.456	815.42	1.66
0.386	0.399	790.17	1.61
0.046	0.522	943.2	1.9
0.092	0.497	924.02	1.87
0.139	0.471	903.71	1.83
0.181	0.448	887.31	1.8
0.271	0.399	852.81	1.73
0.043	0.476	969.87	1.96
0.09	0.453	948.31	1.92
0.137	0.43	927.28	1.87
0.187	0.405	905.54	1.83
0.044	0.427	997.8	2.01
0.087	0.408	974.67	1.97
0.132	0.388	951.96	1.92
0.185	0.364	927.22	1.87
0.053	0.376	1019.32	2.06
0.086	0.364	1000.3	2.02
0.129	0.346	977.36	1.97
0.033	0.339	1058.12	2.13
0.067	0.327	1036.73	2.09
0.102	0.315	1015.52	2.05
0.023	0.284	1103.38	2.22
0.048	0.277	1083.92	2.18
0.076	0.269	1068.17	2.15
0.03	0.238	1128	2.27
0.064	0.23	1103.19	2.22
0	0	1356.95	2.76
0	0.099	1270.16	2.57
0	0.231	1161.07	2.34
0	0.328	1092.32	2.2
0	0.426	1030.68	2.08
0	0.529	973.37	1.96
0	0.646	914.93	1.84
0	0.74	872.96	1.75
0	0.901	808.24	1.62
0	1	772.84	1.55

System: ethanol + hexane + 1-hexyl-3-methylimidazolium bis[(trifluoromethyl)sulfonyl]imide; phases: Liquid
Fixed: Temperature, K = 313.15
Fixed: Pressure, kPa = 101
Property: Refractive index (Na D-line) (Liquid); method: Standard Abbe refractometry
Mass fraction of hexane	Mass fraction of ethanol	Refractive index (Na D-line)	uncertainty
0.053	0.895	1.35607	0.00033
0.108	0.843	1.35628	0.00034
0.217	0.74	1.35634	0.00034
0.32	0.643	1.35708	0.00034
0.428	0.541	1.3577	0.00035
0.528	0.446	1.35846	0.00035
0.627	0.352	1.35917	0.00036
0.693	0.29	1.35978	0.00036
0.058	0.795	1.36063	0.00034
0.117	0.745	1.36056	0.00034
0.16	0.709	1.36048	0.00034
0.214	0.663	1.36048	0.00034
0.269	0.617	1.36047	0.00034
0.319	0.575	1.36049	0.00035
0.373	0.529	1.36053	0.00035
0.42	0.489	1.3606	0.00035
0.473	0.444	1.36074	0.00035
0.538	0.39	1.36085	0.00036
0.047	0.712	1.36551	0.00034
0.096	0.675	1.36517	0.00034
0.155	0.631	1.36473	0.00034
0.208	0.591	1.36442	0.00035
0.257	0.554	1.36411	0.00035
0.307	0.518	1.36388	0.00035
0.362	0.477	1.36364	0.00035
0.41	0.441	1.36346	0.00035
0.483	0.386	1.36318	0.00036
0.046	0.619	1.37086	0.00034
0.094	0.588	1.37016	0.00035
0.146	0.554	1.36943	0.00035
0.26	0.48	1.36792	0.00035
0.298	0.456	1.36752	0.00035
0.386	0.399	1.36656	0.00036
0.046	0.522	1.37666	0.00035
0.092	0.497	1.37562	0.00035
0.139	0.471	1.37452	0.00035
0.181	0.448	1.37361	0.00035
0.271	0.399	1.37174	0.00036
0.043	0.476	1.37993	0.00035
0.09	0.453	1.37865	0.00035
0.137	0.43	1.37741	0.00036
0.187	0.405	1.37602	0.00036
0.044	0.427	1.38329	0.00036
0.087	0.408	1.38185	0.00036
0.132	0.388	1.38033	0.00036
0.185	0.364	1.37901	0.00036
0.053	0.376	1.38623	0.00036
0.086	0.364	1.38495	0.00036
0.129	0.346	1.3834	0.00036
0.033	0.339	1.39045	0.00036
0.067	0.327	1.38902	0.00036
0.102	0.315	1.38738	0.00036
0.023	0.284	1.39554	0.00036
0.048	0.277	1.39406	0.00037
0.076	0.269	1.39278	0.00037
0.03	0.238	1.39875	0.00037
0.064	0.23	1.3969	0.00037
0	0	1.42542	0.00039
0	0.099	1.41392	0.00038
0	0.231	1.40128	0.00037
0	0.328	1.39325	0.00036
0	0.426	1.38638	0.00036
0	0.529	1.37894	0.00035
0	0.646	1.37165	0.00034
0	0.74	1.36626	0.00034
0	0.901	1.35782	0.00033
0	1	1.35309	0.00033

System: ethanol + hexane + 1-hexyl-3-methylimidazolium bis[(trifluoromethyl)sulfonyl]imide; phases: Liquid mixture 2, Liquid mixture 1
Fixed: Pressure, kPa = 101
Fixed: Temperature, K = 298.15
Property: Mole fraction of hexane (Liquid mixture 2); method: Density calibration data
Property: Mole fraction of ethanol (Liquid mixture 1); method: Density calibration data
Property: Mole fraction of hexane (Liquid mixture 1); method: Density calibration data
Mole fraction of ethanol	Mole fraction of hexane	uncertainty	Mole fraction of ethanol	uncertainty	Mole fraction of hexane	uncertainty
0	0.182	0.016	0		1	
0.226	0.161	0.016	0.012	0.012	0.988	
0.339	0.153	0.016	0.025	0.023	0.975	
0.403	0.151	0.016	0.038	0.023	0.962	
0.463	0.15	0.016	0.051	0.023	0.949	
0.524	0.153	0.016	0.069	0.023	0.931	
0.563	0.157	0.017	0.082	0.023	0.918	
0.604	0.165	0.017	0.097	0.023	0.903	
0.632	0.175	0.017	0.127	0.023	0.873	

System: ethanol + hexane + 1-methyl-3-propylimidazolium bis[(trifluoromethyl)sulfonyl]imide; phases: Liquid
Fixed: Temperature, K = 313.15
Fixed: Pressure, kPa = 101
Property: Mass density, kg/m3 (Liquid); method: Vibrating tube method
Mass fraction of hexane	Mass fraction of ethanol	Mass density, kg/m3	uncertainty
0.054	0.891	785.47	1.58
0.132	0.817	770.93	1.55
0.211	0.742	756.31	1.53
0.275	0.682	745.4	1.51
0.331	0.629	735.81	1.5
0.383	0.58	727.63	1.49
0.436	0.531	719.38	1.47
0.485	0.485	711.87	1.46
0.533	0.439	704.8	1.47
0.053	0.799	823.1	1.65
0.105	0.755	810.71	1.63
0.155	0.713	798.57	1.61
0.19	0.683	790.94	1.6
0.252	0.632	777.87	1.57
0.301	0.59	766.85	1.56
0.351	0.547	756.58	1.54
0.405	0.502	745.35	1.53
0.049	0.708	866.53	1.74
0.095	0.674	852.89	1.72
0.153	0.631	835.08	1.69
0.206	0.591	821.09	1.66
0.258	0.553	806.44	1.64
0.304	0.518	793.49	1.61
0.046	0.616	912.4	1.84
0.096	0.585	893.51	1.8
0.144	0.553	876.05	1.77
0.195	0.52	858.47	1.74
0.043	0.521	966.23	1.96
0.09	0.495	944.58	1.91
0.136	0.471	924.88	1.87
0.176	0.449	908.95	1.84
0.025	0.44	1032.39	2.09
0.051	0.428	1017.33	2.06
0.078	0.416	1003.07	2.03
0.105	0.404	987.97	2
0.024	0.346	1097.29	2.22
0.04	0.341	1086.18	2.19
0.066	0.331	1069.63	2.16
0.016	0.247	1184.91	2.39
0.025	0.286	1143.27	2.31
0.039	0.282	1132.17	2.28
0	0	1459.22	2.98
0	0.006	1451.19	2.96
0	0.016	1438.05	2.93
0	0.033	1417.38	2.88
0	0.056	1389.99	2.82
0	0.087	1355.81	2.75
0	0.128	1312.08	2.66
0	0.174	1265.84	2.56
0	0.254	1194.26	2.41
0	0.372	1101.4	2.22
0	0.551	984.1	1.98
0	1	772.84	1.55

System: ethanol + hexane + 1-methyl-3-propylimidazolium bis[(trifluoromethyl)sulfonyl]imide; phases: Liquid
Fixed: Temperature, K = 313.15
Fixed: Pressure, kPa = 101
Property: Refractive index (Na D-line) (Liquid); method: Standard Abbe refractometry
Mass fraction of hexane	Mass fraction of ethanol	Refractive index (Na D-line)	uncertainty
0.054	0.891	1.35566	0.00033
0.132	0.817	1.35602	0.00034
0.211	0.742	1.35639	0.00034
0.275	0.682	1.35672	0.00034
0.331	0.629	1.3571	0.00034
0.383	0.58	1.35738	0.00035
0.436	0.531	1.35775	0.00035
0.485	0.485	1.35812	0.00035
0.533	0.439	1.35848	0.00035
0.053	0.799	1.35976	0.00034
0.105	0.755	1.35975	0.00034
0.155	0.713	1.35968	0.00034
0.19	0.683	1.35978	0.00034
0.252	0.632	1.35977	0.00034
0.301	0.59	1.3598	0.00035
0.351	0.547	1.35986	0.00035
0.405	0.502	1.36002	0.00035
0.049	0.708	1.36431	0.00034
0.095	0.674	1.36404	0.00034
0.153	0.631	1.36383	0.00034
0.206	0.591	1.3636	0.00035
0.258	0.553	1.36338	0.00035
0.304	0.518	1.36314	0.00035
0.046	0.616	1.36901	0.00034
0.096	0.585	1.36835	0.00035
0.144	0.553	1.36773	0.00035
0.195	0.52	1.36743	0.00035
0.043	0.521	1.37451	0.00035
0.09	0.495	1.37345	0.00035
0.136	0.471	1.37242	0.00035
0.176	0.449	1.37168	0.00035
0.025	0.44	1.38036	0.00035
0.051	0.428	1.37956	0.00036
0.078	0.416	1.3789	0.00036
0.105	0.404	1.37831	0.00036
0.024	0.346	1.3867	0.00036
0.04	0.341	1.38619	0.00036
0.066	0.331	1.38514	0.00036
0.016	0.247	1.39514	0.00037
0.025	0.286	1.39142	0.00036
0.039	0.282	1.3909	0.00036
0	0	1.42072	0.00039
0	0.006	1.42002	0.00039
0	0.016	1.41876	0.00039
0	0.033	1.41677	0.00038
0	0.056	1.41426	0.00038
0	0.087	1.41118	0.00038
0	0.128	1.40726	0.00038
0	0.174	1.40298	0.00037
0	0.254	1.39649	0.00037
0	0.372	1.38757	0.00036
0	0.551	1.37559	0.00035
0	1	1.35309	0.00033

System: ethanol + hexane + 1-methyl-3-propylimidazolium bis[(trifluoromethyl)sulfonyl]imide; phases: Liquid mixture 2, Liquid mixture 1
Fixed: Pressure, kPa = 101
Fixed: Temperature, K = 298.15
Property: Mole fraction of hexane (Liquid mixture 2); method: Density calibration data
Property: Mole fraction of ethanol (Liquid mixture 1); method: Density calibration data
Property: Mole fraction of hexane (Liquid mixture 1); method: Density calibration data
Mole fraction of ethanol	Mole fraction of hexane	uncertainty	Mole fraction of ethanol	uncertainty	Mole fraction of hexane	uncertainty
0	0.059	0.016	0		1	
0.097	0.05	0.016	0.002	0.002	0.998	
0.272	0.056	0.016	0.009	0.009	0.991	
0.379	0.066	0.016	0.03	0.023	0.97	
0.442	0.068	0.016	0.057	0.023	0.943	
0.5	0.07	0.016	0.095	0.023	0.905	
0.545	0.071	0.016	0.133	0.023	0.867	
0.576	0.072	0.016	0.181	0.023	0.819	
0.61	0.082	0.017	0.214	0.023	0.786	

System: ethanol + 1-hexyl-3-methylimidazolium trifluoromethanesulfonate; phases: Liquid
Fixed: Temperature, K = 313.15
Fixed: Pressure, kPa = 101
Property: Mass density, kg/m3 (Liquid); method: Vibrating tube method
Mass fraction of ethanol	Mass density, kg/m3	uncertainty
0.72	865.87	1.73
0.551	931.55	1.88
0.366	1013.63	2.04
0.252	1071.49	2.15
0.179	1111.76	2.24
0.123	1144.87	2.31
0.082	1170.66	2.36
0.056	1187.39	2.4
0.031	1203.9	2.43
0.015	1214.61	2.46
0.008	1219.8	2.47

System: ethanol + 1-hexyl-3-methylimidazolium trifluoromethanesulfonate; phases: Liquid
Fixed: Temperature, K = 313.15
Fixed: Pressure, kPa = 101
Property: Refractive index (Na D-line) (Liquid); method: Standard Abbe refractometry
Mass fraction of ethanol	Refractive index (Na D-line)	uncertainty
0.72	1.37175	0.00034
0.551	1.38502	0.00035
0.366	1.39893	0.00036
0.252	1.40929	0.00037
0.179	1.4163	0.00037
0.123	1.4224	0.00038
0.082	1.42682	0.00038
0.056	1.42966	0.00038
0.031	1.43265	0.00039
0.015	1.43444	0.00039
0.008	1.4353	0.00039

System: hexane + 1-hexyl-3-methylimidazolium trifluoromethanesulfonate; phases: Liquid mixture 2, Liquid mixture 1
Property: Mole fraction of hexane (Liquid mixture 2); method: Density calibration data
Pressure, kPa	Temperature, K	Mole fraction of hexane	uncertainty
101	298.15	0.106	0.016

System: ethanol + 1-hexyl-3-methylimidazolium dicyanamide; phases: Liquid
Fixed: Temperature, K = 313.15
Fixed: Pressure, kPa = 101
Property: Mass density, kg/m3 (Liquid); method: Vibrating tube method
Mass fraction of ethanol	Mass density, kg/m3	uncertainty
0.009	1016.5	2.68
0.044	1006.7	2.57
0.074	998.44	2.48
0.105	989.87	2.4
0.159	975.18	2.28
0.227	956.75	2.15
0.315	933.36	2.01
0.436	902.82	1.88
0.635	855.41	1.73
0.778	822.69	1.65

System: ethanol + 1-hexyl-3-methylimidazolium dicyanamide; phases: Liquid
Fixed: Temperature, K = 313.15
Fixed: Pressure, kPa = 101
Property: Refractive index (Na D-line) (Liquid); method: Standard Abbe refractometry
Mass fraction of ethanol	Refractive index (Na D-line)	uncertainty
0.009	1.4978	0.00068
0.044	1.4919	0.00066
0.074	1.48696	0.00065
0.105	1.48178	0.00063
0.159	1.47307	0.00061
0.227	1.46247	0.00058
0.315	1.44917	0.00054
0.436	1.43182	0.00048
0.635	1.40428	0.00041
0.778	1.38418	0.00036

System: hexane + 1-hexyl-3-methylimidazolium dicyanamide; phases: Liquid mixture 2, Liquid mixture 1
Property: Mole fraction of hexane (Liquid mixture 2); method: Density calibration data
Pressure, kPa	Temperature, K	Mole fraction of hexane	uncertainty
101	298.15	0.035	0.016

System: ethanol + 1-hexyl-3-methylimidazolium bis[(trifluoromethyl)sulfonyl]imide; phases: Liquid
Fixed: Temperature, K = 313.15
Fixed: Pressure, kPa = 101
Property: Mass density, kg/m3 (Liquid); method: Vibrating tube method
Mass fraction of ethanol	Mass density, kg/m3	uncertainty
0.099	1270.16	2.57
0.231	1161.07	2.34
0.328	1092.32	2.2
0.426	1030.68	2.08
0.529	973.37	1.96
0.646	914.93	1.84
0.74	872.96	1.75
0.901	808.24	1.62

System: ethanol + 1-hexyl-3-methylimidazolium bis[(trifluoromethyl)sulfonyl]imide; phases: Liquid
Fixed: Temperature, K = 313.15
Fixed: Pressure, kPa = 101
Property: Refractive index (Na D-line) (Liquid); method: Standard Abbe refractometry
Mass fraction of ethanol	Refractive index (Na D-line)	uncertainty
0.099	1.41392	0.00038
0.231	1.40128	0.00037
0.328	1.39325	0.00036
0.426	1.38638	0.00036
0.529	1.37894	0.00035
0.646	1.37165	0.00034
0.74	1.36626	0.00034
0.901	1.35782	0.00033

System: hexane + 1-hexyl-3-methylimidazolium bis[(trifluoromethyl)sulfonyl]imide; phases: Liquid mixture 2, Liquid mixture 1
Property: Mole fraction of hexane (Liquid mixture 2); method: Density calibration data
Pressure, kPa	Temperature, K	Mole fraction of hexane	uncertainty
101	298.15	0.182	0.016

System: ethanol + 1-methyl-3-propylimidazolium bis[(trifluoromethyl)sulfonyl]imide; phases: Liquid
Fixed: Temperature, K = 313.15
Fixed: Pressure, kPa = 101
Property: Mass density, kg/m3 (Liquid); method: Vibrating tube method
Mass fraction of ethanol	Mass density, kg/m3	uncertainty
0.006	1451.19	2.96
0.016	1438.05	2.93
0.033	1417.38	2.88
0.056	1389.99	2.82
0.087	1355.81	2.75
0.128	1312.08	2.66
0.174	1265.84	2.56
0.254	1194.26	2.41
0.372	1101.4	2.22
0.551	984.1	1.97

System: ethanol + 1-methyl-3-propylimidazolium bis[(trifluoromethyl)sulfonyl]imide; phases: Liquid
Fixed: Temperature, K = 313.15
Fixed: Pressure, kPa = 101
Property: Refractive index (Na D-line) (Liquid); method: Standard Abbe refractometry
Mass fraction of ethanol	Refractive index (Na D-line)	uncertainty
0.006	1.42002	0.00039
0.016	1.41876	0.00039
0.033	1.41677	0.00038
0.056	1.41426	0.00038
0.087	1.41118	0.00038
0.128	1.40726	0.00038
0.174	1.40298	0.00037
0.254	1.39649	0.00037
0.372	1.38757	0.00036
0.551	1.37559	0.00035

System: hexane + 1-methyl-3-propylimidazolium bis[(trifluoromethyl)sulfonyl]imide; phases: Liquid mixture 2, Liquid mixture 1
Property: Mole fraction of hexane (Liquid mixture 2); method: Density calibration data
Pressure, kPa	Temperature, K	Mole fraction of hexane	uncertainty
101	298.15	0.059	0.016
