Measured thermophysical data. Isobaric vapor liquid equilibrium (VLE) for pinane, dihydromyrcene (DHM) and  dihydromyrcenol (DHMOH) at 6 kPa
Source: Fluid Phase Equilib., 2013, 10.1016/j.fluid.2012.12.035
Compound 1: 3,7-dimethyl-1,6-octadiene, C10H18, InChI=1S/C10H18/c1-5-10(4)8-6-7-9(2)3/h5,7,10H,1,6,8H2,2-4H3
Compound 2: [1S-(1.alpha.,2.beta.,5.alpha.)]-2,6,6-trimethylbicyclo[3.1.1]heptane, C10H18, InChI=1S/C10H18/c1-7-4-5-8-6-9(7)10(8,2)3/h7-9H,4-6H2,1-3H3/t7-,8+,9+/m1/s1
Compound 3: 2,6-dimethyl-7-octen-2-ol, C10H20O, InChI=1S/C10H20O/c1-5-9(2)7-6-8-10(3,4)11/h5,9,11H,1,6-8H2,2-4H3

System: 3,7-dimethyl-1,6-octadiene + [1S-(1.alpha.,2.beta.,5.alpha.)]-2,6,6-trimethylbicyclo[3.1.1]heptane; phases: Liquid, Gas
Fixed: Pressure, kPa = 6
Property: Boiling temperature at pressure P, K (Liquid); method: Ebulliometric method (Recirculating still)
Mole fraction of 3,7-dimethyl-1,6-octadiene	Boiling temperature at pressure P, K	uncertainty
0.92	348.75	0.85
0.8424	348.95	0.85
0.7352	349.35	0.85
0.7346	349.35	0.85
0.6357	349.75	0.85
0.5813	350.05	0.85
0.5413	350.25	0.85
0.4956	350.45	0.85
0.4046	350.85	0.85
0.3052	351.25	0.85
0.2556	351.55	0.85
0.163	352.05	0.85
0.0519	352.65	0.85

System: 3,7-dimethyl-1,6-octadiene + [1S-(1.alpha.,2.beta.,5.alpha.)]-2,6,6-trimethylbicyclo[3.1.1]heptane; phases: Gas, Liquid
Fixed: Pressure, kPa = 6
Property: Mole fraction of 3,7-dimethyl-1,6-octadiene (Gas); method: Chromatography
Mole fraction of 3,7-dimethyl-1,6-octadiene	Mole fraction of 3,7-dimethyl-1,6-octadiene	uncertainty
0.92	0.9282	0.0012
0.8424	0.8592	0.0024
0.7352	0.7629	0.004
0.7346	0.7624	0.0041
0.6357	0.6714	0.0055
0.5813	0.6211	0.0062
0.5413	0.5838	0.0067
0.4956	0.54	0.0072
0.4046	0.4513	0.0066
0.3052	0.3499	0.0046
0.2556	0.2985	0.0037
0.163	0.1975	0.0022
0.0519	0.0666	0.0007

System: 3,7-dimethyl-1,6-octadiene + 2,6-dimethyl-7-octen-2-ol; phases: Liquid, Gas
Fixed: Pressure, kPa = 6
Property: Boiling temperature at pressure P, K (Liquid); method: Ebulliometric method (Recirculating still)
Mole fraction of 3,7-dimethyl-1,6-octadiene	Boiling temperature at pressure P, K	uncertainty
0.8921	349.75	0.85
0.8125	350.85	0.85
0.7342	351.85	0.85
0.6865	352.75	0.85
0.5354	355.45	0.85
0.4273	358.35	0.85
0.3261	361.55	0.85
0.2806	363.55	0.85
0.247	365.05	0.85
0.1992	367.85	0.85
0.1336	372.15	0.85
0.075	376.35	0.85
0.0314	380.05	0.85

System: 3,7-dimethyl-1,6-octadiene + 2,6-dimethyl-7-octen-2-ol; phases: Gas, Liquid
Fixed: Pressure, kPa = 6
Property: Mole fraction of 3,7-dimethyl-1,6-octadiene (Gas); method: Chromatography
Mole fraction of 3,7-dimethyl-1,6-octadiene	Mole fraction of 3,7-dimethyl-1,6-octadiene	uncertainty
0.8921	0.9723	0.0005
0.8125	0.9531	0.0008
0.7342	0.9345	0.001
0.6865	0.9193	0.0013
0.5354	0.8694	0.0019
0.4273	0.8208	0.0025
0.3261	0.7488	0.0033
0.2806	0.7099	0.0037
0.247	0.6782	0.004
0.1992	0.6175	0.0045
0.1336	0.4992	0.0054
0.075	0.3482	0.0035
0.0314	0.189	0.0019

System: [1S-(1.alpha.,2.beta.,5.alpha.)]-2,6,6-trimethylbicyclo[3.1.1]heptane + 2,6-dimethyl-7-octen-2-ol; phases: Liquid, Gas
Fixed: Pressure, kPa = 6
Property: Boiling temperature at pressure P, K (Liquid); method: Ebulliometric method (Recirculating still)
Mole fraction of [1S-(1.alpha.,2.beta.,5.alpha.)]-2,6,6-trimethylbicyclo[3.1.1]heptane	Boiling temperature at pressure P, K	uncertainty
0.8983	353.95	0.85
0.839	354.65	0.85
0.8079	354.95	0.85
0.7712	355.45	0.85
0.7298	355.85	0.85
0.6934	356.45	0.85
0.6447	357.05	0.85
0.6	357.85	0.85
0.5393	359.15	0.85
0.4953	360.15	0.85
0.4026	362.55	0.85
0.3499	363.85	0.85
0.3095	365.85	0.85
0.254	368.35	0.85
0.1611	373.15	0.85
0.0737	379.45	0.85
0.0288	383.05	0.85

System: [1S-(1.alpha.,2.beta.,5.alpha.)]-2,6,6-trimethylbicyclo[3.1.1]heptane + 2,6-dimethyl-7-octen-2-ol; phases: Gas, Liquid
Fixed: Pressure, kPa = 6
Property: Mole fraction of [1S-(1.alpha.,2.beta.,5.alpha.)]-2,6,6-trimethylbicyclo[3.1.1]heptane (Gas); method: Chromatography
Mole fraction of [1S-(1.alpha.,2.beta.,5.alpha.)]-2,6,6-trimethylbicyclo[3.1.1]heptane	Mole fraction of [1S-(1.alpha.,2.beta.,5.alpha.)]-2,6,6-trimethylbicyclo[3.1.1]heptane	uncertainty
0.8983	0.9574	0.0014
0.839	0.9361	0.002
0.8079	0.9263	0.0023
0.7712	0.9161	0.0026
0.7298	0.9093	0.0027
0.6934	0.8972	0.003
0.6447	0.8831	0.0034
0.6	0.8691	0.0037
0.5393	0.8503	0.0041
0.4953	0.8327	0.0044
0.4026	0.7922	0.0051
0.3499	0.7582	0.0056
0.3095	0.7251	0.0059
0.254	0.6695	0.0064
0.1611	0.5227	0.007
0.0737	0.3051	0.0032
0.0288	0.1378	0.0015

System: 3,7-dimethyl-1,6-octadiene + [1S-(1.alpha.,2.beta.,5.alpha.)]-2,6,6-trimethylbicyclo[3.1.1]heptane + 2,6-dimethyl-7-octen-2-ol; phases: Liquid, Gas
Fixed: Pressure, kPa = 6
Property: Mole fraction of [1S-(1.alpha.,2.beta.,5.alpha.)]-2,6,6-trimethylbicyclo[3.1.1]heptane (Liquid); method: Chromatography
Property: Mole fraction of [1S-(1.alpha.,2.beta.,5.alpha.)]-2,6,6-trimethylbicyclo[3.1.1]heptane (Gas); method: Chromatography
Property: Mole fraction of 3,7-dimethyl-1,6-octadiene (Gas); method: Chromatography
Temperature, K	Mole fraction of 3,7-dimethyl-1,6-octadiene	Mole fraction of [1S-(1.alpha.,2.beta.,5.alpha.)]-2,6,6-trimethylbicyclo[3.1.1]heptane	uncertainty	Mole fraction of [1S-(1.alpha.,2.beta.,5.alpha.)]-2,6,6-trimethylbicyclo[3.1.1]heptane	uncertainty	Mole fraction of 3,7-dimethyl-1,6-octadiene	uncertainty
350.95	0.5786	0.332	0.0028	0.3186	0.0036	0.6492	
355.25	0.3848	0.2222	0.0018	0.2946	0.0032	0.5953	
356.85	0.334	0.1922	0.0015	0.287	0.0031	0.5776	
376.35	0.0341	0.0685	0.0005	0.2034	0.002	0.1181	
357.65	0.3337	0.1429	0.0011	0.2285	0.0023	0.6141	
355.85	0.421	0.1274	0.001	0.1837	0.0018	0.6797	
354.85	0.392	0.2351	0.0019	0.3052	0.0034	0.5969	
354.45	0.3547	0.3164	0.0026	0.3954	0.005	0.5049	
355.45	0.323	0.2921	0.0024	0.3895	0.0048	0.4957	
354.95	0.2711	0.3982	0.0035	0.5043	0.0075	0.3977	
356.15	0.2393	0.3539	0.003	0.4948	0.0073	0.3964	
358.95	0.1829	0.2753	0.0022	0.4689	0.0066	0.3703	
360.65	0.1597	0.2419	0.0019	0.4449	0.0059	0.3402	
359.65	0.1545	0.297	0.0024	0.4974	0.0073	0.2985	
352.15	0.5137	0.296	0.0024	0.3125	0.0035	0.6278	
353.35	0.4597	0.2643	0.0021	0.3071	0.0034	0.6069	
