Measured thermophysical data. Experimental densities and derived thermodynamic properties of liquid propan-1-ol at temperatures from 298 to 423K and at pressures up to 40MPa
Source: Fluid Phase Equilib., 2008, 10.1016/j.fluid.2008.03.009
Compound 1: propan-1-ol, C3H8O, InChI=1S/C3H8O/c1-2-3-4/h4H,2-3H2,1H3, purity 99.8%

System: propan-1-ol; phases: Liquid
Property: Mass density, kg/m3 (Liquid); method: Vibrating tube method
Temperature, K	Pressure, kPa	Mass density, kg/m3	uncertainty
298.15	110	799.54	0.11
298.15	5270	803.6	0.2
298.15	9870	807.01	0.22
298.15	14700	810.46	0.25
298.15	20530	814.46	0.27
298.15	25030	817.44	0.3
298.15	30100	820.7	0.32
298.15	35010	823.76	0.34
298.15	39560	826.52	0.37
323.15	590	779.78	0.12
323.15	5940	784.71	0.21
323.15	10600	788.81	0.24
323.15	16000	793.2	0.27
323.15	20640	796.73	0.29
323.15	24880	799.83	0.31
323.15	30800	803.99	0.35
323.15	35220	807.01	0.37
323.15	39790	810.02	0.4
348.15	140	757.11	0.13
348.15	5170	762.68	0.22
348.15	10260	767.5	0.25
348.15	15790	772.52	0.28
348.15	20560	776.41	0.31
348.15	24810	780.32	0.34
348.15	29300	784.09	0.36
348.15	35560	789.01	0.4
348.15	39950	792.23	0.43
373.15	360	733.24	0.14
373.15	5480	739.29	0.23
373.15	10290	745.11	0.26
373.15	15700	750.9	0.3
373.15	19960	755.19	0.33
373.15	25170	760.17	0.36
373.15	30510	765.02	0.4
373.15	35920	769.7	0.44
373.15	39780	772.91	0.47
398.15	620	705.55	0.16
398.15	5670	713.23	0.24
398.15	10620	720.1	0.28
398.15	15580	726.46	0.32
398.15	20350	732.35	0.35
398.15	25090	737.77	0.39
398.15	31150	744.07	0.44
398.15	35410	748.41	0.48
398.15	39390	752.32	0.51
423.15	1570	674.63	0.18
423.15	5870	682.79	0.26
423.15	10160	690.93	0.3
423.15	15320	699.32	0.34
423.15	20500	707.2	0.38
423.15	26280	715.01	0.44
423.15	31600	721.36	0.49
423.15	35780	726.03	0.52
423.15	39700	730.17	0.56
