Measured thermophysical data. Vapour pressure and enthalpy of vaporization of cyclic alkylene carbonates
Source: Fluid Phase Equilib., 2008, 10.1016/j.fluid.2008.03.013
Compound 1: ethylene carbonate, C3H4O3, InChI=1S/C3H4O3/c4-3-5-1-2-6-3/h1-2H2
Compound 2: 4-methyl-1,3-dioxolan-2-one, C4H6O3, InChI=1S/C4H6O3/c1-3-2-6-4(5)7-3/h3H,2H2,1H3
Compound 3: 1,2-butylene carbonate, C5H8O3, InChI=1S/C5H8O3/c1-2-4-3-7-5(6)8-4/h4H,2-3H2,1H3
Compound 4: glycerine carbonate, C4H6O4, InChI=1S/C4H6O4/c5-1-3-2-7-4(6)8-3/h3,5H,1-2H2

System: ethylene carbonate; phases: Liquid, Gas
Property: Vapor or sublimation pressure, kPa (Liquid); method: Transpiration method
Temperature, K	Vapor or sublimation pressure, kPa	uncertainty
310.3	0.012	0.00063
314.4	0.01615	0.00084
314.5	0.01614	0.00084
317.3	0.02	0.00105
320.3	0.02499	0.00129
320.4	0.02475	0.00128
323.5	0.0305	0.00158
324.4	0.03281	0.0017
327.4	0.03939	0.00203
328.6	0.04312	0.00224
331.3	0.05119	0.00264
333.6	0.05962	0.0031
335.4	0.06848	0.00354
338.7	0.08312	0.00427
341.4	0.0978	0.00501
342.3	0.10313	0.00524
343.8	0.10942	0.00561
345.2	0.12126	0.00624
347.6	0.13793	0.0071
349	0.15399	0.00796
352.4	0.18692	0.00955
354	0.20368	0.01046
357.5	0.24733	0.01261
358.9	0.2642	0.01352
360.6	0.29205	0.0149
363.2	0.32831	0.01671
364.1	0.34861	0.01797
366.7	0.40473	0.02073
369.5	0.46945	0.02392

System: ethylene carbonate; phases: Crystal, Gas
Property: Vapor or sublimation pressure, kPa (Crystal); method: Transpiration method
Temperature, K	Vapor or sublimation pressure, kPa	uncertainty
280.6	0.00062	4e-05
286.2	0.00119	7e-05
291.3	0.002	0.00011
295.5	0.00325	0.00018
299.4	0.00472	0.00025
303.2	0.00675	0.00036
304.4	0.00785	0.00042
306.4	0.00907	0.00048
308.4	0.01077	0.00056

System: 4-methyl-1,3-dioxolan-2-one; phases: Liquid, Gas
Property: Vapor or sublimation pressure, kPa (Liquid); method: Transpiration method
Temperature, K	Vapor or sublimation pressure, kPa	uncertainty
298.4	0.0085	0.00045
303.3	0.01247	0.00065
308.2	0.0181	0.00094
311.3	0.0223	0.00115
313.2	0.02529	0.00134
318.2	0.03723	0.00193
321.2	0.04503	0.00234
322.7	0.05193	0.00276
324.2	0.05893	0.00306
326.6	0.06788	0.00351
329.6	0.08307	0.0043
332.7	0.1019	0.0053
335.7	0.1281	0.0066
337.7	0.1375	0.007
338.8	0.1525	0.0079
340.8	0.1721	0.0088
341.8	0.1787	0.0092
344.9	0.2178	0.0112

System: 1,2-butylene carbonate; phases: Liquid, Gas
Property: Vapor or sublimation pressure, kPa (Liquid); method: Transpiration method
Temperature, K	Vapor or sublimation pressure, kPa	uncertainty
288.6	0.00186	0.0001
293.5	0.00284	0.00015
298.5	0.00453	0.00024
303.4	0.00649	0.00034
307.3	0.0087	0.00046
310.3	0.01164	0.00061
313.3	0.01439	0.00075
316.3	0.01837	0.00096
319.3	0.02281	0.00118
322.5	0.02805	0.00147
327.4	0.04092	0.00211
330.3	0.04839	0.00253
333.6	0.06415	0.00333
338.7	0.086	0.00442
343.8	0.1159	0.0059

System: glycerine carbonate; phases: Liquid, Gas
Property: Vapor or sublimation pressure, kPa (Liquid); method: Transpiration method
Temperature, K	Vapor or sublimation pressure, kPa	uncertainty
330.2	0.00029	2e-05
333.2	0.00039	2e-05
338.3	0.00062	3e-05
343.2	0.00091	5e-05
348.4	0.00144	8e-05
351.2	0.00173	9e-05
355.5	0.0025	0.00013
359.8	0.00368	0.00018
360.6	0.00362	0.00018
363.7	0.00433	0.00023
366.4	0.00542	0.00028
369.4	0.00681	0.00035
371.8	0.00782	0.00041
373.2	0.00886	0.00047
377.2	0.01171	0.00062
384.5	0.02019	0.00104
387.3	0.02392	0.00122
388	0.02471	0.00126
392.7	0.03339	0.00172
398.5	0.04694	0.00239
