Measured thermophysical data. Quaternary liquid-liquid equilibrium, solubility and critical states: Acetic acid - n-butanol - n-butyl acetate - water at 318.15 K and atmospheric pressure
Source: Fluid Phase Equilib., 2019, 10.1016/j.fluid.2019.04.020
Compound 1: acetic acid, C2H4O2, InChI=1S/C2H4O2/c1-2(3)4/h1H3,(H,3,4)
Compound 2: butan-1-ol, C4H10O, InChI=1S/C4H10O/c1-2-3-4-5/h5H,2-4H2,1H3
Compound 3: butyl ethanoate, C6H12O2, InChI=1S/C6H12O2/c1-3-4-5-8-6(2)7/h3-5H2,1-2H3
Compound 4: water, H2O, InChI=1S/H2O/h1H2

System: acetic acid + butan-1-ol + water; phases: Liquid mixture 1, Liquid mixture 2
Fixed: Pressure, kPa = 101.3
Fixed: Temperature, K = 318.15
Property: Mole fraction of acetic acid (Liquid mixture 1); method: Titration method
Mole fraction of butan-1-ol	Mole fraction of acetic acid	uncertainty
0.421	0.028	0.011
0.412	0.034	0.011
0.385	0.044	0.011
0.352	0.055	0.011
0.315	0.065	0.01
0.286	0.071	0.01
0.258	0.072	0.01
0.241	0.074	0.01
0.216	0.076	0.01
0.18	0.074	0.01
0.163	0.072	0.01
0.144	0.069	0.01
0.119	0.064	0.01
0.119	0.064	0.01
0.103	0.06	0.01
0.088	0.057	0.01
0.077	0.055	0.01

System: acetic acid + butan-1-ol + water; phases: Liquid, Gas
Property: Critical temperature, K (Liquid); method: Visual observation in a stirred cell
Mole fraction of acetic acid	Mole fraction of butan-1-ol	Critical temperature, K	uncertainty
0.063	0.1	318.15	0.12

System: acetic acid + butan-1-ol + water; phases: Liquid mixture 2, Liquid mixture 1
Fixed: Temperature, K = 318.15
Fixed: Pressure, kPa = 101.3
Property: Mole fraction of butan-1-ol (Liquid mixture 2); method: Chromatography
Property: Mole fraction of acetic acid (Liquid mixture 1); method: Chromatography
Property: Mole fraction of butan-1-ol (Liquid mixture 1); method: Chromatography
Mole fraction of acetic acid	Mole fraction of butan-1-ol	uncertainty	Mole fraction of acetic acid	uncertainty	Mole fraction of butan-1-ol	uncertainty
0.008	0.023	0.01	0.025	0.011	0.418	
0.018	0.033	0.01	0.056	0.01	0.323	
0.027	0.047	0.01	0.065	0.01	0.263	

System: butan-1-ol + butyl ethanoate + water; phases: Liquid mixture 1, Liquid mixture 2
Fixed: Pressure, kPa = 101.3
Fixed: Temperature, K = 318.15
Property: Mole fraction of butan-1-ol (Liquid mixture 1); method: Titration method
Mole fraction of butyl ethanoate	Mole fraction of butan-1-ol	uncertainty
0.895	0.03	0.012
0.849	0.06	0.012
0.806	0.087	0.012
0.747	0.121	0.012
0.706	0.147	0.012
0.673	0.165	0.013
0.627	0.196	0.013
0.543	0.236	0.013
0.5	0.264	0.014
0.451	0.287	0.014
0.406	0.312	0.014
0.309	0.359	0.015
0.257	0.382	0.015
0.219	0.4	0.016
0.162	0.429	0.017

System: butan-1-ol + butyl ethanoate + water; phases: Liquid mixture 2, Liquid mixture 1
Fixed: Temperature, K = 318.15
Fixed: Pressure, kPa = 101.3
Property: Mole fraction of butyl ethanoate (Liquid mixture 2); method: Chromatography
Property: Mole fraction of butan-1-ol (Liquid mixture 1); method: Chromatography
Property: Mole fraction of butyl ethanoate (Liquid mixture 1); method: Chromatography
Mole fraction of butan-1-ol	Mole fraction of butyl ethanoate	uncertainty	Mole fraction of butan-1-ol	uncertainty	Mole fraction of butyl ethanoate	uncertainty
0.011	0.01	0.01	0.286	0.012	0.451	
0.005	0.019	0.01	0.121	0.012	0.739	
0.021	0.003	0.003	0.44	0.011	0.095	
0.019	0.007	0.007	0.389	0.011	0.235	

System: acetic acid + butyl ethanoate + water; phases: Liquid mixture 1, Liquid mixture 2
Fixed: Pressure, kPa = 101.3
Fixed: Temperature, K = 318.15
Property: Mole fraction of acetic acid (Liquid mixture 1); method: Titration method
Mole fraction of butyl ethanoate	Mole fraction of acetic acid	uncertainty
0.782	0.095	0.011
0.746	0.112	0.011
0.698	0.13	0.012
0.658	0.154	0.012
0.574	0.185	0.012
0.518	0.206	0.012
0.471	0.228	0.012
0.353	0.269	0.013
0.295	0.273	0.013
0.264	0.276	0.013
0.241	0.276	0.013
0.215	0.274	0.013
0.193	0.27	0.013
0.157	0.26	0.013
0.141	0.255	0.013
0.118	0.245	0.013
0.1	0.237	0.013
0.074	0.226	0.013
0.059	0.217	0.013

System: acetic acid + butyl ethanoate + water; phases: Liquid, Gas
Property: Critical temperature, K (Liquid); method: Visual observation in a stirred cell
Mole fraction of acetic acid	Mole fraction of butyl ethanoate	Critical temperature, K	uncertainty
0.25	0.105	318.15	0.12

System: acetic acid + butyl ethanoate + water; phases: Liquid mixture 2, Liquid mixture 1
Fixed: Temperature, K = 318.15
Fixed: Pressure, kPa = 101.3
Property: Mole fraction of butyl ethanoate (Liquid mixture 2); method: Chromatography
Property: Mole fraction of acetic acid (Liquid mixture 1); method: Chromatography
Property: Mole fraction of butyl ethanoate (Liquid mixture 1); method: Chromatography
Mole fraction of acetic acid	Mole fraction of butyl ethanoate	uncertainty	Mole fraction of acetic acid	uncertainty	Mole fraction of butyl ethanoate	uncertainty
0.017	0.005	0.005	0.031	0.012	0.871	
0.033	0.005	0.005	0.077	0.012	0.801	
0.049	0.006	0.006	0.121	0.011	0.742	
0.07	0.005	0.005	0.161	0.011	0.65	
0.096	0.009	0.009	0.214	0.011	0.508	
0.119	0.012	0.01	0.252	0.011	0.422	

System: butan-1-ol + water; phases: Liquid mixture 1, Liquid mixture 2
Property: Mole fraction of butan-1-ol (Liquid mixture 1); method: Chromatography
Temperature, K	Pressure, kPa	Mole fraction of butan-1-ol	uncertainty
318.15	101.3	0.469	0.011

System: butan-1-ol + water; phases: Liquid mixture 2, Liquid mixture 1
Property: Mole fraction of butan-1-ol (Liquid mixture 2); method: Chromatography
Temperature, K	Pressure, kPa	Mole fraction of butan-1-ol	uncertainty
318.15	101.3	0.021	0.01

System: butyl ethanoate + water; phases: Liquid mixture 1, Liquid mixture 2
Property: Mole fraction of butyl ethanoate (Liquid mixture 1); method: Chromatography
Temperature, K	Pressure, kPa	Mole fraction of butyl ethanoate	uncertainty
318.15	101.3	0.919	0.01

System: butyl ethanoate + water; phases: Liquid mixture 2, Liquid mixture 1
Property: Mole fraction of butyl ethanoate (Liquid mixture 2); method: Chromatography
Temperature, K	Pressure, kPa	Mole fraction of butyl ethanoate	uncertainty
318.15	101.3	0.006	0.006
