Measured thermophysical data. Boosting the use of thermoacoustimetry in micellization thermodynamics studies by easing an objective determination of the cmc
Source: Fluid Phase Equilib., 2018, 10.1016/j.fluid.2018.08.011
Compound 1: decyl beta.-D-glucopyranoside, C16H32O6, InChI=1S/C16H32O6/c1-2-3-4-5-6-7-8-9-10-21-16-15(20)14(19)13(18)12(11-17)22-16/h12-20H,2-11H2,1H3/t12-,13-,14+,15-,16?/m1/s1, purity 99%
Compound 2: dodecyl beta.-D-glucopyranoside, C18H36O6, InChI=1S/C18H36O6/c1-2-3-4-5-6-7-8-9-10-11-12-23-18-17(22)16(21)15(20)14(13-19)24-18/h14-22H,2-13H2,1H3/t14-,15-,16+,17-,18-/m1/s1, purity 99%
Compound 3: water, H2O, InChI=1S/H2O/h1H2, purity 99.9%

System: water; phases: Liquid, Air at 1 atmosphere
Property: Surface tension liquid-gas, N/m (Liquid); method: Drop volume
Temperature, K	Surface tension liquid-gas, N/m	uncertainty
283.15	0.07392	0.00028
298.15	0.07177	0.00028
310.15	0.07013	0.00027
323.15	0.06815	0.00027
310.15	0.06993	0.00039
323.15	0.06779	0.00039

System: water; phases: Liquid
Fixed: Pressure, kPa = 101.3
Property: Mass density, kg/m3 (Liquid); method: Vibrating tube method
Temperature, K	Mass density, kg/m3	uncertainty
283.15	999.707	0.033
285.65	999.444	0.033
288.15	999.103	0.033
290.65	998.689	0.034
293.15	998.207	0.034
295.65	997.658	0.034
298.15	997.046	0.034
300.65	996.376	0.035
303.15	995.648	0.035
305.65	994.867	0.036
308.15	994.03	0.036
310.65	993.147	0.036
313.15	992.212	0.037
315.65	991.235	0.037
318.15	990.209	0.038
320.65	989.14	0.038
323.15	988.029	0.039

System: water; phases: Liquid
Fixed: Pressure, kPa = 101.3
Fixed: Frequency, MHz = 3
Property: Speed of sound, m/s (Liquid); method: Single path-length method
Temperature, K	Speed of sound, m/s	uncertainty
283.15	1447.73	0.24
285.65	1457.3	0.24
288.15	1466.29	0.23
290.65	1474.72	0.23
293.15	1482.6	0.23
295.65	1490	0.23
298.15	1496.92	0.23
300.65	1503.33	0.23
303.15	1509.31	0.23
305.65	1514.86	0.23
308.15	1520	0.23
310.65	1524.71	0.23
313.15	1529.05	0.23
315.65	1533.01	0.23
318.15	1536.61	0.23
320.65	1539.84	0.23
323.15	1542.71	0.22

System: decyl beta.-D-glucopyranoside + water; phases: Liquid, Air at 1 atmosphere
Property: Surface tension liquid-gas, N/m (Liquid); method: Drop volume
Temperature, K	Amount concentration (molarity), mol/dm3 of decyl beta.-D-glucopyranoside	Surface tension liquid-gas, N/m	uncertainty
283.15	0	0.07392	0.00028
283.15	0.000103	0.0617	0.00025
283.15	0.000221	0.05449	0.00023
283.15	0.000433	0.048	0.00021
283.15	0.000637	0.04409	0.0002
283.15	0.000872	0.04098	0.00019
283.15	0.00118	0.03781	0.00019
283.15	0.00154	0.03495	0.00018
283.15	0.00172	0.03367	0.00018
283.15	0.00189	0.03276	0.00017
283.15	0.00208	0.03173	0.00017
283.15	0.0022	0.03113	0.00017
283.15	0.0024	0.03029	0.00016
283.15	0.00249	0.02998	0.00016
283.15	0.00269	0.02983	0.00016
283.15	0.00288	0.02976	0.00016
283.15	0.00307	0.02974	0.00016
283.15	0.0035	0.02974	0.00016
283.15	0.00399	0.02981	0.00016
298.15	0	0.07177	0.00028
298.15	0.0001	0.05929	0.00024
298.15	0.000217	0.05196	0.00022
298.15	0.000428	0.04543	0.0002
298.15	0.000624	0.04158	0.00019
298.15	0.000861	0.03809	0.00018
298.15	0.00118	0.0347	0.00018
298.15	0.00153	0.03185	0.00017
298.15	0.00168	0.03079	0.00017
298.15	0.00188	0.02957	0.00016
298.15	0.00209	0.02881	0.00016
298.15	0.00219	0.02867	0.00016
298.15	0.00228	0.02856	0.00016
298.15	0.00249	0.0285	0.00016
298.15	0.00268	0.02856	0.00016
298.15	0.00285	0.02851	0.00016
298.15	0.00291	0.02852	0.00016
298.15	0.00339	0.02854	0.00016
298.15	0.00401	0.02854	0.00016
310.15	0	0.07013	0.00027
310.15	0.000102	0.05821	0.00024
310.15	0.000221	0.05107	0.00022
310.15	0.000435	0.04425	0.0002
310.15	0.000626	0.04044	0.00019
310.15	0.000883	0.03668	0.00018
310.15	0.0012	0.03333	0.00017
310.15	0.00153	0.03063	0.00016
310.15	0.00169	0.02943	0.00016
310.15	0.00189	0.02839	0.00016
310.15	0.00209	0.02776	0.00015
310.15	0.00221	0.02758	0.00015
310.15	0.00228	0.02763	0.00015
310.15	0.00249	0.02758	0.00015
310.15	0.00263	0.02757	0.00015
310.15	0.00288	0.02758	0.00015
310.15	0.00308	0.02764	0.00015
310.15	0.00348	0.02765	0.00015
310.15	0.00395	0.02763	0.00015
323.15	0	0.06815	0.00027
323.15	0.0001	0.05781	0.00024
323.15	0.000211	0.05102	0.00022
323.15	0.000438	0.04377	0.0002
323.15	0.000633	0.04003	0.00019
323.15	0.000876	0.03643	0.00018
323.15	0.00122	0.03292	0.00017
323.15	0.00154	0.03021	0.00016
323.15	0.0017	0.02901	0.00016
323.15	0.00189	0.02795	0.00015
323.15	0.0021	0.02697	0.00015
323.15	0.00219	0.02693	0.00015
323.15	0.00229	0.02679	0.00015
323.15	0.00249	0.0267	0.00015
323.15	0.00268	0.02668	0.00015
323.15	0.00289	0.02673	0.00015
323.15	0.00308	0.0267	0.00015
323.15	0.00349	0.02674	0.00015
323.15	0.00401	0.0268	0.00015

System: decyl beta.-D-glucopyranoside + water; phases: Liquid
Fixed: Pressure, kPa = 100
Property: Mass density, kg/m3 (Liquid); method: Vibrating tube method
Temperature, K	Amount concentration (molarity), mol/dm3 of decyl beta.-D-glucopyranoside	Mass density, kg/m3	uncertainty
283.15	0	999.707	0.044
283.15	0.000103	999.71	0.033
283.15	0.00022	999.712	0.033
283.15	0.000434	999.729	0.033
283.15	0.000636	999.744	0.033
283.15	0.000883	999.758	0.033
283.15	0.00118	999.765	0.033
283.15	0.00153	999.782	0.033
283.15	0.00169	999.792	0.033
283.15	0.00193	999.808	0.033
283.15	0.00208	999.808	0.033
283.15	0.00216	999.811	0.033
283.15	0.00233	999.822	0.033
283.15	0.00252	999.833	0.033
283.15	0.00268	999.833	0.033
283.15	0.0029	999.843	0.033
283.15	0.00309	999.849	0.033
283.15	0.00345	999.871	0.033
283.15	0.00401	999.884	0.033
285.65	0	999.444	0.293
285.65	0.000103	999.448	0.033
285.65	0.00022	999.45	0.033
285.65	0.000434	999.466	0.033
285.65	0.000636	999.48	0.033
285.65	0.000883	999.496	0.033
285.65	0.00118	999.502	0.033
285.65	0.00153	999.519	0.033
285.65	0.00169	999.527	0.033
285.65	0.00193	999.543	0.033
285.65	0.00208	999.545	0.033
285.65	0.00216	999.546	0.033
285.65	0.00233	999.556	0.033
285.65	0.00252	999.566	0.033
285.65	0.00268	999.567	0.033
285.65	0.0029	999.576	0.033
285.65	0.00309	999.583	0.033
285.65	0.00345	999.605	0.033
285.65	0.00401	999.616	0.033
288.15	0	999.103	0.277
288.15	0.000103	999.107	0.033
288.15	0.00022	999.109	0.033
288.15	0.000434	999.124	0.033
288.15	0.000636	999.138	0.033
288.15	0.000883	999.154	0.033
288.15	0.00118	999.161	0.033
288.15	0.00153	999.178	0.033
288.15	0.00169	999.185	0.033
288.15	0.00193	999.202	0.033
288.15	0.00208	999.201	0.033
288.15	0.00216	999.205	0.033
288.15	0.00233	999.213	0.033
288.15	0.00252	999.225	0.033
288.15	0.00268	999.225	0.033
288.15	0.0029	999.233	0.033
288.15	0.00309	999.239	0.033
288.15	0.00345	999.26	0.033
288.15	0.00401	999.272	0.033
290.65	0	998.689	0.261
290.65	0.000103	998.693	0.034
290.65	0.00022	998.692	0.034
290.65	0.000434	998.712	0.034
290.65	0.000636	998.724	0.034
290.65	0.000883	998.739	0.034
290.65	0.00118	998.744	0.034
290.65	0.00153	998.762	0.034
290.65	0.00169	998.771	0.034
290.65	0.00193	998.784	0.034
290.65	0.00208	998.786	0.034
290.65	0.00216	998.789	0.034
290.65	0.00233	998.797	0.034
290.65	0.00252	998.807	0.034
290.65	0.00268	998.809	0.034
290.65	0.0029	998.816	0.034
290.65	0.00309	998.82	0.034
290.65	0.00345	998.844	0.034
290.65	0.00401	998.855	0.034
293.15	0	998.207	0.248
293.15	0.000103	998.21	0.034
293.15	0.00022	998.21	0.034
293.15	0.000434	998.228	0.034
293.15	0.000636	998.241	0.034
293.15	0.000883	998.256	0.034
293.15	0.00118	998.263	0.034
293.15	0.00153	998.277	0.034
293.15	0.00169	998.286	0.034
293.15	0.00193	998.3	0.034
293.15	0.00208	998.3	0.034
293.15	0.00216	998.304	0.034
293.15	0.00233	998.311	0.034
293.15	0.00252	998.322	0.034
293.15	0.00268	998.321	0.034
293.15	0.0029	998.331	0.034
293.15	0.00309	998.336	0.034
293.15	0.00345	998.356	0.034
293.15	0.00401	998.368	0.034
295.65	0	997.658	0.235
295.65	0.000103	997.661	0.034
295.65	0.00022	997.661	0.034
295.65	0.000434	997.678	0.034
295.65	0.000636	997.691	0.034
295.65	0.000883	997.705	0.034
295.65	0.00118	997.712	0.034
295.65	0.00153	997.727	0.034
295.65	0.00169	997.734	0.034
295.65	0.00193	997.749	0.034
295.65	0.00208	997.751	0.034
295.65	0.00216	997.752	0.034
295.65	0.00233	997.761	0.034
295.65	0.00252	997.768	0.034
295.65	0.00268	997.771	0.034
295.65	0.0029	997.778	0.034
295.65	0.00309	997.784	0.034
295.65	0.00345	997.804	0.034
295.65	0.00401	997.815	0.034
298.15	0	997.046	0.2
298.15	0.000103	997.047	0.034
298.15	0.00022	997.049	0.034
298.15	0.000434	997.065	0.034
298.15	0.000636	997.08	0.034
298.15	0.000883	997.092	0.034
298.15	0.00118	997.097	0.034
298.15	0.00153	997.114	0.034
298.15	0.00169	997.122	0.034
298.15	0.00193	997.138	0.034
298.15	0.00208	997.137	0.034
298.15	0.00216	997.14	0.034
298.15	0.00233	997.147	0.034
298.15	0.00252	997.156	0.034
298.15	0.00268	997.157	0.034
298.15	0.0029	997.164	0.034
298.15	0.00309	997.169	0.034
298.15	0.00345	997.192	0.034
298.15	0.00401	997.203	0.034
300.65	0	996.376	0.2
300.65	0.000103	996.377	0.035
300.65	0.00022	996.378	0.035
300.65	0.000434	996.394	0.035
300.65	0.000636	996.408	0.035
300.65	0.000883	996.422	0.035
300.65	0.00118	996.427	0.035
300.65	0.00153	996.441	0.035
300.65	0.00169	996.449	0.035
300.65	0.00193	996.464	0.035
300.65	0.00208	996.464	0.035
300.65	0.00216	996.466	0.035
300.65	0.00233	996.475	0.035
300.65	0.00252	996.483	0.035
300.65	0.00268	996.483	0.035
300.65	0.0029	996.492	0.035
300.65	0.00309	996.495	0.035
300.65	0.00345	996.516	0.035
300.65	0.00401	996.527	0.035
303.15	0	995.648	0.175
303.15	0.000103	995.648	0.035
303.15	0.00022	995.65	0.035
303.15	0.000434	995.666	0.035
303.15	0.000636	995.679	0.035
303.15	0.000883	995.692	0.035
303.15	0.00118	995.696	0.035
303.15	0.00153	995.713	0.035
303.15	0.00169	995.722	0.035
303.15	0.00193	995.734	0.035
303.15	0.00208	995.733	0.035
303.15	0.00216	995.737	0.035
303.15	0.00233	995.744	0.035
303.15	0.00252	995.753	0.035
303.15	0.00268	995.752	0.035
303.15	0.0029	995.759	0.035
303.15	0.00309	995.766	0.035
303.15	0.00345	995.786	0.035
303.15	0.00401	995.798	0.035
305.65	0	994.867	0.156
305.65	0.000103	994.864	0.036
305.65	0.00022	994.866	0.036
305.65	0.000434	994.883	0.036
305.65	0.000636	994.896	0.036
305.65	0.000883	994.91	0.036
305.65	0.00118	994.915	0.036
305.65	0.00153	994.928	0.036
305.65	0.00169	994.938	0.036
305.65	0.00193	994.95	0.036
305.65	0.00208	994.95	0.036
305.65	0.00216	994.954	0.036
305.65	0.00233	994.96	0.036
305.65	0.00252	994.969	0.036
305.65	0.00268	994.969	0.036
305.65	0.0029	994.976	0.036
305.65	0.00309	994.982	0.036
305.65	0.00345	995.002	0.036
305.65	0.00401	995.013	0.036
308.15	0	994.03	0.163
308.15	0.000103	994.031	0.036
308.15	0.00022	994.031	0.036
308.15	0.000434	994.049	0.036
308.15	0.000636	994.061	0.036
308.15	0.000883	994.075	0.036
308.15	0.00118	994.079	0.036
308.15	0.00153	994.093	0.036
308.15	0.00169	994.101	0.036
308.15	0.00193	994.116	0.036
308.15	0.00208	994.113	0.036
308.15	0.00216	994.117	0.036
308.15	0.00233	994.125	0.036
308.15	0.00252	994.132	0.036
308.15	0.00268	994.132	0.036
308.15	0.0029	994.141	0.036
308.15	0.00309	994.144	0.036
308.15	0.00345	994.164	0.036
308.15	0.00401	994.177	0.036
310.65	0	993.147	0.153
310.65	0.000103	993.145	0.036
310.65	0.00022	993.145	0.036
310.65	0.000434	993.162	0.036
310.65	0.000636	993.174	0.036
310.65	0.000883	993.188	0.036
310.65	0.00118	993.193	0.036
310.65	0.00153	993.206	0.036
310.65	0.00169	993.215	0.036
310.65	0.00193	993.23	0.036
310.65	0.00208	993.227	0.036
310.65	0.00216	993.231	0.036
310.65	0.00233	993.237	0.036
310.65	0.00252	993.246	0.036
310.65	0.00268	993.246	0.036
310.65	0.0029	993.254	0.036
310.65	0.00309	993.257	0.036
310.65	0.00345	993.276	0.036
310.65	0.00401	993.288	0.036
313.15	0	992.212	0.141
313.15	0.000103	992.212	0.037
313.15	0.00022	992.213	0.037
313.15	0.000434	992.229	0.037
313.15	0.000636	992.242	0.037
313.15	0.000883	992.254	0.037
313.15	0.00118	992.26	0.037
313.15	0.00153	992.271	0.037
313.15	0.00169	992.28	0.037
313.15	0.00193	992.295	0.037
313.15	0.00208	992.293	0.037
313.15	0.00216	992.296	0.037
313.15	0.00233	992.304	0.037
313.15	0.00252	992.312	0.037
313.15	0.00268	992.312	0.037
313.15	0.0029	992.319	0.037
313.15	0.00309	992.323	0.037
313.15	0.00345	992.341	0.037
313.15	0.00401	992.354	0.037
315.65	0	991.235	0.144
315.65	0.000103	991.233	0.037
315.65	0.00022	991.233	0.037
315.65	0.000434	991.25	0.037
315.65	0.000636	991.261	0.037
315.65	0.000883	991.274	0.037
315.65	0.00118	991.279	0.037
315.65	0.00153	991.291	0.037
315.65	0.00169	991.301	0.037
315.65	0.00193	991.314	0.037
315.65	0.00208	991.313	0.037
315.65	0.00216	991.316	0.037
315.65	0.00233	991.322	0.037
315.65	0.00252	991.331	0.037
315.65	0.00268	991.332	0.037
315.65	0.0029	991.338	0.037
315.65	0.00309	991.342	0.037
315.65	0.00345	991.359	0.037
315.65	0.00401	991.372	0.037
318.15	0	990.209	0.135
318.15	0.000103	990.208	0.038
318.15	0.00022	990.21	0.038
318.15	0.000434	990.224	0.038
318.15	0.000636	990.236	0.038
318.15	0.000883	990.249	0.038
318.15	0.00118	990.254	0.038
318.15	0.00153	990.267	0.038
318.15	0.00169	990.275	0.038
318.15	0.00193	990.288	0.038
318.15	0.00208	990.287	0.038
318.15	0.00216	990.29	0.038
318.15	0.00233	990.298	0.038
318.15	0.00252	990.306	0.038
318.15	0.00268	990.304	0.038
318.15	0.0029	990.31	0.038
318.15	0.00309	990.317	0.038
318.15	0.00345	990.332	0.038
318.15	0.00401	990.346	0.038
320.65	0	989.14	0.132
320.65	0.000103	989.139	0.038
320.65	0.00022	989.141	0.038
320.65	0.000434	989.157	0.038
320.65	0.000636	989.168	0.038
320.65	0.000883	989.18	0.038
320.65	0.00118	989.184	0.038
320.65	0.00153	989.197	0.038
320.65	0.00169	989.206	0.038
320.65	0.00193	989.218	0.038
320.65	0.00208	989.217	0.038
320.65	0.00216	989.223	0.038
320.65	0.00233	989.229	0.038
320.65	0.00252	989.238	0.038
320.65	0.00268	989.235	0.038
320.65	0.0029	989.242	0.038
320.65	0.00309	989.247	0.038
320.65	0.00345	989.262	0.038
320.65	0.00401	989.276	0.038
323.15	0	988.029	0.04
323.15	0.000103	988.03	0.039
323.15	0.00022	988.034	0.039
323.15	0.000434	988.044	0.039
323.15	0.000636	988.057	0.039
323.15	0.000883	988.069	0.039
323.15	0.00118	988.071	0.039
323.15	0.00153	988.085	0.039
323.15	0.00169	988.092	0.039
323.15	0.00193	988.106	0.039
323.15	0.00208	988.105	0.039
323.15	0.00216	988.11	0.039
323.15	0.00233	988.117	0.039
323.15	0.00252	988.123	0.039
323.15	0.00268	988.122	0.039
323.15	0.0029	988.129	0.039
323.15	0.00309	988.136	0.039
323.15	0.00345	988.15	0.039
323.15	0.00401	988.163	0.039

System: decyl beta.-D-glucopyranoside + water; phases: Liquid
Fixed: Pressure, kPa = 101.3
Fixed: Frequency, MHz = 3
Property: Speed of sound, m/s (Liquid); method: Single path-length method
Temperature, K	Amount concentration (molarity), mol/dm3 of decyl beta.-D-glucopyranoside	Speed of sound, m/s	uncertainty
283.15	0	1447.73	0.24
283.15	0.000103	1447.77	0.24
283.15	0.00022	1447.81	0.24
283.15	0.000434	1447.81	0.24
283.15	0.000636	1447.88	0.24
283.15	0.000883	1447.95	0.24
283.15	0.00118	1448.05	0.24
283.15	0.00153	1448.07	0.24
283.15	0.00169	1448.11	0.24
283.15	0.00193	1448.18	0.24
283.15	0.00208	1448.2	0.24
283.15	0.00216	1448.22	0.24
283.15	0.00233	1448.23	0.24
283.15	0.00252	1448.29	0.24
283.15	0.00268	1448.3	0.24
283.15	0.0029	1448.31	0.24
283.15	0.00309	1448.37	0.24
283.15	0.00345	1448.37	0.24
283.15	0.00401	1448.41	0.24
285.65	0	1457.3	0.24
285.65	0.000103	1457.33	0.24
285.65	0.00022	1457.38	0.24
285.65	0.000434	1457.39	0.24
285.65	0.000636	1457.45	0.24
285.65	0.000883	1457.51	0.24
285.65	0.00118	1457.6	0.24
285.65	0.00153	1457.64	0.24
285.65	0.00169	1457.67	0.24
285.65	0.00193	1457.74	0.24
285.65	0.00208	1457.75	0.24
285.65	0.00216	1457.77	0.24
285.65	0.00233	1457.79	0.24
285.65	0.00252	1457.82	0.24
285.65	0.00268	1457.83	0.24
285.65	0.0029	1457.85	0.24
285.65	0.00309	1457.9	0.24
285.65	0.00345	1457.9	0.24
285.65	0.00401	1457.93	0.24
288.15	0	1466.29	0.23
288.15	0.000103	1466.33	0.23
288.15	0.00022	1466.37	0.23
288.15	0.000434	1466.38	0.23
288.15	0.000636	1466.44	0.23
288.15	0.000883	1466.5	0.23
288.15	0.00118	1466.59	0.23
288.15	0.00153	1466.62	0.23
288.15	0.00169	1466.65	0.23
288.15	0.00193	1466.71	0.23
288.15	0.00208	1466.73	0.23
288.15	0.00216	1466.74	0.23
288.15	0.00233	1466.76	0.23
288.15	0.00252	1466.79	0.23
288.15	0.00268	1466.79	0.23
288.15	0.0029	1466.81	0.23
288.15	0.00309	1466.85	0.23
288.15	0.00345	1466.85	0.23
288.15	0.00401	1466.87	0.23
290.65	0	1474.72	0.23
290.65	0.000103	1474.76	0.23
290.65	0.00022	1474.78	0.23
290.65	0.000434	1474.81	0.23
290.65	0.000636	1474.87	0.23
290.65	0.000883	1474.92	0.23
290.65	0.00118	1475	0.23
290.65	0.00153	1475.04	0.23
290.65	0.00169	1475.06	0.23
290.65	0.00193	1475.13	0.23
290.65	0.00208	1475.14	0.23
290.65	0.00216	1475.15	0.23
290.65	0.00233	1475.16	0.23
290.65	0.00252	1475.18	0.23
290.65	0.00268	1475.19	0.23
290.65	0.0029	1475.2	0.23
290.65	0.00309	1475.22	0.23
290.65	0.00345	1475.24	0.23
290.65	0.00401	1475.25	0.23
293.15	0	1482.6	0.23
293.15	0.000103	1482.63	0.23
293.15	0.00022	1482.65	0.23
293.15	0.000434	1482.69	0.23
293.15	0.000636	1482.74	0.23
293.15	0.000883	1482.79	0.23
293.15	0.00118	1482.87	0.23
293.15	0.00153	1482.9	0.23
293.15	0.00169	1482.93	0.23
293.15	0.00193	1482.98	0.23
293.15	0.00208	1482.99	0.23
293.15	0.00216	1483.01	0.23
293.15	0.00233	1483.01	0.23
293.15	0.00252	1483.02	0.23
293.15	0.00268	1483.04	0.23
293.15	0.0029	1483.04	0.23
293.15	0.00309	1483.07	0.23
293.15	0.00345	1483.08	0.23
293.15	0.00401	1483.1	0.23
295.65	0	1490	0.23
295.65	0.000103	1490.03	0.23
295.65	0.00022	1490.04	0.23
295.65	0.000434	1490.08	0.23
295.65	0.000636	1490.14	0.23
295.65	0.000883	1490.18	0.23
295.65	0.00118	1490.26	0.23
295.65	0.00153	1490.28	0.23
295.65	0.00169	1490.32	0.23
295.65	0.00193	1490.37	0.23
295.65	0.00208	1490.38	0.23
295.65	0.00216	1490.39	0.23
295.65	0.00233	1490.39	0.23
295.65	0.00252	1490.41	0.23
295.65	0.00268	1490.42	0.23
295.65	0.0029	1490.42	0.23
295.65	0.00309	1490.44	0.23
295.65	0.00345	1490.46	0.23
295.65	0.00401	1490.46	0.23
298.15	0	1496.92	0.23
298.15	0.000103	1496.97	0.23
298.15	0.00022	1496.97	0.23
298.15	0.000434	1497	0.23
298.15	0.000636	1497.03	0.23
298.15	0.000883	1497.07	0.23
298.15	0.00118	1497.16	0.23
298.15	0.00153	1497.17	0.23
298.15	0.00169	1497.21	0.23
298.15	0.00193	1497.25	0.23
298.15	0.00208	1497.27	0.23
298.15	0.00216	1497.27	0.23
298.15	0.00233	1497.27	0.23
298.15	0.00252	1497.28	0.23
298.15	0.00268	1497.3	0.23
298.15	0.0029	1497.3	0.23
298.15	0.00309	1497.32	0.23
298.15	0.00345	1497.33	0.23
298.15	0.00401	1497.34	0.23
300.65	0	1503.33	0.23
300.65	0.000103	1503.36	0.23
300.65	0.00022	1503.36	0.23
300.65	0.000434	1503.41	0.23
300.65	0.000636	1503.46	0.23
300.65	0.000883	1503.49	0.23
300.65	0.00118	1503.57	0.23
300.65	0.00153	1503.59	0.23
300.65	0.00169	1503.62	0.23
300.65	0.00193	1503.66	0.23
300.65	0.00208	1503.67	0.23
300.65	0.00216	1503.68	0.23
300.65	0.00233	1503.67	0.23
300.65	0.00252	1503.68	0.23
300.65	0.00268	1503.7	0.23
300.65	0.0029	1503.7	0.23
300.65	0.00309	1503.71	0.23
300.65	0.00345	1503.72	0.23
300.65	0.00401	1503.73	0.23
303.15	0	1509.31	0.23
303.15	0.000103	1509.33	0.23
303.15	0.00022	1509.35	0.23
303.15	0.000434	1509.39	0.23
303.15	0.000636	1509.43	0.23
303.15	0.000883	1509.46	0.23
303.15	0.00118	1509.52	0.23
303.15	0.00153	1509.56	0.23
303.15	0.00169	1509.58	0.23
303.15	0.00193	1509.63	0.23
303.15	0.00208	1509.63	0.23
303.15	0.00216	1509.63	0.23
303.15	0.00233	1509.64	0.23
303.15	0.00252	1509.64	0.23
303.15	0.00268	1509.67	0.23
303.15	0.0029	1509.66	0.23
303.15	0.00309	1509.67	0.23
303.15	0.00345	1509.67	0.23
303.15	0.00401	1509.68	0.23
305.65	0	1514.86	0.23
305.65	0.000103	1514.88	0.23
305.65	0.00022	1514.89	0.23
305.65	0.000434	1514.94	0.23
305.65	0.000636	1514.98	0.23
305.65	0.000883	1515.01	0.23
305.65	0.00118	1515.07	0.23
305.65	0.00153	1515.1	0.23
305.65	0.00169	1515.12	0.23
305.65	0.00193	1515.16	0.23
305.65	0.00208	1515.17	0.23
305.65	0.00216	1515.16	0.23
305.65	0.00233	1515.17	0.23
305.65	0.00252	1515.17	0.23
305.65	0.00268	1515.2	0.23
305.65	0.0029	1515.18	0.23
305.65	0.00309	1515.2	0.23
305.65	0.00345	1515.2	0.23
305.65	0.00401	1515.21	0.23
308.15	0	1520	0.23
308.15	0.000103	1520.01	0.23
308.15	0.00022	1520.03	0.23
308.15	0.000434	1520.07	0.23
308.15	0.000636	1520.11	0.23
308.15	0.000883	1520.14	0.23
308.15	0.00118	1520.19	0.23
308.15	0.00153	1520.23	0.23
308.15	0.00169	1520.24	0.23
308.15	0.00193	1520.28	0.23
308.15	0.00208	1520.29	0.23
308.15	0.00216	1520.28	0.23
308.15	0.00233	1520.28	0.23
308.15	0.00252	1520.28	0.23
308.15	0.00268	1520.31	0.23
308.15	0.0029	1520.3	0.23
308.15	0.00309	1520.31	0.23
308.15	0.00345	1520.31	0.23
308.15	0.00401	1520.32	0.23
310.65	0	1524.71	0.23
310.65	0.000103	1524.73	0.23
310.65	0.00022	1524.75	0.23
310.65	0.000434	1524.79	0.23
310.65	0.000636	1524.83	0.23
310.65	0.000883	1524.86	0.23
310.65	0.00118	1524.9	0.23
310.65	0.00153	1524.94	0.23
310.65	0.00169	1524.96	0.23
310.65	0.00193	1524.99	0.23
310.65	0.00208	1525	0.23
310.65	0.00216	1524.99	0.23
310.65	0.00233	1524.99	0.23
310.65	0.00252	1525	0.23
310.65	0.00268	1525.03	0.23
310.65	0.0029	1525.01	0.23
310.65	0.00309	1525.02	0.23
310.65	0.00345	1525.01	0.23
310.65	0.00401	1525.02	0.23
313.15	0	1529.05	0.23
313.15	0.000103	1529.07	0.23
313.15	0.00022	1529.08	0.23
313.15	0.000434	1529.13	0.23
313.15	0.000636	1529.16	0.23
313.15	0.000883	1529.19	0.23
313.15	0.00118	1529.23	0.23
313.15	0.00153	1529.26	0.23
313.15	0.00169	1529.28	0.23
313.15	0.00193	1529.31	0.23
313.15	0.00208	1529.33	0.23
313.15	0.00216	1529.31	0.23
313.15	0.00233	1529.32	0.23
313.15	0.00252	1529.32	0.23
313.15	0.00268	1529.35	0.23
313.15	0.0029	1529.33	0.23
313.15	0.00309	1529.34	0.23
313.15	0.00345	1529.33	0.23
313.15	0.00401	1529.35	0.23
315.65	0	1533.01	0.23
315.65	0.000103	1533.03	0.23
315.65	0.00022	1533.05	0.23
315.65	0.000434	1533.09	0.23
315.65	0.000636	1533.12	0.23
315.65	0.000883	1533.14	0.23
315.65	0.00118	1533.17	0.23
315.65	0.00153	1533.21	0.23
315.65	0.00169	1533.23	0.23
315.65	0.00193	1533.26	0.23
315.65	0.00208	1533.27	0.23
315.65	0.00216	1533.26	0.23
315.65	0.00233	1533.27	0.23
315.65	0.00252	1533.27	0.23
315.65	0.00268	1533.3	0.23
315.65	0.0029	1533.28	0.23
315.65	0.00309	1533.29	0.23
315.65	0.00345	1533.27	0.23
315.65	0.00401	1533.28	0.23
318.15	0	1536.61	0.23
318.15	0.000103	1536.63	0.23
318.15	0.00022	1536.63	0.23
318.15	0.000434	1536.68	0.23
318.15	0.000636	1536.71	0.23
318.15	0.000883	1536.73	0.23
318.15	0.00118	1536.76	0.23
318.15	0.00153	1536.79	0.23
318.15	0.00169	1536.82	0.23
318.15	0.00193	1536.84	0.23
318.15	0.00208	1536.86	0.23
318.15	0.00216	1536.84	0.23
318.15	0.00233	1536.84	0.23
318.15	0.00252	1536.85	0.23
318.15	0.00268	1536.89	0.23
318.15	0.0029	1536.86	0.23
318.15	0.00309	1536.87	0.23
318.15	0.00345	1536.84	0.23
318.15	0.00401	1536.87	0.23
320.65	0	1539.84	0.23
320.65	0.000103	1539.87	0.23
320.65	0.00022	1539.88	0.23
320.65	0.000434	1539.93	0.23
320.65	0.000636	1539.95	0.23
320.65	0.000883	1539.97	0.23
320.65	0.00118	1540	0.23
320.65	0.00153	1540.03	0.23
320.65	0.00169	1540.05	0.23
320.65	0.00193	1540.08	0.23
320.65	0.00208	1540.09	0.23
320.65	0.00216	1540.07	0.23
320.65	0.00233	1540.08	0.23
320.65	0.00252	1540.09	0.23
320.65	0.00268	1540.12	0.23
320.65	0.0029	1540.09	0.23
320.65	0.00309	1540.1	0.23
320.65	0.00345	1540.07	0.23
320.65	0.00401	1540.1	0.23
323.15	0	1542.71	0.22
323.15	0.000103	1542.74	0.22
323.15	0.00022	1542.72	0.22
323.15	0.000434	1542.8	0.22
323.15	0.000636	1542.82	0.22
323.15	0.000883	1542.84	0.22
323.15	0.00118	1542.86	0.23
323.15	0.00153	1542.91	0.23
323.15	0.00169	1542.92	0.23
323.15	0.00193	1542.94	0.23
323.15	0.00208	1542.96	0.23
323.15	0.00216	1542.92	0.23
323.15	0.00233	1542.93	0.23
323.15	0.00252	1542.95	0.23
323.15	0.00268	1542.99	0.23
323.15	0.0029	1542.97	0.23
323.15	0.00309	1542.96	0.23
323.15	0.00345	1542.93	0.23
323.15	0.00401	1542.96	0.23

System: dodecyl beta.-D-glucopyranoside + water; phases: Liquid, Air at 1 atmosphere
Property: Surface tension liquid-gas, N/m (Liquid); method: Drop volume
Temperature, K	Amount concentration (molarity), mol/dm3 of dodecyl beta.-D-glucopyranoside	Surface tension liquid-gas, N/m	uncertainty
310.15	0	0.06993	0.00027
310.15	2.33e-05	0.05297	0.00025
310.15	3.58e-05	0.04613	0.00023
310.15	5.16e-05	0.04128	0.00022
310.15	6.49e-05	0.03847	0.00021
310.15	7.97e-05	0.03561	0.0002
310.15	9.31e-05	0.03442	0.00019
310.15	0.000106	0.03304	0.00019
310.15	0.000123	0.0317	0.00019
310.15	0.000131	0.03119	0.00019
310.15	0.000146	0.02975	0.00018
310.15	0.000162	0.03012	0.00018
310.15	0.000169	0.02925	0.00018
310.15	0.000177	0.02951	0.00018
310.15	0.000187	0.02914	0.00018
310.15	0.000198	0.02909	0.00018
310.15	0.00021	0.02952	0.00018
310.15	0.000216	0.02936	0.00018
310.15	0.000227	0.02903	0.00018
310.15	0.000241	0.02902	0.00018
310.15	0.000258	0.0291	0.00018
323.15	0	0.06779	0.00027
323.15	2.33e-05	0.05298	0.00024
323.15	3.58e-05	0.04638	0.00023
323.15	5.16e-05	0.0415	0.00022
323.15	6.49e-05	0.0385	0.0002
323.15	9.31e-05	0.03504	0.0002
323.15	0.000106	0.03377	0.00019
323.15	0.000123	0.03219	0.00019
323.15	0.000131	0.03135	0.00019
323.15	0.000146	0.02999	0.00018
323.15	0.000162	0.02972	0.00018
323.15	0.000169	0.02868	0.00018
323.15	0.000177	0.02883	0.00018
323.15	0.000187	0.0284	0.00018
323.15	0.000198	0.028	0.00017
323.15	0.00021	0.02811	0.00017
323.15	0.000216	0.02807	0.00018
323.15	0.000227	0.02856	0.00017
323.15	0.000241	0.02829	0.00018
323.15	0.000258	0.02787	0.00018
