Measured thermophysical data. The solubility of water in mixtures of dimethyl ether and carbon dioxide
Source: Fluid Phase Equilib., 2010, 10.1016/j.fluid.2010.07.009
Compound 1: dimethyl ether, C2H6O, InChI=1S/C2H6O/c1-3-2/h1-2H3, purity 99.8%
Compound 2: carbon dioxide, CO2, InChI=1S/CO2/c2-1-3, purity 99.8%
Compound 3: water, H2O, InChI=1S/H2O/h1H2

System: dimethyl ether; phases: Fluid (supercritical or subcritical phases)
Property: Mass density, kg/m3 (Fluid (supercritical or subcritical phases)); method: OTHER::sMethod:coriolis meter
Pressure, kPa	Temperature, K	Mass density, kg/m3	uncertainty
4100	288.5	684	7
5100	288.6	686	16
6100	288.8	688	7
7200	289	690	7
8200	289.1	691	7
9200	289.1	693	7
10000	289.3	694	7
15000	289.3	703	7
20000	289.3	711	7
25000	289.4	718	7
30000	289.5	725	8

System: carbon dioxide; phases: Fluid (supercritical or subcritical phases)
Property: Mass density, kg/m3 (Fluid (supercritical or subcritical phases)); method: OTHER::sMethod:coriolis meter
Pressure, kPa	Temperature, K	Mass density, kg/m3	uncertainty
6100	291.3	817	9
7100	291.5	834	14
8100	291.7	849	17
9200	291.9	861	9
10200	292	872	10
15200	292.1	916	12
20200	292.1	948	15
25300	292.1	975	10
30100	292.1	997	10

System: dimethyl ether + carbon dioxide; phases: Fluid (supercritical or subcritical phases)
Property: Mass density, kg/m3 (Fluid (supercritical or subcritical phases)); method: coriolis meter
Mole fraction of dimethyl ether	Pressure, kPa	Temperature, K	Mass density, kg/m3	uncertainty
0	6100	291.3	817	4
0	7100	291.5	834	11
0	8100	291.7	849	14
0	9200	291.9	861	3
0	10200	292	872	5
0	15200	292.1	916	8
0	20200	292.1	948	12
0	25300	292.1	975	2
0	30100	292.1	997	2
0.251	4100	290.2	806	1
0.251	5100	292.2	805	6
0.251	6100	292.1	811	2
0.251	7100	292.1	817	2
0.251	8100	292	824	2
0.251	9200	292	829	2
0.251	10100	291.9	834	2
0.251	15200	291.9	857	1
0.251	20200	291.9	875	1
0.251	25200	291.8	892	1
0.251	30100	290.7	908	2
0.458	4000	292.5	769	1
0.458	5200	292.5	773	1
0.458	6100	292.6	776	1
0.458	7100	292.7	780	1
0.458	8200	292.8	783	1
0.458	9200	293	786	15
0.458	10200	293.1	789	1
0.458	15200	293.2	804	1
0.458	20200	293.4	817	1
0.458	25300	293.5	830	1
0.458	29300	293.7	839	1
0.458	30000	293.7	840	1
1	4100	288.5	684	1
1	5100	288.6	686	14
1	6100	288.8	688	1
1	7200	289	690	2
1	8200	289.1	691	1
1	9200	289.1	693	1
1	10000	289.3	694	1
1	15000	289.3	703	1
1	20000	289.3	711	1
1	25000	289.4	718	2
1	30000	289.5	725	2

System: dimethyl ether + water; phases: Liquid mixture 1, Liquid mixture 2
Property: Mole fraction of water (Liquid mixture 1); method: mass loss of water from packed bed
Temperature, K	Pressure, kPa	Mole fraction of water	uncertainty
313.7	9000	0.18	0.016
313.7	15000	0.207	0.019
333.5	9000	0.224	0.02
333.5	15000	0.216	0.019

System: dimethyl ether + carbon dioxide + water; phases: Liquid mixture 1, Liquid mixture 2
Property: Mole fraction of water (Liquid mixture 1); method: mass loss of water from packed bed
Temperature, K	Pressure, kPa	Mole fraction of dimethyl ether	Mole fraction of water	uncertainty
313.7	9000	0.247	0.017	0.002
313.7	9000	0.446	0.028	0.003
313.7	9000	0.718	0.07	0.008
313.7	9000	0.82	0.18	0.022
313.7	15000	0.248	0.014	0.002
313.7	15000	0.443	0.033	0.004
313.7	15000	0.709	0.082	0.01
313.7	15000	0.793	0.207	0.028
333.5	9000	0.247	0.017	0.003
333.5	9000	0.438	0.044	0.005
333.5	9000	0.699	0.095	0.011
333.5	9000	0.776	0.224	0.031
333.5	15000	0.246	0.02	0.003
333.5	15000	0.437	0.047	0.005
333.5	15000	0.69	0.106	0.011
333.5	15000	0.784	0.216	0.025
