Measured thermophysical data. Thermodynamic characterization of second generation biofuels: Vapour-liquid  equilibria and excess enthalpies of the binary mixtures 1-pentanol and  cyclohexane or toluene
Source: Fluid Phase Equilib., 2012, 10.1016/j.fluid.2012.01.007
Compound 1: pentan-1-ol, C5H12O, InChI=1S/C5H12O/c1-2-3-4-5-6/h6H,2-5H2,1H3, purity 99%
Compound 2: cyclohexane, C6H12, InChI=1S/C6H12/c1-2-4-6-5-3-1/h1-6H2, purity 99.5%
Compound 3: toluene, C7H8, InChI=1S/C7H8/c1-7-5-3-2-4-6-7/h2-6H,1H3, purity 99.8%

System: pentan-1-ol + cyclohexane; phases: Gas, Liquid
Fixed: Temperature, K = 313.15
Property: Vapor or sublimation pressure, kPa (Gas); method: Closed cell (Static) method
Mole fraction of pentan-1-ol	Vapor or sublimation pressure, kPa	uncertainty
0	24.569	0.096
0.0491	24.329	0.095
0.1037	24.071	0.095
0.1492	23.788	0.094
0.1989	23.485	0.093
0.2492	23.139	0.092
0.2993	22.764	0.09
0.3493	22.33	0.089
0.3991	21.846	0.087
0.401	21.832	0.087
0.4494	21.276	0.085
0.4511	21.267	0.085
0.4993	20.614	0.083
0.5012	20.606	0.083
0.5492	19.826	0.093
0.5514	19.931	0.094
0.5993	18.88	0.078
0.6016	18.856	0.078
0.6517	17.716	0.078
0.7025	16.322	0.075
0.7517	14.712	0.073
0.8019	12.754	0.071
0.8516	10.462	0.071
0.9015	7.746	0.072
0.9512	4.56	0.076
1	0.9	0.018

System: pentan-1-ol + cyclohexane; phases: Gas, Liquid
Fixed: Temperature, K = 313.15
Property: Mole fraction of pentan-1-ol (Gas); method: Volumetric Displacement
Mole fraction of pentan-1-ol	Mole fraction of pentan-1-ol	uncertainty
0	0	
0.0491	0.0143	0.001
0.1037	0.0172	0.001
0.1492	0.0183	0.001
0.1989	0.0195	0.001
0.2492	0.021	0.001
0.2993	0.0225	0.001
0.3493	0.024	0.001
0.3991	0.0255	0.001
0.401	0.0256	0.001
0.4494	0.0272	0.001
0.4511	0.0272	0.001
0.4993	0.029	0.001
0.5012	0.029	0.001
0.5492	0.0311	0.001
0.5514	0.0312	0.001
0.5993	0.0339	0.001
0.6016	0.0341	0.001
0.6517	0.0378	0.001
0.7025	0.0428	0.001
0.7517	0.0495	0.001
0.8019	0.0594	0.001
0.8516	0.0753	0.0011
0.9015	0.1063	0.0015
0.9512	0.1918	0.0091
1	1	

System: pentan-1-ol + cyclohexane; phases: Liquid
Fixed: Pressure, kPa = 101
Property: Excess molar enthalpy (molar enthalpy of mixing), kJ/mol (Liquid); method: Flow calorimetry
Temperature, K	Mole fraction of pentan-1-ol	Excess molar enthalpy (molar enthalpy of mixing), kJ/mol	uncertainty
298.15	0	0	0.001
298.15	0.05	0.3333	0.0074
298.15	0.1001	0.4401	0.0096
298.15	0.1501	0.5205	0.0113
298.15	0.2022	0.581	0.0126
298.15	0.2522	0.622	0.0134
298.15	0.3022	0.6487	0.014
298.15	0.3523	0.6609	0.0143
298.15	0.4023	0.6584	0.0142
298.15	0.4523	0.6414	0.0139
298.15	0.5022	0.6092	0.0132
298.15	0.5522	0.5735	0.0124
298.15	0.6022	0.5274	0.0114
298.15	0.6522	0.4711	0.0103
298.15	0.7022	0.411	0.009
298.15	0.7522	0.3472	0.0076
298.15	0.8021	0.2719	0.006
298.15	0.8501	0.2061	0.0047
298.15	0.9	0.1381	0.0032
298.15	0.95	0.0677	0.0018
298.15	1	0	0.001
313.15	0	0	0.001
313.15	0.05	0.449	0.0099
313.15	0.1	0.5819	0.0126
313.15	0.1501	0.6733	0.0145
313.15	0.2021	0.7393	0.0159
313.15	0.2522	0.7853	0.0169
313.15	0.3022	0.8094	0.0174
313.15	0.3521	0.8187	0.0176
313.15	0.4022	0.8099	0.0174
313.15	0.4522	0.7835	0.0169
313.15	0.5022	0.7459	0.0161
313.15	0.5522	0.7095	0.0153
313.15	0.6022	0.6342	0.0137
313.15	0.6519	0.5831	0.0126
313.15	0.7019	0.4941	0.0107
313.15	0.7521	0.4121	0.009
313.15	0.8021	0.3345	0.0074
313.15	0.8501	0.2502	0.0056
313.15	0.9	0.1596	0.0037
313.15	0.95	0.0798	0.0021
313.15	1	0	0.001

System: pentan-1-ol + toluene; phases: Gas, Liquid
Fixed: Temperature, K = 313.15
Property: Vapor or sublimation pressure, kPa (Gas); method: Closed cell (Static) method
Mole fraction of pentan-1-ol	Vapor or sublimation pressure, kPa	uncertainty
0	7.864	0.041
0.0493	7.789	0.041
0.0991	7.698	0.04
0.1495	7.595	0.04
0.1997	7.485	0.04
0.2495	7.365	0.039
0.2995	7.232	0.039
0.3497	7.082	0.038
0.3997	6.918	0.038
0.4049	6.922	0.038
0.4497	6.723	0.037
0.4551	6.725	0.037
0.4996	6.508	0.036
0.5052	6.516	0.037
0.5497	6.268	0.036
0.5551	6.269	0.036
0.5997	5.968	0.035
0.605	5.966	0.035
0.6548	5.638	0.034
0.7046	5.23	0.033
0.7539	4.76	0.032
0.804	4.203	0.031
0.8532	3.555	0.03
0.9023	2.799	0.03
0.9517	1.917	0.029
1	0.901	0.018

System: pentan-1-ol + toluene; phases: Gas, Liquid
Fixed: Temperature, K = 313.15
Property: Mole fraction of pentan-1-ol (Gas); method: Volumetric Displacement
Mole fraction of pentan-1-ol	Mole fraction of pentan-1-ol	uncertainty
0	0	
0.0493	0.0283	0.0011
0.0991	0.0428	0.001
0.1495	0.0513	0.001
0.1997	0.0571	0.001
0.2495	0.062	0.001
0.2995	0.0667	0.001
0.3497	0.0716	0.001
0.3997	0.077	0.001
0.4049	0.0776	0.001
0.4497	0.0829	0.001
0.4551	0.0836	0.001
0.4996	0.0896	0.001
0.5052	0.0904	0.001
0.5497	0.0972	0.001
0.5551	0.0981	0.001
0.5997	0.1062	0.001
0.605	0.1073	0.001
0.6548	0.1184	0.001
0.7046	0.1326	0.0011
0.7539	0.1514	0.0011
0.804	0.1788	0.0012
0.8532	0.2211	0.0016
0.9023	0.2953	0.0026
0.9517	0.4571	0.0073
1	1	

System: pentan-1-ol + toluene; phases: Liquid
Fixed: Pressure, kPa = 101
Property: Excess molar enthalpy (molar enthalpy of mixing), kJ/mol (Liquid); method: Flow calorimetry
Temperature, K	Mole fraction of pentan-1-ol	Excess molar enthalpy (molar enthalpy of mixing), kJ/mol	uncertainty
298.15	0	0	0.001
298.15	0.0511	0.5393	0.0118
298.15	0.1004	0.7603	0.0164
298.15	0.1497	0.8839	0.019
298.15	0.2012	0.9726	0.0209
298.15	0.2507	1.0212	0.0219
298.15	0.3003	1.0481	0.0225
298.15	0.35	1.0627	0.0228
298.15	0.4018	1.0423	0.0224
298.15	0.4516	1.0107	0.0217
298.15	0.5016	0.9595	0.0206
298.15	0.5517	0.8937	0.0192
298.15	0.6018	0.816	0.0176
298.15	0.65	0.7281	0.0157
298.15	0.7003	0.6324	0.0137
298.15	0.7507	0.5289	0.0115
298.15	0.8012	0.4149	0.0091
298.15	0.8497	0.3125	0.0069
298.15	0.9004	0.2031	0.0046
298.15	0.9491	0.1015	0.0025
298.15	1	0	0.001
313.15	0	0	0.001
313.15	0.0511	0.5964	0.013
313.15	0.1004	0.8837	0.019
313.15	0.1498	1.0533	0.0226
313.15	0.2013	1.1688	0.025
313.15	0.2508	1.2314	0.0264
313.15	0.3003	1.2511	0.0268
313.15	0.35	1.2524	0.0268
313.15	0.3999	1.2536	0.0268
313.15	0.4518	1.2026	0.0258
313.15	0.5016	1.157	0.0248
313.15	0.5517	1.0893	0.0234
313.15	0.6019	1.0027	0.0215
313.15	0.6501	0.9042	0.0194
313.15	0.7004	0.7937	0.0171
313.15	0.7508	0.6669	0.0144
313.15	0.8013	0.5402	0.0117
313.15	0.8498	0.4092	0.009
313.15	0.9005	0.267	0.006
313.15	0.9492	0.132	0.0032
313.15	1	0	0.001
