Measured thermophysical data. Solubility and polymorphic forms of antibiotic lasalocid sodium in different organic solvents
Source: Fluid Phase Equilib., 2014, 10.1016/j.fluid.2014.04.008
Compound 1: lasalocid sodium, C34H53NaO8, InChI=1S/C34H54O8.Na/c1-9-25(31-21(6)18-34(11-3,42-31)26-16-17-33(40,10-2)23(8)41-26)30(37)22(7)28(35)19(4)12-14-24-15-13-20(5)29(36)27(24)32(38)39;/h13,15,19,21-23,25-26,28,31,35-36,40H,9-12,14,16-18H2,1-8H3,(H,38,39);/q;+1/p-1/t19-,21-,22+,23-,25+,26+,28-,31-,33+,34-;/m1./s1
Compound 2: methanol, CH4O, InChI=1S/CH4O/c1-2/h2H,1H3, purity 99%
Compound 3: ethanol, C2H6O, InChI=1S/C2H6O/c1-2-3/h3H,2H2,1H3, purity 99%
Compound 4: propan-2-ol, C3H8O, InChI=1S/C3H8O/c1-3(2)4/h3-4H,1-2H3, purity 99%
Compound 5: ethyl acetate, C4H8O2, InChI=1S/C4H8O2/c1-3-6-4(2)5/h3H2,1-2H3, purity 99%
Compound 6: acetone, C3H6O, InChI=1S/C3H6O/c1-3(2)4/h1-2H3, purity 99%

System: lasalocid sodium + methanol; phases: Liquid, Crystal
Fixed: Pressure, kPa = 101
Property: Mole fraction of lasalocid sodium (Liquid); method: Gravimetric Method
Temperature, K	Mole fraction of lasalocid sodium	uncertainty
283.15	0.00259	0.001
288.15	0.00293	0.001
293.15	0.0031	0.001
298.15	0.00352	0.001
303.15	0.00391	0.001
308.15	0.00413	0.001
313.15	0.00456	0.001
318.15	0.00508	0.001
323.15	0.00577	0.001

System: lasalocid sodium + ethanol; phases: Liquid, Crystal
Fixed: Pressure, kPa = 101
Property: Mole fraction of lasalocid sodium (Liquid); method: Gravimetric Method
Temperature, K	Mole fraction of lasalocid sodium	uncertainty
283.15	0.00223	0.001
288.15	0.00246	0.001
293.15	0.0026	0.001
298.15	0.00311	0.001
303.15	0.00364	0.001
308.15	0.00419	0.001
313.15	0.00456	0.001
318.15	0.00502	0.001
323.15	0.00564	0.001

System: lasalocid sodium + propan-2-ol; phases: Liquid, Crystal
Fixed: Pressure, kPa = 101
Property: Mole fraction of lasalocid sodium (Liquid); method: Gravimetric Method
Temperature, K	Mole fraction of lasalocid sodium	uncertainty
283.15	0.00085	0.00085
288.15	0.00095	0.00095
293.15	0.00106	0.001
298.15	0.00117	0.001
303.15	0.00136	0.001
308.15	0.00161	0.001
313.15	0.00191	0.001
318.15	0.00211	0.001
323.15	0.00233	0.001

System: lasalocid sodium + ethyl acetate; phases: Liquid, Crystal
Fixed: Pressure, kPa = 101
Property: Mole fraction of lasalocid sodium (Liquid); method: Gravimetric Method
Temperature, K	Mole fraction of lasalocid sodium	uncertainty
283.15	0.00531	0.001
288.15	0.00538	0.001
293.15	0.00548	0.001
298.15	0.00556	0.001
303.15	0.00566	0.001
308.15	0.00575	0.001
313.15	0.00587	0.001
318.15	0.00596	0.001
323.15	0.00602	0.001

System: lasalocid sodium + acetone; phases: Liquid, Crystal
Fixed: Pressure, kPa = 101
Property: Mole fraction of lasalocid sodium (Liquid); method: Gravimetric Method
Temperature, K	Mole fraction of lasalocid sodium	uncertainty
283.15	0.01169	0.001
288.15	0.01187	0.001
293.15	0.01207	0.001
298.15	0.01225	0.001
303.15	0.01248	0.001
308.15	0.01269	0.001
313.15	0.0129	0.001
318.15	0.01323	0.001
323.15	0.01347	0.001
