Measured thermophysical data. Thermodynamics of a model biological reaction: A comprehensive combined experimental and theoretical study
Source: Fluid Phase Equilib., 2016, 10.1016/j.fluid.2016.01.035
Compound 1: carbon dioxide, CO2, InChI=1S/CO2/c2-1-3
Compound 2: water, H2O, InChI=1S/H2O/h1H2
Compound 3: oxygen, O2, InChI=1S/O2/c1-2
Compound 4: hydrogen, H2, InChI=1S/H2/h1H
Compound 5: graphite, C
Compound 6: 4-hydroxy-3-methoxycinnamic acid, C10H10O4, InChI=1S/C10H10O4/c1-14-9-6-7(2-4-8(9)11)3-5-10(12)13/h2-6,11H,1H3,(H,12,13), purity 99%
Compound 7: methyl 3-(4-hydroxy-3-methoxyphenyl)-2-propenoate, C11H12O4, InChI=1S/C11H12O4/c1-14-10-7-8(3-5-9(10)12)4-6-11(13)15-2/h3-7,12H,1-2H3, purity 99%

System: 4-hydroxy-3-methoxycinnamic acid; phases: Crystal, Liquid, Air at 1 atmosphere
Property: Normal melting temperature, K (Crystal); method: DTA
Normal melting temperature, K	uncertainty
445.9	0.5

System: 4-hydroxy-3-methoxycinnamic acid; phases: Crystal, Liquid, Air at 1 atmosphere
Property: Molar enthalpy of transition or fusion, kJ/mol (Crystal); method: DSC
Molar enthalpy of transition or fusion, kJ/mol	uncertainty
34.7	0.8

System: 4-hydroxy-3-methoxycinnamic acid; phases: Crystal, Gas
Property: Molar enthalpy of vaporization or sublimation, kJ/mol (Crystal); method: TGA
Temperature, K	Molar enthalpy of vaporization or sublimation, kJ/mol	uncertainty
298.15	135.7	2

System: methyl 3-(4-hydroxy-3-methoxyphenyl)-2-propenoate; phases: Crystal, Liquid, Air at 1 atmosphere
Property: Molar enthalpy of transition or fusion, kJ/mol (Crystal); method: DSC
Molar enthalpy of transition or fusion, kJ/mol	uncertainty
23.5	2.3

System: methyl 3-(4-hydroxy-3-methoxyphenyl)-2-propenoate; phases: Crystal, Gas
Property: Molar enthalpy of vaporization or sublimation, kJ/mol (Crystal); method: Derived by Second law
Temperature, K	Molar enthalpy of vaporization or sublimation, kJ/mol	uncertainty
298.15	123.3	2.9

System: methyl 3-(4-hydroxy-3-methoxyphenyl)-2-propenoate; phases: Liquid, Gas
Property: Vapor or sublimation pressure, kPa (Liquid); method: Transpiration method
Temperature, K	Vapor or sublimation pressure, kPa	uncertainty
340.2	9.7e-05	4e-06
343.2	0.000128	6e-06
348.2	0.00021	9e-06
353.1	0.000324	1.4e-05
358.2	0.000513	2.2e-05
363.2	0.000769	3.3e-05
368.1	0.00117	5e-05
370.2	0.0014	6e-05
373.2	0.00179	8e-05
376.2	0.00229	0.0001

Reaction: -1 methyl 3-(4-hydroxy-3-methoxyphenyl)-2-propenoate + 11 carbon dioxide + 6 water + -12 oxygen
Property: Molar enthalpy of reaction, kJ/mol
-5366.3

Reaction: -1 methyl 3-(4-hydroxy-3-methoxyphenyl)-2-propenoate + 11 carbon dioxide + 6 water + -12 oxygen
Property: Specific internal energy of reaction at constant volume, J/g
-25761.6

Reaction: -1 4-hydroxy-3-methoxycinnamic acid + 10 carbon dioxide + 5 water + -10.5 oxygen
Property: Molar enthalpy of reaction, kJ/mol
-4656.1

Reaction: -1 4-hydroxy-3-methoxycinnamic acid + 10 carbon dioxide + 5 water + -10.5 oxygen
Property: Specific internal energy of reaction at constant volume, J/g
-23971.3

Reaction: 1 methyl 3-(4-hydroxy-3-methoxyphenyl)-2-propenoate + -6 hydrogen + -11 graphite + -2 oxygen
Property: Molar enthalpy of reaction, kJ/mol
-677.3

Reaction: 1 methyl 3-(4-hydroxy-3-methoxyphenyl)-2-propenoate + -6 hydrogen + -11 graphite + -2 oxygen
Property: Molar enthalpy of reaction, kJ/mol
-554

Reaction: 1 4-hydroxy-3-methoxycinnamic acid + -5 hydrogen + -10 graphite + -2 oxygen
Property: Molar enthalpy of reaction, kJ/mol
-708.2

Reaction: 1 4-hydroxy-3-methoxycinnamic acid + -5 hydrogen + -10 graphite + -2 oxygen
Property: Molar enthalpy of reaction, kJ/mol
-572.5
