Measured thermophysical data. Influence of temperature, water content and type of organic acid on the formation, stability and properties of functional natural deep eutectic solvents
Source: Fluid Phase Equilib., 2019, 10.1016/j.fluid.2019.01.025
Compound 1: choline chloride, C5H14ClNO, InChI=1S/C5H14NO.ClH/c1-6(2,3)4-5-7;/h7H,4-5H2,1-3H3;1H/q+1;/p-1, purity 99%
Compound 2: D-glucose, C6H12O6, InChI=1S/C6H12O6/c7-1-3(9)5(11)6(12)4(10)2-8/h1,3-6,8-12H,2H2/t3-,4+,5+,6+/m0/s1, purity 99%
Compound 3: (S)-2-hydroxypropanoic acid, C3H6O3, InChI=1S/C3H6O3/c1-2(4)3(5)6/h2,4H,1H3,(H,5,6)/t2-/m0/s1, purity 99%
Compound 4: citric acid, C6H8O7, InChI=1S/C6H8O7/c7-3(8)1-6(13,5(11)12)2-4(9)10/h13H,1-2H2,(H,7,8)(H,9,10)(H,11,12), purity 99%
Compound 5: water, H2O, InChI=1S/H2O/h1H2, purity 99.8%

System: (S)-2-hydroxypropanoic acid + D-glucose; phases: Liquid
Fixed: Pressure, kPa = 91.2
Fixed: Mole fraction of (S)-2-hydroxypropanoic acid = 0.833
Property: Viscosity, Pa*s (Liquid); method: Concentric cylinders viscometry
Temperature, K	Viscosity, Pa*s	uncertainty
293	0.335	0.014
303	0.161	0.008
313	0.079	0.004
323	0.034	0.002
333	0.018	0.001
343	0.016	0.001
353	0.013	0.001

System: (S)-2-hydroxypropanoic acid + D-glucose; phases: Liquid
Fixed: Pressure, kPa = 91.2
Fixed: Mole fraction of (S)-2-hydroxypropanoic acid = 0.833
Property: Mass density, kg/m3 (Liquid); method: Vibrating tube method
Temperature, K	Mass density, kg/m3	uncertainty
293	1280	10
298	1270	10
303	1270	10
308	1270	10
313	1260	10
318	1260	10
323	1250	10

System: (S)-2-hydroxypropanoic acid + D-glucose; phases: Liquid, Gas
Property: Surface tension liquid-gas, N/m (Liquid); method: Ring tensiometer
Temperature, K	Mole fraction of (S)-2-hydroxypropanoic acid	Surface tension liquid-gas, N/m	uncertainty
298	0.833	0.03742	0.00204

System: (S)-2-hydroxypropanoic acid + D-glucose + water; phases: Liquid
Fixed: Pressure, kPa = 91.2
Fixed: Mole fraction of (S)-2-hydroxypropanoic acid = 0.556
Fixed: Mole fraction of D-glucose = 0.111
Property: Viscosity, Pa*s (Liquid); method: Concentric cylinders viscometry
Temperature, K	Viscosity, Pa*s	uncertainty
293	0.047	0.001
303	0.031	0.001
313	0.018	0.001
323	0.01	0.001
333	0.008	0.001
343	0.006	0.001
353	0.005	0.001

System: (S)-2-hydroxypropanoic acid + D-glucose + water; phases: Liquid
Fixed: Pressure, kPa = 91.2
Fixed: Mole fraction of (S)-2-hydroxypropanoic acid = 0.556
Fixed: Mole fraction of D-glucose = 0.111
Property: Mass density, kg/m3 (Liquid); method: Vibrating tube method
Temperature, K	Mass density, kg/m3	uncertainty
293	1280	10
298	1280	10
303	1270	10
308	1270	10
313	1260	10
318	1260	10
323	1250	10

System: (S)-2-hydroxypropanoic acid + D-glucose + water; phases: Liquid, Gas
Property: Surface tension liquid-gas, N/m (Liquid); method: Ring tensiometer
Temperature, K	Mole fraction of (S)-2-hydroxypropanoic acid	Mole fraction of D-glucose	Surface tension liquid-gas, N/m	uncertainty
298	0.556	0.111	0.03501	0.00069

System: choline chloride + (S)-2-hydroxypropanoic acid; phases: Liquid
Fixed: Pressure, kPa = 91.2
Fixed: Mole fraction of choline chloride = 0.5
Property: Viscosity, Pa*s (Liquid); method: Concentric cylinders viscometry
Temperature, K	Viscosity, Pa*s	uncertainty
293	0.309	0.012
303	0.151	0.006
313	0.101	0.003
323	0.059	0.002
333	0.035	0.001
343	0.034	0.001
353	0.025	0.001

System: choline chloride + (S)-2-hydroxypropanoic acid; phases: Liquid
Fixed: Pressure, kPa = 91.2
Fixed: Mole fraction of choline chloride = 0.5
Property: Mass density, kg/m3 (Liquid); method: Vibrating tube method
Temperature, K	Mass density, kg/m3	uncertainty
293	1150	10
298	1150	10
303	1150	10
308	1140	10
313	1140	10
318	1140	10
323	1130	10

System: choline chloride + (S)-2-hydroxypropanoic acid; phases: Liquid, Gas
Property: Surface tension liquid-gas, N/m (Liquid); method: Ring tensiometer
Temperature, K	Mole fraction of choline chloride	Surface tension liquid-gas, N/m	uncertainty
298	0.5	0.04287	0.00623

System: choline chloride + citric acid + water; phases: Liquid
Fixed: Pressure, kPa = 91.2
Fixed: Mole fraction of choline chloride = 0.333
Fixed: Mole fraction of citric acid = 0.333
Property: Viscosity, Pa*s (Liquid); method: Concentric cylinders viscometry
Temperature, K	Viscosity, Pa*s	uncertainty
293	6.175	
303	2.748	
313	1.671	
323	0.93	
333	0.568	
343	0.301	
353	0.291	

System: choline chloride + citric acid + water; phases: Liquid
Fixed: Pressure, kPa = 91.2
Fixed: Mole fraction of choline chloride = 0.333
Fixed: Mole fraction of citric acid = 0.333
Property: Mass density, kg/m3 (Liquid); method: Vibrating tube method
Temperature, K	Mass density, kg/m3	uncertainty
293	1310	10
298	1310	10
303	1300	10
308	1300	10
313	1300	10
318	1290	10
323	1300	10

System: choline chloride + citric acid + water; phases: Liquid, Gas
Property: Surface tension liquid-gas, N/m (Liquid); method: Ring tensiometer
Temperature, K	Mole fraction of choline chloride	Mole fraction of citric acid	Surface tension liquid-gas, N/m	uncertainty
298	0.333	0.333	0.04451	0.00108
