Measured thermophysical data. Phase behavior of aqueous two-phase systems composed of 1-ethyl-3-methylimidazolium tetrafluoroborate and phosphate-based salts at different temperatures
Source: Fluid Phase Equilib., 2013, 10.1016/j.fluid.2012.12.016
Compound 1: disodium hydrogen phosphate, HNa2O4P, InChI=1S/2Na.H3O4P/c;;1-5(2,3)4/h;;(H3,1,2,3,4)/q2*+1;/p-2, purity 99%
Compound 2: water, H2O, InChI=1S/H2O/h1H2, purity 99.8%
Compound 3: 1-ethyl-3-methylimidazolium tetrafluoroborate, C6H11BF4N2, InChI=1S/C6H11N2.BF4/c1-3-8-5-4-7(2)6-8;2-1(3,4)5/h4-6H,3H2,1-2H3;/q+1;-1, purity 99%
Compound 4: sodium dihydrogen phosphate, H2NaO4P, InChI=1S/Na.H3O4P/c;1-5(2,3)4/h;(H3,1,2,3,4)/q+1;/p-1, purity 99%

System: disodium hydrogen phosphate + water + 1-ethyl-3-methylimidazolium tetrafluoroborate; phases: Liquid mixture 2, Liquid mixture 1
Fixed: Pressure, kPa = 101
Property: Mass fraction of disodium hydrogen phosphate (Liquid mixture 2); method: OTHER
Property: Mass fraction of disodium hydrogen phosphate (Liquid mixture 1); method: OTHER
Property: Mass fraction of 1-ethyl-3-methylimidazolium tetrafluoroborate (Liquid mixture 1); method: OTHER
Temperature, K	Mass fraction of 1-ethyl-3-methylimidazolium tetrafluoroborate	Mass fraction of disodium hydrogen phosphate	uncertainty	Mass fraction of disodium hydrogen phosphate	uncertainty	Mass fraction of 1-ethyl-3-methylimidazolium tetrafluoroborate	uncertainty
298.15	0.2006	0.0805	0.0002	0.0135	0.0001	0.5412	
298.15	0.1905	0.0873	0.0002	0.0122	0.0001	0.57	
298.15	0.2145	0.075	0.0002	0.0155	0.0001	0.5162	
298.15	0.2432	0.066	0.0001	0.0177	0.0001	0.4952	
298.15	0.1923	0.0847	0.0002	0.0131	0.0001	0.5508	
303.15	0.221	0.0778	0.0001	0.0197	0.0001	0.5013	
303.15	0.201	0.0858	0.0002	0.0175	0.0001	0.5215	
303.15	0.2422	0.0698	0.0001	0.023	0.0001	0.465	
303.15	0.2351	0.073	0.0002	0.0223	0.0001	0.4735	
303.15	0.1927	0.0893	0.0001	0.0164	0.0001	0.5416	
308.15	0.1903	0.0888	0.0002	0.0172	0.0001	0.5303	
308.15	0.2192	0.0798	0.0001	0.0202	0.0001	0.4989	
308.15	0.1812	0.0966	0.0001	0.0154	0.0001	0.5635	
308.15	0.1867	0.0933	0.0001	0.0154	0.0001	0.5492	
308.15	0.2245	0.076	0.0001	0.0217	0.0001	0.4794	

System: disodium hydrogen phosphate + water + 1-ethyl-3-methylimidazolium tetrafluoroborate; phases: Liquid mixture 1, Liquid mixture 2
Fixed: Pressure, kPa = 101
Property: Mass fraction of disodium hydrogen phosphate (Liquid mixture 1); method: UV spectroscopy
Temperature, K	Mass fraction of 1-ethyl-3-methylimidazolium tetrafluoroborate	Mass fraction of disodium hydrogen phosphate	uncertainty
298.15	0.1676	0.0944	0.0002
298.15	0.1832	0.0878	0.0002
298.15	0.1975	0.0814	0.0002
298.15	0.2111	0.0776	0.0001
298.15	0.2361	0.0689	0.0001
298.15	0.2535	0.0632	0.0001
298.15	0.2829	0.0568	0.0001
298.15	0.3052	0.0495	0.0001
298.15	0.3225	0.0456	0.0001
298.15	0.3429	0.0417	0.0001
298.15	0.3676	0.0365	0.0001
298.15	0.3853	0.0332	0.0001
298.15	0.4026	0.0302	0.0001
298.15	0.431	0.0262	0.0001
298.15	0.4601	0.0223	0.0001
298.15	0.5099	0.0169	0.0001
303.15	0.1835	0.0912	0.0001
303.15	0.1953	0.0866	0.0001
303.15	0.2081	0.0812	0.0001
303.15	0.2277	0.0759	0.0001
303.15	0.2403	0.0703	0.0001
303.15	0.252	0.0667	0.0001
303.15	0.2701	0.0613	0.0001
303.15	0.3112	0.0515	0.0001
303.15	0.3375	0.0449	0.0001
303.15	0.3625	0.0394	0.0001
303.15	0.3813	0.0361	0.0001
303.15	0.4122	0.0302	0.0001
303.15	0.4396	0.0266	0.0001
303.15	0.4814	0.0217	0.0001
303.15	0.5066	0.0187	0.0001
308.15	0.1995	0.0859	0.0001
308.15	0.2113	0.0812	0.0001
308.15	0.2221	0.0779	0.0001
308.15	0.2424	0.0708	0.0001
308.15	0.2654	0.0639	0.0001
308.15	0.2908	0.0567	0.0001
308.15	0.3133	0.0512	0.0001
308.15	0.3314	0.0475	0.0001
308.15	0.3519	0.0435	0.0001
308.15	0.3781	0.0379	0.0001
308.15	0.391	0.0347	0.0001
308.15	0.4056	0.0314	0.0001
308.15	0.4327	0.0283	0.0001
308.15	0.4404	0.0271	0.0001
308.15	0.4664	0.0243	0.0001
308.15	0.4945	0.0197	0.0001
308.15	0.5188	0.0183	0.0001

System: sodium dihydrogen phosphate + water + 1-ethyl-3-methylimidazolium tetrafluoroborate; phases: Liquid mixture 2, Liquid mixture 1
Fixed: Pressure, kPa = 101
Property: Mass fraction of 1-ethyl-3-methylimidazolium tetrafluoroborate (Liquid mixture 2); method: OTHER
Property: Mass fraction of sodium dihydrogen phosphate (Liquid mixture 1); method: OTHER
Property: Mass fraction of 1-ethyl-3-methylimidazolium tetrafluoroborate (Liquid mixture 1); method: OTHER
Temperature, K	Mass fraction of sodium dihydrogen phosphate	Mass fraction of 1-ethyl-3-methylimidazolium tetrafluoroborate	uncertainty	Mass fraction of sodium dihydrogen phosphate	uncertainty	Mass fraction of 1-ethyl-3-methylimidazolium tetrafluoroborate	uncertainty
298.15	0.1614	0.2105	0.0024	0.025	0.0002	0.63	
298.15	0.1713	0.1979	0.0026	0.022	0.0002	0.6554	
298.15	0.189	0.1654	0.0026	0.0185	0.0002	0.6832	
298.15	0.1489	0.2308	0.0027	0.0379	0.0004	0.5645	
298.15	0.1974	0.1567	0.0028	0.0162	0.0003	0.7085	
303.15	0.1896	0.2313	0.0026	0.0511	0.0004	0.5503	
303.15	0.2112	0.2061	0.0027	0.0387	0.0003	0.6031	
303.15	0.1931	0.2299	0.0026	0.0467	0.0004	0.5693	
303.15	0.2211	0.1965	0.0026	0.0323	0.0003	0.6277	
303.15	0.2304	0.1858	0.0024	0.0266	0.0002	0.6642	
308.15	0.2941	0.2022	0.002	0.0701	0.0005	0.5283	
308.15	0.3256	0.1815	0.0017	0.0565	0.0004	0.5703	
308.15	0.2632	0.2182	0.002	0.0907	0.0004	0.4764	
308.15	0.247	0.2262	0.0019	0.1012	0.0006	0.445	
308.15	0.3076	0.194	0.0023	0.0661	0.0005	0.5396	

System: sodium dihydrogen phosphate + water + 1-ethyl-3-methylimidazolium tetrafluoroborate; phases: Liquid mixture 1, Liquid mixture 2
Fixed: Pressure, kPa = 101
Property: Mass fraction of sodium dihydrogen phosphate (Liquid mixture 1); method: UV spectroscopy
Temperature, K	Mass fraction of 1-ethyl-3-methylimidazolium tetrafluoroborate	Mass fraction of sodium dihydrogen phosphate	uncertainty
298.15	0.1076	0.2525	0.0025
298.15	0.1178	0.2411	0.0023
298.15	0.1231	0.2363	0.0028
298.15	0.1352	0.2197	0.0024
298.15	0.1552	0.2005	0.0022
298.15	0.1587	0.1975	0.0022
298.15	0.1735	0.1822	0.0021
298.15	0.1877	0.1757	0.002
298.15	0.1951	0.1702	0.0019
298.15	0.209	0.1623	0.0018
298.15	0.2197	0.1573	0.0018
298.15	0.2501	0.1399	0.0014
298.15	0.2631	0.1342	0.0014
298.15	0.28	0.1258	0.0012
298.15	0.2998	0.1178	0.0012
298.15	0.3203	0.1093	0.001
298.15	0.3805	0.0877	0.0008
298.15	0.4533	0.0639	0.0006
298.15	0.5079	0.0511	0.0005
298.15	0.5489	0.0408	0.0004
298.15	0.5767	0.0355	0.0004
298.15	0.6204	0.0259	0.0004
303.15	0.1798	0.2335	0.0023
303.15	0.1863	0.226	0.002
303.15	0.1995	0.215	0.002
303.15	0.2182	0.2019	0.0018
303.15	0.2255	0.1964	0.0019
303.15	0.2387	0.184	0.0017
303.15	0.2481	0.1777	0.0017
303.15	0.2588	0.1713	0.0016
303.15	0.2695	0.1636	0.0016
303.15	0.2879	0.1524	0.0014
303.15	0.2979	0.1476	0.0013
303.15	0.3267	0.1313	0.0012
303.15	0.3499	0.1211	0.0011
303.15	0.38	0.1077	0.001
303.15	0.4243	0.0911	0.0008
303.15	0.4476	0.0831	0.0008
303.15	0.478	0.0729	0.0006
303.15	0.5175	0.0602	0.0005
303.15	0.5778	0.0447	0.0004
303.15	0.5975	0.0396	0.0004
303.15	0.6401	0.0303	0.0004
308.15	0.244	0.2303	0.002
308.15	0.2538	0.2214	0.0019
308.15	0.2703	0.2101	0.0018
308.15	0.282	0.1989	0.0016
308.15	0.2922	0.189	0.0016
308.15	0.3031	0.1808	0.0015
308.15	0.3168	0.1739	0.0014
308.15	0.3264	0.1661	0.0014
308.15	0.3475	0.1508	0.0012
308.15	0.3656	0.1433	0.0012
308.15	0.3881	0.1344	0.0012
308.15	0.3989	0.1265	0.0012
308.15	0.4241	0.1141	0.0009
308.15	0.4353	0.1086	0.0009
308.15	0.4617	0.098	0.0008
308.15	0.494	0.0805	0.0007
308.15	0.5192	0.071	0.0005
308.15	0.547	0.0609	0.0004
308.15	0.5933	0.0508	0.0004
308.15	0.6217	0.0445	0.0004
308.15	0.6601	0.0334	0.0004
