Measured thermophysical data. Liquid liquid equilibrium data for water + ethanol + trans-decalin: Measurement and predication
Source: Fluid Phase Equilib., 2006, 10.1016/j.fluid.2006.01.024
Compound 1: ethanol, C2H6O, InChI=1S/C2H6O/c1-2-3/h3H,2H2,1H3
Compound 2: trans-decahydronaphthalene, C10H18, InChI=1S/C10H18/c1-2-6-10-8-4-3-7-9(10)5-1/h9-10H,1-8H2/t9-,10-
Compound 3: water, H2O, InChI=1S/H2O/h1H2

System: ethanol; phases: Liquid
Property: Refractive index (Na D-line) (Liquid); method: ABBE:monochFP
Temperature, K	Pressure, kPa	Refractive index (Na D-line)	uncertainty
298.2	101.325	1.3595	0.0015

System: ethanol; phases: Liquid, Gas
Property: Boiling temperature at pressure P, K (Liquid); method: DISTILL:UFactor:4
Pressure, kPa	Boiling temperature at pressure P, K	uncertainty
101.325	351.15	0.4

System: ethanol; phases: Liquid
Property: Mass density, kg/m3 (Liquid); method: Vibrating tube method
Temperature, K	Pressure, kPa	Mass density, kg/m3	uncertainty
298.2	101.325	785.2	0.2

System: trans-decahydronaphthalene; phases: Liquid
Property: Refractive index (Na D-line) (Liquid); method: ABBE:monochFP
Temperature, K	Pressure, kPa	Refractive index (Na D-line)	uncertainty
298.2	101.325	1.4682	0.0016

System: trans-decahydronaphthalene; phases: Liquid, Gas
Property: Boiling temperature at pressure P, K (Liquid); method: DISTILL:UFactor:4
Pressure, kPa	Boiling temperature at pressure P, K	uncertainty
101.325	460.35	0.4

System: trans-decahydronaphthalene; phases: Liquid
Property: Mass density, kg/m3 (Liquid); method: Vibrating tube method
Temperature, K	Pressure, kPa	Mass density, kg/m3	uncertainty
298.2	101.325	868.25	0.15

System: ethanol + trans-decahydronaphthalene + water; phases: Liquid mixture 2, Liquid mixture 1
Fixed: Pressure, kPa = 101
Property: Mole fraction of water (Liquid mixture 2); method: CHROM:UFactor:4
Property: Mole fraction of water (Liquid mixture 1); method: CHROM:UFactor:4
Property: Mole fraction of ethanol (Liquid mixture 1); method: CHROM:UFactor:4
Temperature, K	Mole fraction of ethanol	Mole fraction of water	uncertainty	Mole fraction of water	uncertainty	Mole fraction of ethanol	uncertainty
300.2	0.0052	0.0002	0.0001	0.9822	0.0011	0.0177	
300.2	0.0088	0.0003	0.0001	0.9358	0.002	0.0642	
300.2	0.0099	0.0003	0.0001	0.8712	0.004	0.1287	
300.2	0.0131	0.0003	0.0001	0.7962	0.0063	0.2035	
300.2	0.0142	0.0003	0.0001	0.7207	0.0087	0.278	
300.2	0.0174	0.0003	0.0001	0.6226	0.0117	0.3736	
300.2	0.0212	0.0004	0.0001	0.5238	0.0148	0.4669	
300.2	0.6489	0.0399	0.0013	0.419	0.013	0.5684	
300.2	0.76	0.096	0.003	0.3069	0.0095	0.685	
305.2	0.0071	0.0001	0.0001	0.9956	0.001	0.0043	
305.2	0.0084	0.0002	0.0001	0.9854	0.0011	0.0145	
305.2	0.0087	0.0003	0.0001	0.9365	0.002	0.0634	
305.2	0.0095	0.0003	0.0001	0.8699	0.004	0.1299	
305.2	0.0143	0.0003	0.0001	0.7912	0.0065	0.2053	
305.2	0.0152	0.0003	0.0001	0.7168	0.0088	0.2801	
305.2	0.0133	0.0003	0.0001	0.6231	0.0117	0.3769	
305.2	0.0124	0.0004	0.0001	0.5243	0.0147	0.4698	
305.2	0.6337	0.0404	0.0022	0.4195	0.013	0.5651	
310.2	0.0077	0	0.0001	0.9955	0.001	0.0114	
310.2	0.0163	0.0001	0.0001	0.9368	0.002	0.0631	
310.2	0.0167	0.0001	0.0001	0.8681	0.0041	0.1318	
310.2	0.018	0.0001	0.0001	0.7892	0.0065	0.2107	
310.2	0.0195	0.0001	0.0001	0.7155	0.0088	0.2844	
310.2	0.0204	0.0037	0.0001	0.6232	0.0117	0.3731	
310.2	0.0284	0.0059	0.0002	0.5244	0.0147	0.4697	
310.2	0.3257	0.0615	0.004	0.394	0.0122	0.575	
310.2	0.637	0.131	0.0041	0.262	0.0089	0.673	
312.2	0.0075	0.0003	0.0001	0.9877	0.0013	0.0123	
312.2	0.0195	0.0004	0.0001	0.9335	0.0021	0.0665	
312.2	0.0194	0.0004	0.0001	0.86	0.0043	0.1368	
312.2	0.0192	0.0004	0.0001	0.7804	0.0068	0.2158	
312.2	0.0296	0.0005	0.0005	0.7081	0.0091	0.2884	
312.2	0.0227	0.0004	0.0003	0.6183	0.0118	0.3779	
312.2	0.0571	0.001	0.0005	0.5234	0.0148	0.4727	
312.2	0.6302	0.0406	0.0089	0.4188	0.0131	0.5678	
312.2	0.7478	0.0797	0.0025	0.3069	0.0102	0.666	
