Measured thermophysical data. Measurements of heat capacities and turbidities for binary mixtures {water + 2,6-dimethylpyridine} and {water, or heavy water + 2,6-dimethylpiperidine} in the critical regions
Source: Fluid Phase Equilib., 2016, 10.1016/j.fluid.2015.10.027
Compound 1: 2,6-dimethylpyridine, C7H9N, InChI=1S/C7H9N/c1-6-4-3-5-7(2)8-6/h3-5H,1-2H3, purity 99%
Compound 2: water, H2O, InChI=1S/H2O/h1H2, purity 99.9%
Compound 3: water-d2, D2O, InChI=1S/H2O/h1H2/i/hD2, purity 99.9%
Compound 4: 2,6-dimethylpiperidine, C7H15N, InChI=1S/C7H15N/c1-6-4-3-5-7(2)8-6/h6-8H,3-5H2,1-2H3, purity 99%

System: 2,6-dimethylpiperidine; phases: Liquid
Fixed: Pressure, kPa = 101.325
Property: Mass density, kg/m3 (Liquid); method: Vibrating tube method
Temperature, K	Mass density, kg/m3	uncertainty
300.829	816.664	0.24
304.051	813.975	0.24
306.72	811.615	0.24
309.795	809.031	0.24
313.97	805.478	0.241

System: 2,6-dimethylpyridine + water; phases: Liquid mixture 1, Liquid mixture 2, Air at 1 atmosphere
Property: Lower consolute composition: mole fraction of 2,6-dimethylpyridine (Liquid mixture 1); method: fitting scaling equation to heat capacity
Lower consolute composition: mole fraction of 2,6-dimethylpyridine	uncertainty
0.066	0.004

System: 2,6-dimethylpyridine + water; phases: Liquid mixture 1, Liquid mixture 2, Air at 1 atmosphere
Property: Lower consolute temperature, K (Liquid mixture 1); method: fitting scalng equation to heat capacity
Lower consolute temperature, K	uncertainty
306.663	0.04

System: 2,6-dimethylpyridine + water; phases: Liquid mixture 1, Liquid mixture 2, Air at 1 atmosphere
Property: Lower consolute temperature, K (Liquid mixture 1); method: VISOBS
Lower consolute temperature, K	uncertainty
306.395	0.387

System: 2,6-dimethylpyridine + water; phases: Liquid mixture 1, Liquid mixture 2
Fixed: Mole fraction of 2,6-dimethylpyridine = 0.066
Property: Heat capacity at constant pressure per volume, J/K/m3 (Liquid mixture 1); method: DSC
Temperature, K	Heat capacity at constant pressure per volume, J/K/m3	uncertainty
270.666	3943000	153000
271.167	3939000	153000
271.668	3932000	152000
272.168	3933000	152000
272.669	3929000	152000
273.169	3934000	152000
273.668	3928000	152000
274.17	3930000	152000
274.67	3924000	152000
275.17	3925000	152000
275.671	3922000	152000
276.171	3920000	152000
276.672	3918000	152000
277.172	3918000	152000
277.672	3919000	152000
278.172	3918000	152000
278.673	3916000	152000
279.173	3913000	152000
279.673	3916000	152000
280.174	3914000	152000
280.674	3914000	152000
281.175	3913000	152000
281.675	3910000	151000
282.175	3910000	151000
282.676	3907000	151000
283.176	3907000	151000
283.676	3904000	151000
284.177	3907000	151000
284.677	3905000	151000
285.177	3909000	151000
285.677	3905000	151000
286.178	3903000	151000
286.678	3907000	151000
287.178	3907000	151000
287.679	3910000	151000
288.179	3913000	152000
288.68	3913000	152000
289.18	3912000	152000
289.68	3912000	152000
290.18	3910000	151000
290.681	3913000	152000
291.181	3912000	152000
291.681	3913000	152000
292.181	3916000	152000
292.682	3917000	152000
293.182	3915000	152000
293.683	3911000	151000
294.183	3914000	152000
294.683	3914000	152000
295.183	3913000	152000
295.683	3912000	152000
296.184	3913000	152000
296.684	3912000	152000
297.184	3914000	152000
297.685	3914000	152000
298.185	3918000	152000
298.685	3919000	152000
299.186	3916000	152000
299.777	3918000	152000
299.988	3916000	152000
300.2	3912000	152000
300.412	3920000	152000
300.625	3927000	152000
300.836	3944000	153000
301.05	3932000	152000
301.261	3930000	152000
301.474	3942000	153000
301.686	3950000	153000
301.898	3947000	153000
302.11	3945000	153000
302.322	3932000	152000
302.535	3934000	152000
302.747	3933000	152000
302.96	3962000	153000
303.172	3969000	154000
303.384	3938000	153000
303.596	3938000	153000
303.808	3935000	152000
304.021	3948000	153000
304.234	3973000	154000
304.445	3963000	153000
304.658	3960000	153000
304.87	3953000	153000
305.082	3960000	153000
305.294	3975000	154000
305.507	3976000	154000
305.719	3956000	153000
305.931	4006000	155000
306.144	4011000	155000
306.356	4082000	158000
306.568	4075000	158000

System: 2,6-dimethylpyridine + water; phases: Liquid
Fixed: Mole fraction of 2,6-dimethylpyridine = 0.066
Fixed: Pressure, kPa = 102.6
Property: Heat capacity at constant pressure per volume, J/K/m3 (Liquid); method: DSC
Temperature, K	Heat capacity at constant pressure per volume, J/K/m3	uncertainty
306.781	4520000	175000
306.993	4372000	169000
307.205	4347000	168000
307.418	4321000	167000
307.63	4254000	165000
307.842	4227000	164000
308.054	4182000	162000
308.267	4223000	164000
308.479	4199000	163000
308.691	4189000	162000
308.903	4170000	162000
309.116	4188000	162000
309.328	4206000	163000
309.54	4165000	161000
309.753	4175000	162000
309.965	4206000	163000
310.177	4189000	162000
310.39	4172000	162000
310.602	4170000	162000
310.814	4154000	161000
311.026	4103000	159000
311.239	4121000	160000
311.451	4142000	160000
311.663	4101000	159000
311.875	4141000	160000
312.088	4083000	158000
312.3	4117000	159000
312.512	4078000	158000
312.725	4100000	159000

System: 2,6-dimethylpiperidine + water; phases: Liquid mixture 1, Liquid mixture 2, Air at 1 atmosphere
Property: Lower consolute composition: mole fraction of 2,6-dimethylpiperidine (Liquid mixture 1); method: fitting scaling equation to heat capacity
Lower consolute composition: mole fraction of 2,6-dimethylpiperidine	uncertainty
0.055	0.004

System: 2,6-dimethylpiperidine + water; phases: Liquid mixture 1, Liquid mixture 2, Air at 1 atmosphere
Property: Lower consolute temperature, K (Liquid mixture 1); method: fitting scalng equation to heat capacity
Lower consolute temperature, K	uncertainty
299.482	0.04

System: 2,6-dimethylpiperidine + water; phases: Liquid mixture 1, Liquid mixture 2, Air at 1 atmosphere
Property: Lower consolute temperature, K (Liquid mixture 1); method: VISOBS
Lower consolute temperature, K	uncertainty
299.157	0.387

System: 2,6-dimethylpiperidine + water; phases: Liquid mixture 1, Liquid mixture 2
Fixed: Mole fraction of 2,6-dimethylpiperidine = 0.055
Property: Heat capacity at constant pressure per volume, J/K/m3 (Liquid mixture 1); method: DSC
Temperature, K	Heat capacity at constant pressure per volume, J/K/m3	uncertainty
264	4559000	177000
264.474	4560000	177000
264.948	4546000	176000
265.422	4529000	175000
265.896	4518000	175000
266.369	4505000	174000
266.842	4492000	174000
267.316	4480000	174000
267.79	4471000	173000
268.263	4448000	172000
268.736	4442000	172000
269.21	4429000	172000
269.683	4420000	171000
270.156	4409000	171000
270.629	4398000	170000
271.103	4391000	170000
271.576	4375000	169000
272.049	4367000	169000
272.522	4356000	169000
272.996	4342000	168000
273.47	4341000	168000
273.943	4336000	168000
274.416	4322000	167000
274.889	4313000	167000
275.362	4305000	167000
275.836	4293000	166000
276.309	4289000	166000
276.782	4278000	166000
277.255	4274000	166000
277.729	4266000	165000
278.202	4260000	165000
278.675	4252000	165000
279.149	4250000	165000
279.622	4239000	164000
280.096	4237000	164000
280.568	4227000	164000
281.042	4227000	164000
281.515	4221000	163000
281.988	4216000	163000
282.462	4215000	163000
282.935	4208000	163000
283.408	4206000	163000
283.881	4199000	163000
284.355	4195000	162000
284.828	4191000	162000
285.301	4189000	162000
285.774	4182000	162000
286.248	4178000	162000
286.721	4177000	162000
287.195	4174000	162000
287.668	4174000	162000
288.141	4172000	162000
288.614	4170000	162000
289.087	4171000	162000
289.561	4167000	161000
290.034	4166000	161000
290.507	4165000	161000
290.981	4166000	161000
291.454	4165000	161000
291.927	4166000	161000
292.603	4164000	161000
292.809	4147000	161000
293.022	4141000	160000
293.233	4164000	161000
293.446	4134000	160000
293.659	4144000	160000
293.87	4164000	161000
294.083	4166000	161000
294.296	4164000	161000
294.508	4144000	160000
294.72	4183000	162000
294.932	4155000	161000
295.144	4142000	160000
295.356	4144000	160000
295.569	4153000	161000
295.781	4178000	162000
295.994	4155000	161000
296.205	4175000	162000
296.418	4213000	163000
296.631	4189000	162000
296.842	4188000	162000
297.055	4228000	164000
297.267	4210000	163000
297.479	4217000	163000
297.692	4232000	164000
297.904	4249000	165000
298.116	4247000	164000
298.329	4277000	166000
298.541	4280000	166000
298.753	4295000	166000
298.965	4312000	167000
299.178	4375000	169000
299.39	4534000	176000

System: 2,6-dimethylpiperidine + water; phases: Liquid
Fixed: Pressure, kPa = 102.6
Fixed: Mole fraction of 2,6-dimethylpiperidine = 0.055
Property: Heat capacity at constant pressure per volume, J/K/m3 (Liquid); method: DSC
Temperature, K	Heat capacity at constant pressure per volume, J/K/m3	uncertainty
299.602	5314000	206000
299.814	5077000	197000
300.026	5010000	194000
300.239	4873000	189000
300.451	4815000	186000
300.664	4801000	186000
300.876	4772000	185000
301.088	4785000	185000
301.301	4742000	184000
301.513	4632000	179000
301.725	4641000	180000
301.937	4672000	181000
302.15	4625000	179000
302.362	4675000	181000
302.574	4597000	178000
302.787	4600000	178000
302.999	4544000	176000
303.211	4578000	177000
303.423	4592000	178000
303.636	4555000	176000
303.848	4564000	177000
304.061	4532000	176000
304.273	4520000	175000
304.485	4530000	175000
304.697	4519000	175000
304.909	4468000	173000
305.122	4514000	175000
305.334	4463000	173000
305.546	4423000	171000
305.758	4443000	172000

System: 2,6-dimethylpiperidine + water-d2; phases: Liquid mixture 1, Liquid mixture 2, Air at 1 atmosphere
Property: Lower consolute composition: mole fraction of 2,6-dimethylpiperidine (Liquid mixture 1); method: fitting scaling equation to heat capacity
Lower consolute composition: mole fraction of 2,6-dimethylpiperidine	uncertainty
0.054	0.004

System: 2,6-dimethylpiperidine + water-d2; phases: Liquid mixture 1, Liquid mixture 2, Air at 1 atmosphere
Property: Lower consolute temperature, K (Liquid mixture 1); method: fitting scalng equation to heat capacity
Lower consolute temperature, K	uncertainty
296.362	0.04

System: 2,6-dimethylpiperidine + water-d2; phases: Liquid mixture 1, Liquid mixture 2, Air at 1 atmosphere
Property: Lower consolute temperature, K (Liquid mixture 1); method: VISOBS
Lower consolute temperature, K	uncertainty
295.87	0.387

System: 2,6-dimethylpiperidine + water-d2; phases: Liquid mixture 1, Liquid mixture 2
Fixed: Mole fraction of 2,6-dimethylpiperidine = 0.054
Property: Heat capacity at constant pressure per volume, J/K/m3 (Liquid mixture 1); method: DSC
Temperature, K	Heat capacity at constant pressure per volume, J/K/m3	uncertainty
270.362	4851000	188000
270.673	4851000	188000
270.984	4850000	188000
271.295	4843000	188000
271.606	4841000	187000
271.918	4831000	187000
272.229	4822000	187000
272.54	4813000	186000
272.851	4803000	186000
273.161	4797000	186000
273.473	4793000	186000
273.784	4785000	185000
274.095	4778000	185000
274.406	4775000	185000
274.717	4768000	185000
275.028	4764000	185000
275.339	4752000	184000
275.65	4755000	184000
275.962	4749000	184000
276.273	4742000	184000
276.583	4732000	183000
276.895	4728000	183000
277.206	4720000	183000
277.517	4717000	183000
277.828	4706000	182000
278.139	4700000	182000
278.45	4697000	182000
278.761	4694000	182000
279.072	4693000	182000
279.383	4689000	182000
279.694	4685000	181000
280.005	4677000	181000
280.316	4675000	181000
280.627	4668000	181000
280.938	4667000	181000
281.249	4661000	181000
281.56	4654000	180000
281.87	4654000	180000
282.182	4653000	180000
282.493	4642000	180000
282.804	4640000	180000
283.115	4641000	180000
283.426	4645000	180000
283.737	4645000	180000
284.048	4638000	180000
284.359	4635000	180000
284.67	4627000	179000
284.981	4628000	179000
285.292	4633000	179000
285.603	4630000	179000
285.914	4623000	179000
286.225	4610000	179000
286.536	4617000	179000
286.847	4623000	179000
287.158	4612000	179000
287.469	4611000	179000
287.78	4609000	179000
288.091	4606000	178000
288.598	4566000	177000
288.821	4558000	177000
289.05	4578000	177000
289.278	4580000	177000
289.507	4581000	177000
289.735	4539000	176000
289.964	4559000	177000
290.192	4609000	179000
290.421	4604000	178000
290.649	4587000	178000
290.878	4581000	177000
291.106	4554000	176000
291.335	4556000	176000
291.563	4590000	178000
291.792	4592000	178000
292.02	4589000	178000
292.249	4578000	177000
292.477	4643000	180000
292.706	4602000	178000
292.935	4606000	178000
293.163	4623000	179000
293.391	4660000	180000
293.62	4615000	179000
293.849	4629000	179000
294.077	4700000	182000
294.305	4655000	180000
294.534	4669000	181000
294.763	4707000	182000
294.991	4644000	180000
295.22	4708000	182000
295.448	4694000	182000
295.677	4733000	183000
295.905	4759000	184000
296.132	4861000	188000
296.362	5146000	199000

System: 2,6-dimethylpiperidine + water-d2; phases: Liquid
Fixed: Pressure, kPa = 102.6
Fixed: Mole fraction of 2,6-dimethylpiperidine = 0.054
Property: Heat capacity at constant pressure per volume, J/K/m3 (Liquid); method: DSC
Temperature, K	Heat capacity at constant pressure per volume, J/K/m3	uncertainty
296.591	5567000	216000
296.819	5424000	210000
297.048	5334000	207000
297.276	5260000	204000
297.505	5164000	200000
297.734	5179000	201000
297.961	5136000	199000
298.19	5070000	196000
298.419	5083000	197000
298.647	5094000	197000
298.875	5093000	197000
299.104	5111000	198000
299.333	5023000	195000
299.561	5049000	196000
299.79	5063000	196000
300.018	5028000	195000
300.247	5015000	194000
300.475	5009000	194000
300.704	4961000	192000
300.931	4977000	193000
301.161	4985000	193000
301.39	4958000	192000
301.618	4957000	192000
301.847	4945000	192000
302.075	4916000	190000
302.303	4889000	189000
302.532	4922000	191000
