Measured thermophysical data. Measurement of binary diffusion coefficient and solubility estimation for dyes in supercritical carbon dioxide by CIR method
Source: Fluid Phase Equilib., 2016, 10.1016/j.fluid.2016.01.010
Compound 1: 9,10-anthracenedione, 1-amino-2-methyl-, C15H11NO2, InChI=1S/C15H11NO2/c1-8-6-7-11-12(13(8)16)15(18)10-5-3-2-4-9(10)14(11)17/h2-7H,16H2,1H3, purity 98%
Compound 2: 1,4-bis(methylamino)anthraquinone, C16H14N2O2, InChI=1S/C16H14N2O2/c1-17-11-7-8-12(18-2)14-13(11)15(19)9-5-3-4-6-10(9)16(14)20/h3-8,17-18H,1-2H3, purity 95%
Compound 3: carbon dioxide, CO2, InChI=1S/CO2/c2-1-3
Compound 4: methanol, CH4O, InChI=1S/CH4O/c1-2/h2H,1H3
Compound 5: ethanol, C2H6O, InChI=1S/C2H6O/c1-2-3/h3H,2H2,1H3

System: 9,10-anthracenedione, 1-amino-2-methyl- + carbon dioxide; phases: Fluid (supercritical or subcritical phases)
Fixed: Mole fraction of 9,10-anthracenedione, 1-amino-2-methyl- = 0
Property: Binary diffusion coefficient, m2/s (Fluid (supercritical or subcritical phases)); method: chromatographic impulse response method
Temperature, K	Pressure, kPa	Binary diffusion coefficient, m2/s	uncertainty
308.2	21300	7.89e-09	1.161
308.2	23000	7.398e-09	1.161
308.2	24300	7.104e-09	1.16
308.2	24300	7.351e-09	1.16
308.2	25000	7.224e-09	1.16
308.2	25000	7.028e-09	1.16
308.2	26000	7.088e-09	1.161
308.2	29000	7.062e-09	1.16
308.2	29000	6.871e-09	1.16
308.2	29000	7.344e-09	1.16
308.2	29000	7.079e-09	1.16
308.2	30400	6.631e-09	1.161
308.2	32000	6.44e-09	1.16
308.2	32000	6.55e-09	1.16
308.2	32000	6.344e-09	1.161
313.2	20000	8.804e-09	1.172
313.2	21300	7.725e-09	1.163
313.2	21300	8.861e-09	1.163
313.2	21300	8.19e-09	1.163
313.2	23000	7.58e-09	1.16
313.2	23000	7.464e-09	1.16
313.2	23000	8.131e-09	1.16
313.2	23000	7.555e-09	1.16
313.2	24300	7.766e-09	1.16
313.2	25000	7.598e-09	1.161
313.2	25000	7.827e-09	1.161
313.2	26000	8.008e-09	1.161
313.2	26000	7.758e-09	1.161
313.2	26000	7.927e-09	1.161
313.2	27400	7.272e-09	1.163
313.2	29000	6.881e-09	1.16
313.2	29000	7.299e-09	1.16
313.2	29000	7.611e-09	1.16
313.2	30400	7.037e-09	1.16
313.2	32000	6.873e-09	1.16
313.2	33400	6.66e-09	1.161
313.2	35500	6.352e-09	1.162
313.2	40000	7.737e-09	1.162
318.2	20000	8.77e-09	1.162
318.2	21300	9.208e-09	1.162
318.2	23000	8.141e-09	1.162
318.2	23000	8.912e-09	1.162
318.2	24300	8.288e-09	1.161
318.2	24300	8.827e-09	1.161
318.2	24300	8.383e-09	1.161
318.2	25000	8.272e-09	1.16
318.2	26000	8.099e-09	1.16
318.2	27400	8.315e-09	1.16
318.2	29000	7.979e-09	1.162
318.2	30400	7.455e-09	1.161
318.2	30400	7.871e-09	1.161
318.2	32000	7.616e-09	1.16
318.2	33400	7.694e-09	1.161
328.2	23000	9.565e-09	1.161
328.2	24300	9.889e-09	1.16
328.2	24700	9.529e-09	1.174
328.2	25000	9.265e-09	1.16
328.2	25000	9.65e-09	1.16
328.2	26000	9.483e-09	1.16
328.2	27400	9.264e-09	1.16
328.2	29000	9.191e-09	1.16
328.2	30400	9.299e-09	1.161
328.2	32000	8.937e-09	1.161
328.2	33400	8.598e-09	1.16
328.2	35500	8.693e-09	1.16

System: carbon dioxide + 1,4-bis(methylamino)anthraquinone; phases: Fluid (supercritical or subcritical phases)
Fixed: Mole fraction of 1,4-bis(methylamino)anthraquinone = 0
Property: Binary diffusion coefficient, m2/s (Fluid (supercritical or subcritical phases)); method: chromatographic impulse response method
Temperature, K	Pressure, kPa	Binary diffusion coefficient, m2/s	uncertainty
310	20000	7.557e-09	0.22
310	21000	7.562e-09	0.224
310	24000	6.78e-09	0.227
310	25000	6.806e-09	0.223
310	26000	6.469e-09	0.221
310	26000	6.83e-09	0.221
310	27000	6.659e-09	0.221
310	28000	6.429e-09	0.223
310	28000	6.657e-09	0.223
310	28000	6.604e-09	0.223
310	29000	6.611e-09	0.221
310	30000	6.56e-09	0.22
310	30000	6.339e-09	0.221
310	30000	6.248e-09	0.221
310	30000	6.294e-09	0.221
310	31000	6.555e-09	0.22
310	31000	6.315e-09	0.226
313.2	20000	7.452e-09	0.224
313.2	21000	7.231e-09	0.226
313.2	22000	7.769e-09	0.224
313.2	22000	7.14e-09	0.226
313.2	23000	7.293e-09	0.225
313.2	24000	7.47e-09	0.224
313.2	24000	7.066e-09	0.224
313.2	25000	6.975e-09	0.231
313.2	26000	6.801e-09	0.223
313.2	27000	6.783e-09	0.224
313.2	28000	7.17e-09	0.221
313.2	29000	6.711e-09	0.225
313.2	30000	6.738e-09	0.221
313.2	31000	6.648e-09	0.221
320	22000	8.849e-09	0.287
320	22000	8.725e-09	0.272
320	23000	7.941e-09	0.234
320	24000	8.122e-09	0.221
320	24000	7.857e-09	0.221
320	25000	7.848e-09	0.223
320	26000	7.916e-09	0.222
320	26000	7.901e-09	0.222
320	27000	7.779e-09	0.227
320	28000	7.424e-09	0.221
320	29000	7.687e-09	0.221
320	30000	7.377e-09	0.223
320	31000	7.392e-09	0.221
320	32000	7.335e-09	0.222
320	33000	7.284e-09	0.221
320	34000	7.013e-09	0.229

System: methanol + 1,4-bis(methylamino)anthraquinone; phases: Fluid (supercritical or subcritical phases)
Fixed: Mole fraction of 1,4-bis(methylamino)anthraquinone = 0
Fixed: Pressure, kPa = 101
Property: Binary diffusion coefficient, m2/s (Fluid (supercritical or subcritical phases)); method: Taylor dispersion method
Temperature, K	Binary diffusion coefficient, m2/s	uncertainty
308.2	1.475e-09	0.361
308.2	1.496e-09	0.361
313.2	1.605e-09	0.361
313.2	1.609e-09	0.361
318.2	1.695e-09	0.361
318.2	1.729e-09	0.361
328.2	1.977e-09	0.362
328.2	2.003e-09	0.362

System: ethanol + 1,4-bis(methylamino)anthraquinone; phases: Fluid (supercritical or subcritical phases)
Fixed: Mole fraction of 1,4-bis(methylamino)anthraquinone = 0
Fixed: Pressure, kPa = 1
Property: Binary diffusion coefficient, m2/s (Fluid (supercritical or subcritical phases)); method: Taylor dispersion method
Temperature, K	Binary diffusion coefficient, m2/s	uncertainty
308.2	8.77e-10	0.361
308.2	8.79e-10	0.361
313.2	9.48e-10	0.361
313.2	9.48e-10	0.361
318.2	1.077e-09	0.361
318.2	1.079e-09	0.361
318.2	1.281e-09	0.361
318.2	1.277e-09	0.361

System: methanol + 9,10-anthracenedione, 1-amino-2-methyl-; phases: Fluid (supercritical or subcritical phases)
Fixed: Mole fraction of 9,10-anthracenedione, 1-amino-2-methyl- = 0
Fixed: Pressure, kPa = 101
Property: Binary diffusion coefficient, m2/s (Fluid (supercritical or subcritical phases)); method: Taylor dispersion method
Temperature, K	Binary diffusion coefficient, m2/s	uncertainty
308.2	1.589e-09	0.361
308.2	1.583e-09	0.361
308.2	1.598e-09	0.361
308.2	1.438e-09	0.361
313.2	1.699e-09	0.361
313.2	1.704e-09	0.361
313.2	1.711e-09	0.361
318.2	1.854e-09	0.362
318.2	1.849e-09	0.362
318.2	1.853e-09	0.362
328.2	2.103e-09	0.362
328.2	2.145e-09	0.362
328.2	2.136e-09	0.362
328.2	2.152e-09	0.362
328.2	2.142e-09	0.362
328.2	2.136e-09	0.362

System: ethanol + 9,10-anthracenedione, 1-amino-2-methyl-; phases: Fluid (supercritical or subcritical phases)
Fixed: Mole fraction of 9,10-anthracenedione, 1-amino-2-methyl- = 0
Fixed: Pressure, kPa = 101
Property: Binary diffusion coefficient, m2/s (Fluid (supercritical or subcritical phases)); method: Taylor dispersion method
Temperature, K	Binary diffusion coefficient, m2/s	uncertainty
308.2	9.17e-10	0.361
308.2	9.13e-10	0.361
308.2	9.13e-10	0.361
313.2	1.008e-09	0.361
313.2	1.009e-09	0.361
313.2	1.01e-09	0.361
318.2	1.12e-09	0.361
318.2	1.117e-09	0.361
318.2	1.12e-09	0.361
328.2	1.35e-09	0.361
328.2	1.34e-09	0.361
328.2	1.337e-09	0.361
