Measured thermophysical data. Creating efficient novel aqueous two-phase systems: Salting-out effect and high solubility of salt
Source: Fluid Phase Equilib., 2019, 10.1016/j.fluid.2019.03.002
Compound 1: propan-2-ol, C3H8O, InChI=1S/C3H8O/c1-3(2)4/h3-4H,1-2H3, purity 99.7%
Compound 2: water, H2O, InChI=1S/H2O/h1H2, purity 99.9%
Compound 3: potassium carbonate, CK2O3, InChI=1S/CH2O3.2K/c2-1(3)4;;/h(H2,2,3,4);;/q;2*+1/p-2, purity 99%
Compound 4: dipotassium hydrogen phosphate, HK2O4P, InChI=1S/2K.H3O4P/c;;1-5(2,3)4/h;;(H3,1,2,3,4)/q2*+1;/p-2, purity 99%
Compound 5: tripotassium phosphate, K3O4P, InChI=1S/3K.H3O4P/c;;;1-5(2,3)4/h;;;(H3,1,2,3,4)/q3*+1;/p-3, purity 99%
Compound 6: potassium pyrophosphate, K4O7P2, InChI=1S/4K.H4O7P2/c;;;;1-8(2,3)7-9(4,5)6/h;;;;(H2,1,2,3)(H2,4,5,6)/q4*+1;/p-4, purity 99%

System: propan-2-ol + water + potassium carbonate; phases: Liquid mixture 1, Liquid mixture 2
Fixed: Temperature, K = 298.15
Fixed: Pressure, kPa = 100
Property: Mass fraction of propan-2-ol (Liquid mixture 1); method: Chromatography
Property: Mass fraction of propan-2-ol (Liquid mixture 2); method: Chromatography
Property: Mass fraction of water (Liquid mixture 2); method: Chromatography
Mass fraction of water	Mass fraction of propan-2-ol	uncertainty	Mass fraction of propan-2-ol	uncertainty	Mass fraction of water	uncertainty
0.4622	0.5251	0.0095	0.0824	0.0288	0.758	
0.3787	0.6158	0.0092	0.0411	0.0107	0.7492	
0.3092	0.6887	0.0089	0.0238	0.0068	0.7238	
0.2493	0.7499	0.0087	0.0116	0.0062	0.6936	
0.201	0.7987	0.0086	0.0059	0.0059	0.6568	
0.1576	0.8423	0.0086	0.0032	0.0032	0.6174	
0.1217	0.8782	0.0085	0.0012	0.0012	0.5759	
0.0907	0.9093	0.0085	0.0003	0.0003	0.5328	
0.0662	0.9338	0.0085	0.0001	0.0001	0.4879	

System: propan-2-ol + water + dipotassium hydrogen phosphate; phases: Liquid mixture 1, Liquid mixture 2
Fixed: Temperature, K = 298.15
Fixed: Pressure, kPa = 100
Property: Mass fraction of propan-2-ol (Liquid mixture 1); method: Chromatography
Property: Mass fraction of propan-2-ol (Liquid mixture 2); method: Chromatography
Property: Mass fraction of water (Liquid mixture 2); method: Chromatography
Mass fraction of water	Mass fraction of propan-2-ol	uncertainty	Mass fraction of propan-2-ol	uncertainty	Mass fraction of water	uncertainty
0.5331	0.4501	0.0096	0.0462	0.0088	0.7114	
0.1741	0.8259	0.0086	0.001	0.001	0.522	
0.1353	0.8646	0.0085	0.0003	0.0003	0.4812	
0.1047	0.8953	0.0085	0.0001	0.0001	0.4377	
0.0759	0.9241	0.0085	0		0.3929	
0.4784	0.5119	0.0096	0.0328	0.0076	0.699	
0.4226	0.5719	0.0093	0.022	0.0065	0.6805	
0.3674	0.6298	0.009	0.0141	0.0062	0.6566	
0.315	0.6838	0.0089	0.0083	0.0061	0.628	
0.2641	0.7355	0.0087	0.0046	0.0046	0.596	
0.2229	0.7769	0.0086	0.0021	0.0021	0.5591	

System: propan-2-ol + water + tripotassium phosphate; phases: Liquid mixture 1, Liquid mixture 2
Fixed: Temperature, K = 298.15
Fixed: Pressure, kPa = 100
Property: Mass fraction of propan-2-ol (Liquid mixture 1); method: Chromatography
Property: Mass fraction of propan-2-ol (Liquid mixture 2); method: Chromatography
Property: Mass fraction of water (Liquid mixture 2); method: Chromatography
Mass fraction of water	Mass fraction of propan-2-ol	uncertainty	Mass fraction of propan-2-ol	uncertainty	Mass fraction of water	uncertainty
0.4919	0.4963	0.0096	0.0549	0.0091	0.7562	
0.4234	0.5711	0.0093	0.0329	0.0081	0.7369	
0.3512	0.6462	0.009	0.0187	0.0066	0.7166	
0.2901	0.7086	0.0088	0.0099	0.0061	0.6875	
0.2319	0.7678	0.0087	0.0049	0.0049	0.6543	
0.1841	0.8152	0.0086	0.0022	0.0022	0.6168	
0.145	0.8546	0.0086	0.0008	0.0008	0.5758	
0.1088	0.8909	0.0085	0.0002	0.0002	0.5334	
0.081	0.9187	0.0085	0.0001	0.0001	0.4888	

System: propan-2-ol + water + potassium pyrophosphate; phases: Liquid mixture 1, Liquid mixture 2
Fixed: Temperature, K = 298.15
Fixed: Pressure, kPa = 100
Property: Mass fraction of propan-2-ol (Liquid mixture 1); method: Chromatography
Property: Mass fraction of propan-2-ol (Liquid mixture 2); method: Chromatography
Property: Mass fraction of water (Liquid mixture 2); method: Chromatography
Mass fraction of water	Mass fraction of propan-2-ol	uncertainty	Mass fraction of propan-2-ol	uncertainty	Mass fraction of water	uncertainty
0.5197	0.4681	0.0095	0.0326	0.0071	0.7282	
0.0904	0.9095	0.0085	0.0001	0.0001	0.4857	
0.0627	0.9373	0.0085	0		0.441	
0.4595	0.5341	0.0094	0.0229	0.0066	0.7128	
0.3994	0.5976	0.0091	0.015	0.0063	0.6913	
0.3329	0.6662	0.0089	0.0089	0.0061	0.6687	
0.2751	0.7246	0.0087	0.0047	0.0047	0.6386	
0.2229	0.777	0.0086	0.0023	0.0023	0.6042	
0.1702	0.8298	0.0086	0.0009	0.0009	0.5681	
0.1249	0.8751	0.0085	0.0003	0.0003	0.5285	
