Measured thermophysical data. Experimental determination and theoretical modeling of the vapor liquid  equilibrium and densities of the binary system butan-2-ol + tetrahydro-2H-pyran
Source: Fluid Phase Equilib., 2013, 10.1016/j.fluid.2012.12.021
Compound 1: butan-2-ol, C4H10O, InChI=1S/C4H10O/c1-3-4(2)5/h4-5H,3H2,1-2H3, purity 99.9%
Compound 2: tetrahydropyran, C5H10O, InChI=1S/C5H10O/c1-2-4-6-5-3-1/h1-5H2, purity 99.8%

System: butan-2-ol; phases: Liquid
Property: Refractive index (Na D-line) (Liquid); method: Standard Abbe refractometry
Temperature, K	Pressure, kPa	Refractive index (Na D-line)	uncertainty
298.15	101.325	1.39676	0.00031

System: butan-2-ol; phases: Liquid
Property: Mass density, kg/m3 (Liquid); method: Vibrating tube method
Temperature, K	Pressure, kPa	Mass density, kg/m3	uncertainty
298.15	101.325	802.985	0.112

System: butan-2-ol; phases: Liquid, Gas
Property: Normal boiling temperature, K (Liquid); method: Ebulliometric method (Recirculating still)
Normal boiling temperature, K	uncertainty
372.65	0.2

System: tetrahydropyran; phases: Liquid
Property: Refractive index (Na D-line) (Liquid); method: Standard Abbe refractometry
Temperature, K	Pressure, kPa	Refractive index (Na D-line)	uncertainty
298.15	101.325	1.42	0.00031

System: tetrahydropyran; phases: Liquid
Property: Mass density, kg/m3 (Liquid); method: Vibrating tube method
Temperature, K	Pressure, kPa	Mass density, kg/m3	uncertainty
298.15	101.325	879.03	0.09

System: tetrahydropyran; phases: Liquid, Gas
Property: Normal boiling temperature, K (Liquid); method: Ebulliometric method (Recirculating still)
Normal boiling temperature, K	uncertainty
361.36	0.2

System: butan-2-ol + tetrahydropyran; phases: Liquid, Gas
Property: Boiling temperature at pressure P, K (Liquid); method: Ebulliometric method (Recirculating still)
Mole fraction of butan-2-ol	Pressure, kPa	Boiling temperature at pressure P, K	uncertainty
0	50	339.33	0.12
0.049	50	339.74	0.12
0.096	50	340.09	0.12
0.137	50	340.38	0.12
0.19	50	340.82	0.12
0.237	50	341.31	0.12
0.281	50	341.7	0.12
0.331	50	342.27	0.12
0.378	50	342.62	0.12
0.428	50	343.45	0.12
0.476	50	344.35	0.11
0.522	50	344.73	0.11
0.571	50	345.66	0.11
0.622	50	346.56	0.11
0.672	50	347.41	0.11
0.722	50	348.47	0.11
0.773	50	349.55	0.11
0.826	50	350.67	0.11
0.878	50	351.85	0.11
0.934	50	353.13	0.11
1	50	354.79	0.1
0	94	358.85	0.16
0.049	94	359.08	0.16
0.095	94	359.31	0.15
0.138	94	359.56	0.15
0.189	94	359.89	0.15
0.236	94	360.22	0.15
0.28	94	360.55	0.15
0.331	94	360.93	0.15
0.375	94	361.37	0.15
0.426	94	361.76	0.15
0.474	94	362.27	0.15
0.522	94	362.79	0.14
0.62	94	364.07	0.14
0.67	94	364.74	0.14
0.719	94	365.47	0.13
0.77	94	365.93	0.13
0.822	94	367.1	0.14
0.876	94	368.14	0.14
0.931	94	369.22	0.14
1	94	370.63	0.13
0	75	351.53	0.15
0.049	75	351.88	0.15
0.096	75	352.16	0.15
0.137	75	352.46	0.15
0.189	75	352.79	0.15
0.236	75	353.18	0.15
0.28	75	353.53	0.15
0.33	75	354.02	0.15
0.376	75	354.54	0.15
0.427	75	355.07	0.14
0.475	75	355.4	0.14
0.522	75	356.27	0.14
0.57	75	356.94	0.15
0.622	75	357.63	0.14
0.67	75	358.24	0.14
0.72	75	359.2	0.14
0.771	75	360.12	0.13
0.823	75	360.96	0.13
0.877	75	361.91	0.13
0.932	75	363.16	0.13
1	75	364.72	0.12

System: butan-2-ol + tetrahydropyran; phases: Gas, Liquid
Property: Mole fraction of butan-2-ol (Gas); method: Chromatography
Mole fraction of butan-2-ol	Pressure, kPa	Mole fraction of butan-2-ol	uncertainty
0	50	0	
0.049	50	0.031	0.002
0.096	50	0.062	0.002
0.137	50	0.087	0.003
0.19	50	0.12	0.003
0.237	50	0.151	0.003
0.281	50	0.178	0.003
0.331	50	0.213	0.003
0.378	50	0.244	0.003
0.428	50	0.28	0.004
0.476	50	0.323	0.004
0.522	50	0.36	0.004
0.571	50	0.404	0.004
0.622	50	0.453	0.005
0.672	50	0.505	0.005
0.722	50	0.567	0.005
0.773	50	0.631	0.005
0.826	50	0.704	0.004
0.878	50	0.785	0.004
0.934	50	0.877	0.004
1	50	1	
0	94	0	
0.049	94	0.038	0.003
0.095	94	0.073	0.003
0.138	94	0.105	0.003
0.189	94	0.143	0.003
0.236	94	0.178	0.003
0.28	94	0.211	0.003
0.331	94	0.251	0.003
0.375	94	0.287	0.004
0.426	94	0.328	0.004
0.474	94	0.369	0.004
0.522	94	0.411	0.005
0.62	94	0.509	0.005
0.67	94	0.557	0.005
0.719	94	0.615	0.005
0.77	94	0.677	0.004
0.822	94	0.742	0.004
0.876	94	0.815	0.004
0.931	94	0.895	0.004
1	94	1	
0	75	0	
0.049	75	0.035	0.003
0.096	75	0.069	0.003
0.137	75	0.098	0.003
0.189	75	0.134	0.003
0.236	75	0.168	0.003
0.28	75	0.198	0.003
0.33	75	0.235	0.003
0.376	75	0.27	0.003
0.427	75	0.31	0.004
0.475	75	0.348	0.004
0.522	75	0.392	0.004
0.57	75	0.438	0.005
0.622	75	0.486	0.005
0.67	75	0.538	0.005
0.72	75	0.597	0.005
0.771	75	0.661	0.004
0.823	75	0.728	0.004
0.877	75	0.804	0.004
0.932	75	0.89	0.004
1	75	1	

System: butan-2-ol + tetrahydropyran; phases: Liquid
Fixed: Pressure, kPa = 101.3
Fixed: Temperature, K = 298.15
Property: Mass density, kg/m3 (Liquid); method: Vibrating tube method
Mole fraction of butan-2-ol	Mass density, kg/m3	uncertainty
0	878.98	0.09
0.046	874.93	0.19
0.101	870.44	0.19
0.128	868.26	0.18
0.182	863.9	0.18
0.24	859.4	0.18
0.292	855.35	0.18
0.342	851.49	0.18
0.393	847.52	0.18
0.438	844.13	0.18
0.486	840.45	0.18
0.535	836.77	0.18
0.588	832.76	0.18
0.638	829.04	0.18
0.694	824.93	0.18
0.738	821.63	0.18
0.79	817.88	0.18
0.844	814	0.18
0.888	810.86	0.18
0.96	805.67	0.18
1	802.51	0.11
