Measured thermophysical data. Phase equilibrium data for the hydrogen sulphide + methane system at temperatures from 186 to 313 K and pressures up to about 14 MPa
Source: Fluid Phase Equilib., 2014, 10.1016/j.fluid.2014.09.025
Compound 1: methane, CH4, InChI=1S/CH4/h1H4
Compound 2: hydrogen sulfide, H2S, InChI=1S/H2S/h1H2

System: methane + hydrogen sulfide; phases: Liquid mixture 1, Liquid mixture 2
Property: Mole fraction of methane (Liquid mixture 1); method: Chromatography
Temperature, K	Pressure, kPa	Mole fraction of methane	uncertainty
186.25	4970	0.092	0.02
186.25	6089	0.093	0.02
186.25	7407	0.094	0.02
186.25	8787	0.095	0.02
186.25	10364	0.097	0.02
203.4	6737	0.13	0.02
203.4	7915	0.135	0.02
203.4	8964	0.138	0.02
203.4	9859	0.139	0.02
203.4	10791	0.142	0.02

System: methane + hydrogen sulfide; phases: Liquid mixture 2, Liquid mixture 1
Property: Mole fraction of methane (Liquid mixture 2); method: Chromatography
Temperature, K	Pressure, kPa	Mole fraction of methane	uncertainty
186.25	4970	0.918	0.02
186.25	6089	0.913	0.02
186.25	7407	0.912	0.02
186.25	8787	0.908	0.02
186.25	10364	0.903	0.02
203.4	6737	0.88	0.02
203.4	7915	0.871	0.02
203.4	8964	0.862	0.02
203.4	9859	0.857	0.02
203.4	10791	0.852	0.02

System: methane + hydrogen sulfide; phases: Liquid, Gas
Property: Vapor or sublimation pressure, kPa (Liquid); method: Closed cell (Static) method
Mole fraction of methane	Temperature, K	Vapor or sublimation pressure, kPa	uncertainty
0.017	186.25	885	635
0.045	186.25	1931	778
0.07	186.25	2948	792
0.089	186.25	3671	761
0	203.4	43	5
0.009	203.4	510	469
0.019	203.4	1017	857
0.05	203.4	2402	893
0.069	203.4	3222	847
0.035	203.4	1718	887
0.085	203.4	3884	818
0.103	203.4	4611	812
0.112	203.4	4994	849
0.121	203.4	5444	2160
0.123	203.4	5660	1930
0.125	203.4	5830	1700
0	223.17	172	5
0.005	223.17	442	140
0.006	223.17	470	282
0.008	223.17	579	454
0.011	223.17	753	464
0.027	223.17	1517	361
0.051	223.17	2562	343
0.144	223.17	6538	349
0.191	223.17	8561	297
0.19	223.17	8598	297
0.08	273.54	5297	315
0.153	273.54	8168	235
0.312	273.54	12463	169
0.347	273.54	13182	170
0.014	313.08	3714	416
0.029	313.08	4494	427
0.041	313.08	5156	412
0.054	313.08	5782	386
0.072	313.08	6649	359
0.092	313.08	7485	338
0.116	313.08	8503	307
0.144	313.08	9478	280
0.258	313.08	12393	208
0.014	313.08	3714	416
0.029	313.08	4494	427

System: methane + hydrogen sulfide; phases: Gas, Liquid
Property: Mole fraction of methane (Gas); method: Chromatography
Mole fraction of methane	Temperature, K	Mole fraction of methane	uncertainty
0.017	186.25	0.97	0.021
0.045	186.25	0.982	0.018
0.07	186.25	0.984	0.016
0.089	186.25	0.983	0.017
0	203.4	0	
0.009	203.4	0.858	0.142
0.019	203.4	0.923	0.073
0.05	203.4	0.953	0.022
0.069	203.4	0.961	0.02
0.035	203.4	0.947	0.027
0.085	203.4	0.96	0.02
0.103	203.4	0.96	0.024
0.112	203.4	0.956	0.032
0.121	203.4	0.949	0.051
0.123	203.4	0.932	0.068
0.125	203.4	0.903	0.097
0	223.17	0	
0.005	223.17	0.59	0.145
0.006	223.17	0.619	0.14
0.008	223.17	0.661	0.199
0.011	223.17	0.742	0.216
0.027	223.17	0.862	0.032
0.051	223.17	0.902	0.009
0.144	223.17	0.923	0.008
0.191	223.17	0.861	0.049
0.19	223.17	0.855	0.049
0.08	273.54	0.704	0.009
0.312	273.54	0.665	0.009
0.014	313.08	0.169	0.056
0.029	313.08	0.273	0.05
0.041	313.08	0.335	0.035
0.054	313.08	0.378	0.024
0.072	313.08	0.421	0.019
0.092	313.08	0.456	0.013
0.116	313.08	0.475	0.011
0.144	313.08	0.491	0.01
0.258	313.08	0.457	0.009
0.014	313.08	0.169	0.056
0.029	313.08	0.273	0.05
