Measured thermophysical data. Prediction and measurement of phase equilibria for the extraction of BTX from naphtha reformate using BMIMPF6 ionic liquid
Source: Fluid Phase Equilib., 2014, 10.1016/j.fluid.2013.11.034
Compound 1: hexane, C6H14, InChI=1S/C6H14/c1-3-5-6-4-2/h3-6H2,1-2H3, purity 99%
Compound 2: octane, C8H18, InChI=1S/C8H18/c1-3-5-7-8-6-4-2/h3-8H2,1-2H3, purity 99%
Compound 3: toluene, C7H8, InChI=1S/C7H8/c1-7-5-3-2-4-6-7/h2-6H,1H3, purity 99.8%
Compound 4: 1,2-dimethylbenzene, C8H10, InChI=1S/C8H10/c1-7-5-3-4-6-8(7)2/h3-6H,1-2H3, purity 99%
Compound 5: heptane, C7H16, InChI=1S/C7H16/c1-3-5-7-6-4-2/h3-7H2,1-2H3, purity 99.5%
Compound 6: benzene, C6H6, InChI=1S/C6H6/c1-2-4-6-5-3-1/h1-6H, purity 99%
Compound 7: 1-butyl-3-methylimidazolium hexafluorophosphate, C8H15F6N2P, InChI=1S/C8H15N2.F6P/c1-3-4-5-10-7-6-9(2)8-10;1-7(2,3,4,5)6/h6-8H,3-5H2,1-2H3;/q+1;-1, purity 94.1%

System: 1-butyl-3-methylimidazolium hexafluorophosphate; phases: Liquid
Property: Refractive index (Na D-line) (Liquid); method: Standard Abbe refractometry
Temperature, K	Pressure, kPa	Refractive index (Na D-line)	uncertainty
298.15	101.325	1.40926	0.0006

System: 1-butyl-3-methylimidazolium hexafluorophosphate; phases: Liquid
Fixed: Pressure, kPa = 101.325
Property: Mass density, kg/m3 (Liquid); method: Vibrating tube method
Temperature, K	Mass density, kg/m3	uncertainty
293.15	1371.4	1.2
298.15	1367.23	1.15

System: benzene + hexane + 1-butyl-3-methylimidazolium hexafluorophosphate; phases: Liquid mixture 1, Liquid mixture 2
Fixed: Temperature, K = 298.15
Fixed: Pressure, kPa = 101
Property: Mole fraction of hexane (Liquid mixture 1); method: proton NMR
Property: Mole fraction of benzene (Liquid mixture 2); method: proton NMR
Property: Mole fraction of hexane (Liquid mixture 2); method: proton NMR
Mole fraction of benzene	Mole fraction of hexane	uncertainty	Mole fraction of benzene	uncertainty	Mole fraction of hexane	uncertainty
0.0178	0.006	0.006	0.0811	0.004	0.9189	
0.0397	0.0075	0.006	0.1658	0.0058	0.8342	
0.0628	0.0089	0.006	0.2512	0.0059	0.7488	
0.0856	0.0097	0.006	0.3381	0.0061	0.6619	
0.1112	0.0099	0.006	0.4271	0.0064	0.5729	
0.1387	0.0102	0.006	0.5213	0.0066	0.4787	
0.1713	0.0105	0.006	0.6236	0.0063	0.3764	
0.2085	0.0109	0.006	0.7298	0.006	0.2702	
0.2513	0.0111	0.006	0.8511	0.0041	0.1489	

System: toluene + heptane + 1-butyl-3-methylimidazolium hexafluorophosphate; phases: Liquid mixture 1, Liquid mixture 2
Fixed: Temperature, K = 298.15
Fixed: Pressure, kPa = 101
Property: Mole fraction of heptane (Liquid mixture 1); method: proton NMR
Property: Mole fraction of toluene (Liquid mixture 2); method: proton NMR
Property: Mole fraction of heptane (Liquid mixture 2); method: proton NMR
Mole fraction of toluene	Mole fraction of heptane	uncertainty	Mole fraction of toluene	uncertainty	Mole fraction of heptane	uncertainty
0.0118	0.0043	0.0043	0.0887	0.004	0.9113	
0.0276	0.0059	0.0059	0.1766	0.0058	0.8234	
0.0442	0.0071	0.006	0.2692	0.006	0.7308	
0.0634	0.0083	0.006	0.3576	0.0062	0.6424	
0.0831	0.0089	0.006	0.4479	0.0065	0.5521	
0.1054	0.0093	0.006	0.5425	0.0065	0.4575	
0.1295	0.0097	0.006	0.6477	0.0062	0.3523	
0.1614	0.0098	0.006	0.753	0.006	0.247	
0.1972	0.0105	0.006	0.8648	0.0041	0.1352	

System: 1,2-dimethylbenzene + octane + 1-butyl-3-methylimidazolium hexafluorophosphate; phases: Liquid mixture 1, Liquid mixture 2
Fixed: Temperature, K = 298.15
Fixed: Pressure, kPa = 101
Property: Mole fraction of octane (Liquid mixture 1); method: proton NMR
Property: Mole fraction of 1,2-dimethylbenzene (Liquid mixture 2); method: proton NMR
Property: Mole fraction of octane (Liquid mixture 2); method: proton NMR
Mole fraction of 1,2-dimethylbenzene	Mole fraction of octane	uncertainty	Mole fraction of 1,2-dimethylbenzene	uncertainty	Mole fraction of octane	uncertainty
0.0057	0.0025	0.0025	0.0996	0.0041	0.9004	
0.0136	0.0041	0.0041	0.1897	0.0058	0.8103	
0.0212	0.0055	0.0055	0.2874	0.006	0.7126	
0.0306	0.0073	0.0061	0.3797	0.0063	0.6203	
0.0384	0.0079	0.006	0.4758	0.0066	0.5242	
0.0472	0.0084	0.006	0.5772	0.0064	0.4228	
0.0604	0.0086	0.006	0.6799	0.0061	0.3201	
0.079	0.0088	0.006	0.7815	0.0059	0.2185	
0.0921	0.0089	0.006	0.8871	0.0041	0.1129	
