Measured thermophysical data. Thermal conductivity of polyurethane foam cell gases: Improved transient hot wire cell  data of isopentane + n-pentane mixtures  Extended Wassiljewa-model
Source: Fluid Phase Equilib., 2007, 10.1016/j.fluid.2007.07.059
Compound 1: pentane, C5H12, InChI=1S/C5H12/c1-3-5-4-2/h3-5H2,1-2H3, purity 99%
Compound 2: 2-methylbutane, C5H12, InChI=1S/C5H12/c1-4-5(2)3/h5H,4H2,1-3H3, purity 99%

System: pentane; phases: Gas
Property: Thermal conductivity, W/m/K (Gas); method: Hot wire method
Temperature, K	Pressure, kPa	Thermal conductivity, W/m/K	uncertainty
342.97	100	0.01889	0.00038
366.02	100	0.02169	0.00043
380.86	100	0.02371	0.00046
407.37	100	0.02719	0.00051
342.97	200	0.01895	0.00038
366.02	200	0.02176	0.00043
380.86	200	0.02378	0.00046
407.37	200	0.02728	0.00051
342.97	500	0.01915	0.00039
366.02	500	0.02198	0.00043
380.86	500	0.02398	0.00046
407.37	500	0.02754	0.00051

System: 2-methylbutane; phases: Gas
Property: Thermal conductivity, W/m/K (Gas); method: Hot wire method
Temperature, K	Pressure, kPa	Thermal conductivity, W/m/K	uncertainty
342.97	100	0.01954	0.00039
352.61	100	0.02064	0.00041
375	100	0.02347	0.00045
390.75	100	0.02574	0.00049
342.97	200	0.0196	0.00039
352.61	200	0.02071	0.00041
375	200	0.02356	0.00045
390.75	200	0.0258	0.00049
342.97	500	0.01976	0.0004
352.61	500	0.02093	0.00042
375	500	0.02385	0.00046
390.75	500	0.026	0.00049

System: 2-methylbutane + pentane; phases: Gas
Property: Thermal conductivity, W/m/K (Gas); method: Hot wire method
Pressure, kPa	Temperature, K	Mole fraction of 2-methylbutane	Thermal conductivity, W/m/K	uncertainty
100	346.28	0.3293	0.01932	0.00039
100	361.52	0.3293	0.02107	0.00042
100	378.57	0.3293	0.02344	0.00045
100	395.51	0.3293	0.02569	0.00049
200	346.28	0.3293	0.01941	0.00039
200	361.52	0.3293	0.02119	0.00042
200	378.57	0.3293	0.02346	0.00045
200	395.51	0.3293	0.02572	0.00049
500	346.28	0.3293	0.0197	0.0004
500	361.52	0.3293	0.02156	0.00042
500	378.57	0.3293	0.02351	0.00045
500	395.51	0.3293	0.02578	0.00049
100	345.26	0.6232	0.01956	0.00039
100	362.43	0.6232	0.02163	0.00042
100	378.03	0.6232	0.02381	0.00046
100	394.05	0.6232	0.02586	0.00049
200	345.26	0.6232	0.01963	0.00039
200	362.43	0.6232	0.02169	0.00043
200	378.03	0.6232	0.02382	0.00046
200	394.05	0.6232	0.02591	0.00049
500	345.26	0.6232	0.01984	0.0004
500	362.43	0.6232	0.02187	0.00043
500	378.03	0.6232	0.02387	0.00046
500	394.05	0.6232	0.02605	0.00049
100	345.54	0.1695	0.01924	0.00039
100	362.08	0.1695	0.02122	0.00042
100	378.23	0.1695	0.02312	0.00045
100	394.45	0.1695	0.02554	0.00048
200	345.54	0.1695	0.01936	0.00039
200	362.08	0.1695	0.02131	0.00042
200	378.23	0.1695	0.02327	0.00045
200	394.45	0.1695	0.02558	0.00048
500	345.54	0.1695	0.01973	0.0004
500	362.08	0.1695	0.02155	0.00042
500	378.23	0.1695	0.02372	0.00046
500	394.45	0.1695	0.02571	0.00049
