Measured thermophysical data. Experimental and theoretical study on liquid liquid equilibrium of 1-butanol + water + NH4Cl at 298.15, 308.15 and 318.15 K
Source: Fluid Phase Equilib., 2012, 10.1016/j.fluid.2012.03.026
Compound 1: butan-1-ol, C4H10O, InChI=1S/C4H10O/c1-2-3-4-5/h5H,2-4H2,1H3, purity 99%
Compound 2: ammonium chloride (NH4Cl), ClH4N, InChI=1S/ClH.H3N/h1H;1H3, purity 99.8%
Compound 3: water, H2O, InChI=1S/H2O/h1H2, purity 99.8%

System: butan-1-ol + water + ammonium chloride (NH4Cl); phases: Liquid mixture 2, Liquid mixture 1
Fixed: Pressure, kPa = 101.3
Property: Mass fraction of butan-1-ol (Liquid mixture 2); method: Chromatography
Property: Mass fraction of butan-1-ol (Liquid mixture 1); method: Chromatography
Property: Mass fraction of water (Liquid mixture 1); method: Chromatography
Temperature, K	Mass fraction of water	Mass fraction of butan-1-ol	uncertainty	Mass fraction of butan-1-ol	uncertainty	Mass fraction of water	uncertainty
298.15	0.2068	0.7932	0.0057	0.0703	0.0043	0.9297	
298.15	0.1787	0.8197	0.0058	0.0595	0.0043	0.8979	
298.15	0.1526	0.8466	0.0057	0.0504	0.0044	0.8764	
298.15	0.1431	0.8546	0.0056	0.0476	0.004	0.8475	
298.15	0.1331	0.8647	0.0054	0.0388	0.004	0.8485	
298.15	0.1178	0.8771	0.0054	0.0376	0.0042	0.7747	
298.15	0.1121	0.8832	0.0055	0.0346	0.0041	0.7654	
298.15	0.0934	0.8996	0.0054	0.0308	0.0041	0.7477	
308.15	0.2152	0.7848	0.0056	0.0603	0.0045	0.9397	
308.15	0.2139	0.7853	0.0057	0.0518	0.0041	0.9147	
308.15	0.1651	0.8306	0.0067	0.0452	0.0041	0.8637	
308.15	0.1565	0.8418	0.0058	0.0398	0.0041	0.8388	
308.15	0.1474	0.8485	0.0051	0.0364	0.004	0.8105	
308.15	0.1448	0.8496	0.0051	0.0356	0.004	0.772	
308.15	0.1365	0.8561	0.0053	0.0335	0.004	0.7621	
308.15	0.1301	0.8613	0.0056	0.032	0.004	0.7419	
308.15	0.1269	0.8675	0.0063	0.0301	0.004	0.7254	
318.15	0.2277	0.7723	0.0055	0.0605	0.0041	0.9395	
318.15	0.2113	0.7864	0.0057	0.0513	0.0041	0.8951	
318.15	0.1875	0.8096	0.0054	0.0492	0.004	0.8718	
318.15	0.162	0.8284	0.0054	0.0435	0.0058	0.8147	
318.15	0.1555	0.8383	0.0062	0.0377	0.0058	0.8091	
318.15	0.1434	0.8501	0.0056	0.0344	0.0041	0.7846	
318.15	0.1386	0.854	0.005	0.0303	0.004	0.7584	
318.15	0.1311	0.8598	0.0052	0.0295	0.004	0.7312	
318.15	0.1285	0.8623	0.0053	0.0256	0.0041	0.7167	
