Measured thermophysical data. Thermodynamic of LiF dissolution in alkylcarbonates and some of their mixtures with water
Source: Fluid Phase Equilib., 2009, 10.1016/j.fluid.2009.07.020
Compound 1: lithium fluoride, FLi, InChI=1S/FH.Li/h1H;/q;+1/p-1, purity 99%
Compound 2: 4-methyl-1,3-dioxolan-2-one, C4H6O3, InChI=1S/C4H6O3/c1-3-2-6-4(5)7-3/h3H,2H2,1H3, purity 99%
Compound 3: ethylene carbonate, C3H4O3, InChI=1S/C3H4O3/c4-3-5-1-2-6-3/h1-2H2, purity 99%
Compound 4: dimethyl carbonate, C3H6O3, InChI=1S/C3H6O3/c1-5-3(4)6-2/h1-2H3, purity 99%
Compound 5: water, H2O, InChI=1S/H2O/h1H2, purity 99.9%

System: dimethyl carbonate + lithium fluoride; phases: Liquid mixture 1, Crystal
Property: Mass concentration, kg/m3 (Liquid mixture 1); method: Atomic absorption
Temperature, K	Pressure, kPa	Mass concentration, kg/m3	uncertainty
298.15	101	0.57	0.02

System: 4-methyl-1,3-dioxolan-2-one + lithium fluoride; phases: Liquid mixture 1, Crystal
Fixed: Pressure, kPa = 101
Property: Mass concentration, kg/m3 (Liquid mixture 1); method: Atomic absorption
Temperature, K	Mass concentration, kg/m3	uncertainty
293.15	0.13	0.02
298.15	0.14	0.02
303.15	0.16	0.02
313.15	0.21	0.02

System: 4-methyl-1,3-dioxolan-2-one + lithium fluoride; phases: Liquid, Crystal
Property: Molar enthalpy of solution, kJ/mol (Liquid); method: Atomic Absorption
Temperature, K	Pressure, kPa	Molar enthalpy of solution, kJ/mol	uncertainty
313.15	101	18.4	3.7

System: ethylene carbonate + lithium fluoride; phases: Liquid mixture 1, Crystal
Fixed: Pressure, kPa = 101
Property: Mass concentration, kg/m3 (Liquid mixture 1); method: Atomic absorption
Temperature, K	Mass concentration, kg/m3	uncertainty
313.15	5.52	0.06
318.15	6.94	0.07
323.15	9.04	0.08
333.15	12.9	0.08

System: ethylene carbonate + lithium fluoride; phases: Liquid, Crystal
Property: Molar enthalpy of solution, kJ/mol (Liquid); method: Atomic Absorption
Temperature, K	Pressure, kPa	Molar enthalpy of solution, kJ/mol	uncertainty
313.15	101	36.8	7.4

System: water + lithium fluoride; phases: Liquid mixture 1, Crystal
Fixed: Pressure, kPa = 101
Property: Mass concentration, kg/m3 (Liquid mixture 1); method: Atomic absorption
Temperature, K	Mass concentration, kg/m3	uncertainty
293.15	1070	10
298.15	1110	10
303.15	1140	10
313.15	1200	10

System: water + lithium fluoride; phases: Liquid, Crystal 1
Property: Mass concentration, kg/m3 (Liquid); method: Tomic absorption
Temperature, K	Pressure, kPa	Mass concentration, kg/m3	uncertainty
293.15	101	1070	60

System: water + lithium fluoride; phases: Liquid mixture 1, Crystal
Property: Electrical conductivity, S/m (Liquid mixture 1); method: Alternating current cell with electrodes
Temperature, K	Pressure, kPa	Electrical conductivity, S/m	uncertainty
293.15	101	0.14	0.02

System: water + lithium fluoride; phases: Liquid, Crystal
Property: Molar enthalpy of solution, kJ/mol (Liquid); method: Atomic Absorption
Temperature, K	Pressure, kPa	Molar enthalpy of solution, kJ/mol	uncertainty
313.15	101	4.4	0.9

System: water + lithium fluoride; phases: Liquid, Crystal
Fixed: Pressure, kPa = 101
Property: Amount concentration (molarity), mol/dm3 (Liquid); method: SPECTR
Temperature, K	Amount concentration (molarity), mol/dm3	uncertainty
293.15	0.041	0.001
298.15	0.042	0.001
303.15	0.044	0.001
308.15	0.045	0.001
313.15	0.046	0.001
318.15	0.047	0.001
323.15	0.049	0.001

System: 4-methyl-1,3-dioxolan-2-one + water + lithium fluoride; phases: Liquid, Crystal 1
Fixed: Temperature, K = 293.15
Fixed: Pressure, kPa = 101
Property: Mass concentration, kg/m3 of lithium fluoride (Liquid); method: Tomic absorption
Solvent: Volume fraction of 4-methyl-1,3-dioxolan-2-one	Mass concentration, kg/m3 of lithium fluoride	uncertainty
0.1	810	60
0.2	570	60

System: 4-methyl-1,3-dioxolan-2-one + water + lithium fluoride; phases: Liquid mixture 1, Crystal
Fixed: Temperature, K = 293.15
Fixed: Pressure, kPa = 101
Property: Electrical conductivity, S/m (Liquid mixture 1); method: Alternating current cell with electrodes
Solvent: Volume fraction of 4-methyl-1,3-dioxolan-2-one	Electrical conductivity, S/m	uncertainty
0.1	0.1	0.02
0.2	0.09	0.02

System: 4-methyl-1,3-dioxolan-2-one + water + lithium fluoride; phases: Liquid, Crystal
Fixed: Pressure, kPa = 101
Property: Amount concentration (molarity), mol/dm3 of lithium fluoride (Liquid); method: SPECTR
Temperature, K	Solvent: Volume fraction of 4-methyl-1,3-dioxolan-2-one	Amount concentration (molarity), mol/dm3 of lithium fluoride	uncertainty
293.15	0.1	0.031	0.001
293.15	0.2	0.022	0.001
298.15	0.1	0.032	0.001
298.15	0.2	0.023	0.001
303.15	0.1	0.033	0.001
303.15	0.2	0.024	0.001
308.15	0.1	0.034	0.001
308.15	0.2	0.026	0.001
313.15	0.1	0.035	0.001
313.15	0.2	0.027	0.001
318.15	0.1	0.037	0.001
318.15	0.2	0.028	0.001
323.15	0.1	0.038	0.001
323.15	0.2	0.029	0.001

System: ethylene carbonate + water + lithium fluoride; phases: Liquid, Crystal 1
Fixed: Temperature, K = 293.15
Fixed: Pressure, kPa = 101
Property: Mass concentration, kg/m3 of lithium fluoride (Liquid); method: Tomic absorption
Solvent: Volume fraction of ethylene carbonate	Mass concentration, kg/m3 of lithium fluoride	uncertainty
0.1	560	60
0.15	580	60

System: ethylene carbonate + water + lithium fluoride; phases: Liquid mixture 1, Crystal
Fixed: Temperature, K = 293.15
Fixed: Pressure, kPa = 101
Property: Electrical conductivity, S/m (Liquid mixture 1); method: Alternating current cell with electrodes
Solvent: Volume fraction of ethylene carbonate	Electrical conductivity, S/m	uncertainty
0.1	0.13	0.02
0.15	0.1	0.02

System: ethylene carbonate + water + lithium fluoride; phases: Liquid, Crystal
Fixed: Pressure, kPa = 101
Property: Amount concentration (molarity), mol/dm3 of lithium fluoride (Liquid); method: SPECTR
Temperature, K	Solvent: Volume fraction of ethylene carbonate	Amount concentration (molarity), mol/dm3 of lithium fluoride	uncertainty
293.15	0.1	0.021	0.001
293.15	0.15	0.022	0.001
298.15	0.1	0.022	0.001
298.15	0.15	0.023	0.001
303.15	0.1	0.023	0.001
303.15	0.15	0.024	0.001
308.15	0.1	0.024	0.001
308.15	0.15	0.027	0.001
313.15	0.1	0.025	0.001
313.15	0.15	0.028	0.001
318.15	0.1	0.026	0.001
318.15	0.15	0.029	0.001
323.15	0.1	0.027	0.001
323.15	0.15	0.031	0.001

System: dimethyl carbonate + water + lithium fluoride; phases: Liquid, Crystal 1
Fixed: Temperature, K = 293.15
Fixed: Pressure, kPa = 101
Property: Mass concentration, kg/m3 of lithium fluoride (Liquid); method: Tomic absorption
Solvent: Volume fraction of dimethyl carbonate	Mass concentration, kg/m3 of lithium fluoride	uncertainty
0.1	760	60
0.15	700	60

System: dimethyl carbonate + water + lithium fluoride; phases: Liquid mixture 1, Crystal
Fixed: Temperature, K = 293.15
Fixed: Pressure, kPa = 101
Property: Electrical conductivity, S/m (Liquid mixture 1); method: Alternating current cell with electrodes
Solvent: Volume fraction of dimethyl carbonate	Electrical conductivity, S/m	uncertainty
0.1	0.09	0.02
0.15	0.07	0.02

System: dimethyl carbonate + water + lithium fluoride; phases: Liquid, Crystal
Fixed: Pressure, kPa = 101
Property: Amount concentration (molarity), mol/dm3 of lithium fluoride (Liquid); method: SPECTR
Temperature, K	Solvent: Volume fraction of dimethyl carbonate	Amount concentration (molarity), mol/dm3 of lithium fluoride	uncertainty
293.15	0.1	2.9	0.1
293.15	0.15	2.7	0.1
298.15	0.1	3	0.1
298.15	0.15	2.9	0.1
303.15	0.1	3.2	0.1
303.15	0.15	3	0.1
308.15	0.1	3.3	0.1
308.15	0.15	3.2	0.1
313.15	0.1	3.5	0.1
313.15	0.15	3.4	0.1
318.15	0.1	3.6	0.1
318.15	0.15	3.6	0.1
323.15	0.1	3.8	0.1
323.15	0.15	3.7	0.1
