Measured thermophysical data. Solubilities and partial molar volumes of 1-methypropanedioate derivatives in  supercritical carbon dioxide
Source: Fluid Phase Equilib., 2012, 10.1016/j.fluid.2012.07.026
Compound 1: carbon dioxide, CO2, InChI=1S/CO2/c2-1-3
Compound 2: methyl pentyl malonate, C9H16O4, InChI=1S/C9H16O4/c1-3-4-5-6-13-9(11)7-8(10)12-2/h3-7H2,1-2H3
Compound 3: methyl hexyl malonate, C10H18O4, InChI=1S/C10H18O4/c1-3-4-5-6-7-14-10(12)8-9(11)13-2/h3-8H2,1-2H3
Compound 4: heptyl methyl malonate, C11H20O4, InChI=1S/C11H20O4/c1-3-4-5-6-7-8-15-11(13)9-10(12)14-2/h3-9H2,1-2H3
Compound 5: methyl octyl malonate, C12H22O4, InChI=1S/C12H22O4/c1-3-4-5-6-7-8-9-16-12(14)10-11(13)15-2/h3-10H2,1-2H3
Compound 6: methyl nonyl malonate, C13H24O4, InChI=1S/C13H24O4/c1-3-4-5-6-7-8-9-10-17-13(15)11-12(14)16-2/h3-11H2,1-2H3

System: carbon dioxide + methyl pentyl malonate; phases: Fluid (supercritical or subcritical phases), Liquid
Property: Mole fraction of methyl pentyl malonate (Fluid (supercritical or subcritical phases)); method: Titration method
Temperature, K	Pressure, kPa	Mole fraction of methyl pentyl malonate	uncertainty
323	9300	0.0001634	8.79e-05
323	9700	0.0003378	0.0001405
323	9900	0.0004987	0.000116
323	10000	0.0006592	0.0002181
323	10100	0.0008096	0.0002411
333	10000	0.0001754	6.29e-05
333	10600	0.0003603	7.98e-05
333	10900	0.0005315	0.0001433
333	11100	0.0006954	0.0001408
333	11300	0.0008456	0.0001654
343	10700	0.0001822	5.72e-05
343	11400	0.0003781	6.54e-05
343	11900	0.0005478	8.89e-05
343	12200	0.0007125	4.28e-05
343	12500	0.000862	0.0001129

System: carbon dioxide + methyl hexyl malonate; phases: Fluid (supercritical or subcritical phases), Liquid
Property: Mole fraction of methyl hexyl malonate (Fluid (supercritical or subcritical phases)); method: Titration method
Temperature, K	Pressure, kPa	Mole fraction of methyl hexyl malonate	uncertainty
323	9500	0.0001405	0.0001405
323	9700	0.0003083	0.0001969
323	9900	0.0004552	0.0001601
323	10000	0.0006017	0.0001993
323	10100	0.000739	0.0002203
333	10200	0.0001534	8.91e-05
333	10600	0.0003289	9.67e-05
333	10900	0.0004852	0.0001203
333	11000	0.000648	0.0001645
333	11200	0.0007877	0.0002073
343	11000	0.0001581	5.98e-05
343	11600	0.000334	7.7e-05
343	11900	0.0005	3.69e-05
343	12200	0.0006503	0.0001083
343	12400	0.0007988	0.0001295

System: carbon dioxide + heptyl methyl malonate; phases: Fluid (supercritical or subcritical phases), Liquid
Property: Mole fraction of heptyl methyl malonate (Fluid (supercritical or subcritical phases)); method: Titration method
Temperature, K	Pressure, kPa	Mole fraction of heptyl methyl malonate	uncertainty
323	9600	0.0001247	9.43e-05
323	9900	0.000265	1.87e-05
323	10100	0.0003915	0.0001245
323	10200	0.0005178	0.000172
323	10400	0.0006183	0.0001562
333	10600	0.000129	5.84e-05
333	11100	0.000271	6.91e-05
333	11400	0.0004008	0.0001095
333	11600	0.0005255	0.0001069
333	11800	0.000641	0.0001263
343	11600	0.000131	6.15e-05
343	12100	0.0002821	6.62e-05
343	12500	0.0004168	2.56e-05
343	12900	0.000536	7.45e-05
343	13200	0.0006512	8.68e-05

System: carbon dioxide + methyl octyl malonate; phases: Fluid (supercritical or subcritical phases), Liquid
Property: Mole fraction of methyl octyl malonate (Fluid (supercritical or subcritical phases)); method: Titration method
Temperature, K	Pressure, kPa	Mole fraction of methyl octyl malonate	uncertainty
323	9800	0.0002161	0.0001635
323	10100	0.0004594	3.29e-05
323	10300	0.0006797	0.0001908
323	10400	0.0009003	0.0002999
323	10500	0.0011089	0.0003326
333	10800	0.000228	0.0001038
333	11300	0.0004799	0.0001228
333	11600	0.0007107	0.0001955
333	11800	0.0009333	0.0001905
333	12000	0.0011403	0.000226
343	11900	0.0002301	8.87e-05
343	12500	0.0004892	0.0001037
343	12900	0.0007249	4.93e-05
343	13300	0.0009355	0.0001206
343	13500	0.0011543	0.0001604

System: carbon dioxide + methyl nonyl malonate; phases: Fluid (supercritical or subcritical phases), Liquid
Property: Mole fraction of methyl nonyl malonate (Fluid (supercritical or subcritical phases)); method: Titration method
Temperature, K	Pressure, kPa	Mole fraction of methyl nonyl malonate	uncertainty
323	9900	0.000193	0.0001464
323	10200	0.0004106	2.54e-05
323	10400	0.0006083	0.0001711
323	10500	0.0008066	0.0002696
323	10600	0.0009948	0.0002994
333	11000	0.0001974	7.64e-05
333	11600	0.0004167	0.0001146
333	11800	0.0006306	0.0001186
333	12100	0.0008152	0.0001333
333	12300	0.0009988	0.0001598
343	12300	0.0001991	7.79e-05
343	12900	0.000425	7.86e-05
343	13200	0.0005241	0.0001068
343	13400	0.0006238	0.000105
343	13700	0.0008189	0.0001407
