Measured thermophysical data. Optimization of liquid-liquid equilibria of the type 2 ternary systems (water + valeric acid + aromatic solvent): Modeling through SERLAS
Source: Fluid Phase Equilib., 2016, 10.1016/j.fluid.2016.01.050
Compound 1: chlorobenzene, C6H5Cl, InChI=1S/C6H5Cl/c7-6-4-2-1-3-5-6/h1-5H, purity 99%
Compound 2: dibenzyl ether, C14H14O, InChI=1S/C14H14O/c1-3-7-13(8-4-1)11-15-12-14-9-5-2-6-10-14/h1-10H,11-12H2, purity 99%
Compound 3: 1-phenylethanol, C8H10O, InChI=1S/C8H10O/c1-7(9)8-5-3-2-4-6-8/h2-7,9H,1H3, purity 99%
Compound 4: pentanoic acid, C5H10O2, InChI=1S/C5H10O2/c1-2-3-4-5(6)7/h2-4H2,1H3,(H,6,7), purity 99%
Compound 5: water, H2O, InChI=1S/H2O/h1H2, purity 99.8%

System: chlorobenzene; phases: Liquid
Property: Mass density, kg/m3 (Liquid); method: Vibrating tube method
Temperature, K	Pressure, kPa	Mass density, kg/m3	uncertainty
298	101.325	1101.08	0.44

System: chlorobenzene; phases: Liquid
Property: Refractive index (Na D-line) (Liquid); method: Standard Abbe refractometry
Temperature, K	Pressure, kPa	Refractive index (Na D-line)	uncertainty
298	101.325	1.52165	0.00042

System: dibenzyl ether; phases: Liquid
Property: Mass density, kg/m3 (Liquid); method: Vibrating tube method
Temperature, K	Pressure, kPa	Mass density, kg/m3	uncertainty
298	101.325	1039.32	0.4

System: dibenzyl ether; phases: Liquid
Property: Refractive index (Na D-line) (Liquid); method: Standard Abbe refractometry
Temperature, K	Pressure, kPa	Refractive index (Na D-line)	uncertainty
298	101.325	1.56019	0.00042

System: 1-phenylethanol; phases: Liquid
Property: Mass density, kg/m3 (Liquid); method: Vibrating tube method
Temperature, K	Pressure, kPa	Mass density, kg/m3	uncertainty
298	101.325	1006.48	0.38

System: 1-phenylethanol; phases: Liquid
Property: Refractive index (Na D-line) (Liquid); method: Standard Abbe refractometry
Temperature, K	Pressure, kPa	Refractive index (Na D-line)	uncertainty
298	101.325	1.52467	0.00042

System: pentanoic acid; phases: Liquid
Property: Mass density, kg/m3 (Liquid); method: Vibrating tube method
Temperature, K	Pressure, kPa	Mass density, kg/m3	uncertainty
298	101.325	935.04	0.37

System: pentanoic acid; phases: Liquid
Property: Refractive index (Na D-line) (Liquid); method: Standard Abbe refractometry
Temperature, K	Pressure, kPa	Refractive index (Na D-line)	uncertainty
298	101.325	1.40718	0.00042

System: chlorobenzene + pentanoic acid + water; phases: Liquid mixture 1, Liquid mixture 2
Fixed: Temperature, K = 298.2
Fixed: Pressure, kPa = 101.3
Property: Mole fraction of pentanoic acid (Liquid mixture 1); method: Titration method
Property: Mole fraction of pentanoic acid (Liquid mixture 2); method: Titration method
Property: Mole fraction of water (Liquid mixture 2); method: Titration method
Mole fraction of water	Mole fraction of pentanoic acid	uncertainty	Mole fraction of pentanoic acid	uncertainty	Mole fraction of water	uncertainty
0.9999	0		0		0.0154	
0.9918	0.0082	0.0005	0.5248	0.0147	0.4752	
0.9966	0.0029	0.0006	0.0535	0.0018	0.0446	
0.9948	0.0048	0.0006	0.1323	0.0042	0.0879	
0.9934	0.0062	0.0006	0.2496	0.0078	0.1312	
0.9925	0.0072	0.0007	0.3701	0.0115	0.1943	
0.9917	0.0081	0.0005	0.4852	0.015	0.3055	

System: dibenzyl ether + pentanoic acid + water; phases: Liquid mixture 2, Liquid mixture 1
Fixed: Temperature, K = 298.2
Fixed: Pressure, kPa = 101.3
Property: Mole fraction of pentanoic acid (Liquid mixture 2); method: Titration method
Property: Mole fraction of pentanoic acid (Liquid mixture 1); method: Titration method
Property: Mole fraction of water (Liquid mixture 1); method: Titration method
Mole fraction of water	Mole fraction of pentanoic acid	uncertainty	Mole fraction of pentanoic acid	uncertainty	Mole fraction of water	uncertainty
0.0632	0		0		0.9996	
0.4752	0.5248	0.0147	0.0082	0.0005	0.9918	
0.1585	0.1475	0.0046	0.0047	0.0006	0.9948	
0.1915	0.2306	0.0072	0.0065	0.0006	0.9931	
0.2625	0.3134	0.0097	0.0074	0.0007	0.9922	
0.3235	0.3792	0.0118	0.0078	0.0005	0.9918	
0.3745	0.4528	0.014	0.0081	0.0005	0.9916	

System: 1-phenylethanol + pentanoic acid + water; phases: Liquid mixture 2, Liquid mixture 1
Fixed: Temperature, K = 298.2
Fixed: Pressure, kPa = 101.3
Property: Mole fraction of water (Liquid mixture 2); method: Titration method
Property: Mole fraction of water (Liquid mixture 1); method: Titration method
Property: Mole fraction of pentanoic acid (Liquid mixture 1); method: Titration method
Mole fraction of pentanoic acid	Mole fraction of water	uncertainty	Mole fraction of water	uncertainty	Mole fraction of pentanoic acid	uncertainty
0	0.2346	0.0073	0.996	0.0004	0	
0.5248	0.4752	0.0147	0.9918	0.0005	0.0082	
0.0597	0.2675	0.0083	0.9929	0.0006	0.0033	
0.1213	0.2745	0.0085	0.9926	0.0005	0.0042	
0.1986	0.2985	0.0092	0.9923	0.0005	0.0052	
0.2817	0.3287	0.0102	0.9921	0.0005	0.0058	
0.3948	0.3854	0.0119	0.9919	0.0005	0.0064	
