Measured thermophysical data. Liquid-liquid equilibria in the ternary systems water + cresols + methyl butyl ketone at 298.2 and 313.2 K: experimental data and correlation
Source: Fluid Phase Equilib., 2015, 10.1016/j.fluid.2015.06.032
Compound 1: 2-methylphenol, C7H8O, InChI=1S/C7H8O/c1-6-4-2-3-5-7(6)8/h2-5,8H,1H3, purity 99.5%
Compound 2: 2-hexanone, C6H12O, InChI=1S/C6H12O/c1-3-4-5-6(2)7/h3-5H2,1-2H3, purity 99%
Compound 3: water, H2O, InChI=1S/H2O/h1H2, purity 99.8%
Compound 4: 3-methylphenol, C7H8O, InChI=1S/C7H8O/c1-6-3-2-4-7(8)5-6/h2-5,8H,1H3, purity 99.5%
Compound 5: 4-methylphenol, C7H8O, InChI=1S/C7H8O/c1-6-2-4-7(8)5-3-6/h2-5,8H,1H3, purity 99%

System: 2-methylphenol + 2-hexanone + water; phases: Liquid mixture 2, Liquid mixture 1
Fixed: Pressure, kPa = 101
Property: Mass fraction of 2-methylphenol (Liquid mixture 2); method: Chromatography
Property: Mass fraction of 2-methylphenol (Liquid mixture 1); method: Chromatography
Property: Mass fraction of 2-hexanone (Liquid mixture 1); method: Chromatography
Temperature, K	Mass fraction of 2-hexanone	Mass fraction of 2-methylphenol	uncertainty	Mass fraction of 2-methylphenol	uncertainty	Mass fraction of 2-hexanone	uncertainty
298.2	0.9773	0		0		0.01583	
298.2	0.8342	0.1316	0.0011	0.00036	0.00036	0.01177	
298.2	0.7884	0.1734	0.0014	0.00057	0.0004	0.01056	
298.2	0.7673	0.1929	0.0015	0.00068	0.0004	0.01012	
298.2	0.7503	0.2084	0.0017	0.00079	0.00041	0.00979	
298.2	0.7152	0.2404	0.0019	0.00105	0.00041	0.00924	
298.2	0.6761	0.2768	0.0022	0.00142	0.00042	0.00849	
298.2	0.6114	0.3371	0.0026	0.00219	0.00042	0.00724	
298.2	0.5827	0.3638	0.0028	0.00262	0.00042	0.00659	
313.2	0.9732	0		0		0.01203	
313.2	0.8324	0.1262	0.001	0.00042	0.0004	0.00928	
313.2	0.7855	0.1683	0.0014	0.00066	0.0004	0.00836	
313.2	0.757	0.1939	0.0015	0.00084	0.00041	0.00789	
313.2	0.728	0.2201	0.0017	0.00105	0.00041	0.00749	
313.2	0.6941	0.2506	0.002	0.00135	0.00041	0.00686	
313.2	0.6746	0.2681	0.0021	0.00155	0.00042	0.00654	
313.2	0.6467	0.2936	0.0023	0.00186	0.00043	0.00614	
313.2	0.5832	0.3515	0.0028	0.00266	0.00043	0.00507	

System: 3-methylphenol + 2-hexanone + water; phases: Liquid mixture 2, Liquid mixture 1
Fixed: Pressure, kPa = 101
Property: Mass fraction of 3-methylphenol (Liquid mixture 2); method: Chromatography
Property: Mass fraction of 3-methylphenol (Liquid mixture 1); method: Chromatography
Property: Mass fraction of 2-hexanone (Liquid mixture 1); method: Chromatography
Temperature, K	Mass fraction of 2-hexanone	Mass fraction of 3-methylphenol	uncertainty	Mass fraction of 3-methylphenol	uncertainty	Mass fraction of 2-hexanone	uncertainty
298.2	0.9773	0		0		0.01583	
298.2	0.8657	0.1028	0.0009	0.00036	0.00036	0.0121	
298.2	0.823	0.1424	0.0012	0.00056	0.0004	0.01094	
298.2	0.7948	0.1676	0.0014	0.00071	0.00041	0.01039	
298.2	0.7443	0.2145	0.0017	0.00104	0.00041	0.00946	
298.2	0.6862	0.2682	0.0021	0.0015	0.00041	0.0082	
298.2	0.6345	0.3167	0.0025	0.00203	0.00042	0.00734	
298.2	0.5993	0.3497	0.0027	0.00242	0.00042	0.00675	
298.2	0.5688	0.3789	0.003	0.00274	0.00042	0.00626	
313.2	0.9732	0		0		0.01203	
313.2	0.8545	0.1067	0.0009	0.00045	0.0004	0.00951	
313.2	0.819	0.1388	0.0011	0.00063	0.00041	0.00884	
313.2	0.7852	0.1686	0.0014	0.00081	0.00041	0.00842	
313.2	0.7606	0.1909	0.0015	0.00097	0.00041	0.00811	
313.2	0.6649	0.2782	0.0022	0.00175	0.00042	0.00684	
313.2	0.6236	0.3155	0.0025	0.00219	0.00043	0.00626	
313.2	0.5559	0.3779	0.003	0.00298	0.00043	0.00523	
313.2	0.536	0.3964	0.0031	0.00321	0.00043	0.00495	

System: 4-methylphenol + 2-hexanone + water; phases: Liquid mixture 2, Liquid mixture 1
Fixed: Pressure, kPa = 101
Property: Mass fraction of 4-methylphenol (Liquid mixture 2); method: Chromatography
Property: Mass fraction of 4-methylphenol (Liquid mixture 1); method: Chromatography
Property: Mass fraction of 2-hexanone (Liquid mixture 1); method: Chromatography
Temperature, K	Mass fraction of 2-hexanone	Mass fraction of 4-methylphenol	uncertainty	Mass fraction of 4-methylphenol	uncertainty	Mass fraction of 2-hexanone	uncertainty
298.2	0.9773	0		0		0.01583	
298.2	0.8378	0.1273	0.0011	0.00039	0.00039	0.01149	
298.2	0.7854	0.1752	0.0014	0.00066	0.0004	0.01016	
298.2	0.765	0.1937	0.0016	0.00079	0.00041	0.00973	
298.2	0.7332	0.223	0.0018	0.00106	0.00041	0.00915	
298.2	0.6995	0.2539	0.002	0.00137	0.00042	0.00858	
298.2	0.6415	0.3078	0.0024	0.00204	0.00042	0.00754	
298.2	0.6221	0.326	0.0026	0.00228	0.00042	0.00713	
298.2	0.5554	0.3893	0.003	0.00312	0.00042	0.00586	
313.2	0.9732	0		0		0.01203	
313.2	0.8237	0.132	0.0011	0.0005	0.0004	0.00919	
313.2	0.7796	0.1708	0.0014	0.00076	0.00041	0.00842	
313.2	0.7389	0.2068	0.0016	0.00106	0.00041	0.00779	
313.2	0.7096	0.2328	0.0018	0.00132	0.00042	0.00731	
313.2	0.6884	0.2514	0.002	0.00151	0.00043	0.00702	
313.2	0.6195	0.3136	0.0025	0.00234	0.00043	0.00589	
313.2	0.5733	0.3559	0.0028	0.00294	0.00043	0.00509	
313.2	0.5583	0.3696	0.0029	0.00317	0.00044	0.00484	

System: 2-hexanone + water; phases: Liquid mixture 2, Liquid mixture 1
Fixed: Pressure, kPa = 101
Property: Mass fraction of 2-hexanone (Liquid mixture 2); method: Chromatography
Temperature, K	Mass fraction of 2-hexanone	uncertainty
298.2	0.9773	0.0004
313.2	0.9732	0.0004

System: 2-hexanone + water; phases: Liquid mixture 1, Liquid mixture 2
Fixed: Pressure, kPa = 101
Property: Mass fraction of 2-hexanone (Liquid mixture 1); method: Chromatography
Temperature, K	Mass fraction of 2-hexanone	uncertainty
298.2	0.01583	0.00023
313.2	0.01203	0.00022
