Measured thermophysical data. CO2 solubility measurement and thermodynamic modeling for 1-methylpiperazine/water/CO2
Source: Fluid Phase Equilib., 2015, 10.1016/j.fluid.2015.03.021
Compound 1: N-methylpiperazine, C5H12N2, InChI=1S/C5H12N2/c1-7-4-2-6-3-5-7/h6H,2-5H2,1H3, purity 99%
Compound 2: carbon dioxide, CO2, InChI=1S/CO2/c2-1-3, purity 99.9%
Compound 3: 2-aminoethan-1-ol, C2H7NO, InChI=1S/C2H7NO/c3-1-2-4/h4H,1-3H2, purity 99%
Compound 4: water, H2O, InChI=1S/H2O/h1H2, purity 99.8%
Compound 5: diethanolamine, C4H11NO2, InChI=1S/C4H11NO2/c6-3-1-5-2-4-7/h5-7H,1-4H2, purity 99%

System: carbon dioxide + 2-aminoethan-1-ol + water; phases: Gas, Liquid
Fixed: Molality, mol/kg of 2-aminoethan-1-ol = 7.02
Property: Partial pressure, kPa of carbon dioxide (Gas); method: Gas Chromatography
Temperature, K	Molality, mol/kg of carbon dioxide	Partial pressure, kPa of carbon dioxide	uncertainty
313.15	2.202	0.07	0.01
313.15	2.929	0.29	0.01
313.15	3.655	6.4	0.4
313.15	3.949	22.4	1.2
313.15	4.229	61.8	2.9
313.15	4.483	113.8	5.4
313.15	4.77	203.2	9
313.15	5.029	316	14
333.15	0.7507	0.03	0.01
333.15	1.5337	0.17	0.02
333.15	2.2725	0.5	0.1
333.15	3.0043	3.11	0.31
333.15	3.687	41.4	1.9
333.15	3.9242	97	4
333.15	4.148	184.7	8.1
333.15	4.4034	340.4	14.7
373.15	1.1892	1	1
373.15	1.5822	3.5	0.2
373.15	1.9842	7.6	0.3
373.15	2.3617	14.6	0.6
373.15	2.7826	34.3	1.5
373.15	3.1924	86.8	3.8
373.15	3.5635	218	9
373.15	3.8645	436.1	18.6
393.15	0.7409	2.5	0.1
393.15	1.1219	8.6	0.4
393.15	1.4895	16.9	0.7
393.15	1.9337	34.5	1.5
393.15	2.3862	69.9	3
393.15	2.8261	148.3	6.4
393.15	3.2667	328.9	14.1

System: N-methylpiperazine + carbon dioxide + water; phases: Gas, Liquid
Property: Partial pressure, kPa of carbon dioxide (Gas); method: Gas Chromatography
Molality, mol/kg of N-methylpiperazine	Temperature, K	Molality, mol/kg of carbon dioxide	Partial pressure, kPa of carbon dioxide	uncertainty
1.109	313.15	0.123	0.05	0.01
1.109	313.15	0.254	0.13	0.03
1.109	313.15	0.401	0.5	0.1
1.109	313.15	0.537	1.51	0.1
1.109	313.15	0.679	4.54	0.24
1.109	313.15	0.814	12.85	1.81
1.109	313.15	0.913	28.33	2.85
1.109	313.15	1.02	73.47	3.66
1.109	313.15	1.09	134.5	6.2
1.109	313.15	1.14	211.6	13.7
1.109	313.15	1.195	322.4	46.4
1.109	313.15	1.251	456.4	49.8
1.109	343.15	0.1325	0.4	0.1
1.109	343.15	0.1986	1	1
1.109	343.15	0.2627	1.7	0.2
1.109	343.15	0.3319	3.3	0.5
1.109	343.15	0.4264	6.6	0.6
1.109	343.15	0.5266	14.1	1.5
1.109	343.15	0.6595	33.7	4.4
1.109	343.15	0.7742	69.7	5.2
1.109	343.15	0.8628	124.1	14.8
1.109	343.15	0.9474	210.7	18.5
1.109	343.15	1.0182	330.1	19.7
1.109	343.15	1.0844	491	54
1.109	373.15	0.0565	0.6	0.2
1.109	373.15	0.1185	2.4	0.3
1.109	373.15	0.1803	5.5	0.4
1.109	373.15	0.2683	13.6	1.5
1.109	373.15	0.3825	28.5	1.9
1.109	373.15	0.5176	60.2	4.8
1.109	373.15	0.6757	130.4	10.8
1.109	373.15	0.8198	245	22
1.109	373.15	0.9642	433.6	38.1
1.109	393.15	0.066	3.4	0.4
1.109	393.15	0.1271	9.1	0.6
1.109	393.15	0.1981	19.9	0.9
1.109	393.15	0.2721	35.3	2.5
1.109	393.15	0.3757	68.1	5.4
1.109	393.15	0.4974	126.6	10.8
1.109	393.15	0.6196	220.7	13.1
1.109	393.15	0.7795	413.1	24.9
4.279	313.15	0.4719	0.09	0.05
4.279	313.15	0.9255	0.18	1.11
4.279	313.15	1.3641	0.42	17.82
4.279	313.15	1.7885	1.06	15.85
4.279	313.15	2.2429	3.9	0.4
4.279	313.15	2.6802	11.06	1.78
4.279	313.15	3.1068	29.27	2.26
4.279	313.15	3.4958	67.02	7.98
4.279	313.15	3.7756	139.3	8.6
4.279	313.15	4.0242	249	30
4.279	313.15	4.1992	382.5	33
4.279	313.15	4.3301	526	34
4.279	313.15	4.4474	686.1	92.1
4.279	343.15	0.1891	0.12	0.05
4.279	343.15	0.3573	0.32	0.15
4.279	343.15	0.5276	0.7	0.6
4.279	343.15	0.733	1.22	2.82
4.279	343.15	0.9674	2.35	9.12
4.279	343.15	1.1848	3.89	18.59
4.279	343.15	1.4805	7.74	18.56
4.279	343.15	1.7731	15.26	1.48
4.279	343.15	2.0902	30.62	4.1
4.279	343.15	2.4329	68.9	5.5
4.279	343.15	2.7726	134.8	12.4
4.279	343.15	3.0944	241.3	24.4
4.279	343.15	3.3601	377.6	27.4
4.279	343.15	3.586	556.1	53.5
4.279	373.15	0.1609	1.1	0.2
4.279	373.15	0.3307	2.1	1
4.279	373.15	0.4946	4.3	2.2
4.279	373.15	0.6705	7.1	5.1
4.279	373.15	0.8562	12.3	9.3
4.279	373.15	1.0573	17.4	16.1
4.279	373.15	1.3482	33.3	14.8
4.279	373.15	1.7098	61.6	6
4.279	373.15	2.186	136.8	13.5
4.279	373.15	2.64	283	25
4.279	373.15	2.9091	406.7	25.9
4.279	393.15	0.1335	3.3	0.3
4.279	393.15	0.273	7.9	1.2
4.279	393.15	0.4048	14.4	2.4
4.279	393.15	0.5481	21.9	4.8
4.279	393.15	0.6957	32.4	7.8
4.279	393.15	0.8985	47.3	14.9
4.279	393.15	1.1476	76.8	16.1
4.279	393.15	1.4856	136.9	8
4.279	393.15	1.8536	238.2	17.1
4.279	393.15	2.1826	386.2	31.1
6.656	313.15	0.7215	0.06	0.01
6.656	313.15	1.4962	0.13	0.02
6.656	313.15	2.1918	0.43	0.27
6.656	313.15	2.9213	1.53	2.21
6.656	313.15	3.5529	4.85	5.12
6.656	313.15	4.1499	13.57	30.68
6.656	313.15	4.729	31.49	55.69
6.656	313.15	5.2794	66.25	58.75
6.656	313.15	5.754	154.2	69.4
6.656	313.15	6.1221	265	88
6.656	313.15	6.357	390.7	131.1
6.656	313.15	6.5514	552.7	160.5
6.656	343.15	0.617	0.4	0.1
6.656	343.15	1.1907	1.57	0.07
6.656	343.15	1.648	3.27	0.63
6.656	343.15	2.1765	7.88	1.44
6.656	343.15	2.7276	18.22	8.66
6.656	343.15	3.2141	43.4	15.6
6.656	343.15	3.718	90	38
6.656	343.15	4.0934	151.7	41.6
6.656	343.15	4.2777	194	37
6.656	343.15	4.3989	225.2	30.9
6.656	373.15	0.2636	1.1	0.1
6.656	373.15	0.5271	2.4	0.1
6.656	373.15	0.7874	6.4	0.3
6.656	373.15	1.045	11.4	0.5
6.656	373.15	1.3172	17	1
6.656	373.15	1.652	24	2
6.656	373.15	2.1558	46.1	6.7
6.656	373.15	2.7116	86.2	14.2
6.656	373.15	3.1569	145.8	22.7
6.656	373.15	3.4843	213	29
6.656	373.15	3.7226	278.8	33.1
6.656	373.15	3.9649	356.5	38.5
6.656	373.15	4.112	419.4	45.8
6.656	393.15	0.1997	3	1
6.656	393.15	0.3947	8.5	0.6
6.656	393.15	0.6416	17.2	1.3
6.656	393.15	0.9312	30	2
6.656	393.15	1.3618	54.7	6.2
6.656	393.15	1.873	100.7	11.5
6.656	393.15	2.4514	193.4	21
6.656	393.15	2.8993	312.5	25.9

System: diethanolamine + water; phases: Liquid
Fixed: Temperature, K = 298.15
Fixed: Pressure, kPa = 101
Property: Excess molar enthalpy (molar enthalpy of mixing), kJ/mol (Liquid); method: Calvet calorimetry
Mole fraction of diethanolamine	Excess molar enthalpy (molar enthalpy of mixing), kJ/mol	uncertainty
0.1002	-1.124	0.046
0.2057	-1.74	0.071
0.2992	-2.026	0.082
0.3535	-2.049	0.083
0.403	-2.037	0.083
0.5035	-1.877	0.076
0.6967	-1.269	0.052
0.8826	-0.5	0.02

System: N-methylpiperazine + water; phases: Liquid
Fixed: Pressure, kPa = 101
Property: Excess molar enthalpy (molar enthalpy of mixing), kJ/mol (Liquid); method: Calvet calorimetry
Temperature, K	Mole fraction of N-methylpiperazine	Excess molar enthalpy (molar enthalpy of mixing), kJ/mol	uncertainty
303.15	0.0495	-1.989	0.081
303.15	0.0997	-3.49	0.142
303.15	0.2004	-4.946	0.201
303.15	0.3006	-5.366	0.218
303.15	0.3993	-4.945	0.201
303.15	0.6	-3.52	0.143
303.15	0.7973	-1.818	0.074
323.15	0.3991	-4.697	0.191
323.15	0.4012	-4.627	0.188
323.15	0.4193	-4.567	0.186
323.15	0.4994	-4.113	0.169
323.15	0.5981	-3.443	0.14
323.15	0.7019	-2.582	0.109
323.15	0.8001	-1.759	0.072
323.15	0.8964	-0.944	0.049
