Measured thermophysical data. Infinite dilution activity coefficient measurements by inert gas stripping method
Source: Fluid Phase Equilib., 2006, 10.1016/j.fluid.2006.02.022
Compound 1: toluene, C7H8, InChI=1S/C7H8/c1-7-5-3-2-4-6-7/h2-6H,1H3, purity 99.7%
Compound 2: 2-ethoxy-2-methylpropane, C6H14O, InChI=1S/C6H14O/c1-5-7-6(2,3)4/h5H2,1-4H3
Compound 3: 2-methoxy-2-methylpropane, C5H12O, InChI=1S/C5H12O/c1-5(2,3)6-4/h1-4H3
Compound 4: 1,1-dimethylpropyl ethyl ether, C7H16O, InChI=1S/C7H16O/c1-5-7(3,4)8-6-2/h5-6H2,1-4H3
Compound 5: 2-methoxy-2-methylbutane, C6H14O, InChI=1S/C6H14O/c1-5-6(2,3)7-4/h5H2,1-4H3
Compound 6: methyl 1,1,3,3-tetramethylbutyl ether, C9H20O, InChI=1S/C9H20O/c1-8(2,3)7-9(4,5)10-6/h7H2,1-6H3
Compound 7: ethyl 1,1,3,3-tetramethylbutyl ether, C10H22O, InChI=1S/C10H22O/c1-7-11-10(5,6)8-9(2,3)4/h7-8H2,1-6H3
Compound 8: thiophene, C4H4S, InChI=1S/C4H4S/c1-2-4-5-3-1/h1-4H, purity 99%
Compound 9: 1-butanethiol, C4H10S, InChI=1S/C4H10S/c1-2-3-4-5/h5H,2-4H2,1H3, purity 99%
Compound 10: 1-propanethiol, C3H8S, InChI=1S/C3H8S/c1-2-3-4/h4H,2-3H2,1H3, purity 99%
Compound 11: 2-propanethiol, C3H8S, InChI=1S/C3H8S/c1-3(2)4/h3-4H,1-2H3, purity 97%
Compound 12: water, H2O, InChI=1S/H2O/h1H2

System: 2-methoxy-2-methylbutane + water; phases: Liquid
Fixed: Mole fraction of 2-methoxy-2-methylbutane = 0
Fixed: Pressure, kPa = 101
Property: Activity coefficient of 2-methoxy-2-methylbutane (Liquid); method: Chromatography
Temperature, K	Activity coefficient of 2-methoxy-2-methylbutane	uncertainty
288.15	390	39
298.15	529	44
308.15	725	55
318.15	1074	87

System: water + methyl 1,1,3,3-tetramethylbutyl ether; phases: Liquid
Fixed: Pressure, kPa = 101
Fixed: Mole fraction of methyl 1,1,3,3-tetramethylbutyl ether = 0
Property: Activity coefficient of methyl 1,1,3,3-tetramethylbutyl ether (Liquid); method: Chromatography
Temperature, K	Activity coefficient of methyl 1,1,3,3-tetramethylbutyl ether	uncertainty
288.15	26037	1451
288.15	111160	6552
298.15	39335	2025
298.15	143135	9090
308.15	45279	2609
308.15	149008	12200
318.15	47071	3659
318.15	125666	14130
333.15	35523	4177
333.15	76862	14920

System: water + ethyl 1,1,3,3-tetramethylbutyl ether; phases: Liquid
Fixed: Mole fraction of ethyl 1,1,3,3-tetramethylbutyl ether = 0
Fixed: Pressure, kPa = 101
Property: Activity coefficient of ethyl 1,1,3,3-tetramethylbutyl ether (Liquid); method: Chromatography
Temperature, K	Activity coefficient of ethyl 1,1,3,3-tetramethylbutyl ether	uncertainty
288.15	111160	9672
298.15	143135	15890
308.15	149008	22600
318.15	125666	27190
333.15	76862	29460

System: thiophene + water; phases: Liquid
Fixed: Mole fraction of thiophene = 0
Fixed: Pressure, kPa = 101
Property: Activity coefficient of thiophene (Liquid); method: Chromatography
Temperature, K	Activity coefficient of thiophene	uncertainty
288.15	1263	102
298.15	1272	96
308.15	1314	102
318.15	1291	111
333.15	1095	105

System: 1-butanethiol + water; phases: Liquid
Fixed: Mole fraction of 1-butanethiol = 0
Fixed: Pressure, kPa = 101
Property: Activity coefficient of 1-butanethiol (Liquid); method: Chromatography
Temperature, K	Activity coefficient of 1-butanethiol	uncertainty
288.15	6027	488
298.15	6042	531
308.15	5834	569
318.15	5338	615
333.15	4140	621

System: 1-propanethiol + water; phases: Liquid
Fixed: Mole fraction of 1-propanethiol = 0
Fixed: Pressure, kPa = 101
Property: Activity coefficient of 1-propanethiol (Liquid); method: Chromatography
Temperature, K	Activity coefficient of 1-propanethiol	uncertainty
288.15	1423	113
298.15	1495	123
308.15	1455	130
318.15	1448	147
333.15	1309	164

System: 2-propanethiol + water; phases: Liquid
Fixed: Mole fraction of 2-propanethiol = 0
Fixed: Pressure, kPa = 101
Property: Activity coefficient of 2-propanethiol (Liquid); method: Chromatography
Temperature, K	Activity coefficient of 2-propanethiol	uncertainty
288.15	1116	90
298.15	1135	100
308.15	1188	119
318.15	1127	132

System: toluene + water; phases: Liquid
Fixed: Mole fraction of toluene = 0
Fixed: Pressure, kPa = 101
Property: Activity coefficient of toluene (Liquid); method: Chromatography
Temperature, K	Activity coefficient of toluene	uncertainty
288.15	8976	950
298.15	8954	948
308.15	8775	929
318.15	8290	877

System: 2-ethoxy-2-methylpropane + water; phases: Liquid
Fixed: Mole fraction of 2-ethoxy-2-methylpropane = 0
Fixed: Pressure, kPa = 101
Property: Activity coefficient of 2-ethoxy-2-methylpropane (Liquid); method: Chromatography
Temperature, K	Activity coefficient of 2-ethoxy-2-methylpropane	uncertainty
288.15	325	22
298.15	514	35
308.15	659	46
318.15	873	82

System: 2-methoxy-2-methylpropane + water; phases: Liquid
Fixed: Mole fraction of 2-methoxy-2-methylpropane = 0
Fixed: Pressure, kPa = 101
Property: Activity coefficient of 2-methoxy-2-methylpropane (Liquid); method: Chromatography
Temperature, K	Activity coefficient of 2-methoxy-2-methylpropane	uncertainty
288.15	127	13
298.15	139	11
308.15	180	14
318.15	234	18

System: 1,1-dimethylpropyl ethyl ether + water; phases: Liquid
Fixed: Mole fraction of 1,1-dimethylpropyl ethyl ether = 0
Fixed: Pressure, kPa = 101
Property: Activity coefficient of 1,1-dimethylpropyl ethyl ether (Liquid); method: Chromatography
Temperature, K	Activity coefficient of 1,1-dimethylpropyl ethyl ether	uncertainty
288.15	1351	103
298.15	1993	142
308.15	2529	191
318.15	3323	354
