Measured thermophysical data. Isobaric heat capacities of exo-tetrahydrodicyclopentadiene at temperatures from 323 K to 523 K and pressures up to 6 MPa
Source: Fluid Phase Equilib., 2017, 10.1016/j.fluid.2016.11.031
Compound 1: exo-tetrahydrodicyclopentadiene, C10H16, InChI=1S/C10H16/c1-2-9-7-4-5-8(6-7)10(9)3-1/h7-10H,1-6H2/t7-,8+,9+,10-, purity 99%

System: exo-tetrahydrodicyclopentadiene; phases: Liquid
Property: Molar heat capacity at constant pressure, J/K/mol (Liquid); method: Flow calorimetry
Temperature, K	Pressure, kPa	Molar heat capacity at constant pressure, J/K/mol	uncertainty
323.34	100	219.49	2.22
323.37	1030	219.39	2.22
323.37	2050	218.99	2.21
323.35	3070	218.8	2.21
323.34	4000	218.3	2.21
323.34	5020	218.14	2.2
323.35	6080	217.34	2.2
333.2	100	224.4	2.27
333.2	1070	224.39	2.27
333.21	2020	224.41	2.27
333.2	3000	223.84	2.26
333.16	3990	223.29	2.26
333.17	5040	223.42	2.26
333.17	5990	223.32	2.26
343.01	100	230.29	2.33
343.03	1090	230.02	2.32
343.06	2070	229.6	2.32
343.06	3060	229	2.31
343.09	4000	229.5	2.32
343.09	5030	228.72	2.31
343.09	6000	229.08	2.31
353.59	100	234.98	2.37
353.61	1080	234.61	2.37
353.61	2010	234.35	2.37
353.62	3070	234.12	2.37
353.59	4080	234.11	2.37
353.59	5070	234.17	2.37
353.6	6090	233.83	2.36
363.48	100	240.37	2.43
363.53	1070	240.28	2.43
363.53	2030	240.09	2.43
363.53	2990	239.97	2.42
363.54	4080	239.88	2.42
363.54	5000	239.76	2.42
363.55	6020	239.67	2.42
383.6	100	249.31	2.52
383.6	1000	248.82	2.51
383.61	2020	248.8	2.51
383.58	3060	248.68	2.51
383.58	4010	248.49	2.51
383.59	5070	248.39	2.51
383.6	5990	248.35	2.51
403.36	100	260.34	2.63
403.36	1020	259.74	2.62
403.37	2060	259.23	2.62
403.38	3040	258.89	2.62
403.38	4010	257.41	2.6
403.39	5000	256.93	2.6
403.4	6070	256.62	2.59
423.21	100	271.95	2.75
423.2	1020	271.44	2.74
423.2	2050	270.28	2.73
423.2	3010	268.73	2.72
423.25	4020	267.73	2.7
423.26	4980	267.54	2.7
423.27	6000	266.96	2.7
443.15	240	284.8	2.88
443.14	1030	284.05	2.87
443.13	2050	283.43	2.86
443.11	3110	282.78	2.86
443.17	4060	282.05	2.85
443.19	5030	281.38	2.84
443.18	6050	280.75	2.84
463.17	230	301.77	3.05
463.18	1060	300.31	3.03
463.16	2040	298.88	3.02
463.2	3000	299.41	3.02
463.19	4070	297.53	3.01
463.21	5010	297.44	3.01
463.22	6020	296.56	3
483.42	470	321.27	3.25
483.39	1020	319.24	3.23
483.31	2050	316.76	3.2
483.32	3040	315.54	3.19
483.37	4030	315.19	3.18
483.38	5080	314.31	3.18
483.37	6060	314.11	3.17
503.3	480	338.7	3.42
503.28	1020	336.59	3.4
503.28	2040	334.35	3.38
503.28	3050	333.03	3.36
503.29	4090	330.6	3.34
503.29	5070	331.61	3.35
503.3	6000	331.5	3.35
523.47	500	355.43	3.59
523.45	1030	352.98	3.57
523.45	2060	350.7	3.54
523.44	3010	348.07	3.52
523.5	4000	346.42	3.5
523.49	5040	345.42	3.49
523.49	6180	344.08	3.48
