Measured thermophysical data. Vapor pressures and vaporization enthalpies of 5-nonanone, linalool and 6-methyl-5-hepten-2-one. Data evaluation
Source: Fluid Phase Equilib., 2015, 10.1016/j.fluid.2014.11.026
Compound 1: 5-nonanone, C9H18O, InChI=1S/C9H18O/c1-3-5-7-9(10)8-6-4-2/h3-8H2,1-2H3, purity 98%
Compound 2: 3,7-dimethyl-1,6-octadien-3-ol, C10H18O, InChI=1S/C10H18O/c1-5-10(4,11)8-6-7-9(2)3/h5,7,11H,1,6,8H2,2-4H3, purity 97%
Compound 3: 6-methyl-5-hepten-2-one, C8H14O, InChI=1S/C8H14O/c1-7(2)5-4-6-8(3)9/h5H,4,6H2,1-3H3, purity 99%
Compound 4: benzoic acid, C7H6O2, InChI=1S/C7H6O2/c8-7(9)6-4-2-1-3-5-6/h1-5H,(H,8,9), purity 99.9%
Compound 5: naphthalene, C10H8, InChI=1S/C10H8/c1-2-6-10-8-4-3-7-9(10)5-1/h1-8H, purity 99.9%
Compound 6: ferrocene, C10H10Fe, InChI=1S/2C5H5.Fe/c2*1-2-4-5-3-1;/h2*1-5H;, purity 99.5%
Compound 7: benzophenone, C13H10O, InChI=1S/C13H10O/c14-13(11-7-3-1-4-8-11)12-9-5-2-6-10-12/h1-10H, purity 99.5%

System: 5-nonanone; phases: Liquid, Gas
Property: Vapor or sublimation pressure, kPa (Liquid); method: Closed cell (Static) method
Temperature, K	Vapor or sublimation pressure, kPa	uncertainty
283.85	0.02535	0.00079
288.55	0.03722	0.00095
293.32	0.05439	0.00128
298.12	0.0783	0.0017
302.94	0.111	0.0023
307.77	0.1559	0.0028
313.02	0.2225	0.0037
317.8	0.3037	0.0048
322.58	0.4099	0.0062
327.44	0.5474	0.0081
332.32	0.7257	0.0104
337.13	0.9562	0.0133
334.74	0.8375	0.0118
329.95	0.638	0.0092
324.99	0.476	0.007
320.18	0.3545	0.0054
315	0.2527	0.0041
310.19	0.1839	0.0033
305.38	0.1321	0.0025
300.56	0.09349	0.002
295.75	0.06539	0.00153
290.9	0.04494	0.00115
286.19	0.03083	0.00086
283.83	0.02528	0.00079
288.55	0.03722	0.00095
293.35	0.0544	0.00128
298.1	0.07793	0.0017
302.92	0.1107	0.0023
307.75	0.1553	0.0028
312.99	0.2228	0.0037
317.81	0.3041	0.0048
322.62	0.4118	0.0062
327.49	0.5494	0.0081
332.35	0.7296	0.0104
337.15	0.9511	0.0131
334.71	0.8311	0.0118
329.9	0.6318	0.0091
325.05	0.4746	0.007
320.16	0.3527	0.0054
315.38	0.2591	0.0041

System: 3,7-dimethyl-1,6-octadien-3-ol; phases: Liquid, Gas
Property: Vapor or sublimation pressure, kPa (Liquid); method: Closed cell (Static) method
Temperature, K	Vapor or sublimation pressure, kPa	uncertainty
342.71	0.6231	0.0092
348.12	0.8693	0.0124
352.9	1.136	0.016
350.51	0.9921	0.0139
345.69	0.7489	0.0108
340.29	0.5345	0.0078
335.48	0.394	0.006
330.68	0.2877	0.0046
325.83	0.2062	0.0036
321.01	0.1464	0.0028
316.23	0.1024	0.0023
310.78	0.06649	0.00156
305.99	0.04494	0.00116
301.2	0.02999	0.00085
296.39	0.01969	0.00066
291.61	0.01262	0.00052
286.91	0.008001	0.000337
284.62	0.006422	0.000278
289.26	0.01007	0.00042
294.02	0.01583	0.00059
298.77	0.0242	0.00077
303.59	0.03677	0.00095
308.38	0.05475	0.00129
313.18	0.08076	0.00186
310.74	0.0661	0.00155
305.95	0.04473	0.00116
301.14	0.02977	0.00085
296.39	0.01967	0.00066

System: 6-methyl-5-hepten-2-one; phases: Liquid, Gas
Property: Vapor or sublimation pressure, kPa (Liquid); method: Closed cell (Static) method
Temperature, K	Vapor or sublimation pressure, kPa	uncertainty
322.5	0.769	0.011
327.28	1.015	0.014
324.84	0.8831	0.0126
320.01	0.6665	0.009
315.16	0.4939	0.0075
310.3	0.3637	0.0057
305.45	0.2654	0.0043
300.61	0.1903	0.0033
295.81	0.1358	0.0025
290.97	0.09477	0.00203
286.18	0.06551	0.00154
283.85	0.05465	0.0013
288.57	0.07931	0.0017
283.92	0.05498	0.0013
288.61	0.07945	0.00173
293.47	0.1142	0.0024
298.28	0.1619	0.003
303.12	0.2264	0.0038
307.99	0.3137	0.0049
312.88	0.4306	0.0065
317.72	0.5789	0.0085
322.52	0.7718	0.0111
327.32	1.015	0.014
324.89	0.8852	0.0126
320.07	0.6684	0.0097
315.23	0.4983	0.0074
310.36	0.3668	0.0057
305.48	0.2664	0.0043
300.65	0.1915	0.0033
295.85	0.1362	0.0025
291	0.09535	0.00204
286.23	0.06608	0.00155
283.86	0.05482	0.0013
288.69	0.07994	0.0017
293.49	0.1148	0.0024
298.31	0.1623	0.003
303.15	0.2273	0.0038
308.02	0.3147	0.0049
312.9	0.4306	0.0065
317.75	0.5801	0.0086
322.56	0.7724	0.0111
327.36	1.016	0.014
324.93	0.8864	0.0126
320.13	0.6684	0.009
315.28	0.4979	0.0075
310.42	0.3665	0.0057
305.54	0.2673	0.0044
300.69	0.1919	0.0033
295.88	0.1365	0.0025
291.02	0.09517	0.00204
286.24	0.06599	0.00154
283.86	0.05462	0.0013
288.59	0.07922	0.00172

System: benzoic acid; phases: Crystal, Gas
Property: Vapor or sublimation pressure, kPa (Crystal); method: Closed cell (Static) method
Temperature, K	Vapor or sublimation pressure, kPa	uncertainty
297.67	0.000108	0.0001
302.51	0.000193	0.000102
307.27	0.000335	0.000104
312.08	0.000573	0.000107
316.91	0.000969	0.000114
321.91	0.001641	0.000128
326.76	0.002676	0.000155
331.62	0.004361	0.00021
336.46	0.006934	0.000302
300.03	0.000143	0.000101
299.96	0.000142	0.000101
304.75	0.00025	0.000103
309.63	0.000436	0.000105
314.59	0.000754	0.00011
314.4	0.000738	0.00011
319.48	0.00127	0.00012
324.39	0.002118	0.00014
329.2	0.003432	0.000179
334.07	0.005542	0.000251
338.98	0.008733	0.000367

System: naphthalene; phases: Crystal, Gas
Property: Vapor or sublimation pressure, kPa (Crystal); method: Closed cell (Static) method
Temperature, K	Vapor or sublimation pressure, kPa	uncertainty
297.72	0.01042	0.00045
300.06	0.0131	0.00054
302.47	0.01651	0.0006
304.88	0.02077	0.00068
307.27	0.02598	0.00078
309.69	0.03247	0.00091
312.35	0.04107	0.00107
314.78	0.05102	0.00126
317.21	0.06281	0.00148
319.66	0.0774	0.00176
322.08	0.0949	0.00209
324.51	0.1161	0.0025
326.97	0.1415	0.0027

System: ferrocene; phases: Crystal, Gas
Property: Vapor or sublimation pressure, kPa (Crystal); method: Closed cell (Static) method
Temperature, K	Vapor or sublimation pressure, kPa	uncertainty
327.79	0.01447	0.00056
332.72	0.0215	0.00069
337.89	0.03234	0.00089
342.83	0.04685	0.00116
347.77	0.06739	0.00154
352.7	0.09579	0.00207
357.88	0.1377	0.0026
362.8	0.1914	0.0033
367.75	0.2639	0.0043
372.93	0.3682	0.0056
377.87	0.4978	0.0074
382.8	0.6695	0.0097
387.75	0.8978	0.0127
392.69	1.185	0.016
390.22	1.03	0.014
385.27	0.7725	0.0111
380.32	0.5748	0.0084
375.4	0.425	0.0064
370.2	0.3093	0.0049
365.3	0.2244	0.0037
360.37	0.1622	0.0029
355.17	0.1142	0.0024
350.23	0.08052	0.00177
345.27	0.05631	0.00133
340.33	0.03875	0.001
335.15	0.02616	0.00077
330.22	0.01764	0.00062
325.29	0.01176	0.0005
331.21	0.01908	0.00065
336.4	0.02867	0.00082
341.35	0.04176	0.00107
346.28	0.06042	0.00141
351.2	0.08649	0.00189
325.31	0.0117	0.00049
324	0.01056	0.00045
321.69	0.008661	0.000364
320.29	0.007672	0.000326
317.93	0.006236	0.000273
319.06	0.006868	0.000296
320.95	0.008091	0.000342
322.63	0.00937	0.000391
316.48	0.005493	0.000246
315.35	0.004949	0.000226
312.99	0.00399	0.00019
311.31	0.003428	0.000174
307.9	0.002499	0.000146
305.54	0.002007	0.000132
304.13	0.001753	0.000125
304.06	0.001742	0.000125
302.84	0.001542	0.00012
300.35	0.001218	0.000114
297.8	0.000942	0.000108
300.23	0.001197	0.000113
297.83	0.000947	0.000108
295.42	0.000741	0.000104
293.03	0.000576	0.000101
290.59	0.000447	9.9e-05
288.14	0.000344	9.8e-05
285.74	0.000264	9.6e-05
283.33	0.000202	9.5e-05
280.91	0.000154	9.4e-05
282.03	0.000176	9.5e-05
284.44	0.000229	9.6e-05
286.87	0.000298	9.7e-05
289.31	0.000388	9.8e-05
291.71	0.000501	0.0001
294.12	0.000646	0.000102
296.52	0.000829	0.000106

System: benzophenone; phases: Crystal, Gas
Property: Vapor or sublimation pressure, kPa (Crystal); method: Closed cell (Static) method
Temperature, K	Vapor or sublimation pressure, kPa	uncertainty
300.37	0.000119	0.000101
302.88	0.000161	0.000102
305.39	0.00022	0.0001
307.9	0.000302	0.000104
310.26	0.000401	0.000105
312.75	0.000535	0.000107
315.24	0.000708	0.00011
317.73	0.000939	0.000114
320.23	0.001239	0.000119

System: benzophenone; phases: Liquid, Gas
Property: Vapor or sublimation pressure, kPa (Liquid); method: Closed cell (Static) method
Temperature, K	Vapor or sublimation pressure, kPa	uncertainty
302.91	0.000237	0.000102
305.41	0.000306	0.000103
307.91	0.000394	0.000104
310.41	0.000503	0.000106
318.01	0.001028	0.000115
320.51	0.001288	0.00012
323.09	0.001615	0.000127
325.59	0.002005	0.000137
328.11	0.002469	0.000149
330.61	0.003064	0.000167
333.13	0.003771	0.000189
335.64	0.00461	0.000217
338.16	0.005616	0.000252
340.68	0.006814	0.000296
343.21	0.008284	0.00035
345.73	0.009949	0.000412
348.24	0.01196	0.0005
350.76	0.01435	0.00056
353.28	0.01704	0.00061
355.79	0.02035	0.00067
358.31	0.02415	0.00073
360.82	0.02859	0.00081
363.34	0.03356	0.00091
368.37	0.04652	0.00113
370.89	0.0543	0.00127
