Measured thermophysical data. Solubility and density measurements of palmitic acid in supercritical carbon dioxide + alcohol mixtures
Source: Fluid Phase Equilib., 2010, 10.1016/j.fluid.2009.11.007
Compound 1: hexadecanoic acid, C16H32O2, InChI=1S/C16H32O2/c1-2-3-4-5-6-7-8-9-10-11-12-13-14-15-16(17)18/h2-15H2,1H3,(H,17,18)
Compound 2: carbon dioxide, CO2, InChI=1S/CO2/c2-1-3
Compound 3: ethanol, C2H6O, InChI=1S/C2H6O/c1-2-3/h3H,2H2,1H3
Compound 4: propan-2-ol, C3H8O, InChI=1S/C3H8O/c1-3(2)4/h3-4H,1-2H3

System: hexadecanoic acid + carbon dioxide; phases: Gas, Crystal
Property: Mole fraction of hexadecanoic acid (Gas); method: Synthetic Method
Temperature, K	Pressure, kPa	Mole fraction of hexadecanoic acid	uncertainty
313	12110	0.0003534	7.1e-06
313	12880	0.0003912	7.8e-06
313	14570	0.0004968	9.9e-06
313	15520	0.0005624	1.12e-05
313	17070	0.0006302	1.26e-05
313	20150	0.0007923	1.58e-05
313	22930	0.0008981	1.8e-05
318	10140	0.0001436	2.9e-06
318	15560	0.0006078	1.22e-05
318	18410	0.00084	1.68e-05
318	23350	0.001112	2.22e-05

System: hexadecanoic acid + carbon dioxide; phases: Gas
Property: Mass density, kg/m3 (Gas); method: Vibrating tube method
Temperature, K	Mole fraction of hexadecanoic acid	Pressure, kPa	Mass density, kg/m3	uncertainty
313	0.0003534	12110	724.5	1
313	0.0003534	12150	725.8	1
313	0.0003534	12360	731.2	0.5
313	0.0003534	12530	735.3	0.5
313	0.0003534	12770	741	0.5
313	0.0003534	12930	744.7	0.5
313	0.0003534	13150	749.3	0.5
313	0.0003534	13330	753	0.5
313	0.0003534	13680	759.8	0.5
313	0.0003534	13940	764.4	0.5
313	0.0003534	14120	767.7	0.5
313	0.0003534	14410	772.7	0.5
313	0.0003534	14650	776.6	0.5
313	0.0003534	15030	782.7	0.5
313	0.0003534	15570	790.5	0.5
313	0.0003534	16050	797	0.5
313	0.0003534	17040	810.1	0.5
313	0.0003534	18030	821.3	0.5
313	0.0003534	19040	831.8	0.6
313	0.0003534	20050	841.4	0.6
313	0.0003534	21040	850.3	0.6
313	0.0003534	21980	858	0.6
313	0.0003534	22990	866	0.6
313	0.0003534	24050	873.7	0.6
313	0.0004968	14570	774.5	0.5
313	0.0004968	14960	780.9	0.5
313	0.0004968	15970	795.6	0.5
313	0.0004968	17120	810	0.5
313	0.0004968	17620	815.9	0.5
313	0.0004968	18050	820.6	0.5
313	0.0004968	19000	830.5	0.6
313	0.0004968	19960	839.8	0.6
313	0.0004968	21020	849.3	0.6
313	0.0004968	22020	857.5	0.6
313	0.0004968	22790	863.5	0.6
313	0.0004968	24010	872.7	0.6
313	0.0004968	25030	879.6	0.7
313	0.0005357	14940	780.5	0.4
313	0.0005357	16020	795.7	0.6
313	0.0005357	16230	798.5	0.5
313	0.0005357	16430	801.3	0.5
313	0.0005357	16610	803.4	0.5
313	0.0005357	16820	806	0.5
313	0.0005357	17030	808.5	0.5
313	0.0005357	18070	820	0.5
313	0.0005357	19070	830.9	0.5
313	0.0005357	20060	840.4	0.6
313	0.0005357	21050	849.1	0.6
313	0.0005357	22030	857.3	0.6
313	0.0005357	23030	865.1	0.6
313	0.0005357	23990	872.2	0.6
313	0.0005357	24640	876.7	0.7
313	0.0006302	17070	809.1	0.5
313	0.0006302	17500	814.3	0.5
313	0.0006302	17970	819.5	0.5
313	0.0006302	18990	830.2	0.6
313	0.0006302	19990	839.7	0.6
313	0.0006302	21000	848.7	0.4
313	0.0006302	22050	857.5	0.6
313	0.0006302	23000	864.9	0.6
313	0.0006302	24000	872.3	0.6
313	0.0006302	24740	877.4	0.6
313	0.0006348	17610	816.9	0.5
313	0.0006348	17810	819	0.5
313	0.0006348	18010	821	0.5
313	0.0006348	18180	823.1	0.5
313	0.0006348	18300	824.3	0.5
313	0.0006348	18400	825.2	0.6
313	0.0006348	18510	826.4	0.6
313	0.0006348	18600	827.4	0.5
313	0.0006348	18700	828.4	0.5
313	0.0006348	18790	829.4	0.5
313	0.0006348	18910	830.6	0.5
313	0.0006348	19070	832.2	0.5
313	0.0006348	20090	841.8	0.6
313	0.0006348	21010	849.8	0.4
313	0.0006348	22020	858.2	0.6
313	0.0006348	23050	866	0.6
313	0.0006348	23790	871.5	0.6
313	0.0007923	20150	843.3	0.6
313	0.0007923	20300	844.6	0.6
313	0.0007923	20540	846.7	0.6
313	0.0007923	20740	848.5	0.6
313	0.0007923	20940	850.2	0.6
313	0.0007923	21120	851.7	0.6
313	0.0007923	21300	853.3	0.6
313	0.0007923	21520	855	0.7
313	0.0007923	21710	856.7	0.6
313	0.0007923	21970	858.7	0.6
313	0.0007923	22230	860.8	0.6
313	0.0007923	22650	864	0.6
313	0.0007923	22910	865.9	0.6
313	0.0007923	23520	868.9	0.6
313	0.0007923	24020	871.6	0.6
313	0.0008682	21700	855	0.7
313	0.0008682	22020	857.3	0.6
313	0.0008682	22470	861	0.6
313	0.0008682	23070	865.7	0.5
313	0.0008682	23550	869.1	0.6
313	0.0008682	24040	872.7	0.6
313	0.0008682	24460	875.8	0.6
313	0.0008981	22930	864.8	0.7
313	0.0008981	23280	867.3	0.6
313	0.0008981	23570	869.5	0.6
313	0.0008981	23810	871.1	0.6
313	0.0008981	24010	872.6	0.5
313	0.0008981	24780	877.9	0.6
318	0.0001436	10140	535.9	1.3
318	0.0001436	10290	551.9	1.3
318	0.0001436	10550	577.8	1.2
318	0.0001436	10890	604.2	1.2
318	0.0001436	11230	626.2	1.2
318	0.0001436	11520	641.2	1.2
318	0.0001436	11870	657.3	1.2
318	0.0001436	12190	670.6	1.2
318	0.0001436	12480	680.9	1.2
318	0.0001436	12820	692	1.2
318	0.0001436	13110	700.3	1.2
318	0.0001436	13390	708.3	1.3
318	0.0001436	13730	716.8	1.3
318	0.0001436	14030	723.9	1.3
318	0.0001436	14520	734.8	1.3
318	0.0001436	14990	744	1.3
318	0.0001436	16050	762.8	0.6
318	0.0001436	17010	777.4	0.6
318	0.0001436	17690	786.8	0.5
318	0.0001436	18080	791.8	0.5
318	0.0001436	18990	802.8	0.5
318	0.0001436	19750	811.4	0.5
318	0.001112	23350	845.5	0.6
318	0.001112	23920	849.8	0.6
318	0.001112	24050	850.8	0.6
318	0.001112	24090	851.1	0.6
318	0.001112	24270	852.5	0.6
318	0.001112	24430	853.7	0.6
318	0.001112	24510	854.2	0.6
318	0.001112	24610	855	0.6
318	0.001112	24770	856.3	0.6
318	0.001112	24930	857.5	0.6
318	0.001112	25040	858.3	0.6
318	0.001828	21720	831.3	0.5
318	0.001828	21990	833.9	0.5
318	0.001828	22510	838.4	0.5
318	0.001828	23010	842.7	0.5
318	0.001828	23520	846.9	0.6
318	0.001828	24050	850.9	0.6
318	0.001828	24560	854.7	0.6

System: hexadecanoic acid + ethanol + carbon dioxide; phases: Gas, Liquid
Fixed: Temperature, K = 313
Property: Mole fraction of hexadecanoic acid (Gas); method: Synthetic Method
Mole fraction of ethanol	Pressure, kPa	Mole fraction of hexadecanoic acid	uncertainty
0.03	8210	0.00101	4e-05
0.03	9040	0.00207	3e-05
0.03	12030	0.00345	3e-05
0.03	14070	0.00426	3e-05
0.03	18320	0.0057	4e-05
0.03	24610	0.0059	3e-05
0.06	10410	0.00581	4e-05
0.06	12730	0.00827	4e-05
0.06	15130	0.0109	4e-05
0.06	17190	0.0135	4e-05
0.06	22760	0.0157	4e-05

System: hexadecanoic acid + ethanol + carbon dioxide; phases: Gas
Fixed: Temperature, K = 313
Property: Mass density, kg/m3 (Gas); method: Vibrating tube method
Mole fraction of ethanol	Mole fraction of hexadecanoic acid	Pressure, kPa	Mass density, kg/m3	uncertainty
0.03	0.00101	8210	618.4	1.6
0.03	0.00101	8670	657.4	1.2
0.03	0.00101	9580	710.9	0.9
0.03	0.00101	10540	721.4	0.8
0.03	0.00101	11560	730.1	0.8
0.03	0.00101	12580	746.5	0.8
0.03	0.00101	13610	759.3	0.8
0.03	0.00101	14630	773.3	0.8
0.03	0.00101	15570	784.8	0.7
0.03	0.00101	16560	809.2	0.6
0.03	0.00101	17470	826.8	0.6
0.03	0.00101	18120	833.1	0.6
0.03	0.00101	18540	836.7	0.6
0.03	0.00101	18720	838.2	0.6
0.03	0.00101	18950	840.2	0.6
0.03	0.00101	19150	841.9	0.6
0.03	0.00101	19350	843.6	0.6
0.03	0.00101	19550	845.4	0.6
0.03	0.00101	19740	846.9	0.6
0.03	0.00101	19940	848.5	0.5
0.03	0.00101	20290	851.2	0.6
0.03	0.00101	20630	853.8	0.5
0.03	0.00101	20980	856.6	0.5
0.03	0.00101	21150	857.8	0.5
0.03	0.00101	21280	858.7	0.5
0.03	0.00101	21440	859.9	0.6
0.03	0.00101	21620	861.2	0.5
0.03	0.00101	21820	862.6	0.5
0.03	0.00101	22490	867.7	0.5
0.03	0.00101	23040	871	0.5
0.03	0.00101	23950	877.1	0.5
0.03	0.00101	25040	883.6	0.5
0.03	0.00207	9030	661.9	1
0.03	0.00207	10100	709.8	0.8
0.03	0.00207	11000	735.2	0.7
0.03	0.00207	12020	756.9	0.7
0.03	0.00207	13060	774.9	0.7
0.03	0.00207	14080	789.6	0.6
0.03	0.00207	15020	801.8	0.6
0.03	0.00207	16070	813.8	0.6
0.03	0.00207	17010	823.5	0.6
0.03	0.00207	17980	832.7	0.6
0.03	0.00207	18950	841.3	0.6
0.03	0.00207	20040	850.1	0.5
0.03	0.00207	21030	857.6	0.5
0.03	0.00207	22040	864.8	0.5
0.03	0.00207	23010	871.4	0.5
0.03	0.00207	23990	877.7	0.5
0.03	0.00207	25040	884.1	0.5
0.03	0.00345	12030	755.7	0.8
0.03	0.00345	12250	759.8	0.8
0.03	0.00345	12470	763.7	0.8
0.03	0.00345	12690	767.7	0.7
0.03	0.00345	12940	771.7	0.7
0.03	0.00345	13530	780.9	0.7
0.03	0.00345	14080	788.9	0.6
0.03	0.00345	14990	800.7	0.6
0.03	0.00345	16100	813.5	0.6
0.03	0.00345	17010	823.1	0.6
0.03	0.00345	18050	833.3	0.6
0.03	0.00345	18970	841.1	0.6
0.03	0.00345	20020	849.7	0.5
0.03	0.00345	20970	857.1	0.5
0.03	0.00345	21980	864.4	0.5
0.03	0.00345	22990	871.4	0.5
0.03	0.00345	24010	877.8	0.5
0.03	0.00345	24890	883.1	0.5
0.03	0.00426	14070	791.5	0.6
0.03	0.00426	15060	803.9	0.7
0.03	0.00426	16120	815.7	0.7
0.03	0.00426	17010	824.7	0.7
0.03	0.00426	18050	834.3	0.6
0.03	0.00426	18930	841.9	0.6
0.03	0.00426	20040	850.7	0.5
0.03	0.00426	21020	858.1	0.5
0.03	0.00426	22020	865.1	0.5
0.03	0.00426	22960	871.6	0.6
0.03	0.00426	24030	878.2	0.5
0.03	0.00426	25060	884.4	0.5
0.03	0.0057	18320	832.8	0.5
0.03	0.0057	18760	838.1	0.5
0.03	0.0057	19080	842.7	0.5
0.03	0.0057	19460	847.1	0.5
0.03	0.0057	19950	849.8	0.5
0.03	0.0057	20950	857.3	0.5
0.03	0.0057	21540	861.7	0.5
0.03	0.0057	22110	865.5	0.5
0.03	0.0057	22620	869.1	0.5
0.03	0.0057	23620	875.5	0.5
0.03	0.0057	23860	877	0.5
0.03	0.0057	24100	878.5	0.5
0.03	0.0057	24380	880.2	0.4
0.03	0.0057	24690	882	0.4
0.03	0.0057	24980	883.7	0.4
0.03	0.0059	4610	881.2	1.7
0.03	0.0059	24750	882.2	0.5
0.03	0.0059	24900	883.3	0.4
0.03	0.0059	25070	884.1	0.4
0.06	0.00581	10410	748.8	0.7
0.06	0.00581	11050	766	0.6
0.06	0.00581	12050	781.9	0.6
0.06	0.00581	13020	794.8	0.6
0.06	0.00581	14040	806.5	0.6
0.06	0.00581	15030	816.8	0.6
0.06	0.00581	16060	826.3	0.6
0.06	0.00581	16990	834.4	0.5
0.06	0.00581	18040	842.6	0.5
0.06	0.00581	19020	850	0.5
0.06	0.00581	20000	856.7	0.5
0.06	0.00581	21100	863.9	0.5
0.06	0.00581	22020	869.6	0.5
0.06	0.00581	23010	875.5	0.5
0.06	0.00581	24000	881.1	0.4
0.06	0.00581	25110	887	0.4
0.06	0.00827	12730	792.1	0.6
0.06	0.00827	12870	794	0.6
0.06	0.00827	13050	796.3	0.6
0.06	0.00827	13500	801.8	0.6
0.06	0.00827	13990	807.3	0.6
0.06	0.00827	15020	818	0.6
0.06	0.00827	16050	827.4	0.6
0.06	0.00827	17010	835.5	0.6
0.06	0.00827	18060	844.1	0.6
0.06	0.00827	19030	850.8	0.6
0.06	0.00827	19990	853.5	0.6
0.06	0.00827	20960	863.9	0.6
0.06	0.00827	22010	870.3	0.6
0.06	0.00827	23010	876.1	0.6
0.06	0.00827	23980	881.6	0.6
0.06	0.00827	25000	887.1	0.6
0.06	0.0109	15130	820.7	0.7
0.06	0.0109	15240	821.7	0.6
0.06	0.0109	15380	823.2	0.6
0.06	0.0109	15640	825.4	0.6
0.06	0.0109	15860	827.5	0.6
0.06	0.0109	16040	828.9	0.6
0.06	0.0109	16520	833.1	0.6
0.06	0.0109	17020	837.2	0.6
0.06	0.0109	18060	845.3	0.6
0.06	0.0109	19000	852	0.6
0.06	0.0109	20010	858.7	0.6
0.06	0.0109	20970	864.9	0.6
0.06	0.0109	22100	871.6	0.6
0.06	0.0109	22970	876.7	0.6
0.06	0.0109	23990	882.4	0.6
0.06	0.0109	25030	887.8	0.6
0.06	0.0135	17190	838.2	0.6
0.06	0.0135	17310	839.3	0.6
0.06	0.0135	17480	840.6	0.6
0.06	0.0135	17950	844.1	0.6
0.06	0.0135	18460	847.9	0.6
0.06	0.0135	18960	851.5	0.6
0.06	0.0135	19460	854.9	0.6
0.06	0.0135	20020	858.7	0.6
0.06	0.0135	20970	864.8	0.6
0.06	0.0135	22100	871.5	0.6
0.06	0.0135	22980	876.5	0.6
0.06	0.0135	23990	882.3	0.6
0.06	0.0135	25090	887.9	0.7
0.06	0.0157	22760	874.3	0.7
0.06	0.0157	22990	875.4	0.6
0.06	0.0157	23520	878.5	0.6
0.06	0.0157	24500	883.8	0.7
0.06	0.0157	24730	884.9	0.6
0.06	0.0157	24910	886	0.7
0.06	0.0157	25070	886.6	0.7

System: hexadecanoic acid + propan-2-ol + carbon dioxide; phases: Gas, Liquid
Fixed: Temperature, K = 313
Property: Mole fraction of hexadecanoic acid (Gas); method: Synthetic Method
Mole fraction of propan-2-ol	Pressure, kPa	Mole fraction of hexadecanoic acid	uncertainty
0.03	11280	0.00351	3e-05
0.03	12980	0.0043	3e-05
0.03	17860	0.00554	3e-05
0.03	18350	0.0061	3e-05
0.03	18760	0.00622	3e-05
0.06	10900	0.00806	4e-05
0.06	12870	0.0106	4e-05
0.06	15020	0.0137	3e-05
0.06	20690	0.0162	4e-05

System: hexadecanoic acid + propan-2-ol + carbon dioxide; phases: Gas
Fixed: Temperature, K = 313
Property: Mass density, kg/m3 (Gas); method: Vibrating tube method
Mole fraction of propan-2-ol	Mole fraction of hexadecanoic acid	Pressure, kPa	Mass density, kg/m3	uncertainty
0.03	0.00351	11280	744.1	1.2
0.03	0.00351	11490	748.6	0.6
0.03	0.00351	11620	751.3	0.6
0.03	0.00351	11800	754.7	0.6
0.03	0.00351	12030	758.9	0.6
0.03	0.00351	12980	774.7	0.5
0.03	0.00351	14020	789.4	0.5
0.03	0.00351	14960	801.1	0.5
0.03	0.00351	15940	812.3	0.5
0.03	0.00351	17030	823	0.5
0.03	0.00351	18050	832.4	0.5
0.03	0.00351	19060	841	0.5
0.03	0.00351	20060	848.9	0.5
0.03	0.00351	20930	855.3	0.5
0.03	0.00351	22000	862.9	0.5
0.03	0.00351	23020	869.5	0.5
0.03	0.00351	24020	875.9	0.5
0.03	0.00351	25000	881.9	0.5
0.03	0.0043	12980	775.3	0.5
0.03	0.0043	13140	777.6	0.5
0.03	0.0043	13320	780.2	0.5
0.03	0.0043	13510	782.9	0.5
0.03	0.0043	14030	790.1	0.5
0.03	0.0043	14390	794.6	0.5
0.03	0.0043	14960	801.5	0.5
0.03	0.0043	15550	808.1	0.5
0.03	0.0043	16020	813.2	0.5
0.03	0.0043	17040	823.4	0.5
0.03	0.0043	18030	832.5	0.5
0.03	0.0043	19050	841.2	0.5
0.03	0.0043	20080	849.2	0.5
0.03	0.0043	20990	856	0.5
0.03	0.0043	21990	862.9	0.5
0.03	0.0043	23010	869.7	0.5
0.03	0.0043	23990	875.7	0.5
0.03	0.0043	24960	881.7	0.5
0.03	0.00554	17860	830.9	0.5
0.03	0.00554	18040	833	0.5
0.03	0.00554	18520	837.1	0.5
0.03	0.00554	18970	840.7	0.5
0.03	0.00554	19440	844.8	0.5
0.03	0.00554	20070	849.4	0.5
0.03	0.00554	20530	852.9	0.5
0.03	0.00554	21020	856.5	0.5
0.03	0.00554	21560	860.3	0.5
0.03	0.00554	21990	863.4	0.5
0.03	0.00554	22580	867.1	0.5
0.03	0.00554	22780	868.6	0.5
0.03	0.00554	22960	869.6	0.5
0.03	0.00554	23020	870.3	0.5
0.03	0.00554	23140	870.7	0.5
0.03	0.00554	23280	871.7	0.5
0.03	0.00554	23480	872.9	0.5
0.03	0.00554	23650	874.1	0.5
0.03	0.00554	23960	875.8	0.5
0.03	0.00554	24010	876.1	0.5
0.03	0.00554	24980	882.2	0.5
0.03	0.00554	25030	882.2	0.5
0.03	0.0061	18350	834.8	0.5
0.03	0.0061	18480	835.9	0.5
0.03	0.0061	18640	837.1	0.5
0.03	0.0061	18990	840.2	0.5
0.03	0.0061	19510	844.4	0.5
0.03	0.0061	20010	848.3	0.5
0.03	0.0061	20450	851.6	0.5
0.03	0.0061	20970	855.5	0.5
0.03	0.0061	21490	859.2	0.5
0.03	0.0061	22010	862.8	0.5
0.03	0.0061	22490	866	0.5
0.03	0.0061	22970	869.2	0.5
0.03	0.0061	23490	872.4	0.6
0.03	0.0061	23970	875.4	0.5
0.03	0.0061	24490	878.6	0.6
0.03	0.0061	25140	882.2	0.5
0.03	0.00622	18760	835.9	0.5
0.03	0.00622	18990	837.9	0.5
0.03	0.00622	19500	842.3	0.5
0.03	0.00622	20010	846.3	0.5
0.03	0.00622	20500	850.2	0.5
0.03	0.00622	20990	853.9	0.5
0.03	0.00622	21490	857.6	0.5
0.03	0.00622	22010	861.2	0.5
0.03	0.00622	22480	864.5	0.5
0.03	0.00622	22970	867.8	0.5
0.03	0.00622	23490	871.1	0.5
0.03	0.00622	23930	873.8	0.5
0.03	0.00622	24500	877.4	0.6
0.03	0.00622	25140	881.3	0.5
0.06	0.00806	10900	764.8	0.5
0.06	0.00806	11050	767.2	0.5
0.06	0.00806	11220	769.8	0.5
0.06	0.00806	11530	774.4	0.5
0.06	0.00806	11850	778.9	0.5
0.06	0.00806	12030	781.3	0.5
0.06	0.00806	12530	787.9	0.5
0.06	0.00806	13050	794.1	0.5
0.06	0.00806	13990	804.6	0.5
0.06	0.00806	15040	815.2	0.5
0.06	0.00806	16060	824.5	0.5
0.06	0.00806	17030	832.5	0.5
0.06	0.00806	18040	840.4	0.5
0.06	0.00806	18940	846.8	0.5
0.06	0.00806	19990	854.1	0.5
0.06	0.00806	20970	860.4	0.5
0.06	0.00806	22010	866.8	0.5
0.06	0.00806	23020	872.7	0.5
0.06	0.00806	24010	878.3	0.5
0.06	0.00806	25080	883.9	0.5
0.06	0.0106	12870	792.6	0.5
0.06	0.0106	12970	793.9	0.5
0.06	0.0106	13260	797	0.5
0.06	0.0106	13500	799.9	0.5
0.06	0.0106	14000	805.4	0.5
0.06	0.0106	14490	810.3	0.5
0.06	0.0106	15050	815.8	0.5
0.06	0.0106	16080	825.2	0.5
0.06	0.0106	17050	833.3	0.5
0.06	0.0106	18020	840.8	0.5
0.06	0.0106	18950	847.3	0.5
0.06	0.0106	20030	854.8	0.5
0.06	0.0106	21010	861.1	0.5
0.06	0.0106	22050	867.4	0.5
0.06	0.0106	23010	872.9	0.5
0.06	0.0106	24060	878.7	0.5
0.06	0.0106	25090	884	0.5
0.06	0.0137	15020	820.5	0.5
0.06	0.0137	15190	821.5	0.5
0.06	0.0137	15310	822.6	0.5
0.06	0.0137	15530	824.4	0.5
0.06	0.0137	16060	828.8	0.5
0.06	0.0137	16520	832.5	0.5
0.06	0.0137	17020	836.3	0.5
0.06	0.0137	18040	843.7	0.5
0.06	0.0137	18980	850.1	0.5
0.06	0.0137	20040	856.9	0.5
0.06	0.0137	20960	862.4	0.5
0.06	0.0137	22030	868.6	0.5
0.06	0.0137	22970	873.7	0.5
0.06	0.0137	24060	879.4	0.5
0.06	0.0137	25090	884.6	0.5
0.06	0.0162	20690	863.3	0.5
0.06	0.0162	20810	863.9	0.5
0.06	0.0162	20930	864.6	0.5
0.06	0.0162	21210	866.2	0.5
0.06	0.0162	21500	867.7	0.5
0.06	0.0162	22050	870.9	0.5
0.06	0.0162	22970	875.9	0.5
0.06	0.0162	23940	880.9	0.5
0.06	0.0162	25080	886.5	0.5
