Measured thermophysical data. Vapor-liquid equilibrium data for the dimethyl ether (RE170) + decafluorobutane (R3-1-10) system at temperatures from 313.28 to 392.83 K and pressures up to 4.9 MPa
Source: Fluid Phase Equilib., 2012, 10.1016/j.fluid.2011.11.026
Compound 1: dimethyl ether, C2H6O, InChI=1S/C2H6O/c1-3-2/h1-2H3, purity 99.9%
Compound 2: decafluorobutane, C4F10, InChI=1S/C4F10/c5-1(6,3(9,10)11)2(7,8)4(12,13)14, purity 98%

System: dimethyl ether; phases: Liquid, Gas
Property: Vapor or sublimation pressure, kPa (Liquid); method: Closed cell (Static) method
Temperature, K	Vapor or sublimation pressure, kPa	uncertainty
296.78	571.9	1.2
303.46	690.2	1.3
308.54	793.1	1.5
312.26	875.3	1.7
317.17	993.3	1.8
322.08	1122	2.1
327.08	1265.6	2.3
332.09	1423.5	2.6
337	1591.1	2.9
341.97	1773.8	3.2
347	1976.2	3.5
351.89	2187.4	3.9
356.91	2422.2	4.2
361.94	2675.2	4.7
366.96	2946.3	5.1
371.84	3230.3	5.6
376.91	3546.4	6.1
379.82	3739	6.4
382.88	3950.3	6.8
385.83	4161.9	7.1
387.81	4309.6	7.4
389.81	4463.7	7.6
391.86	4625.6	7.9
393.81	4783	8.1
395.74	4943.6	8.4

System: decafluorobutane; phases: Liquid, Gas
Property: Vapor or sublimation pressure, kPa (Liquid); method: Closed cell (Static) method
Temperature, K	Vapor or sublimation pressure, kPa	uncertainty
263.15	72.7	0.5
268.12	89.6	0.5
273.09	109.4	0.5
278	132.4	0.6
282.99	159	0.6
287.91	189.3	0.7
292.97	225.4	0.8
297.95	265.3	0.8
302.9	310.2	0.9
308.21	364.3	1.1
312.88	417.8	1.2
317.88	481.2	1.4
323.22	556.4	1.5
328.15	633.7	1.7
332.91	716.1	2
337.93	811	2.2
342.91	913	2.5
347.93	1025.8	2.8
352.92	1149.2	3.1
357.1	1261.3	3.4
363.13	1437.8	3.8
368.03	1594.1	4.3
373.25	1775.9	4.7
376.88	1912.1	5.1
379.05	1997.7	5.3

System: dimethyl ether + decafluorobutane; phases: Liquid, Gas
Property: Azeotropic composition: mole fraction of dimethyl ether (Liquid); method: By X=Y
Pressure, kPa	Azeotropic composition: mole fraction of dimethyl ether	uncertainty
1060	0.767	0.018
1530	0.763	0.018
2110	0.77	0.018
2820	0.752	0.018
3310	0.757	0.018

System: dimethyl ether + decafluorobutane; phases: Liquid, Gas
Property: Azeotropic composition: mole fraction of dimethyl ether (Liquid); method: By X=Y
Temperature, K	Azeotropic composition: mole fraction of dimethyl ether	uncertainty
313.28	0.767	0.018
328.16	0.763	0.018
343.1	0.77	0.018
357.12	0.752	0.018
365.3	0.757	0.018

System: dimethyl ether + decafluorobutane; phases: Liquid, Gas
Property: Vapor or sublimation pressure, kPa (Liquid); method: Closed cell (Static) method
Mole fraction of dimethyl ether	Temperature, K	Vapor or sublimation pressure, kPa	uncertainty
0.0218	379.05	2105.7	81.2
0.0293	328.16	719.9	44.8
0.0315	313.28	494.9	39.2
0.0468	373.36	1989.7	71.7
0.051	343.1	1086.5	46.2
0.0512	379.05	2237.2	78.7
0.0576	357.12	1482.6	53
0.0581	328.16	797.8	46.4
0.0669	313.28	571.9	36.1
0.0794	379.05	2354.8	74.1
0.0916	328.16	881	50.3
0.096	373.36	2197.9	75.8
0.1109	379.05	2480	73.2
0.1133	313.28	659.1	28.9
0.1158	343.1	1278.4	48.6
0.1192	328.16	943.4	34.9
0.1195	357.12	1699.8	57.7
0.1216	379.05	2525.5	71.3
0.1355	379.05	2579.9	74.1
0.1458	373.36	2398.3	70
0.153	379.05	2641.5	67.6
0.1576	328.16	1019.1	48.5
0.1884	313.28	767.3	24.7
0.1901	343.1	1459.5	39.9
0.1939	328.16	1085.2	29.6
0.195	357.12	1935.4	52.7
0.1979	373.36	2589.4	62.2
0.2367	328.16	1155.4	35.2
0.252	313.28	847.3	18.2
0.254	365.3	2422.3	48.9
0.2567	373.36	2774.9	53.9
0.2735	357.12	2147.1	45
0.2882	343.1	1660.2	31.9
0.2907	328.16	1231.5	23.7
0.3126	373.36	2924	42.4
0.3514	328.16	1302.9	18.7
0.3558	373.36	2996.2	32.5
0.3579	313.28	937.7	13.1
0.37	357.12	2368.6	36.6
0.3943	365.3	2794.3	44.8
0.4154	343.1	1862.4	20.8
0.4458	328.16	1388.4	15
0.4721	313.28	1000.6	8.1
0.4935	365.3	2995.8	30.5
0.5032	357.12	2599.9	23.4
0.5414	328.16	1452.1	6.3
0.6405	313.28	1049.9	4.6
0.6451	343.1	2072.5	19.5
0.6778	365.3	3248.5	23.2
0.7233	357.12	2794.4	14.5
0.7406	328.16	1516.4	6.7
0.7577	343.1	2106	9.5
0.76	365.3	3281.8	11.3
0.8066	343.1	2104.2	8.2
0.8202	373.36	3796.3	24.7
0.8244	365.3	3266.1	15.3
0.8349	328.16	1512.8	6.1
0.8353	357.12	2785.1	13.4
0.8397	379.05	4193.8	28.9
0.8528	313.28	1054.5	4.2
0.8668	373.36	3751.4	28.7
0.8812	379.05	4135.1	35.2
0.8903	365.3	3200.7	27.4
0.9001	343.1	2057.5	9.6
0.9005	385.84	4583	37.1
0.9076	328.16	1480.7	12.6
0.9167	373.36	3657.8	41.8
0.9173	379.05	4052.5	47.6
0.9222	357.12	2690.4	24.1
0.9248	385.84	4537.1	51.6
0.9347	343.1	2012.8	32.4
0.9403	365.3	3100.4	45.5
0.9462	379.05	3964.5	60.2
0.9487	328.16	1436.1	5.6
0.9489	385.84	4449.7	73
0.9495	373.36	3564.8	63.7
0.9518	313.28	1003.2	15.2
0.9603	392.83	4949.8	100.4
0.9637	357.12	2589.3	34.6
0.9649	379.05	3888.6	68.5
0.9661	328.16	1404.2	13.5
0.9705	385.84	4348.1	97.7
0.9708	343.1	1933.6	21.6
0.972	365.3	2995.3	52.2
0.9746	392.83	4880.5	123.3
0.9764	373.36	3454	65.7
0.9821	379.05	3802.1	77.8
0.9856	392.83	4810.5	80.7
0.9875	385.84	4251.6	61.7
0.9897	313.28	931.6	19.7
0.9928	385.84	4215.9	41
0.9955	392.83	4738.5	34.1

System: dimethyl ether + decafluorobutane; phases: Gas, Liquid
Property: Mole fraction of dimethyl ether (Gas); method: Chromatography
Mole fraction of dimethyl ether	Temperature, K	Mole fraction of dimethyl ether	uncertainty
0.0218	379.05	0.036	0.0316
0.0293	328.16	0.1187	0.0598
0.0315	313.28	0.1509	0.064
0.0468	373.36	0.0822	0.0319
0.051	343.1	0.151	0.0405
0.0512	379.05	0.0784	0.0301
0.0576	357.12	0.1352	0.0361
0.0581	328.16	0.209	0.0516
0.0669	313.28	0.2716	0.0507
0.0794	379.05	0.1131	0.0273
0.0916	328.16	0.2869	0.0419
0.096	373.36	0.1553	0.0303
0.1109	379.05	0.1465	0.0256
0.1133	313.28	0.3681	0.0355
0.1158	343.1	0.285	0.0356
0.1192	328.16	0.3411	0.0366
0.1195	357.12	0.2417	0.032
0.1216	379.05	0.1578	0.0246
0.1355	379.05	0.1695	0.0247
0.1458	373.36	0.2176	0.0274
0.153	379.05	0.1806	0.0223
0.1576	328.16	0.4029	0.0299
0.1884	313.28	0.4788	0.0306
0.1901	343.1	0.3884	0.0278
0.1939	328.16	0.4475	0.028
0.195	357.12	0.3407	0.0281
0.1979	373.36	0.2712	0.0244
0.2367	328.16	0.4934	0.0251
0.252	313.28	0.5538	0.024
0.254	365.3	0.3674	0.0239
0.2567	373.36	0.318	0.0222
0.2735	357.12	0.4241	0.0253
0.2882	343.1	0.486	0.0241
0.2907	328.16	0.5371	0.0233
0.3126	373.36	0.351	0.0201
0.3514	328.16	0.5814	0.0216
0.3558	373.36	0.3619	0.019
0.3579	313.28	0.6235	0.021
0.37	357.12	0.5083	0.0233
0.3943	365.3	0.4856	0.0237
0.4154	343.1	0.5791	0.0216
0.4458	328.16	0.6331	0.0206
0.4721	313.28	0.675	0.0195
0.4935	365.3	0.5586	0.0231
0.5032	357.12	0.6001	0.0219
0.5414	328.16	0.6782	0.0198
0.6405	313.28	0.7293	0.0192
0.6451	343.1	0.7066	0.0207
0.6778	365.3	0.6988	0.023
0.7233	357.12	0.7385	0.0215
0.7406	328.16	0.757	0.0196
0.7577	343.1	0.7623	0.0203
0.76	365.3	0.7666	0.0225
0.8066	343.1	0.7886	0.0213
0.8202	373.36	0.808	0.0228
0.8244	365.3	0.8069	0.0222
0.8349	328.16	0.7984	0.0204
0.8353	357.12	0.8105	0.0223
0.8397	379.05	0.8363	0.0216
0.8528	313.28	0.8026	0.02
0.8668	373.36	0.8459	0.0238
0.8812	379.05	0.8635	0.0227
0.8903	365.3	0.8594	0.0239
0.9001	343.1	0.8513	0.0223
0.9005	385.84	0.8991	0.0205
0.9076	328.16	0.8447	0.0228
0.9167	373.36	0.891	0.0255
0.9173	379.05	0.8959	0.0249
0.9222	357.12	0.8822	0.0245
0.9248	385.84	0.9123	0.0224
0.9347	343.1	0.8857	0.028
0.9403	365.3	0.9084	0.0268
0.9462	379.05	0.9258	0.0268
0.9487	328.16	0.8887	0.0266
0.9489	385.84	0.9347	0.0258
0.9495	373.36	0.9294	0.0278
0.9518	313.28	0.8825	0.027
0.9603	392.83	0.9575	0.0247
0.9637	357.12	0.933	0.0289
0.9649	379.05	0.9482	0.0287
0.9661	328.16	0.9166	0.0283
0.9705	385.84	0.9591	0.0287
0.9708	343.1	0.9352	0.0301
0.972	365.3	0.9502	0.0296
0.9746	392.83	0.9683	0.0283
0.9764	373.36	0.9606	0.0274
0.9821	379.05	0.97	0.0287
0.9856	392.83	0.9812	0.0188
0.9875	385.84	0.9814	0.0186
0.9897	313.28	0.9655	0.0289
0.9928	385.84	0.989	0.011
0.9955	392.83	0.9937	0.0063
