Measured thermophysical data. Assessing the activity coefficients of water in cholinium-based ionic liquids: Experimental measurements and COSMO-RS modeling
Source: Fluid Phase Equilib., 2014, 10.1016/j.fluid.2013.10.032
Compound 1: water, H2O, InChI=1S/H2O/h1H2, purity 99.8%
Compound 2: choline chloride, C5H14ClNO, InChI=1S/C5H14NO.ClH/c1-6(2,3)4-5-7;/h7H,4-5H2,1-3H3;1H/q+1;/p-1
Compound 3: choline acetate, C7H17NO3, InChI=1S/C5H14NO.C2H4O2/c1-6(2,3)4-5-7;1-2(3)4/h7H,4-5H2,1-3H3;1H3,(H,3,4)/q+1;/p-1
Compound 4: cholinium bicarbonate, C6H15NO4, InChI=1S/C5H14NO.CH2O3/c1-6(2,3)4-5-7;2-1(3)4/h7H,4-5H2,1-3H3;(H2,2,3,4)/q+1;/p-1
Compound 5: cholinium salicylate, C12H19NO4, InChI=1S/C7H6O3.C5H14NO/c8-6-4-2-1-3-5(6)7(9)10;1-6(2,3)4-5-7/h1-4,8H,(H,9,10);7H,4-5H2,1-3H3/q;+1/p-1
Compound 6: choline dihydrogen phosphate, C5H16NO5P, InChI=1S/C5H14NO.H3O4P/c1-6(2,3)4-5-7;1-5(2,3)4/h7H,4-5H2,1-3H3;(H3,1,2,3,4)/q+1;/p-1
Compound 7: cholinium bitartrate, C9H19NO7, InChI=1S/C5H14NO.C4H6O6/c1-6(2,3)4-5-7;5-1(3(7)8)2(6)4(9)10/h7H,4-5H2,1-3H3;1-2,5-6H,(H,7,8)(H,9,10)/q+1;/p-1/t;1-,2-/m.1/s1
Compound 8: cholinium dihydrogen citrate, C11H21NO8, InChI=1S/C6H8O7.C5H14NO/c7-3(8)1-6(13,5(11)12)2-4(9)10;1-6(2,3)4-5-7/h13H,1-2H2,(H,7,8)(H,9,10)(H,11,12);7H,4-5H2,1-3H3/q;+1/p-1
Compound 9: choline glycolate, C7H17NO4, InChI=1S/C5H14NO.C2H4O3/c1-6(2,3)4-5-7;3-1-2(4)5/h7H,4-5H2,1-3H3;3H,1H2,(H,4,5)/q+1;/p-1
Compound 10: choline lactate, C8H19NO4, InChI=1S/C5H14NO.C3H6O3/c1-6(2,3)4-5-7;1-2(4)3(5)6/h7H,4-5H2,1-3H3;2,4H,1H3,(H,5,6)/q+1;/p-1

System: choline chloride + water; phases: Liquid
Fixed: Pressure, kPa = 101
Fixed: Temperature, K = 298.2
Property: Activity coefficient of water (Liquid); method: Calculated from EMF cell potential
Mole fraction of water	Activity coefficient of water	uncertainty
0.985	0.987	0.001
0.969	0.975	0.001
0.948	0.955	0.001
0.92	0.917	0.001
0.887	0.859	0.001
0.84	0.772	0.001
0.772	0.632	0.001
0.668	0.448	0.001

System: water + choline acetate; phases: Liquid
Fixed: Pressure, kPa = 101
Fixed: Temperature, K = 298.2
Property: Activity coefficient of water (Liquid); method: Calculated from EMF cell potential
Mole fraction of water	Activity coefficient of water	uncertainty
0.988	0.984	0.001
0.97	0.961	0.001
0.955	0.93	0.001
0.931	0.867	0.001
0.903	0.776	0.001
0.858	0.618	0.001
0.797	0.446	0.001
0.697	0.257	0.001

System: cholinium bicarbonate + water; phases: Liquid
Fixed: Pressure, kPa = 101
Fixed: Temperature, K = 298.2
Property: Activity coefficient of water (Liquid); method: Calculated from EMF cell potential
Mole fraction of water	Activity coefficient of water	uncertainty
0.988	0.992	0.001
0.974	0.988	0.001
0.958	0.982	0.001
0.939	0.97	0.001
0.917	0.949	0.001
0.887	0.908	0.001
0.854	0.862	0.001
0.742	0.69	0.001
0.647	0.57	0.001

System: cholinium salicylate + water; phases: Liquid
Fixed: Pressure, kPa = 101
Fixed: Temperature, K = 298.2
Property: Activity coefficient of water (Liquid); method: Calculated from EMF cell potential
Mole fraction of water	Activity coefficient of water	uncertainty
0.982	0.99	0.001
0.968	0.989	0.001
0.952	0.986	0.001
0.93	0.981	0.001
0.9	0.963	0.001
0.854	0.928	0.001

System: water + choline dihydrogen phosphate; phases: Liquid
Fixed: Pressure, kPa = 101
Fixed: Temperature, K = 298.2
Property: Activity coefficient of water (Liquid); method: Calculated from EMF cell potential
Mole fraction of water	Activity coefficient of water	uncertainty
0.99	0.988	0.001
0.978	0.981	0.001
0.963	0.967	0.001
0.942	0.943	0.001
0.918	0.906	0.001
0.882	0.841	0.001
0.831	0.733	0.001

System: cholinium bitartrate + water; phases: Liquid
Fixed: Pressure, kPa = 101
Fixed: Temperature, K = 298.2
Property: Activity coefficient of water (Liquid); method: Calculated from EMF cell potential
Mole fraction of water	Activity coefficient of water	uncertainty
0.992	0.988	0.001
0.983	0.984	0.001
0.97	0.972	0.001
0.955	0.959	0.001
0.935	0.933	0.001
0.908	0.892	0.001
0.892	0.865	0.001

System: cholinium dihydrogen citrate + water; phases: Liquid
Fixed: Pressure, kPa = 101
Fixed: Temperature, K = 298.2
Property: Activity coefficient of water (Liquid); method: Calculated from EMF cell potential
Mole fraction of water	Activity coefficient of water	uncertainty
0.993	0.991	0.001
0.985	0.987	0.001
0.974	0.979	0.001
0.961	0.971	0.001
0.943	0.957	0.001
0.917	0.929	0.001
0.876	0.879	0.001
0.808	0.856	0.001

System: water + choline glycolate; phases: Liquid
Fixed: Pressure, kPa = 101
Fixed: Temperature, K = 298.2
Property: Activity coefficient of water (Liquid); method: Calculated from EMF cell potential
Mole fraction of water	Activity coefficient of water	uncertainty
0.989	0.989	0.001
0.975	0.97	0.001
0.959	0.943	0.001
0.937	0.889	0.001
0.869	0.685	0.001
0.718	0.351	0.001

System: water + choline lactate; phases: Liquid
Fixed: Pressure, kPa = 101
Fixed: Temperature, K = 298.2
Property: Activity coefficient of water (Liquid); method: Calculated from EMF cell potential
Mole fraction of water	Activity coefficient of water	uncertainty
0.99	0.984	0.001
0.976	0.97	0.001
0.961	0.937	0.001
0.916	0.802	0.001
0.825	0.523	0.001
0.771	0.441	0.001
