Measured thermophysical data. Quantitative Raman spectroscopic investigation of geo-fluids highpressure phase equilibria: Part I. Accurate calibration and determination of CO2 solubility in water from 273.15 to 573.15 K and from 10 to 120 MPa
Source: Fluid Phase Equilib., 2014, 10.1016/j.fluid.2014.08.032
Compound 1: carbon dioxide, CO2, InChI=1S/CO2/c2-1-3, purity 99.99%
Compound 2: water, H2O, InChI=1S/H2O/h1H2, purity 99.9%

System: carbon dioxide + water; phases: Liquid, Gas
Property: Molality, mol/kg of carbon dioxide (Liquid); method: Raman spectroscopy
Temperature, K	Pressure, kPa	Molality, mol/kg of carbon dioxide	uncertainty
273.15	10000	1.895	0.048
278.15	10000	1.778	0.075
283.15	10000	1.656	0.059
288.15	10000	1.577	0.028
298.15	10000	1.432	0.023
313.15	10000	1.232	0.02
333.15	10000	1.057	0.015
353.15	10000	0.887	0.015
393.15	10000	0.735	0.009
433.15	10000	0.708	0.011
473.15	10000	0.704	0.021
513.15	10000	0.67	0.02
553.15	10000	0.497	0.027
573.15	10000	0.302	0.026
273.15	20000	2.075	0.028
278.15	20000	1.949	0.023
283.15	20000	1.815	0.05
288.15	20000	1.723	0.034
293.15	20000	1.625	0.025
298.15	20000	1.568	0.042
313.15	20000	1.396	0.028
333.15	20000	1.269	0.02
353.15	20000	1.198	0.02
373.15	20000	1.162	0.006
393.15	20000	1.166	0.013
413.15	20000	1.206	0.036
433.15	20000	1.217	0.029
453.15	20000	1.312	0.021
473.15	20000	1.356	0.038
493.15	20000	1.434	0.036
513.15	20000	1.547	0.023
533.15	20000	1.618	0.041
553.15	20000	1.624	0.038
573.15	20000	1.622	0.029
273.15	30000	2.182	0.039
278.15	30000	2.029	0.01
283.15	30000	1.894	0.058
288.15	30000	1.807	0.007
293.15	30000	1.707	0.009
298.15	30000	1.65	0.04
313.15	30000	1.473	0.02
333.15	30000	1.36	0.01
353.15	30000	1.322	0.022
373.15	30000	1.338	0.004
393.15	30000	1.362	0.017
413.15	30000	1.444	0.02
433.15	30000	1.549	0.05
453.15	30000	1.677	0.024
473.15	30000	1.877	0.062
493.15	30000	2.063	0.093
513.15	30000	2.344	0.126
533.15	30000	2.562	0.023
553.15	30000	2.82	0.354
573.15	30000	3.148	0.096
273.15	40000	2.248	0.125
278.15	40000	2.104	0.061
283.15	40000	1.976	0.05
288.15	40000	1.876	0.034
293.15	40000	1.792	0.045
298.15	40000	1.734	0.017
313.15	40000	1.547	0.02
333.15	40000	1.429	0.009
353.15	40000	1.413	0.072
373.15	40000	1.424	0.014
393.15	40000	1.498	0.012
413.15	40000	1.626	0.006
433.15	40000	1.791	0.031
453.15	40000	2.007	0.035
473.15	40000	2.304	0.076
493.15	40000	2.602	0.055
513.15	40000	3.029	0.099
533.15	40000	3.599	0.128
553.15	40000	4.247	0.1
573.15	40000	5.109	0.162
273.15	50000	2.395	0.013
283.15	50000	2.109	0.006
293.15	50000	1.916	0.031
298.15	50000	1.856	0.042
313.15	50000	1.707	0.147
333.15	50000	1.585	0.2
353.15	50000	1.52	0.09
373.15	50000	1.555	0.017
393.15	50000	1.638	0.034
413.15	50000	1.791	0.018
433.15	50000	2	0.125
453.15	50000	2.248	0.032
473.15	50000	2.616	0.131
493.15	50000	3.053	0.083
513.15	50000	3.665	0.073
533.15	50000	4.406	0.384
553.15	50000	5.408	0.514
573.15	50000	7.561	0.468
293.15	60000	2.033	0.06
313.15	60000	1.753	0.06
333.15	60000	1.727	0.27
353.15	60000	1.654	0.026
373.15	60000	1.713	0.03
393.15	60000	1.814	0.027
413.15	60000	2.008	0.029
433.15	60000	2.248	0.045
453.15	60000	2.501	0.044
473.15	60000	2.983	0.073
493.15	60000	3.545	0.082
513.15	60000	4.27	0.12
533.15	60000	5.64	0.18
553.15	60000	7.756	0.494
313.15	90000	2.049	0.023
333.15	90000	1.95	0.02
353.15	90000	1.946	0.054
373.15	90000	1.996	0.085
393.15	90000	2.158	0.038
413.15	90000	2.299	0.026
433.15	90000	2.63	0.04
453.15	90000	3.049	0.077
473.15	90000	3.751	0.086
493.15	90000	4.637	0.075
513.15	90000	6.006	0.115
533.15	90000	8.074	0.164
293.15	120000	2.433	0.053
313.15	120000	2.148	0.032
333.15	120000	2.028	0.04
353.15	120000	2.04	0.04
373.15	120000	2.143	0.014
393.15	120000	2.314	0.02
413.15	120000	2.577	0.038
433.15	120000	2.959	0.034
453.15	120000	3.526	0.082
473.15	120000	4.201	0.16
493.15	120000	5.281	0.21
513.15	120000	7.016	0.196
533.15	120000	9.768	0.14
