Measured thermophysical data. Isobaric vapor liquid equilibria for ethanol water system containing different ionic liquids at atmospheric pressure
Source: Fluid Phase Equilib., 2006, 10.1016/j.fluid.2006.01.023
Compound 1: ethanol, C2H6O, InChI=1S/C2H6O/c1-2-3/h3H,2H2,1H3
Compound 2: cyclohexane, C6H12, InChI=1S/C6H12/c1-2-4-6-5-3-1/h1-6H2
Compound 3: water, H2O, InChI=1S/H2O/h1H2
Compound 4: 1,3-dimethylimidazolium dimethylphosphate, C7H15N2O4P, InChI=1S/C5H9N2.C2H7O4P/c1-6-3-4-7(2)5-6;1-5-7(3,4)6-2/h3-5H,1-2H3;1-2H3,(H,3,4)/q+1;/p-1
Compound 5: 1-ethyl-3-methylimidazolium diethyl phosphate, C10H21N2O4P, InChI=1S/C6H11N2.C4H11O4P/c1-3-8-5-4-7(2)6-8;1-3-7-9(5,6)8-4-2/h4-6H,3H2,1-2H3;3-4H2,1-2H3,(H,5,6)/q+1;/p-1
Compound 6: 1-butyl-3-methylimidazolium bromide, C8H15BrN2, InChI=1S/C8H15N2.BrH/c1-3-4-5-10-7-6-9(2)8-10;/h6-8H,3-5H2,1-2H3;1H/q+1;/p-1
Compound 7: 1-butyl-3-methylimidazolium chloride, C8H15ClN2, InChI=1S/C8H15N2.ClH/c1-3-4-5-10-7-6-9(2)8-10;/h6-8H,3-5H2,1-2H3;1H/q+1;/p-1
Compound 8: 1-butyl-3-methylimidazolium hexafluorophosphate, C8H15F6N2P, InChI=1S/C8H15N2.F6P/c1-3-4-5-10-7-6-9(2)8-10;1-7(2,3,4,5)6/h6-8H,3-5H2,1-2H3;/q+1;-1

System: ethanol + cyclohexane; phases: Liquid, Gas
Fixed: Pressure, kPa = 101.325
Property: Boiling temperature at pressure P, K (Liquid); method: EBULLIO:UFactor:16
Mole fraction of ethanol	Boiling temperature at pressure P, K	uncertainty
0.02	347.42	1.37
0.202	338.37	1.36
0.442	338.08	1.36
0.56	338.25	1.36
0.722	338.55	1.36
0.788	339.06	1.36
0.829	340.08	1.36
0.882	341.46	1.36
0.906	342.31	1.37
0.933	344.26	1.37
0.949	345.48	1.38
0.972	348.47	1.38
0.978	348.56	1.38
0.99	350.5	1.4

System: ethanol + cyclohexane; phases: Gas, Liquid
Fixed: Pressure, kPa = 101.325
Property: Mole fraction of ethanol (Gas); method: CHROM:UFactor:16
Mole fraction of ethanol	Mole fraction of ethanol	uncertainty
0.02	0.222	0.033
0.202	0.402	0.06
0.442	0.418	0.062
0.56	0.451	0.067
0.722	0.489	0.073
0.788	0.486	0.072
0.829	0.55	0.067
0.882	0.625	0.056
0.906	0.658	0.051
0.933	0.703	0.044
0.949	0.75	0.038
0.972	0.818	0.028
0.978	0.877	0.023
0.99	0.947	0.014

System: ethanol + water + 1,3-dimethylimidazolium dimethylphosphate; phases: Liquid, Gas
Fixed: Pressure, kPa = 101.32
Property: Boiling temperature at pressure P, K (Liquid); method: EBULLIO:UFactor:16
Mass fraction of 1,3-dimethylimidazolium dimethylphosphate	Solvent: Mole fraction of ethanol	Boiling temperature at pressure P, K	uncertainty
0.11526	0.965	362.53	1.36
0.11379	0.903	362.59	1.36
0.11858	0.826	362.59	1.36
0.121	0.742	362.59	1.36
0.12115	0.664	362.59	1.36
0.1226	0.593	363.01	1.36
0.1235	0.5	363.42	1.36
0.12255	0.412	363.88	1.36
0.12261	0.333	364.44	1.36
0.12539	0.261	365.15	1.36
0.12215	0.191	366.28	1.36
0.12151	0.126	368.02	1.36
0.11862	0.069	371.91	1.37
0.23301	0.961	363.58	1.36
0.2363	0.896	363.64	1.36
0.23869	0.829	363.63	1.36
0.23954	0.715	363.64	1.36
0.24051	0.662	363.67	1.36
0.24012	0.569	363.78	1.36
0.24278	0.475	364.03	1.36
0.24928	0.382	364.54	1.36
0.24954	0.29	365.15	1.36
0.24339	0.214	365.97	1.36
0.23829	0.167	367.15	1.36
0.23447	0.109	369.24	1.38
0.23214	0.068	373.54	1.38

System: ethanol + water + 1,3-dimethylimidazolium dimethylphosphate; phases: Gas, Liquid
Property: Mole fraction of ethanol (Gas); method: CHROM:UFactor:16
Temperature, K	Mass fraction of 1,3-dimethylimidazolium dimethylphosphate	Solvent: Mole fraction of ethanol	Mole fraction of ethanol	uncertainty
362.53	0.11526	0.965	0.968	0.032
362.59	0.11379	0.903	0.919	0.068
362.59	0.11858	0.826	0.868	0.043
362.59	0.121	0.742	0.823	0.177
362.59	0.12115	0.664	0.786	0.214
363.01	0.1226	0.593	0.752	0.038
363.42	0.1235	0.5	0.718	0.042
363.88	0.12255	0.412	0.694	0.046
364.44	0.12261	0.333	0.669	0.049
365.15	0.12539	0.261	0.643	0.053
366.28	0.12215	0.191	0.618	0.057
368.02	0.12151	0.126	0.586	0.062
371.91	0.11862	0.069	0.492	0.073
363.58	0.23301	0.961	0.966	0.034
363.64	0.2363	0.896	0.923	0.013
363.63	0.23869	0.829	0.878	0.039
363.64	0.23954	0.715	0.835	0.069
363.67	0.24051	0.662	0.806	0.038
363.78	0.24012	0.569	0.773	0.045
364.03	0.24278	0.475	0.742	0.038
364.54	0.24928	0.382	0.711	0.043
365.15	0.24954	0.29	0.689	0.046
365.97	0.24339	0.214	0.651	0.052
367.15	0.23829	0.167	0.619	0.057
369.24	0.23447	0.109	0.569	0.064
373.54	0.23214	0.068	0.512	0.073

System: ethanol + water + 1-ethyl-3-methylimidazolium diethyl phosphate; phases: Liquid, Gas
Fixed: Pressure, kPa = 101.32
Property: Boiling temperature at pressure P, K (Liquid); method: EBULLIO:UFactor:16
Mass fraction of 1-ethyl-3-methylimidazolium diethyl phosphate	Solvent: Mole fraction of ethanol	Boiling temperature at pressure P, K	uncertainty
0.10891	0.96	362.23	1.36
0.1145	0.901	362.27	1.36
0.11708	0.824	362.27	1.36
0.11777	0.743	362.27	1.36
0.11888	0.665	362.52	1.36
0.12017	0.589	362.83	1.36
0.12362	0.499	363.39	1.36
0.12155	0.403	363.96	1.36
0.11943	0.323	364.62	1.36
0.11984	0.252	365.44	1.36
0.11728	0.174	366.57	1.36
0.11607	0.124	368.21	1.36
0.11273	0.081	371.6	1.37
0.21562	0.9	363.21	1.36
0.22096	0.823	363.31	1.36
0.2212	0.783	363.31	1.36
0.22862	0.704	363.51	1.36
0.22978	0.612	363.66	1.36
0.22832	0.527	364.01	1.36
0.23372	0.481	364.42	1.36
0.23113	0.386	364.93	1.36
0.22838	0.287	365.88	1.36
0.23223	0.206	367.16	1.36
0.23103	0.152	368.65	1.36
0.23106	0.092	371.79	1.37

System: ethanol + water + 1-ethyl-3-methylimidazolium diethyl phosphate; phases: Gas, Liquid
Property: Mole fraction of ethanol (Gas); method: CHROM:UFactor:16
Temperature, K	Mass fraction of 1-ethyl-3-methylimidazolium diethyl phosphate	Solvent: Mole fraction of ethanol	Mole fraction of ethanol	uncertainty
362.23	0.10891	0.96	0.962	0.038
362.27	0.1145	0.901	0.91	0.09
362.27	0.11708	0.824	0.855	0.122
362.27	0.11777	0.743	0.809	0.107
362.52	0.11888	0.665	0.776	0.035
362.83	0.12017	0.589	0.741	0.039
363.39	0.12362	0.499	0.721	0.042
363.96	0.12155	0.403	0.687	0.047
364.62	0.11943	0.323	0.665	0.05
365.44	0.11984	0.252	0.649	0.052
366.57	0.11728	0.174	0.625	0.056
368.21	0.11607	0.124	0.581	0.062
371.6	0.11273	0.081	0.505	0.074
363.21	0.21562	0.9	0.927	0.041
363.31	0.22096	0.823	0.881	0.027
363.31	0.2212	0.783	0.851	0.033
363.51	0.22862	0.704	0.808	0.046
363.66	0.22978	0.612	0.778	0.033
364.01	0.22832	0.527	0.74	0.039
364.42	0.23372	0.481	0.711	0.043
364.93	0.23113	0.386	0.674	0.049
365.88	0.22838	0.287	0.647	0.053
367.16	0.23223	0.206	0.598	0.06
368.65	0.23103	0.152	0.563	0.065
371.79	0.23106	0.092	0.485	0.072

System: ethanol + water + 1-butyl-3-methylimidazolium bromide; phases: Liquid, Gas
Fixed: Pressure, kPa = 101.32
Property: Boiling temperature at pressure P, K (Liquid); method: EBULLIO:UFactor:16
Mass fraction of 1-butyl-3-methylimidazolium bromide	Solvent: Mole fraction of ethanol	Boiling temperature at pressure P, K	uncertainty
0.09658	0.95	351.91	1.36
0.09738	0.891	351.81	1.36
0.10189	0.814	351.91	1.36
0.10465	0.734	352.12	1.36
0.10072	0.658	352.42	1.36
0.10884	0.581	352.82	1.36
0.10486	0.494	353.33	1.36
0.10461	0.421	353.84	1.36
0.10129	0.352	354.45	1.36
0.10092	0.278	355.32	1.36
0.10224	0.214	356.29	1.36
0.09868	0.155	357.85	1.36
0.09736	0.106	360.23	1.37
0.09468	0.077	363.14	1.36
0.18435	0.962	352.92	1.36
0.18621	0.903	352.85	1.36
0.18871	0.833	352.93	1.36
0.19127	0.741	353.04	1.36
0.19376	0.674	353.24	1.36
0.19773	0.595	353.53	1.36
0.19617	0.518	353.93	1.36
0.19924	0.442	354.46	1.36
0.19804	0.378	354.96	1.36
0.19918	0.308	355.73	1.36
0.19688	0.242	356.85	1.36
0.19617	0.169	358.48	1.36
0.18853	0.112	360.99	1.36

System: ethanol + water + 1-butyl-3-methylimidazolium bromide; phases: Gas, Liquid
Property: Mole fraction of ethanol (Gas); method: CHROM:UFactor:16
Temperature, K	Mass fraction of 1-butyl-3-methylimidazolium bromide	Solvent: Mole fraction of ethanol	Mole fraction of ethanol	uncertainty
351.91	0.09658	0.95	0.953	0.046
351.81	0.09738	0.891	0.903	0.048
351.91	0.10189	0.814	0.842	0.026
352.12	0.10465	0.734	0.802	0.032
352.42	0.10072	0.658	0.767	0.036
352.82	0.10884	0.581	0.731	0.04
353.33	0.10486	0.494	0.702	0.044
353.84	0.10461	0.421	0.677	0.048
354.45	0.10129	0.352	0.656	0.051
355.32	0.10092	0.278	0.632	0.055
356.29	0.10224	0.214	0.613	0.058
357.85	0.09868	0.155	0.582	0.062
360.23	0.09736	0.106	0.544	0.068
363.14	0.09468	0.077	0.474	0.071
352.92	0.18435	0.962	0.964	0.036
352.85	0.18621	0.903	0.922	0.015
352.93	0.18871	0.833	0.873	0.021
353.04	0.19127	0.741	0.82	0.047
353.24	0.19376	0.674	0.793	0.051
353.53	0.19773	0.595	0.762	0.036
353.93	0.19617	0.518	0.734	0.04
354.46	0.19924	0.442	0.707	0.044
354.96	0.19804	0.378	0.687	0.047
355.73	0.19918	0.308	0.66	0.051
356.85	0.19688	0.242	0.636	0.054
358.48	0.19617	0.169	0.596	0.06
360.99	0.18853	0.112	0.53	0.07

System: ethanol + water + 1-butyl-3-methylimidazolium chloride; phases: Liquid, Gas
Fixed: Pressure, kPa = 101.32
Property: Boiling temperature at pressure P, K (Liquid); method: EBULLIO:UFactor:16
Mass fraction of 1-butyl-3-methylimidazolium chloride	Solvent: Mole fraction of ethanol	Boiling temperature at pressure P, K	uncertainty
0.20229	0.958	353.91	1.36
0.20134	0.911	353.71	1.36
0.2058	0.846	353.71	1.36
0.21012	0.754	353.81	1.36
0.21364	0.693	353.91	1.36
0.21389	0.658	354.11	1.36
0.21766	0.581	354.32	1.36
0.23108	0.507	354.66	1.36
0.22245	0.433	355.04	1.36
0.22299	0.379	355.52	1.36
0.22571	0.335	356.03	1.36
0.22449	0.26	356.84	1.36
0.21707	0.179	358.26	1.36
0.21519	0.132	359.79	1.36
0.2109	0.074	364.49	1.37
0.29596	0.925	356.52	1.36
0.30882	0.864	356.42	1.36
0.30769	0.779	356.37	1.36
0.31173	0.681	356.35	1.36
0.31466	0.625	356.42	1.36
0.31828	0.544	356.63	1.36
0.32105	0.474	356.93	1.36
0.3237	0.396	357.33	1.36
0.32476	0.331	357.84	1.36
0.32222	0.274	358.55	1.36
0.33172	0.194	360.28	1.36
0.3199	0.139	361.91	1.36
0.31126	0.09	364.46	1.36

System: ethanol + water + 1-butyl-3-methylimidazolium chloride; phases: Gas, Liquid
Property: Mole fraction of ethanol (Gas); method: CHROM:UFactor:16
Temperature, K	Mass fraction of 1-butyl-3-methylimidazolium chloride	Solvent: Mole fraction of ethanol	Mole fraction of ethanol	uncertainty
353.91	0.20229	0.958	0.967	0.021
353.71	0.20134	0.911	0.932	0.012
353.71	0.2058	0.846	0.89	0.019
353.81	0.21012	0.754	0.847	0.023
353.91	0.21364	0.693	0.817	0.027
354.11	0.21389	0.658	0.799	0.03
354.32	0.21766	0.581	0.762	0.036
354.66	0.23108	0.507	0.731	0.04
355.04	0.22245	0.433	0.71	0.043
355.52	0.22299	0.379	0.693	0.046
356.03	0.22571	0.335	0.675	0.048
356.84	0.22449	0.26	0.649	0.052
358.26	0.21707	0.179	0.599	0.06
359.79	0.21519	0.132	0.57	0.064
364.49	0.2109	0.074	0.466	0.069
356.52	0.29596	0.925	0.939	0.009
356.42	0.30882	0.864	0.906	0.014
356.37	0.30769	0.779	0.867	0.024
356.35	0.31173	0.681	0.823	0.131
356.42	0.31466	0.625	0.799	0.065
356.63	0.31828	0.544	0.762	0.036
356.93	0.32105	0.474	0.73	0.04
357.33	0.3237	0.396	0.702	0.044
357.84	0.32476	0.331	0.667	0.05
358.55	0.32222	0.274	0.645	0.053
360.28	0.33172	0.194	0.591	0.061
361.91	0.3199	0.139	0.542	0.068
364.46	0.31126	0.09	0.465	0.069

System: ethanol + water + 1-butyl-3-methylimidazolium hexafluorophosphate; phases: Liquid, Gas
Fixed: Pressure, kPa = 101.32
Property: Boiling temperature at pressure P, K (Liquid); method: EBULLIO:UFactor:16
Mass fraction of 1-butyl-3-methylimidazolium hexafluorophosphate	Solvent: Mole fraction of ethanol	Boiling temperature at pressure P, K	uncertainty
0.0981	0.903	351.41	1.36
0.10442	0.847	351.54	1.36
0.10685	0.788	351.71	1.36
0.0996	0.726	351.93	1.36
0.10504	0.661	352.21	1.36
0.10687	0.627	352.62	1.36
0.10628	0.564	353.03	1.36
0.1114	0.509	353.42	1.36
0.11504	0.448	353.83	1.36
0.11146	0.384	354.34	1.36
0.11083	0.327	354.95	1.36
0.11111	0.264	355.66	1.36
0.10778	0.22	356.47	1.36
0.10683	0.164	357.7	1.36
0.20818	0.925	352.01	1.36
0.21134	0.874	352.18	1.36
0.21302	0.815	352.38	1.36
0.21589	0.739	352.7	1.36
0.21801	0.659	353.2	1.36
0.21739	0.603	353.62	1.36
0.22203	0.539	354.01	1.36
0.22749	0.475	354.53	1.36

System: ethanol + water + 1-butyl-3-methylimidazolium hexafluorophosphate; phases: Gas, Liquid
Property: Mole fraction of ethanol (Gas); method: CHROM:UFactor:16
Temperature, K	Mass fraction of 1-butyl-3-methylimidazolium hexafluorophosphate	Solvent: Mole fraction of ethanol	Mole fraction of ethanol	uncertainty
351.41	0.0981	0.903	0.91	0.018
351.54	0.10442	0.847	0.866	0.024
351.71	0.10685	0.788	0.827	0.026
351.93	0.0996	0.726	0.794	0.031
352.21	0.10504	0.661	0.748	0.038
352.62	0.10687	0.627	0.733	0.04
353.03	0.10628	0.564	0.713	0.043
353.42	0.1114	0.509	0.696	0.046
353.83	0.11504	0.448	0.676	0.049
354.34	0.11146	0.384	0.663	0.05
354.95	0.11083	0.327	0.657	0.059
355.66	0.11111	0.264	0.643	0.054
356.47	0.10778	0.22	0.625	0.15
357.7	0.10683	0.164	0.597	0.06
352.01	0.20818	0.925	0.936	0.01
352.18	0.21134	0.874	0.897	0.016
352.38	0.21302	0.815	0.853	0.025
352.7	0.21589	0.739	0.811	0.029
353.2	0.21801	0.659	0.774	0.034
353.62	0.21739	0.603	0.742	0.04
354.01	0.22203	0.539	0.719	0.042
354.53	0.22749	0.475	0.704	0.044
