Measured thermophysical data. Vapor-liquid equilibrium for the binary mixtures of dimethylsulfoxide with substituted benzenes
Source: Fluid Phase Equilib., 2007, 10.1016/j.fluid.2007.08.001
Compound 1: dimethyl sulfoxide, C2H6OS, InChI=1S/C2H6OS/c1-4(2)3/h1-2H3
Compound 2: toluene, C7H8, InChI=1S/C7H8/c1-7-5-3-2-4-6-7/h2-6H,1H3
Compound 3: ethylbenzene, C8H10, InChI=1S/C8H10/c1-2-8-6-4-3-5-7-8/h3-7H,2H2,1H3
Compound 4: chlorobenzene, C6H5Cl, InChI=1S/C6H5Cl/c7-6-4-2-1-3-5-6/h1-5H
Compound 5: bromobenzene, C6H5Br, InChI=1S/C6H5Br/c7-6-4-2-1-3-5-6/h1-5H
Compound 6: nitrobenzene, C6H5NO2, InChI=1S/C6H5NO2/c8-7(9)6-4-2-1-3-5-6/h1-5H

System: dimethyl sulfoxide; phases: Liquid, Gas
Property: Vapor or sublimation pressure, kPa (Liquid); method: EBULLIO:UFactor:8
Temperature, K	Vapor or sublimation pressure, kPa	uncertainty
460.95	95.3	1.9

System: dimethyl sulfoxide; phases: Liquid
Property: Mass density, kg/m3 (Liquid); method: Pycnometric method
Pressure, kPa	Temperature, K	Mass density, kg/m3	uncertainty
95.3	303.15	1092.4	1.14

System: toluene; phases: Liquid, Gas
Property: Vapor or sublimation pressure, kPa (Liquid); method: EBULLIO:UFactor:8
Temperature, K	Vapor or sublimation pressure, kPa	uncertainty
381.65	95.3	1.9

System: toluene; phases: Liquid
Property: Mass density, kg/m3 (Liquid); method: Pycnometric method
Pressure, kPa	Temperature, K	Mass density, kg/m3	uncertainty
95.3	303.15	857.66	0.86

System: ethylbenzene; phases: Liquid, Gas
Property: Vapor or sublimation pressure, kPa (Liquid); method: EBULLIO:UFactor:8
Temperature, K	Vapor or sublimation pressure, kPa	uncertainty
406.95	95.3	1.9

System: ethylbenzene; phases: Liquid
Property: Mass density, kg/m3 (Liquid); method: Pycnometric method
Pressure, kPa	Temperature, K	Mass density, kg/m3	uncertainty
95.3	303.15	858.2	0.86

System: chlorobenzene; phases: Liquid, Gas
Property: Vapor or sublimation pressure, kPa (Liquid); method: EBULLIO:UFactor:8
Temperature, K	Vapor or sublimation pressure, kPa	uncertainty
402.35	95.3	1.9

System: chlorobenzene; phases: Liquid
Property: Mass density, kg/m3 (Liquid); method: Pycnometric method
Pressure, kPa	Temperature, K	Mass density, kg/m3	uncertainty
95.3	303.15	1095.52	1.15

System: bromobenzene; phases: Liquid, Gas
Property: Vapor or sublimation pressure, kPa (Liquid); method: EBULLIO:UFactor:8
Temperature, K	Vapor or sublimation pressure, kPa	uncertainty
426.85	95.3	1.9

System: bromobenzene; phases: Liquid
Property: Mass density, kg/m3 (Liquid); method: Pycnometric method
Pressure, kPa	Temperature, K	Mass density, kg/m3	uncertainty
95.3	303.15	1481.48	1.66

System: nitrobenzene; phases: Liquid, Gas
Property: Vapor or sublimation pressure, kPa (Liquid); method: EBULLIO:UFactor:8
Temperature, K	Vapor or sublimation pressure, kPa	uncertainty
483.05	95.3	1.9

System: nitrobenzene; phases: Liquid
Property: Mass density, kg/m3 (Liquid); method: Pycnometric method
Pressure, kPa	Temperature, K	Mass density, kg/m3	uncertainty
95.3	303.15	1193.4	1.27

System: dimethyl sulfoxide + toluene; phases: Liquid, Gas
Fixed: Pressure, kPa = 95.3
Property: Boiling temperature at pressure P, K (Liquid); method: EBULLIO:UFactor:8
Mole fraction of toluene	Boiling temperature at pressure P, K	uncertainty
0	460.95	0.7
0.0478	454.05	0.7
0.0722	450.45	0.7
0.2264	430.75	0.7
0.3522	417.85	0.7
0.4709	408.05	0.7
0.6163	398.45	0.7
0.8007	389.15	0.7
0.9125	384.65	0.7
1	381.65	0.7

System: dimethyl sulfoxide + ethylbenzene; phases: Liquid, Gas
Fixed: Pressure, kPa = 95.3
Property: Boiling temperature at pressure P, K (Liquid); method: EBULLIO:UFactor:8
Mole fraction of ethylbenzene	Boiling temperature at pressure P, K	uncertainty
0	460.95	0.7
0.101	446.15	0.7
0.2651	430.45	0.7
0.3245	426.35	0.7
0.4195	421.05	0.7
0.5902	414.45	0.7
0.7421	410.65	0.7
0.8217	409.25	0.7
0.9238	407.85	0.7
1	406.95	0.7

System: dimethyl sulfoxide + chlorobenzene; phases: Liquid, Gas
Fixed: Pressure, kPa = 95.3
Property: Boiling temperature at pressure P, K (Liquid); method: EBULLIO:UFactor:8
Mole fraction of chlorobenzene	Boiling temperature at pressure P, K	uncertainty
0	460.95	0.7
0.0767	444.95	0.7
0.1338	438.55	0.7
0.2589	429.85	0.7
0.3338	425.95	0.7
0.5335	417.45	0.7
0.6122	414.55	0.7
0.7587	409.65	0.7
0.9015	405.15	0.7
1	402.35	0.7

System: dimethyl sulfoxide + bromobenzene; phases: Liquid, Gas
Fixed: Pressure, kPa = 95.3
Property: Boiling temperature at pressure P, K (Liquid); method: EBULLIO:UFactor:8
Mole fraction of bromobenzene	Boiling temperature at pressure P, K	uncertainty
0	460.95	0.7
0.1101	449.15	0.7
0.2198	441.05	0.7
0.3103	436.15	0.7
0.4521	430.75	0.7
0.6183	426.95	0.7
0.7297	425.45	0.7
0.8024	424.95	0.7
0.9012	424.65	0.7
1	426.85	0.7

System: dimethyl sulfoxide + nitrobenzene; phases: Liquid, Gas
Fixed: Pressure, kPa = 95.3
Property: Boiling temperature at pressure P, K (Liquid); method: EBULLIO:UFactor:8
Mole fraction of nitrobenzene	Boiling temperature at pressure P, K	uncertainty
0	460.95	0.7
0.0725	458.15	0.7
0.129	458.15	0.7
0.2568	459.25	0.7
0.3519	460.85	0.7
0.5465	465.35	0.7
0.6593	468.85	0.7
0.8289	475.05	0.7
0.9175	479.05	0.7
1	483.05	0.7
