Measured thermophysical data. Partitioning of amino acids in the novel biphasic systems based on environmentally friendly ethyl lactate
Source: Fluid Phase Equilib., 2018, 10.1016/j.fluid.2018.01.016
Compound 1: DL-ethyl lactate, C5H10O3, InChI=1S/C5H10O3/c1-3-8-5(7)4(2)6/h4,6H,3H2,1-2H3, purity 98%
Compound 2: tripotassium phosphate, K3O4P, InChI=1S/3K.H3O4P/c;;;1-5(2,3)4/h;;;(H3,1,2,3,4)/q3*+1;/p-3, purity 98%
Compound 3: dipotassium hydrogen phosphate, HK2O4P, InChI=1S/2K.H3O4P/c;;1-5(2,3)4/h;;(H3,1,2,3,4)/q2*+1;/p-2, purity 98%
Compound 4: potassium carbonate, CK2O3, InChI=1S/CH2O3.2K/c2-1(3)4;;/h(H2,2,3,4);;/q;2*+1/p-2, purity 99%
Compound 5: water, H2O, InChI=1S/H2O/h1H2, purity 99.8%

System: DL-ethyl lactate + water + tripotassium phosphate; phases: Liquid mixture 1, Liquid mixture 2
Fixed: Pressure, kPa = 101
Property: Mass fraction of DL-ethyl lactate (Liquid mixture 1); method: Titration method
Temperature, K	Mass fraction of tripotassium phosphate	Mass fraction of DL-ethyl lactate	uncertainty
298.2	0.005	0.837	0.049
298.2	0.008	0.764	0.041
298.2	0.014	0.655	0.026
298.2	0.024	0.572	0.017
298.2	0.041	0.499	0.018
298.2	0.058	0.423	0.015
298.2	0.074	0.377	0.013
298.2	0.089	0.323	0.012
298.2	0.098	0.31	0.01
298.2	0.114	0.275	0.01
298.2	0.124	0.251	0.009
298.2	0.135	0.235	0.009
298.2	0.144	0.207	0.008
298.2	0.158	0.185	0.007
298.2	0.17	0.162	0.007
298.2	0.192	0.115	0.006
298.2	0.199	0.095	0.005
298.2	0.221	0.058	0.004
298.2	0.241	0.041	0.003
298.2	0.25	0.043	0.003
298.2	0.26	0.041	0.003
298.2	0.289	0.038	0.002
313.2	0.005	0.915	0.043
313.2	0.008	0.851	0.033
313.2	0.012	0.8	0.025
313.2	0.016	0.754	0.019
313.2	0.022	0.71	0.015
313.2	0.032	0.655	0.016
313.2	0.044	0.582	0.017
313.2	0.055	0.523	0.016
313.2	0.088	0.436	0.015
313.2	0.105	0.368	0.013
313.2	0.133	0.31	0.01
313.2	0.167	0.245	0.009
313.2	0.189	0.185	0.007
313.2	0.221	0.147	0.005
313.2	0.244	0.111	0.005
313.2	0.259	0.102	0.004
313.2	0.28	0.082	0.003
313.2	0.298	0.08	0.003

System: DL-ethyl lactate + water + dipotassium hydrogen phosphate; phases: Liquid mixture 1, Liquid mixture 2
Fixed: Pressure, kPa = 101
Property: Mass fraction of DL-ethyl lactate (Liquid mixture 1); method: Titration method
Temperature, K	Mass fraction of dipotassium hydrogen phosphate	Mass fraction of DL-ethyl lactate	uncertainty
298.2	0.006	0.793	0.038
298.2	0.014	0.644	0.029
298.2	0.02	0.612	0.018
298.2	0.035	0.5	0.019
298.2	0.062	0.392	0.014
298.2	0.082	0.343	0.012
298.2	0.113	0.257	0.01
298.2	0.141	0.172	0.007
298.2	0.186	0.098	0.004
298.2	0.236	0.05	0.003
298.2	0.287	0.035	0.002
298.2	0.345	0.02	0.002
298.2	0.395	0.014	0.002
313.2	0.005	0.921	0.031
313.2	0.016	0.75	0.02
313.2	0.03	0.683	0.013
313.2	0.042	0.647	0.016
313.2	0.052	0.551	0.018
313.2	0.079	0.421	0.015
313.2	0.12	0.325	0.011
313.2	0.153	0.281	0.01
313.2	0.172	0.193	0.008
313.2	0.208	0.131	0.005
313.2	0.291	0.072	0.003
313.2	0.375	0.055	0.003

System: DL-ethyl lactate + water + potassium carbonate; phases: Liquid mixture 1, Liquid mixture 2
Fixed: Pressure, kPa = 101
Property: Mass fraction of DL-ethyl lactate (Liquid mixture 1); method: Titration method
Temperature, K	Mass fraction of potassium carbonate	Mass fraction of DL-ethyl lactate	uncertainty
298.2	0.003	0.786	0.035
298.2	0.006	0.735	0.023
298.2	0.015	0.655	0.014
298.2	0.043	0.564	0.015
298.2	0.06	0.509	0.016
298.2	0.092	0.426	0.014
298.2	0.117	0.356	0.012
298.2	0.145	0.276	0.01
298.2	0.16	0.234	0.009
298.2	0.202	0.122	0.006
298.2	0.229	0.086	0.004
298.2	0.292	0.018	0.002
298.2	0.334	0.029	0.002
313.2	0.012	0.82	0.02
313.2	0.022	0.73	0.01
313.2	0.058	0.601	0.014
313.2	0.098	0.482	0.016
313.2	0.119	0.411	0.014
313.2	0.148	0.335	0.012
313.2	0.192	0.23	0.01
313.2	0.211	0.1921	0.0072
313.2	0.235	0.147	0.006
313.2	0.271	0.092	0.005
313.2	0.287	0.063	0.004
313.2	0.309	0.0282	0.0025
313.2	0.35	0.02	0.01
