Measured thermophysical data. Experimental measurement of carbon dioxide solubility in 1-methylpyrrolidin-2-one (NMP) + 1-butyl-3-methyl-1H-imidazol-3-ium tetrafluoroborate ([bmim][BF4]) mixtures using a new static-synthetic cell
Source: Fluid Phase Equilib., 2018, 10.1016/j.fluid.2018.08.017
Compound 1: carbon dioxide, CO2, InChI=1S/CO2/c2-1-3, purity 99%
Compound 2: hexane, C6H14, InChI=1S/C6H14/c1-3-5-6-4-2/h3-6H2,1-2H3, purity 99%
Compound 3: N-methylpyrrolidone, C5H9NO, InChI=1S/C5H9NO/c1-6-4-2-3-5(6)7/h2-4H2,1H3, purity 99.5%
Compound 4: 1-butyl-3-methylimidazolium tetrafluoroborate, C8H15BF4N2, InChI=1S/C8H15N2.BF4/c1-3-4-5-10-7-6-9(2)8-10;2-1(3,4)5/h6-8H,3-5H2,1-2H3;/q+1;-1, purity 98%

System: hexane; phases: Liquid
Property: Mass density, kg/m3 (Liquid); method: Vibrating tube method
Temperature, K	Pressure, kPa	Mass density, kg/m3	uncertainty
313.15	101.325	641.2	0.3

System: hexane; phases: Liquid
Property: Refractive index (Na D-line) (Liquid); method: Standard Abbe refractometry
Temperature, K	Pressure, kPa	Refractive index (Na D-line)	uncertainty
298.15	101.325	1.372	0.001

System: N-methylpyrrolidone; phases: Liquid
Property: Refractive index (Na D-line) (Liquid); method: Standard Abbe refractometry
Temperature, K	Pressure, kPa	Refractive index (Na D-line)	uncertainty
298.15	101.325	1.469	0.001

System: N-methylpyrrolidone; phases: Liquid
Fixed: Pressure, kPa = 101
Property: Viscosity, Pa*s (Liquid); method: UNKNOWN
Temperature, K	Viscosity, Pa*s	uncertainty
293.15	0.001786	4.9e-05
298.15	0.001693	4.7e-05
303.15	0.001564	4.4e-05
308.15	0.001448	4.2e-05
313.15	0.0013463	3.92e-05
318.15	0.001258	3.7e-05
323.15	0.001176	3.5e-05
328.15	0.001103	3.3e-05
333.15	0.001037	3.2e-05
338.15	0.0009769	3.05e-05
343.15	0.000923	2.9e-05

System: N-methylpyrrolidone; phases: Liquid
Fixed: Pressure, kPa = 101
Property: Mass density, kg/m3 (Liquid); method: Vibrating tube method
Temperature, K	Mass density, kg/m3	uncertainty
293.15	1034.1	0.2
298.15	1029.7	0.2
303.15	1025.2	0.2
308.15	1020.8	0.2
313.15	1016.3	0.2
318.15	1011.9	0.2
323.15	1007.4	0.2
328.15	1002.9	0.2
333.15	998.4	0.2
338.15	993.9	0.2
343.15	989.4	0.2

System: N-methylpyrrolidone; phases: Liquid
Fixed: Pressure, kPa = 101
Property: Speed of sound, m/s (Liquid); method: Single path-length method
Temperature, K	Speed of sound, m/s	uncertainty
293.15	1565.7	0.9
298.15	1546.1	0.9
303.15	1526.7	0.9
308.15	1507.5	0.9
313.15	1488.3	0.9
318.15	1469.2	0.9
323.15	1450.4	0.9
328.15	1431.4	0.9
333.15	1412.8	0.9
338.15	1394.4	0.9
343.15	1376	0.9

System: 1-butyl-3-methylimidazolium tetrafluoroborate; phases: Liquid
Property: Mass density, kg/m3 (Liquid); method: Vibrating tube method
Temperature, K	Pressure, kPa	Mass density, kg/m3	uncertainty
318.15	101.325	1188.2	1.2

System: 1-butyl-3-methylimidazolium tetrafluoroborate; phases: Liquid
Property: Refractive index (Na D-line) (Liquid); method: Standard Abbe refractometry
Temperature, K	Pressure, kPa	Refractive index (Na D-line)	uncertainty
293.15	101.325	1.423	0.001

System: 1-butyl-3-methylimidazolium tetrafluoroborate; phases: Liquid
Fixed: Pressure, kPa = 101
Property: Viscosity, Pa*s (Liquid); method: UNKNOWN
Temperature, K	Viscosity, Pa*s	uncertainty
293.15	0.12934	0.012506
298.15	0.098951	0.006912
303.15	0.077	0.003458
308.15	0.060901	0.001364
313.15	0.049205	0.001253
318.15	0.040267	0.001026
323.15	0.033435	0.000853
328.15	0.028117	0.000719
333.15	0.023941	0.000613
338.15	0.020619	0.000529
343.15	0.017924	0.000461

System: 1-butyl-3-methylimidazolium tetrafluoroborate; phases: Liquid
Fixed: Pressure, kPa = 101
Property: Mass density, kg/m3 (Liquid); method: Vibrating tube method
Temperature, K	Mass density, kg/m3	uncertainty
293.15	1206	1.3
298.15	1202.4	1.3
303.15	1198.8	1.3
308.15	1195.2	1.3
313.15	1191.7	1.3
318.15	1188.1	1.2
323.15	1184.6	1.2
328.15	1181.1	1.2
333.15	1177.6	1.2
338.15	1174.2	1.2
343.15	1170.7	1.2

System: 1-butyl-3-methylimidazolium tetrafluoroborate; phases: Liquid
Fixed: Pressure, kPa = 101
Property: Speed of sound, m/s (Liquid); method: Single path-length method
Temperature, K	Speed of sound, m/s	uncertainty
293.15	1576.7	2.1
298.15	1564.7	2.1
303.15	1552.8	2.1
308.15	1541.2	2.1
313.15	1529.6	2.1
318.15	1518.2	2.1
323.15	1506.9	2.1
328.15	1495.7	2.1
333.15	1484.5	2.1
338.15	1473.2	2.1
343.15	1461.7	2.1

System: hexane + carbon dioxide; phases: Liquid, Gas
Property: Boiling temperature at pressure P, K (Liquid); method: Closed cell (Static) method
Pressure, kPa	Mole fraction of carbon dioxide	Boiling temperature at pressure P, K	uncertainty
345	0.031	313.19	0.02
450	0.0414	313.22	0.02
515	0.0485	313.19	0.02
672	0.064	313.22	0.09
731	0.0705	313.22	0.09
760	0.0734	313.22	0.09
929	0.0916	313.19	0.02
981	0.0964	313.22	0.02
1105	0.1093	313.23	0.02
1145	0.1134	313.22	0.02
1331	0.1341	313.19	0.02
1681	0.1703	313.21	0.07
1798	0.1844	313.19	0.02
1838	0.188	313.23	0.02
2122	0.2203	313.17	0.02
2310	0.2403	313.18	0.4
2494	0.2604	313.23	0.08
2572	0.2719	313.21	0.03
2802	0.2934	313.2	0.02

System: carbon dioxide + N-methylpyrrolidone; phases: Liquid, Gas
Property: Boiling temperature at pressure P, K (Liquid); method: Closed cell (Static) method
Pressure, kPa	Mole fraction of carbon dioxide	Boiling temperature at pressure P, K	uncertainty
130	0.0182	298.14	1.36
158	0.0226	298.14	1.07
214	0.0303	298.14	1.14
274	0.0393	298.16	1.04
319	0.0453	298.16	0.93
356	0.0509	298.15	0.7
376	0.0539	298.18	0.52
509	0.0741	298.2	0.84
558	0.0802	298.17	0.58
6043	0.0861	298.18	0.63
684	0.0983	298.16	0.56
702	0.1002	298.14	0.61
758	0.1087	298.13	0.49
836	0.121	298.19	0.53
887	0.1271	298.17	0.53
922	0.131	298.18	0.57
943	0.1333	298.17	0.57
1083	0.1539	298.14	0.45
1142	0.1624	298.15	0.53
1213	0.1717	298.17	0.67
1280	0.1812	298.13	0.36
1307	0.186	298.15	0.36
1352	0.1918	298.17	0.57
1500	0.2114	298.15	0.45
1536	0.217	298.17	0.5
1624	0.2286	298.15	0.62
1748	0.2455	298.15	0.16
1793	0.2522	298.17	0.16
1905	0.2677	298.17	0.03
290	0.0313	313.12	1.11
700	0.076	313.12	0.69
1012	0.1095	313.15	0.87
1362	0.1468	313.14	0.91
1597	0.1712	313.14	1.05
1796	0.1918	313.15	1.2
2031	0.2159	313.15	1.24
273	0.0249	323.11	1.39
556	0.0512	323.15	0.72
867	0.0798	323.14	0.32
1292	0.119	323.16	1.16
1506	0.1384	323.14	1.11
1750	0.1599	323.15	1.1
2090	0.1896	323.15	1.47
357	0.0281	333.16	1.23
678	0.0539	333.14	1.27
1124	0.0893	333.15	1.66
1518	0.1202	333.16	1.6
2018	0.1591	333.17	2.01
288	0.0183	348.13	1.8
732	0.0478	348.16	1.32
1129	0.074	348.11	1.47
1553	0.1011	348.17	1.66
1960	0.1272	348.14	1.99

System: carbon dioxide + 1-butyl-3-methylimidazolium tetrafluoroborate; phases: Liquid, Gas
Property: Boiling temperature at pressure P, K (Liquid); method: Closed cell (Static) method
Pressure, kPa	Mole fraction of carbon dioxide	Boiling temperature at pressure P, K	uncertainty
145	0.0242	298.14	3.03
146	0.0242	298.14	3.06
164	0.0271	298.15	2.12
177	0.0294	298.13	2.6
207	0.0341	298.13	3.24
429	0.0688	298.15	2.19
496	0.0786	298.13	1.34
520	0.0818	298.14	1.03
644	0.1001	298.14	0.85
650	0.1011	298.13	0.93
658	0.1018	298.15	1.68
681	0.1054	298.14	1.63
952	0.1423	298.14	1.49
1174	0.1711	298.18	3.41
1298	0.1855	298.14	1.45
1396	0.1983	298.15	1.6
1671	0.2278	298.13	1.64
2128	0.2753	298.12	2.2
171	0.0198	313.1	2.15
252	0.0296	313.14	3.76
493	0.0575	313.16	2.24
709	0.0814	313.16	2.11
819	0.0945	313.17	1.75
1035	0.1168	313.16	2.39
1277	0.1407	313.15	1.95
1473	0.159	313.14	2.54
1813	0.1896	313.14	2.93
152	0.0155	323.15	3.06
398	0.0404	323.14	1.76
692	0.0686	323.13	1.64
753	0.0734	323.14	1.73
943	0.0908	323.17	1.27
1085	0.104	323.14	2.27
1374	0.1285	323.14	2.96
1520	0.1405	323.13	2.59
1762	0.1594	323.14	2.74
2052	0.1811	323.17	1.71
2201	0.1924	323.15	2.98
225	0.0192	333.13	4.37
414	0.0352	333.15	2.44
647	0.0544	333.15	2.27
743	0.062	333.13	3.04
850	0.0703	333.17	1.66
1029	0.0843	333.15	3.42
1234	0.0999	333.15	2.43
1606	0.1259	333.16	4.04
1928	0.1477	333.15	4.02
225	0.0146	348.17	3.71
439	0.0303	348.14	1.82
479	0.0321	348.15	2.41
744	0.0509	348.17	2.17
766	0.0511	348.15	3.52
1036	0.0684	348.15	3.58
1339	0.0874	348.21	4.09
1664	0.1067	348.13	5.29
2742	0.1658	348.15	1.64

System: carbon dioxide + N-methylpyrrolidone + 1-butyl-3-methylimidazolium tetrafluoroborate; phases: Liquid, Gas
Property: Boiling temperature at pressure P, K (Liquid); method: Closed cell (Static) method
Solvent: Mass fraction of 1-butyl-3-methylimidazolium tetrafluoroborate	Pressure, kPa	Mole fraction of carbon dioxide	Boiling temperature at pressure P, K	uncertainty
0.4973	152	0.0179	298.15	1.47
0.4973	511	0.0614	298.16	1.14
0.4973	906	0.1075	298.15	0.96
0.4973	1282	0.1495	298.15	1.08
0.4973	1538	0.1779	298.13	2.16
0.4973	1729	0.1975	298.13	1.24
0.4973	2036	0.2292	298.13	1.59
0.4973	278	0.0252	313.12	0.98
0.4973	616	0.056	313.15	0.92
0.4973	960	0.0865	313.15	1.05
0.4973	1312	0.1166	313.15	1.18
0.4973	1708	0.1496	313.15	1.47
0.4973	1780	0.1558	313.12	2.27
0.4973	1967	0.1706	313.14	1.62
0.4973	388	0.0289	323.17	0.99
0.4973	765	0.0581	323.17	1
0.4973	1097	0.0829	323.14	1.22
0.4973	1447	0.1086	323.14	1.47
0.4973	1718	0.1286	323.14	2.17
0.4973	2051	0.1517	323.16	2.48
0.2495	246	0.0298	298.08	1.2
0.2495	291	0.0359	298.11	1.06
0.2495	529	0.0649	298.17	0.87
0.2495	698	0.0862	298.1	0.84
0.2495	1007	0.1227	298.15	0.88
0.2495	1388	0.1675	298.15	0.97
0.2495	1771	0.212	298.16	1.12
0.2495	320	0.0294	313.14	1.21
0.2495	597	0.0556	313.15	0.73
0.2495	645	0.06	313.15	1
0.2495	945	0.0879	313.14	1.1
0.2495	1056	0.0982	313.15	0.97
0.2495	1510	0.1405	313.16	1.42
0.2495	1749	0.1616	313.09	1.62
0.2495	350	0.0271	323.14	1.09
0.2495	680	0.0534	323.14	1.16
0.2495	927	0.0734	323.04	1.24
0.2495	946	0.0744	323.13	1.46
0.2495	1214	0.0954	323.16	1.3
0.2495	1581	0.1245	323.16	2.19
0.2495	1599	0.1257	323.15	1.05
0.2495	2012	0.1575	323.15	1.6
0.0986	289	0.0377	298.14	1.08
0.0986	571	0.0749	298.14	0.81
0.0986	854	0.1116	298.14	0.86
0.0986	1160	0.152	298.14	0.81
0.0986	1512	0.1971	298.14	0.23
0.0986	1516	0.1983	298.22	0.25
0.0986	2034	0.2633	298.14	0.86
0.0986	2039	0.2633	298.14	0.85
0.0986	2046	0.2632	298.13	0.85
0.0986	311	0.0305	313.16	0.97
0.0986	617	0.0615	313.15	0.72
0.0986	1008	0.1008	313.16	0.91
0.0986	1309	0.1305	313.16	0.67
0.0986	1746	0.1741	313.13	1.85
0.0986	1980	0.1952	313.16	1
0.0986	353	0.0298	323.15	1.15
0.0986	709	0.0603	323.15	0.86
0.0986	1003	0.0856	323.16	1.15
0.0986	1416	0.1202	323.16	0.98
0.0986	1729	0.1465	323.16	1.42
0.0986	2029	0.171	323.15	1.73

System: N-methylpyrrolidone + 1-butyl-3-methylimidazolium tetrafluoroborate; phases: Liquid
Fixed: Pressure, kPa = 101
Property: Viscosity, Pa*s (Liquid); method: UNKNOWN
Temperature, K	Mass fraction of 1-butyl-3-methylimidazolium tetrafluoroborate	Viscosity, Pa*s	uncertainty
293.15	1	0.12934	0.012506
298.15	1	0.098951	0.006912
303.15	1	0.077	0.003458
308.15	1	0.060901	0.001364
313.15	1	0.049205	0.001253
318.15	1	0.040267	0.001026
323.15	1	0.033435	0.000853
328.15	1	0.028117	0.000719
333.15	1	0.023941	0.000613
338.15	1	0.020619	0.000529
343.15	1	0.017924	0.000461
293.15	0	0.001786	4.9e-05
298.15	0	0.001693	4.7e-05
303.15	0	0.001564	4.4e-05
308.15	0	0.001448	4.2e-05
313.15	0	0.0013463	3.92e-05
318.15	0	0.001258	3.7e-05
323.15	0	0.001176	3.5e-05
328.15	0	0.001103	3.3e-05
333.15	0	0.001037	3.2e-05
338.15	0	0.0009769	3.05e-05
343.15	0	0.000923	2.9e-05
293.15	0.7413	0.027487	0.000697
298.15	0.7413	0.022732	0.000568
303.15	0.7413	0.01907	0.000477
308.15	0.7413	0.01626	0.000408
313.15	0.7413	0.01388	0.000349
318.15	0.7413	0.01204	0.000304
323.15	0.7413	0.01054	0.000267
328.15	0.7413	0.009281	0.000236
333.15	0.7413	0.008224	0.00021
338.15	0.7413	0.007318	0.000187
343.15	0.7413	0.006555	0.000169
293.15	0.4971	0.009374	0.000234
298.15	0.4971	0.008144	0.000204
303.15	0.4971	0.007116	0.000179
308.15	0.4971	0.006257	0.000158
313.15	0.4971	0.005544	0.000141
318.15	0.4971	0.004948	0.000127
323.15	0.4971	0.004444	0.000114
328.15	0.4971	0.004015	0.000104
333.15	0.4971	0.003636	9.5e-05
338.15	0.4971	0.00334	8.8e-05
343.15	0.4971	0.003064	8.1e-05
293.15	0.2498	0.003938	0.000101
298.15	0.2498	0.003528	9.1e-05
303.15	0.2498	0.00318	8.3e-05
308.15	0.2498	0.002884	7.6e-05
313.15	0.2498	0.002627	7e-05
318.15	0.2498	0.002405	6.5e-05
323.15	0.2498	0.002214	6e-05
328.15	0.2498	0.002043	5.6e-05
333.15	0.2498	0.001892	5.2e-05
338.15	0.2498	0.00176	4.9e-05
343.15	0.2498	0.001641	4.6e-05
293.15	0.0986	0.002568	6.8e-05
298.15	0.0986	0.00233	6.2e-05
303.15	0.0986	0.002129	5.8e-05
308.15	0.0986	0.001953	5.4e-05
313.15	0.0986	0.001798	5e-05
318.15	0.0986	0.001662	4.7e-05
323.15	0.0986	0.001542	4.4e-05
328.15	0.0986	0.001435	4.1e-05
333.15	0.0986	0.001341	3.9e-05
338.15	0.0986	0.001258	3.7e-05
343.15	0.0986	0.001182	3.5e-05

System: N-methylpyrrolidone + 1-butyl-3-methylimidazolium tetrafluoroborate; phases: Liquid
Fixed: Pressure, kPa = 101
Property: Mass density, kg/m3 (Liquid); method: Vibrating tube method
Temperature, K	Mass fraction of 1-butyl-3-methylimidazolium tetrafluoroborate	Mass density, kg/m3	uncertainty
293.15	1	1206	1.3
298.15	1	1202.4	1.3
303.15	1	1198.8	1.3
308.15	1	1195.2	1.3
313.15	1	1191.7	1.3
318.15	1	1188.1	1.2
323.15	1	1184.6	1.2
328.15	1	1181.1	1.2
333.15	1	1177.6	1.2
338.15	1	1174.2	1.2
343.15	1	1170.7	1.2
293.15	0	1034.1	0.2
298.15	0	1029.7	0.2
303.15	0	1025.2	0.2
308.15	0	1020.8	0.2
313.15	0	1016.3	0.2
318.15	0	1011.9	0.2
323.15	0	1007.4	0.2
328.15	0	1002.9	0.2
333.15	0	998.4	0.2
338.15	0	993.9	0.2
343.15	0	989.4	0.2
293.15	0.7413	1160.6	0.8
298.15	0.7413	1156.8	0.8
303.15	0.7413	1153	0.8
308.15	0.7413	1149.2	0.8
313.15	0.7413	1145.4	0.8
318.15	0.7413	1141.7	0.8
323.15	0.7413	1137.9	0.8
328.15	0.7413	1134.2	0.8
333.15	0.7413	1130.5	0.7
338.15	0.7413	1126.7	0.7
343.15	0.7413	1123	1
293.15	0.4971	1119.5	0.5
298.15	0.4971	1115.5	0.5
303.15	0.4971	1111.5	0.5
308.15	0.4971	1107.5	0.5
313.15	0.4971	1103.5	0.5
318.15	0.4971	1099.5	0.5
323.15	0.4971	1095.5	0.5
328.15	0.4971	1091.6	0.4
333.15	0.4971	1087.6	0.4
338.15	0.4971	1083.6	0.4
343.15	0.4971	1079.6	0.4
293.15	0.2498	1077.9	0.3
298.15	0.2498	1073.7	0.3
303.15	0.2498	1069.5	0.3
308.15	0.2498	1065.4	0.3
313.15	0.2498	1061.2	0.3
318.15	0.2498	1057	1
323.15	0.2498	1052.8	0.3
328.15	0.2498	1048.6	0.3
333.15	0.2498	1044.4	0.3
338.15	0.2498	1040.2	0.3
343.15	0.2498	1036	1
293.15	0.0986	1052.7	0.2
298.15	0.0986	1048.4	0.2
303.15	0.0986	1044	0.2
308.15	0.0986	1039.7	0.2
313.15	0.0986	1035.4	0.2
318.15	0.0986	1031	0.2
323.15	0.0986	1026.6	0.2
328.15	0.0986	1022.3	0.2
333.15	0.0986	1018	0.2
338.15	0.0986	1013.6	0.2
343.15	0.0986	1009.2	0.2

System: N-methylpyrrolidone + 1-butyl-3-methylimidazolium tetrafluoroborate; phases: Liquid
Fixed: Pressure, kPa = 101
Property: Speed of sound, m/s (Liquid); method: Single path-length method
Temperature, K	Mass fraction of 1-butyl-3-methylimidazolium tetrafluoroborate	Speed of sound, m/s	uncertainty
293.15	1	1576.7	2.1
298.15	1	1564.7	2.1
303.15	1	1552.8	2.1
308.15	1	1541.2	2.1
313.15	1	1529.6	2.1
318.15	1	1518.2	2.1
323.15	1	1506.9	2.1
328.15	1	1495.7	2.1
333.15	1	1484.5	2.1
338.15	1	1473.2	2.1
343.15	1	1461.7	2.1
293.15	0	1565.7	0.9
298.15	0	1546.1	0.9
303.15	0	1526.7	0.9
308.15	0	1507.5	0.9
313.15	0	1488.3	0.9
318.15	0	1469.2	0.9
323.15	0	1450.4	0.9
328.15	0	1431.4	0.9
333.15	0	1412.8	0.9
338.15	0	1394.4	0.9
343.15	0	1376	0.9
293.15	0.7413	1580.1	1.8
298.15	0.7413	1566.6	1.8
303.15	0.7413	1552.8	1.8
308.15	0.7413	1539.2	1.8
313.15	0.7413	1525.6	1.8
318.15	0.7413	1512.2	1.8
323.15	0.7413	1498.9	1.8
328.15	0.7413	1485.6	1.8
333.15	0.7413	1472.4	1.8
338.15	0.7413	1459.3	1.8
343.15	0.7413	1445.8	1.8
293.15	0.4971	1585.5	1.4
298.15	0.4971	1570.1	1.4
303.15	0.4971	1554.5	1.4
308.15	0.4971	1539	1.4
313.15	0.4971	1523.7	1.4
318.15	0.4971	1508.4	1.4
323.15	0.4971	1493.2	1.4
328.15	0.4971	1478.1	1.4
333.15	0.4971	1463.2	1.4
338.15	0.4971	1448.1	1.4
343.15	0.4971	1432.9	1.4
293.15	0.2498	1582	1.1
298.15	0.2498	1564.5	1.1
303.15	0.2498	1546.8	1.1
308.15	0.2498	1529.4	1.1
313.15	0.2498	1512	1.1
318.15	0.2498	1494.8	1.1
323.15	0.2498	1478	1.1
328.15	0.2498	1461.1	1.1
333.15	0.2498	1444.4	1.1
338.15	0.2498	1427.8	1.1
343.15	0.2498	1411.34	1.12
293.15	0.0986	1579.2	1
298.15	0.0986	1560.5	1
303.15	0.0986	1541.8	1
308.15	0.0986	1523.2	1
313.15	0.0986	1504.8	1
318.15	0.0986	1486.6	1
323.15	0.0986	1468.4	1
328.15	0.0986	1450.5	1
333.15	0.0986	1432.6	1
338.15	0.0986	1414.6	1
343.15	0.0986	1396.4	1
