Measured thermophysical data. Viscosity of aqueous calcium chloride solutions at high temperatures and high pressures
Source: Fluid Phase Equilib., 2006, 10.1016/j.fluid.2005.12.036
Compound 1: water, H2O, InChI=1S/H2O/h1H2
Compound 2: calcium chloride, CaCl2, InChI=1S/Ca.2ClH/h;2*1H/q+2;;/p-2, purity 99.5%

System: water; phases: Liquid
Property: Viscosity, Pa*s (Liquid); method: Capillary tube (Ostwald; Ubbelohde) method
Temperature, K	Pressure, kPa	Viscosity, Pa*s	uncertainty
308.48	10000	0.0007162	2.33e-05
308.48	30000	0.0007178	2.34e-05
308.48	60000	0.0007224	2.35e-05
369.37	10000	0.0002976	9.8e-06
369.37	30000	0.0003008	9.9e-06
369.37	60000	0.0003085	1.01e-05
439.79	10000	0.0001664	5.5e-06
439.79	30000	0.0001709	5.7e-06
439.79	60000	0.0001756	5.8e-06
494.26	10000	0.0001234	4.2e-06
494.26	30000	0.0001285	4.3e-06
494.26	60000	0.0001334	4.5e-06
537.9	10000	0.0001007	3.4e-06
537.9	30000	0.0001077	3.7e-06
537.9	60000	0.0001145	3.9e-06
578.49	10000	8.4e-05	2.9e-06
578.49	30000	9.14e-05	3.1e-06
578.49	60000	9.95e-05	3.4e-06

System: water + calcium chloride; phases: Liquid
Property: Viscosity, Pa*s (Liquid); method: Capillary tube (Ostwald; Ubbelohde) method
Molality, mol/kg of calcium chloride	Temperature, K	Pressure, kPa	Viscosity, Pa*s	uncertainty
0.1	293.15	100	0.0010319	3.35e-05
0.1	293.15	10000	0.0010325	3.35e-05
0.1	293.15	30000	0.001034	3.36e-05
0.1	293.15	60000	0.001037	3.37e-05
0.1	298.15	100	0.0009179	2.98e-05
0.1	298.15	10000	0.0009185	2.99e-05
0.1	298.15	30000	0.0009196	2.99e-05
0.1	298.15	60000	0.000922	3e-05
0.1	310.25	100	0.000713	2.32e-05
0.1	310.25	10000	0.0007136	2.32e-05
0.1	310.25	30000	0.0007165	2.33e-05
0.1	310.25	60000	0.0007199	2.34e-05
0.1	331.45	100	0.0004958	1.62e-05
0.1	331.45	10000	0.0004982	1.63e-05
0.1	331.45	30000	0.0005033	1.64e-05
0.1	331.45	60000	0.0005113	1.67e-05
0.1	346.95	100	0.0003978	1.3e-05
0.1	346.95	10000	0.000401	1.31e-05
0.1	346.95	30000	0.0004065	1.33e-05
0.1	346.95	60000	0.000415	1.36e-05
0.1	371.59	100	0.0002967	9.7e-06
0.1	371.59	10000	0.0002996	9.8e-06
0.1	371.59	30000	0.0003056	1e-05
0.1	371.59	60000	0.0003139	1.03e-05
0.1	397.4	10000	0.0002342	7.7e-06
0.1	397.4	30000	0.0002396	7.9e-06
0.1	397.4	60000	0.0002478	8.2e-06
0.1	421.85	10000	0.0001931	6.4e-06
0.1	421.85	30000	0.0001983	6.6e-06
0.1	421.85	60000	0.0002045	6.8e-06
0.1	445.65	10000	0.0001649	5.5e-06
0.1	445.65	30000	0.0001695	5.6e-06
0.1	445.65	60000	0.0001765	5.9e-06
0.1	468.35	10000	0.0001446	4.8e-06
0.1	468.35	30000	0.000149	5e-06
0.1	468.35	60000	0.0001563	5.2e-06
0.1	488.47	10000	0.0001305	4.4e-06
0.1	488.47	30000	0.0001353	4.5e-06
0.1	488.47	60000	0.000142	4.8e-06
0.1	510.75	10000	0.0001176	4e-06
0.1	510.75	30000	0.0001225	4.1e-06
0.1	510.75	60000	0.0001295	4.4e-06
0.1	527.45	10000	0.0001092	3.7e-06
0.1	527.45	30000	0.0001145	3.9e-06
0.1	527.45	60000	0.0001215	4.1e-06
0.1	543.95	10000	0.0001017	3.5e-06
0.1	543.95	30000	0.0001073	3.7e-06
0.1	543.95	60000	0.0001145	3.9e-06
0.1	574.85	10000	8.85e-05	3.1e-06
0.1	574.85	30000	9.55e-05	3.3e-06
0.1	574.85	60000	0.0001024	3.5e-06
0.33	293.15	100	0.0011	3.57e-05
0.33	293.15	10000	0.0011005	3.57e-05
0.33	293.15	30000	0.0011002	3.57e-05
0.33	293.15	60000	0.0011003	3.57e-05
0.33	298.15	100	0.0009816	3.19e-05
0.33	298.15	10000	0.000982	3.19e-05
0.33	298.15	30000	0.0009825	3.19e-05
0.33	298.15	60000	0.000984	3.2e-05
0.33	312.45	100	0.000733	2.39e-05
0.33	312.45	10000	0.0007335	2.39e-05
0.33	312.45	30000	0.0007342	2.39e-05
0.33	312.45	60000	0.000735	2.39e-05
0.33	334.26	100	0.0005118	1.67e-05
0.33	334.26	10000	0.0005139	1.68e-05
0.33	334.26	30000	0.0005195	1.69e-05
0.33	334.26	60000	0.0005265	1.72e-05
0.33	349.52	100	0.000416	1.36e-05
0.33	349.52	10000	0.0004191	1.37e-05
0.33	349.52	30000	0.000424	1.39e-05
0.33	349.52	60000	0.0004328	1.41e-05
0.33	368.75	100	0.0003325	1.09e-05
0.33	368.75	10000	0.0003336	1.09e-05
0.33	368.75	30000	0.0003354	1.1e-05
0.33	368.75	60000	0.0003397	1.11e-05
0.33	394.24	10000	0.0002627	8.6e-06
0.33	394.24	30000	0.0002798	9.2e-06
0.33	394.24	60000	0.0002778	9.1e-06
0.33	418.47	10000	0.0002164	7.2e-06
0.33	418.47	30000	0.0002229	7.4e-06
0.33	418.47	60000	0.0002304	7.6e-06
0.33	440.46	10000	0.0001865	6.2e-06
0.33	440.46	30000	0.0001932	6.4e-06
0.33	440.46	60000	0.0001996	6.6e-06
0.33	466.75	10000	0.0001597	5.3e-06
0.33	466.75	30000	0.0001654	5.5e-06
0.33	466.75	60000	0.0001724	5.7e-06
0.33	486.75	10000	0.0001441	4.8e-06
0.33	486.75	30000	0.0001497	5e-06
0.33	486.75	60000	0.000156	5.2e-06
0.33	508.35	10000	0.0001303	4.4e-06
0.33	508.35	30000	0.0001364	4.6e-06
0.33	508.35	60000	0.0001429	4.8e-06
0.33	524.35	10000	0.0001212	4.1e-06
0.33	524.35	30000	0.000127	4.3e-06
0.33	524.35	60000	0.000134	4.5e-06
0.33	551.7	10000	0.0001076	3.7e-06
0.33	551.7	30000	0.0001142	3.9e-06
0.33	551.7	60000	0.0001219	4.1e-06
0.33	572.85	10000	9.78e-05	3.3e-06
0.33	572.85	30000	0.0001043	3.6e-06
0.33	572.85	60000	0.0001137	3.9e-06
0.65	293.15	100	0.0012	3.9e-05
0.65	293.15	10000	0.0012003	3.9e-05
0.65	293.15	30000	0.0012017	3.9e-05
0.65	293.15	60000	0.0012026	3.91e-05
0.65	298.15	100	0.0010733	3.49e-05
0.65	298.15	10000	0.0010739	3.49e-05
0.65	298.15	30000	0.0010751	3.49e-05
0.65	298.15	60000	0.0010764	3.5e-05
0.65	313.45	100	0.0007889	2.57e-05
0.65	313.45	10000	0.0007898	2.57e-05
0.65	313.45	30000	0.0007904	2.57e-05
0.65	313.45	60000	0.0007913	2.57e-05
0.65	328.75	100	0.0006142	2e-05
0.65	328.75	10000	0.0006163	2.01e-05
0.65	328.75	30000	0.0006231	2.03e-05
0.65	328.75	60000	0.0006329	2.06e-05
0.65	349.4	100	0.0004626	1.51e-05
0.65	349.4	10000	0.0004659	1.52e-05
0.65	349.4	30000	0.0004732	1.54e-05
0.65	349.4	60000	0.0004838	1.58e-05
0.65	372.85	100	0.0003546	1.16e-05
0.65	372.85	10000	0.0003581	1.17e-05
0.65	372.85	30000	0.0003653	1.2e-05
0.65	372.85	60000	0.0003759	1.23e-05
0.65	395.46	10000	0.0002901	9.5e-06
0.65	395.46	30000	0.0002968	9.7e-06
0.65	395.46	60000	0.0003065	1.01e-05
0.65	422.65	10000	0.000235	7.8e-06
0.65	422.65	30000	0.0002414	8e-06
0.65	422.65	60000	0.0002507	8.3e-06
0.65	447.84	10000	0.0001998	6.6e-06
0.65	447.84	30000	0.0002062	6.8e-06
0.65	447.84	60000	0.0002144	7.1e-06
0.65	469.45	10000	0.0001772	5.9e-06
0.65	469.45	30000	0.0001831	6.1e-06
0.65	469.45	60000	0.0001913	6.3e-06
0.65	494.76	10000	0.0001561	5.2e-06
0.65	494.76	30000	0.000162	5.4e-06
0.65	494.76	60000	0.0001702	5.7e-06
0.65	515.32	10000	0.0001421	4.8e-06
0.65	515.32	30000	0.0001483	5e-06
0.65	515.32	60000	0.000156	5.2e-06
0.65	532.17	10000	0.000132	4.4e-06
0.65	532.17	30000	0.0001382	4.6e-06
0.65	532.17	60000	0.0001465	4.9e-06
0.65	548.17	10000	0.0001232	4.2e-06
0.65	548.17	30000	0.00013	4.4e-06
0.65	548.17	60000	0.0001388	4.7e-06
0.65	575.12	10000	0.000109	3.7e-06
0.65	575.12	30000	0.0001175	4e-06
0.65	575.12	60000	0.000127	4.3e-06
0.97	293.15	100	0.0013141	4.27e-05
0.97	293.15	10000	0.0013149	4.27e-05
0.97	293.15	30000	0.0013154	4.27e-05
0.97	293.15	60000	0.0013168	4.28e-05
0.97	298.15	100	0.0011748	3.82e-05
0.97	298.15	10000	0.0011757	3.82e-05
0.97	298.15	30000	0.001176	3.82e-05
0.97	298.15	60000	0.0011765	3.82e-05
0.97	315.38	100	0.000842	2.74e-05
0.97	315.38	10000	0.0008423	2.74e-05
0.97	315.38	30000	0.0008434	2.74e-05
0.97	315.38	60000	0.0008451	2.75e-05
0.97	330.45	100	0.0006653	2.17e-05
0.97	330.45	10000	0.000669	2.18e-05
0.97	330.45	30000	0.0006738	2.19e-05
0.97	330.45	60000	0.0006882	2.24e-05
0.97	348.74	100	0.000521	1.7e-05
0.97	348.74	10000	0.0005246	1.71e-05
0.97	348.74	30000	0.0005331	1.74e-05
0.97	348.74	60000	0.0005453	1.78e-05
0.97	370.48	100	0.000408	1.33e-05
0.97	370.48	10000	0.0004121	1.35e-05
0.97	370.48	30000	0.0004209	1.38e-05
0.97	370.48	60000	0.0004316	1.41e-05
0.97	399.44	10000	0.0003161	1.04e-05
0.97	399.44	30000	0.0003243	1.06e-05
0.97	399.44	60000	0.0003353	1.1e-05
0.97	424.74	10000	0.0002621	8.6e-06
0.97	424.74	30000	0.0002688	8.8e-06
0.97	424.74	60000	0.0002801	9.2e-06
0.97	446.48	10000	0.0002279	7.5e-06
0.97	446.48	30000	0.0002348	7.7e-06
0.97	446.48	60000	0.0002449	8.1e-06
0.97	470.94	10000	0.0001994	6.6e-06
0.97	470.94	30000	0.0002062	6.8e-06
0.97	470.94	60000	0.0002154	7.1e-06
0.97	496.58	10000	0.0001759	5.8e-06
0.97	496.58	30000	0.0001828	6.1e-06
0.97	496.58	60000	0.0001919	6.4e-06
0.97	517.45	10000	0.0001601	5.3e-06
0.97	517.45	30000	0.0001671	5.6e-06
0.97	517.45	60000	0.0001763	5.9e-06
0.97	534.76	10000	0.0001484	5e-06
0.97	534.76	30000	0.0001564	5.2e-06
0.97	534.76	60000	0.0001652	5.5e-06
0.97	556.25	10000	0.0001357	4.6e-06
0.97	556.25	30000	0.0001441	4.8e-06
0.97	556.25	60000	0.0001544	5.2e-06
0.97	572.49	10000	0.0001262	4.3e-06
0.97	572.49	30000	0.0001357	4.6e-06
0.97	572.49	60000	0.0001466	4.9e-06
1.4	293.15	100	0.0014924	4.84e-05
1.4	293.15	10000	0.0014931	4.85e-05
1.4	293.15	30000	0.0014939	4.85e-05
1.4	293.15	60000	0.0014936	4.85e-05
1.4	298.15	100	0.0013386	4.35e-05
1.4	298.15	10000	0.0013394	4.35e-05
1.4	298.15	30000	0.0013408	4.35e-05
1.4	298.15	60000	0.0013421	4.36e-05
1.4	309.75	100	0.0010656	3.46e-05
1.4	309.75	10000	0.0010668	3.47e-05
1.4	309.75	30000	0.001071	3.48e-05
1.4	309.75	60000	0.0010785	3.5e-05
1.4	324.24	100	0.0008383	2.73e-05
1.4	324.24	10000	0.0008425	2.74e-05
1.4	324.24	30000	0.0008515	2.77e-05
1.4	324.24	60000	0.0008602	2.8e-05
1.4	348.75	100	0.0006034	1.97e-05
1.4	348.75	10000	0.0006084	1.98e-05
1.4	348.75	30000	0.0006161	2.01e-05
1.4	348.75	60000	0.0006313	2.06e-05
1.4	372.94	100	0.0004618	1.51e-05
1.4	372.94	10000	0.0004668	1.52e-05
1.4	372.94	30000	0.0004755	1.55e-05
1.4	372.94	60000	0.0004893	1.6e-05
1.4	397.45	10000	0.0003729	1.22e-05
1.4	397.45	30000	0.0003813	1.25e-05
1.4	397.45	60000	0.000395	1.29e-05
1.4	424.03	10000	0.0003058	1e-05
1.4	424.03	30000	0.000314	1.03e-05
1.4	424.03	60000	0.0003256	1.07e-05
1.4	447.23	10000	0.000264	8.7e-06
1.4	447.23	30000	0.000272	8.9e-06
1.4	447.23	60000	0.0002831	9.3e-06
1.4	471.96	10000	0.0002307	7.6e-06
1.4	471.96	30000	0.0002384	7.9e-06
1.4	471.96	60000	0.000248	8.2e-06
1.4	497.32	10000	0.0002036	6.7e-06
1.4	497.32	30000	0.0002119	7e-06
1.4	497.32	60000	0.0002223	7.3e-06
1.4	514.37	10000	0.0001886	6.3e-06
1.4	514.37	30000	0.0001965	6.5e-06
1.4	514.37	60000	0.0002075	6.9e-06
1.4	525.46	10000	0.0001796	6e-06
1.4	525.46	30000	0.0001875	6.2e-06
1.4	525.46	60000	0.0001991	6.6e-06
1.4	547.32	10000	0.000164	5.5e-06
1.4	547.32	30000	0.000173	5.8e-06
1.4	547.32	60000	0.0001845	6.1e-06
1.4	574.06	10000	0.0001459	4.9e-06
1.4	574.06	30000	0.000157	5.2e-06
1.4	574.06	60000	0.00017	5.7e-06
2	293.15	100	0.0017999	5.84e-05
2	293.15	10000	0.0018006	5.84e-05
2	293.15	30000	0.001801	5.84e-05
2	293.15	60000	0.0018017	5.85e-05
2	298.15	100	0.001618	5.25e-05
2	298.15	10000	0.0016185	5.25e-05
2	298.15	30000	0.0016191	5.25e-05
2	298.15	60000	0.0016197	5.26e-05
2	308.45	100	0.001322	4.29e-05
2	308.45	10000	0.0013231	4.3e-05
2	308.45	30000	0.0013238	4.3e-05
2	308.45	60000	0.0013254	4.3e-05
2	327.74	100	0.0009588	3.12e-05
2	327.74	10000	0.0009626	3.13e-05
2	327.74	30000	0.0009721	3.16e-05
2	327.74	60000	0.0009875	3.21e-05
2	349.02	100	0.0007214	2.35e-05
2	349.02	10000	0.0007266	2.37e-05
2	349.02	30000	0.0007376	2.4e-05
2	349.02	60000	0.0007542	2.45e-05
2	372.09	100	0.0005584	1.82e-05
2	372.09	10000	0.0005641	1.84e-05
2	372.09	30000	0.0005747	1.87e-05
2	372.09	60000	0.000591	1.93e-05
2	397.74	10000	0.0004454	1.46e-05
2	397.74	30000	0.0004559	1.49e-05
2	397.74	60000	0.0004714	1.54e-05
2	414.35	10000	0.0003904	1.28e-05
2	414.35	30000	0.0004006	1.31e-05
2	414.35	60000	0.0004154	1.36e-05
2	423.76	10000	0.0003651	1.2e-05
2	423.76	30000	0.0003751	1.23e-05
2	423.76	60000	0.0003891	1.27e-05
2	448.94	10000	0.0003116	1.02e-05
2	448.94	30000	0.0003214	1.05e-05
2	448.94	60000	0.0003348	1.1e-05
2	474.06	10000	0.0002723	9e-06
2	474.06	30000	0.0002817	9.3e-06
2	474.06	60000	0.0002944	9.7e-06
2	499.35	10000	0.000241	7.9e-06
2	499.35	30000	0.0002506	8.3e-06
2	499.35	60000	0.0002629	8.7e-06
2	510.74	10000	0.0002294	7.6e-06
2	510.74	30000	0.0002391	7.9e-06
2	510.74	60000	0.0002523	8.3e-06
2	524.06	10000	0.0002163	7.1e-06
2	524.06	30000	0.0002263	7.5e-06
2	524.06	60000	0.0002398	7.9e-06
2	548.94	10000	0.0001948	6.5e-06
2	548.94	30000	0.0002061	6.8e-06
2	548.94	60000	0.000226	7.5e-06
2	572.35	10000	0.0001757	5.8e-06
2	572.35	30000	0.0001889	6.3e-06
2	572.35	60000	0.0002044	6.8e-06
