Measured thermophysical data. Vapor liquid equilibria and critical loci of binary and ternary systems composed of CH2F2, C2HF5 and C2H2F4
Source: Fluid Phase Equilib., 2006, 10.1016/j.fluid.2006.07.017
Compound 1: difluoromethane, CH2F2, InChI=1S/CH2F2/c2-1-3/h1H2
Compound 2: 1,1,1,2-tetrafluoroethane, C2H2F4, InChI=1S/C2H2F4/c3-1-2(4,5)6/h1H2
Compound 3: pentafluoroethane, C2HF5, InChI=1S/C2HF5/c3-1(4)2(5,6)7/h1H

System: difluoromethane + 1,1,1,2-tetrafluoroethane; phases: Liquid, Gas
Property: Vapor or sublimation pressure, kPa (Liquid); method: CCELL:UFactor:8
Mole fraction of difluoromethane	Temperature, K	Vapor or sublimation pressure, kPa	uncertainty
0.034	350.15	2545	82
0.065	350.15	2633	84
0.127	350.15	2769	89
0.163	350.15	2848	91
0.255	350.15	3121	100
0.342	350.15	3357	108
0.465	350.15	3676	118
0.539	350.15	3946	126
0.629	350.15	4265	137
0.671	350.15	4437	142
0.793	350.15	4833	155
0.061	323.15	1376	44
0.179	323.15	1591	51
0.314	323.15	1788	57
0.368	323.15	1884	60
0.463	323.15	2043	66
0.524	323.15	2161	69
0.564	323.15	2238	72
0.692	323.15	2494	80
0.121	313.15	1169	38
0.151	313.15	1218	39
0.284	313.15	1394	45
0.349	313.15	1502	48
0.378	313.15	1571	50
0.448	313.15	1659	53
0.575	313.15	1836	59
0.666	313.15	1944	62
0.829	313.15	2179	70
0.138	363.15	3630	116
0.49	348.15	3630	116
0.807	336.15	3630	116
0.893	333.15	3630	116
0.194	363.15	3830	123
0.553	348.15	3830	123
0.88	336.15	3830	123
0.368	363.15	4420	142
0.738	348.15	4420	142
0.957	336.15	4420	142

System: difluoromethane + 1,1,1,2-tetrafluoroethane; phases: Gas, Liquid
Property: Mole fraction of difluoromethane (Gas); method: Chromatography
Mole fraction of difluoromethane	Temperature, K	Mole fraction of difluoromethane	uncertainty
0.034	350.15	0.053	0.001
0.065	350.15	0.095	0.001
0.127	350.15	0.18	0.002
0.163	350.15	0.222	0.003
0.255	350.15	0.37	0.004
0.342	350.15	0.442	0.005
0.465	350.15	0.586	0.005
0.539	350.15	0.636	0.004
0.629	350.15	0.727	0.003
0.671	350.15	0.755	0.003
0.793	350.15	0.849	0.002
0.061	323.15	0.116	0.001
0.179	323.15	0.323	0.004
0.314	323.15	0.468	0.006
0.368	323.15	0.528	0.006
0.463	323.15	0.613	0.005
0.524	323.15	0.67	0.004
0.564	323.15	0.707	0.004
0.692	323.15	0.803	0.002
0.121	313.15	0.247	0.003
0.151	313.15	0.295	0.004
0.284	313.15	0.48	0.006
0.349	313.15	0.541	0.006
0.378	313.15	0.579	0.005
0.448	313.15	0.641	0.004
0.575	313.15	0.752	0.003
0.666	313.15	0.807	0.002
0.829	313.15	0.915	0.001
0.138	363.15	0.171	0.002
0.49	348.15	0.573	0.005
0.807	336.15	0.862	0.002
0.893	333.15	0.925	0.001
0.194	363.15	0.236	0.003
0.553	348.15	0.634	0.004
0.88	336.15	0.914	0.001
0.368	363.15	0.409	0.005
0.738	348.15	0.791	0.003
0.957	336.15	0.969	0.001

System: pentafluoroethane + 1,1,1,2-tetrafluoroethane; phases: Liquid, Gas
Property: Vapor or sublimation pressure, kPa (Liquid); method: CCELL:UFactor:8
Mole fraction of pentafluoroethane	Temperature, K	Vapor or sublimation pressure, kPa	uncertainty
0.045	323.15	1345	43
0.072	333.15	1855	60
0.075	314.05	1118	36
0.099	343.15	2248	72
0.112	353.15	2823	91
0.113	363.15	3494	112
0.124	353.15	2849	91
0.138	323.15	1434	46
0.148	363.15	3577	115
0.169	333.15	1973	63
0.177	363.15	3630	116
0.188	303.75	920	30
0.202	314.05	1230	40
0.202	343.15	2412	77
0.202	363.15	3716	119
0.205	353.15	3006	96
0.237	323.15	1591	51
0.237	363.15	3807	122
0.262	363.15	3830	123
0.266	333.15	2052	66
0.276	353.15	3160	101
0.279	314.05	1295	42
0.289	363.15	3920	126
0.316	303.75	1009	32
0.321	343.15	2630	84
0.365	333.15	2169	70
0.37	353.15	3354	108
0.42	343.15	2803	90
0.43	314.05	1472	47
0.455	353.15	3537	113
0.46	323.15	1855	60
0.461	303.75	1136	37
0.491	333.15	2356	76
0.515	343.15	2982	96
0.54	353.15	3709	119
0.552	323.15	1949	63
0.595	303.75	1245	40
0.599	314.05	1594	51
0.603	343.15	3135	100
0.625	323.15	2047	66
0.644	333.15	2571	82
0.675	343.15	3275	105
0.687	348.15	3630	116
0.721	303.75	1339	43
0.743	314.05	1725	55
0.753	323.15	2174	70
0.769	343.15	3445	110
0.801	323.15	2243	72
0.805	333.15	2846	91
0.82	343.15	3542	114
0.862	303.75	1472	47
0.871	314.05	1878	60
0.938	333.15	3042	98

System: pentafluoroethane + 1,1,1,2-tetrafluoroethane; phases: Gas, Liquid
Property: Mole fraction of pentafluoroethane (Gas); method: Chromatography
Mole fraction of pentafluoroethane	Temperature, K	Mole fraction of pentafluoroethane	uncertainty
0.045	323.15	0.073	0.001
0.072	333.15	0.171	0.002
0.075	314.05	0.118	0.002
0.099	343.15	0.137	0.002
0.112	353.15	0.145	0.002
0.113	363.15	0.137	0.002
0.124	353.15	0.159	0.002
0.138	323.15	0.207	0.003
0.148	363.15	0.177	0.002
0.169	333.15	0.313	0.004
0.188	303.75	0.297	0.004
0.202	314.05	0.289	0.004
0.202	343.15	0.267	0.003
0.202	363.15	0.233	0.003
0.205	353.15	0.255	0.003
0.237	323.15	0.347	0.004
0.237	363.15	0.268	0.003
0.266	333.15	0.368	0.004
0.276	353.15	0.332	0.004
0.279	314.05	0.364	0.004
0.289	363.15	0.31	0.004
0.316	303.75	0.442	0.005
0.321	343.15	0.394	0.005
0.365	333.15	0.476	0.006
0.37	353.15	0.426	0.005
0.42	343.15	0.491	0.006
0.43	314.05	0.536	0.006
0.455	353.15	0.505	0.006
0.46	323.15	0.548	0.006
0.461	303.75	0.59	0.005
0.491	333.15	0.587	0.005
0.515	343.15	0.587	0.005
0.54	353.15	0.576	0.005
0.552	323.15	0.653	0.004
0.595	303.75	0.707	0.004
0.599	314.05	0.705	0.004
0.603	343.15	0.664	0.004
0.625	323.15	0.708	0.004
0.644	333.15	0.717	0.004
0.675	343.15	0.724	0.003
0.721	303.75	0.818	0.002
0.743	314.05	0.816	0.002
0.753	323.15	0.819	0.002
0.769	343.15	0.8	0.003
0.801	323.15	0.876	0.002
0.805	333.15	0.851	0.002
0.82	343.15	0.841	0.002
0.862	303.75	0.921	0.001
0.871	314.05	0.917	0.001
0.938	333.15	0.951	0.001
0.177	363.15	0.201	0.002
0.687	348.15	0.71	0.004
0.262	363.15	0.284	0.003

System: difluoromethane + pentafluoroethane + 1,1,1,2-tetrafluoroethane; phases: Liquid, Gas
Property: Mole fraction of pentafluoroethane (Liquid); method: Chromatography
Property: Mole fraction of pentafluoroethane (Gas); method: Chromatography
Property: Mole fraction of difluoromethane (Gas); method: Chromatography
Temperature, K	Pressure, kPa	Mole fraction of difluoromethane	Mole fraction of pentafluoroethane	uncertainty	Mole fraction of pentafluoroethane	uncertainty	Mole fraction of difluoromethane	uncertainty
363.15	3630	0	0.177	0.01	0.201	0.01	0	
363.15	3630	0.075	0.078	0.01	0.091	0.01	0.092	
363.15	3630	0.138	0	0.001	0	0.001	0.171	
348.15	3630	0	0.687	0.021	0.71	0.021	0	
348.15	3630	0.198	0.384	0.012	0.408	0.013	0.226	
348.15	3630	0.22	0.352	0.011	0.375	0.012	0.25	
348.15	3630	0.296	0.253	0.01	0.272	0.01	0.341	
348.15	3630	0.38	0.13	0.01	0.142	0.01	0.442	
348.15	3630	0.49	0	0.001	0	0.001	0.573	
336.15	3630	0.226	0.774	0.023	0.761	0.023	0.239	
336.15	3630	0.402	0.511	0.016	0.502	0.016	0.43	
336.15	3630	0.491	0.387	0.012	0.382	0.012	0.524	
336.15	3630	0.573	0.272	0.01	0.271	0.01	0.612	
336.15	3630	0.699	0.117	0.01	0.118	0.01	0.746	
336.15	3630	0.807	0	0.001	0	0.001	0.862	
333.15	3630	0.439	0.561	0.017	0.54	0.017	0.46	
333.15	3630	0.619	0.31	0.01	0.301	0.01	0.647	
333.15	3630	0.683	0.23	0.01	0.225	0.01	0.713	
333.15	3630	0.893	0	0.001	0	0.001	0.925	
363.15	3830	0	0.262	0.01	0.284	0.01	0	
363.15	3830	0.118	0.136	0.01	0.15	0.01	0.136	
363.15	3830	0.155	0.0892	0.01	0.101	0.01	0.183	
363.15	3830	0.194	0	0.001	0	0.001	0.236	
348.15	3830	0.127	0.58	0.018	0.597	0.018	0.137	
348.15	3830	0.215	0.445	0.014	0.463	0.014	0.239	
348.15	3830	0.271	0.371	0.011	0.388	0.012	0.299	
348.15	3830	0.332	0.283	0.01	0.299	0.01	0.373	
348.15	3830	0.406	0.18	0.01	0.187	0.01	0.465	
348.15	3830	0.467	0.1	0.01	0.108	0.01	0.533	
348.15	3830	0.514	0.045	0.01	0.049	0.01	0.587	
348.15	3830	0.553	0	0.001	0	0.001	0.634	
336.15	3830	0.383	0.617	0.019	0.598	0.018	0.402	
336.15	3830	0.532	0.411	0.013	0.399	0.012	0.557	
336.15	3830	0.636	0.277	0.01	0.27	0.01	0.665	
336.15	3830	0.767	0.125	0.01	0.124	0.01	0.798	
336.15	3830	0.88	0	0.001	0	0.001	0.914	
363.15	4420	0.332	0.047	0.01	0.05	0.01	0.367	
363.15	4420	0.368	0	0.001	0	0.001	0.409	
348.15	4420	0.573	0.2	0.01	0.203	0.01	0.6	
348.15	4420	0.639	0.116	0.01	0.118	0.01	0.68	
348.15	4420	0.738	0	0.001	0	0.001	0.791	
336.15	4420	0.636	0.364	0.011	0.354	0.011	0.646	
336.15	4420	0.83	0.132	0.01	0.13	0.01	0.841	
336.15	4420	0.957	0	0.001	0	0.001	0.969	
