Measured thermophysical data. The experimental study on influence of zwitterionic compounds on solubility of lithium bromide in water
Source: Fluid Phase Equilib., 2018, 10.1016/j.fluid.2018.07.021
Compound 1: lithium bromide, BrLi, InChI=1S/BrH.Li/h1H;/q;+1/p-1, purity 99%
Compound 2: water, H2O, InChI=1S/H2O/h1H2, purity 99.9%
Compound 3: [PyC3S], C8H11NO3S, InChI=1S/C8H11NO3S/c10-13(11,12)8-4-7-9-5-2-1-3-6-9/h1-3,5-6H,4,7-8H2, purity 97%
Compound 4: 3-(triethylammonio)propane-1-sulfonate, C9H21NO3S, InChI=1S/C9H21NO3S/c1-4-10(5-2,6-3)8-7-9-14(11,12)13/h4-9H2,1-3H3
Compound 5: [N222C4S], C10H23NO3S, InChI=1S/C10H23NO3S/c1-4-11(5-2,6-3)9-7-8-10-15(12,13)14/h4-10H2,1-3H3
Compound 6: [N444C3S], C15H33NO3S, InChI=1S/C15H33NO3S/c1-4-7-11-16(12-8-5-2,13-9-6-3)14-10-15-20(17,18)19/h4-15H2,1-3H3
Compound 7: [N444C4S], C16H35NO3S, InChI=1S/C16H35NO3S/c1-4-7-12-17(13-8-5-2,14-9-6-3)15-10-11-16-21(18,19)20/h4-16H2,1-3H3
Compound 8: 4-(tributylphosphonio)butane-1-sulfonate, C16H35O3PS, InChI=1S/C16H35O3PS/c1-4-7-12-20(13-8-5-2,14-9-6-3)15-10-11-16-21(17,18)19/h4-16H2,1-3H3

System: lithium bromide + 3-(triethylammonio)propane-1-sulfonate + water; phases: Liquid, Crystal of intercomponent compound 1
Fixed: Pressure, kPa = 100
Property: Solid-liquid equilibrium temperature, K (Liquid); method: VISOBS
Mole fraction of lithium bromide	Mole fraction of 3-(triethylammonio)propane-1-sulfonate	Solid-liquid equilibrium temperature, K	uncertainty
0.33	0.0142	364.5	0.28
0.3202	0.0138	354.3	0.29
0.3094	0.0133	340.95	0.32
0.2998	0.0129	327.98	0.33
0.3293	0.032	346.63	0.35
0.3229	0.0314	338.26	0.32
0.3139	0.0305	327.8	0.33
0.309	0.0301	320.23	0.37
0.3497	0.0583	347.95	0.28
0.3388	0.0565	337.7	0.28
0.3272	0.0546	325.68	0.28
0.3182	0.053	317.26	0.27

System: lithium bromide + 3-(triethylammonio)propane-1-sulfonate + water; phases: Liquid, Crystal of intercomponent compound 2
Fixed: Pressure, kPa = 100
Property: Solid-liquid equilibrium temperature, K (Liquid); method: VISOBS
Mole fraction of lithium bromide	Mole fraction of 3-(triethylammonio)propane-1-sulfonate	Solid-liquid equilibrium temperature, K	uncertainty
0.2902	0.0125	316.41	0.2
0.281	0.0121	311.85	0.2
0.2698	0.0116	306.56	0.2
0.2618	0.0113	302.92	0.21
0.2513	0.0108	295.58	0.24
0.2407	0.0104	286.15	0.26
0.2357	0.0102	280.34	0.3
0.23	0.0099	273.38	0.34
0.2245	0.0097	263.88	0.41
0.2186	0.0094	252.15	0.44
0.3035	0.0295	314.04	0.2
0.2946	0.0287	309.98	0.18
0.285	0.0277	306.21	0.2
0.2769	0.0269	302.79	0.21
0.2703	0.0263	299.09	0.2
0.2617	0.0255	294.16	0.2
0.249	0.0242	285.49	0.27
0.2418	0.0235	279.04	0.25
0.2321	0.0226	270.04	0.35
0.2259	0.022	260.17	0.41
0.221	0.0215	249.03	0.5
0.3107	0.0518	310.26	0.19
0.3005	0.0501	306.82	0.19
0.29	0.0483	302.68	0.2
0.2813	0.0469	298.26	0.21
0.2688	0.0448	291.38	0.23
0.2609	0.0435	286.17	0.24
0.2529	0.0422	280.13	0.24
0.2454	0.0409	274.31	0.32
0.2409	0.0402	268.51	0.33
0.2351	0.0392	260.68	0.37
0.2313	0.0386	255.01	0.37

System: lithium bromide + [N222C4S] + water; phases: Liquid, Crystal of intercomponent compound 1
Fixed: Pressure, kPa = 100
Property: Solid-liquid equilibrium temperature, K (Liquid); method: VISOBS
Mole fraction of lithium bromide	Mole fraction of [N222C4S]	Solid-liquid equilibrium temperature, K	uncertainty
0.3228	0.0128	365.82	0.4
0.3124	0.0124	347.81	0.36
0.3019	0.012	333.38	0.34
0.294	0.0117	321.61	0.35
0.3271	0.0299	348.51	0.39
0.3152	0.0288	332.22	0.32
0.3065	0.028	320.71	0.34
0.3369	0.0529	345.51	0.34
0.3298	0.0518	335.85	0.32
0.322	0.0506	326.86	0.3
0.3144	0.0494	318.32	0.3

System: lithium bromide + [N222C4S] + water; phases: Liquid, Crystal of intercomponent compound 2
Fixed: Pressure, kPa = 100
Property: Solid-liquid equilibrium temperature, K (Liquid); method: VISOBS
Mole fraction of lithium bromide	Mole fraction of [N222C4S]	Solid-liquid equilibrium temperature, K	uncertainty
0.2855	0.0113	314.35	0.19
0.2779	0.011	311.17	0.2
0.2691	0.0107	307.25	0.2
0.2597	0.0103	301.63	0.22
0.251	0.0099	295.44	0.24
0.2421	0.0096	288.16	0.27
0.2365	0.0094	281.1	0.32
0.2294	0.0091	271.18	0.35
0.2202	0.0087	257.15	0.39
0.2149	0.0085	246.15	0.46
0.299	0.0274	311.91	0.19
0.2897	0.0265	308.41	0.19
0.2811	0.0257	305.51	0.18
0.2711	0.0248	300.25	0.19
0.2605	0.0238	293.23	0.26
0.2532	0.0232	287.1	0.2
0.2461	0.0225	281.19	0.2
0.237	0.0217	271.04	0.38
0.229	0.0209	260.84	0.44
0.2214	0.0203	248.6	0.3
0.3031	0.0476	309.67	0.19
0.2924	0.0459	305.35	0.21
0.2833	0.0445	300.42	0.21
0.2738	0.043	296.58	0.21
0.2663	0.0418	292.26	0.21
0.2545	0.04	285.1	0.25
0.2464	0.0387	277.89	0.28
0.238	0.0374	268.94	0.28
0.2299	0.0361	258.81	0.34
0.2225	0.035	248.15	0.34

System: lithium bromide + [N444C3S] + water; phases: Liquid, Crystal of intercomponent compound 1
Fixed: Pressure, kPa = 100
Property: Solid-liquid equilibrium temperature, K (Liquid); method: VISOBS
Mole fraction of lithium bromide	Mole fraction of [N444C3S]	Solid-liquid equilibrium temperature, K	uncertainty
0.3211	0.0102	365.15	0.35
0.3094	0.0098	347.71	0.35
0.297	0.0094	329.58	0.35
0.337	0.0237	368.46	0.31
0.3239	0.0227	352.22	0.32
0.3093	0.0217	332.69	0.35
0.2996	0.021	317.85	0.37
0.332	0.0401	352.54	0.32
0.3237	0.0391	341.99	0.32
0.313	0.0378	328.26	0.32

System: lithium bromide + [N444C3S] + water; phases: Liquid, Crystal of intercomponent compound 2
Fixed: Pressure, kPa = 100
Property: Solid-liquid equilibrium temperature, K (Liquid); method: VISOBS
Mole fraction of lithium bromide	Mole fraction of [N444C3S]	Solid-liquid equilibrium temperature, K	uncertainty
0.287	0.0091	316.67	0.19
0.277	0.0088	312.32	0.2
0.266	0.0085	306.5	0.2
0.2584	0.0082	302.54	0.2
0.2515	0.008	299.41	0.22
0.244	0.0078	293.15	0.24
0.237	0.0075	288.26	0.25
0.2297	0.0073	281.18	0.28
0.2238	0.0071	274.12	0.32
0.2151	0.0068	262.19	0.36
0.209	0.0066	251.81	0.39
0.2903	0.0204	314.29	0.2
0.2781	0.0195	308.81	0.2
0.2694	0.0189	304.68	0.21
0.2596	0.0182	297.43	0.26
0.2499	0.0175	289	0.22
0.2389	0.0168	279.17	0.26
0.2308	0.0162	272.17	0.25
0.2226	0.0156	260.37	0.46
0.2157	0.0151	248.15	0.42
0.3018	0.0365	315.6	0.19
0.2937	0.0355	312.86	0.19
0.2857	0.0345	308.53	0.2
0.278	0.0336	305.07	0.2
0.2709	0.0327	300.76	0.23
0.2636	0.0318	295.71	0.23
0.255	0.0308	289.27	0.25
0.2493	0.0301	284.16	0.26
0.2409	0.0291	276.36	0.26
0.2328	0.0281	267.26	0.36
0.2251	0.0272	255.84	0.36

System: lithium bromide + [N444C4S] + water; phases: Liquid, Crystal of intercomponent compound 1
Fixed: Pressure, kPa = 100
Property: Solid-liquid equilibrium temperature, K (Liquid); method: VISOBS
Mole fraction of lithium bromide	Mole fraction of [N444C4S]	Solid-liquid equilibrium temperature, K	uncertainty
0.3185	0.0095	368.62	0.36
0.3098	0.0093	355.33	0.33
0.2998	0.009	342.59	0.33
0.2911	0.0087	329.36	0.35
0.2829	0.0085	317.71	0.34
0.319	0.0218	354.77	0.33
0.3077	0.021	341.11	0.31
0.2978	0.0203	328.59	0.31
0.3176	0.0368	341.29	0.33
0.3096	0.0359	330.52	0.33
0.3002	0.0348	319.03	0.32

System: lithium bromide + [N444C4S] + water; phases: Liquid, Crystal of intercomponent compound 2
Fixed: Pressure, kPa = 100
Property: Solid-liquid equilibrium temperature, K (Liquid); method: VISOBS
Mole fraction of lithium bromide	Mole fraction of [N444C4S]	Solid-liquid equilibrium temperature, K	uncertainty
0.2749	0.0082	313.82	0.2
0.2663	0.008	309.27	0.21
0.2575	0.0077	303.62	0.22
0.2508	0.0075	299.06	0.22
0.244	0.0073	294.74	0.24
0.2365	0.0071	287.86	0.27
0.2325	0.0069	283.17	0.29
0.2239	0.0067	273.16	0.29
0.2184	0.0065	267.3	0.3
0.2106	0.0063	256.74	0.32
0.286	0.0195	316.23	0.2
0.2765	0.0189	311.99	0.2
0.2659	0.0181	306.17	0.24
0.2577	0.0176	299.62	0.22
0.2478	0.0169	292.56	0.26
0.2379	0.0162	284.15	0.23
0.2243	0.0153	270.19	0.32
0.2182	0.0149	262.41	0.3
0.2099	0.0143	252.04	0.31
0.2916	0.0338	315.04	0.2
0.2832	0.0328	310.93	0.2
0.2731	0.0316	306.61	0.2
0.2657	0.0308	302.95	0.21
0.2593	0.03	299.09	0.23
0.2529	0.0293	294.49	0.22
0.2481	0.0287	291.26	0.22
0.2397	0.0278	284.12	0.26
0.2346	0.0272	279.14	0.26
0.228	0.0264	272.03	0.33
0.2214	0.0256	263.04	0.34
0.2167	0.0251	256.18	0.35

System: lithium bromide + 4-(tributylphosphonio)butane-1-sulfonate + water; phases: Liquid, Crystal of intercomponent compound 1
Fixed: Pressure, kPa = 100
Property: Solid-liquid equilibrium temperature, K (Liquid); method: VISOBS
Mole fraction of lithium bromide	Mole fraction of 4-(tributylphosphonio)butane-1-sulfonate	Solid-liquid equilibrium temperature, K	uncertainty
0.3109	0.0089	365.93	0.38
0.2999	0.0086	347.51	0.37
0.2907	0.0084	333.27	0.34
0.2818	0.0081	320.9	0.33
0.3149	0.0202	366.07	0.34
0.307	0.0197	354.57	0.35
0.2965	0.019	338.05	0.31
0.3051	0.0338	358.24	0.34
0.2957	0.0327	343.77	0.34
0.2868	0.0317	330.42	0.36
0.2829	0.0313	323.27	0.41

System: lithium bromide + 4-(tributylphosphonio)butane-1-sulfonate + water; phases: Liquid, Crystal of intercomponent compound 2
Fixed: Pressure, kPa = 100
Property: Solid-liquid equilibrium temperature, K (Liquid); method: VISOBS
Mole fraction of lithium bromide	Mole fraction of 4-(tributylphosphonio)butane-1-sulfonate	Solid-liquid equilibrium temperature, K	uncertainty
0.2737	0.0079	316.59	0.2
0.2633	0.0076	311.47	0.21
0.2539	0.0073	304.92	0.23
0.2471	0.0071	299.7	0.23
0.2388	0.0069	293.47	0.24
0.2311	0.0066	286.47	0.26
0.2229	0.0064	278.13	0.28
0.2143	0.0062	268.84	0.32
0.2084	0.006	259.21	0.38
0.286	0.0183	316.83	0.2
0.2764	0.0177	312.52	0.21
0.2682	0.0172	309.05	0.19
0.2584	0.0165	303.64	0.25
0.2511	0.0161	297.45	0.21
0.244	0.0156	290.73	0.21
0.2352	0.0151	283.46	0.2
0.2269	0.0145	275.26	0.36
0.2206	0.0141	268.2	0.23
0.2125	0.0136	257.31	0.45
0.2058	0.0132	246.64	0.33
0.2771	0.0307	311.84	0.21
0.2683	0.0297	306.61	0.2
0.2609	0.0289	303.04	0.2
0.2518	0.0279	296.49	0.23
0.246	0.0272	292.26	0.23
0.2386	0.0264	287.64	0.21
0.2316	0.0256	281.27	0.27
0.2258	0.025	275.32	0.27
0.2199	0.0243	268.17	0.33
0.2135	0.0236	259.1	0.3
0.2081	0.023	251.21	0.34

System: lithium bromide + [PyC3S] + water; phases: Liquid, Crystal
Fixed: Pressure, kPa = 100
Property: Solid-liquid equilibrium temperature, K (Liquid); method: VISOBS
Mole fraction of lithium bromide	Mole fraction of [PyC3S]	Solid-liquid equilibrium temperature, K	uncertainty
0.1888	0.0349	366.28	0.21
0.1838	0.0339	363.36	0.24
0.1811	0.0334	361.04	0.24
0.1762	0.0325	357.85	0.61
0.1705	0.0315	353.56	0.49
0.1651	0.0305	348.59	0.25
0.1586	0.0293	341.4	0.2
0.1517	0.028	333.68	0.18
0.1449	0.0268	326.61	0.28
0.142	0.0262	323.34	0.25
0.1394	0.0257	320.45	0.72
0.1358	0.0251	315.31	0.34
0.1323	0.0244	310.33	0.83
0.13	0.024	306.27	0.48
0.1269	0.0234	300.97	0.51
0.1224	0.0226	293.02	0.39
0.1169	0.0216	281.26	2.92
0.111	0.0205	266.14	0.56
0.1065	0.0197	254.15	0.56
