Measured thermophysical data. Binary, ternary and quaternary liquid liquid equilibria in 1-butanol, oleic acid, water and n-heptane mixtures
Source: Fluid Phase Equilib., 2009, 10.1016/j.fluid.2009.06.013
Compound 1: (Z)-9-octadecenoic acid, C18H34O2, InChI=1S/C18H34O2/c1-2-3-4-5-6-7-8-9-10-11-12-13-14-15-16-17-18(19)20/h9-10H,2-8,11-17H2,1H3,(H,19,20)/b10-9-
Compound 2: heptane, C7H16, InChI=1S/C7H16/c1-3-5-7-6-4-2/h3-7H2,1-2H3
Compound 3: water, H2O, InChI=1S/H2O/h1H2, purity 99.8%
Compound 4: butan-1-ol, C4H10O, InChI=1S/C4H10O/c1-2-3-4-5/h5H,2-4H2,1H3

System: (Z)-9-octadecenoic acid + heptane + water; phases: Liquid mixture 1, Liquid mixture 2
Fixed: Pressure, kPa = 101
Property: Mole fraction of water (Liquid mixture 1); method: Chromatography
Property: Mole fraction of (Z)-9-octadecenoic acid (Liquid mixture 2); method: Chromatography
Property: Mole fraction of water (Liquid mixture 2); method: Chromatography
Temperature, K	Mole fraction of (Z)-9-octadecenoic acid	Mole fraction of water	uncertainty	Mole fraction of (Z)-9-octadecenoic acid	uncertainty	Mole fraction of water	uncertainty
313	0.5826	0.037	0.0004	0		1	
308	0.6014	0.0248	0.0003	0		1	
301	0.4637	0.0218	0.0002	0		1	
308	0.3973	0.0114	0.0001	0		1	
308	0.4764	0.0289	0.0003	0		1	
313	0.3443	0.0111	0.0001	0		1	
313	0.4576	0.0196	0.0002	0		1	

System: butan-1-ol + heptane + water; phases: Liquid mixture 2, Liquid mixture 1
Fixed: Pressure, kPa = 101
Property: Mole fraction of butan-1-ol (Liquid mixture 2); method: Chromatography
Property: Mole fraction of butan-1-ol (Liquid mixture 1); method: Chromatography
Property: Mole fraction of water (Liquid mixture 1); method: Chromatography
Temperature, K	Mole fraction of water	Mole fraction of butan-1-ol	uncertainty	Mole fraction of butan-1-ol	uncertainty	Mole fraction of water	uncertainty
313	0.9832	0.0168	0.0002	0.5365	0.0046	0.3597	
313	0.9848	0.0152	0.0002	0.5385	0.0046	0.2858	
313	0.9853	0.0147	0.0002	0.512	0.0049	0.2349	
308	0.9821	0.0179	0.0002	0.547	0.0045	0.3567	
308	0.9822	0.0178	0.0002	0.524	0.0048	0.302	
308	0.9823	0.0177	0.0002	0.5077	0.0049	0.2435	

System: butan-1-ol + (Z)-9-octadecenoic acid + water; phases: Liquid mixture 1, Liquid mixture 2
Fixed: Pressure, kPa = 101
Property: Mole fraction of water (Liquid mixture 1); method: Chromatography
Property: Mole fraction of water (Liquid mixture 2); method: Chromatography
Property: Mole fraction of butan-1-ol (Liquid mixture 2); method: Chromatography
Temperature, K	Mole fraction of butan-1-ol	Mole fraction of water	uncertainty	Mole fraction of water	uncertainty	Mole fraction of butan-1-ol	uncertainty
313	0.5258	0.4085	0.0163	0.9815	0.0007	0.0185	
313	0.4995	0.3232	0.0129	0.9854	0.0006	0.0146	
313	0.3614	0.2414	0.0097	0.9902	0.0004	0.0098	
308	0.5103	0.431	0.0172	0.9818	0.0007	0.0182	
308	0.4983	0.3371	0.0135	0.9815	0.0007	0.0185	
308	0.3958	0.2502	0.01	0.9899	0.0004	0.0101	
