Measured thermophysical data. Heterogeneous azeotropic distillation for the separation of n-propanol + water mixture using n-propyl acetate as entrainer
Source: Fluid Phase Equilib., 2017, 10.1016/j.fluid.2017.05.012
Compound 1: propan-1-ol, C3H8O, InChI=1S/C3H8O/c1-2-3-4/h4H,2-3H2,1H3, purity 99%
Compound 2: propyl ethanoate, C5H10O2, InChI=1S/C5H10O2/c1-3-4-7-5(2)6/h3-4H2,1-2H3, purity 99%
Compound 3: water, H2O, InChI=1S/H2O/h1H2, purity 99.8%

System: propan-1-ol; phases: Liquid, Gas
Property: Vapor or sublimation pressure, kPa (Liquid); method: Ebulliometric method (Recirculating still)
Temperature, K	Vapor or sublimation pressure, kPa	uncertainty
370.2	101	1.01

System: propyl ethanoate; phases: Liquid, Gas
Property: Vapor or sublimation pressure, kPa (Liquid); method: Ebulliometric method (Recirculating still)
Temperature, K	Vapor or sublimation pressure, kPa	uncertainty
374.8	101	1.01

System: water; phases: Liquid, Gas
Property: Vapor or sublimation pressure, kPa (Liquid); method: Ebulliometric method (Recirculating still)
Temperature, K	Vapor or sublimation pressure, kPa	uncertainty
372.9	101	1.01

System: propan-1-ol + water; phases: Liquid, Gas
Fixed: Pressure, kPa = 101
Property: Boiling temperature at pressure P, K (Liquid); method: Ebulliometric method (Recirculating still)
Mole fraction of propan-1-ol	Boiling temperature at pressure P, K	uncertainty
0	372.9	0.2
0.0511	365.4	0.6
0.0533	365.1	0.6
0.078	363.3	0.3
0.1127	362.8	0.2
0.2728	361.7	0.2
0.3139	361.4	0.2
0.3494	361.2	0.2
0.3595	361	0.2
0.4054	360.9	0.2
0.4049	360.7	0.2
0.566	361.1	0.2
0.6645	361.4	0.2
0.8284	363.8	0.3
0.8575	364.8	0.3
1	370.2	0.2

System: propan-1-ol + water; phases: Gas, Liquid
Fixed: Pressure, kPa = 101
Property: Mole fraction of propan-1-ol (Gas); method: Chromatography
Mole fraction of propan-1-ol	Mole fraction of propan-1-ol	uncertainty
0	0	
0.0511	0.2535	0.0165
0.0533	0.2686	0.0167
0.078	0.2972	0.006
0.1127	0.3237	0.0058
0.2728	0.3791	0.0054
0.3139	0.3851	0.0053
0.3494	0.3848	0.0053
0.3595	0.3865	0.0053
0.4054	0.4	0.0055
0.4049	0.4102	0.0056
0.566	0.4548	0.0061
0.6645	0.5366	0.0068
0.8284	0.6574	0.0093
0.8575	0.7124	0.0092
1	1	

System: propan-1-ol + water; phases: Liquid, Gas
Property: Azeotropic composition: mole fraction of propan-1-ol (Liquid); method: By X=Y
Pressure, kPa	Azeotropic composition: mole fraction of propan-1-ol	uncertainty
101	0.437	0.006

System: propan-1-ol + water; phases: Liquid, Gas
Property: Azeotropic temperature, K (Liquid); method: By X=Y
Pressure, kPa	Azeotropic temperature, K	uncertainty
101	360.8	0.3

System: propan-1-ol + propyl ethanoate; phases: Liquid, Gas
Fixed: Pressure, kPa = 101
Property: Boiling temperature at pressure P, K (Liquid); method: Ebulliometric method (Recirculating still)
Mole fraction of propan-1-ol	Boiling temperature at pressure P, K	uncertainty
1	370.2	0.2
0.9136	369.3	0.2
0.8505	368.9	0.2
0.7828	368.5	0.2
0.7165	368.1	0.2
0.6801	368	0.2
0.6114	367.8	0.2
0.5567	367.9	0.2
0.5081	368.1	0.2
0.4664	368.3	0.2
0.4121	368.6	0.2
0.3689	368.8	0.2
0.2688	369.4	0.2
0.1941	370.2	0.2
0.1322	371.2	0.2
0.0673	373.2	0.3
0	374.8	0.2

System: propan-1-ol + propyl ethanoate; phases: Gas, Liquid
Fixed: Pressure, kPa = 101
Property: Mole fraction of propan-1-ol (Gas); method: Chromatography
Mole fraction of propan-1-ol	Mole fraction of propan-1-ol	uncertainty
1	1	
0.9136	0.8828	0.0068
0.8505	0.8076	0.0066
0.7828	0.7382	0.0065
0.7165	0.6829	0.0067
0.6801	0.6455	0.0065
0.6114	0.6099	0.0064
0.5567	0.5898	0.0065
0.5081	0.5658	0.0071
0.4664	0.5249	0.0074
0.4121	0.4895	0.0073
0.3689	0.4558	0.0072
0.2688	0.3657	0.0068
0.1941	0.2716	0.0067
0.1322	0.2055	0.0065
0.0673	0.1181	0.0075
0	0	

System: propan-1-ol + propyl ethanoate; phases: Liquid, Gas
Property: Azeotropic composition: mole fraction of propan-1-ol (Liquid); method: By X=Y
Pressure, kPa	Azeotropic composition: mole fraction of propan-1-ol	uncertainty
101	0.611	0.006

System: propan-1-ol + propyl ethanoate; phases: Liquid, Gas
Property: Azeotropic temperature, K (Liquid); method: By X=Y
Pressure, kPa	Azeotropic temperature, K	uncertainty
101	367.8	0.3

System: propan-1-ol + water + propyl ethanoate; phases: Liquid, Gas
Property: Azeotropic composition: mole fraction of propan-1-ol (Liquid); method: By X=Y
Temperature, K	Pressure, kPa	Azeotropic composition: mole fraction of propan-1-ol	uncertainty
355.3	101	0.0899	0.0028

System: propan-1-ol + water + propyl ethanoate; phases: Liquid, Gas
Property: Azeotropic composition: mole fraction of water (Liquid); method: By X=Y
Pressure, kPa	Temperature, K	Azeotropic composition: mole fraction of water	uncertainty
101	355.3	0.5124	0.0108

System: propan-1-ol + water + propyl ethanoate; phases: Liquid, Gas
Property: Azeotropic composition: mole fraction of propyl ethanoate (Liquid); method: By X=Y
Pressure, kPa	Temperature, K	Azeotropic composition: mole fraction of propyl ethanoate	uncertainty
101	355.3	0.3977	0.009

System: propan-1-ol + water + propyl ethanoate; phases: Liquid mixture 1, Liquid mixture 2, Gas
Fixed: Pressure, kPa = 101
Property: Mole fraction of propyl ethanoate (Liquid mixture 1); method: Chromatography
Property: Mole fraction of propan-1-ol (Liquid mixture 1); method: Chromatography
Property: Mole fraction of propan-1-ol (Liquid mixture 2); method: Chromatography
Property: Mole fraction of propyl ethanoate (Liquid mixture 2); method: Chromatography
Property: Mole fraction of propan-1-ol (Gas); method: Chromatography
Property: Mole fraction of propyl ethanoate (Gas); method: Chromatography
Temperature, K	Mole fraction of propyl ethanoate	uncertainty	Mole fraction of propan-1-ol	uncertainty	Mole fraction of propan-1-ol	uncertainty	Mole fraction of propyl ethanoate	uncertainty	Mole fraction of propan-1-ol	uncertainty	Mole fraction of propyl ethanoate	uncertainty
354.9	0.7114	0.035	0.03	0.03	0.0165	0.0041	0.0117	0.0043	0.0706	0.0173	0.4152	0.0176
356.3	0.2662	0.0357	0.2548	0.0091	0.0141	0.004	0.0093	0.004	0.2019	0.0171	0.2802	0.0224
356.5	0.2136	0.0595	0.2579	0.0054	0.0168	0.0048	0.0112	0.0041	0.193	0.0109	0.2956	0.0128
355.2	0.6594	0.0958	0.0818	0.0603	0.0175	0.0041	0.0139	0.004	0.0453	0.0154	0.4405	0.0178
355.3	0.5656	0.0677	0.1253	0.0445	0.015	0.004	0.01	0.004	0.0899	0.0209	0.3977	0.0189
355.4	0.5208	0.0857	0.1552	0.0512	0.0086	0.004	0.0139	0.004	0.1067	0.0186	0.3838	0.0187
355.5	0.4242	0.0896	0.2106	0.0434	0.0143	0.0042	0.0099	0.0042	0.1152	0.0351	0.3641	0.0329
355.6	0.4763	0.0763	0.1844	0.0381	0.0144	0.0041	0.0103	0.004	0.1444	0.0266	0.3493	0.025
355.7	0.3648	0.0517	0.2347	0.0232	0.0154	0.0041	0.0109	0.0041	0.1447	0.0178	0.3405	0.0175
355.9	0.3371	0.0581	0.2388	0.0234	0.0129	0.004	0.0096	0.004	0.1688	0.0119	0.3241	0.0128
356.2	0.3026	0.0414	0.2533	0.0077	0.0129	0.0042	0.0096	0.004	0.1779	0.0091	0.3136	0.0105
