Measured thermophysical data. Salt effect on vapor liquid equilibria for binary systems of propanol/CaCl2 and butanol/CaCl2
Source: Fluid Phase Equilib., 2005, 10.1016/j.fluid.2005.07.023
Compound 1: propan-1-ol, C3H8O, InChI=1S/C3H8O/c1-2-3-4/h4H,2-3H2,1H3, purity 99.92%
Compound 2: propan-2-ol, C3H8O, InChI=1S/C3H8O/c1-3(2)4/h3-4H,1-2H3, purity 99.92%
Compound 3: butan-1-ol, C4H10O, InChI=1S/C4H10O/c1-2-3-4-5/h5H,2-4H2,1H3, purity 99.96%
Compound 4: butan-2-ol, C4H10O, InChI=1S/C4H10O/c1-3-4(2)5/h4-5H,3H2,1-2H3, purity 99.95%
Compound 5: calcium chloride, CaCl2, InChI=1S/Ca.2ClH/h;2*1H/q+2;;/p-2, purity 99.6%

System: butan-2-ol; phases: Liquid, Gas
Property: Vapor or sublimation pressure, kPa (Liquid); method: CCELL:UFactor:128
Temperature, K	Vapor or sublimation pressure, kPa	uncertainty
381.25	101.064	42.064

System: propan-1-ol + calcium chloride; phases: Liquid, Gas
Property: Vapor or sublimation pressure, kPa (Liquid); method: CCELL:UFactor:4
Temperature, K	Mole fraction of propan-1-ol	Vapor or sublimation pressure, kPa	uncertainty
361.25	0.971	70.6	0.9
361.56	0.944	70.7	0.9
362.62	0.971	74.5	1
362.76	0.918	71.9	1
362.93	0.944	74.5	1
363.59	0.893	71.9	1
363.68	0.918	74.4	1
363.81	0.971	78.2	1
364.3	0.944	78.5	1
364.4	0.87	71.9	1
364.81	0.893	75.9	1
365.35	0.918	79.8	1.1
365.6	0.971	84	1.1
365.72	0.87	75.9	1
365.84	0.944	83.7	1.1
366.13	0.893	80.1	1.1
366.52	0.918	83.7	1.1
366.73	0.971	88	1.2
367.04	0.87	80	1.1
367.18	0.944	87.9	1.2
367.35	0.893	83.7	1.1
367.84	0.918	87.9	1.2
367.98	0.971	92.3	1.2
368.21	0.87	83.8	1.1
368.31	0.944	92.1	1.2
368.58	0.893	87.9	1.2
368.96	0.918	92	1.2
369.22	0.971	96.2	1.3
369.48	0.87	88	1.2
369.53	0.944	96.4	1.3
369.79	0.893	91.8	1.2
370.16	0.918	96.2	1.3
370.28	0.971	100.8	1.3
370.55	0.944	100.5	1.3
370.6	0.87	92	1.2
370.8	0.893	95.9	1.3
371.07	0.918	99.9	1.3
371.72	0.87	96	1.3
371.72	0.893	99.7	1.3
372.53	0.87	99.5	1.3

System: propan-2-ol + calcium chloride; phases: Liquid, Gas
Property: Vapor or sublimation pressure, kPa (Liquid); method: CCELL:UFactor:4
Temperature, K	Mole fraction of propan-2-ol	Vapor or sublimation pressure, kPa	uncertainty
347.45	0.977	71.9	1
347.91	0.955	72.1	1
348.21	0.935	72.2	1
348.52	0.915	72	1
348.75	0.977	76	1
348.96	0.896	71.7	1
349.1	0.935	74.7	1
349.2	0.955	76	1
349.71	0.915	75.9	1
349.95	0.977	80	1.1
350.22	0.896	75.8	1
350.41	0.955	80	1.1
350.82	0.935	80.2	1.1
351.12	0.915	80.3	1.1
351.15	0.977	84	1.1
351.53	0.896	80	1.1
351.61	0.955	84	1.1
351.93	0.935	84.2	1.1
352.21	0.915	83.9	1.1
352.25	0.977	88.1	1.2
352.74	0.896	83.8	1.1
352.74	0.955	87.9	1.2
353.04	0.935	88	1.2
353.35	0.915	87.9	1.2
353.45	0.977	92	1.2
353.8	0.955	92	1.2
353.85	0.896	88	1.2
354.15	0.935	92.1	1.2
354.45	0.977	96.1	1.3
354.48	0.915	92.2	1.2
354.86	0.955	95.9	1.3
354.92	0.896	90	3
355.25	0.935	96.5	1.3
355.25	0.977	99.8	1.3
355.57	0.915	96.2	1.3
355.65	0.955	99.3	1.3
355.85	0.935	99.2	1.3
355.98	0.896	96.1	1.3
356.28	0.915	99.3	1.3
356.84	0.896	99.7	1.3

System: butan-1-ol + calcium chloride; phases: Liquid, Gas
Property: Vapor or sublimation pressure, kPa (Liquid); method: CCELL:UFactor:4
Temperature, K	Mole fraction of butan-1-ol	Vapor or sublimation pressure, kPa	uncertainty
374.15	0.9901	53.785	0.73
374.45	0.9802	53.705	0.729
374.95	0.9871	53.865	0.732
375.15	0.9602	53.332	0.724
375.25	0.9502	53.239	0.723
376.65	0.9901	59.292	0.798
377.35	0.9802	60.265	0.81
378.15	0.9502	59.932	0.806
378.15	0.9602	59.999	0.807
378.15	0.9701	61.212	0.822
379.85	0.9901	67.332	0.898
380.65	0.9802	67.998	0.906
380.75	0.9701	67.745	0.903
380.85	0.9602	66.665	0.89
381.05	0.9502	66.665	0.89
382.35	0.9901	73.678	0.977
382.55	0.9802	73.212	0.971
383.25	0.9602	73.332	0.972
383.25	0.9701	74.705	0.99
383.55	0.9502	73.465	0.974
384.95	0.9901	81.731	1.077
385.25	0.9802	80.505	1.061
385.35	0.9701	81.025	1.068
385.55	0.9602	79.918	1.054
386.55	0.9502	82.345	1.084
386.65	0.9901	86.904	1.141
387.15	0.9802	86.571	1.137
387.45	0.9701	87.358	1.147
387.65	0.9602	86.864	1.141
388.15	0.9502	86.611	1.137
388.75	0.9901	94.131	1.231
389.15	0.9701	93.598	1.224
389.15	0.9802	93.571	1.224
389.65	0.9602	93.598	1.224
389.95	0.9502	93.624	1.224
390.75	0.9901	101.103	1.317
391.15	0.9802	100.851	1.314
391.55	0.9701	101.051	1.316
391.65	0.9602	100.891	1.314
392.55	0.9502	102.344	1.332

System: butan-2-ol + calcium chloride; phases: Liquid, Gas
Property: Vapor or sublimation pressure, kPa (Liquid); method: CCELL:UFactor:128
Temperature, K	Mole fraction of butan-2-ol	Vapor or sublimation pressure, kPa	uncertainty
372.95	0.9894	73.611	31.177
373.25	0.9756	73.625	31.182
373.65	0.9421	73.451	31.113
373.65	0.9567	74.771	31.637
373.95	0.9305	73.332	31.066
374.15	0.9375	73.451	31.113
375.15	0.9894	80.678	33.979
375.35	0.9756	79.998	33.71
376.05	0.9421	80.491	33.905
376.15	0.9567	80.438	33.884
376.65	0.9375	80.198	33.789
376.85	0.9305	80.255	33.812
377.15	0.9894	87.118	36.533
377.45	0.9756	87.024	36.496
377.95	0.9567	87.331	36.618
378.25	0.9421	87.078	36.518
378.65	0.9305	87.344	36.623
378.65	0.9375	87.024	36.496
379.25	0.9894	93.881	39.216
379.45	0.9756	93.758	39.167
379.95	0.9567	93.784	39.177
380.25	0.9421	93.571	39.093
380.35	0.9375	93.251	38.966
380.65	0.9305	93.518	39.072
381.25	1	101.064	42.064
381.35	0.9894	101.371	42.186
381.45	0.9756	101.424	42.207
381.95	0.9567	101.357	42.181
382.25	0.9421	100.971	42.027
382.35	0.9375	101.357	42.181
382.45	0.9305	100.824	41.969
