Measured thermophysical data. Viscosity of Gaseous Ethyl Fluoride (HFC-161)
Source: Fluid Phase Equilib., 2014, 10.1016/j.fluid.2014.10.023
Compound 1: fluoroethane, C2H5F, InChI=1S/C2H5F/c1-2-3/h2H2,1H3
Compound 2: nitrogen, N2, InChI=1S/N2/c1-2

System: fluoroethane; phases: Gas
Property: Viscosity, Pa*s (Gas); method: Oscillating disk viscometry
Temperature, K	Pressure, kPa	Viscosity, Pa*s	uncertainty
293.32	106	9.583e-06	3.78e-07
293.33	191	9.518e-06	3.76e-07
293.36	288	9.528e-06	3.76e-07
293.4	406	9.511e-06	3.76e-07
293.41	497	9.607e-06	3.79e-07
293.39	592	9.827e-06	3.84e-07
293.35	693	9.938e-06	3.86e-07
293.33	748	1.0093e-05	3.91e-07
313.27	119	1.0223e-05	3.92e-07
313.25	165	1.0224e-05	3.93e-07
313.2	300	1.0171e-05	3.91e-07
313.18	397	1.0178e-05	3.91e-07
313.16	499	1.0179e-05	3.91e-07
313.15	599	1.023e-05	3.93e-07
313.15	694	1.0341e-05	3.96e-07
313.14	885	1.0753e-05	4.06e-07
313.16	1007	1.1111e-05	4.16e-07
313.2	1093	1.1576e-05	4.27e-07
313.23	1188	1.1849e-05	4.32e-07
313.21	1269	1.2197e-05	4.41e-07
333.69	115	1.0901e-05	4.09e-07
333.68	140	1.0847e-05	4.07e-07
333.68	219	1.0779e-05	4.05e-07
333.67	417	1.0693e-05	4.03e-07
333.63	494	1.0661e-05	4.03e-07
333.61	575	1.0736e-05	4.05e-07
333.59	719	1.0977e-05	4.11e-07
333.61	794	1.1143e-05	4.14e-07
333.55	1004	1.148e-05	4.23e-07
333.57	1102	1.186e-05	4.33e-07
333.57	1205	1.2174e-05	4.39e-07
333.49	1305	1.2493e-05	4.47e-07
333.49	1402	1.2852e-05	4.57e-07
333.45	1503	1.3336e-05	4.67e-07
333.46	1627	1.3785e-05	4.78e-07
333.05	1802	1.4585e-05	4.97e-07
351.55	100	1.1505e-05	4.23e-07
351.57	193	1.1392e-05	4.2e-07
351.55	297	1.137e-05	4.19e-07
351.56	404	1.1342e-05	4.19e-07
351.57	505	1.1305e-05	4.18e-07
351.57	606	1.134e-05	4.18e-07
351.6	706	1.1404e-05	4.2e-07
351.62	800	1.1552e-05	4.24e-07
351.66	902	1.1759e-05	4.29e-07
351.61	995	1.1908e-05	4.32e-07
351.63	1098	1.1933e-05	4.33e-07
351.72	1199	1.2342e-05	4.44e-07
351.73	1294	1.2609e-05	4.49e-07
351.75	1392	1.2819e-05	4.55e-07
351.76	1491	1.3262e-05	4.65e-07
351.71	1578	1.3455e-05	4.69e-07
351.65	1692	1.3906e-05	4.81e-07
351.63	1990	1.5213e-05	5.11e-07
351.61	2090	1.5686e-05	5.23e-07
351.5	2208	1.6257e-05	5.37e-07
351.48	2396	1.731e-05	5.62e-07
351.52	2512	1.8044e-05	5.79e-07
351.47	2592	1.8568e-05	5.92e-07
351.45	2662	1.9082e-05	6.05e-07
369.28	101	1.2065e-05	4.35e-07
369.28	201	1.1983e-05	4.33e-07
369.26	304	1.1915e-05	4.32e-07
369.28	400	1.1906e-05	4.32e-07
369.3	500	1.1888e-05	4.31e-07
369.32	601	1.201e-05	4.34e-07
369.34	690	1.1938e-05	4.32e-07
369.23	788	1.2033e-05	4.35e-07
369.32	897	1.2153e-05	4.37e-07
369.32	991	1.2217e-05	4.39e-07
369.33	1096	1.2471e-05	4.45e-07
369.35	1191	1.2625e-05	4.49e-07
369.35	1289	1.2844e-05	4.54e-07
369.35	1391	1.3005e-05	4.58e-07
369.34	1492	1.3227e-05	4.64e-07
369.24	1599	1.3636e-05	4.73e-07
369.3	1692	1.3872e-05	4.79e-07
369.25	1743	1.413e-05	4.86e-07
369.3	1808	1.436e-05	4.9e-07
369.25	1879	1.4506e-05	4.93e-07
369.27	1999	1.4941e-05	5.05e-07
369.34	2176	1.5835e-05	5.26e-07
369.32	2308	1.647e-05	5.41e-07
369.47	2400	1.6895e-05	5.52e-07
369.31	2466	1.7358e-05	5.63e-07
369.48	2603	1.8076e-05	5.79e-07
369.47	2704	1.8726e-05	5.94e-07
369.48	2904	1.9749e-05	6.2e-07
369.48	2996	2.0894e-05	6.5e-07
369.5	3094	2.1508e-05	6.6e-07
369.5	3204	2.2277e-05	6.81e-07
369.51	3306	2.3375e-05	7.06e-07
369.51	3405	2.3983e-05	7.17e-07
369.49	3512	2.4833e-05	7.4e-07
369.49	3623	2.5905e-05	7.65e-07
369.48	3701	2.6523e-05	7.81e-07
369.46	3806	2.7707e-05	8.1e-07

System: nitrogen; phases: Gas
Property: Viscosity, Pa*s (Gas); method: Oscillating disk viscometry
Temperature, K	Pressure, kPa	Viscosity, Pa*s	uncertainty
303.42	4713	1.8799e-05	5.92e-07
303.51	4518	1.8813e-05	5.92e-07
303.52	4306	1.8804e-05	5.96e-07
303.53	4109	1.8703e-05	5.91e-07
303.54	3889	1.8681e-05	5.89e-07
303.54	3711	1.8671e-05	5.89e-07
303.54	3499	1.8623e-05	5.88e-07
303.54	3319	1.8546e-05	5.86e-07
303.54	3114	1.8588e-05	5.87e-07
303.53	2920	1.8515e-05	5.85e-07
303.53	2724	1.8527e-05	5.85e-07
303.52	2495	1.8459e-05	5.84e-07
303.52	2322	1.8411e-05	5.83e-07
303.5	2080	1.8335e-05	5.81e-07
303.49	1891	1.8238e-05	5.79e-07
303.49	1694	1.8278e-05	5.8e-07
303.49	1489	1.8223e-05	5.78e-07
303.49	1251	1.8218e-05	5.78e-07
303.48	1107	1.8098e-05	5.77e-07
303.47	914	1.8162e-05	5.77e-07
303.47	712	1.8066e-05	5.75e-07
303.46	504	1.813e-05	5.8e-07
303.46	295	1.8075e-05	5.75e-07
303.46	98	1.8031e-05	5.74e-07
