Measured thermophysical data. Thermodynamic analysis and correlation of solubility of Cefaclor in different solvents from 278.15 to 313.15 K
Source: Fluid Phase Equilib., 2015, 10.1016/j.fluid.2015.01.001
Compound 1: water, H2O, InChI=1S/H2O/h1H2, purity 99.6%
Compound 2: methanol, CH4O, InChI=1S/CH4O/c1-2/h2H,1H3, purity 99.6%
Compound 3: ethanol, C2H6O, InChI=1S/C2H6O/c1-2-3/h3H,2H2,1H3, purity 99.6%
Compound 4: acetone, C3H6O, InChI=1S/C3H6O/c1-3(2)4/h1-2H3, purity 99.6%
Compound 5: cefaclor, C15H14ClN3O4S, InChI=1S/C15H14ClN3O4S/c16-8-6-24-14-10(13(21)19(14)11(8)15(22)23)18-12(20)9(17)7-4-2-1-3-5-7/h1-5,9-10,14H,6,17H2,(H,18,20)(H,22,23)/t9-,10-,14-/m1/s1, purity 99.6%

System: water + cefaclor; phases: Liquid, Crystal
Fixed: Pressure, kPa = 101.325
Property: Mole fraction of cefaclor (Liquid); method: Phase equilibration
Temperature, K	Mole fraction of cefaclor	uncertainty
278.15	0.0003871	2.324e-05
283.15	0.00040106	2.408e-05
288.15	0.00041746	2.507e-05
293.15	0.00044519	2.673e-05
298.15	0.00047579	2.857e-05
303.15	0.00051059	3.066e-05
308.15	0.00055148	3.312e-05
313.15	0.00060187	3.615e-05

System: methanol + cefaclor; phases: Liquid, Crystal
Fixed: Pressure, kPa = 101.325
Property: Mole fraction of cefaclor (Liquid); method: Phase equilibration
Temperature, K	Mole fraction of cefaclor	uncertainty
278.15	8.68e-05	5.22e-06
283.15	0.00010056	6.04e-06
288.15	0.00011459	6.89e-06
293.15	0.00012901	7.75e-06
298.15	0.00014461	8.69e-06
303.15	0.00016335	9.82e-06
308.15	0.00018603	1.118e-05
313.15	0.00021381	1.285e-05

System: ethanol + cefaclor; phases: Liquid, Crystal
Fixed: Pressure, kPa = 101.325
Property: Mole fraction of cefaclor (Liquid); method: Phase equilibration
Temperature, K	Mole fraction of cefaclor	uncertainty
278.15	2.364e-05	1.43e-06
283.15	3.047e-05	1.84e-06
288.15	3.859e-05	2.32e-06
293.15	4.764e-05	2.87e-06
298.15	5.706e-05	3.43e-06
303.15	6.721e-05	4.04e-06
308.15	7.921e-05	4.76e-06
313.15	9.546e-05	5.74e-06

System: acetone + cefaclor; phases: Liquid, Crystal
Fixed: Pressure, kPa = 101.325
Property: Mole fraction of cefaclor (Liquid); method: Phase equilibration
Temperature, K	Mole fraction of cefaclor	uncertainty
278.15	2.05e-05	1.24e-06
283.15	2.672e-05	1.61e-06
288.15	3.432e-05	2.07e-06
293.15	4.353e-05	2.62e-06
298.15	5.481e-05	3.3e-06
303.15	6.84e-05	4.12e-06
308.15	8.567e-05	5.16e-06
313.15	0.00010777	6.49e-06
