Measured thermophysical data. Solid-liquid phase equilibrium and phase diagram for the reciprocal quaternary system Na+, K+ // SO42,H2PO4- - H2O at 313.15 K
Source: Fluid Phase Equilib., 2016, 10.1016/j.fluid.2016.09.005
Compound 1: potassium sulfate, K2O4S, InChI=1S/2K.H2O4S/c;;1-5(2,3)4/h;;(H2,1,2,3,4)/q2*+1;/p-2, purity 99%
Compound 2: sodium sulfate, Na2O4S, InChI=1S/2Na.H2O4S/c;;1-5(2,3)4/h;;(H2,1,2,3,4)/q2*+1;/p-2, purity 99.5%
Compound 3: monopotassium phosphate, H2KO4P, InChI=1S/K.H3O4P/c;1-5(2,3)4/h;(H3,1,2,3,4)/q+1;/p-1, purity 99.5%
Compound 4: water, H2O, InChI=1S/H2O/h1H2, purity 99.8%
Compound 5: sodium dihydrogen phosphate, H2NaO4P, InChI=1S/Na.H3O4P/c;1-5(2,3)4/h;(H3,1,2,3,4)/q+1;/p-1, purity 99%

System: water + monopotassium phosphate + potassium sulfate; phases: Liquid, Crystal of intercomponent compound 1
Property: Mass fraction of potassium sulfate (Liquid); method: barium sulfate turbidimetry
Mass fraction of monopotassium phosphate	Temperature, K	Pressure, kPa	Mass fraction of potassium sulfate	uncertainty
0.2143	313.15	88.4	0.077	0.0002

System: water + monopotassium phosphate + potassium sulfate; phases: Liquid
Property: Refractive index (Na D-line) (Liquid); method: Standard Abbe refractometry
Mass fraction of monopotassium phosphate	Pressure, kPa	Temperature, K	Mass fraction of potassium sulfate	Refractive index (Na D-line)	uncertainty
0.2143	88.4	313.15	0.077	1.3626	0.0006

System: sodium dihydrogen phosphate + water + sodium sulfate; phases: Liquid, Crystal of intercomponent compound 1
Property: Mass fraction of sodium dihydrogen phosphate (Liquid); method: reverse titration using sodium tetraphenylboron and quaternary ammonium salt
Mass fraction of sodium sulfate	Temperature, K	Pressure, kPa	Mass fraction of sodium dihydrogen phosphate	uncertainty
0.1178	313.15	88.4	0.4438	0.0013

System: sodium dihydrogen phosphate + water + sodium sulfate; phases: Liquid
Property: Refractive index (Na D-line) (Liquid); method: Standard Abbe refractometry
Mass fraction of sodium dihydrogen phosphate	Pressure, kPa	Temperature, K	Mass fraction of sodium sulfate	Refractive index (Na D-line)	uncertainty
0.4438	88.4	313.15	0.1178	1.4023	0.0006

System: sodium dihydrogen phosphate + water + monopotassium phosphate; phases: Liquid, Crystal of intercomponent compound 1
Property: Mass fraction of sodium dihydrogen phosphate (Liquid); method: reverse titration using sodium tetraphenylboron and quaternary ammonium salt
Mass fraction of monopotassium phosphate	Temperature, K	Pressure, kPa	Mass fraction of sodium dihydrogen phosphate	uncertainty
0.0982	313.15	88.4	0.4964	0.0015

System: sodium dihydrogen phosphate + water + monopotassium phosphate; phases: Liquid
Property: Refractive index (Na D-line) (Liquid); method: Standard Abbe refractometry
Mass fraction of sodium dihydrogen phosphate	Pressure, kPa	Temperature, K	Mass fraction of monopotassium phosphate	Refractive index (Na D-line)	uncertainty
0.4964	88.4	313.15	0.0982	1.4131	0.0006
