Measured thermophysical data. Separation of acetone and methanol azeotropic system using ionic liquid as entrainer
Source: Fluid Phase Equilib., 2014, 10.1016/j.fluid.2014.10.011
Compound 1: acetone, C3H6O, InChI=1S/C3H6O/c1-3(2)4/h1-2H3, purity 99.5%
Compound 2: methanol, CH4O, InChI=1S/CH4O/c1-2/h2H,1H3, purity 99.5%
Compound 3: 2-aminoethanol hydrochloride, C2H8ClNO, InChI=1S/C2H7NO.ClH/c3-1-2-4;/h4H,1-3H2;1H, purity 99%
Compound 4: 2-hydroxyethylammonium acetate, C4H11NO3, InChI=1S/C2H7NO.C2H4O2/c3-1-2-4;1-2(3)4/h4H,1-3H2;1H3,(H,3,4), purity 99%
Compound 5: 1-ethyl-3-methylimidazolium acetate, C8H14N2O2, InChI=1S/C6H11N2.C2H4O2/c1-3-8-5-4-7(2)6-8;1-2(3)4/h4-6H,3H2,1-2H3;1H3,(H,3,4)/q+1;/p-1, purity 99%

System: methanol + acetone; phases: Gas, Liquid
Fixed: Pressure, kPa = 101.3
Property: Mole fraction of acetone (Gas); method: Chromatography
Mole fraction of acetone	Mole fraction of acetone	uncertainty
0	0	
0.052	0.098	0.004
0.178	0.292	0.004
0.252	0.377	0.004
0.351	0.472	0.005
0.467	0.554	0.005
0.511	0.581	0.005
0.569	0.624	0.004
0.651	0.692	0.004
0.699	0.728	0.004
0.741	0.759	0.003
0.779	0.778	0.003
0.79	0.783	0.003
0.798	0.789	0.003
0.824	0.812	0.003
0.839	0.825	0.003
0.902	0.887	0.003
0.947	0.931	0.003
1	1	

System: methanol + acetone; phases: Liquid, Gas
Fixed: Pressure, kPa = 101.3
Property: Boiling temperature at pressure P, K (Liquid); method: Ebulliometric method (Recirculating still)
Mole fraction of acetone	Boiling temperature at pressure P, K	uncertainty
0	337.62	0.09
0.052	336.25	0.1
0.178	333.44	0.1
0.252	332.11	0.1
0.351	330.79	0.09
0.467	329.63	0.09
0.511	329.34	0.09
0.569	328.97	0.09
0.651	328.58	0.09
0.699	328.45	0.09
0.741	328.4	0.09
0.779	328.38	0.09
0.79	328.39	0.09
0.798	328.4	0.09
0.824	328.44	0.09
0.839	328.47	0.09
0.902	328.67	0.09
0.947	328.89	0.09
1	329.27	0.09

System: methanol + acetone + 2-aminoethanol hydrochloride; phases: Liquid, Gas
Fixed: Pressure, kPa = 101.3
Property: Mole fraction of methanol (Liquid); method: Chromatography
Property: Mole fraction of methanol (Gas); method: Chromatography
Property: Mole fraction of acetone (Gas); method: Chromatography
Temperature, K	Mole fraction of acetone	Mole fraction of methanol	uncertainty	Mole fraction of methanol	uncertainty	Mole fraction of acetone	uncertainty
343.97	0	0.898	0.002	1		0	
343.2	0.05	0.85	0.01	0.884	0.002	0.116	
342.73	0.074	0.823	0.002	0.837	0.003	0.163	
341.92	0.114	0.787	0.003	0.764	0.003	0.236	
341.17	0.149	0.747	0.003	0.709	0.004	0.291	
340.38	0.179	0.718	0.003	0.668	0.004	0.332	
339.86	0.209	0.691	0.003	0.635	0.004	0.365	
338.94	0.259	0.64	0.01	0.579	0.004	0.421	
337.83	0.316	0.583	0.004	0.527	0.005	0.473	
337.08	0.362	0.533	0.004	0.485	0.005	0.515	
336.14	0.409	0.489	0.004	0.452	0.005	0.548	
335.09	0.464	0.433	0.004	0.41	0.01	0.59	
334.04	0.531	0.362	0.003	0.363	0.004	0.637	
333.11	0.61	0.293	0.003	0.297	0.003	0.703	
332.62	0.654	0.245	0.003	0.252	0.003	0.748	
332.03	0.73	0.165	0.002	0.173	0.003	0.827	
331.44	0.818	0.079	0.002	0.082	0.002	0.918	
331.03	0.898	0		0		1	
345.19	0	0.794	0.003	1		0	
344.21	0.012	0.783	0.003	0.959	0.002	0.041	
343.33	0.025	0.777	0.003	0.921	0.002	0.079	
342.24	0.042	0.758	0.003	0.87	0.01	0.13	
341.33	0.059	0.742	0.003	0.817	0.003	0.183	
340.52	0.079	0.724	0.003	0.775	0.003	0.225	
339.66	0.099	0.696	0.003	0.733	0.003	0.267	
339.13	0.117	0.682	0.003	0.706	0.004	0.294	
338.26	0.147	0.65	0.01	0.661	0.004	0.339	
337.39	0.184	0.614	0.004	0.613	0.004	0.387	
336.28	0.241	0.556	0.004	0.546	0.005	0.454	
335.42	0.299	0.5	0.1	0.491	0.005	0.509	
334.44	0.37	0.427	0.004	0.426	0.004	0.574	
333.71	0.422	0.374	0.003	0.379	0.004	0.621	
333.03	0.477	0.32	0.01	0.329	0.004	0.671	
332.34	0.528	0.27	0.01	0.278	0.003	0.722	
331.71	0.576	0.22	0.01	0.23	0.01	0.77	
331.03	0.64	0.161	0.002	0.168	0.003	0.832	
329.46	0.799	0		0		1	

System: methanol + acetone + 2-hydroxyethylammonium acetate; phases: Liquid, Gas
Fixed: Pressure, kPa = 101.3
Property: Mole fraction of methanol (Liquid); method: Chromatography
Property: Mole fraction of methanol (Gas); method: Chromatography
Property: Mole fraction of acetone (Gas); method: Chromatography
Temperature, K	Mole fraction of acetone	Mole fraction of methanol	uncertainty	Mole fraction of methanol	uncertainty	Mole fraction of acetone	uncertainty
342.21	0	0.902	0.002	1		0	
341.23	0.036	0.869	0.002	0.919	0.002	0.081	
340.39	0.062	0.839	0.002	0.872	0.002	0.128	
339.77	0.088	0.808	0.003	0.836	0.003	0.164	
339.34	0.104	0.796	0.003	0.809	0.003	0.191	
339.03	0.117	0.777	0.003	0.792	0.003	0.208	
338.78	0.134	0.769	0.003	0.774	0.003	0.226	
338.26	0.16	0.742	0.003	0.748	0.003	0.252	
337.77	0.189	0.709	0.003	0.715	0.003	0.285	
336.92	0.227	0.673	0.003	0.666	0.004	0.334	
336.23	0.271	0.625	0.003	0.625	0.004	0.375	
335.58	0.314	0.587	0.004	0.597	0.004	0.403	
334.32	0.386	0.51	0.01	0.526	0.005	0.474	
333.08	0.47	0.427	0.004	0.438	0.004	0.562	
332.26	0.546	0.351	0.003	0.363	0.004	0.637	
331.72	0.609	0.289	0.003	0.302	0.003	0.698	
331.27	0.676	0.227	0.003	0.238	0.003	0.762	
331.11	0.716	0.182	0.002	0.205	0.003	0.795	
331.26	0.756	0.141	0.002	0.167	0.003	0.833	
331.54	0.8	0.102	0.002	0.119	0.002	0.881	
331.95	0.84	0.058	0.002	0.075	0.002	0.925	
332.47	0.887	0.017	0.002	0.027	0.002	0.973	
332.78	0.894	0		0		1	
346.23	0	0.797	0.003	1		0	
345.06	0.03	0.772	0.003	0.914	0.002	0.086	
344.31	0.051	0.752	0.003	0.872	0.002	0.128	
343.92	0.065	0.735	0.003	0.845	0.003	0.155	
343.31	0.089	0.715	0.003	0.806	0.003	0.194	
342.94	0.107	0.694	0.003	0.775	0.003	0.225	
342.42	0.125	0.676	0.003	0.744	0.003	0.256	
341.64	0.163	0.64	0.01	0.686	0.004	0.314	
340.71	0.198	0.6	0.1	0.619	0.004	0.381	
340.09	0.236	0.563	0.004	0.574	0.005	0.426	
336.23	0.271	0.625	0.003	0.625	0.004	0.375	
335.58	0.314	0.587	0.004	0.597	0.004	0.403	
334.32	0.386	0.51	0.01	0.526	0.005	0.474	
333.08	0.47	0.427	0.004	0.438	0.004	0.562	
332.26	0.546	0.351	0.003	0.363	0.004	0.637	
331.72	0.609	0.289	0.003	0.302	0.003	0.698	
331.27	0.676	0.227	0.003	0.238	0.003	0.762	
331.11	0.716	0.182	0.002	0.205	0.003	0.795	
331.26	0.756	0.141	0.002	0.167	0.003	0.833	
331.54	0.8	0.102	0.002	0.119	0.002	0.881	
331.95	0.84	0.058	0.002	0.075	0.002	0.925	
332.47	0.887	0.017	0.002	0.027	0.002	0.973	
332.78	0.894	0		0		1	
339.49	0.279	0.517	0.004	0.523	0.005	0.477	
338.98	0.32	0.482	0.004	0.485	0.005	0.515	
338.48	0.359	0.445	0.004	0.451	0.005	0.549	
338.06	0.405	0.396	0.004	0.407	0.004	0.593	
337.53	0.453	0.349	0.003	0.347	0.004	0.653	
337.15	0.511	0.288	0.003	0.303	0.003	0.697	
336.67	0.573	0.223	0.003	0.232	0.003	0.768	
336.35	0.632	0.164	0.002	0.173	0.003	0.827	
335.98	0.706	0.092	0.002	0.098	0.002	0.902	
335.79	0.744	0.057	0.002	0.062	0.002	0.938	
335.52	0.8	0		0		1	

System: methanol + acetone + 1-ethyl-3-methylimidazolium acetate; phases: Liquid, Gas
Fixed: Pressure, kPa = 101.3
Property: Mole fraction of methanol (Liquid); method: Chromatography
Property: Mole fraction of methanol (Gas); method: Chromatography
Property: Mole fraction of acetone (Gas); method: Chromatography
Temperature, K	Mole fraction of acetone	Mole fraction of methanol	uncertainty	Mole fraction of methanol	uncertainty	Mole fraction of acetone	uncertainty
331.08	0.897	0		0		1	
331.16	0.865	0.033	0.002	0.017	0.002	0.983	
331.37	0.818	0.083	0.002	0.062	0.002	0.938	
331.66	0.768	0.138	0.002	0.116	0.002	0.884	
331.97	0.699	0.201	0.003	0.157	0.002	0.843	
332.36	0.631	0.27	0.01	0.209	0.003	0.791	
332.66	0.795	0		0		1	
332.84	0.574	0.327	0.003	0.253	0.003	0.747	
333.03	0.779	0.017	0.002	0.012	0.002	0.988	
333.37	0.511	0.388	0.003	0.31	0.01	0.69	
333.65	0.741	0.062	0.002	0.049	0.002	0.951	
333.83	0.459	0.438	0.004	0.346	0.004	0.654	
334.37	0.418	0.486	0.004	0.385	0.004	0.615	
334.58	0.687	0.115	0.002	0.088	0.002	0.912	
335.05	0.364	0.538	0.004	0.429	0.004	0.571	
335.26	0.63	0.166	0.002	0.133	0.002	0.867	
335.56	0.327	0.571	0.004	0.462	0.005	0.538	
336.08	0.296	0.601	0.004	0.499	0.005	0.501	
336.17	0.568	0.225	0.003	0.179	0.003	0.821	
336.91	0.519	0.276	0.003	0.214	0.003	0.786	
336.96	0.25	0.651	0.003	0.557	0.005	0.443	
337.73	0.212	0.688	0.003	0.606	0.004	0.394	
337.84	0.465	0.328	0.003	0.253	0.003	0.747	
338.66	0.168	0.732	0.003	0.666	0.004	0.334	
338.69	0.423	0.372	0.003	0.284	0.003	0.716	
339.24	0.144	0.759	0.003	0.707	0.004	0.293	
339.75	0.382	0.418	0.004	0.316	0.003	0.684	
340.23	0.1	0.797	0.003	0.776	0.003	0.224	
340.68	0.33	0.463	0.004	0.362	0.004	0.638	
340.89	0.076	0.828	0.002	0.825	0.003	0.175	
341.27	0.299	0.497	0.004	0.395	0.004	0.605	
341.32	0.057	0.847	0.002	0.862	0.003	0.138	
341.88	0.034	0.87	0.01	0.913	0.002	0.087	
342.02	0.265	0.529	0.004	0.435	0.004	0.565	
342.48	0.012	0.892	0.002	0.968	0.002	0.032	
342.72	0.222	0.577	0.004	0.499	0.005	0.501	
342.83	0	0.903	0.002	1		0	
343.51	0.187	0.613	0.004	0.546	0.005	0.454	
344.41	0.148	0.65	0.01	0.609	0.004	0.391	
345.05	0.126	0.674	0.003	0.658	0.004	0.342	
345.68	0.089	0.708	0.003	0.727	0.003	0.273	
346.06	0.066	0.727	0.003	0.782	0.003	0.218	
346.57	0.05	0.746	0.003	0.826	0.003	0.174	
347.19	0.03	0.768	0.003	0.893	0.002	0.107	
347.66	0.011	0.788	0.003	0.968	0.002	0.032	
348.43	0	0.797	0.003	1		0	
