Measured thermophysical data. Solid-liquid equilibria of the CO(NH2)2-MgSO4-(NH4)2SO4-H2O system at 0 C and 25 C
Source: Fluid Phase Equilib., 2017, 10.1016/j.fluid.2017.05.002
Compound 1: magnesium sulfate, MgO4S, InChI=1S/Mg.H2O4S/c;1-5(2,3)4/h;(H2,1,2,3,4)/q+2;/p-2, purity 99.5%
Compound 2: urea, CH4N2O, InChI=1S/CH4N2O/c2-1(3)4/h(H4,2,3,4), purity 99%
Compound 3: ammonium sulfate, H8N2O4S, InChI=1S/2H3N.H2O4S/c;;1-5(2,3)4/h2*1H3;(H2,1,2,3,4), purity 99%
Compound 4: water, H2O, InChI=1S/H2O/h1H2, purity 99.9%

System: urea + water + ammonium sulfate; phases: Liquid, Crystal
Fixed: Temperature, K = 273.15
Fixed: Pressure, kPa = 101
Property: Mass fraction of urea (Liquid); method: Titration method
Mass fraction of ammonium sulfate	Mass fraction of urea	uncertainty
0	0.4	0.04
0.1002	0.358	0.0421
0.1618	0.3487	0.0411
0.2147	0.3304	0.0423

System: urea + water + ammonium sulfate; phases: Liquid, Crystal
Fixed: Pressure, kPa = 101
Property: Mass fraction of urea (Liquid); method: Titration method
Temperature, K	Mass fraction of ammonium sulfate	Mass fraction of urea	uncertainty
273.15	0.2997	0.3064	0.04
273.15	0.3705	0.2163	0.04
273.15	0.405	0.1237	0.04
273.15	0.4138	0	
298.15	0.2519	0.4224	0.04

System: urea + water + ammonium sulfate; phases: Liquid, Crystal of intercomponent compound 1
Fixed: Pressure, kPa = 101
Property: Mass fraction of urea (Liquid); method: Titration method
Temperature, K	Mass fraction of ammonium sulfate	Mass fraction of urea	uncertainty
273.15	0.2878	0.3466	0.04
298.15	0.2519	0.4224	0.04

System: ammonium sulfate + magnesium sulfate + water; phases: Liquid, Crystal of intercomponent compound 1
Fixed: Pressure, kPa = 101
Property: Mass fraction of ammonium sulfate (Liquid); method: Titration method
Temperature, K	Mass fraction of magnesium sulfate	Mass fraction of ammonium sulfate	uncertainty
273.15	0.2048	0.0184	0.0184
298.15	0.2634	0.025	0.025

System: ammonium sulfate + magnesium sulfate + water; phases: Liquid, Crystal of intercomponent compound 2
Fixed: Pressure, kPa = 101
Property: Mass fraction of ammonium sulfate (Liquid); method: Titration method
Temperature, K	Mass fraction of magnesium sulfate	Mass fraction of ammonium sulfate	uncertainty
273.15	0.2048	0.0184	0.0184
298.15	0.2634	0.025	0.025
273.15	0.0015	0.4073	0.0401

System: ammonium sulfate + magnesium sulfate + water; phases: Liquid, Crystal
Property: Mass fraction of ammonium sulfate (Liquid); method: Titration method
Temperature, K	Mass fraction of magnesium sulfate	Pressure, kPa	Mass fraction of ammonium sulfate	uncertainty
273.15	0.0015	101	0.4073	0.0401

System: urea + magnesium sulfate + water; phases: Liquid, Crystal of intercomponent compound 1
Property: Mass fraction of urea (Liquid); method: Titration method
Temperature, K	Mass fraction of magnesium sulfate	Pressure, kPa	Mass fraction of urea	uncertainty
273.15	0.2262	101	0.361	0.04

System: urea + magnesium sulfate + water; phases: Liquid, Crystal of intercomponent compound 3
Property: Mass fraction of urea (Liquid); method: Titration method
Temperature, K	Mass fraction of magnesium sulfate	Pressure, kPa	Mass fraction of urea	uncertainty
273.15	0.2878	101	0.3071	0.04

System: urea + magnesium sulfate + water; phases: Liquid, Crystal of intercomponent compound 2
Property: Mass fraction of urea (Liquid); method: Titration method
Temperature, K	Mass fraction of magnesium sulfate	Pressure, kPa	Mass fraction of urea	uncertainty
298.15	0.2262	101	0.508	0.04
