Measured thermophysical data. Experimental liquid liquid equilibria of 1-methylimidazole with hydrocarbons and ethers
Source: Fluid Phase Equilib., 2005, 10.1016/j.fluid.2005.09.021
Compound 1: 1-methylimidazole, C4H6N2, InChI=1S/C4H6N2/c1-6-3-2-5-4-6/h2-4H,1H3, purity 99%
Compound 2: pentane, C5H12, InChI=1S/C5H12/c1-3-5-4-2/h3-5H2,1-2H3, purity 99%
Compound 3: hexane, C6H14, InChI=1S/C6H14/c1-3-5-6-4-2/h3-6H2,1-2H3, purity 99%
Compound 4: cyclopentane, C5H10, InChI=1S/C5H10/c1-2-4-5-3-1/h1-5H2, purity 99%
Compound 5: cyclohexane, C6H12, InChI=1S/C6H12/c1-2-4-6-5-3-1/h1-6H2, purity 99%
Compound 6: hexylbenzene, C12H18, InChI=1S/C12H18/c1-2-3-4-6-9-12-10-7-5-8-11-12/h5,7-8,10-11H,2-4,6,9H2,1H3, purity 98%
Compound 7: dipropyl ether, C6H14O, InChI=1S/C6H14O/c1-3-5-7-6-4-2/h3-6H2,1-2H3, purity 99%
Compound 8: dibutyl ether, C8H18O, InChI=1S/C8H18O/c1-3-5-7-9-8-6-4-2/h3-8H2,1-2H3, purity 99%
Compound 9: dipentyl ether, C10H22O, InChI=1S/C10H22O/c1-3-5-7-9-11-10-8-6-4-2/h3-10H2,1-2H3, purity 98.5%

System: pentane + 1-methylimidazole; phases: Liquid mixture 1, Liquid mixture 2
Fixed: Pressure, kPa = 101.3
Property: Mole fraction of 1-methylimidazole (Liquid mixture 1); method: Titration method
Temperature, K	Mole fraction of 1-methylimidazole	uncertainty
282.02	0.0044	0.0004
282.95	0.0044	0.0004
285.45	0.0046	0.0004
291.8	0.005	0.0004
292.25	0.0051	0.0004
296.89	0.0055	0.0004
299.56	0.0057	0.0004
300.41	0.0059	0.0004
302.95	0.0062	0.0004
306.55	0.0069	0.0004
309.05	0.0075	0.0004

System: pentane + 1-methylimidazole; phases: Liquid mixture 2, Liquid mixture 1
Fixed: Pressure, kPa = 101.3
Property: Mole fraction of 1-methylimidazole (Liquid mixture 2); method: Titration method
Temperature, K	Mole fraction of 1-methylimidazole	uncertainty
282.02	0.9652	0.0006
282.95	0.9643	0.0006
285.45	0.9621	0.0007
291.8	0.957	0.0007
292.25	0.9564	0.0007
296.89	0.9516	0.0008
299.56	0.9488	0.0008
300.41	0.9475	0.0008
302.95	0.9434	0.0009
306.55	0.9373	0.001
309.05	0.929	0.0011

System: hexane + 1-methylimidazole; phases: Liquid mixture 1, Liquid mixture 2
Fixed: Pressure, kPa = 101.3
Property: Mole fraction of 1-methylimidazole (Liquid mixture 1); method: Titration method
Temperature, K	Mole fraction of 1-methylimidazole	uncertainty
292.77	0.0059	0.0004
293.88	0.0061	0.0004
296.93	0.0067	0.0004
305.46	0.0088	0.0004
308.99	0.0098	0.0004
312.11	0.0108	0.0004
313.84	0.0114	0.0004
318.95	0.0135	0.0004
323.69	0.0158	0.0005
324.94	0.0164	0.0005
328.25	0.0183	0.0005
332.65	0.021	0.0005
333.12	0.0211	0.0005
336.35	0.0235	0.0005
337.75	0.0247	0.0005
339.91	0.0264	0.0006
341.78	0.0287	0.0006
342.05	0.0293	0.0006

System: hexane + 1-methylimidazole; phases: Liquid mixture 2, Liquid mixture 1
Fixed: Pressure, kPa = 101.3
Property: Mole fraction of 1-methylimidazole (Liquid mixture 2); method: Titration method
Temperature, K	Mole fraction of 1-methylimidazole	uncertainty
292.77	0.9712	0.0006
293.88	0.9705	0.0006
296.93	0.9686	0.0006
305.46	0.9618	0.0007
308.99	0.959	0.0007
312.11	0.9563	0.0007
313.84	0.9549	0.0008
318.95	0.9497	0.0008
323.69	0.9443	0.0009
324.94	0.9427	0.0009
328.25	0.9392	0.001
332.65	0.9335	0.001
333.12	0.9329	0.001
336.35	0.9283	0.0011
337.75	0.9265	0.0011
339.91	0.9231	0.0012
341.78	0.9195	0.0012
342.05	0.919	0.0013

System: cyclopentane + 1-methylimidazole; phases: Liquid mixture 1, Liquid mixture 2
Fixed: Pressure, kPa = 101.3
Property: Mole fraction of 1-methylimidazole (Liquid mixture 1); method: Titration method
Temperature, K	Mole fraction of 1-methylimidazole	uncertainty
290.97	0.0082	0.0004
293.55	0.0086	0.0004
294.62	0.0089	0.0004
299.14	0.0098	0.0004
300.08	0.01	0.0004
301.68	0.0103	0.0004
302.68	0.0106	0.0004
305.69	0.0114	0.0004
305.99	0.0115	0.0004
307.89	0.0121	0.0004
309.06	0.0124	0.0004
311.74	0.0132	0.0004
313.31	0.0137	0.0004
313.65	0.0139	0.0004
314.87	0.0143	0.0005
316.08	0.0147	0.0005
316.47	0.015	0.0005
317.98	0.0156	0.0005
319.81	0.0164	0.0005
321.33	0.017	0.0005
322.02	0.0173	0.0005

System: cyclopentane + 1-methylimidazole; phases: Liquid mixture 2, Liquid mixture 1
Fixed: Pressure, kPa = 101.3
Property: Mole fraction of 1-methylimidazole (Liquid mixture 2); method: Titration method
Temperature, K	Mole fraction of 1-methylimidazole	uncertainty
290.97	0.9069	0.0014
293.55	0.9024	0.0015
294.62	0.9007	0.0015
299.14	0.8917	0.0017
300.08	0.89	0.0017
301.68	0.8863	0.0018
302.68	0.8839	0.0018
305.69	0.8772	0.0019
305.99	0.8763	0.0019
307.89	0.8718	0.002
309.06	0.869	0.002
311.74	0.862	0.0021
313.31	0.8589	0.0022
313.65	0.8577	0.0022
314.87	0.8548	0.0023
316.08	0.8518	0.0023
316.47	0.8506	0.0023
317.98	0.8472	0.0024
319.81	0.843	0.0024
321.33	0.8394	0.0025
322.02	0.8378	0.0025

System: cyclohexane + 1-methylimidazole; phases: Liquid mixture 1, Liquid mixture 2
Fixed: Pressure, kPa = 101.3
Property: Mole fraction of 1-methylimidazole (Liquid mixture 1); method: TITR:UFactor:2
Temperature, K	Mole fraction of 1-methylimidazole	uncertainty
298.82	0.0061	0.0004
303.68	0.0085	0.0005
306.28	0.0099	0.0005
310.62	0.0122	0.0005
312.79	0.0134	0.0006
314.87	0.0149	0.0006
319.65	0.0177	0.0006
324.06	0.0215	0.0007
324.41	0.0218	0.0007
328.05	0.0244	0.0008
329.44	0.0254	0.0008
333.81	0.0299	0.0009
335.95	0.0318	0.001
336.72	0.0328	0.001
338.37	0.0343	0.0011
340.71	0.0381	0.0012
342.45	0.0409	0.0013
344.15	0.0441	0.0014
348.26	0.0524	0.0016
349.1	0.0544	0.0017
349.47	0.0548	0.0017
351.71	0.0595	0.0018

System: cyclohexane + 1-methylimidazole; phases: Liquid mixture 2, Liquid mixture 1
Fixed: Pressure, kPa = 101.3
Property: Mole fraction of 1-methylimidazole (Liquid mixture 2); method: Titration method
Temperature, K	Mole fraction of 1-methylimidazole	uncertainty
298.82	0.9317	0.0011
303.68	0.9237	0.0012
306.28	0.9182	0.0013
310.62	0.9082	0.0014
312.79	0.9032	0.0015
314.87	0.8986	0.0016
319.65	0.8855	0.0018
324.06	0.8739	0.002
324.41	0.8714	0.002
328.05	0.8626	0.0021
329.44	0.8591	0.0022
333.81	0.8461	0.0024
335.95	0.8395	0.0025
336.72	0.8369	0.0025
338.37	0.832	0.0026
340.71	0.8246	0.0027
342.45	0.8195	0.0028
344.15	0.8137	0.0029
348.26	0.8	0.0031
349.1	0.7968	0.0031
349.47	0.7945	0.0032
351.71	0.786	0.0033

System: 1-methylimidazole + hexylbenzene; phases: Liquid mixture 1, Liquid mixture 2
Fixed: Pressure, kPa = 101.3
Property: Mole fraction of 1-methylimidazole (Liquid mixture 1); method: Titration method
Temperature, K	Mole fraction of 1-methylimidazole	uncertainty
297.15	0.1842	0.0029
298.65	0.1921	0.003
298.75	0.1927	0.003
299.42	0.1971	0.0031
300.05	0.2015	0.0031
300.55	0.2043	0.0032
301.15	0.211	0.0033
301.75	0.2153	0.0033
302.34	0.2206	0.0034
303.06	0.2283	0.0035
303.82	0.2363	0.0037
303.9	0.2388	0.0037
304.15	0.2407	0.0037
304.65	0.2508	0.0039
305.27	0.2671	0.0042
305.51	0.2706	0.0042
306.25	0.2927	0.0046
306.3	0.2943	0.0046
306.75	0.3119	0.0049
306.9	0.3157	0.005
307.22	0.3397	0.0053
307.27	0.3416	0.0056
307.33	0.3504	0.0069
307.35	0.3603	0.01
307.4	0.38	0.0098

System: 1-methylimidazole + hexylbenzene; phases: Liquid mixture 2, Liquid mixture 1
Fixed: Pressure, kPa = 101.3
Property: Mole fraction of 1-methylimidazole (Liquid mixture 2); method: Titration method
Temperature, K	Mole fraction of 1-methylimidazole	uncertainty
297.15	0.7947	0.0032
298.65	0.7663	0.0037
298.75	0.7638	0.0037
299.42	0.7504	0.0039
300.05	0.7359	0.0041
300.55	0.7183	0.0044
301.15	0.6983	0.0047
301.75	0.6796	0.005
302.34	0.6565	0.0054
303.06	0.629	0.0058
303.82	0.6009	0.0062
303.9	0.5981	0.0063
304.15	0.5861	0.0065
304.65	0.5666	0.0068
305.27	0.5398	0.0072
305.51	0.5306	0.0073
306.25	0.4984	0.0078
306.3	0.4959	0.0077
306.75	0.4591	0.0073
306.9	0.4447	0.0072
307.22	0.4096	0.0066
307.27	0.4054	0.0065
307.33	0.3996	0.0068
307.35	0.3928	0.0078
307.4	0.3823	0.0073

System: dipropyl ether + 1-methylimidazole; phases: Liquid mixture 1, Liquid mixture 2
Fixed: Pressure, kPa = 101.3
Property: Mole fraction of 1-methylimidazole (Liquid mixture 1); method: Titration method
Temperature, K	Mole fraction of 1-methylimidazole	uncertainty
280	0.2235	0.0035
280.65	0.2289	0.0036
281.95	0.2392	0.0037
282.05	0.2402	0.0037
283.25	0.25	0.0039
283.55	0.2543	0.0039
284.35	0.2602	0.004
285.15	0.2677	0.0042
285.35	0.269	0.0042
286.15	0.2788	0.0043
286.75	0.283	0.0044
287.05	0.2896	0.0045
287.55	0.2975	0.0046
287.95	0.3024	0.0047
288.45	0.3107	0.0048
288.55	0.3123	0.0049
288.75	0.3171	0.0049
289.05	0.3227	0.005
289.15	0.3259	0.0051
289.55	0.335	0.0052
289.75	0.3439	0.0054
289.85	0.3471	0.0054

System: dipropyl ether + 1-methylimidazole; phases: Liquid mixture 2, Liquid mixture 1
Fixed: Pressure, kPa = 101.3
Property: Mole fraction of 1-methylimidazole (Liquid mixture 2); method: Titration method
Temperature, K	Mole fraction of 1-methylimidazole	uncertainty
280	0.5827	0.0065
280.65	0.5722	0.0066
281.95	0.5462	0.007
282.05	0.5455	0.007
283.25	0.5234	0.0074
283.55	0.5164	0.0075
284.35	0.5024	0.0077
285.15	0.4827	0.0075
285.35	0.4809	0.0075
286.15	0.4637	0.0072
286.75	0.4532	0.007
287.05	0.4471	0.0069
287.55	0.4376	0.0068
287.95	0.4322	0.0067
288.45	0.4184	0.0065
288.55	0.4158	0.0065
288.75	0.4108	0.0064
289.05	0.4013	0.0062
289.15	0.3997	0.0062
289.55	0.3882	0.0061
289.75	0.3742	0.0061
289.85	0.36	0.0063

System: dibutyl ether + 1-methylimidazole; phases: Liquid mixture 1, Liquid mixture 2
Fixed: Pressure, kPa = 101.3
Property: Mole fraction of 1-methylimidazole (Liquid mixture 1); method: TITR:UFactor:2
Temperature, K	Mole fraction of 1-methylimidazole	uncertainty
285.2	0.0637	0.002
287.51	0.0665	0.0021
289.86	0.0694	0.0022
294.62	0.0762	0.0024
299.53	0.0826	0.0026
299.87	0.0833	0.0026
304.94	0.0912	0.0028
307.6	0.097	0.003
308.92	0.0998	0.0031
313.83	0.1109	0.0034
314.1	0.1115	0.0035
314.79	0.1131	0.0035
315.69	0.116	0.0036
317.79	0.1224	0.0038
318.84	0.1259	0.0039
321.62	0.134	0.0042
323.74	0.1427	0.0044
326.59	0.1532	0.0047
327.66	0.1598	0.005
329.61	0.1709	0.0053
331.96	0.1848	0.0057
332.43	0.1886	0.0058
334.83	0.206	0.0064
335.28	0.2098	0.0065
337.52	0.2311	0.0072
337.63	0.2327	0.0072
339.24	0.2528	0.0078
339.76	0.2612	0.0081
340.56	0.2752	0.0085
340.79	0.2797	0.0087
341.18	0.2887	0.009
341.41	0.2949	0.0092
341.49	0.2973	0.0092
341.77	0.3059	0.0095
342.17	0.3184	0.0099
342.28	0.3218	0.01
342.44	0.3288	0.0102
342.53	0.3345	0.0104
342.76	0.3461	0.0108
342.88	0.3553	0.0112
342.99	0.365	0.0115
343.15	0.3822	0.012
343.25	0.3918	0.0125
343.33	0.402	0.0126
343.38	0.4257	0.0137

System: dibutyl ether + 1-methylimidazole; phases: Liquid mixture 2, Liquid mixture 1
Fixed: Pressure, kPa = 101.3
Property: Mole fraction of 1-methylimidazole (Liquid mixture 2); method: TITR:UFactor:2
Temperature, K	Mole fraction of 1-methylimidazole	uncertainty
285.2	0.9588	0.0013
287.51	0.9555	0.0014
289.86	0.9527	0.0015
294.62	0.9454	0.0017
299.53	0.9359	0.002
299.87	0.9354	0.002
304.94	0.92	0.0025
307.6	0.9097	0.0028
308.92	0.9036	0.003
313.83	0.8798	0.0037
314.1	0.8772	0.0038
314.79	0.8734	0.0039
315.69	0.8671	0.0041
317.79	0.8534	0.0045
318.84	0.8484	0.0047
321.62	0.8282	0.0053
323.74	0.814	0.0058
326.59	0.7936	0.0064
327.66	0.7822	0.0068
329.61	0.7686	0.0072
331.96	0.7461	0.0079
332.43	0.7386	0.0081
334.83	0.7148	0.0088
335.28	0.709	0.009
337.52	0.6762	0.01
337.63	0.675	0.0101
339.24	0.6433	0.0111
339.76	0.6329	0.0114
340.56	0.6138	0.012
340.79	0.6069	0.0122
341.18	0.596	0.0125
341.41	0.5871	0.0128
341.49	0.5852	0.0129
341.77	0.576	0.0132
342.17	0.5602	0.0137
342.28	0.5531	0.0139
342.44	0.5446	0.0142
342.53	0.5399	0.0143
342.76	0.5198	0.015
342.88	0.51	0.0153
342.99	0.4991	0.0156
343.15	0.4786	0.0151
343.25	0.4646	0.0148
343.33	0.454	0.0143
343.38	0.4262	0.014

System: 1-methylimidazole + dipentyl ether; phases: Liquid mixture 1, Liquid mixture 2
Fixed: Pressure, kPa = 101.3
Property: Mole fraction of 1-methylimidazole (Liquid mixture 1); method: TITR:UFactor:2
Temperature, K	Mole fraction of 1-methylimidazole	uncertainty
288.48	0.0299	0.0009
303.36	0.0396	0.0012
309.55	0.0447	0.0014
316.91	0.0524	0.0016
317.25	0.0551	0.0017
319.15	0.0562	0.0017
327.11	0.0663	0.0021
329.65	0.0694	0.0022
331.55	0.0737	0.0023
335.11	0.0803	0.0025
339.85	0.0884	0.0027
340.25	0.0905	0.0028
341.57	0.0923	0.0029
345.68	0.1055	0.0033
348.52	0.117	0.0036
348.77	0.1182	0.0037
350.05	0.1225	0.0038
351.59	0.1308	0.0041
354.1	0.146	0.0045
354.85	0.1525	0.0047
355.25	0.1549	0.0048
357.97	0.18	0.0056
358.15	0.1816	0.0056
359.35	0.1911	0.0059
360.05	0.2055	0.0064
360.55	0.214	0.0066
361.35	0.2296	0.0071
362.05	0.2506	0.0078
362.08	0.2505	0.0078
362.25	0.2596	0.0081
362.45	0.276	0.0088
362.55	0.2848	0.0091
362.62	0.2949	0.01
362.65	0.2977	0.0103
362.71	0.3061	0.0104
362.79	0.3198	0.0103
362.81	0.3232	0.0104
362.84	0.3365	0.0111
362.85	0.3543	0.0121
362.86	0.3679	0.0129

System: 1-methylimidazole + dipentyl ether; phases: Liquid mixture 2, Liquid mixture 1
Fixed: Pressure, kPa = 101.3
Property: Mole fraction of 1-methylimidazole (Liquid mixture 2); method: TITR:UFactor:2
Temperature, K	Mole fraction of 1-methylimidazole	uncertainty
288.48	0.966	0.0011
303.36	0.9408	0.0018
309.55	0.9144	0.0027
316.91	0.894	0.0033
317.25	0.8933	0.0033
319.15	0.881	0.0037
327.11	0.8474	0.0047
329.65	0.8352	0.0051
331.55	0.8236	0.0055
335.11	0.805	0.006
339.85	0.771	0.0071
340.25	0.7725	0.007
341.57	0.7662	0.0072
345.68	0.7371	0.0081
348.52	0.7076	0.0091
348.77	0.7081	0.009
350.05	0.6983	0.0093
351.59	0.6826	0.0098
354.1	0.663	0.0104
354.85	0.652	0.0108
355.25	0.6499	0.0108
357.97	0.602	0.0123
358.15	0.599	0.0124
359.35	0.5645	0.0135
360.05	0.546	0.0141
360.55	0.5293	0.0146
361.35	0.498	0.0154
362.05	0.4705	0.0146
362.08	0.4677	0.0145
362.25	0.462	0.0143
362.45	0.4506	0.0141
362.55	0.4392	0.0138
362.62	0.4287	0.0137
362.65	0.4245	0.0136
362.71	0.4167	0.0133
362.79	0.4047	0.0129
362.81	0.3985	0.0127
362.84	0.3905	0.0126
362.85	0.3856	0.0125
362.86	0.3814	0.0125
