Measured thermophysical data. Solubilities of CO2 in hydroxyl ammonium ionic  liquids at elevated pressures
Source: Fluid Phase Equilib., 2007, 10.1016/j.fluid.2007.01.031
Compound 1: 2-hydroxyethylammonium formate, C3H9NO3, InChI=1S/C2H7NO.CH2O2/c3-1-2-4;2-1-3/h4H,1-3H2;1H,(H,2,3)
Compound 2: 2-hydroxyethylammonium acetate, C4H11NO3, InChI=1S/C2H7NO.C2H4O2/c3-1-2-4;1-2(3)4/h4H,1-3H2;1H3,(H,3,4)
Compound 3: 2-hydroxyethylammonium lactate, C5H13NO4, InChI=1S/C3H6O3.C2H7NO/c1-2(4)3(5)6;3-1-2-4/h2,4H,1H3,(H,5,6);4H,1-3H2
Compound 4: triethanolammonium acetate, C8H19NO5, InChI=1S/C6H15NO3.C2H4O2/c8-4-1-7(2-5-9)3-6-10;1-2(3)4/h8-10H,1-6H2;1H3,(H,3,4)
Compound 5: triethanolamine lactate, C9H21NO6, InChI=1S/C6H15NO3.C3H6O3/c8-4-1-7(2-5-9)3-6-10;1-2(4)3(5)6/h8-10H,1-6H2;2,4H,1H3,(H,5,6)
Compound 6: 2-(2-hydroxyethoxy)ammonium formate, C5H13NO4, InChI=1S/C4H11NO2.CH2O2/c5-1-3-7-4-2-6;2-1-3/h6H,1-5H2;1H,(H,2,3)
Compound 7: 2-(2-aminoethoxy)ethanol acetate, C6H15NO4, InChI=1S/C4H11NO2.C2H4O2/c5-1-3-7-4-2-6;1-2(3)4/h6H,1-5H2;1H3,(H,3,4)
Compound 8: 2-(2-hydroxyethoxy)ammonium lactate, C7H17NO5, InChI=1S/C4H11NO2.C3H6O3/c5-1-3-7-4-2-6;1-2(4)3(5)6/h6H,1-5H2;2,4H,1H3,(H,5,6)
Compound 9: carbon dioxide, CO2, InChI=1S/CO2/c2-1-3

System: carbon dioxide + 2-hydroxyethylammonium formate; phases: Liquid, Gas
Property: Mole fraction of carbon dioxide (Liquid); method: Pressure change on dissolution
Temperature, K	Pressure, kPa	Mole fraction of carbon dioxide	uncertainty
303	1850	0.116	0.0116
303	440	0.034	0.0034
303	5540	0.2575	0.0259
303	1570	0.105	0.0105
303	2060	0.1279	0.0128
303	6940	0.2885	0.029
303	4050	0.2113	0.0212
313	1980	0.1001	0.01
313	510	0.0304	0.003
313	5860	0.2101	0.0211
313	1600	0.0831	0.0083
313	2220	0.1099	0.011
313	7460	0.2428	0.0244
313	8690	0.2468	0.0248
313	9090	0.2437	0.0244
313	4330	0.1796	0.018
323	2180	0.0895	0.009
323	590	0.0271	0.0027
323	6130	0.1914	0.0192
323	1630	0.0697	0.007
323	2420	0.0964	0.0097
323	7990	0.2136	0.0214
323	9530	0.2179	0.0218
323	10010	0.2189	0.0219
323	4550	0.1535	0.0154

System: carbon dioxide + 2-hydroxyethylammonium acetate; phases: Liquid, Gas
Property: Mole fraction of carbon dioxide (Liquid); method: Pressure change on dissolution
Temperature, K	Pressure, kPa	Mole fraction of carbon dioxide	uncertainty
303	2600	0.1789	0.0179
303	5670	0.2978	0.0299
303	1970	0.1413	0.0142
303	4250	0.2574	0.0258
303	890	0.0687	0.0069
313	8920	0.3107	0.0311
313	2640	0.1447	0.0145
313	7810	0.2952	0.0296
313	5870	0.2494	0.025
313	1980	0.1174	0.0118
313	4360	0.2162	0.0217
313	900	0.0565	0.0057
313	10030	0.3173	0.0318
323	9630	0.2597	0.026
323	2650	0.1156	0.0116
323	8020	0.239	0.024
323	6100	0.2086	0.0209
323	2010	0.0918	0.0092
323	4450	0.17	0.0171
323	920	0.0316	0.0032
323	10980	0.2787	0.0279

System: carbon dioxide + 2-hydroxyethylammonium lactate; phases: Liquid, Gas
Property: Mole fraction of carbon dioxide (Liquid); method: Pressure change on dissolution
Temperature, K	Pressure, kPa	Mole fraction of carbon dioxide	uncertainty
303	2520	0.1121	0.0113
303	6140	0.2078	0.021
303	780	0.041	0.0041
303	1890	0.0903	0.0091
303	3490	0.1447	0.0146
303	5270	0.1939	0.0196
313	2590	0.088	0.0088
313	9200	0.185	0.0187
313	7950	0.1789	0.018
313	6540	0.1693	0.0171
313	790	0.0308	0.0031
313	1920	0.0686	0.0069
313	3610	0.1136	0.0114
313	5490	0.1516	0.0153
323	2660	0.0747	0.0075
323	10090	0.1661	0.0167
323	8490	0.1642	0.0165
323	6910	0.1468	0.0148
323	810	0.026	0.0026
323	1940	0.0584	0.0059
323	3800	0.0989	0.0099
323	5710	0.1318	0.0133

System: carbon dioxide + triethanolammonium acetate; phases: Liquid, Gas
Property: Mole fraction of carbon dioxide (Liquid); method: Pressure change on dissolution
Temperature, K	Pressure, kPa	Mole fraction of carbon dioxide	uncertainty
303	2400	0.1096	0.011
303	5790	0.2044	0.0205
303	4720	0.1829	0.0183
303	3030	0.1326	0.0133
303	1030	0.0534	0.0054
303	1870	0.0913	0.0092
313	2520	0.0863	0.0086
313	6170	0.1646	0.0165
313	8340	0.1926	0.0193
313	9120	0.1947	0.0195
313	4900	0.1422	0.0143
313	3310	0.1056	0.0106
313	1060	0.0409	0.0041
313	1950	0.071	0.0071
323	2630	0.0778	0.0078
323	6570	0.1475	0.0148
323	9000	0.1749	0.0175
323	10120	0.1819	0.0182
323	5120	0.1262	0.0126
323	3460	0.096	0.0096
323	1100	0.0345	0.0035
323	2050	0.0614	0.0062

System: carbon dioxide + triethanolamine lactate; phases: Liquid, Gas
Property: Mole fraction of carbon dioxide (Liquid); method: Pressure change on dissolution
Temperature, K	Pressure, kPa	Mole fraction of carbon dioxide	uncertainty
303	1840	0.1811	0.0183
303	4840	0.3714	0.0383
303	5880	0.4115	0.0426
303	6760	0.451	0.0469
303	960	0.1006	0.0101
303	3450	0.3004	0.0307
303	7090	0.4617	0.048
313	1920	0.1604	0.0162
313	5200	0.3478	0.0358
313	6270	0.3892	0.0402
313	7310	0.4287	0.0445
313	1010	0.0932	0.0094
313	3700	0.2853	0.0291
313	7740	0.4383	0.0455
323	2040	0.1444	0.0146
323	5730	0.3187	0.0327
323	6870	0.3561	0.0367
323	7990	0.3893	0.0402
323	1070	0.0835	0.0084
323	4030	0.2481	0.0253
323	8470	0.4032	0.0417

System: carbon dioxide + 2-(2-hydroxyethoxy)ammonium formate; phases: Liquid, Gas
Property: Mole fraction of carbon dioxide (Liquid); method: Pressure change on dissolution
Temperature, K	Pressure, kPa	Mole fraction of carbon dioxide	uncertainty
303	2100	0.0863	0.0087
303	660	0.03	0.003
303	6480	0.1883	0.0189
303	3920	0.1367	0.0137
303	2850	0.1095	0.011
303	6020	0.1821	0.0183
313	2220	0.068	0.0068
313	720	0.0243	0.0024
313	7000	0.1491	0.015
313	4150	0.1107	0.0111
313	3030	0.0878	0.0088
313	6480	0.1463	0.0147
313	7920	0.1584	0.0159
323	2350	0.0569	0.0057
323	770	0.0202	0.002
323	7500	0.1282	0.0129
323	4400	0.0906	0.0091
323	3210	0.0715	0.0072
323	6900	0.128	0.0128
323	8520	0.1347	0.0135

System: carbon dioxide + 2-(2-aminoethoxy)ethanol acetate; phases: Liquid, Gas
Property: Mole fraction of carbon dioxide (Liquid); method: Pressure change on dissolution
Temperature, K	Pressure, kPa	Mole fraction of carbon dioxide	uncertainty
303	1500	0.1659	0.0166
303	5480	0.4431	0.0447
303	2350	0.2418	0.0243
303	6570	0.486	0.0491
303	4210	0.3736	0.0376
313	1560	0.142	0.0142
313	5660	0.3774	0.038
313	2480	0.2125	0.0213
313	7100	0.4255	0.0429
313	4310	0.3196	0.0321
323	1680	0.1307	0.0131
323	5880	0.3382	0.034
323	2600	0.1912	0.0192
323	7670	0.3948	0.0397
323	4500	0.2828	0.0284
303	5920	0.4567	0.0461
303	760	0.0889	0.0089
303	3000	0.2927	0.0294
313	6310	0.3987	0.0401
313	790	0.0758	0.0076
313	3220	0.2615	0.0262
323	6780	0.371	0.0373
323	830	0.068	0.0068
323	3470	0.2392	0.024

System: carbon dioxide + 2-(2-hydroxyethoxy)ammonium lactate; phases: Liquid, Gas
Property: Mole fraction of carbon dioxide (Liquid); method: Pressure change on dissolution
Temperature, K	Pressure, kPa	Mole fraction of carbon dioxide	uncertainty
303	2510	0.1311	0.0132
303	6770	0.2552	0.026
303	5650	0.2337	0.0237
303	1240	0.0704	0.0071
303	3470	0.169	0.0171
303	4660	0.2084	0.0211
313	2630	0.118	0.0119
313	7960	0.2369	0.024
313	7220	0.2335	0.0237
313	6020	0.2141	0.0217
313	1310	0.0649	0.0065
313	3640	0.1499	0.0151
313	4970	0.1864	0.0188
323	2720	0.1143	0.0115
323	8500	0.224	0.0227
323	7680	0.2147	0.0218
323	6380	0.1931	0.0195
323	1360	0.0559	0.0056
323	3780	0.1343	0.0135
323	5370	0.1716	0.0173
