Measured thermophysical data. Surface tension of four oxygenated fuels: experiment and correlation
Source: Fluid Phase Equilib., 2017, 10.1016/j.fluid.2017.08.016
Compound 1: 2-methoxyethan-1-ol, C3H8O2, InChI=1S/C3H8O2/c1-5-3-2-4/h4H,2-3H2,1H3, purity 99.7%
Compound 2: 2,5,8-trioxanonane, C6H14O3, InChI=1S/C6H14O3/c1-7-3-5-9-6-4-8-2/h3-6H2,1-2H3, purity 99.5%
Compound 3: 2-ethylhexyl acetate, C10H20O2, InChI=1S/C10H20O2/c1-4-6-7-10(5-2)8-12-9(3)11/h10H,4-8H2,1-3H3, purity 99%
Compound 4: diethyl butanedioate, C8H14O4, InChI=1S/C8H14O4/c1-3-11-7(9)5-6-8(10)12-4-2/h3-6H2,1-2H3, purity 99%
Compound 5: toluene, C7H8, InChI=1S/C7H8/c1-7-5-3-2-4-6-7/h2-6H,1H3, purity 99.5%

System: 2-methoxyethan-1-ol; phases: Liquid
Fixed: Pressure, kPa = 101.325
Property: Mass density, kg/m3 (Liquid); method: Vibrating tube method
Temperature, K	Mass density, kg/m3	uncertainty
303.15	956.73	1.92
308.15	952.09	1.91
313.15	947.42	1.9
318.15	942.72	1.89
323.15	937.98	1.88
328.15	933.21	1.87
333.15	928.39	1.86
338.15	923.54	1.85
343.15	918.64	1.84
348.15	913.69	1.83
353.15	908.7	1.82
358.15	903.65	1.81
363.15	898.55	1.8

System: 2-methoxyethan-1-ol; phases: Liquid
Fixed: Pressure, kPa = 101.325
Property: Mass density, kg/m3 (Liquid); method: Vibrating tube method
Temperature, K	Mass density, kg/m3	uncertainty
303.16	956.41	0.96
313.14	947.1	0.95
323.16	937.62	0.94
333.14	928.03	0.93
343.16	918.23	0.92
353.16	908.26	0.91
363.16	898.09	0.9
373.16	887.7	0.89
383.17	877.05	0.88
393.17	866.15	0.87

System: 2-methoxyethan-1-ol; phases: Liquid, Air at 1 atmosphere
Property: Surface tension liquid-gas, N/m (Liquid); method: Pendant drop shape
Temperature, K	Surface tension liquid-gas, N/m	uncertainty
303.16	0.03006	0.00078
313.14	0.02901	0.00075
323.16	0.02798	0.00072
333.14	0.0269	0.0007
343.16	0.02588	0.00067
353.16	0.0247	0.00064
363.16	0.0236	0.00062
373.16	0.02256	0.00059
383.17	0.02158	0.00056
393.17	0.02051	0.00054

System: 2,5,8-trioxanonane; phases: Liquid
Fixed: Pressure, kPa = 101.325
Property: Mass density, kg/m3 (Liquid); method: Vibrating tube method
Temperature, K	Mass density, kg/m3	uncertainty
303.15	933.98	1.87
308.15	928.95	1.86
313.15	923.97	1.85
318.15	918.94	1.84
323.15	913.9	1.83
328.15	908.84	1.82
333.15	903.76	1.81
338.15	898.67	1.8
343.15	893.55	1.79
348.15	888.41	1.78
353.15	883.24	1.77
358.15	878.04	1.76
363.15	872.81	1.75

System: 2,5,8-trioxanonane; phases: Liquid
Fixed: Pressure, kPa = 101.325
Property: Mass density, kg/m3 (Liquid); method: Vibrating tube method
Temperature, K	Mass density, kg/m3	uncertainty
303.16	933.65	0.94
313.16	923.61	0.93
323.17	913.51	0.92
333.15	903.38	0.91
343.15	893.13	0.9
353.16	882.79	0.89
363.14	872.36	0.88
373.14	861.79	0.87
383.16	851.06	0.86
393.15	840.22	0.85

System: 2,5,8-trioxanonane; phases: Liquid, Air at 1 atmosphere
Property: Surface tension liquid-gas, N/m (Liquid); method: Pendant drop shape
Temperature, K	Surface tension liquid-gas, N/m	uncertainty
303.16	0.02854	0.00074
313.16	0.02757	0.00072
323.17	0.02627	0.00068
333.15	0.02498	0.00065
343.15	0.02379	0.00062
353.16	0.02287	0.0006
363.14	0.02168	0.00057
373.14	0.02053	0.00054
383.16	0.01943	0.00051
393.15	0.01837	0.00049

System: 2-ethylhexyl acetate; phases: Liquid
Fixed: Pressure, kPa = 101.325
Property: Mass density, kg/m3 (Liquid); method: Vibrating tube method
Temperature, K	Mass density, kg/m3	uncertainty
303.15	863.51	1.74
308.15	859.15	1.73
313.15	854.77	1.72
318.15	850.39	1.71
323.15	846.01	1.71
328.15	841.61	1.7
333.15	837.2	1.69
338.15	832.78	1.68
343.15	828.35	1.67
348.15	823.91	1.66
353.15	819.45	1.65
358.15	814.98	1.65
363.15	810.49	1.64

System: 2-ethylhexyl acetate; phases: Liquid
Fixed: Pressure, kPa = 101.325
Property: Mass density, kg/m3 (Liquid); method: Vibrating tube method
Temperature, K	Mass density, kg/m3	uncertainty
303.17	863.56	0.89
313.16	854.84	0.88
323.16	846.08	0.87
333.15	837.29	0.87
343.15	828.44	0.86
353.16	819.54	0.85
363.15	810.59	0.84
373.15	801.56	0.83
383.15	792.46	0.82
393.16	783.27	0.82

System: 2-ethylhexyl acetate; phases: Liquid, Air at 1 atmosphere
Property: Surface tension liquid-gas, N/m (Liquid); method: Pendant drop shape
Temperature, K	Surface tension liquid-gas, N/m	uncertainty
303.17	0.02515	0.00066
313.16	0.02423	0.00064
323.16	0.02323	0.00062
333.15	0.02228	0.00059
343.15	0.02127	0.00057
353.16	0.02022	0.00054
363.15	0.01926	0.00052
373.15	0.01835	0.00049
383.15	0.01744	0.00047
393.16	0.01659	0.00045

System: diethyl butanedioate; phases: Liquid
Fixed: Pressure, kPa = 101.325
Property: Mass density, kg/m3 (Liquid); method: Vibrating tube method
Temperature, K	Mass density, kg/m3	uncertainty
303.15	1029.59	2.07
308.15	1024.4	2.06
313.15	1019.2	2.05
318.15	1014.01	2.04
323.15	1008.81	2.03
328.15	1003.6	2.02
333.15	998.39	2.01
338.15	993.16	2
343.15	987.93	1.99
348.15	982.7	1.98
353.15	977.45	1.97
358.15	972.19	1.96
363.15	966.91	1.95

System: diethyl butanedioate; phases: Liquid
Fixed: Pressure, kPa = 101.325
Property: Mass density, kg/m3 (Liquid); method: Vibrating tube method
Temperature, K	Mass density, kg/m3	uncertainty
303.16	1029.57	1.06
313.15	1019.2	1.05
323.15	1008.81	1.03
333.17	998.37	1.02
343.17	987.91	1.01
353.16	977.44	1
363.16	966.9	0.99
373.14	956.34	0.98
383.15	945.69	0.97
393.17	934.96	0.96

System: diethyl butanedioate; phases: Liquid, Air at 1 atmosphere
Property: Surface tension liquid-gas, N/m (Liquid); method: Pendant drop shape
Temperature, K	Surface tension liquid-gas, N/m	uncertainty
303.16	0.03062	0.0008
313.15	0.02955	0.00078
323.15	0.02842	0.00075
333.17	0.02741	0.00072
343.17	0.02633	0.00069
353.16	0.02512	0.00066
363.16	0.02402	0.00064
373.14	0.02295	0.00061
383.15	0.02196	0.00058
393.17	0.02103	0.00056

System: toluene; phases: Liquid, Air at 1 atmosphere
Property: Surface tension liquid-gas, N/m (Liquid); method: Pendant drop shape
Temperature, K	Surface tension liquid-gas, N/m	uncertainty
303.161	0.02715	0.00042
308.148	0.02651	0.00042
313.146	0.02598	0.00041
318.135	0.02542	0.0004
323.149	0.02489	0.00039
328.157	0.02434	0.00038
333.142	0.02365	0.00038
338.162	0.02308	0.00037
343.156	0.02255	0.00036
348.161	0.02198	0.00035
353.149	0.02145	0.00034
358.146	0.02092	0.00034
363.158	0.02037	0.00033
368.139	0.01986	0.00032
