Measured thermophysical data. Determination of the solubility, dissolution enthalpy and entropy of pyrene in different solvents
Source: Fluid Phase Equilib., 2012, 10.1016/j.fluid.2012.01.019
Compound 1: pyrene, C16H10, InChI=1S/C16H10/c1-3-11-7-9-13-5-2-6-14-10-8-12(4-1)15(11)16(13)14/h1-10H
Compound 2: methanol, CH4O, InChI=1S/CH4O/c1-2/h2H,1H3, purity 99.9%
Compound 3: propan-1-ol, C3H8O, InChI=1S/C3H8O/c1-2-3-4/h4H,2-3H2,1H3, purity 99.95%
Compound 4: propan-2-ol, C3H8O, InChI=1S/C3H8O/c1-3(2)4/h3-4H,1-2H3, purity 99.94%
Compound 5: ethanol, C2H6O, InChI=1S/C2H6O/c1-2-3/h3H,2H2,1H3, purity 99.93%
Compound 6: acetone, C3H6O, InChI=1S/C3H6O/c1-3(2)4/h1-2H3, purity 99.96%
Compound 7: toluene, C7H8, InChI=1S/C7H8/c1-7-5-3-2-4-6-7/h2-6H,1H3, purity 99.92%
Compound 8: ethyl acetate, C4H8O2, InChI=1S/C4H8O2/c1-3-6-4(2)5/h3H2,1-2H3, purity 99.98%
Compound 9: tetrahydrofuran, C4H8O, InChI=1S/C4H8O/c1-2-4-5-3-1/h1-4H2, purity 99.92%

System: acetone + pyrene; phases: Liquid, Crystal
Fixed: Pressure, kPa = 101
Property: Mole fraction of pyrene (Liquid); method: Density calibration data
Temperature, K	Mole fraction of pyrene	uncertainty
295.35	0.0303	0.0003
299.05	0.0332	0.0008
303.75	0.0382	0.0006
308.65	0.0436	0.0004
313.55	0.0502	0.001
318.45	0.0567	0.0009
323.35	0.0666	0.0011

System: pyrene + ethyl acetate; phases: Liquid, Crystal
Fixed: Pressure, kPa = 101
Property: Mole fraction of pyrene (Liquid); method: Density calibration data
Temperature, K	Mole fraction of pyrene	uncertainty
295.35	0.0366	0.0005
298.75	0.0398	0.0005
303.75	0.0456	0.0014
308.65	0.0514	0.0005
313.45	0.0582	0.001
318.45	0.0651	0.0021
323.35	0.0736	0.0015
328.15	0.0886	0.0007
333.15	0.1019	0.002

System: methanol + pyrene; phases: Liquid, Crystal
Fixed: Pressure, kPa = 101
Property: Mole fraction of pyrene (Liquid); method: Density calibration data
Temperature, K	Mole fraction of pyrene	uncertainty
293.95	0.00127	0.00014
298.35	0.00149	0.00019
303.85	0.0017	0.00014
308.65	0.00202	0.0001
313.35	0.00223	0.0001
318.35	0.00262	0.00019
323.35	0.00288	0.00029
328.15	0.00341	0.00033
333.15	0.00379	0.00029

System: propan-1-ol + pyrene; phases: Liquid, Crystal
Fixed: Pressure, kPa = 101
Property: Mole fraction of pyrene (Liquid); method: Density calibration data
Temperature, K	Mole fraction of pyrene	uncertainty
283.25	0.00268	0.0001
290.05	0.00342	0.00014
296.95	0.00404	0.00028
303.75	0.00499	0.00047
310.85	0.00607	0.00057
317.55	0.00761	0.00057
323.55	0.0093	0.00076
331.35	0.01179	0.00113

System: toluene + pyrene; phases: Liquid, Crystal
Fixed: Pressure, kPa = 101
Property: Mole fraction of pyrene (Liquid); method: Density calibration data
Temperature, K	Mole fraction of pyrene	uncertainty
295.35	0.0611	0.001
303.75	0.0757	0.0008
308.65	0.0866	0.001
313.55	0.095	0.0011
318.45	0.11	0.0009
323.35	0.122	0.0011
328.15	0.14	0.0012
333.15	0.1645	0.0015

System: tetrahydrofuran + pyrene; phases: Liquid, Crystal
Fixed: Pressure, kPa = 101
Property: Mole fraction of pyrene (Liquid); method: Density calibration data
Temperature, K	Mole fraction of pyrene	uncertainty
295.35	0.1347	0.001
298.75	0.1427	0.0021
303.75	0.1516	0.0018
308.65	0.1655	0.0018
313.45	0.1801	0.0014
318.45	0.1996	0.002
323.35	0.2136	0.0025
328.15	0.2332	0.003
333.15	0.2523	0.0035

System: ethanol + pyrene; phases: Liquid, Crystal
Fixed: Pressure, kPa = 101
Property: Mole fraction of pyrene (Liquid); method: Density calibration data
Temperature, K	Mole fraction of pyrene	uncertainty
295.55	0.00294	0.00014
298.85	0.00321	0.00014
303.75	0.00363	0.00028
308.75	0.00424	0.00024
313.55	0.00479	0.00029
318.45	0.00536	0.00024
323.45	0.00628	0.0005
328.15	0.0072	0.00052
333.15	0.0082	0.00057

System: propan-2-ol + pyrene; phases: Liquid, Crystal
Fixed: Pressure, kPa = 101
Property: Mole fraction of pyrene (Liquid); method: Density calibration data
Temperature, K	Mole fraction of pyrene	uncertainty
283.35	0.00201	0.00019
290.05	0.00242	0.00014
296.95	0.00292	0.00024
300.85	0.0035	0.00047
307.85	0.0042	0.00054
314.55	0.0053	0.00059
321.45	0.00667	0.00043
328.15	0.00835	0.00043
333.15	0.00989	0.00048
