Measured thermophysical data. Phase diagrams of binary systems containing n-alkanes, or cyclohexane, or 1-alkanols and 2,3-pentanedione at atmospheric and high pressure
Source: Fluid Phase Equilib., 2006, 10.1016/j.fluid.2006.02.001
Compound 1: 1-hexadecanol, C16H34O, InChI=1S/C16H34O/c1-2-3-4-5-6-7-8-9-10-11-12-13-14-15-16-17/h17H,2-16H2,1H3, purity 98%
Compound 2: 1-octadecanol, C18H38O, InChI=1S/C18H38O/c1-2-3-4-5-6-7-8-9-10-11-12-13-14-15-16-17-18-19/h19H,2-18H2,1H3, purity 98%
Compound 3: 1-eicosanol, C20H42O, InChI=1S/C20H42O/c1-2-3-4-5-6-7-8-9-10-11-12-13-14-15-16-17-18-19-20-21/h21H,2-20H2,1H3, purity 98%
Compound 4: tridecane, C13H28, InChI=1S/C13H28/c1-3-5-7-9-11-13-12-10-8-6-4-2/h3-13H2,1-2H3, purity 99%
Compound 5: cyclohexane, C6H12, InChI=1S/C6H12/c1-2-4-6-5-3-1/h1-6H2, purity 99.9%
Compound 6: 2,3-pentanedione, C5H8O2, InChI=1S/C5H8O2/c1-3-5(7)4(2)6/h3H2,1-2H3, purity 97%
Compound 7: hexadecane, C16H34, InChI=1S/C16H34/c1-3-5-7-9-11-13-15-16-14-12-10-8-6-4-2/h3-16H2,1-2H3, purity 99%
Compound 8: eicosane, C20H42, InChI=1S/C20H42/c1-3-5-7-9-11-13-15-17-19-20-18-16-14-12-10-8-6-4-2/h3-20H2,1-2H3, purity 99%

System: 1-hexadecanol; phases: Crystal 1, Liquid, Air at 1 atmosphere
Property: Normal melting temperature, K (Crystal 1); method: VISOBS
Normal melting temperature, K	uncertainty
322.2	0.5

System: 1-octadecanol; phases: Crystal 1, Liquid, Air at 1 atmosphere
Property: Normal melting temperature, K (Crystal 1); method: VISOBS
Normal melting temperature, K	uncertainty
330.15	0.5

System: 1-eicosanol; phases: Crystal 1, Liquid, Air at 1 atmosphere
Property: Normal melting temperature, K (Crystal 1); method: VISOBS
Normal melting temperature, K	uncertainty
337.67	0.5

System: tridecane; phases: Crystal, Liquid, Air at 1 atmosphere
Property: Normal melting temperature, K (Crystal); method: VISOBS
Normal melting temperature, K	uncertainty
269.01	0.35

System: tridecane; phases: Crystal, Liquid
Property: Solid-liquid equilibrium temperature, K (Crystal); method: Closed cell
Pressure, kPa	Solid-liquid equilibrium temperature, K	uncertainty
132350	293.15	0.9
196230	303.15	1.25
264630	313.15	1.55
337550	323.15	1.85
415000	333.15	2.13
496960	343.15	2.47

System: cyclohexane; phases: Crystal, Liquid, Air at 1 atmosphere
Property: Normal melting temperature, K (Crystal); method: VISOBS
Normal melting temperature, K	uncertainty
280.1	0.25

System: cyclohexane; phases: Crystal, Liquid
Property: Solid-liquid equilibrium temperature, K (Crystal); method: Closed cell
Pressure, kPa	Solid-liquid equilibrium temperature, K	uncertainty
23390	293.15	0.52
45610	303.15	0.89
67600	313.15	1.29
89340	323.15	1.69
110840	333.15	2.11
132100	343.15	2.52

System: 2,3-pentanedione; phases: Crystal, Liquid, Air at 1 atmosphere
Property: Molar enthalpy of transition or fusion, kJ/mol (Crystal); method: DSC
Molar enthalpy of transition or fusion, kJ/mol	uncertainty
7.8361	0.2346

System: 2,3-pentanedione; phases: Crystal 1, Liquid, Air at 1 atmosphere
Property: Normal melting temperature, K (Crystal 1); method: VISOBS
Normal melting temperature, K	uncertainty
221.15	0.5

System: 2,3-pentanedione; phases: Crystal, Liquid
Property: Solid-liquid equilibrium temperature, K (Crystal); method: Closed cell
Pressure, kPa	Solid-liquid equilibrium temperature, K	uncertainty
697870	293.15	2.59
807350	303.15	2.62
947230	313.15	2.49
1117520	323.15	2.46
1318200	333.15	2.5
1549280	343.15	2.75

System: hexadecane; phases: Crystal, Liquid, Air at 1 atmosphere
Property: Normal melting temperature, K (Crystal); method: VISOBS
Normal melting temperature, K	uncertainty
291.45	0.25

System: eicosane; phases: Crystal, Liquid, Air at 1 atmosphere
Property: Normal melting temperature, K (Crystal); method: VISOBS
Normal melting temperature, K	uncertainty
309.51	0.25

System: cyclohexane + 2,3-pentanedione; phases: Liquid, Crystal
Fixed: Pressure, kPa = 101
Property: Solid-liquid equilibrium temperature, K (Liquid); method: VISOBS:UFactor:2
Mole fraction of cyclohexane	Solid-liquid equilibrium temperature, K	uncertainty
0.0544	229.15	0.38
0.0701	231.67	0.38
0.1011	236.12	0.37
0.1144	237.99	0.37
0.1252	238.97	0.36
0.1414	240.97	0.36
0.1545	242.3	0.36
0.1712	243.89	0.36
0.1929	245.62	0.35
0.2168	247.32	0.35
0.2377	248.96	0.35
0.2578	250.36	0.35
0.2876	251.61	0.35
0.3073	252.16	0.35
0.3231	252.63	0.35
0.3394	253.1	0.35
0.3506	253.37	0.35
0.3667	253.68	0.35
0.3855	254.18	0.35
0.4032	254.64	0.35
0.4205	255.28	0.35
0.4392	255.6	0.35
0.4552	255.7	0.35
0.47	256.24	0.35
0.4865	256.54	0.35
0.505	256.81	0.35
0.5227	256.81	0.35
0.542	257.21	0.35
0.5596	257.46	0.35
0.579	257.57	0.35
0.6003	258.1	0.35
0.6269	258.11	0.35
0.6491	258.16	0.35
0.6729	258.76	0.35
0.6962	258.95	0.35
0.721	259.3	0.35
0.7441	259.77	0.35
0.774	260.25	0.35
0.793	260.96	0.35
0.8156	261.49	0.35
0.8365	262.12	0.35
0.8606	263.25	0.35
0.8785	264.49	0.35
0.9001	265.52	0.35
0.918	266.88	0.36
0.9362	269.46	0.37
0.9544	271.91	0.37
0.973	274.22	0.38
0.992	277.53	0.47
0.995	278.47	0.47
0.9965	279.15	0.47
1	280.1	0.35

System: cyclohexane + 2,3-pentanedione; phases: Liquid, Crystal
Property: Vapor or sublimation pressure, kPa (Liquid); method: Closed cell
Mole fraction of cyclohexane	Temperature, K	Vapor or sublimation pressure, kPa	uncertainty
0	293.15	697870	28220
0	303.15	807350	32640
0	313.15	947230	38310
0	323.15	1117520	45200
0	333.15	1318200	53310
0	343.15	1549280	62620
0.0844	293.15	304240	12520
0.0844	303.15	377550	15490
0.0844	313.15	464650	19020
0.0844	323.15	565540	23120
0.0844	333.15	680210	27800
0.0844	343.15	808660	33620
0.1822	293.15	266420	10820
0.1822	303.15	336810	13630
0.1822	313.15	407370	16450
0.1822	323.15	478090	19290
0.1822	333.15	548980	22150
0.1822	343.15	620040	25070
0.2609	293.15	228980	9310
0.2609	303.15	301490	12210
0.2609	313.15	372950	15060
0.2609	323.15	443380	17880
0.2609	333.15	512780	20650
0.2609	343.15	581140	23410
0.3406	293.15	203780	8300
0.3406	303.15	270090	10940
0.3406	313.15	339970	13730
0.3406	323.15	413420	16670
0.3406	333.15	490440	19760
0.3406	343.15	571040	22970
0.4235	293.15	173330	7060
0.4235	303.15	235000	9520
0.4235	313.15	300420	12140
0.4235	323.15	369600	14900
0.4235	333.15	442530	17820
0.4235	343.15	519210	20900
0.5003	293.15	156530	6370
0.5003	303.15	210950	8540
0.5003	313.15	270990	10940
0.5003	323.15	336630	13570
0.5003	333.15	407880	16430
0.5003	343.15	484750	19490
0.5291	293.15	152660	6210
0.5291	303.15	205580	8320
0.5291	313.15	262230	10580
0.5291	323.15	322590	13000
0.5291	333.15	386690	15570
0.5291	343.15	454500	18290
0.5805	293.15	142920	5810
0.5805	303.15	190580	7700
0.5805	313.15	241660	9750
0.5805	323.15	296170	11930
0.5805	333.15	354110	14250
0.5805	343.15	415480	16710
0.62	293.15	137420	5590
0.62	303.15	184480	7460
0.62	313.15	233440	9410
0.62	323.15	284290	11440
0.62	333.15	337040	13550
0.62	343.15	391690	15740
0.7401	293.15	118720	4830
0.7401	303.15	154570	6240
0.7401	313.15	192820	7770
0.7401	323.15	233450	9400
0.7401	333.15	276480	11120
0.7401	343.15	321890	12930
0.8988	293.15	71960	2960
0.8988	303.15	97300	3950
0.8988	313.15	124720	5040
0.8988	323.15	154240	6220
0.8988	333.15	185840	7490
0.8988	343.15	219530	8830
0.9798	293.15	38520	1770
0.9798	303.15	61280	2610
0.9798	313.15	84210	3500
0.9798	323.15	107310	4410
0.9798	333.15	130590	5340
0.9798	343.15	154050	6280
1	293.15	23390	1040
1	303.15	45610	1880
1	313.15	67600	2740
1	323.15	89340	3600
1	333.15	110840	4450
1	343.15	132100	5300

System: 2,3-pentanedione + 1-hexadecanol; phases: Liquid, Crystal 1
Fixed: Pressure, kPa = 101
Property: Solid-liquid equilibrium temperature, K (Liquid); method: VISOBS:UFactor:2
Mole fraction of 1-hexadecanol	Solid-liquid equilibrium temperature, K	uncertainty
0.9741	321.46	0.35
0.9836	321.74	0.35
0.9879	321.79	0.35
1	322.2	0.35

System: 2,3-pentanedione + 1-hexadecanol; phases: Liquid, Crystal 2
Fixed: Pressure, kPa = 101
Property: Solid-liquid equilibrium temperature, K (Liquid); method: VISOBS:UFactor:2
Mole fraction of 1-hexadecanol	Solid-liquid equilibrium temperature, K	uncertainty
0.5575	313.18	0.35
0.5749	313.6	0.35
0.5954	314.35	0.35
0.6228	315.09	0.35
0.6436	315.6	0.35
0.668	316.1	0.35
0.6906	316.65	0.35
0.7096	317.04	0.35
0.7307	317.62	0.35
0.7502	318.05	0.35
0.7774	318.56	0.35
0.7966	319.07	0.35
0.8061	319.27	0.35
0.8365	319.77	0.35
0.86	320.07	0.35
0.8854	320.58	0.35
0.9167	320.88	0.35
0.9511	321.29	0.35

System: 2,3-pentanedione + 1-hexadecanol; phases: Liquid, Crystal 3
Fixed: Pressure, kPa = 101
Property: Solid-liquid equilibrium temperature, K (Liquid); method: VISOBS:UFactor:2
Mole fraction of 1-hexadecanol	Solid-liquid equilibrium temperature, K	uncertainty
0.0127	293.4	0.35
0.0437	295.48	0.35
0.1044	299.13	0.35
0.1348	300.71	0.35
0.1735	302.27	0.35
0.2004	304.2	0.35
0.2541	306.12	0.35
0.2981	307.62	0.35
0.3215	308.72	0.35
0.3639	310.11	0.35
0.3967	311	0.35
0.4265	311.75	0.35
0.4654	312.41	0.35
0.502	312.85	0.35
0.5355	313	0.35

System: 1-octadecanol + 2,3-pentanedione; phases: Liquid, Crystal 1
Fixed: Pressure, kPa = 101
Property: Solid-liquid equilibrium temperature, K (Liquid); method: VISOBS:UFactor:2
Mole fraction of 1-octadecanol	Solid-liquid equilibrium temperature, K	uncertainty
0.9088	329.15	0.35
0.9274	329.65	0.35
0.9322	329.75	0.35
0.9622	330.1	0.35
1	330.15	0.35

System: 1-octadecanol + 2,3-pentanedione; phases: Liquid, Crystal 2
Fixed: Pressure, kPa = 101
Property: Solid-liquid equilibrium temperature, K (Liquid); method: VISOBS:UFactor:2
Mole fraction of 1-octadecanol	Solid-liquid equilibrium temperature, K	uncertainty
0.4173	317.67	0.35
0.4459	318.28	0.35
0.4653	318.7	0.35
0.4898	319.33	0.35
0.4972	319.71	0.35
0.5119	319.91	0.35
0.5327	320.48	0.35
0.5433	320.68	0.35
0.5604	320.85	0.35
0.5826	321.39	0.35
0.6046	321.88	0.35
0.6544	323.15	0.35
0.6831	323.79	0.35
0.7136	324.6	0.35
0.7494	325.22	0.35
0.8024	326.27	0.35
0.8501	327.39	0.35
0.8868	328.65	0.35

System: 1-octadecanol + 2,3-pentanedione; phases: Liquid, Crystal 3
Fixed: Pressure, kPa = 101
Property: Solid-liquid equilibrium temperature, K (Liquid); method: VISOBS:UFactor:2
Mole fraction of 1-octadecanol	Solid-liquid equilibrium temperature, K	uncertainty
0.0126	304.9	0.38
0.0191	305.89	0.36
0.0308	306.65	0.35
0.043	307.71	0.35
0.0664	308.86	0.35
0.1004	310.57	0.35
0.1191	311.61	0.35
0.1429	312.53	0.35
0.1631	313.35	0.35
0.2015	314.67	0.35
0.2383	315.4	0.35
0.2719	316.15	0.35
0.2947	316.4	0.35
0.3228	316.6	0.35
0.3442	316.85	0.35
0.3677	317.15	0.35
0.4015	317.48	0.35

System: 2,3-pentanedione + 1-eicosanol; phases: Liquid, Crystal 2
Fixed: Pressure, kPa = 101
Property: Solid-liquid equilibrium temperature, K (Liquid); method: VISOBS:UFactor:2
Mole fraction of 1-eicosanol	Solid-liquid equilibrium temperature, K	uncertainty
0.2126	319.83	0.35
0.2285	320.24	0.35
0.2505	321.04	0.35
0.2752	321.67	0.35
0.2994	322.46	0.35
0.3198	323.18	0.35
0.3469	323.74	0.35
0.3662	324.44	0.35
0.3839	324.72	0.35
0.4341	325.95	0.35
0.4662	326.64	0.35
0.4804	327.13	0.35
0.5111	327.55	0.35
0.5331	328.36	0.35
0.5698	328.9	0.35
0.6188	330.15	0.35
0.6598	331.1	0.35
0.71	332.07	0.35
0.7698	332.96	0.35
0.7914	333.26	0.35
0.8265	333.8	0.35
0.8751	334.35	0.35

System: 2,3-pentanedione + 1-eicosanol; phases: Liquid, Crystal 3
Fixed: Pressure, kPa = 101
Property: Solid-liquid equilibrium temperature, K (Liquid); method: VISOBS:UFactor:2
Mole fraction of 1-eicosanol	Solid-liquid equilibrium temperature, K	uncertainty
0.0068	303.3	0.43
0.0349	310.3	0.4
0.0553	312.46	0.36
0.0595	312.92	0.36
0.0879	314.81	0.35
0.1027	315.63	0.35
0.1228	316.74	0.35
0.1473	318.04	0.35
0.1833	319.39	0.35
0.2002	319.63	0.35

System: 2,3-pentanedione + 1-eicosanol; phases: Liquid, Crystal 1
Fixed: Pressure, kPa = 101
Property: Solid-liquid equilibrium temperature, K (Liquid); method: VISOBS:UFactor:2
Mole fraction of 1-eicosanol	Solid-liquid equilibrium temperature, K	uncertainty
0.9174	334.64	0.35
0.9465	335.96	0.35
1	337.67	0.35

System: 2,3-pentanedione + tridecane; phases: Liquid, Crystal
Fixed: Pressure, kPa = 101
Property: Solid-liquid equilibrium temperature, K (Liquid); method: VISOBS
Mole fraction of tridecane	Solid-liquid equilibrium temperature, K	uncertainty
0.0105	255.26	0.37
0.0438	259.35	0.37
0.6022	264.12	0.35
0.6383	264.75	0.35
0.6761	265.39	0.35
0.7217	266.08	0.35
0.7639	266.48	0.35
0.8194	267.02	0.35
0.8769	267.57	0.35
0.9335	268.26	0.35
0.9828	268.8	0.35
1	269.01	0.35

System: 2,3-pentanedione + tridecane; phases: Liquid mixture 1, Liquid mixture 2
Fixed: Pressure, kPa = 101
Property: Liquid-liquid equilibrium temperature, K (Liquid mixture 1); method: VISOBS:UFactor:6
Mole fraction of tridecane	Liquid-liquid equilibrium temperature, K	uncertainty
0.0897	264.87	0.94
0.1477	274.35	0.94
0.1826	280.24	0.94
0.228	283.6	0.93
0.2439	285.19	0.93
0.3037	287.13	0.93
0.3432	287.52	0.93
0.3736	286.12	0.93
0.4089	283.53	0.93
0.4501	281.35	0.93
0.488	278.21	0.94
0.5306	273.15	0.94
0.57	267.07	0.94

System: 2,3-pentanedione + tridecane; phases: Liquid, Crystal 1
Property: Vapor or sublimation pressure, kPa (Liquid); method: Closed cell
Mole fraction of tridecane	Temperature, K	Vapor or sublimation pressure, kPa	uncertainty
0	293.15	697870	28220
0	303.15	807350	32640
0	313.15	947230	38310
0	323.15	1117520	45200
0	333.15	1318200	53310
0	343.15	1549280	62620
0.0488	293.15	195790	9670
0.0488	303.15	263250	12110
0.0488	313.15	334070	14960
0.0488	323.15	408260	18080
0.0488	333.15	485810	21430
0.0488	343.15	566720	26270
0.0985	293.15	180670	7400
0.0985	303.15	246930	10050
0.0985	313.15	317220	12870
0.0985	323.15	391540	15860
0.0985	333.15	469870	19010
0.0985	343.15	552240	22330
0.1883	293.15	162290	6650
0.1883	303.15	226320	9220
0.1883	313.15	295190	11990
0.1883	323.15	368900	14950
0.1883	333.15	447440	18110
0.1883	343.15	530830	21470
0.286	293.15	156980	6450
0.286	303.15	219970	8960
0.286	313.15	287880	11690
0.286	323.15	360700	14620
0.286	333.15	438450	17750
0.286	343.15	521110	21070
0.3972	293.15	154340	6350
0.3972	303.15	217040	8850
0.3972	313.15	284500	11550
0.3972	323.15	356700	14460
0.3972	333.15	433660	17550
0.3972	343.15	515370	20840
0.491	293.15	152520	6280
0.491	303.15	215380	8780
0.491	313.15	282760	11480
0.491	323.15	354670	14370
0.491	333.15	431120	17450
0.491	343.15	512100	20710
0.567	293.15	150530	6200
0.567	303.15	213870	8720
0.567	313.15	281520	11430
0.567	323.15	353470	14330
0.567	333.15	429730	17390
0.567	343.15	510290	20630
0.6398	293.15	148280	6110
0.6398	303.15	211880	8640
0.6398	313.15	279710	11360
0.6398	323.15	351740	14260
0.6398	333.15	428000	17320
0.6398	343.15	508470	20560
0.6995	293.15	146460	6040
0.6995	303.15	210070	8570
0.6995	313.15	277920	11290
0.6995	323.15	350010	14190
0.6995	333.15	426340	17260
0.6995	343.15	506910	20500
0.7711	293.15	143630	5930
0.7711	303.15	207690	8480
0.7711	313.15	275860	11210
0.7711	323.15	348140	14110
0.7711	333.15	424520	17180
0.7711	343.15	505010	20420
0.877	293.15	139440	5770
0.877	303.15	203560	8310
0.877	313.15	271850	11050
0.877	323.15	344320	13960
0.877	333.15	420970	17040
0.877	343.15	501790	20290
0.9674	293.15	134840	5590
0.9674	303.15	198700	8120
0.9674	313.15	266980	10850
0.9674	323.15	339710	13780
0.9674	333.15	416870	16880
0.9674	343.15	498460	20160
1	293.15	132350	5490
1	303.15	196230	8020
1	313.15	264630	10760
1	323.15	337550	13690
1	333.15	415000	16800
1	343.15	496960	20100

System: hexadecane + 2,3-pentanedione; phases: Liquid, Crystal
Fixed: Pressure, kPa = 101
Property: Solid-liquid equilibrium temperature, K (Liquid); method: VISOBS
Mole fraction of hexadecane	Solid-liquid equilibrium temperature, K	uncertainty
0.0012	285.2	0.28
0.0215	288	0.26
0.0486	288.68	0.25
0.6635	289.28	0.25
0.6826	289.4	0.25
0.7069	289.69	0.25
0.7458	290.03	0.25
0.758	290.14	0.25
0.7861	290.3	0.25
0.7992	290.36	0.25
0.8024	290.39	0.25
0.8109	290.41	0.25
0.8247	290.48	0.25
0.8423	290.58	0.25
0.8582	290.62	0.25
0.8743	290.69	0.25
0.8835	290.74	0.25
0.9098	290.9	0.25
0.9348	291.06	0.25
0.9355	291.06	0.25
0.9781	291.36	0.25
0.9806	291.36	0.25
1	291.45	0.25

System: hexadecane + 2,3-pentanedione; phases: Liquid mixture 1, Liquid mixture 2
Fixed: Pressure, kPa = 101
Property: Liquid-liquid equilibrium temperature, K (Liquid mixture 1); method: VISOBS:UFactor:6
Mole fraction of hexadecane	Liquid-liquid equilibrium temperature, K	uncertainty
0.0958	289.67	0.93
0.1102	291.12	0.94
0.1435	296.25	0.94
0.1873	302.4	0.94
0.2471	309.75	0.93
0.2619	310.73	0.93
0.2809	311.35	0.93
0.3239	311.37	0.93
0.3377	311.37	0.93
0.3782	310.6	0.93
0.425	309.32	0.93
0.4811	307.13	0.93
0.5523	303.32	0.93
0.5895	299.26	0.94
0.6105	294.98	0.95
0.6369	289.84	0.95

System: eicosane + 2,3-pentanedione; phases: Liquid mixture 1, Liquid mixture 2
Fixed: Pressure, kPa = 101
Property: Liquid-liquid equilibrium temperature, K (Liquid mixture 1); method: VISOBS:UFactor:4
Mole fraction of eicosane	Liquid-liquid equilibrium temperature, K	uncertainty
0.1665	305.8	0.63
0.1666	306.48	0.62
0.1922	308.53	0.62
0.2168	310.11	0.62
0.2387	310.84	0.62
0.2629	311.61	0.62
0.2956	312.34	0.62
0.3286	312.8	0.62
0.3653	312.73	0.62
0.4041	312.27	0.62
0.4526	311.57	0.62
0.5105	309.92	0.62
0.5462	306.82	0.63

System: eicosane + 2,3-pentanedione; phases: Liquid, Crystal
Fixed: Pressure, kPa = 101
Property: Solid-liquid equilibrium temperature, K (Liquid); method: VISOBS
Mole fraction of eicosane	Solid-liquid equilibrium temperature, K	uncertainty
0.0599	305.66	0.25
0.0772	305.76	0.25
0.0943	305.8	0.25
0.1121	305.83	0.25
0.1371	305.83	0.25
0.6021	306.31	0.25
0.6247	306.48	0.25
0.6469	306.64	0.25
0.687	306.85	0.25
0.7134	307.11	0.25
0.7564	307.41	0.25
0.7663	307.52	0.25
0.7945	307.85	0.25
0.8376	308.25	0.25
0.8874	308.73	0.25
0.9286	308.99	0.25
0.9401	309.08	0.25
0.9757	309.29	0.25
1	309.51	0.25
