Measured thermophysical data. Diffusion coefficients of metal acetylacetonates in supercritical carbon dioxide
Source: Fluid Phase Equilib., 2010, 10.1016/j.fluid.2010.02.036
Compound 1: palladium bis(2,4-pentanedionate), C10H14O4Pd, InChI=1S/2C5H7O2.Pd/c2*1-4(6)3-5(2)7;/h2*3H,1-2H3;/q2*-1;+2
Compound 2: cobalt tris(acetylacetonate), C15H21CoO6, InChI=1S/3C5H8O2.Co/c3*1-4(6)3-5(2)7;/h3*3,6H,1-2H3;/q;;;+3/p-3/b3*4-3-;
Compound 3: carbon dioxide, CO2, InChI=1S/CO2/c2-1-3, purity 99.99%

System: carbon dioxide + palladium bis(2,4-pentanedionate); phases: Gas, Crystal
Property: Binary diffusion coefficient, m2/s (Gas); method: Chromatographic impulse response method
Temperature, K	Pressure, kPa	Binary diffusion coefficient, m2/s	uncertainty
308.15	8500	1.136e-08	1.14
308.15	9000	1.033e-08	1.03
308.15	9500	9.77e-09	0.98
308.15	10000	9.4e-09	0.94
308.15	11000	9.01e-09	0.9
308.15	12000	8.58e-09	0.86
308.15	15000	7.86e-09	0.79
308.15	16000	7.66e-09	0.77
308.15	20000	7.07e-09	0.71
308.15	25000	6.66e-09	0.67
308.15	30000	6.13e-09	0.61
308.15	35000	5.78e-09	0.58
308.15	40000	5.61e-09	0.56
308.15	8500	1.13e-08	1.13
308.15	9000	1.022e-08	1.02
308.15	10000	9.49e-09	0.95
308.15	15000	7.82e-09	0.78
308.15	25000	6.6e-09	0.66
308.15	40000	5.51e-09	0.55
308.15	8500	1.123e-08	1.12
313.15	9500	1.173e-08	1.17
313.15	9700	1.154e-08	1.15
313.15	10000	1.089e-08	1.09
313.15	11000	9.71e-09	0.97
313.15	12000	9.33e-09	0.93
313.15	13000	9.02e-09	0.9
313.15	14000	8.81e-09	0.88
313.15	15000	8.47e-09	0.85
313.15	16000	8.28e-09	0.83
313.15	17000	8.01e-09	0.8
313.15	18000	7.74e-09	0.77
313.15	19000	7.55e-09	0.76
313.15	20000	7.5e-09	0.75
313.15	21000	7.42e-09	0.74
313.15	22000	7.22e-09	0.72
313.15	24000	7.01e-09	0.7
313.15	25000	6.89e-09	0.69
313.15	30000	6.48e-09	0.65
313.15	35000	6.1e-09	0.61
313.15	40000	5.89e-09	0.59
313.15	9500	1.19e-08	1.19
313.15	9700	1.133e-08	1.13
313.15	10000	1.097e-08	1.1
313.15	11000	1.001e-08	1
313.15	15000	8.52e-09	0.85
313.15	17000	7.95e-09	0.8
313.15	18000	7.77e-09	0.78
313.15	21000	7.26e-09	0.73
313.15	24000	6.91e-09	0.69
313.15	30000	6.38e-09	0.64
313.15	35000	6.07e-09	0.61
313.15	40000	5.82e-09	0.58
313.15	9700	1.12e-08	1.12
313.15	11000	9.95e-09	1
313.15	15000	8.45e-09	0.85
313.15	21000	7.33e-09	0.73
313.15	15000	8.43e-09	0.84
313.15	15000	8.41e-09	0.84
323.15	12000	1.271e-08	1.27
323.15	13000	1.15e-08	1.15
323.15	15000	1.025e-08	1.03
323.15	20000	8.81e-09	0.88
323.15	25000	7.99e-09	0.8
323.15	30000	7.44e-09	0.74
323.15	35000	7.04e-09	0.7
323.15	40000	6.58e-09	0.66
323.15	13000	1.165e-08	1.17
323.15	15000	1.02e-08	1.02
323.15	20000	8.9e-09	0.89
323.15	40000	6.67e-09	0.67
333.15	14000	1.403e-08	1.4
333.15	15000	1.272e-08	1.27
333.15	16000	1.217e-08	1.22
333.15	17000	1.154e-08	1.15
333.15	17500	1.127e-08	1.13
333.15	18000	1.123e-08	1.12
333.15	20000	1.038e-08	1.04
333.15	22000	9.91e-09	0.99
333.15	23000	9.64e-09	0.96
333.15	24000	9.5e-09	0.95
333.15	25000	9.27e-09	0.93
333.15	30000	8.66e-09	0.87
333.15	35000	8e-09	0.8
333.15	40000	7.46e-09	0.75
333.15	14000	1.346e-08	1.35
333.15	15000	1.286e-08	1.29
333.15	17000	1.159e-08	1.16
333.15	17500	1.13e-08	1.13
333.15	20000	1.055e-08	1.06
333.15	22000	9.89e-09	0.99
333.15	23000	9.8e-09	0.98
333.15	24000	9.63e-09	0.96
333.15	25000	9.2e-09	0.92
333.15	35000	8.06e-09	0.81
333.15	40000	7.7e-09	0.77
333.15	15000	1.276e-08	1.28
333.15	17500	1.138e-08	1.14
333.15	20000	1.045e-08	1.05
333.15	22000	9.85e-09	0.99
333.15	15000	1.333e-08	1.33
333.15	20000	1.043e-08	1.04
333.15	22000	1.004e-08	1
333.15	15000	1.293e-08	1.29
333.15	20000	1.048e-08	1.05
333.15	20000	1.053e-08	1.05
333.15	20000	1.055e-08	1.06
333.15	20000	1.068e-08	1.07
343.15	17000	1.369e-08	1.37
343.15	20000	1.225e-08	1.23
343.15	25000	1.05e-08	1.05
343.15	30000	9.58e-09	0.96
343.15	35000	8.95e-09	0.9
343.15	40000	8.46e-09	0.85
343.15	17000	1.362e-08	1.36
343.15	20000	1.211e-08	1.21
343.15	25000	1.063e-08	1.06
343.15	30000	9.61e-09	0.96
343.15	35000	8.91e-09	0.89
343.15	17000	1.354e-08	1.35
343.15	25000	1.085e-08	1.09
343.15	30000	9.7e-09	0.97
343.15	35000	8.98e-09	0.9
343.15	17000	1.378e-08	1.38
343.15	25000	1.057e-08	1.06
343.15	25000	1.065e-08	1.07

System: carbon dioxide + cobalt tris(acetylacetonate); phases: Gas, Crystal
Property: Binary diffusion coefficient, m2/s (Gas); method: Chromatographic impulse response method
Temperature, K	Pressure, kPa	Binary diffusion coefficient, m2/s	uncertainty
313.15	9700	1.037e-08	1.04
313.15	10000	9.8e-09	0.98
313.15	11000	8.77e-09	0.88
313.15	13000	7.7e-09	0.77
313.15	18000	6.86e-09	0.69
313.15	20000	6.54e-09	0.65
313.15	25000	6.04e-09	0.6
313.15	30000	5.71e-09	0.57
313.15	40000	5.01e-09	0.5
313.15	9700	9.98e-09	1
313.15	10000	9.66e-09	0.97
313.15	11000	8.88e-09	0.89
313.15	13000	7.64e-09	0.76
313.15	20000	6.58e-09	0.66
313.15	25000	5.82e-09	0.58
313.15	30000	5.52e-09	0.55
313.15	40000	5.11e-09	0.51
313.15	11000	8.74e-09	0.87
313.15	13000	7.86e-09	0.79
313.15	25000	5.87e-09	0.59
313.15	30000	5.67e-09	0.57
313.15	11000	8.7e-09	0.87
313.15	13000	7.85e-09	0.79
333.15	15000	1.058e-08	1.06
333.15	18000	9.44e-09	0.94
333.15	20000	8.66e-09	0.87
333.15	25000	7.61e-09	0.76
333.15	30000	6.9e-09	0.69
333.15	40000	6.15e-09	0.62
333.15	20000	8.77e-09	0.88
333.15	25000	7.65e-09	0.77
333.15	30000	6.89e-09	0.69
333.15	40000	6.32e-09	0.63
333.15	25000	7.85e-09	0.79
333.15	30000	7.03e-09	0.7
333.15	25000	7.77e-09	0.78
333.15	30000	6.89e-09	0.69
333.15	30000	7e-09	0.7
