Measured thermophysical data. Solubility and mixing thermodynamic properties of (2,4,6-trimethylbenzoyl) diphenylphosphine oxide in pure and binary solvents
Source: Fluid Phase Equilib., 2018, 10.1016/j.fluid.2018.01.015
Compound 1: methanol, CH4O, InChI=1S/CH4O/c1-2/h2H,1H3, purity 99.5%
Compound 2: ethanol, C2H6O, InChI=1S/C2H6O/c1-2-3/h3H,2H2,1H3, purity 99.5%
Compound 3: acetone, C3H6O, InChI=1S/C3H6O/c1-3(2)4/h1-2H3, purity 99.5%
Compound 4: propan-1-ol, C3H8O, InChI=1S/C3H8O/c1-2-3-4/h4H,2-3H2,1H3, purity 99.5%
Compound 5: propan-2-ol, C3H8O, InChI=1S/C3H8O/c1-3(2)4/h3-4H,1-2H3, purity 99.5%
Compound 6: butan-1-ol, C4H10O, InChI=1S/C4H10O/c1-2-3-4-5/h5H,2-4H2,1H3, purity 99.5%
Compound 7: 2-methyl-1-propanol, C4H10O, InChI=1S/C4H10O/c1-4(2)3-5/h4-5H,3H2,1-2H3, purity 99.5%
Compound 8: acetonitrile, C2H3N, InChI=1S/C2H3N/c1-2-3/h1H3, purity 99.5%
Compound 9: methyl ethanoate, C3H6O2, InChI=1S/C3H6O2/c1-3(4)5-2/h1-2H3, purity 99.5%
Compound 10: ethyl acetate, C4H8O2, InChI=1S/C4H8O2/c1-3-6-4(2)5/h3H2,1-2H3, purity 99.5%
Compound 11: (2,4,6-trimethylbenzoyl) diphenylphosphine oxide, C22H21O2P, InChI=1S/C22H21O2P/c1-16-14-17(2)21(18(3)15-16)22(23)25(24,19-10-6-4-7-11-19)20-12-8-5-9-13-20/h4-15H,1-3H3, purity 99%

System: (2,4,6-trimethylbenzoyl) diphenylphosphine oxide; phases: Crystal, Liquid, Air at 1 atmosphere
Property: Normal melting temperature, K (Crystal); method: DTA
Normal melting temperature, K	uncertainty
365.81	0.39

System: (2,4,6-trimethylbenzoyl) diphenylphosphine oxide; phases: Crystal, Liquid, Air at 1 atmosphere
Property: Molar enthalpy of transition or fusion, kJ/mol (Crystal); method: DSC
Molar enthalpy of transition or fusion, kJ/mol	uncertainty
25.21	0.72

System: (2,4,6-trimethylbenzoyl) diphenylphosphine oxide + methanol; phases: Liquid, Crystal
Fixed: Pressure, kPa = 101
Property: Mole fraction of (2,4,6-trimethylbenzoyl) diphenylphosphine oxide (Liquid); method: gravimetric
Temperature, K	Mole fraction of (2,4,6-trimethylbenzoyl) diphenylphosphine oxide	uncertainty
273.15	0.1097	0.0008
278.15	0.1253	0.0009
283.15	0.1449	0.0012
288.15	0.1719	0.0013
293.15	0.1947	0.0015
298.15	0.2333	0.0019
303.15	0.2718	0.0018
308.15	0.2978	0.0017

System: (2,4,6-trimethylbenzoyl) diphenylphosphine oxide + ethanol; phases: Liquid, Crystal
Fixed: Pressure, kPa = 101
Property: Mole fraction of (2,4,6-trimethylbenzoyl) diphenylphosphine oxide (Liquid); method: gravimetric
Temperature, K	Mole fraction of (2,4,6-trimethylbenzoyl) diphenylphosphine oxide	uncertainty
273.15	0.07606	0.00065
278.15	0.08948	0.00075
283.15	0.1071	0.001
288.15	0.1298	0.0011
293.15	0.1542	0.0013
298.15	0.1843	0.0015
303.15	0.2178	0.0019
308.15	0.2658	0.0023

System: (2,4,6-trimethylbenzoyl) diphenylphosphine oxide + acetone; phases: Liquid, Crystal
Fixed: Pressure, kPa = 101
Property: Mole fraction of (2,4,6-trimethylbenzoyl) diphenylphosphine oxide (Liquid); method: gravimetric
Temperature, K	Mole fraction of (2,4,6-trimethylbenzoyl) diphenylphosphine oxide	uncertainty
273.15	0.06853	0.00071
278.15	0.08443	0.00077
283.15	0.1014	0.0009
288.15	0.1201	0.001
293.15	0.1434	0.0012
298.15	0.1688	0.0013
303.15	0.1968	0.0016
308.15	0.2317	0.0018

System: (2,4,6-trimethylbenzoyl) diphenylphosphine oxide + propan-1-ol; phases: Liquid, Crystal
Fixed: Pressure, kPa = 101
Property: Mole fraction of (2,4,6-trimethylbenzoyl) diphenylphosphine oxide (Liquid); method: gravimetric
Temperature, K	Mole fraction of (2,4,6-trimethylbenzoyl) diphenylphosphine oxide	uncertainty
273.15	0.08269	0.00074
278.15	0.09833	0.00084
283.15	0.1179	0.001
288.15	0.1394	0.0012
293.15	0.1681	0.0014
298.15	0.1956	0.0015
303.15	0.2262	0.0017
308.15	0.2624	0.0019

System: (2,4,6-trimethylbenzoyl) diphenylphosphine oxide + propan-2-ol; phases: Liquid, Crystal
Fixed: Pressure, kPa = 101
Property: Mole fraction of (2,4,6-trimethylbenzoyl) diphenylphosphine oxide (Liquid); method: gravimetric
Temperature, K	Mole fraction of (2,4,6-trimethylbenzoyl) diphenylphosphine oxide	uncertainty
273.15	0.02616	0.00044
278.15	0.03661	0.00059
283.15	0.05438	0.00082
288.15	0.07548	0.00116
293.15	0.1097	0.0017
298.15	0.1581	0.0021
303.15	0.2103	0.0026
308.15	0.276	0.0029

System: (2,4,6-trimethylbenzoyl) diphenylphosphine oxide + butan-1-ol; phases: Liquid, Crystal
Fixed: Pressure, kPa = 101
Property: Mole fraction of (2,4,6-trimethylbenzoyl) diphenylphosphine oxide (Liquid); method: gravimetric
Temperature, K	Mole fraction of (2,4,6-trimethylbenzoyl) diphenylphosphine oxide	uncertainty
273.15	0.0795	0.00063
278.15	0.09202	0.00084
283.15	0.1156	0.0011
288.15	0.139	0.0011
293.15	0.1621	0.0014
298.15	0.2002	0.0018
303.15	0.236	0.0018
308.15	0.2706	0.0019

System: (2,4,6-trimethylbenzoyl) diphenylphosphine oxide + 2-methyl-1-propanol; phases: Liquid, Crystal
Fixed: Pressure, kPa = 101
Property: Mole fraction of (2,4,6-trimethylbenzoyl) diphenylphosphine oxide (Liquid); method: gravimetric
Temperature, K	Mole fraction of (2,4,6-trimethylbenzoyl) diphenylphosphine oxide	uncertainty
273.15	0.07612	0.0006
278.15	0.08824	0.00077
283.15	0.1086	0.001
288.15	0.1328	0.0012
293.15	0.159	0.0013
298.15	0.1872	0.0015
303.15	0.22	0.0017
308.15	0.2558	0.0019

System: (2,4,6-trimethylbenzoyl) diphenylphosphine oxide + acetonitrile; phases: Liquid, Crystal
Fixed: Pressure, kPa = 101
Property: Mole fraction of (2,4,6-trimethylbenzoyl) diphenylphosphine oxide (Liquid); method: gravimetric
Temperature, K	Mole fraction of (2,4,6-trimethylbenzoyl) diphenylphosphine oxide	uncertainty
273.15	0.02424	0.0003
278.15	0.03124	0.0005
283.15	0.0482	0.00078
288.15	0.06874	0.0011
293.15	0.1008	0.0016
298.15	0.1442	0.002
303.15	0.1968	0.0027
308.15	0.2707	0.0032

System: (2,4,6-trimethylbenzoyl) diphenylphosphine oxide + methyl ethanoate; phases: Liquid, Crystal
Fixed: Pressure, kPa = 101
Property: Mole fraction of (2,4,6-trimethylbenzoyl) diphenylphosphine oxide (Liquid); method: gravimetric
Temperature, K	Mole fraction of (2,4,6-trimethylbenzoyl) diphenylphosphine oxide	uncertainty
273.15	0.05043	0.00051
278.15	0.06159	0.0006
283.15	0.07668	0.00078
288.15	0.09634	0.00098
293.15	0.1201	0.0012
298.15	0.1491	0.0015
303.15	0.1861	0.0018
308.15	0.2294	0.002

System: (2,4,6-trimethylbenzoyl) diphenylphosphine oxide + ethyl acetate; phases: Liquid, Crystal
Fixed: Pressure, kPa = 101
Property: Mole fraction of (2,4,6-trimethylbenzoyl) diphenylphosphine oxide (Liquid); method: gravimetric
Temperature, K	Mole fraction of (2,4,6-trimethylbenzoyl) diphenylphosphine oxide	uncertainty
273.15	0.04303	0.00044
278.15	0.05285	0.00046
283.15	0.06212	0.00065
288.15	0.08192	0.00088
293.15	0.1016	0.001
298.15	0.1259	0.0013
303.15	0.1603	0.0015
308.15	0.1935	0.0016

System: (2,4,6-trimethylbenzoyl) diphenylphosphine oxide + methanol + ethyl acetate; phases: Liquid, Crystal
Fixed: Pressure, kPa = 101
Property: Mole fraction of (2,4,6-trimethylbenzoyl) diphenylphosphine oxide (Liquid); method: OTHER:UFactor:12:sMethod:gravimetric
Temperature, K	Solvent: Mole fraction of methanol	Mole fraction of (2,4,6-trimethylbenzoyl) diphenylphosphine oxide	uncertainty
273.15	0	0.04303	0.00126
273.15	0.0985	0.07808	0.00227
273.15	0.1998	0.1031	0.0029
273.15	0.3001	0.1237	0.0035
273.15	0.3998	0.1386	0.0039
273.15	0.4989	0.1464	0.0041
273.15	0.5996	0.1538	0.0044
273.15	0.6975	0.1542	0.0044
273.15	0.7956	0.1462	0.0042
273.15	0.8994	0.1293	0.0037
273.15	1	0.1097	0.0031
278.15	0	0.05285	0.00152
278.15	0.0985	0.09076	0.00259
278.15	0.1998	0.1158	0.0033
278.15	0.3001	0.138	0.0039
278.15	0.3998	0.1537	0.0043
278.15	0.4989	0.1639	0.0046
278.15	0.5996	0.172	0.0048
278.15	0.6975	0.1743	0.0049
278.15	0.7956	0.1634	0.0046
278.15	0.8994	0.1458	0.0041
278.15	1	0.1253	0.0036
283.15	0	0.06212	0.00183
283.15	0.0985	0.1061	0.003
283.15	0.1998	0.1347	0.0038
283.15	0.3001	0.1569	0.0044
283.15	0.3998	0.1727	0.0049
283.15	0.4989	0.1839	0.0052
283.15	0.5996	0.1892	0.0053
283.15	0.6975	0.191	0.0054
283.15	0.7956	0.1824	0.0052
283.15	0.8994	0.1693	0.0048
283.15	1	0.1449	0.0041
288.15	0	0.08192	0.00262
288.15	0.0985	0.1231	0.0036
288.15	0.1998	0.15	0.0044
288.15	0.3001	0.1728	0.005
288.15	0.3998	0.1894	0.0054
288.15	0.4989	0.2006	0.0057
288.15	0.5996	0.2103	0.006
288.15	0.6975	0.2138	0.0061
288.15	0.7956	0.2086	0.006
288.15	0.8994	0.1952	0.0057
288.15	1	0.1719	0.0051
293.15	0	0.1259	0.0036
293.15	0.0985	0.1649	0.0047
293.15	0.1998	0.196	0.0056
293.15	0.3001	0.2176	0.0062
293.15	0.3998	0.2342	0.0066
293.15	0.4989	0.2454	0.0069
293.15	0.5996	0.2604	0.0073
293.15	0.6975	0.2642	0.0074
293.15	0.7956	0.2602	0.0073
293.15	0.8994	0.25	0.0071
293.15	1	0.2333	0.0066
303.15	0	0.1603	0.0046
303.15	0.0985	0.2058	0.0058
303.15	0.1998	0.2352	0.0066
303.15	0.3001	0.2555	0.0072
303.15	0.3998	0.2733	0.0077
303.15	0.4989	0.2847	0.008
303.15	0.5996	0.2957	0.0083
303.15	0.6975	0.3004	0.0084
303.15	0.7956	0.2971	0.0083
303.15	0.8994	0.2877	0.0081
303.15	1	0.2718	0.0076
308.15	0	0.1935	0.0056
308.15	0.0985	0.235	0.0066
308.15	0.1998	0.261	0.0073
308.15	0.3001	0.2832	0.008
308.15	0.3998	0.2955	0.0083
308.15	0.4989	0.3049	0.0085
308.15	0.5996	0.3123	0.0087
308.15	0.6975	0.3185	0.0089
308.15	0.7956	0.3142	0.0088
308.15	0.8994	0.3093	0.0087
308.15	1	0.2978	0.0084

System: (2,4,6-trimethylbenzoyl) diphenylphosphine oxide + ethanol + ethyl acetate; phases: Liquid, Crystal
Fixed: Pressure, kPa = 101
Property: Mole fraction of (2,4,6-trimethylbenzoyl) diphenylphosphine oxide (Liquid); method: OTHER:UFactor:12:sMethod:gravimetric
Temperature, K	Solvent: Mole fraction of ethanol	Mole fraction of (2,4,6-trimethylbenzoyl) diphenylphosphine oxide	uncertainty
273.15	0	0.04303	0.00126
273.15	0.0998	0.07412	0.00215
273.15	0.1993	0.09519	0.00273
273.15	0.2998	0.1078	0.0031
273.15	0.3985	0.1173	0.0034
273.15	0.5005	0.1218	0.0035
273.15	0.5999	0.1236	0.0036
273.15	0.7004	0.1166	0.0034
273.15	0.8	0.107	0.0031
273.15	0.8998	0.08815	0.00259
273.15	1	0.07606	0.00219
278.15	0	0.05285	0.00152
278.15	0.0998	0.08533	0.00243
278.15	0.1993	0.1078	0.0031
278.15	0.2998	0.1223	0.0035
278.15	0.3985	0.1345	0.0038
278.15	0.5005	0.1387	0.0039
278.15	0.5999	0.1422	0.004
278.15	0.7004	0.1368	0.0039
278.15	0.8	0.1254	0.0036
278.15	0.8998	0.1107	0.0032
278.15	1	0.08948	0.00257
283.15	0	0.06212	0.00183
283.15	0.0998	0.09931	0.00284
283.15	0.1993	0.1214	0.0035
283.15	0.2998	0.1374	0.0039
283.15	0.3985	0.1483	0.0042
283.15	0.5005	0.1559	0.0044
283.15	0.5999	0.1578	0.0045
283.15	0.7004	0.1548	0.0044
283.15	0.8	0.1473	0.0042
283.15	0.8998	0.1305	0.0038
283.15	1	0.1071	0.0031
288.15	0	0.08192	0.00242
288.15	0.0998	0.1173	0.0034
288.15	0.1993	0.1441	0.0041
288.15	0.2998	0.1585	0.0045
288.15	0.3985	0.1715	0.0049
288.15	0.5005	0.1794	0.0051
288.15	0.5999	0.182	0.0052
288.15	0.7004	0.1801	0.0051
288.15	0.8	0.1746	0.005
288.15	0.8998	0.1579	0.0045
288.15	1	0.1298	0.0037
293.15	0	0.1016	0.003
293.15	0.0998	0.1409	0.004
293.15	0.1993	0.1695	0.0048
293.15	0.2998	0.1852	0.0053
293.15	0.3985	0.1986	0.0056
293.15	0.5005	0.2057	0.0058
293.15	0.5999	0.2114	0.006
293.15	0.7004	0.2086	0.0059
293.15	0.8	0.2017	0.0057
293.15	0.8998	0.1827	0.0052
293.15	1	0.1542	0.0044
298.15	0	0.1259	0.0037
298.15	0.0998	0.1656	0.0047
298.15	0.1993	0.1946	0.0055
298.15	0.2998	0.2122	0.006
298.15	0.3985	0.2261	0.0064
298.15	0.5005	0.2334	0.0066
298.15	0.5999	0.2375	0.0067
298.15	0.7004	0.2368	0.0067
298.15	0.8	0.2302	0.0065
298.15	0.8998	0.213	0.0061
298.15	1	0.1843	0.0053
303.15	0	0.1603	0.0047
303.15	0.0998	0.1914	0.0055
303.15	0.1993	0.2181	0.0062
303.15	0.2998	0.2355	0.0067
303.15	0.3985	0.2511	0.0071
303.15	0.5005	0.2587	0.0073
303.15	0.5999	0.2654	0.0075
303.15	0.7004	0.2632	0.0074
303.15	0.8	0.2606	0.0074
303.15	0.8998	0.2513	0.0071
303.15	1	0.2178	0.0063
308.15	0	0.1935	0.0056
308.15	0.0998	0.2254	0.0064
308.15	0.1993	0.2524	0.0071
308.15	0.2998	0.2649	0.0075
308.15	0.3985	0.2776	0.0078
308.15	0.5005	0.2871	0.0081
308.15	0.5999	0.2941	0.0083
308.15	0.7004	0.2912	0.0082
308.15	0.8	0.2878	0.0081
308.15	0.8998	0.2832	0.008
308.15	1	0.2658	0.0077
