Measured thermophysical data. Isobaric vapor liquid phase equilibria for the binary systems of tert-butanol + 2-ethyl-1-hexanol and n-butanol + 2-ethyl-1-hexanol
Source: Fluid Phase Equilib., 2005, 10.1016/j.fluid.2005.03.034
Compound 1: 2-ethyl-1-hexanol, C8H18O, InChI=1S/C8H18O/c1-3-5-6-8(4-2)7-9/h8-9H,3-7H2,1-2H3
Compound 2: butan-1-ol, C4H10O, InChI=1S/C4H10O/c1-2-3-4-5/h5H,2-4H2,1H3
Compound 3: 2-methylpropan-2-ol, C4H10O, InChI=1S/C4H10O/c1-4(2,3)5/h5H,1-3H3

System: butan-1-ol + 2-ethyl-1-hexanol; phases: Liquid, Gas
Fixed: Pressure, kPa = 101.3
Property: Boiling temperature at pressure P, K (Liquid); method: EBULLIO:UFactor:64
Mole fraction of butan-1-ol	Boiling temperature at pressure P, K	uncertainty
0	458.15	5.45
0.0112	444.5697	5.4469
0.02	441.3355	5.4469
0.09	418.6233	5.4469
0.1685	409.6233	5.4469
0.3	402.89	5.4469
0.34	400.95	5.4469
0.44	399.5	5.4469
0.51	398.2821	5.4469
0.65	396.1976	5.4469
0.86	393.335	5.4469
0.927	392	5.4469

System: butan-1-ol + 2-ethyl-1-hexanol; phases: Gas, Liquid
Fixed: Pressure, kPa = 101.3
Property: Mole fraction of butan-1-ol (Gas); method: CHROM:UFactor:16
Mole fraction of butan-1-ol	Mole fraction of butan-1-ol	uncertainty
0	0.0008	0.0002
0.0112	0.3245	0.0623
0.02	0.398	0.0765
0.09	0.7289	0.0522
0.1685	0.8125	0.0361
0.3	0.8703	0.025
0.34	0.8845	0.0223
0.44	0.911	0.0172
0.51	0.9234	0.0148
0.65	0.9235	0.0148
0.86	0.9567	0.0084
0.927	0.9768	0.0045

System: 2-methylpropan-2-ol + 2-ethyl-1-hexanol; phases: Liquid, Gas
Fixed: Pressure, kPa = 101.3
Property: Boiling temperature at pressure P, K (Liquid); method: EBULLIO:UFactor:128
Mole fraction of 2-methylpropan-2-ol	Boiling temperature at pressure P, K	uncertainty
0	459.73	10.8937
0.005	445.5325	10.8937
0.01	436.1964	10.8937
0.015	428.8066	10.8937
0.0199	422.794	10.8937
0.0899	388.23	10.8937
0.1599	380.5	10.8937
0.2299	372.1293	10.8937
0.3	368.901	10.8937
0.4399	366.7212	10.8937
0.51	363.816	10.8937
0.6499	361.6598	10.8937
0.72	360.63	10.8937
0.7899	359.5657	10.8937
0.8599	357.09	10.8937
0.93	355.57	10.8937

System: 2-methylpropan-2-ol + 2-ethyl-1-hexanol; phases: Gas, Liquid
Fixed: Pressure, kPa = 101.3
Property: Mole fraction of 2-methylpropan-2-ol (Gas); method: CHROM:UFactor:16
Mole fraction of 2-methylpropan-2-ol	Mole fraction of 2-methylpropan-2-ol	uncertainty
0	0.0008	0.0002
0.005	0.2984	0.0573
0.01	0.4755	0.0914
0.015	0.5892	0.079
0.0199	0.6667	0.0641
0.0899	0.92	0.0154
0.1599	0.9542	0.0088
0.2299	0.9666	0.0064
0.3	0.973	0.0052
0.4399	0.9797	0.0039
0.51	0.9819	0.0035
0.6499	0.9858	0.0027
0.72	0.9877	0.0024
0.7899	0.9899	0.002
0.8599	0.9925	0.0014
0.93	0.9957	0.0008
