Measured thermophysical data. Thermophysical properties of Ga-Zn eutectic alloys with Sn additions
Source: Fluid Phase Equilib., 2018, 10.1016/j.fluid.2018.07.008
Compound 1: gallium, Ga, InChI=1S/Ga, purity 99.999%
Compound 2: zinc, Zn, InChI=1S/Zn, purity 99.999%
Compound 3: tin, Sn, InChI=1S/Sn, purity 99.999%

System: gallium + zinc + tin; phases: Liquid
Fixed: Pressure, kPa = 101
Fixed: Solvent: Mass fraction of gallium = 0.9636
Property: Mass density, kg/m3 (Liquid); method: Liquid flow through an orifice
Temperature, K	Mass fraction of tin	Mass density, kg/m3	uncertainty
323	0.05	6111	367
373	0.05	6079	365
423	0.05	6047	363
473	0.05	6018	361
523	0.05	5988	359
573	0.05	5956	357
623	0.05	5927	356
673	0.05	5897	354
723	0.05	5866	352
773	0.05	5835	350
323	0.1	6142	369
373	0.1	6109	367
423	0.1	6077	365
473	0.1	6053	363
523	0.1	6018	361
573	0.1	5985	359
623	0.1	5955	357
673	0.1	5927	356
723	0.1	5898	354
773	0.1	5867	352
373	0.25	6237	374
423	0.25	6203	372
473	0.25	6173	370
523	0.25	6139	368
573	0.25	6106	366
623	0.25	6077	365
673	0.25	6051	363
723	0.25	6019	361
773	0.25	5993	360
423	0.5	6429	386
473	0.5	6398	384
523	0.5	6365	382
573	0.5	6338	380
623	0.5	6307	379
673	0.5	6275	377
723	0.5	6246	375
773	0.5	6214	373
473	0.75	6673	400
523	0.75	6642	399
573	0.75	6611	397
623	0.75	6581	395
673	0.75	6548	393
723	0.75	6518	391
773	0.75	6491	390
523	0.9	6814	409
573	0.9	6783	407
623	0.9	6752	405
673	0.9	6724	404
723	0.9	6692	402
773	0.9	6660	400

System: gallium + zinc + tin; phases: Liquid
Fixed: Pressure, kPa = 101
Fixed: Solvent: Mass fraction of gallium = 0.9636
Property: Viscosity, Pa*s (Liquid); method: Liquid flow through an orifice
Temperature, K	Mass fraction of tin	Viscosity, Pa*s	uncertainty
323	0.05	0.001683	0.000116
373	0.05	0.001387	9.8e-05
423	0.05	0.001192	8.4e-05
473	0.05	0.001031	7.3e-05
523	0.05	0.000923	6.4e-05
573	0.05	0.000859	6e-05
623	0.05	0.000785	5.5e-05
673	0.05	0.000742	5.1e-05
723	0.05	0.000703	4.8e-05
773	0.05	0.000681	4.7e-05
323	0.1	0.001764	0.000122
373	0.1	0.001448	0.000103
423	0.1	0.001236	8.7e-05
473	0.1	0.001072	7.6e-05
523	0.1	0.000937	6.6e-05
573	0.1	0.000874	6e-05
623	0.1	0.000807	5.6e-05
673	0.1	0.000759	5.3e-05
723	0.1	0.000715	5e-05
773	0.1	0.000679	4.7e-05
373	0.25	0.001683	0.000118
423	0.25	0.001396	0.0001
473	0.25	0.0012001	8.52e-05
523	0.25	0.001058	7.4e-05
573	0.25	0.000967	6.7e-05
623	0.25	0.000879	6.1e-05
673	0.25	0.000831	5.7e-05
723	0.25	0.000779	5.4e-05
773	0.25	0.000735	5.1e-05
423	0.5	0.001853	0.000134
473	0.5	0.001511	0.000111
523	0.5	0.001325	9.3e-05
573	0.5	0.001196	8.4e-05
623	0.5	0.001064	7.5e-05
673	0.5	0.000984	6.9e-05
723	0.5	0.000905	6.4e-05
773	0.5	0.000843	5.9e-05
473	0.75	0.002015	0.000147
523	0.75	0.001655	0.000122
573	0.75	0.001472	0.000104
623	0.75	0.001308	9.4e-05
673	0.75	0.001169	8.3e-05
723	0.75	0.001073	7.6e-05
773	0.75	0.000979	6.9e-05
523	0.9	0.001957	0.000138
573	0.9	0.001697	0.000125
623	0.9	0.001456	0.000107
673	0.9	0.001314	9.4e-05
723	0.9	0.001181	8.4e-05
773	0.9	0.001098	7.7e-05

System: gallium + zinc + tin; phases: Liquid, Gas
Fixed: Solvent: Mass fraction of gallium = 0.9636
Property: Interfacial tension, N/m (Liquid); method: Liquid flow through orifice
Temperature, K	Mass fraction of tin	Interfacial tension, N/m	uncertainty
323	0.05	0.7132	0.0428
373	0.05	0.7091	0.0426
423	0.05	0.7053	0.0423
473	0.05	0.7019	0.0421
523	0.05	0.6981	0.0419
573	0.05	0.6943	0.0417
623	0.05	0.6908	0.0415
673	0.05	0.6875	0.0413
723	0.05	0.6849	0.0411
773	0.05	0.6801	0.0408
323	0.1	0.6965	0.0418
373	0.1	0.6924	0.0415
423	0.1	0.6889	0.0413
473	0.1	0.6858	0.0412
523	0.1	0.6832	0.041
573	0.1	0.6788	0.0407
623	0.1	0.6751	0.0405
673	0.1	0.6708	0.0403
723	0.1	0.6668	0.04
773	0.1	0.6631	0.0398
373	0.25	0.6379	0.0383
423	0.25	0.6345	0.0381
473	0.25	0.6302	0.0378
523	0.25	0.6257	0.0376
573	0.25	0.6221	0.0373
623	0.25	0.6179	0.0371
673	0.25	0.6133	0.0368
723	0.25	0.6097	0.0366
773	0.25	0.6056	0.0365
423	0.5	0.6065	0.0364
473	0.5	0.6019	0.0361
523	0.5	0.5974	0.0359
573	0.5	0.5936	0.0356
623	0.5	0.5892	0.0354
673	0.5	0.5846	0.0351
723	0.5	0.5803	0.0348
773	0.5	0.5761	0.0346
473	0.75	0.5843	0.0351
523	0.75	0.5801	0.0348
573	0.75	0.5752	0.0345
623	0.75	0.5706	0.0343
673	0.75	0.5663	0.034
723	0.75	0.5614	0.0337
773	0.75	0.5575	0.0335
523	0.9	0.5696	0.0342
573	0.9	0.5648	0.0339
623	0.9	0.5603	0.0336
673	0.9	0.5548	0.0333
723	0.9	0.5506	0.0331
773	0.9	0.5461	0.0328
