Measured thermophysical data. Volumetric property for carbon dioxide + methyl acetate system at 313.15K
Source: Fluid Phase Equilib., 2007, 10.1016/j.fluid.2007.01.033
Compound 1: carbon dioxide, CO2, InChI=1S/CO2/c2-1-3, purity 99.999%
Compound 2: methyl ethanoate, C3H6O2, InChI=1S/C3H6O2/c1-3(4)5-2/h1-2H3

System: carbon dioxide; phases: Fluid (supercritical or subcritical phases)
Fixed: Temperature, K = 313.15
Property: Mass density, kg/m3 (Fluid (supercritical or subcritical phases)); method: VIBTUB:UFactor:4
Pressure, kPa	Mass density, kg/m3	uncertainty
1000	17.9	0.2
2000	37.1	0.3
3000	58.7	0.3
4000	83.5	0.4
5000	112.7	0.5
6000	148.8	0.7
7000	197.3	0.9
8000	276.7	1.6
9000	483.4	2.6
10000	627.4	2.3

System: methyl ethanoate; phases: Liquid, Gas
Property: Normal boiling temperature, K (Liquid); method: CCELL:UFactor:4
Normal boiling temperature, K	uncertainty
330.04	0.17

System: methyl ethanoate; phases: Liquid
Property: Refractive index (Na D-line) (Liquid); method: Standard Abbe refractometry
Temperature, K	Pressure, kPa	Refractive index (Na D-line)	uncertainty
298.15	101.325	1.3594	0.0007

System: methyl ethanoate; phases: Liquid
Property: Mass density, kg/m3 (Liquid); method: VIBTUB:UFactor:4
Temperature, K	Pressure, kPa	Mass density, kg/m3	uncertainty
298.15	101.325	927.1	0.3

System: methyl ethanoate + carbon dioxide; phases: Liquid, Gas
Fixed: Temperature, K = 313.15
Property: Vapor or sublimation pressure, kPa (Liquid); method: CCELL:UFactor:8
Mole fraction of carbon dioxide	Vapor or sublimation pressure, kPa	uncertainty
0.1	622	20
0.2	1209	39
0.3	1920	62
0.4	2601	83
0.5	3484	112
0.6	4243	136
0.7	5050	162
0.8	6047	194
0.9	7060	226
0.95	7828	251

System: methyl ethanoate + carbon dioxide; phases: Gas, Liquid
Fixed: Temperature, K = 313.15
Property: Mass density, kg/m3 (Gas); method: discontinuity of the pressure as a function of cell volume
Pressure, kPa	Mass density, kg/m3	uncertainty
1313	26.5	1
2111	42.7	1
4099	93.3	1
4532	105.6	1
6361	181.8	1
7114	231.4	1.1

System: methyl ethanoate + carbon dioxide; phases: Liquid, Gas
Fixed: Temperature, K = 313.15
Property: Mass density, kg/m3 (Liquid); method: discontinuity of the pressure as a function of cell volume
Pressure, kPa	Mass density, kg/m3	uncertainty
1313	912.6	1
2111	914.2	1
4099	904.3	1
4532	897.7	1
6361	830.4	1
7114	769.1	1.1

System: methyl ethanoate + carbon dioxide; phases: Liquid
Fixed: Temperature, K = 313.15
Property: Mass density, kg/m3 (Liquid); method: VIBTUB:UFactor:4
Pressure, kPa	Mole fraction of carbon dioxide	Mass density, kg/m3	uncertainty
1000	0	907.9	0.4
1000	0.1	910	0.4
2000	0	908.9	0.4
2000	0.1	911.1	0.4
2000	0.2	913.9	0.4
3000	0	909.7	0.4
3000	0.1	912.4	0.4
3000	0.2	915.2	0.4
4000	0	910.9	0.4
4000	0.1	913.5	0.4
4000	0.2	916.6	0.4
4000	0.3	917.1	0.4
4000	0.4	917.4	0.4
5000	0	912	0.4
5000	0.1	914.7	0.4
5000	0.2	917.9	0.4
5000	0.3	918.6	0.4
5000	0.4	919.2	0.4
5000	0.5	915.4	0.4
6000	0	913.1	0.4
6000	0.1	915.9	0.4
6000	0.2	919.1	0.4
6000	0.3	920.1	0.4
6000	0.4	920.9	0.4
6000	0.5	917.5	0.4
6000	0.6	909	0.5
6000	0.7	891.8	0.5
7000	0	914.1	0.5
7000	0.1	917	0.4
7000	0.2	920.4	0.4
7000	0.3	921.5	0.4
7000	0.4	922.7	0.4
7000	0.5	919.6	0.4
7000	0.6	912.8	0.5
7000	0.7	895.9	0.5
7000	0.8	861.5	0.6
8000	0	915.1	0.5
8000	0.1	918.1	0.5
8000	0.2	921.7	0.4
8000	0.3	922.9	0.4
8000	0.4	924.3	0.4
8000	0.5	921.6	0.4
8000	0.6	915.5	0.5
8000	0.7	899.7	0.5
8000	0.8	868.2	0.6
8000	0.9	793.5	0.9
9000	0	916.1	0.5
9000	0.1	919.2	0.5
9000	0.2	922.9	0.5
9000	0.3	924.3	0.5
9000	0.4	925.9	0.4
9000	0.5	923.7	0.5
9000	0.6	918.1	0.5
9000	0.7	903.5	0.5
9000	0.8	873.8	0.7
9000	0.9	808	0.9
9000	0.95	734.6	1.2
10000	0	917.1	0.5
10000	0.1	920.3	0.5
10000	0.2	924.1	0.5
10000	0.3	925.7	0.5
10000	0.4	927.5	0.5
10000	0.5	925.6	0.5
10000	0.6	920.7	0.5
10000	0.7	907	0.5
10000	0.8	879.5	0.7
10000	0.9	820.3	0.9
10000	0.95	759.7	1.2
