Measured thermophysical data. Liquid-liquid phase diagrams of poly(ethylene glycol) and aromatic hydrocarbons
Source: Fluid Phase Equilib., 2016, 10.1016/j.fluid.2015.08.022
Compound 1: triethylene glycol, C6H14O4, InChI=1S/C6H14O4/c7-1-3-9-5-6-10-4-2-8/h7-8H,1-6H2, purity 98%
Compound 2: benzene, C6H6, InChI=1S/C6H6/c1-2-4-6-5-3-1/h1-6H, purity 99.8%
Compound 3: toluene, C7H8, InChI=1S/C7H8/c1-7-5-3-2-4-6-7/h2-6H,1H3, purity 99.5%
Compound 4: ethylbenzene, C8H10, InChI=1S/C8H10/c1-2-8-6-4-3-5-7-8/h3-7H,2H2,1H3, purity 99.8%
Compound 5: 1,2-dimethylbenzene, C8H10, InChI=1S/C8H10/c1-7-5-3-4-6-8(7)2/h3-6H,1-2H3, purity 98%
Compound 6: 1,3-dimethylbenzene, C8H10, InChI=1S/C8H10/c1-7-4-3-5-8(2)6-7/h3-6H,1-2H3, purity 98%
Compound 7: 1,4-dimethylbenzene, C8H10, InChI=1S/C8H10/c1-7-3-5-8(2)6-4-7/h3-6H,1-2H3, purity 99%

System: benzene + triethylene glycol; phases: Liquid mixture 1, Liquid mixture 2
Fixed: Pressure, kPa = 101.3
Property: Mole fraction of triethylene glycol (Liquid mixture 1); method: Gravimetric
Temperature, K	Mole fraction of triethylene glycol	uncertainty
295.05	0.108	0.021
297.85	0.132	0.027
299.45	0.148	0.021
300.35	0.157	0.032
301.35	0.168	0.057
302.05	0.181	0.104
302.45	0.195	0.027
302.95	0.213	0.048
303.05	0.22	0.039
303.05	0.229	0.033
303.05	0.237	0.027
302.85	0.247	0.023
302.15	0.258	0.033
301.75	0.269	0.04
301.45	0.281	0.035
300.95	0.295	0.071
300.35	0.31	0.031
299.95	0.327	0.06
299.85	0.336	0.025
299.15	0.346	0.017
298.25	0.356	0.092
297.75	0.366	0.023
297.25	0.378	0.024
296.85	0.39	0.027
296.25	0.403	0.092
295.65	0.417	0.023
294.75	0.431	0.02
293.85	0.447	0.111
292.05	0.464	0.016
289.65	0.483	0.016
286.65	0.503	0.015
279.65	0.525	0.015

System: toluene + triethylene glycol; phases: Liquid mixture 1, Liquid mixture 2
Fixed: Pressure, kPa = 101.3
Property: Mole fraction of triethylene glycol (Liquid mixture 1); method: Gravimetric
Temperature, K	Mole fraction of triethylene glycol	uncertainty
343.15	0.076	0.076
348.05	0.095	0.021
353.35	0.124	0.034
355.75	0.147	0.023
357.75	0.181	0.02
358.29	0.204	0.135
358.45	0.234	0.103
358.75	0.274	0.066
358.05	0.332	0.056
357.85	0.362	0.103
356.85	0.398	0.079
354.65	0.443	0.022
352.65	0.469	0.019
350.15	0.498	0.08
344.45	0.532	0.027
336.95	0.57	0.028
324.35	0.614	0.013
298.15	0.665	0.012

System: ethylbenzene + triethylene glycol; phases: Liquid mixture 1, Liquid mixture 2
Fixed: Pressure, kPa = 101.3
Property: Mole fraction of triethylene glycol (Liquid mixture 1); method: Gravimetric
Temperature, K	Mole fraction of triethylene glycol	uncertainty
366.55	0.087	0.011
369.05	0.097	0.011
371.55	0.108	0.108
374.65	0.123	0.103
377.15	0.142	0.013
379.95	0.168	0.083
382.15	0.206	0.021
383.55	0.233	0.022
384.05	0.267	0.034
384.55	0.313	0.117
384.25	0.378	0.09
383.15	0.476	0.049
381.15	0.532	0.085
373.15	0.603	0.015
356.15	0.695	0.06
298.15	0.82	0.011

System: 1,2-dimethylbenzene + triethylene glycol; phases: Liquid mixture 1, Liquid mixture 2
Fixed: Pressure, kPa = 101.3
Property: Mole fraction of triethylene glycol (Liquid mixture 1); method: Gravimetric
Temperature, K	Mole fraction of triethylene glycol	uncertainty
325.05	0.019	0.01
328.45	0.022	0.022
336.55	0.029	0.01
343.45	0.037	0.01
353.75	0.052	0.01
359.95	0.064	0.01
367.55	0.083	0.039
375.85	0.12	0.049
380.65	0.154	0.036
385.05	0.214	0.12
385.05	0.312	0.059
383.45	0.405	0.026
372.45	0.577	0.018
325.45	0.732	0.237
278.15	0.817	0.02

System: 1,3-dimethylbenzene + triethylene glycol; phases: Liquid mixture 1, Liquid mixture 2
Fixed: Pressure, kPa = 101.3
Property: Mole fraction of triethylene glycol (Liquid mixture 1); method: Gravimetric
Temperature, K	Mole fraction of triethylene glycol	uncertainty
320.95	0.011	0.01
320.95	0.011	0.01
325.35	0.015	0.01
330.45	0.018	0.01
336.55	0.023	0.01
340.95	0.026	0.01
345.65	0.031	0.01
351.15	0.039	0.01
360.95	0.051	0.01
373.15	0.075	0.028
378.95	0.092	0.041
386.15	0.119	0.119
392.15	0.169	0.015
395.45	0.213	0.034
397.95	0.289	0.033
393.15	0.448	0.023
384.85	0.533	0.319
378.75	0.603	0.041
360.95	0.695	0.012
293.15	0.82	0.031

System: 1,4-dimethylbenzene + triethylene glycol; phases: Liquid mixture 1, Liquid mixture 2
Fixed: Pressure, kPa = 101.3
Property: Mole fraction of triethylene glycol (Liquid mixture 1); method: Gravimetric
Temperature, K	Mole fraction of triethylene glycol	uncertainty
337.15	0.026	0.01
340.45	0.03	0.01
346.65	0.036	0.01
354.15	0.044	0.01
363.55	0.058	0.01
370.05	0.069	0.054
376.75	0.085	0.043
383.95	0.11	0.011
392.55	0.156	0.028
395.65	0.198	0.02
397.05	0.236	0.029
397.95	0.27	0.033
397.75	0.316	0.057
397.05	0.381	0.131
394.85	0.48	0.024
372.45	0.649	0.018
