Measured thermophysical data. A new high-pressure vapour liquid equilibrium apparatus
Source: Fluid Phase Equilib., 2008, 10.1016/j.fluid.2008.05.002
Compound 1: carbon dioxide, CO2, InChI=1S/CO2/c2-1-3
Compound 2: propane, C3H8, InChI=1S/C3H8/c1-3-2/h3H2,1-2H3
Compound 3: methanol, CH4O, InChI=1S/CH4O/c1-2/h2H,1H3
Compound 4: toluene, C7H8, InChI=1S/C7H8/c1-7-5-3-2-4-6-7/h2-6H,1H3
Compound 5: propan-1-ol, C3H8O, InChI=1S/C3H8O/c1-2-3-4/h4H,2-3H2,1H3

System: methanol + carbon dioxide; phases: Liquid, Gas
Property: Vapor or sublimation pressure, kPa (Liquid); method: CCELL:UFactor:16
Mole fraction of carbon dioxide	Temperature, K	Vapor or sublimation pressure, kPa	uncertainty
0.0273	363.15	967	54
0.0451	373.15	2157	113
0.0469	363.15	1569	85
0.0653	313.15	1291	68
0.0697	373.15	3089	163
0.0701	363.15	2460	150
0.0734	363.15	2654	158
0.0887	373.15	3873	203
0.1106	273.15	891	47
0.1138	363.15	4021	213
0.1233	313.15	2313	121
0.1234	263.15	792	41
0.1258	373.15	5094	266
0.1646	363.15	5545	292
0.1783	373.15	6822	357
0.1856	313.15	3145	167
0.2033	373.15	7528	393
0.206	263.15	1205	63
0.2315	273.15	1792	93
0.2389	363.15	7689	407
0.2516	313.15	4339	227
0.2531	373.15	9067	473
0.2713	363.15	8564	448
0.3103	373.15	10594	553
0.3227	313.15	5192	270
0.347	313.15	5546	297
0.3611	373.15	12068	635
0.3937	263.15	2046	105
0.3968	313.15	6131	312
0.4155	273.15	2681	136
0.4736	313.15	6758	344
0.6628	263.15	2527	128
0.6753	273.15	3273	166

System: methanol + carbon dioxide; phases: Gas, Liquid
Property: Mole fraction of carbon dioxide (Gas); method: Chromatography
Mole fraction of carbon dioxide	Temperature, K	Mole fraction of carbon dioxide	uncertainty
0.0273	363.15	0.7254	0.0952
0.0451	373.15	0.8042	0.0583
0.0469	363.15	0.7991	0.055
0.0653	313.15	0.9732	0.0209
0.0697	373.15	0.8629	0.0303
0.0701	363.15	0.8715	0.068
0.0734	363.15	0.8874	0.069
0.0887	373.15	0.8837	0.043
0.1106	273.15	0.9908	0.0092
0.1138	363.15	0.9132	0.0235
0.1233	313.15	0.9825	0.0175
0.1234	263.15	0.9933	0.0067
0.1258	373.15	0.9053	0.0223
0.1646	363.15	0.9253	0.0207
0.1783	373.15	0.9138	0.0201
0.1856	313.15	0.9856	0.0144
0.2033	373.15	0.9127	0.0201
0.206	263.15	0.9941	0.0059
0.2315	273.15	0.9943	0.0057
0.2389	363.15	0.9362	0.0205
0.2516	313.15	0.9826	0.0174
0.2531	373.15	0.9118	0.02
0.2713	363.15	0.9419	0.0212
0.3103	373.15	0.91	0.0207
0.3227	313.15	0.9845	0.0155
0.347	313.15	0.986	0.014
0.3611	373.15	0.8927	0.0225
0.3937	263.15	0.9969	0.0031
0.3968	313.15	0.9849	0.0151
0.4155	273.15	0.9968	0.0032
0.4736	313.15	0.9866	0.0134
0.6628	263.15	0.9979	0.0021
0.6753	273.15	0.9975	0.0025

System: toluene + carbon dioxide; phases: Gas, Liquid
Property: Vapor or sublimation pressure, kPa (Gas); method: CCELL:UFactor:16
Mole fraction of carbon dioxide	Temperature, K	Vapor or sublimation pressure, kPa	uncertainty
0.0357	353.15	589	31
0.0397	353.15	541	29
0.0449	311.15	552	29
0.0578	283.15	405	22
0.0715	353.15	1252	70
0.0932	353.15	1679	88
0.0986	391.45	2064	122
0.1104	353.15	2012	109
0.1105	311.15	1144	61
0.1215	353.15	2138	117
0.1274	283.15	878	47
0.1381	391.45	3390	179
0.1928	283.15	1277	68
0.1939	353.15	3255	174
0.1997	311.15	2039	110
0.2045	353.15	3563	191
0.2382	391.45	5240	280
0.245	353.15	4207	228
0.2476	311.15	2534	141
0.2511	283.15	1624	85
0.2867	311.15	3133	162
0.2935	353.15	5158	274
0.2946	353.15	5257	278
0.3213	391.45	7429	405
0.3287	353.15	5823	306
0.3709	283.15	2223	116
0.3816	353.15	6569	349
0.3997	391.45	9439	505
0.4067	311.15	3968	206
0.4335	391.45	10014	522
0.4484	353.15	7815	416
0.4972	353.15	8435	436
0.5249	283.15	2940	150
0.5335	311.15	5014	264
0.5467	391.45	12133	636
0.5665	311.15	5225	260
0.6816	353.15	10649	553
0.6986	311.15	6064	315
0.6988	283.15	3532	181
0.7613	311.15	6429	335
0.7848	311.15	6644	360
0.798	283.15	3783	193
0.8871	311.15	7191	370

System: toluene + carbon dioxide; phases: Gas, Liquid
Property: Mole fraction of carbon dioxide (Gas); method: Chromatography
Mole fraction of carbon dioxide	Temperature, K	Mole fraction of carbon dioxide	uncertainty
0.0357	353.15	0.9048	0.0272
0.0397	353.15	0.898	0.027
0.0449	311.15	0.9806	0.0194
0.0578	283.15	0.9947	0.0053
0.0715	353.15	0.9562	0.0288
0.0932	353.15	0.963	0.029
0.0986	391.45	0.9285	0.0279
0.1104	353.15	0.9726	0.0274
0.1105	311.15	0.9902	0.0098
0.1215	353.15	0.9749	0.0251
0.1274	283.15	0.9948	0.0052
0.1381	391.45	0.9462	0.0284
0.1928	283.15	0.9951	0.0049
0.1939	353.15	0.9817	0.0183
0.1997	311.15	0.9935	0.0065
0.2045	353.15	0.9755	0.0245
0.2382	391.45	0.9541	0.0286
0.245	353.15	0.9849	0.0151
0.2476	311.15	0.9912	0.0088
0.2511	283.15	0.9964	0.0036
0.2867	311.15	0.9955	0.0045
0.2935	353.15	0.9841	0.0159
0.2946	353.15	0.985	0.015
0.3213	391.45	0.9536	0.0286
0.3287	353.15	0.9889	0.0111
0.3709	283.15	0.9968	0.0032
0.3816	353.15	0.9845	0.0155
0.3997	391.45	0.9485	0.0285
0.4067	311.15	0.9927	0.0073
0.4335	391.45	0.9484	0.0285
0.4484	353.15	0.9836	0.0164
0.4972	353.15	0.9828	0.0172
0.5249	283.15	0.9981	0.0019
0.5335	311.15	0.9941	0.0059
0.5467	391.45	0.9325	0.028
0.5665	311.15	0.9945	0.0055
0.6816	353.15	0.9697	0.0291
0.6986	311.15	0.9945	0.0055
0.6988	283.15	0.9989	0.0011
0.7613	311.15	0.9936	0.0064
0.7848	311.15	0.9939	0.0061
0.798	283.15	0.999	0.001
0.8871	311.15	0.9939	0.0061

System: propan-1-ol + propane; phases: Gas, Liquid
Property: Vapor or sublimation pressure, kPa (Gas); method: CCELL:UFactor:16
Mole fraction of propane	Temperature, K	Vapor or sublimation pressure, kPa	uncertainty
0.0223	378.15	296	15
0.0521	393.15	523	28
0.0622	378.15	616	32
0.0848	378.15	819	43
0.0966	323.15	347	19
0.1023	393.15	956	51
0.1485	378.15	1234	64
0.1659	393.15	1512	81
0.1699	323.15	572	30
0.2334	378.15	1787	93
0.2365	323.15	768	40
0.2542	393.15	2365	125
0.3095	323.15	936	49
0.3363	393.15	2966	154
0.3491	323.15	1037	54
0.3717	378.15	2499	129
0.4146	323.15	1190	60
0.4289	393.15	3484	180
0.4838	393.15	3789	194
0.5186	378.15	3147	161
0.5437	393.15	4012	202
0.5497	393.15	4031	203
0.6229	323.15	1401	71
0.6401	378.15	3489	177
0.7435	323.15	1452	73

System: propan-1-ol + propane; phases: Gas, Liquid
Property: Mole fraction of propane (Gas); method: Chromatography
Mole fraction of propane	Temperature, K	Mole fraction of propane	uncertainty
0.0223	378.15	0.4868	0.0157
0.0521	393.15	0.6198	0.0197
0.0622	378.15	0.7123	0.0237
0.0848	378.15	0.8102	0.0247
0.0966	323.15	0.9646	0.029
0.1023	393.15	0.7967	0.025
0.1485	378.15	0.8555	0.0258
0.1659	393.15	0.8767	0.0265
0.1699	323.15	0.9817	0.0183
0.2334	378.15	0.8798	0.0265
0.2365	323.15	0.9823	0.0177
0.2542	393.15	0.9028	0.0272
0.3095	323.15	0.979	0.021
0.3363	393.15	0.9229	0.0277
0.3491	323.15	0.98	0.02
0.3717	378.15	0.9045	0.0272
0.4146	323.15	0.98	0.02
0.4289	393.15	0.9284	0.0279
0.4838	393.15	0.9329	0.028
0.5186	378.15	0.9393	0.0283
0.5437	393.15	0.9357	0.0282
0.5497	393.15	0.9368	0.0283
0.6229	323.15	0.98	0.02
0.6401	378.15	0.9418	0.0283
0.7435	323.15	0.9751	0.0249
