Measured thermophysical data. Solubilities and thermodynamics of TPP in propionic acid + water and TPPMnCl in N,Ndimethylformamide + water solvent mixtures at (303.2 to 343.2) K
Source: Fluid Phase Equilib., 2015, 10.1016/j.fluid.2015.03.039
Compound 1: .alpha.,.beta.,.gamma.,.delta.-tetraphenylporphine, C44H30N4, InChI=1S/C44H30N4/c1-5-13-29(14-6-1)41-33-21-23-35(45-33)42(30-15-7-2-8-16-30)37-25-27-39(47-37)44(32-19-11-4-12-20-32)40-28-26-38(48-40)43(31-17-9-3-10-18-31)36-24-22-34(41)46-36/h1-28,45,48H/b41-33-,41-34-,42-35-,42-37-,43-36-,43-38-,44-39-,44-40-, purity 98%
Compound 2: propanoic acid, C3H6O2, InChI=1S/C3H6O2/c1-2-3(4)5/h2H2,1H3,(H,4,5), purity 99.5%
Compound 3: water, H2O, InChI=1S/H2O/h1H2, purity 99.9%
Compound 4: 5,10,15,20-tetraphenylporphyrin manganese(III) chloride, C44H28ClMnN4, InChI=1S/C44H28N4.ClH.Mn/c1-5-13-29(14-6-1)41-33-21-23-35(45-33)42(30-15-7-2-8-16-30)37-25-27-39(47-37)44(32-19-11-4-12-20-32)40-28-26-38(48-40)43(31-17-9-3-10-18-31)36-24-22-34(41)46-36;;/h1-28H;1H;/q-2;;+3/p-1/b41-33-,41-34-,42-35-,42-37-,43-36-,43-38-,44-39-,44-40-;;, purity 98%
Compound 5: dimethylformamide, C3H7NO, InChI=1S/C3H7NO/c1-4(2)3-5/h3H,1-2H3, purity 99.9%

System: propanoic acid + .alpha.,.beta.,.gamma.,.delta.-tetraphenylporphine + water; phases: Liquid, Crystal
Fixed: Pressure, kPa = 100
Property: Mole fraction of .alpha.,.beta.,.gamma.,.delta.-tetraphenylporphine (Liquid); method: UV spectrophotometer
Temperature, K	Solvent: Mole fraction of propanoic acid	Mole fraction of .alpha.,.beta.,.gamma.,.delta.-tetraphenylporphine	uncertainty
303.2	1	2.281e-05	1.37e-06
313.2	1	2.674e-05	1.61e-06
323.2	1	3.098e-05	1.86e-06
333.2	1	3.694e-05	2.22e-06
343.2	1	4.354e-05	2.62e-06
303.2	0.9226	1.643e-05	4.19e-06
313.2	0.9226	1.841e-05	5.1e-06
323.2	0.9226	2.081e-05	6.04e-06
333.2	0.9226	2.418e-05	7.43e-06
343.2	0.9226	2.849e-05	8.7e-06
303.2	0.8537	1.208e-05	2.96e-06
313.2	0.8537	1.368e-05	3.22e-06
323.2	0.8537	1.549e-05	3.64e-06
333.2	0.8537	1.784e-05	4.25e-06
343.2	0.8537	2.112e-05	5.08e-06
303.2	0.792	9.14e-06	1.97e-06
313.2	0.792	1.05e-05	2.3e-06
323.2	0.792	1.187e-05	2.65e-06
333.2	0.792	1.372e-05	3.15e-06
343.2	0.792	1.598e-05	3.95e-06
303.2	0.7365	7.42e-06	1.33e-06
313.2	0.7365	8.24e-06	1.68e-06
323.2	0.7365	9.21e-06	2.07e-06
333.2	0.7365	1.034e-05	2.63e-06
343.2	0.7365	1.167e-05	3.27e-06
303.2	0.6865	6.15e-06	1.11e-06
313.2	0.6865	6.69e-06	1.37e-06
323.2	0.6865	7.12e-06	1.76e-06
333.2	0.6865	7.62e-06	2.22e-06
343.2	0.6865	8.36e-06	2.77e-06

System: dimethylformamide + water + 5,10,15,20-tetraphenylporphyrin manganese(III) chloride; phases: Liquid, Crystal
Fixed: Pressure, kPa = 100
Property: Mole fraction of 5,10,15,20-tetraphenylporphyrin manganese(III) chloride (Liquid); method: UV spectrophotometer
Temperature, K	Solvent: Mole fraction of dimethylformamide	Mole fraction of 5,10,15,20-tetraphenylporphyrin manganese(III) chloride	uncertainty
303.2	1	0.01037	0.00062
313.2	1	0.01058	0.00064
323.2	1	0.01084	0.00065
333.2	1	0.01113	0.00067
343.2	1	0.0116	0.0007
303.2	0.9236	0.006617	0.00242
313.2	0.9236	0.006738	0.002419
323.2	0.9236	0.006866	0.002484
333.2	0.9236	0.007016	0.002531
343.2	0.9236	0.007206	0.002663
303.2	0.8554	0.004159	0.001551
313.2	0.8554	0.004396	0.001567
323.2	0.8554	0.004489	0.001566
333.2	0.8554	0.004664	0.001579
343.2	0.8554	0.004774	0.001604
303.2	0.7942	0.002772	0.000914
313.2	0.7942	0.002866	0.00098
323.2	0.7942	0.002996	0.000981
333.2	0.7942	0.003118	0.001013
343.2	0.7942	0.00324	0.001003
303.2	0.7391	0.001973	0.000522
313.2	0.7391	0.00206	0.000531
323.2	0.7391	0.002153	0.000554
333.2	0.7391	0.002251	0.000568
343.2	0.7391	0.002381	0.000581
303.2	0.6894	0.001576	0.000305
313.2	0.6894	0.001657	0.000315
323.2	0.6894	0.001735	0.000329
333.2	0.6894	0.001826	0.000339
343.2	0.6894	0.001914	0.000357
303.2	0.6439	0.001308	0.000229
313.2	0.6439	0.001374	0.000245
323.2	0.6439	0.001436	0.000255
333.2	0.6439	0.001514	0.000269
343.2	0.6439	0.001604	0.000271
303.2	0.6022	0.00109	0.00018
313.2	0.6022	0.001137	0.000193
323.2	0.6022	0.001194	0.000203
333.2	0.6022	0.001255	0.000221
343.2	0.6022	0.001342	0.000234
303.2	0.5641	0.000939	0.000143
313.2	0.5641	0.000976	0.000152
323.2	0.5641	0.001018	0.000163
333.2	0.5641	0.001055	0.000173
343.2	0.5641	0.00112	0.000188
303.2	0.5289	0.000806	0.000116
313.2	0.5289	0.000834	0.000124
323.2	0.5289	0.000866	0.000129
333.2	0.5289	0.000907	0.000133
343.2	0.5289	0.000962	0.000143
303.2	0.4965	0.000715	9.4e-05
313.2	0.4965	0.000736	9.8e-05
323.2	0.4965	0.000767	0.000103
333.2	0.4965	0.000796	0.000108
343.2	0.4965	0.000842	0.000121
