Measured thermophysical data. Thermodynamics of fuels with a biosynthetic component (III): Vapor liquid equilibrium data for the ternary mixture ethyl 1, 1-dimethylethyl ether, n-heptane and 1-hexene at T = 313.15K
Source: Fluid Phase Equilib., 2008, 10.1016/j.fluid.2007.12.005
Compound 1: 2-ethoxy-2-methylpropane, C6H14O, InChI=1S/C6H14O/c1-5-7-6(2,3)4/h5H2,1-4H3
Compound 2: hex-1-ene, C6H12, InChI=1S/C6H12/c1-3-5-6-4-2/h3H,1,4-6H2,2H3
Compound 3: heptane, C7H16, InChI=1S/C7H16/c1-3-5-7-6-4-2/h3-7H2,1-2H3

System: 2-ethoxy-2-methylpropane; phases: Liquid, Gas
Fixed: Temperature, K = 313.15
Property: Vapor or sublimation pressure, kPa (Liquid); method: Closed cell (Static) method
Vapor or sublimation pressure, kPa	uncertainty
31.644	0.119
31.65	0.119

System: hex-1-ene; phases: Liquid, Gas
Fixed: Temperature, K = 313.15
Property: Vapor or sublimation pressure, kPa (Liquid); method: Closed cell (Static) method
Vapor or sublimation pressure, kPa	uncertainty
44.963	0.242
44.953	0.241

System: heptane; phases: Liquid, Gas
Fixed: Temperature, K = 313.15
Property: Vapor or sublimation pressure, kPa (Liquid); method: Closed cell (Static) method
Vapor or sublimation pressure, kPa	uncertainty
12.313	0.056
12.316	0.056

System: heptane + 2-ethoxy-2-methylpropane; phases: Liquid, Gas
Fixed: Temperature, K = 313.15
Property: Vapor or sublimation pressure, kPa (Liquid); method: Closed cell (Static) method
Mole fraction of 2-ethoxy-2-methylpropane	Vapor or sublimation pressure, kPa	uncertainty
0.3001	19.043	0.086
0.6999	26.46	0.108

System: hex-1-ene + 2-ethoxy-2-methylpropane; phases: Liquid, Gas
Fixed: Temperature, K = 313.15
Property: Vapor or sublimation pressure, kPa (Liquid); method: Closed cell (Static) method
Mole fraction of 2-ethoxy-2-methylpropane	Vapor or sublimation pressure, kPa	uncertainty
0.3001	41.266	0.194
0.6992	35.996	0.145

System: heptane + hex-1-ene; phases: Liquid, Gas
Fixed: Temperature, K = 313.15
Property: Vapor or sublimation pressure, kPa (Liquid); method: Closed cell (Static) method
Mole fraction of heptane	Vapor or sublimation pressure, kPa	uncertainty
0.301	35.155	0.172
0.6977	22.32	0.103

System: heptane + hex-1-ene + 2-ethoxy-2-methylpropane; phases: Liquid, Gas
Fixed: Temperature, K = 313.15
Property: Vapor or sublimation pressure, kPa (Liquid); method: Closed cell (Static) method
Mole fraction of 2-ethoxy-2-methylpropane	Mole fraction of heptane	Vapor or sublimation pressure, kPa	uncertainty
0	0	44.963	0.242
0	0.301	35.155	0.172
0	0.6977	22.32	0.103
0	1	12.313	0.056
0.0001	0	44.953	0.241
0.0001	1	12.316	0.056
0.025	0.2934	35.111	0.171
0.0265	0.6792	22.658	0.104
0.0499	0.286	35.071	0.169
0.0509	0.6622	22.975	0.105
0.0999	0.2709	34.968	0.166
0.101	0.6272	23.579	0.106
0.1499	0.5004	27.023	0.121
0.1501	0.2558	34.868	0.163
0.1501	0.3498	31.901	0.146
0.1503	0.5927	24.144	0.107
0.1649	0.4505	28.447	0.127
0.165	0.3845	30.617	0.138
0.1781	0.4065	29.695	0.132
0.18	0.4196	29.328	0.13
0.1947	0.351	31.254	0.141
0.1952	0.455	28.027	0.124
0.2	0.2407	34.742	0.16
0.2003	0.5579	24.696	0.109
0.2096	0.3014	32.662	0.148
0.2098	0.4891	26.772	0.118
0.2248	0.2509	34.098	0.155
0.2252	0.5251	25.458	0.112
0.2393	0.558	24.249	0.106
0.2397	0.2012	35.503	0.163
0.2492	0.2259	34.616	0.157
0.2493	0.5236	25.224	0.11
0.2546	0.1516	36.912	0.171
0.2547	0.5939	22.927	0.101
0.2692	0.6277	21.691	0.096
0.2702	0.0998	38.392	0.179
0.2818	0.6572	20.612	0.091
0.2851	0.0501	39.824	0.188
0.2899	0.676	19.922	0.089
0.2925	0.0255	40.534	0.191
0.299	0.2109	34.481	0.154
0.3001	0	41.266	0.194
0.3001	0.6999	19.043	0.086
0.3116	0.4802	25.853	0.112
0.3487	0.5012	24.752	0.106
0.3494	0.1497	35.826	0.16
0.3494	0.1957	34.333	0.152
0.3501	0.4533	26.212	0.112
0.3836	0.4513	25.889	0.11
0.3846	0.1648	34.907	0.153
0.3995	0.1806	34.178	0.149
0.3995	0.4188	26.681	0.113
0.4186	0.4012	27.015	0.114
0.4193	0.1797	33.994	0.147
0.4493	0.3841	27.147	0.115
0.4496	0.1655	34.015	0.146
0.4538	0.3509	28.146	0.119
0.4544	0.1948	33.05	0.141
0.4883	0.2093	32.151	0.136
0.4887	0.301	29.272	0.123
0.499	0.3494	27.597	0.116
0.4991	0.1506	33.845	0.144
0.524	0.2505	30.37	0.127
0.5242	0.2247	31.182	0.13
0.5585	0.2011	31.453	0.131
0.5594	0.2398	30.238	0.125
0.5937	0.1508	32.579	0.135
0.5938	0.2546	29.315	0.121
0.6289	0.1005	33.71	0.14
0.6305	0.2703	28.323	0.116
0.6622	0.2839	27.472	0.112
0.6632	0.0515	34.815	0.144
0.6762	0.2899	27.104	0.111
0.6813	0.0256	35.411	0.145
0.6992	0	35.996	0.145
0.6999	0.3001	26.46	0.108
1	0	31.644	0.119
1	0	31.65	0.119
