Measured thermophysical data. Liquid-liquid equilibria for the ternary system (water + tetradecane + 1-methyl-2-propoxyethoxy-2-propanol)
Source: Fluid Phase Equilib., 2013, 10.1016/j.fluid.2013.06.023
Compound 1: water, H2O, InChI=1S/H2O/h1H2
Compound 2: 1-(1-methyl-2-propoxyethoxy)-2-propanol, C9H20O3, InChI=1S/C9H20O3/c1-4-5-11-7-9(3)12-6-8(2)10/h8-10H,4-7H2,1-3H3, purity 99%
Compound 3: tetradecane, C14H30, InChI=1S/C14H30/c1-3-5-7-9-11-13-14-12-10-8-6-4-2/h3-14H2,1-2H3, purity 99%

System: tetradecane + water + 1-(1-methyl-2-propoxyethoxy)-2-propanol; phases: Liquid mixture 1, Liquid mixture 2, Liquid mixture 3
Property: Mass fraction of water (Liquid mixture 1); method: Chromatography
Property: Mass fraction of 1-(1-methyl-2-propoxyethoxy)-2-propanol (Liquid mixture 1); method: Chromatography
Property: Mass fraction of water (Liquid mixture 2); method: Chromatography
Property: Mass fraction of 1-(1-methyl-2-propoxyethoxy)-2-propanol (Liquid mixture 2); method: Chromatography
Property: Mass fraction of water (Liquid mixture 3); method: Chromatography
Property: Mass fraction of 1-(1-methyl-2-propoxyethoxy)-2-propanol (Liquid mixture 3); method: Chromatography
Temperature, K	Pressure, kPa	Mass fraction of water	uncertainty	Mass fraction of 1-(1-methyl-2-propoxyethoxy)-2-propanol	uncertainty	Mass fraction of water	uncertainty	Mass fraction of 1-(1-methyl-2-propoxyethoxy)-2-propanol	uncertainty	Mass fraction of water	uncertainty	Mass fraction of 1-(1-methyl-2-propoxyethoxy)-2-propanol	uncertainty
298.15	101	0.0135	0.0018	0.35	0.0031	0.0853	0.0019	0.7275	0.0026	0.8527	0.0021	0.14563	0.00207

System: tetradecane + water + 1-(1-methyl-2-propoxyethoxy)-2-propanol; phases: Liquid mixture 2, Liquid mixture 1
Fixed: Pressure, kPa = 101
Property: Mass fraction of 1-(1-methyl-2-propoxyethoxy)-2-propanol (Liquid mixture 2); method: Chromatography
Property: Mass fraction of 1-(1-methyl-2-propoxyethoxy)-2-propanol (Liquid mixture 1); method: Chromatography
Property: Mass fraction of water (Liquid mixture 1); method: Chromatography
Temperature, K	Mass fraction of water	Mass fraction of 1-(1-methyl-2-propoxyethoxy)-2-propanol	uncertainty	Mass fraction of 1-(1-methyl-2-propoxyethoxy)-2-propanol	uncertainty	Mass fraction of water	uncertainty
308.15	0.829	0.171	0.0028	0.1743	0.0049	0.8257	
318.15	0.9652	0.0343	0.0026	0.0003	0.0003	0.0661	
318.15	0.947	0.053	0.0026	0.0013	0.0013	0.138	
318.15	0.9348	0.0652	0.0026	0.0033	0.0018	0.2168	
318.15	0.9291	0.0709	0.0026	0.0063	0.0018	0.2944	
318.15	0.9266	0.0734	0.0026	0.0115	0.0018	0.3782	
318.15	0.9257	0.0743	0.0026	0.0191	0.0018	0.4627	
318.15	0.9251	0.0749	0.0026	0.0283	0.0018	0.5449	
318.15	0.9236	0.0764	0.0026	0.04	0.0018	0.6242	
318.15	0.9222	0.0778	0.0026	0.049	0.0019	0.6748	
308.15	0.9006	0.0994	0.0026	0.0061	0.0018	0.2776	
318.15	0.9216	0.0784	0.0026	0.0622	0.0019	0.7368	
318.15	0.9193	0.0807	0.0026	0.0858	0.0023	0.8048	
298.15	0.8535	0.1431	0.0027	0.0057	0.0018	0.2481	
318.15	0.9166	0.0834	0.0026	0.1468	0.0031	0.8532	
298.15	0.8675	0.129	0.0027	0.0021	0.0018	0.162	
298.15	0.8967	0.0999	0.0026	0.001	0.001	0.0939	
298.15	0.9395	0.0587	0.0025	0.0005	0.0005	0.0403	
308.15	0.9542	0.045	0.0026	0.0006	0.0006	0.0547	
308.15	0.9276	0.0724	0.0026	0.0011	0.0011	0.1203	
308.15	0.9116	0.0884	0.0026	0.0025	0.0018	0.1974	
308.15	0.8989	0.1011	0.0026	0.012	0.0018	0.3638	
308.15	0.8968	0.1032	0.0026	0.0201	0.0018	0.4499	
308.15	0.8979	0.1021	0.0026	0.03	0.0018	0.5333	
308.15	0.8975	0.1025	0.0026	0.0435	0.0019	0.6166	
308.15	0.8951	0.1049	0.0027	0.06	0.0019	0.6869	
308.15	0.8925	0.1075	0.0027	0.0756	0.002	0.7405	
308.15	0.8889	0.1111	0.0027	0.1033	0.0028	0.7964	

System: tetradecane + water + 1-(1-methyl-2-propoxyethoxy)-2-propanol; phases: Liquid mixture 2, Liquid mixture 1
Fixed: Pressure, kPa = 101
Property: Mass fraction of 1-(1-methyl-2-propoxyethoxy)-2-propanol (Liquid mixture 2); method: Chromatography
Property: Mass fraction of water (Liquid mixture 1); method: Chromatography
Property: Mass fraction of 1-(1-methyl-2-propoxyethoxy)-2-propanol (Liquid mixture 1); method: Chromatography
Temperature, K	Mass fraction of water	Mass fraction of 1-(1-methyl-2-propoxyethoxy)-2-propanol	uncertainty	Mass fraction of water	uncertainty	Mass fraction of 1-(1-methyl-2-propoxyethoxy)-2-propanol	uncertainty
298.15	0.8535	0.1431	0.0027	0.0057	0.0018	0.2481	
298.15	0.8675	0.129	0.0027	0.0021	0.0018	0.162	
298.15	0.8967	0.0999	0.0026	0.001	0.001	0.0939	
298.15	0.9395	0.0587	0.0025	0.0005	0.0005	0.0403	
308.15	0.9542	0.045	0.0026	0.0006	0.0006	0.0547	
308.15	0.9276	0.0724	0.0026	0.0011	0.0011	0.1203	
308.15	0.9116	0.0884	0.0026	0.0025	0.0018	0.1974	
308.15	0.9006	0.0994	0.0026	0.0061	0.0018	0.2776	
308.15	0.8989	0.1011	0.0026	0.012	0.0018	0.3638	
308.15	0.8968	0.1032	0.0026	0.0201	0.0018	0.4499	
308.15	0.8979	0.1021	0.0026	0.03	0.0018	0.5333	
308.15	0.8975	0.1025	0.0026	0.0435	0.0019	0.6166	
308.15	0.8951	0.1049	0.0027	0.06	0.0019	0.6869	
308.15	0.8925	0.1075	0.0027	0.0756	0.002	0.7405	
308.15	0.8889	0.1111	0.0027	0.1033	0.0028	0.7964	
308.15	0.829	0.171	0.0028	0.1743	0.0049	0.8257	
318.15	0.9652	0.0343	0.0026	0.0003	0.0003	0.0661	
318.15	0.947	0.053	0.0026	0.0013	0.0013	0.138	
318.15	0.9348	0.0652	0.0026	0.0033	0.0018	0.2168	
318.15	0.9291	0.0709	0.0026	0.0063	0.0018	0.2944	
318.15	0.9266	0.0734	0.0026	0.0115	0.0018	0.3782	
318.15	0.9257	0.0743	0.0026	0.0191	0.0018	0.4627	
318.15	0.9251	0.0749	0.0026	0.0283	0.0018	0.5449	
318.15	0.9236	0.0764	0.0026	0.04	0.0018	0.6242	
318.15	0.9222	0.0778	0.0026	0.049	0.0019	0.6748	
318.15	0.9216	0.0784	0.0026	0.0622	0.0019	0.7368	
318.15	0.9193	0.0807	0.0026	0.0858	0.0023	0.8048	
318.15	0.9166	0.0834	0.0026	0.1468	0.0031	0.8532	

System: tetradecane + water + 1-(1-methyl-2-propoxyethoxy)-2-propanol; phases: Liquid mixture 2, Liquid mixture 1
Fixed: Temperature, K = 298.15
Fixed: Pressure, kPa = 101
Property: Mass fraction of 1-(1-methyl-2-propoxyethoxy)-2-propanol (Liquid mixture 2); method: Chromatography
Property: Mass fraction of 1-(1-methyl-2-propoxyethoxy)-2-propanol (Liquid mixture 1); method: Chromatography
Property: Mass fraction of water (Liquid mixture 1); method: Chromatography
Mass fraction of water	Mass fraction of 1-(1-methyl-2-propoxyethoxy)-2-propanol	uncertainty	Mass fraction of 1-(1-methyl-2-propoxyethoxy)-2-propanol	uncertainty	Mass fraction of water	uncertainty
0.8443	0.1557	0.0021	0.7711	0.0024	0.1042	
0.8436	0.1564	0.0021	0.8132	0.0022	0.1312	
0.8281	0.1719	0.0022	0.7947	0.0023	0.2053	
