Measured thermophysical data. Isobaric vapor-liquid equilibrium for four binary systems of thiophene
Source: Fluid Phase Equilib., 2012, 10.1016/j.fluid.2011.11.020
Compound 1: thiophene, C4H4S, InChI=1S/C4H4S/c1-2-4-5-3-1/h1-4H, purity 99.5%
Compound 2: heptane, C7H16, InChI=1S/C7H16/c1-3-5-7-6-4-2/h3-7H2,1-2H3, purity 99.5%
Compound 3: 2,3-dimethyl-1-butene, C6H12, InChI=1S/C6H12/c1-5(2)6(3)4/h6H,1H2,2-4H3, purity 99.5%
Compound 4: 2,3-dimethyl-2-butene, C6H12, InChI=1S/C6H12/c1-5(2)6(3)4/h1-4H3, purity 99.5%
Compound 5: 2-methylbutane, C5H12, InChI=1S/C5H12/c1-4-5(2)3/h5H,4H2,1-3H3, purity 99.3%

System: thiophene; phases: Liquid, Gas
Property: Normal boiling temperature, K (Liquid); method: Ebulliometric method (Recirculating still)
Normal boiling temperature, K	uncertainty
357.42	0.2

System: heptane; phases: Liquid, Gas
Property: Normal boiling temperature, K (Liquid); method: Ebulliometric method (Recirculating still)
Normal boiling temperature, K	uncertainty
371.64	0.2

System: heptane; phases: Liquid, Gas
Property: Vapor or sublimation pressure, kPa (Liquid); method: Ebulliometric method (Recirculating still)
Temperature, K	Vapor or sublimation pressure, kPa	uncertainty
370.27	97.43	0.14
370.74	98.52	0.15
370.93	99.39	0.17
371.13	99.78	0.16
371.52	101.07	0.17
372.25	103.43	0.11
372.36	103.56	0.17
372.56	104.41	0.15
372.76	104.67	0.17
372.97	105.83	0.19
373.17	106.29	0.14
373.48	107.02	0.14

System: 2,3-dimethyl-1-butene; phases: Liquid, Gas
Property: Normal boiling temperature, K (Liquid); method: Ebulliometric method (Recirculating still)
Normal boiling temperature, K	uncertainty
328.88	0.2

System: 2,3-dimethyl-2-butene; phases: Liquid, Gas
Property: Normal boiling temperature, K (Liquid); method: Ebulliometric method (Recirculating still)
Normal boiling temperature, K	uncertainty
346.15	0.21

System: 2-methylbutane; phases: Liquid, Gas
Property: Normal boiling temperature, K (Liquid); method: Ebulliometric method (Recirculating still)
Normal boiling temperature, K	uncertainty
301.15	0.2

System: thiophene + heptane; phases: Liquid, Gas
Property: Azeotropic temperature, K (Liquid); method: By X=Y
Pressure, kPa	Azeotropic temperature, K	uncertainty
101.33	356.33	0.23

System: thiophene + heptane; phases: Liquid, Gas
Property: Azeotropic composition: mole fraction of thiophene (Liquid); method: By X=Y
Pressure, kPa	Azeotropic composition: mole fraction of thiophene	uncertainty
101.33	0.8499	0.0028

System: thiophene + heptane; phases: Liquid, Gas
Fixed: Pressure, kPa = 101.33
Property: Boiling temperature at pressure P, K (Liquid); method: Ebulliometric method (Recirculating still)
Mole fraction of thiophene	Boiling temperature at pressure P, K	uncertainty
0.0654	368.69	0.11
0.1137	367.09	0.11
0.209	364.09	0.11
0.2534	362.88	0.1
0.307	361.65	0.1
0.3561	360.61	0.1
0.4371	359.26	0.09
0.5245	358.3	0.09
0.5994	357.5	0.09
0.6805	356.85	0.09
0.7541	356.44	0.09
0.8288	356.39	0.09
0.8818	356.34	0.09
0.9038	356.34	0.09
0.9205	356.44	0.09
0.957	356.65	0.09
0.9683	356.73	0.09
0.9967	357.04	0.09

System: thiophene + heptane; phases: Gas, Liquid
Fixed: Pressure, kPa = 101.33
Property: Mole fraction of thiophene (Gas); method: Chromatography
Mole fraction of thiophene	Mole fraction of thiophene	uncertainty
0.0654	0.1363	0.0041
0.1137	0.2186	0.0041
0.209	0.3618	0.0047
0.2534	0.4169	0.0048
0.307	0.4786	0.0051
0.3561	0.5274	0.0049
0.4371	0.598	0.0043
0.5245	0.6502	0.0039
0.5994	0.697	0.0036
0.6805	0.7476	0.0033
0.7541	0.7906	0.003
0.8288	0.8337	0.0028
0.8818	0.8741	0.0028
0.9038	0.8937	0.0029
0.9205	0.9086	0.0029
0.957	0.9451	0.0029
0.9683	0.9584	0.0033
0.9967	0.9953	0.0033

System: 2-methylbutane + thiophene; phases: Liquid, Gas
Fixed: Pressure, kPa = 101.33
Property: Boiling temperature at pressure P, K (Liquid); method: Ebulliometric method (Recirculating still)
Mole fraction of thiophene	Boiling temperature at pressure P, K	uncertainty
0.2084	305.34	0.1
0.2084	305.34	0.1
0.2084	305.34	0.1
0.2084	305.34	0.1
0.2084	305.34	0.1
0.3236	308.01	0.1
0.4232	309.71	0.13
0.434	310.24	0.11
0.4481	310.55	0.1
0.4754	311.15	0.1
0.5263	312.45	0.1
0.5695	313.15	0.11
0.6214	315.05	0.12
0.6633	316.79	0.13
0.6728	317.25	0.12
0.6925	317.85	0.13
0.7163	319.15	0.18
0.7408	321.65	0.21
0.7502	322.27	0.16
0.7998	325.36	0.21
0.911	337.22	0.27
0.9512	345.08	0.41
0.9651	348.22	0.46
0.9802	351.57	0.45

System: 2-methylbutane + thiophene; phases: Gas, Liquid
Fixed: Pressure, kPa = 101.33
Property: Mole fraction of thiophene (Gas); method: Chromatography
Mole fraction of thiophene	Mole fraction of thiophene	uncertainty
0.2084	0.0543	0.0021
0.2084	0.0543	0.0021
0.2084	0.0543	0.0021
0.2084	0.0543	0.0021
0.2084	0.0543	0.0021
0.3236	0.0821	0.0022
0.4232	0.1039	0.0023
0.434	0.1073	0.0022
0.4481	0.1097	0.0022
0.4754	0.1123	0.0023
0.5263	0.1254	0.0023
0.5695	0.1375	0.0024
0.6214	0.1539	0.0025
0.6633	0.1729	0.0028
0.6728	0.179	0.0027
0.6925	0.1867	0.0028
0.7163	0.2044	0.003
0.7408	0.2213	0.0031
0.7502	0.2292	0.0033
0.7998	0.2759	0.0045
0.911	0.4846	0.0068
0.9512	0.6584	0.0098
0.9651	0.7327	0.012
0.9802	0.8259	0.0126

System: thiophene + 2,3-dimethyl-1-butene; phases: Liquid, Gas
Fixed: Pressure, kPa = 101.33
Property: Boiling temperature at pressure P, K (Liquid); method: Ebulliometric method (Recirculating still)
Mole fraction of thiophene	Boiling temperature at pressure P, K	uncertainty
0.1202	330.73	0.09
0.235	332.19	0.1
0.3512	333.9	0.1
0.4246	335.21	0.1
0.5009	336.52	0.1
0.5644	337.82	0.1
0.643	339.94	0.1
0.651	340.07	0.1
0.6916	341.25	0.11
0.7259	342.46	0.11
0.7744	344.08	0.12
0.8055	345.49	0.13
0.8571	347.82	0.13
0.8921	349.43	0.15
0.9289	351.9	0.16
0.9425	352.92	0.18
0.9825	356.03	0.18

System: thiophene + 2,3-dimethyl-1-butene; phases: Gas, Liquid
Fixed: Pressure, kPa = 101.33
Property: Mole fraction of thiophene (Gas); method: Chromatography
Mole fraction of thiophene	Mole fraction of thiophene	uncertainty
0.1202	0.0668	0.0023
0.235	0.1285	0.0025
0.3512	0.1805	0.0027
0.4246	0.2181	0.0029
0.5009	0.2612	0.0033
0.5644	0.3062	0.0036
0.643	0.3692	0.0044
0.651	0.3781	0.0044
0.6916	0.4169	0.0046
0.7259	0.4525	0.005
0.7744	0.5133	0.0054
0.8055	0.5572	0.0054
0.8571	0.6387	0.005
0.8921	0.6993	0.0053
0.9289	0.785	0.006
0.9425	0.8213	0.0064
0.9825	0.9412	0.0063

System: thiophene + 2,3-dimethyl-2-butene; phases: Liquid, Gas
Fixed: Pressure, kPa = 101.33
Property: Boiling temperature at pressure P, K (Liquid); method: Ebulliometric method (Recirculating still)
Mole fraction of thiophene	Boiling temperature at pressure P, K	uncertainty
0.0647	346.38	0.09
0.1761	346.46	0.09
0.2886	346.74	0.09
0.4083	347.34	0.09
0.5103	348.04	0.09
0.5976	348.8	0.09
0.6575	349.52	0.09
0.7022	350.12	0.1
0.7476	350.78	0.1
0.7907	351.48	0.1
0.8218	352.19	0.1
0.8548	352.88	0.1
0.8914	353.61	0.1
0.9451	355.14	0.11
0.9767	356.25	0.11

System: thiophene + 2,3-dimethyl-2-butene; phases: Gas, Liquid
Fixed: Pressure, kPa = 101.33
Property: Mole fraction of thiophene (Gas); method: Chromatography
Mole fraction of thiophene	Mole fraction of thiophene	uncertainty
0.0647	0.0643	0.0028
0.1761	0.1667	0.003
0.2886	0.2574	0.0034
0.4083	0.3508	0.0039
0.5103	0.424	0.0045
0.5976	0.4911	0.0051
0.6575	0.5432	0.0049
0.7022	0.5826	0.0046
0.7476	0.6238	0.0043
0.7907	0.6618	0.0042
0.8218	0.7	0.0043
0.8548	0.7449	0.0042
0.8914	0.7973	0.0042
0.9451	0.8849	0.0041
0.9767	0.9453	0.0043
