Measured thermophysical data. Thermodynamic and physicochemical properties of binary mixtures of sulfolane with ethylene glycol, diethylene glycol, triethylene glycol, and tetraethylene glycol systems at 303.15K
Source: Fluid Phase Equilib., 2007, 10.1016/j.fluid.2007.09.009
Compound 1: sulfolane, C4H8O2S, InChI=1S/C4H8O2S/c5-7(6)3-1-2-4-7/h1-4H2, purity 98%
Compound 2: 1,2-ethanediol, C2H6O2, InChI=1S/C2H6O2/c3-1-2-4/h3-4H,1-2H2, purity 99%
Compound 3: diethylene glycol, C4H10O3, InChI=1S/C4H10O3/c5-1-3-7-4-2-6/h5-6H,1-4H2, purity 99.5%
Compound 4: triethylene glycol, C6H14O4, InChI=1S/C6H14O4/c7-1-3-9-5-6-10-4-2-8/h7-8H,1-6H2, purity 99%
Compound 5: tetraethylene glycol, C8H18O5, InChI=1S/C8H18O5/c9-1-3-11-5-7-13-8-6-12-4-2-10/h9-10H,1-8H2, purity 99%

System: sulfolane; phases: Liquid
Property: Mass density, kg/m3 (Liquid); method: Pycnometric method
Temperature, K	Pressure, kPa	Mass density, kg/m3	uncertainty
303.15	101.325	1261.96	1.94

System: sulfolane; phases: Liquid
Property: Relative permittivity at various frequencies (Liquid); method: x
Temperature, K	Pressure, kPa	Frequency, MHz	Relative permittivity at various frequencies	uncertainty
303.15	101.3	3	43.33	0.04

System: 1,2-ethanediol; phases: Liquid
Property: Mass density, kg/m3 (Liquid); method: Pycnometric method
Temperature, K	Pressure, kPa	Mass density, kg/m3	uncertainty
303.15	101.325	1106.54	1.08

System: 1,2-ethanediol; phases: Liquid
Property: Relative permittivity at various frequencies (Liquid); method: x
Temperature, K	Pressure, kPa	Frequency, MHz	Relative permittivity at various frequencies	uncertainty
303.15	101.3	3	38.99	0.04

System: diethylene glycol; phases: Liquid
Property: Mass density, kg/m3 (Liquid); method: Pycnometric method
Temperature, K	Pressure, kPa	Mass density, kg/m3	uncertainty
303.15	101.325	1109.47	1

System: diethylene glycol; phases: Liquid
Property: Relative permittivity at various frequencies (Liquid); method: x
Temperature, K	Pressure, kPa	Frequency, MHz	Relative permittivity at various frequencies	uncertainty
303.15	101.3	3	30.03	0.04

System: triethylene glycol; phases: Liquid
Property: Mass density, kg/m3 (Liquid); method: Pycnometric method
Temperature, K	Pressure, kPa	Mass density, kg/m3	uncertainty
303.15	101.325	1115.83	1.09

System: triethylene glycol; phases: Liquid
Property: Relative permittivity at various frequencies (Liquid); method: x
Temperature, K	Pressure, kPa	Frequency, MHz	Relative permittivity at various frequencies	uncertainty
303.15	101.3	3	22.43	0.04

System: tetraethylene glycol; phases: Liquid
Property: Mass density, kg/m3 (Liquid); method: Pycnometric method
Temperature, K	Pressure, kPa	Mass density, kg/m3	uncertainty
303.15	101.325	1116.56	1.09

System: tetraethylene glycol; phases: Liquid
Property: Relative permittivity at various frequencies (Liquid); method: x
Temperature, K	Pressure, kPa	Frequency, MHz	Relative permittivity at various frequencies	uncertainty
303.15	101.3	3	19.35	0.04

System: 1,2-ethanediol + sulfolane; phases: Liquid
Fixed: Temperature, K = 303.15
Fixed: Pressure, kPa = 101.3
Fixed: Frequency, MHz = 3
Property: Relative permittivity at various frequencies (Liquid); method: OH-301 cell
Mole fraction of sulfolane	Relative permittivity at various frequencies	uncertainty
0	38.99	0.04
0.05	40.46	0.04
0.1	41.63	0.04
0.2	43.45	0.04
0.3007	44.63	0.04
0.4001	45.34	0.04
0.5	45.78	0.04
0.5999	45.92	0.04
0.7004	45.86	0.04
0.8001	45.45	0.04
0.9003	44.64	0.04
0.9501	44.03	0.04
1	43.33	0.04

System: 1,2-ethanediol + sulfolane; phases: Liquid
Fixed: Pressure, kPa = 101.3
Fixed: Temperature, K = 303.15
Property: Mass density, kg/m3 (Liquid); method: Pycnometric method
Mole fraction of sulfolane	Mass density, kg/m3	uncertainty
0	1106.54	1.08
0.05	1119.28	1.11
0.1	1131.2	1.13
0.2	1152.83	1.19
0.3007	1172.12	1.26
0.4001	1189.06	1.33
0.5	1204.34	1.41
0.5999	1218.12	1.5
0.7004	1230.68	1.59
0.8001	1242.01	1.7
0.9003	1252.44	1.82
0.9501	1257.29	1.88
1	1261.96	1.94

System: diethylene glycol + sulfolane; phases: Liquid
Fixed: Temperature, K = 303.15
Fixed: Pressure, kPa = 101.3
Fixed: Frequency, MHz = 3
Property: Relative permittivity at various frequencies (Liquid); method: OH-301 cell
Mole fraction of sulfolane	Relative permittivity at various frequencies	uncertainty
0	30.03	0.04
0.0502	31.08	0.04
0.1001	32.19	0.04
0.2004	34.48	0.04
0.2999	36.7	0.04
0.3989	38.62	0.04
0.5001	40.16	0.04
0.6017	41.24	0.04
0.7004	41.86	0.04
0.8005	42.41	0.04
0.9001	42.83	0.04
0.95	43.09	0.04
1	43.33	0.04

System: diethylene glycol + sulfolane; phases: Liquid
Fixed: Pressure, kPa = 101.3
Fixed: Temperature, K = 303.15
Property: Mass density, kg/m3 (Liquid); method: Pycnometric method
Mole fraction of sulfolane	Mass density, kg/m3	uncertainty
0	1109.47	1
0.0483	1116.8	1.02
0.0942	1123.77	1.03
0.1933	1138.84	1.07
0.2933	1154.05	1.12
0.3964	1169.75	1.18
0.4874	1183.62	1.25
0.5991	1200.66	1.35
0.6916	1214.78	1.45
0.7987	1231.15	1.59
0.9058	1247.53	1.77
0.9499	1254.28	1.85
1	1261.96	1.94

System: triethylene glycol + sulfolane; phases: Liquid
Fixed: Temperature, K = 303.15
Fixed: Pressure, kPa = 101.3
Fixed: Frequency, MHz = 3
Property: Relative permittivity at various frequencies (Liquid); method: OH-301 cell
Mole fraction of sulfolane	Relative permittivity at various frequencies	uncertainty
0	22.43	0.04
0.0499	24.16	0.04
0.0992	26.01	0.04
0.2006	29.83	0.04
0.2999	33.42	0.04
0.4011	36.66	0.04
0.4989	39.29	0.04
0.6008	41.23	0.04
0.7027	42.49	0.04
0.8002	43.02	0.04
0.9031	43.3	0.04
0.9491	43.38	0.04
1	43.33	0.04

System: triethylene glycol + sulfolane; phases: Liquid
Fixed: Pressure, kPa = 101.3
Fixed: Temperature, K = 303.15
Property: Mass density, kg/m3 (Liquid); method: Pycnometric method
Mole fraction of sulfolane	Mass density, kg/m3	uncertainty
0	1115.83	1.09
0.05	1121.07	1.11
0.1	1126.48	1.13
0.1999	1137.78	1.17
0.2973	1149.49	1.23
0.4003	1162.7	1.29
0.5	1176.38	1.37
0.6006	1191.16	1.45
0.6998	1206.8	1.55
0.8004	1223.87	1.66
0.9	1242.12	1.79
0.9502	1251.88	1.87
1	1261.96	1.94

System: tetraethylene glycol + sulfolane; phases: Liquid
Fixed: Temperature, K = 303.15
Fixed: Pressure, kPa = 101.3
Fixed: Frequency, MHz = 3
Property: Relative permittivity at various frequencies (Liquid); method: OH-301 cell
Mole fraction of sulfolane	Relative permittivity at various frequencies	uncertainty
0	19.35	0.04
0.0507	22.4	0.04
0.1	25.04	0.04
0.2005	29.62	0.04
0.3033	33.76	0.04
0.4009	37.08	0.04
0.5027	39.87	0.04
0.5999	41.81	0.04
0.6998	43.13	0.04
0.8003	43.8	0.04
0.901	43.89	0.04
0.9502	43.63	0.04
1	43.33	0.04

System: tetraethylene glycol + sulfolane; phases: Liquid
Fixed: Pressure, kPa = 101.3
Fixed: Temperature, K = 303.15
Property: Mass density, kg/m3 (Liquid); method: Pycnometric method
Mole fraction of sulfolane	Mass density, kg/m3	uncertainty
0	1116.56	1.09
0.1001	1124.9	1.13
0.2007	1134.13	1.17
0.2999	1144.18	1.22
0.4002	1155.46	1.28
0.5001	1168.01	1.35
0.6002	1182.15	1.44
0.7004	1198.18	1.54
0.7511	1207.13	1.59
0.8012	1216.61	1.65
0.9	1237.42	1.78
0.9498	1249.15	1.86
1	1261.96	1.94
