Measured thermophysical data. Measurement and prediction of pyrene solubility in pure, binary, ternary and quaternary solvent systems
Source: Fluid Phase Equilib., 2008, 10.1016/j.fluid.2007.11.001
Compound 1: pyrene, C16H10, InChI=1S/C16H10/c1-3-11-7-9-13-5-2-6-14-10-8-12(4-1)15(11)16(13)14/h1-10H
Compound 2: 1,4-dimethylbenzene, C8H10, InChI=1S/C8H10/c1-7-3-5-8(2)6-4-7/h3-6H,1-2H3
Compound 3: octane, C8H18, InChI=1S/C8H18/c1-3-5-7-8-6-4-2/h3-8H2,1-2H3
Compound 4: octan-1-ol, C8H18O, InChI=1S/C8H18O/c1-2-3-4-5-6-7-8-9/h9H,2-8H2,1H3
Compound 5: 2,2,4-trimethylpentane, C8H18, InChI=1S/C8H18/c1-7(2)6-8(3,4)5/h7H,6H2,1-5H3

System: 1,4-dimethylbenzene + pyrene; phases: Liquid, Crystal
Fixed: Pressure, kPa = 101
Property: Mole fraction of pyrene (Liquid); method: Beer's Law
Temperature, K	Mole fraction of pyrene	uncertainty
293	0.0777	0.0055
298	0.0863	0.0061
303	0.0976	0.0069
308	0.1093	0.0077
313	0.1236	0.0088
318	0.1367	0.0097

System: octane + pyrene; phases: Liquid, Crystal
Fixed: Pressure, kPa = 101
Property: Mole fraction of pyrene (Liquid); method: Beer's Law
Temperature, K	Mole fraction of pyrene	uncertainty
293	0.0156	0.0011
298	0.0169	0.0012
303	0.0195	0.0014
308	0.0219	0.0016
313	0.0259	0.0018
318	0.029	0.0021

System: octan-1-ol + pyrene; phases: Liquid, Crystal
Fixed: Pressure, kPa = 101
Property: Mole fraction of pyrene (Liquid); method: Beer's Law
Temperature, K	Mole fraction of pyrene	uncertainty
293	0.0219	0.0016
298	0.0241	0.0017
303	0.0285	0.002
308	0.0333	0.0024
313	0.0366	0.0026
318	0.0411	0.0029

System: pyrene + 2,2,4-trimethylpentane; phases: Liquid, Crystal
Fixed: Pressure, kPa = 101
Property: Mole fraction of pyrene (Liquid); method: Beer's Law
Temperature, K	Mole fraction of pyrene	uncertainty
293	0.0073	0.0005
298	0.0086	0.0006
303	0.0104	0.0007
308	0.012	0.0009
313	0.0135	0.001
318	0.0146	0.001

System: 1,4-dimethylbenzene + octane + pyrene; phases: Liquid, Crystal
Fixed: Pressure, kPa = 101
Property: Mole fraction of pyrene (Liquid); method: Beer's Law
Temperature, K	Solvent: Volume fraction of 1,4-dimethylbenzene	Mole fraction of pyrene	uncertainty
293	0	0.0156	0.0011
293	0.1	0.0179	0.0013
293	0.2	0.0234	0.0017
293	0.3	0.027	0.0019
293	0.4	0.0321	0.0023
293	0.5	0.0373	0.0026
293	0.6	0.0416	0.0029
293	0.7	0.0486	0.0034
293	0.8	0.0535	0.0038
293	0.9	0.0638	0.0045
293	1	0.0777	0.0055
298	0	0.0169	0.0012
298	0.1	0.0194	0.0014
298	0.2	0.0242	0.0017
298	0.3	0.0306	0.0022
298	0.4	0.0376	0.0027
298	0.5	0.0418	0.003
298	0.6	0.0453	0.0032
298	0.7	0.0563	0.004
298	0.8	0.0642	0.0045
298	0.9	0.0761	0.0054
298	1	0.0863	0.0061
303	0	0.0195	0.0014
303	0.1	0.0227	0.0016
303	0.2	0.0296	0.0021
303	0.3	0.0349	0.0025
303	0.4	0.0408	0.0029
303	0.5	0.0494	0.0035
303	0.6	0.0551	0.0039
303	0.7	0.0629	0.0045
303	0.8	0.0729	0.0052
303	0.9	0.0839	0.0059
303	1	0.0976	0.0069
308	0	0.0219	0.0016
308	0.1	0.0261	0.0018
308	0.2	0.0329	0.0023
308	0.3	0.039	0.0028
308	0.4	0.0469	0.0033
308	0.5	0.054	0.0038
308	0.6	0.0607	0.0043
308	0.7	0.0727	0.0052
308	0.8	0.0841	0.006
308	0.9	0.0982	0.007
308	1	0.1093	0.0077
313	0	0.0259	0.0018
313	0.1	0.0296	0.0021
313	0.2	0.0377	0.0027
313	0.3	0.0466	0.0033
313	0.4	0.0497	0.0035
313	0.5	0.0606	0.0043
313	0.6	0.0671	0.0048
313	0.7	0.0847	0.006
313	0.8	0.0952	0.0067
313	0.9	0.1088	0.0077
313	1	0.1236	0.0088
318	0	0.029	0.0021
318	0.1	0.0348	0.0025
318	0.2	0.0424	0.003
318	0.3	0.0553	0.0039
318	0.4	0.0602	0.0043
318	0.5	0.0703	0.005
318	0.6	0.0769	0.0055
318	0.7	0.0978	0.0069
318	0.8	0.1094	0.0078
318	0.9	0.1179	0.0084
318	1	0.1367	0.0097

System: 1,4-dimethylbenzene + octan-1-ol + pyrene; phases: Liquid, Crystal
Fixed: Pressure, kPa = 101
Property: Mole fraction of pyrene (Liquid); method: Beer's Law
Temperature, K	Solvent: Volume fraction of 1,4-dimethylbenzene	Mole fraction of pyrene	uncertainty
293	0	0.0219	0.0016
293	0.01	0.0232	0.0016
293	0.02	0.0236	0.0017
293	0.03	0.029	0.0021
293	0.04	0.0333	0.0024
293	0.05	0.0414	0.0029
293	0.06	0.0484	0.0034
293	0.07	0.0518	0.0037
293	0.08	0.0614	0.0043
293	0.09	0.0672	0.0048
293	0.1	0.0777	0.0055
298	0	0.0241	0.0017
298	0.01	0.0258	0.0018
298	0.02	0.0268	0.0019
298	0.03	0.0336	0.0024
298	0.04	0.0393	0.0028
298	0.05	0.0449	0.0032
298	0.06	0.0558	0.004
298	0.07	0.059	0.0042
298	0.08	0.0694	0.0049
298	0.09	0.0775	0.0055
298	0.1	0.0863	0.0061
303	0	0.0285	0.002
303	0.01	0.0298	0.0021
303	0.02	0.0319	0.0023
303	0.03	0.0399	0.0028
303	0.04	0.0436	0.0031
303	0.05	0.0502	0.0036
303	0.06	0.0611	0.0043
303	0.07	0.0658	0.0047
303	0.08	0.0791	0.0056
303	0.09	0.0871	0.0062
303	0.1	0.0976	0.0069
308	0	0.0333	0.0024
308	0.01	0.0357	0.0025
308	0.02	0.0376	0.0027
308	0.03	0.0468	0.0033
308	0.04	0.0492	0.0035
308	0.05	0.0587	0.0042
308	0.06	0.0649	0.0046
308	0.07	0.0775	0.0055
308	0.08	0.0888	0.0063
308	0.09	0.0985	0.007
308	0.1	0.1093	0.0077
313	0	0.0366	0.0026
313	0.01	0.0368	0.0026
313	0.02	0.0391	0.0028
313	0.03	0.0499	0.0035
313	0.04	0.0542	0.0038
313	0.05	0.0627	0.0044
313	0.06	0.0727	0.0051
313	0.07	0.0904	0.0064
313	0.08	0.1001	0.0071
313	0.09	0.1092	0.0077
313	0.1	0.1236	0.0088
318	0	0.0411	0.0029
318	0.01	0.0426	0.003
318	0.02	0.0502	0.0036
318	0.03	0.0566	0.004
318	0.04	0.0625	0.0044
318	0.05	0.0707	0.005
318	0.06	0.0808	0.0057
318	0.07	0.0998	0.0071
318	0.08	0.111	0.0079
318	0.09	0.1198	0.0085
318	0.1	0.1367	0.0097

System: octane + pyrene + 2,2,4-trimethylpentane; phases: Liquid, Crystal
Fixed: Pressure, kPa = 101
Property: Mole fraction of pyrene (Liquid); method: Beer's Law
Temperature, K	Solvent: Volume fraction of octane	Mole fraction of pyrene	uncertainty
293	0	0.0073	0.0005
293	0.1	0.0086	0.0006
293	0.2	0.0087	0.0006
293	0.3	0.0091	0.0006
293	0.4	0.0095	0.0007
293	0.5	0.01	0.0007
293	0.6	0.0119	0.0008
293	0.7	0.0129	0.0009
293	0.8	0.0139	0.001
293	0.9	0.0148	0.001
293	1	0.0156	0.0011
298	0	0.0086	0.0006
298	0.1	0.0099	0.0007
298	0.2	0.0102	0.0007
298	0.3	0.0105	0.0007
298	0.4	0.0108	0.0008
298	0.5	0.0111	0.0008
298	0.6	0.0135	0.001
298	0.7	0.0141	0.001
298	0.8	0.0151	0.0011
298	0.9	0.0156	0.0011
298	1	0.0169	0.0012
303	0	0.0104	0.0007
303	0.1	0.0116	0.0008
303	0.2	0.0119	0.0008
303	0.3	0.012	0.0009
303	0.4	0.0122	0.0009
303	0.5	0.0135	0.001
303	0.6	0.0144	0.001
303	0.7	0.0152	0.0011
303	0.8	0.0161	0.0011
303	0.9	0.0168	0.0012
303	1	0.0195	0.0014
308	0	0.012	0.0009
308	0.1	0.0143	0.001
308	0.2	0.0145	0.001
308	0.3	0.0159	0.0011
308	0.4	0.0163	0.0012
308	0.5	0.0167	0.0012
308	0.6	0.0168	0.0012
308	0.7	0.0172	0.0012
308	0.8	0.0179	0.0013
308	0.9	0.0189	0.0013
308	1	0.0219	0.0016
313	0	0.0135	0.001
313	0.1	0.0148	0.001
313	0.2	0.0149	0.0011
313	0.3	0.0162	0.0011
313	0.4	0.0169	0.0012
313	0.5	0.0172	0.0012
313	0.6	0.0173	0.0012
313	0.7	0.0196	0.0014
313	0.8	0.02	0.0014
313	0.9	0.0207	0.0015
313	1	0.0259	0.0018
318	0	0.0146	0.001
318	0.1	0.0151	0.0011
318	0.2	0.0164	0.0012
318	0.3	0.0186	0.0013
318	0.4	0.0188	0.0013
318	0.5	0.0189	0.0013
318	0.6	0.0197	0.0014
318	0.7	0.0209	0.0015
318	0.8	0.0227	0.0016
318	0.9	0.0238	0.0017
318	1	0.029	0.0021

System: 1,4-dimethylbenzene + pyrene + 2,2,4-trimethylpentane; phases: Liquid, Crystal
Fixed: Pressure, kPa = 101
Property: Mole fraction of pyrene (Liquid); method: Beer's Law
Temperature, K	Solvent: Volume fraction of 1,4-dimethylbenzene	Mole fraction of pyrene	uncertainty
293	0	0.0073	0.0005
293	0.1	0.0111	0.0008
293	0.2	0.0158	0.0011
293	0.3	0.0225	0.0016
293	0.4	0.0262	0.0019
293	0.5	0.0335	0.0024
293	0.6	0.0382	0.0027
293	0.7	0.0438	0.0031
293	0.8	0.0506	0.0036
293	0.9	0.0591	0.0042
293	1	0.0777	0.0055
298	0	0.0086	0.0006
298	0.1	0.0135	0.001
298	0.2	0.0191	0.0014
298	0.3	0.0244	0.0017
298	0.4	0.0311	0.0022
298	0.5	0.0356	0.0025
298	0.6	0.0448	0.0032
298	0.7	0.0487	0.0034
298	0.8	0.0575	0.0041
298	0.9	0.0649	0.0046
298	1	0.0863	0.0061
303	0	0.0104	0.0007
303	0.1	0.0155	0.0011
303	0.2	0.0206	0.0015
303	0.3	0.0278	0.002
303	0.4	0.0346	0.0024
303	0.5	0.0443	0.0031
303	0.6	0.0509	0.0036
303	0.7	0.0571	0.004
303	0.8	0.067	0.0047
303	0.9	0.0759	0.0054
303	1	0.0976	0.0069
308	0	0.012	0.0009
308	0.1	0.019	0.0013
308	0.2	0.0242	0.0017
308	0.3	0.0318	0.0023
308	0.4	0.0388	0.0027
308	0.5	0.05	0.0035
308	0.6	0.0552	0.0039
308	0.7	0.0633	0.0045
308	0.8	0.0732	0.0052
308	0.9	0.0832	0.0059
308	1	0.1093	0.0077
313	0	0.0135	0.001
313	0.1	0.0228	0.0016
313	0.2	0.0299	0.0021
313	0.3	0.0389	0.0028
313	0.4	0.0484	0.0034
313	0.5	0.0555	0.0039
313	0.6	0.0654	0.0046
313	0.7	0.0747	0.0053
313	0.8	0.0817	0.0058
313	0.9	0.0949	0.0067
313	1	0.1236	0.0088
318	0	0.0146	0.001
318	0.1	0.0248	0.0018
318	0.2	0.0339	0.0024
318	0.3	0.0444	0.0031
318	0.4	0.0517	0.0037
318	0.5	0.0584	0.0041
318	0.6	0.0692	0.0049
318	0.7	0.0787	0.0056
318	0.8	0.0918	0.0065
318	0.9	0.1069	0.0076
318	1	0.1367	0.0097

System: octane + octan-1-ol + pyrene; phases: Liquid, Crystal
Fixed: Pressure, kPa = 101
Property: Mole fraction of pyrene (Liquid); method: Beer's Law
Temperature, K	Solvent: Volume fraction of octane	Mole fraction of pyrene	uncertainty
293	0	0.0219	0.0016
293	0.1	0.02	0.0014
293	0.2	0.018	0.0013
293	0.3	0.0179	0.0013
293	0.4	0.0175	0.0012
293	0.5	0.0173	0.0012
293	0.6	0.0172	0.0012
293	0.7	0.0171	0.0012
293	0.8	0.017	0.0012
293	0.9	0.0162	0.0011
293	1	0.0156	0.0011
298	0	0.0241	0.0017
298	0.1	0.0228	0.0016
298	0.2	0.0227	0.0016
298	0.3	0.0223	0.0016
298	0.4	0.0216	0.0015
298	0.5	0.0209	0.0015
298	0.6	0.02	0.0014
298	0.7	0.0197	0.0014
298	0.8	0.0189	0.0013
298	0.9	0.0188	0.0013
298	1	0.0169	0.0012
303	0	0.0285	0.002
303	0.1	0.0264	0.0019
303	0.2	0.0262	0.0019
303	0.3	0.0252	0.0018
303	0.4	0.0242	0.0017
303	0.5	0.0239	0.0017
303	0.6	0.0231	0.0016
303	0.7	0.0222	0.0016
303	0.8	0.0218	0.0015
303	0.9	0.0209	0.0015
303	1	0.0195	0.0014
308	0	0.0333	0.0024
308	0.1	0.0294	0.0021
308	0.2	0.0284	0.002
308	0.3	0.0275	0.0019
308	0.4	0.0273	0.0019
308	0.5	0.0269	0.0019
308	0.6	0.0264	0.0019
308	0.7	0.0248	0.0018
308	0.8	0.0237	0.0017
308	0.9	0.0226	0.0016
308	1	0.0219	0.0016
313	0	0.0366	0.0026
313	0.1	0.0336	0.0024
313	0.2	0.0328	0.0023
313	0.3	0.0327	0.0023
313	0.4	0.0326	0.0023
313	0.5	0.0321	0.0023
313	0.6	0.0315	0.0022
313	0.7	0.0294	0.0021
313	0.8	0.0276	0.002
313	0.9	0.0269	0.0019
313	1	0.0259	0.0018
318	0	0.0411	0.0029
318	0.1	0.0367	0.0026
318	0.2	0.0358	0.0025
318	0.3	0.0357	0.0025
318	0.4	0.0351	0.0025
318	0.5	0.0346	0.0024
318	0.6	0.034	0.0024
318	0.7	0.0331	0.0023
318	0.8	0.0316	0.0022
318	0.9	0.0305	0.0022
318	1	0.029	0.0021

System: octan-1-ol + pyrene + 2,2,4-trimethylpentane; phases: Liquid, Crystal
Fixed: Pressure, kPa = 101
Property: Mole fraction of pyrene (Liquid); method: Beer's Law
Temperature, K	Solvent: Volume fraction of 2,2,4-trimethylpentane	Mole fraction of pyrene	uncertainty
293	0	0.0219	0.0016
293	0.1	0.019	0.0013
293	0.2	0.0174	0.0012
293	0.3	0.0164	0.0012
293	0.4	0.0148	0.001
293	0.5	0.0145	0.001
293	0.6	0.0141	0.001
293	0.7	0.0133	0.0009
293	0.8	0.0122	0.0009
293	0.9	0.0103	0.0007
293	1	0.0073	0.0005
298	0	0.0241	0.0017
298	0.1	0.0221	0.0016
298	0.2	0.0192	0.0014
298	0.3	0.0186	0.0013
298	0.4	0.017	0.0012
298	0.5	0.0167	0.0012
298	0.6	0.0166	0.0012
298	0.7	0.015	0.0011
298	0.8	0.0139	0.001
298	0.9	0.0117	0.0008
298	1	0.0086	0.0006
303	0	0.0285	0.002
303	0.1	0.0243	0.0017
303	0.2	0.0225	0.0016
303	0.3	0.0217	0.0015
303	0.4	0.0213	0.0015
303	0.5	0.0209	0.0015
303	0.6	0.0178	0.0013
303	0.7	0.0172	0.0012
303	0.8	0.0155	0.0011
303	0.9	0.0137	0.001
303	1	0.0104	0.0007
308	0	0.0333	0.0024
308	0.1	0.0285	0.002
308	0.2	0.026	0.0018
308	0.3	0.0252	0.0018
308	0.4	0.0239	0.0017
308	0.5	0.0215	0.0015
308	0.6	0.0212	0.0015
308	0.7	0.0189	0.0013
308	0.8	0.0171	0.0012
308	0.9	0.0149	0.0011
308	1	0.012	0.0009
313	0	0.0366	0.0026
313	0.1	0.031	0.0022
313	0.2	0.0277	0.002
313	0.3	0.0275	0.0019
313	0.4	0.0272	0.0019
313	0.5	0.0243	0.0017
313	0.6	0.0234	0.0017
313	0.7	0.0213	0.0015
313	0.8	0.0202	0.0014
313	0.9	0.0165	0.0012
313	1	0.0135	0.001
318	0	0.0411	0.0029
318	0.1	0.0353	0.0025
318	0.2	0.033	0.0023
318	0.3	0.0322	0.0023
318	0.4	0.0295	0.0021
318	0.5	0.0276	0.002
318	0.6	0.0267	0.0019
318	0.7	0.0242	0.0017
318	0.8	0.0212	0.0015
318	0.9	0.0192	0.0014
318	1	0.0146	0.001
