Measured thermophysical data. Vapor liquid equilibrium for the binary systems tetrahydrothiophene + toluene and tetrahydrothiophene + o-xylene at 368.15 K and 383.15 K
Source: Fluid Phase Equilib., 2010, 10.1016/j.fluid.2009.11.017
Compound 1: tetrahydrothiophene, C4H8S, InChI=1S/C4H8S/c1-2-4-5-3-1/h1-4H2
Compound 2: 1,2-dimethylbenzene, C8H10, InChI=1S/C8H10/c1-7-5-3-4-6-8(7)2/h3-6H,1-2H3, purity 99.43%
Compound 3: toluene, C7H8, InChI=1S/C7H8/c1-7-5-3-2-4-6-7/h2-6H,1H3, purity 99.95%

System: tetrahydrothiophene; phases: Liquid, Gas
Property: Vapor or sublimation pressure, kPa (Liquid); method: Ebulliometric method (Recirculating still)
Temperature, K	Vapor or sublimation pressure, kPa	uncertainty
344.79	20.39	0.35
357.27	32.09	0.36
365.3	42.29	0.37
372.09	52.61	0.38
377.89	63.09	0.39
382.18	71.89	0.41
386.25	81.18	0.42
390.38	91.67	0.44
394.05	102.02	0.45

System: 1,2-dimethylbenzene; phases: Liquid, Gas
Property: Vapor or sublimation pressure, kPa (Liquid); method: Ebulliometric method (Recirculating still)
Temperature, K	Vapor or sublimation pressure, kPa	uncertainty
365.49	20.4	0.35
376.75	30.14	0.35
385.55	40.2	0.36
392.87	50.43	0.37
398.66	60.03	0.38
404.09	70.27	0.4
408.83	80.41	0.41
413.06	90.54	0.43
417.28	101.85	0.44

System: 1,2-dimethylbenzene + tetrahydrothiophene; phases: Gas, Liquid
Property: Vapor or sublimation pressure, kPa (Gas); method: Ebulliometric method (Recirculating still)
Mole fraction of tetrahydrothiophene	Temperature, K	Vapor or sublimation pressure, kPa	uncertainty
0	368.15	22.19	0.37
0	383.15	36.85	0.39
0.049	368.15	23.85	0.41
0.06	383.15	39.41	0.48
0.129	368.15	25.87	0.41
0.129	383.15	42.55	0.48
0.222	368.15	28.39	0.41
0.232	383.15	46.58	0.48
0.331	383.15	50.53	0.49
0.368	368.15	31.53	0.42
0.402	383.15	53.1	0.49
0.493	368.15	34.68	0.43
0.497	383.15	56.6	0.49
0.62	383.15	60.53	0.5
0.631	368.15	37.74	0.43
0.742	368.15	40.43	0.44
0.744	383.15	65.37	0.52
0.839	368.15	42.62	0.45
0.84	383.15	68.71	0.52
0.912	368.15	44.43	0.46
0.915	383.15	71.37	0.53
0.966	368.15	45.69	0.46
0.969	383.15	73.17	0.54
1	368.15	46.41	0.44
1	383.15	74.32	0.5

System: 1,2-dimethylbenzene + tetrahydrothiophene; phases: Gas, Liquid
Property: Mole fraction of tetrahydrothiophene (Gas); method: Chromatography
Mole fraction of tetrahydrothiophene	Temperature, K	Mole fraction of tetrahydrothiophene	uncertainty
0	368.15	0	0.001
0	383.15	0	0.001
0.049	368.15	0.1	0.013
0.06	383.15	0.115	0.012
0.129	368.15	0.243	0.012
0.129	383.15	0.234	0.011
0.222	368.15	0.38	0.01
0.232	383.15	0.382	0.011
0.331	383.15	0.506	0.01
0.368	368.15	0.549	0.01
0.402	383.15	0.574	0.009
0.493	368.15	0.665	0.009
0.497	383.15	0.654	0.009
0.62	383.15	0.756	0.008
0.631	368.15	0.77	0.008
0.742	368.15	0.849	0.007
0.744	383.15	0.845	0.008
0.839	368.15	0.91	0.007
0.84	383.15	0.906	0.007
0.912	368.15	0.953	0.007
0.915	383.15	0.953	0.007
0.966	368.15	0.982	0.007
0.969	383.15	0.983	0.007
1	368.15	1	0.001
1	383.15	1	0.001

System: toluene + tetrahydrothiophene; phases: Gas, Liquid
Property: Vapor or sublimation pressure, kPa (Gas); method: Ebulliometric method (Recirculating still)
Mole fraction of tetrahydrothiophene	Temperature, K	Vapor or sublimation pressure, kPa	uncertainty
0	368.15	63.51	0.49
0	383.15	99.4	0.57
0.069	368.15	62.59	0.49
0.076	383.15	97.83	0.57
0.153	368.15	61.44	0.49
0.158	383.15	96.4	0.57
0.262	368.15	59.59	0.49
0.27	383.15	93.91	0.57
0.381	368.15	57.54	0.48
0.39	383.15	90.76	0.56
0.502	368.15	55.42	0.48
0.504	383.15	87.95	0.56
0.612	383.15	85.16	0.55
0.615	368.15	53.41	0.47
0.715	368.15	51.49	0.47
0.715	383.15	82.26	0.55
0.804	368.15	49.8	0.46
0.811	383.15	79.46	0.54
0.883	368.15	48.29	0.46
0.893	383.15	77.1	0.53
0.934	368.15	47.15	0.45
0.934	383.15	76.01	0.53
1	368.15	46.41	0.44
1	383.15	74.12	0.5

System: toluene + tetrahydrothiophene; phases: Gas, Liquid
Property: Mole fraction of tetrahydrothiophene (Gas); method: Chromatography
Mole fraction of tetrahydrothiophene	Temperature, K	Mole fraction of tetrahydrothiophene	uncertainty
0	368.15	0	0.001
0	383.15	0	0.001
0.069	368.15	0.054	0.008
0.076	383.15	0.06	0.008
0.153	368.15	0.12	0.008
0.158	383.15	0.127	0.008
0.262	368.15	0.212	0.008
0.27	383.15	0.221	0.008
0.381	368.15	0.314	0.008
0.39	383.15	0.326	0.009
0.502	368.15	0.426	0.009
0.504	383.15	0.43	0.009
0.612	383.15	0.537	0.01
0.615	368.15	0.536	0.01
0.715	368.15	0.644	0.01
0.715	383.15	0.647	0.01
0.804	368.15	0.747	0.01
0.811	383.15	0.757	0.01
0.883	368.15	0.843	0.01
0.893	383.15	0.856	0.01
0.934	368.15	0.913	0.01
0.934	383.15	0.904	0.01
1	368.15	1	0.001
1	383.15	1	0.001
