Measured thermophysical data. Liquid-liquid phase equilibria of the quaternary system {water (1) + acrylic acid (2) + acetic acid (3) + cyclopentyl methyl ether (4)}: Measurement, correlation, and comparative study
Source: Fluid Phase Equilib., 2015, 10.1016/j.fluid.2015.06.008
Compound 1: water, H2O, InChI=1S/H2O/h1H2, purity 99.95%
Compound 2: methoxycyclopentane, C6H12O, InChI=1S/C6H12O/c1-7-6-4-2-3-5-6/h6H,2-5H2,1H3, purity 99.95%

System: methoxycyclopentane + water; phases: Liquid mixture 1, Liquid mixture 2
Fixed: Pressure, kPa = 100.25
Property: Mass fraction of water (Liquid mixture 1); method: Chromatography
Temperature, K	Mass fraction of water	uncertainty
293.15	0.0085	0.006
303.15	0.0101	0.006
313.15	0.0159	0.006

System: methoxycyclopentane + water; phases: Liquid mixture 2, Liquid mixture 1
Fixed: Pressure, kPa = 100.25
Property: Mass fraction of water (Liquid mixture 2); method: Chromatography
Temperature, K	Mass fraction of water	uncertainty
293.15	0.9892	0.006
303.15	0.9837	0.006
313.15	0.9811	0.006
