Measured thermophysical data. Physico-chemical properties and phase behaviour of piperidinium-based ionic liquids
Source: Fluid Phase Equilib., 2011, 10.1016/j.fluid.2010.12.008
Compound 1: 1-butyl-1-methylpiperidinium thiocyanate, C11H22N2S, InChI=1S/C10H22N.CHNS/c1-3-4-8-11(2)9-6-5-7-10-11;2-1-3/h3-10H2,1-2H3;3H/q+1;/p-1, purity 98%
Compound 2: 1-ethyl-1-methylpiperidinium bis(trifluoromethylsulfonyl)imide, C10H18F6N2O4S2, InChI=1S/C8H18N.C2F6NO4S2/c1-3-9(2)7-5-4-6-8-9;3-1(4,5)14(10,11)9-15(12,13)2(6,7)8/h3-8H2,1-2H3;/q+1;-1, purity 99%
Compound 3: octan-1-ol, C8H18O, InChI=1S/C8H18O/c1-2-3-4-5-6-7-8-9/h9H,2-8H2,1H3
Compound 4: nonan-1-ol, C9H20O, InChI=1S/C9H20O/c1-2-3-4-5-6-7-8-9-10/h10H,2-9H2,1H3
Compound 5: decan-1-ol, C10H22O, InChI=1S/C10H22O/c1-2-3-4-5-6-7-8-9-10-11/h11H,2-10H2,1H3
Compound 6: dodecan-1-ol, C12H26O, InChI=1S/C12H26O/c1-2-3-4-5-6-7-8-9-10-11-12-13/h13H,2-12H2,1H3
Compound 7: water, H2O, InChI=1S/H2O/h1H2
Compound 8: benzene, C6H6, InChI=1S/C6H6/c1-2-4-6-5-3-1/h1-6H
Compound 9: hexan-1-ol, C6H14O, InChI=1S/C6H14O/c1-2-3-4-5-6-7/h7H,2-6H2,1H3
Compound 10: heptan-1-ol, C7H16O, InChI=1S/C7H16O/c1-2-3-4-5-6-7-8/h8H,2-7H2,1H3
Compound 11: hexane, C6H14, InChI=1S/C6H14/c1-3-5-6-4-2/h3-6H2,1-2H3
Compound 12: heptane, C7H16, InChI=1S/C7H16/c1-3-5-7-6-4-2/h3-7H2,1-2H3
Compound 13: octane, C8H18, InChI=1S/C8H18/c1-3-5-7-8-6-4-2/h3-8H2,1-2H3
Compound 14: cyclohexane, C6H12, InChI=1S/C6H12/c1-2-4-6-5-3-1/h1-6H2
Compound 15: cycloheptane, C7H14, InChI=1S/C7H14/c1-2-4-6-7-5-3-1/h1-7H2
Compound 16: toluene, C7H8, InChI=1S/C7H8/c1-7-5-3-2-4-6-7/h2-6H,1H3
Compound 17: ethylbenzene, C8H10, InChI=1S/C8H10/c1-2-8-6-4-3-5-7-8/h3-7H,2H2,1H3
Compound 18: ethanol, C2H6O, InChI=1S/C2H6O/c1-2-3/h3H,2H2,1H3
Compound 19: butan-1-ol, C4H10O, InChI=1S/C4H10O/c1-2-3-4-5/h5H,2-4H2,1H3
Compound 20: propan-1-ol, C3H8O, InChI=1S/C3H8O/c1-2-3-4/h4H,2-3H2,1H3
Compound 21: pentan-1-ol, C5H12O, InChI=1S/C5H12O/c1-2-3-4-5-6/h6H,2-5H2,1H3

System: 1-butyl-1-methylpiperidinium thiocyanate; phases: Crystal 1, Liquid, Air at 1 atmosphere
Property: Normal melting temperature, K (Crystal 1); method: DTA
Normal melting temperature, K	uncertainty
304.32	0.5

System: 1-butyl-1-methylpiperidinium thiocyanate; phases: Crystal 1, Liquid, Air at 1 atmosphere
Property: Molar enthalpy of transition or fusion, kJ/mol (Crystal 1); method: DSC
Molar enthalpy of transition or fusion, kJ/mol	uncertainty
3.022	0.202

System: 1-butyl-1-methylpiperidinium thiocyanate; phases: Crystal 2, Crystal 1, Air at 1 atmosphere
Property: Triple point temperature, K (Crystal 2); method: DTA
Triple point temperature, K	uncertainty
274.2	0.5

System: 1-butyl-1-methylpiperidinium thiocyanate; phases: Crystal 2, Crystal 1, Air at 1 atmosphere
Property: Molar enthalpy of transition or fusion, kJ/mol (Crystal 2); method: DSC
Molar enthalpy of transition or fusion, kJ/mol	uncertainty
15.27	0.49

System: 1-butyl-1-methylpiperidinium thiocyanate; phases: Glass, Liquid, Air at 1 atmosphere
Property: Triple point temperature, K (Glass); method: DTA
Triple point temperature, K	uncertainty
201.3	10

System: 1-ethyl-1-methylpiperidinium bis(trifluoromethylsulfonyl)imide; phases: Crystal 1, Liquid, Air at 1 atmosphere
Property: Normal melting temperature, K (Crystal 1); method: DTA
Normal melting temperature, K	uncertainty
358.04	0.5

System: 1-ethyl-1-methylpiperidinium bis(trifluoromethylsulfonyl)imide; phases: Crystal 1, Liquid, Air at 1 atmosphere
Property: Molar enthalpy of transition or fusion, kJ/mol (Crystal 1); method: DSC
Molar enthalpy of transition or fusion, kJ/mol	uncertainty
16.61	0.52

System: 1-ethyl-1-methylpiperidinium bis(trifluoromethylsulfonyl)imide; phases: Crystal 1, Liquid, Air at 1 atmosphere
Property: Normal melting temperature, K (Crystal 1); method: VISOBS
Normal melting temperature, K	uncertainty
357.71	0.5

System: 1-ethyl-1-methylpiperidinium bis(trifluoromethylsulfonyl)imide; phases: Crystal 3, Crystal 2, Air at 1 atmosphere
Property: Triple point temperature, K (Crystal 3); method: DTA
Triple point temperature, K	uncertainty
215.8	0.5

System: 1-ethyl-1-methylpiperidinium bis(trifluoromethylsulfonyl)imide; phases: Crystal 2, Crystal 1, Air at 1 atmosphere
Property: Triple point temperature, K (Crystal 2); method: VISOBS
Triple point temperature, K	uncertainty
289.6	0.5

System: 1-ethyl-1-methylpiperidinium bis(trifluoromethylsulfonyl)imide; phases: Crystal 3, Crystal 2, Air at 1 atmosphere
Property: Molar enthalpy of transition or fusion, kJ/mol (Crystal 3); method: DSC
Molar enthalpy of transition or fusion, kJ/mol	uncertainty
2.45	0.17

System: 1-ethyl-1-methylpiperidinium bis(trifluoromethylsulfonyl)imide; phases: Crystal 2, Crystal 1, Air at 1 atmosphere
Property: Molar enthalpy of transition or fusion, kJ/mol (Crystal 2); method: DSC
Molar enthalpy of transition or fusion, kJ/mol	uncertainty
3.53	0.19

System: octan-1-ol; phases: Crystal 1, Liquid, Air at 1 atmosphere
Property: Normal melting temperature, K (Crystal 1); method: VISOBS:corrimp
Normal melting temperature, K	uncertainty
257.15	1.08

System: nonan-1-ol; phases: Crystal 1, Liquid, Air at 1 atmosphere
Property: Normal melting temperature, K (Crystal 1); method: VISOBS:corrimp
Normal melting temperature, K	uncertainty
267.86	1.08

System: decan-1-ol; phases: Crystal 1, Liquid, Air at 1 atmosphere
Property: Normal melting temperature, K (Crystal 1); method: VISOBS:corrimp
Normal melting temperature, K	uncertainty
280.15	1.08

System: dodecan-1-ol; phases: Crystal 1, Liquid, Air at 1 atmosphere
Property: Normal melting temperature, K (Crystal 1); method: VISOBS:corrimp
Normal melting temperature, K	uncertainty
297.15	1.08

System: water; phases: Crystal 1, Liquid, Air at 1 atmosphere
Property: Normal melting temperature, K (Crystal 1); method: VISOBS:corrimp
Normal melting temperature, K	uncertainty
273.15	1.08

System: hexan-1-ol; phases: Crystal 1, Liquid, Air at 1 atmosphere
Property: Normal melting temperature, K (Crystal 1); method: VISOBS:corrimp
Normal melting temperature, K	uncertainty
228.15	1.08

System: heptan-1-ol; phases: Crystal 1, Liquid, Air at 1 atmosphere
Property: Normal melting temperature, K (Crystal 1); method: VISOBS:corrimp
Normal melting temperature, K	uncertainty
238.55	1.08

System: octan-1-ol + 1-butyl-1-methylpiperidinium thiocyanate; phases: Liquid, Crystal 1
Fixed: Pressure, kPa = 101
Property: Solid-liquid equilibrium temperature, K (Liquid); method: VISOBS:corrimp
Mole fraction of 1-butyl-1-methylpiperidinium thiocyanate	Solid-liquid equilibrium temperature, K	uncertainty
1	304.32	1.01
0.8791	292.85	1.01
0.8024	286.61	1.01
0.7454	282.84	1.01
0.6874	279.67	1.01
0.6185	275.67	1.01
0.5803	272.65	1.01
0.5707	271.56	1.02

System: octan-1-ol + 1-butyl-1-methylpiperidinium thiocyanate; phases: Liquid, Crystal 3
Fixed: Pressure, kPa = 101
Property: Solid-liquid equilibrium temperature, K (Liquid); method: VISOBS:corrimp
Mole fraction of 1-butyl-1-methylpiperidinium thiocyanate	Solid-liquid equilibrium temperature, K	uncertainty
0.5431	276.45	1.01
0.5221	277.07	1.01
0.4864	274.85	1.01
0.4497	272.97	1.01
0.4169	271.27	1.01
0.3832	269.38	1.01
0.3561	267.79	1.01
0.3324	266.66	1.01
0.309	265.61	1.01
0.2816	264.1	1.01
0.2643	263.1	1.01
0.2462	262.13	1.01
0.2252	260.85	1.01
0.2013	259.35	1.01
0.2108	260.16	1.01
0.1866	257.97	1.01

System: octan-1-ol + 1-butyl-1-methylpiperidinium thiocyanate; phases: Liquid, Crystal 1
Fixed: Pressure, kPa = 101
Property: Solid-liquid equilibrium temperature, K (Liquid); method: VISOBS:corrimp
Mole fraction of 1-butyl-1-methylpiperidinium thiocyanate	Solid-liquid equilibrium temperature, K	uncertainty
0.1565	255.34	1.01
0.1332	255.7	1.01
0.1005	256.19	1.01
0.0866	256.49	1.01
0.0697	256.71	1.01
0.0405	256.95	1.01
0	257.15	1.01

System: nonan-1-ol + 1-butyl-1-methylpiperidinium thiocyanate; phases: Liquid, Crystal 1
Fixed: Pressure, kPa = 101
Property: Solid-liquid equilibrium temperature, K (Liquid); method: VISOBS:corrimp
Mole fraction of 1-butyl-1-methylpiperidinium thiocyanate	Solid-liquid equilibrium temperature, K	uncertainty
1	304.32	1.01
0.8738	293.99	1.01
0.7726	287.96	1.01
0.7119	284.41	1.01
0.6321	279.8	1.01
0.5761	276.29	1.01
0.5327	274.18	1.01

System: nonan-1-ol + 1-butyl-1-methylpiperidinium thiocyanate; phases: Liquid, Crystal 3
Fixed: Pressure, kPa = 101
Property: Solid-liquid equilibrium temperature, K (Liquid); method: VISOBS:corrimp
Mole fraction of 1-butyl-1-methylpiperidinium thiocyanate	Solid-liquid equilibrium temperature, K	uncertainty
0.5038	277.1	1.01
0.4601	275.04	1.01
0.4108	271.84	1.01
0.3682	269.92	1.01
0.334	268.56	1.01
0.302	267.34	1.01
0.2682	266.36	1.01

System: nonan-1-ol + 1-butyl-1-methylpiperidinium thiocyanate; phases: Liquid, Crystal 1
Fixed: Pressure, kPa = 101
Property: Solid-liquid equilibrium temperature, K (Liquid); method: VISOBS:corrimp
Mole fraction of 1-butyl-1-methylpiperidinium thiocyanate	Solid-liquid equilibrium temperature, K	uncertainty
0.2458	266.67	1.01
0.2115	266.94	1.01
0.1653	267.14	1.01
0.1115	267.35	1.01
0.0738	267.55	1.01
0	267.86	1.01

System: decan-1-ol + 1-butyl-1-methylpiperidinium thiocyanate; phases: Liquid, Crystal 1
Fixed: Pressure, kPa = 101
Property: Solid-liquid equilibrium temperature, K (Liquid); method: VISOBS:corrimp
Mole fraction of 1-butyl-1-methylpiperidinium thiocyanate	Solid-liquid equilibrium temperature, K	uncertainty
1	304.32	1.01
0.9309	298.57	1.01
0.8605	295.11	1.01
0.8032	292.97	1.01
0.7541	291.13	1.01
0.7098	289.47	1.01
0.665	287.9	1.01
0.631	286.29	1.01
0.6072	284.86	1.01
0.5775	283.11	1.01
0.5233	278.92	1.01
0.4824	274.73	1.02

System: decan-1-ol + 1-butyl-1-methylpiperidinium thiocyanate; phases: Liquid, Crystal 1
Fixed: Pressure, kPa = 101
Property: Solid-liquid equilibrium temperature, K (Liquid); method: VISOBS:corrimp
Mole fraction of 1-butyl-1-methylpiperidinium thiocyanate	Solid-liquid equilibrium temperature, K	uncertainty
0.4436	275.23	1.01
0.4147	275.51	1.01
0.3891	275.86	1.01
0.3555	276.32	1.01
0.3185	276.78	1.01
0.2884	277.11	1.01
0.2347	277.81	1.01
0.2147	278.03	1.01
0.1913	278.29	1.01
0.154	278.8	1.01
0.1283	279.21	1.01
0.0958	279.41	1.01
0.0772	279.61	1.01
0.0431	279.99	1.01
0	280.15	1.01

System: dodecan-1-ol + 1-butyl-1-methylpiperidinium thiocyanate; phases: Liquid, Crystal 1
Fixed: Pressure, kPa = 101
Property: Solid-liquid equilibrium temperature, K (Liquid); method: VISOBS:corrimp
Mole fraction of 1-butyl-1-methylpiperidinium thiocyanate	Solid-liquid equilibrium temperature, K	uncertainty
1	304.32	1.01
0.9345	303.33	1.01
0.8003	301.56	1.01
0.6658	298.24	1.01
0.5511	295.03	1.01
0.4645	291.9	1.01

System: dodecan-1-ol + 1-butyl-1-methylpiperidinium thiocyanate; phases: Liquid, Crystal 1
Fixed: Pressure, kPa = 101
Property: Solid-liquid equilibrium temperature, K (Liquid); method: VISOBS:corrimp
Mole fraction of 1-butyl-1-methylpiperidinium thiocyanate	Solid-liquid equilibrium temperature, K	uncertainty
0.3965	293.1	1.01
0.3383	293.61	1.01
0.295	294.2	1.01
0.2473	294.97	1.01
0.202	295.66	1.01
0.1453	296.5	1.01
0.0578	297.11	1.01
0	297.15	1.01

System: water + 1-butyl-1-methylpiperidinium thiocyanate; phases: Liquid, Crystal 1
Fixed: Pressure, kPa = 101
Property: Solid-liquid equilibrium temperature, K (Liquid); method: VISOBS:corrimp
Mole fraction of 1-butyl-1-methylpiperidinium thiocyanate	Solid-liquid equilibrium temperature, K	uncertainty
1	304.32	1.01
0.952	298.83	1.02
0.936	296.76	1.02
0.901	291.03	1.02
0.874	286.62	1.03
0.859	282.98	1.04
0.845	279.54	1.04
0.818	272.1	1.05

System: water + 1-butyl-1-methylpiperidinium thiocyanate; phases: Liquid, Crystal 3
Fixed: Pressure, kPa = 101
Property: Solid-liquid equilibrium temperature, K (Liquid); method: VISOBS:corrimp
Mole fraction of 1-butyl-1-methylpiperidinium thiocyanate	Solid-liquid equilibrium temperature, K	uncertainty
0.7885	277.1	1.02
0.7564	272.94	1.02
0.7265	268.8	1.02
0.6954	263.81	1.02
0.6797	261.34	1.02
0.6666	259.41	1.03
0.6384	254.14	1.03
0.5906	244.53	1.03

System: water + 1-butyl-1-methylpiperidinium thiocyanate; phases: Liquid, Crystal 1
Fixed: Pressure, kPa = 101
Property: Solid-liquid equilibrium temperature, K (Liquid); method: VISOBS:corrimp
Mole fraction of 1-butyl-1-methylpiperidinium thiocyanate	Solid-liquid equilibrium temperature, K	uncertainty
0.2749	240.99	1.05
0.2414	250.53	1.04
0.2067	258.08	1.03
0.1765	262.26	1.02
0.1401	265.88	1.01
0.1049	268.38	1.01
0.0689	270.2	1.01
0.03	271.82	1.01
0	273.15	1.01

System: benzene + 1-butyl-1-methylpiperidinium thiocyanate; phases: Crystal 1, Liquid mixture 1, Liquid mixture 2, Air at 1 atmosphere
Property: Monotectic temperature, K (Crystal 1); method: VISOBS
Monotectic temperature, K	uncertainty
277.9	0.53

System: benzene + 1-butyl-1-methylpiperidinium thiocyanate; phases: Liquid, Crystal 1
Fixed: Pressure, kPa = 101
Property: Solid-liquid equilibrium temperature, K (Liquid); method: VISOBS:corrimp
Mole fraction of 1-butyl-1-methylpiperidinium thiocyanate	Solid-liquid equilibrium temperature, K	uncertainty
1	304.32	1.01
0.9289	292.98	1.04
0.9226	291.53	1.04
0.8693	283.23	1.06
0.8599	280.27	1.05
0.8534	278.62	1.06
0.8398	274.13	1.04
0.8194	270.15	1.03

System: benzene + 1-butyl-1-methylpiperidinium thiocyanate; phases: Liquid, Crystal 3
Fixed: Pressure, kPa = 101
Property: Solid-liquid equilibrium temperature, K (Liquid); method: VISOBS:corrimp
Mole fraction of 1-butyl-1-methylpiperidinium thiocyanate	Solid-liquid equilibrium temperature, K	uncertainty
0.8151	275.03	1.41
0.8	276.35	1.01
0.7781	275.79	1.01
0.7619	274.96	1.01
0.7459	273.38	1.01
0.7092	270.13	1.01
0.6744	267.72	1.01
0.6206	263.5	1.01
0.5793	261.09	1.01
0.5371	259.74	1.01

System: benzene + 1-butyl-1-methylpiperidinium thiocyanate; phases: Liquid, Crystal 1
Fixed: Pressure, kPa = 101
Property: Solid-liquid equilibrium temperature, K (Liquid); method: VISOBS:corrimp
Mole fraction of 1-butyl-1-methylpiperidinium thiocyanate	Solid-liquid equilibrium temperature, K	uncertainty
0.4938	263.77	1.02
0.465	267.53	1.02
0.4327	271.34	1.02
0.3967	274.75	1.01

System: benzene + 1-butyl-1-methylpiperidinium thiocyanate; phases: Liquid mixture 1, Liquid mixture 2
Fixed: Pressure, kPa = 101
Property: Liquid-liquid equilibrium temperature, K (Liquid mixture 1); method: VISOBS
Mole fraction of 1-butyl-1-methylpiperidinium thiocyanate	Liquid-liquid equilibrium temperature, K	uncertainty
0.3756	348.29	4
0.3607	322.4	4
0.3545	312.94	4
0.3482	294.19	4

System: hexan-1-ol + 1-butyl-1-methylpiperidinium thiocyanate; phases: Liquid, Crystal 1
Fixed: Pressure, kPa = 101
Property: Solid-liquid equilibrium temperature, K (Liquid); method: VISOBS:corrimp
Mole fraction of 1-butyl-1-methylpiperidinium thiocyanate	Solid-liquid equilibrium temperature, K	uncertainty
1	304.32	1.01
0.9926	302.27	1.04
0.9851	300.64	1.03
0.9746	298.27	1.03
0.964	295.99	1.03
0.9506	293.26	1.03
0.9385	290.44	1.03
0.9263	288.02	1.03
0.9134	285.6	1.03
0.9004	283.12	1.03
0.8868	280.69	1.02
0.8726	278.58	1.02
0.8477	274.39	1.02

System: hexan-1-ol + 1-butyl-1-methylpiperidinium thiocyanate; phases: Liquid, Crystal 3
Fixed: Pressure, kPa = 101
Property: Solid-liquid equilibrium temperature, K (Liquid); method: VISOBS:corrimp
Mole fraction of 1-butyl-1-methylpiperidinium thiocyanate	Solid-liquid equilibrium temperature, K	uncertainty
0.8602	276.44	1.01
0.8348	276.79	1.01
0.823	277.16	1.01
0.8113	277.09	1.01
0.7904	276.77	1.01
0.7679	275.83	1.01
0.7435	274.73	1.01
0.7195	273.69	1.01
0.6945	272.64	1.01
0.6599	271.31	1.01
0.6225	269.73	1.01
0.5849	268.24	1.01
0.5368	266.34	1.01
0.5023	264.79	1.01
0.4124	260.61	1.01
0.367	258.48	1.01
0.3354	257.02	1.01
0.2597	253.28	1.01
0.221	251.57	1.01
0.2086	250.93	1.01
0.1909	249.51	1.01
0.177	248.46	1.01
0.1437	246	1.01
0.1133	243.03	1.02
0.0854	240.07	1.02
0.0592	237.17	1.02
0.0321	232.99	1.02

System: hexan-1-ol + 1-butyl-1-methylpiperidinium thiocyanate; phases: Liquid, Crystal 1
Property: Solid-liquid equilibrium temperature, K (Liquid); method: VISOBS:corrimp
Mole fraction of 1-butyl-1-methylpiperidinium thiocyanate	Pressure, kPa	Solid-liquid equilibrium temperature, K	uncertainty
0	101	228.15	1.01

System: heptan-1-ol + 1-butyl-1-methylpiperidinium thiocyanate; phases: Liquid, Crystal 1
Fixed: Pressure, kPa = 101
Property: Solid-liquid equilibrium temperature, K (Liquid); method: VISOBS:corrimp
Mole fraction of 1-butyl-1-methylpiperidinium thiocyanate	Solid-liquid equilibrium temperature, K	uncertainty
1	304.32	1.01
0.9396	294.79	1.02
0.8946	290.09	1.01
0.8602	286.79	1.01
0.8211	283.1	1.02
0.7735	277.96	1.02
0.7456	272.79	1.03

System: heptan-1-ol + 1-butyl-1-methylpiperidinium thiocyanate; phases: Liquid, Crystal 3
Fixed: Pressure, kPa = 101
Property: Solid-liquid equilibrium temperature, K (Liquid); method: VISOBS:corrimp
Mole fraction of 1-butyl-1-methylpiperidinium thiocyanate	Solid-liquid equilibrium temperature, K	uncertainty
0.7216	275.18	2.01
0.7008	276.52	2.01
0.6698	277.1	1.01
0.64	275.64	1.01
0.5894	273.94	1.01
0.5389	271.72	1.01
0.4857	270.11	1.01
0.4423	267.64	1.01
0.3551	263.92	1.01
0.3259	262.39	1.01
0.3004	261.16	1.01
0.2553	258.78	1.01
0.2261	257.28	1.01
0.1856	255.17	1.01
0.1563	253.52	1.01
0.1309	252.05	1.01
0.1098	250.79	1.01
0.086	249.38	1.01
0.0698	247.72	1.01
0.0504	246.46	1.01
0.0295	244.27	1.02
0.0149	241.15	1.05
0.0093	238.5	1.12

System: heptan-1-ol + 1-butyl-1-methylpiperidinium thiocyanate; phases: Liquid, Crystal 1
Property: Solid-liquid equilibrium temperature, K (Liquid); method: VISOBS:corrimp
Mole fraction of 1-butyl-1-methylpiperidinium thiocyanate	Pressure, kPa	Solid-liquid equilibrium temperature, K	uncertainty
0	101	238.55	1.01

System: hexane + 1-butyl-1-methylpiperidinium thiocyanate; phases: Crystal 1, Liquid mixture 1, Liquid mixture 2, Air at 1 atmosphere
Property: Monotectic temperature, K (Crystal 1); method: VISOBS
Monotectic temperature, K	uncertainty
302.34	0.53

System: hexane + 1-butyl-1-methylpiperidinium thiocyanate; phases: Liquid, Crystal 1
Fixed: Pressure, kPa = 101
Property: Solid-liquid equilibrium temperature, K (Liquid); method: VISOBS:corrimp
Mole fraction of 1-butyl-1-methylpiperidinium thiocyanate	Solid-liquid equilibrium temperature, K	uncertainty
1	304.32	1.01
0.99	303.9	1.01
0.9788	303.08	1.01
0.9701	302.58	1.01

System: hexane + 1-butyl-1-methylpiperidinium thiocyanate; phases: Liquid mixture 1, Liquid mixture 2
Fixed: Pressure, kPa = 101
Property: Liquid-liquid equilibrium temperature, K (Liquid mixture 1); method: VISOBS
Mole fraction of 1-butyl-1-methylpiperidinium thiocyanate	Liquid-liquid equilibrium temperature, K	uncertainty
0.9617	303.78	4.54
0.9593	308.92	4.25
0.9551	313.54	4.16
0.9476	322.02	4.12
0.9388	329.51	4.08
0.9267	339.1	4.08
0.9187	345.79	4.08
0.9081	354.13	4.08
0.9015	359.3	4.1
0.8962	364.51	4.1
0.8875	371.56	4.08

System: heptane + 1-butyl-1-methylpiperidinium thiocyanate; phases: Crystal 1, Liquid mixture 1, Liquid mixture 2, Air at 1 atmosphere
Property: Monotectic temperature, K (Crystal 1); method: VISOBS
Monotectic temperature, K	uncertainty
302.99	0.53

System: heptane + 1-butyl-1-methylpiperidinium thiocyanate; phases: Liquid, Crystal 1
Fixed: Pressure, kPa = 101
Property: Solid-liquid equilibrium temperature, K (Liquid); method: VISOBS:corrimp
Mole fraction of 1-butyl-1-methylpiperidinium thiocyanate	Solid-liquid equilibrium temperature, K	uncertainty
1	304.32	1.01
0.9881	303.85	1.01
0.9837	303.39	1.02

System: heptane + 1-butyl-1-methylpiperidinium thiocyanate; phases: Liquid mixture 1, Liquid mixture 2
Fixed: Pressure, kPa = 101
Property: Liquid-liquid equilibrium temperature, K (Liquid mixture 1); method: VISOBS
Mole fraction of 1-butyl-1-methylpiperidinium thiocyanate	Liquid-liquid equilibrium temperature, K	uncertainty
0.979	309.88	4
0.9706	321.34	4
0.9669	328.26	4
0.9627	334.29	4
0.9595	338.58	4
0.9562	342.88	4
0.9494	351.27	4
0.9448	356.34	4
0.9344	365.09	4
0.9261	372.22	4
0.919	378.49	4
0.9082	389.69	4

System: octane + 1-butyl-1-methylpiperidinium thiocyanate; phases: Crystal 1, Liquid mixture 1, Liquid mixture 2, Air at 1 atmosphere
Property: Monotectic temperature, K (Crystal 1); method: VISOBS
Monotectic temperature, K	uncertainty
303.92	0.53

System: octane + 1-butyl-1-methylpiperidinium thiocyanate; phases: Liquid, Crystal 1
Fixed: Pressure, kPa = 101
Property: Solid-liquid equilibrium temperature, K (Liquid); method: VISOBS:corrimp
Mole fraction of 1-butyl-1-methylpiperidinium thiocyanate	Solid-liquid equilibrium temperature, K	uncertainty
1	304.32	1.01
0.9964	304.17	1.01
0.9921	304	1.01

System: octane + 1-butyl-1-methylpiperidinium thiocyanate; phases: Liquid mixture 1, Liquid mixture 2
Fixed: Pressure, kPa = 101
Property: Liquid-liquid equilibrium temperature, K (Liquid mixture 1); method: VISOBS
Mole fraction of 1-butyl-1-methylpiperidinium thiocyanate	Liquid-liquid equilibrium temperature, K	uncertainty
0.9866	312.12	4
0.9815	324.46	4
0.9775	334.28	4
0.9734	344.18	4
0.9699	352.46	4
0.9657	360.24	4
0.9606	367.23	4
0.9489	383.49	4
0.9408	394.76	4

System: cyclohexane + 1-butyl-1-methylpiperidinium thiocyanate; phases: Crystal 1, Liquid mixture 1, Liquid mixture 2, Air at 1 atmosphere
Property: Monotectic temperature, K (Crystal 1); method: VISOBS
Monotectic temperature, K	uncertainty
303.79	0.53

System: cyclohexane + 1-butyl-1-methylpiperidinium thiocyanate; phases: Liquid, Crystal 1
Fixed: Pressure, kPa = 101
Property: Solid-liquid equilibrium temperature, K (Liquid); method: VISOBS:corrimp
Mole fraction of 1-butyl-1-methylpiperidinium thiocyanate	Solid-liquid equilibrium temperature, K	uncertainty
1	304.32	1.01
0.9821	303.99	1.01
0.9729	303.88	1.01

System: cyclohexane + 1-butyl-1-methylpiperidinium thiocyanate; phases: Liquid mixture 1, Liquid mixture 2
Fixed: Pressure, kPa = 101
Property: Liquid-liquid equilibrium temperature, K (Liquid mixture 1); method: VISOBS
Mole fraction of 1-butyl-1-methylpiperidinium thiocyanate	Liquid-liquid equilibrium temperature, K	uncertainty
0.965	319.15	4
0.9604	328.83	4
0.9568	334.28	4
0.9514	341.31	4
0.9442	349.39	4
0.9396	355.28	4
0.9305	365.15	4

System: cycloheptane + 1-butyl-1-methylpiperidinium thiocyanate; phases: Crystal 1, Liquid mixture 1, Liquid mixture 2, Air at 1 atmosphere
Property: Monotectic temperature, K (Crystal 1); method: VISOBS
Monotectic temperature, K	uncertainty
303.93	0.53

System: cycloheptane + 1-butyl-1-methylpiperidinium thiocyanate; phases: Liquid, Crystal 1
Fixed: Pressure, kPa = 101
Property: Solid-liquid equilibrium temperature, K (Liquid); method: VISOBS:corrimp
Mole fraction of 1-butyl-1-methylpiperidinium thiocyanate	Solid-liquid equilibrium temperature, K	uncertainty
1	304.32	1.01
0.9886	304.06	1.01
0.9843	304	1.01

System: cycloheptane + 1-butyl-1-methylpiperidinium thiocyanate; phases: Liquid mixture 1, Liquid mixture 2
Fixed: Pressure, kPa = 101
Property: Liquid-liquid equilibrium temperature, K (Liquid mixture 1); method: VISOBS
Mole fraction of 1-butyl-1-methylpiperidinium thiocyanate	Liquid-liquid equilibrium temperature, K	uncertainty
0.9808	315.51	4
0.9761	331.35	4
0.9737	336.39	4
0.9694	346.76	4
0.9617	361.28	4
0.9576	368.84	4
0.9525	376.79	4

System: toluene + 1-butyl-1-methylpiperidinium thiocyanate; phases: Liquid, Crystal 1
Fixed: Pressure, kPa = 101
Property: Solid-liquid equilibrium temperature, K (Liquid); method: VISOBS:corrimp
Mole fraction of 1-butyl-1-methylpiperidinium thiocyanate	Solid-liquid equilibrium temperature, K	uncertainty
1	304.32	1.01
0.9492	295.18	1.02
0.8756	282.79	1.03
0.8507	275.13	1.06

System: toluene + 1-butyl-1-methylpiperidinium thiocyanate; phases: Liquid, Crystal 3
Fixed: Pressure, kPa = 101
Property: Solid-liquid equilibrium temperature, K (Liquid); method: VISOBS:corrimp
Mole fraction of 1-butyl-1-methylpiperidinium thiocyanate	Solid-liquid equilibrium temperature, K	uncertainty
0.7961	276.79	1.01
0.759	276.22	1.01
0.727	273.18	1.02
0.7002	269.77	1.02
0.6312	260.81	1.02

System: toluene + 1-butyl-1-methylpiperidinium thiocyanate; phases: Liquid mixture 1, Liquid mixture 2
Fixed: Pressure, kPa = 101
Property: Liquid-liquid equilibrium temperature, K (Liquid mixture 1); method: VISOBS
Mole fraction of 1-butyl-1-methylpiperidinium thiocyanate	Liquid-liquid equilibrium temperature, K	uncertainty
0.5447	322.24	4.12
0.5321	309.74	4.15
0.521	296.31	4.17
0.4913	262.51	4.14
0.4719	244.22	4.11

System: ethylbenzene + 1-butyl-1-methylpiperidinium thiocyanate; phases: Crystal 3, Liquid mixture 1, Liquid mixture 2, Air at 1 atmosphere
Property: Monotectic temperature, K (Crystal 3); method: VISOBS
Monotectic temperature, K	uncertainty
276.39	0.53

System: ethylbenzene + 1-butyl-1-methylpiperidinium thiocyanate; phases: Liquid, Crystal 1
Fixed: Pressure, kPa = 101
Property: Solid-liquid equilibrium temperature, K (Liquid); method: VISOBS:corrimp
Mole fraction of 1-butyl-1-methylpiperidinium thiocyanate	Solid-liquid equilibrium temperature, K	uncertainty
1	304.32	1.01
0.8808	292.71	1.02
0.7805	277.59	1.03
0.767	274.79	1.03

System: ethylbenzene + 1-butyl-1-methylpiperidinium thiocyanate; phases: Liquid mixture 1, Liquid mixture 2
Fixed: Pressure, kPa = 101
Property: Liquid-liquid equilibrium temperature, K (Liquid mixture 1); method: VISOBS
Mole fraction of 1-butyl-1-methylpiperidinium thiocyanate	Liquid-liquid equilibrium temperature, K	uncertainty
0.7297	333.15	4.07
0.703	313.31	4.09
0.6835	293.15	4.09
0.6605	276.42	4.07

System: ethanol + 1-ethyl-1-methylpiperidinium bis(trifluoromethylsulfonyl)imide; phases: Liquid, Crystal 1
Fixed: Pressure, kPa = 101
Property: Solid-liquid equilibrium temperature, K (Liquid); method: VISOBS:corrimp
Mole fraction of 1-ethyl-1-methylpiperidinium bis(trifluoromethylsulfonyl)imide	Solid-liquid equilibrium temperature, K	uncertainty
1	357.71	1.01
0.9481	353.01	1.01
0.9068	348.36	1.02
0.8557	342.47	1.02
0.8137	338.38	1.02
0.7764	333.27	1.02
0.7207	327.24	1.02
0.6881	322.12	1.02
0.6454	317.39	1.01
0.6086	314.26	1.02
0.5648	309.15	1.02
0.5403	306.27	1.01
0.4946	302.93	1.01
0.4582	299.59	1.01
0.3802	295.27	1.01
0.3415	294.05	1.01
0.2718	293.07	1.01
0.2269	291.26	1.01

System: ethanol + 1-ethyl-1-methylpiperidinium bis(trifluoromethylsulfonyl)imide; phases: Liquid, Metastable crystal
Fixed: Pressure, kPa = 101
Property: Solid-liquid equilibrium temperature, K (Liquid); method: VISOBS:corrimp
Mole fraction of 1-ethyl-1-methylpiperidinium bis(trifluoromethylsulfonyl)imide	Solid-liquid equilibrium temperature, K	uncertainty
0.1356	287.85	1.01
0.0922	285.81	1.01
0.0315	283.78	1.01
0.016	281.27	1.02

System: propan-1-ol + 1-ethyl-1-methylpiperidinium bis(trifluoromethylsulfonyl)imide; phases: Crystal 1, Liquid mixture 1, Liquid mixture 2, Air at 1 atmosphere
Property: Monotectic temperature, K (Crystal 1); method: VISOBS
Monotectic temperature, K	uncertainty
301.36	1.06

System: propan-1-ol + 1-ethyl-1-methylpiperidinium bis(trifluoromethylsulfonyl)imide; phases: Liquid, Crystal 1
Fixed: Pressure, kPa = 101
Property: Solid-liquid equilibrium temperature, K (Liquid); method: VISOBS:corrimp
Mole fraction of 1-ethyl-1-methylpiperidinium bis(trifluoromethylsulfonyl)imide	Solid-liquid equilibrium temperature, K	uncertainty
1	357.71	1.01
0.9548	353.58	1.01
0.9135	349.42	1.02
0.8826	345.92	1.02
0.846	342.3	1.02
0.7965	336.73	1.02
0.7709	333.74	1.02
0.7511	331.91	1.01
0.7061	328.23	1.01
0.6662	324.15	1.02
0.6225	319.58	1.01
0.5784	316.02	1.01
0.5411	313.47	1.01
0.5184	312.04	1.01
0.4726	309.32	1.01
0.4402	307.6	1.01
0.3878	305.73	1.01
0.3501	304.29	1.01
0.3209	303.4	1.01
0.2608	302.04	1.01
0.2321	301.65	1.01
0.197	301.37	1.01
0.034	301.02	1.02
0.0208	298.94	1.02

System: propan-1-ol + 1-ethyl-1-methylpiperidinium bis(trifluoromethylsulfonyl)imide; phases: Liquid mixture 1, Liquid mixture 2
Fixed: Pressure, kPa = 101
Property: Liquid-liquid equilibrium temperature, K (Liquid mixture 1); method: VISOBS
Mole fraction of 1-ethyl-1-methylpiperidinium bis(trifluoromethylsulfonyl)imide	Liquid-liquid equilibrium temperature, K	uncertainty
0.1553	302.27	4
0.1166	302.58	4
0.1045	302.4	4
0.0651	301.6	4

System: butan-1-ol + 1-ethyl-1-methylpiperidinium bis(trifluoromethylsulfonyl)imide; phases: Crystal 1, Liquid mixture 1, Liquid mixture 2, Air at 1 atmosphere
Property: Monotectic temperature, K (Crystal 1); method: VISOBS
Monotectic temperature, K	uncertainty
310.44	1.06

System: butan-1-ol + 1-ethyl-1-methylpiperidinium bis(trifluoromethylsulfonyl)imide; phases: Liquid, Crystal 1
Fixed: Pressure, kPa = 101
Property: Solid-liquid equilibrium temperature, K (Liquid); method: VISOBS:corrimp
Mole fraction of 1-ethyl-1-methylpiperidinium bis(trifluoromethylsulfonyl)imide	Solid-liquid equilibrium temperature, K	uncertainty
1	357.71	1.01
0.9674	354.52	1.01
0.9345	351.34	1.01
0.8905	347.34	1.01
0.8543	343.24	1.01
0.8005	339.18	1.01
0.7607	335.32	1.01
0.7239	332.24	1.02
0.6877	327.94	1.01
0.6304	323.36	1.01
0.575	319.04	1.01
0.5227	314.85	1.01
0.4915	312.62	1.01
0.0076	305.28	1.75
0.0055	302.28	1.75

System: butan-1-ol + 1-ethyl-1-methylpiperidinium bis(trifluoromethylsulfonyl)imide; phases: Liquid mixture 1, Liquid mixture 2
Fixed: Pressure, kPa = 101
Property: Liquid-liquid equilibrium temperature, K (Liquid mixture 1); method: VISOBS
Mole fraction of 1-ethyl-1-methylpiperidinium bis(trifluoromethylsulfonyl)imide	Liquid-liquid equilibrium temperature, K	uncertainty
0.4256	313.24	4
0.4021	315.07	4
0.3549	317.91	4
0.2952	321.89	4
0.2431	324.6	4
0.1794	326.23	4
0.132	326.46	4
0.0985	326.25	4
0.0774	325.82	4
0.052	323.85	4
0.0346	320.37	4.01
0.0204	316.6	4.02
0.0147	313.47	4.04

System: pentan-1-ol + 1-ethyl-1-methylpiperidinium bis(trifluoromethylsulfonyl)imide; phases: Crystal 1, Liquid mixture 1, Liquid mixture 2, Air at 1 atmosphere
Property: Monotectic temperature, K (Crystal 1); method: VISOBS
Monotectic temperature, K	uncertainty
322.6	1.06

System: pentan-1-ol + 1-ethyl-1-methylpiperidinium bis(trifluoromethylsulfonyl)imide; phases: Liquid, Crystal 1
Fixed: Pressure, kPa = 101
Property: Solid-liquid equilibrium temperature, K (Liquid); method: VISOBS:corrimp
Mole fraction of 1-ethyl-1-methylpiperidinium bis(trifluoromethylsulfonyl)imide	Solid-liquid equilibrium temperature, K	uncertainty
1	357.71	1.01
0.9613	354.02	1.01
0.9169	349.58	1.02
0.8794	345.72	1.02
0.8521	342.06	1.02
0.8179	338.92	1.01
0.784	335.49	1.01
0.7412	332.17	1.01
0.6797	328.05	1.01
0.6347	325.5	1.01
0.5769	322.87	1.01
0.5341	322.84	1.01
0.0087	317.7	1.96
0.0058	312.82	1.96

System: pentan-1-ol + 1-ethyl-1-methylpiperidinium bis(trifluoromethylsulfonyl)imide; phases: Liquid mixture 1, Liquid mixture 2
Fixed: Pressure, kPa = 101
Property: Liquid-liquid equilibrium temperature, K (Liquid mixture 1); method: VISOBS
Mole fraction of 1-ethyl-1-methylpiperidinium bis(trifluoromethylsulfonyl)imide	Liquid-liquid equilibrium temperature, K	uncertainty
0.5209	324.82	4
0.4973	327.36	4
0.4693	330.93	4
0.4334	334.06	4
0.3929	337.61	4
0.3465	340.65	4
0.3229	342.06	4
0.2883	343.8	4
0.2546	344.93	4
0.209	345.85	4
0.1667	346.2	4
0.1344	346.25	4
0.0959	345.76	4
0.0571	343.72	4
0.0358	340.45	4.03
0.0305	337.96	4.03
0.0204	332.8	4.05
0.0148	327.58	4.11

System: hexan-1-ol + 1-ethyl-1-methylpiperidinium bis(trifluoromethylsulfonyl)imide; phases: Crystal 1, Liquid mixture 1, Liquid mixture 2, Air at 1 atmosphere
Property: Monotectic temperature, K (Crystal 1); method: VISOBS
Monotectic temperature, K	uncertainty
329.58	1.06

System: hexan-1-ol + 1-ethyl-1-methylpiperidinium bis(trifluoromethylsulfonyl)imide; phases: Liquid, Crystal 1
Fixed: Pressure, kPa = 101
Property: Solid-liquid equilibrium temperature, K (Liquid); method: VISOBS:corrimp
Mole fraction of 1-ethyl-1-methylpiperidinium bis(trifluoromethylsulfonyl)imide	Solid-liquid equilibrium temperature, K	uncertainty
1	357.71	1.01
0.9444	352.94	1.01
0.8959	348.27	1.01
0.8613	345.58	1.02
0.8311	341.57	1.02
0.8087	339.23	1.01
0.7588	334.85	1.01
0.7139	332.27	1.01
0.6732	330.53	1.01
0.0048	324.9	1.01

System: hexan-1-ol + 1-ethyl-1-methylpiperidinium bis(trifluoromethylsulfonyl)imide; phases: Liquid mixture 1, Liquid mixture 2
Fixed: Pressure, kPa = 101
Property: Liquid-liquid equilibrium temperature, K (Liquid mixture 1); method: VISOBS
Mole fraction of 1-ethyl-1-methylpiperidinium bis(trifluoromethylsulfonyl)imide	Liquid-liquid equilibrium temperature, K	uncertainty
0.6359	332.01	4.01
0.6123	335.94	4
0.5668	341.29	4
0.5431	343.71	4
0.5188	346.79	4
0.4838	350.12	4
0.447	353.24	4
0.3998	356.6	4
0.3536	359.36	4
0.2869	362.85	4
0.2431	364.21	4
0.1863	364.8	4
0.1415	364.89	4
0.106	364.5	4
0.0786	363.4	4
0.051	361.26	4
0.036	359.14	4.01
0.0266	355.71	4.05
0.0186	348.59	4.11
0.0115	341.46	4.21
0.0106	336.39	4.24
0.0083	334.65	4.07

System: heptan-1-ol + 1-ethyl-1-methylpiperidinium bis(trifluoromethylsulfonyl)imide; phases: Crystal 1, Liquid mixture 1, Liquid mixture 2, Air at 1 atmosphere
Property: Monotectic temperature, K (Crystal 1); method: VISOBS
Monotectic temperature, K	uncertainty
335.28	1.06

System: heptan-1-ol + 1-ethyl-1-methylpiperidinium bis(trifluoromethylsulfonyl)imide; phases: Liquid, Crystal 1
Fixed: Pressure, kPa = 101
Property: Solid-liquid equilibrium temperature, K (Liquid); method: VISOBS:corrimp
Mole fraction of 1-ethyl-1-methylpiperidinium bis(trifluoromethylsulfonyl)imide	Solid-liquid equilibrium temperature, K	uncertainty
1	357.71	1.01
0.9706	355.24	1.01
0.9402	351.71	1.02
0.8941	347.13	1.01
0.8474	343.25	1.01
0.8054	340.15	1.01
0.7707	337.72	1.01
0.7439	336.21	1.01
0.0037	333.15	7.21
0.0031	327.73	6.64
0.0018	321.79	6.06
0.0011	314.6	7.21

System: heptan-1-ol + 1-ethyl-1-methylpiperidinium bis(trifluoromethylsulfonyl)imide; phases: Liquid mixture 1, Liquid mixture 2
Fixed: Pressure, kPa = 101
Property: Liquid-liquid equilibrium temperature, K (Liquid mixture 1); method: VISOBS
Mole fraction of 1-ethyl-1-methylpiperidinium bis(trifluoromethylsulfonyl)imide	Liquid-liquid equilibrium temperature, K	uncertainty
0.7062	337.19	4.01
0.6875	341.29	4.01
0.6641	345.65	4.01
0.6355	349.65	4.01
0.6217	351.96	4.01
0.5845	357.07	4
0.5464	361.86	4
0.503	366.36	4
0.4315	372.32	4
0.3794	376.25	4
0.3093	379.65	4
0.2589	381.97	4
0.1767	382.45	4
0.1237	382.1	4
0.0924	381.18	4
0.0711	379.49	4
0.0417	375.07	4.01
0.0214	364.58	4.07
0.017	361.36	4.08
0.0108	356.4	4.13
0.0081	351.8	4.99
0.0066	343.15	5.54
0.0046	338.15	4.72

System: octan-1-ol + 1-ethyl-1-methylpiperidinium bis(trifluoromethylsulfonyl)imide; phases: Crystal 1, Liquid mixture 1, Liquid mixture 2, Air at 1 atmosphere
Property: Monotectic temperature, K (Crystal 1); method: VISOBS
Monotectic temperature, K	uncertainty
342.69	1.06

System: octan-1-ol + 1-ethyl-1-methylpiperidinium bis(trifluoromethylsulfonyl)imide; phases: Liquid, Crystal 1
Fixed: Pressure, kPa = 101
Property: Solid-liquid equilibrium temperature, K (Liquid); method: VISOBS:corrimp
Mole fraction of 1-ethyl-1-methylpiperidinium bis(trifluoromethylsulfonyl)imide	Solid-liquid equilibrium temperature, K	uncertainty
1	357.71	1.01
0.9573	353.38	1.01
0.914	349.48	1.01
0.8798	346.79	1.01
0.8432	343.6	1.01

System: octan-1-ol + 1-ethyl-1-methylpiperidinium bis(trifluoromethylsulfonyl)imide; phases: Liquid mixture 1, Liquid mixture 2
Fixed: Pressure, kPa = 101
Property: Liquid-liquid equilibrium temperature, K (Liquid mixture 1); method: VISOBS
Mole fraction of 1-ethyl-1-methylpiperidinium bis(trifluoromethylsulfonyl)imide	Liquid-liquid equilibrium temperature, K	uncertainty
0.792	345.49	4.01
0.7785	347.91	4.01
0.7588	351.71	4.01
0.7347	355.49	4.01
0.715	359.02	4.01
0.6929	362.91	4.01
0.6373	370.27	4
0.5915	376.61	4
0.5232	384.38	4
0.4413	393.27	4
0.3782	398.84	4
0.2947	401.52	4
0.2182	403.6	4
0.2045	403.66	4
0.1827	403.65	4
0.1472	403.04	4
0.1054	402.3	4
0.064	398.97	4
0.0417	396.26	4.01
0.0335	392.91	4.03
0.024	388.24	4.06
0.0177	382.35	4.11
0.0103	375.53	4.11

System: nonan-1-ol + 1-ethyl-1-methylpiperidinium bis(trifluoromethylsulfonyl)imide; phases: Crystal 1, Liquid mixture 1, Liquid mixture 2, Air at 1 atmosphere
Property: Monotectic temperature, K (Crystal 1); method: VISOBS
Monotectic temperature, K	uncertainty
345.41	1.06

System: nonan-1-ol + 1-ethyl-1-methylpiperidinium bis(trifluoromethylsulfonyl)imide; phases: Liquid, Crystal 1
Fixed: Pressure, kPa = 101
Property: Solid-liquid equilibrium temperature, K (Liquid); method: VISOBS:corrimp
Mole fraction of 1-ethyl-1-methylpiperidinium bis(trifluoromethylsulfonyl)imide	Solid-liquid equilibrium temperature, K	uncertainty
1	357.71	1.01
0.9659	355.46	1.01
0.9306	352.1	1.01
0.9007	349.01	1.01
0.8679	346.71	1.01

System: nonan-1-ol + 1-ethyl-1-methylpiperidinium bis(trifluoromethylsulfonyl)imide; phases: Liquid mixture 1, Liquid mixture 2
Fixed: Pressure, kPa = 101
Property: Liquid-liquid equilibrium temperature, K (Liquid mixture 1); method: VISOBS
Mole fraction of 1-ethyl-1-methylpiperidinium bis(trifluoromethylsulfonyl)imide	Liquid-liquid equilibrium temperature, K	uncertainty
0.8186	350.2	4.01
0.7923	357.29	4.01
0.7664	364.36	4.02
0.7487	372.49	4.01
0.6816	383.35	4.01
0.6585	388.44	4.01
0.6115	398.58	4.01
0.5713	406.65	4.01
0.5501	410.93	4.01
0.5044	417.82	4.01

System: water + 1-ethyl-1-methylpiperidinium bis(trifluoromethylsulfonyl)imide; phases: Crystal 1, Liquid mixture 1, Liquid mixture 2, Air at 1 atmosphere
Property: Monotectic temperature, K (Crystal 1); method: VISOBS
Monotectic temperature, K	uncertainty
326.4	1.06

System: water + 1-ethyl-1-methylpiperidinium bis(trifluoromethylsulfonyl)imide; phases: Liquid, Crystal 1
Fixed: Pressure, kPa = 101
Property: Solid-liquid equilibrium temperature, K (Liquid); method: VISOBS:corrimp
Mole fraction of 1-ethyl-1-methylpiperidinium bis(trifluoromethylsulfonyl)imide	Solid-liquid equilibrium temperature, K	uncertainty
1	357.71	1.01
0.9491	354.22	1.01
0.9013	350.38	1.01
0.8559	346.63	1.01
0.8004	342.38	1.01
0.7554	337.98	1.01
0.722	335.16	1.01
0.6776	330.43	1.01
0.6261	327.88	1.01
0.0006	310.79	1.01
0.0008	319.44	1.01

System: water + 1-ethyl-1-methylpiperidinium bis(trifluoromethylsulfonyl)imide; phases: Liquid mixture 1, Liquid mixture 2
Fixed: Pressure, kPa = 101
Property: Liquid-liquid equilibrium temperature, K (Liquid mixture 1); method: VISOBS
Mole fraction of 1-ethyl-1-methylpiperidinium bis(trifluoromethylsulfonyl)imide	Liquid-liquid equilibrium temperature, K	uncertainty
0.5905	330.96	4
0.5429	335.68	4
0.5107	340.03	4.01
0.4617	347.7	4.01
0.4111	357.35	4.01
0.3756	364.64	4.01
0.0013	354.93	4
0.001	345.78	4
0.0009	333.27	4
