Measured thermophysical data. Determination of the solubility and dissolution thermodynamic properties of wedelolactone in a binary solvent of ethanol and water
Source: Fluid Phase Equilib., 2015, 10.1016/j.fluid.2014.10.031
Compound 1: water, H2O, InChI=1S/H2O/h1H2
Compound 2: ethanol, C2H6O, InChI=1S/C2H6O/c1-2-3/h3H,2H2,1H3
Compound 3: wedelolactone, C16H10O7, InChI=1S/C16H10O7/c1-21-6-2-10(19)14-12(3-6)23-16(20)13-7-4-8(17)9(18)5-11(7)22-15(13)14/h2-5,17-19H,1H3

System: wedelolactone; phases: Crystal, Liquid, Air at 1 atmosphere
Property: Normal melting temperature, K (Crystal); method: DTA
Normal melting temperature, K	uncertainty
589.52	23.58

System: wedelolactone; phases: Crystal, Liquid, Air at 1 atmosphere
Property: Molar enthalpy of transition or fusion, kJ/mol (Crystal); method: DSC
Molar enthalpy of transition or fusion, kJ/mol	uncertainty
45.79	2.03

System: ethanol + wedelolactone + water; phases: Liquid, Crystal
Fixed: Pressure, kPa = 101
Property: Mole fraction of wedelolactone (Liquid); method: Chromatography
Temperature, K	Solvent: Mole fraction of ethanol	Mole fraction of wedelolactone	uncertainty
278.15	1	0.00175663	0.00020004
283.15	1	0.00192464	0.00020004
288.15	1	0.00206694	0.00020005
293.15	1	0.00217068	0.00020005
298.15	1	0.00226785	0.00020006
303.15	1	0.00236994	0.00020006
308.15	1	0.00246425	0.00020007
313.15	1	0.00256299	0.00020007
318.15	1	0.00265709	0.00020008
323.15	1	0.00274721	0.00020009
278.15	0.9004	0.00129045	0.00020002
283.15	0.9004	0.00141024	0.00020002
288.15	0.9004	0.00152093	0.00020003
293.15	0.9004	0.00162236	0.00020003
298.15	0.9004	0.00171787	0.00020004
303.15	0.9004	0.00180807	0.00020004
308.15	0.9004	0.00189194	0.00020004
313.15	0.9004	0.00197086	0.00020005
318.15	0.9004	0.00204613	0.00020005
323.15	0.9004	0.00211525	0.00020005
278.15	0.7991	0.00104242	0.00020001
283.15	0.7991	0.00113544	0.00020002
288.15	0.7991	0.00122078	0.00020002
293.15	0.7991	0.00130063	0.00020002
298.15	0.7991	0.00137473	0.00020002
303.15	0.7991	0.0014437	0.00020002
308.15	0.7991	0.00150987	0.00020003
313.15	0.7991	0.00157299	0.00020003
318.15	0.7991	0.00163729	0.00020003
323.15	0.7991	0.00169622	0.00020003
278.15	0.6985	0.00082166	0.00020001
283.15	0.6985	0.00089509	0.00020001
288.15	0.6985	0.00096554	0.00020001
293.15	0.6985	0.00102627	0.00020001
298.15	0.6985	0.00108224	0.00020001
303.15	0.6985	0.00113533	0.00020002
308.15	0.6985	0.00118649	0.00020002
313.15	0.6985	0.00123573	0.00020002
318.15	0.6985	0.00128372	0.00020002
323.15	0.6985	0.00132739	0.00020002
278.15	0.5994	0.00063401	0.0002
283.15	0.5994	0.00069466	0.00020001
288.15	0.5994	0.00074947	0.00020001
293.15	0.5994	0.00079858	0.00020001
298.15	0.5994	0.00084137	0.00020001
303.15	0.5994	0.00088054	0.00020001
308.15	0.5994	0.00091735	0.00020001
313.15	0.5994	0.00094986	0.00020001
318.15	0.5994	0.0009788	0.00020001
323.15	0.5994	0.00100413	0.00020001
278.15	0.4964	0.0004476	0.0002
283.15	0.4964	0.00050499	0.0002
288.15	0.4964	0.00055569	0.0002
293.15	0.4964	0.00058725	0.0002
298.15	0.4964	0.00062385	0.0002
303.15	0.4964	0.00065746	0.00020001
308.15	0.4964	0.00069125	0.00020001
313.15	0.4964	0.00071298	0.00020001
318.15	0.4964	0.00074436	0.00020001
323.15	0.4964	0.00076056	0.00020001
