Measured thermophysical data. Solubilities of six lithium salts in five non-aqueous solvents and in a few of their binary mixtures
Source: Fluid Phase Equilib., 2018, 10.1016/j.fluid.2017.12.034
Compound 1: potassium chloride, ClK, InChI=1S/ClH.K/h1H;/q;+1/p-1, purity 99.5%
Compound 2: lithium fluoride, FLi, InChI=1S/FH.Li/h1H;/q;+1/p-1, purity 99.5%
Compound 3: lithium chloride, ClLi, InChI=1S/ClH.Li/h1H;/q;+1/p-1, purity 99.5%
Compound 4: lithium bromide, BrLi, InChI=1S/BrH.Li/h1H;/q;+1/p-1, purity 99.5%
Compound 5: lithium nitrate, LiNO3, InChI=1S/Li.NO3/c;2-1(3)4/q+1;-1, purity 99.5%
Compound 6: lithium bis((trifluoromethyl)sulfonyl)amide, C2F6LiNO4S2, InChI=1S/C2F6NO4S2.Li/c3-1(4,5)14(10,11)9-15(12,13)2(6,7)8;/q-1;+1, purity 99%
Compound 7: lithium hexafluorophosphate, F6LiP, InChI=1S/F6P.Li/c1-7(2,3,4,5)6;/q-1;+1, purity 99%
Compound 8: acetonitrile, C2H3N, InChI=1S/C2H3N/c1-2-3/h1H3, purity 99.5%
Compound 9: dimethyl carbonate, C3H6O3, InChI=1S/C3H6O3/c1-5-3(4)6-2/h1-2H3, purity 99.5%
Compound 10: dimethyl sulfoxide, C2H6OS, InChI=1S/C2H6OS/c1-4(2)3/h1-2H3, purity 99.5%
Compound 11: ethanol, C2H6O, InChI=1S/C2H6O/c1-2-3/h3H,2H2,1H3, purity 99.5%
Compound 12: 4-methyl-1,3-dioxolan-2-one, C4H6O3, InChI=1S/C4H6O3/c1-3-2-6-4(5)7-3/h3H,2H2,1H3, purity 99.5%
Compound 13: methanol, CH4O, InChI=1S/CH4O/c1-2/h2H,1H3, purity 99%

System: potassium chloride + methanol; phases: Liquid, Crystal
Fixed: Pressure, kPa = 101.1
Property: Mole fraction of potassium chloride (Liquid); method: Static equilibrium method
Temperature, K	Mole fraction of potassium chloride	uncertainty
298.15	0.00232	0.00023
303.15	0.00239	0.00024
308.15	0.00249	0.00025
313.15	0.00258	0.00026
318.15	0.00266	0.00027

System: lithium bromide + acetonitrile; phases: Liquid, Crystal
Fixed: Pressure, kPa = 101.1
Property: Mole fraction of lithium bromide (Liquid); method: Static equilibrium method
Temperature, K	Mole fraction of lithium bromide	uncertainty
298.15	0.0416	0.0042
303.15	0.0461	0.0046
308.15	0.0498	0.005
313.15	0.0534	0.0053
318.15	0.0572	0.0057

System: lithium bromide + ethanol; phases: Liquid, Crystal
Fixed: Pressure, kPa = 101.1
Property: Mole fraction of lithium bromide (Liquid); method: Static equilibrium method
Temperature, K	Mole fraction of lithium bromide	uncertainty
298.15	0.274	0.027
303.15	0.276	0.028
308.15	0.277	0.028
313.15	0.279	0.028
318.15	0.281	0.028

System: lithium bromide + dimethyl carbonate; phases: Liquid, Crystal
Fixed: Pressure, kPa = 101.1
Property: Mole fraction of lithium bromide (Liquid); method: Static equilibrium method
Temperature, K	Mole fraction of lithium bromide	uncertainty
298.15	0.00402	0.0004
303.15	0.00415	0.00042
308.15	0.00426	0.00043
313.15	0.00441	0.00044
318.15	0.0046	0.00046

System: lithium bromide + dimethyl sulfoxide; phases: Liquid, Crystal
Fixed: Pressure, kPa = 101.1
Property: Mole fraction of lithium bromide (Liquid); method: Static equilibrium method
Temperature, K	Mole fraction of lithium bromide	uncertainty
298.15	0.22	0.022
303.15	0.226	0.023
308.15	0.232	0.023
313.15	0.239	0.024
318.15	0.247	0.025

System: lithium bromide + 4-methyl-1,3-dioxolan-2-one; phases: Liquid, Crystal
Fixed: Pressure, kPa = 101.1
Property: Mole fraction of lithium bromide (Liquid); method: Static equilibrium method
Temperature, K	Mole fraction of lithium bromide	uncertainty
298.15	0.0224	0.0022
303.15	0.024	0.0024
308.15	0.0259	0.0026
313.15	0.0279	0.0028
318.15	0.03	0.003

System: lithium chloride + acetonitrile; phases: Liquid, Crystal
Fixed: Pressure, kPa = 101.1
Property: Mole fraction of lithium chloride (Liquid); method: Static equilibrium method
Temperature, K	Mole fraction of lithium chloride	uncertainty
298.15	0.00132	0.00013
303.15	0.00138	0.00014
308.15	0.00145	0.00015
313.15	0.00152	0.00015
318.15	0.00158	0.00016

System: lithium chloride + ethanol; phases: Liquid, Crystal
Fixed: Pressure, kPa = 101.1
Property: Mole fraction of lithium chloride (Liquid); method: Static equilibrium method
Temperature, K	Mole fraction of lithium chloride	uncertainty
298.15	0.212	0.021
303.15	0.214	0.021
308.15	0.215	0.022
313.15	0.216	0.022
318.15	0.216	0.022

System: lithium chloride + dimethyl carbonate; phases: Liquid, Crystal
Fixed: Pressure, kPa = 101.1
Property: Mole fraction of lithium chloride (Liquid); method: Static equilibrium method
Temperature, K	Mole fraction of lithium chloride	uncertainty
298.15	0.000135	1.4e-05
303.15	0.000137	1.4e-05
308.15	0.00014	1.4e-05
313.15	0.000142	1.4e-05
318.15	0.000144	1.4e-05

System: lithium chloride + dimethyl sulfoxide; phases: Liquid, Crystal
Fixed: Pressure, kPa = 101.1
Property: Mole fraction of lithium chloride (Liquid); method: Static equilibrium method
Temperature, K	Mole fraction of lithium chloride	uncertainty
298.15	0.158	0.016
303.15	0.164	0.016
308.15	0.17	0.017
313.15	0.176	0.018
318.15	0.182	0.018

System: lithium chloride + 4-methyl-1,3-dioxolan-2-one; phases: Liquid, Crystal
Fixed: Pressure, kPa = 101.1
Property: Mole fraction of lithium chloride (Liquid); method: Static equilibrium method
Temperature, K	Mole fraction of lithium chloride	uncertainty
298.15	0.000822	8.2e-05
303.15	0.000922	9.2e-05
308.15	0.00103	0.0001
313.15	0.00116	0.00012
318.15	0.0013	0.00013

System: lithium fluoride + acetonitrile; phases: Liquid, Crystal
Fixed: Pressure, kPa = 101.1
Property: Mole fraction of lithium fluoride (Liquid); method: Static equilibrium method
Temperature, K	Mole fraction of lithium fluoride	uncertainty
298.15	2.01e-06	2e-07
303.15	2.23e-06	2.2e-07
308.15	2.47e-06	2.5e-07
313.15	2.71e-06	2.7e-07
318.15	2.95e-06	3e-07

System: lithium fluoride + dimethyl carbonate; phases: Liquid, Crystal
Fixed: Pressure, kPa = 101.1
Property: Mole fraction of lithium fluoride (Liquid); method: Static equilibrium method
Temperature, K	Mole fraction of lithium fluoride	uncertainty
298.15	1.07e-05	1.1e-06
303.15	1.24e-05	1.2e-06
308.15	1.44e-05	1.4e-06
313.15	1.67e-05	1.7e-06
318.15	1.96e-05	2e-06

System: lithium fluoride + dimethyl sulfoxide; phases: Liquid, Crystal
Fixed: Pressure, kPa = 101.1
Property: Mole fraction of lithium fluoride (Liquid); method: Static equilibrium method
Temperature, K	Mole fraction of lithium fluoride	uncertainty
298.15	0.00102	0.0001
303.15	0.00111	0.00011
308.15	0.00126	0.00013
313.15	0.00144	0.00014
318.15	0.00162	0.00016

System: lithium fluoride + 4-methyl-1,3-dioxolan-2-one; phases: Liquid, Crystal
Fixed: Pressure, kPa = 101.1
Property: Mole fraction of lithium fluoride (Liquid); method: Static equilibrium method
Temperature, K	Mole fraction of lithium fluoride	uncertainty
298.15	0.000456	4.6e-05
303.15	0.000534	5.4e-05
308.15	0.000624	6.3e-05
313.15	0.000717	7.2e-05
318.15	0.000831	8.3e-05

System: lithium nitrate + acetonitrile; phases: Liquid, Crystal
Fixed: Pressure, kPa = 101.1
Property: Mole fraction of lithium nitrate (Liquid); method: Static equilibrium method
Temperature, K	Mole fraction of lithium nitrate	uncertainty
298.15	0.0174	0.0017
303.15	0.0185	0.0019
308.15	0.0195	0.002
313.15	0.0206	0.0021
318.15	0.0216	0.0022

System: lithium nitrate + ethanol; phases: Liquid, Crystal
Fixed: Pressure, kPa = 101.1
Property: Mole fraction of lithium nitrate (Liquid); method: Static equilibrium method
Temperature, K	Mole fraction of lithium nitrate	uncertainty
298.15	0.176	0.018
303.15	0.179	0.018
308.15	0.181	0.018
313.15	0.184	0.018
318.15	0.185	0.019

System: lithium nitrate + dimethyl carbonate; phases: Liquid, Crystal
Fixed: Pressure, kPa = 101.1
Property: Mole fraction of lithium nitrate (Liquid); method: Static equilibrium method
Temperature, K	Mole fraction of lithium nitrate	uncertainty
298.15	0.000206	2.1e-05
303.15	0.000231	2.3e-05
308.15	0.00026	2.6e-05
313.15	0.000295	3e-05
318.15	0.000334	3.3e-05

System: lithium nitrate + dimethyl sulfoxide; phases: Liquid, Crystal
Fixed: Pressure, kPa = 101.1
Property: Mole fraction of lithium nitrate (Liquid); method: Static equilibrium method
Temperature, K	Mole fraction of lithium nitrate	uncertainty
298.15	0.232	0.023
303.15	0.241	0.024
308.15	0.251	0.025
313.15	0.261	0.026
318.15	0.27	0.027

System: lithium nitrate + 4-methyl-1,3-dioxolan-2-one; phases: Liquid, Crystal
Fixed: Pressure, kPa = 101.1
Property: Mole fraction of lithium nitrate (Liquid); method: Static equilibrium method
Temperature, K	Mole fraction of lithium nitrate	uncertainty
298.15	0.0141	0.0014
303.15	0.0153	0.0015
308.15	0.0169	0.0017
313.15	0.0186	0.0019
318.15	0.0205	0.0021

System: lithium hexafluorophosphate + acetonitrile; phases: Liquid, Crystal
Fixed: Pressure, kPa = 101.1
Property: Mole fraction of lithium hexafluorophosphate (Liquid); method: Static equilibrium method
Temperature, K	Mole fraction of lithium hexafluorophosphate	uncertainty
298.15	0.0635	0.0064
303.15	0.0734	0.0074
308.15	0.0852	0.0085
313.15	0.0991	0.0099
318.15	0.115	0.012

System: lithium hexafluorophosphate + dimethyl carbonate; phases: Liquid, Crystal
Fixed: Pressure, kPa = 101.1
Property: Mole fraction of lithium hexafluorophosphate (Liquid); method: Static equilibrium method
Temperature, K	Mole fraction of lithium hexafluorophosphate	uncertainty
298.15	0.204	0.02
303.15	0.215	0.022
308.15	0.228	0.023
313.15	0.242	0.024
318.15	0.259	0.026

System: lithium hexafluorophosphate + dimethyl sulfoxide; phases: Liquid, Crystal
Fixed: Pressure, kPa = 101.1
Property: Mole fraction of lithium hexafluorophosphate (Liquid); method: Static equilibrium method
Temperature, K	Mole fraction of lithium hexafluorophosphate	uncertainty
298.15	0.142	0.014
303.15	0.146	0.015
308.15	0.151	0.015
313.15	0.156	0.016
318.15	0.161	0.016

System: lithium hexafluorophosphate + 4-methyl-1,3-dioxolan-2-one; phases: Liquid, Crystal
Fixed: Pressure, kPa = 101.1
Property: Mole fraction of lithium hexafluorophosphate (Liquid); method: Static equilibrium method
Temperature, K	Mole fraction of lithium hexafluorophosphate	uncertainty
298.15	0.0217	0.0022
303.15	0.034	0.0034
308.15	0.0492	0.005
313.15	0.0685	0.0069
318.15	0.0912	0.0092

System: lithium bis((trifluoromethyl)sulfonyl)amide + dimethyl carbonate; phases: Liquid, Crystal
Fixed: Pressure, kPa = 101.1
Property: Mole fraction of lithium bis((trifluoromethyl)sulfonyl)amide (Liquid); method: Static equilibrium method
Temperature, K	Mole fraction of lithium bis((trifluoromethyl)sulfonyl)amide	uncertainty
298.15	0.197	0.02
303.15	0.203	0.02
308.15	0.21	0.021
313.15	0.218	0.022
318.15	0.226	0.023

System: lithium bis((trifluoromethyl)sulfonyl)amide + dimethyl sulfoxide; phases: Liquid, Crystal
Fixed: Pressure, kPa = 101.1
Property: Mole fraction of lithium bis((trifluoromethyl)sulfonyl)amide (Liquid); method: Static equilibrium method
Temperature, K	Mole fraction of lithium bis((trifluoromethyl)sulfonyl)amide	uncertainty
298.15	0.237	0.024
303.15	0.241	0.024
308.15	0.244	0.024
313.15	0.248	0.025
318.15	0.252	0.025

System: lithium bis((trifluoromethyl)sulfonyl)amide + 4-methyl-1,3-dioxolan-2-one; phases: Liquid, Crystal
Fixed: Pressure, kPa = 101.1
Property: Mole fraction of lithium bis((trifluoromethyl)sulfonyl)amide (Liquid); method: Static equilibrium method
Temperature, K	Mole fraction of lithium bis((trifluoromethyl)sulfonyl)amide	uncertainty
298.15	0.183	0.018
303.15	0.19	0.019
308.15	0.197	0.02
313.15	0.205	0.021
318.15	0.214	0.021

System: lithium bromide + ethanol + dimethyl sulfoxide; phases: Liquid, Crystal
Fixed: Pressure, kPa = 101.1
Property: Mole fraction of lithium bromide (Liquid); method: Static equilibrium method
Solvent: Mole fraction of ethanol	Temperature, K	Mole fraction of lithium bromide	uncertainty
0.25	298.15	0.231	0.023
0.25	303.15	0.236	0.024
0.25	308.15	0.241	0.024
0.25	313.15	0.248	0.025
0.25	318.15	0.255	0.026
0.5	298.15	0.246	0.025
0.5	303.15	0.25	0.025
0.5	308.15	0.253	0.025
0.5	313.15	0.258	0.026
0.5	318.15	0.264	0.026
0.75	298.15	0.262	0.026
0.75	303.15	0.265	0.027
0.75	308.15	0.268	0.027
0.75	313.15	0.272	0.027
0.75	318.15	0.275	0.028

System: lithium bromide + dimethyl carbonate + dimethyl sulfoxide; phases: Liquid, Crystal
Fixed: Pressure, kPa = 101.1
Property: Mole fraction of lithium bromide (Liquid); method: Static equilibrium method
Solvent: Mole fraction of dimethyl carbonate	Temperature, K	Mole fraction of lithium bromide	uncertainty
0.25	298.15	0.207	0.021
0.25	303.15	0.214	0.021
0.25	308.15	0.221	0.022
0.25	313.15	0.227	0.023
0.25	318.15	0.234	0.023
0.5	298.15	0.129	0.013
0.5	303.15	0.137	0.014
0.5	308.15	0.146	0.015
0.5	313.15	0.154	0.015
0.5	318.15	0.163	0.016
0.75	298.15	0.0396	0.004
0.75	303.15	0.0434	0.0043
0.75	308.15	0.0478	0.0048
0.75	313.15	0.0526	0.0053
0.75	318.15	0.0573	0.0057

System: lithium chloride + ethanol + dimethyl sulfoxide; phases: Liquid, Crystal
Fixed: Pressure, kPa = 101.1
Property: Mole fraction of lithium chloride (Liquid); method: Static equilibrium method
Solvent: Mole fraction of ethanol	Temperature, K	Mole fraction of lithium chloride	uncertainty
0.25	298.15	0.167	0.017
0.25	303.15	0.172	0.017
0.25	308.15	0.177	0.018
0.25	313.15	0.181	0.018
0.25	318.15	0.185	0.019
0.5	298.15	0.183	0.018
0.5	303.15	0.188	0.019
0.5	308.15	0.191	0.019
0.5	313.15	0.194	0.019
0.5	318.15	0.195	0.02
0.75	298.15	0.205	0.021
0.75	303.15	0.21	0.021
0.75	308.15	0.212	0.021
0.75	313.15	0.214	0.021
0.75	318.15	0.214	0.021

System: lithium chloride + dimethyl carbonate + dimethyl sulfoxide; phases: Liquid, Crystal
Fixed: Pressure, kPa = 101.1
Property: Mole fraction of lithium chloride (Liquid); method: Static equilibrium method
Solvent: Mole fraction of dimethyl carbonate	Temperature, K	Mole fraction of lithium chloride	uncertainty
0.25	298.15	0.127	0.013
0.25	303.15	0.132	0.013
0.25	308.15	0.137	0.014
0.25	313.15	0.142	0.014
0.25	318.15	0.147	0.015
0.5	298.15	0.0629	0.0063
0.5	303.15	0.067	0.0067
0.5	308.15	0.0713	0.0071
0.5	313.15	0.0756	0.0076
0.5	318.15	0.0795	0.008
0.75	298.15	0.0163	0.0016
0.75	303.15	0.0167	0.0017
0.75	308.15	0.017	0.0017
0.75	313.15	0.0173	0.0017
0.75	318.15	0.0176	0.0018

System: lithium chloride + dimethyl carbonate + 4-methyl-1,3-dioxolan-2-one; phases: Liquid, Crystal
Fixed: Pressure, kPa = 101.1
Property: Mole fraction of lithium chloride (Liquid); method: Static equilibrium method
Solvent: Mole fraction of dimethyl carbonate	Temperature, K	Mole fraction of lithium chloride	uncertainty
0.25	298.15	0.000706	7.1e-05
0.25	303.15	0.00077	7.7e-05
0.25	308.15	0.000845	8.5e-05
0.25	313.15	0.000928	9.3e-05
0.25	318.15	0.00102	0.0001
0.5	298.15	0.000498	5e-05
0.5	303.15	0.000548	5.5e-05
0.5	308.15	0.000606	6.1e-05
0.5	313.15	0.000669	6.7e-05
0.5	318.15	0.000734	7.3e-05
0.75	298.15	0.000195	2e-05
0.75	303.15	0.000216	2.2e-05
0.75	308.15	0.000242	2.4e-05
0.75	313.15	0.00027	2.7e-05
0.75	318.15	0.000299	3e-05

System: lithium nitrate + ethanol + dimethyl sulfoxide; phases: Liquid, Crystal
Fixed: Pressure, kPa = 101.1
Property: Mole fraction of lithium nitrate (Liquid); method: Static equilibrium method
Solvent: Mole fraction of ethanol	Temperature, K	Mole fraction of lithium nitrate	uncertainty
0.25	298.15	0.218	0.022
0.25	303.15	0.224	0.022
0.25	308.15	0.231	0.023
0.25	313.15	0.237	0.024
0.25	318.15	0.243	0.024
0.5	298.15	0.204	0.02
0.5	303.15	0.209	0.021
0.5	308.15	0.212	0.021
0.5	313.15	0.216	0.022
0.5	318.15	0.219	0.022
0.75	298.15	0.189	0.019
0.75	303.15	0.192	0.019
0.75	308.15	0.194	0.019
0.75	313.15	0.197	0.02
0.75	318.15	0.199	0.02
