Measured thermophysical data. Single-component and mixture solubilities of ethyl p-hydroxybenzoate and ethyl p-aminobenzoate in supercritical CO2
Source: Fluid Phase Equilib., 2008, 10.1016/j.fluid.2007.09.020
Compound 1: carbon dioxide, CO2, InChI=1S/CO2/c2-1-3
Compound 2: ethyl 4-hydroxybenzoate, C9H10O3, InChI=1S/C9H10O3/c1-2-12-9(11)7-3-5-8(10)6-4-7/h3-6,10H,2H2,1H3
Compound 3: ethyl 4-aminobenzoate, C9H11NO2, InChI=1S/C9H11NO2/c1-2-12-9(11)7-3-5-8(10)6-4-7/h3-6H,2,10H2,1H3

System: ethyl 4-hydroxybenzoate + carbon dioxide; phases: Fluid (supercritical or subcritical phases), Crystal
Property: Mole fraction of ethyl 4-hydroxybenzoate (Fluid (supercritical or subcritical phases)); method: Chromatography
Temperature, K	Pressure, kPa	Mole fraction of ethyl 4-hydroxybenzoate	uncertainty
308	8000	1.64e-05	3.6e-06
308	11000	6.29e-05	1.26e-05
308	13000	7.52e-05	1.51e-05
308	17000	8.82e-05	1.77e-05
308	21000	9.49e-05	1.9e-05
318	8000	8.1e-06	2.3e-06
318	11000	5.82e-05	1.17e-05
318	13000	7.91e-05	1.59e-05
318	17000	0.0001128	2.26e-05
318	21000	0.0001253	2.51e-05
328	8000	7e-06	2e-06
328	11000	4.31e-05	8.8e-06
328	13000	9.19e-05	1.85e-05
328	17000	0.000138	2.8e-05
328	21000	0.0001755	3.52e-05

System: ethyl 4-aminobenzoate + carbon dioxide; phases: Fluid (supercritical or subcritical phases), Crystal
Property: Mole fraction of ethyl 4-aminobenzoate (Fluid (supercritical or subcritical phases)); method: Chromatography
Temperature, K	Pressure, kPa	Mole fraction of ethyl 4-aminobenzoate	uncertainty
308	8000	8.13e-05	2.24e-05
308	11000	0.0005435	0.0001094
308	13000	0.0006494	0.0001301
308	17000	0.00081	0.00016
308	21000	0.0010021	0.0002007
318	8000	2.24e-05	1.32e-05
318	11000	0.0004139	8.38e-05
318	13000	0.0006144	0.0001233
318	17000	0.0009612	0.0001925
318	21000	0.0011809	0.0002365
328	8000	1.98e-05	7.4e-06
328	11000	0.0002071	4.27e-05
328	13000	0.00052	0.00011
328	17000	0.0010195	0.0002044
328	21000	0.0014271	0.0002859

System: ethyl 4-aminobenzoate + ethyl 4-hydroxybenzoate + carbon dioxide; phases: Fluid (supercritical or subcritical phases), Crystal, Crystal
Property: Mole fraction of ethyl 4-aminobenzoate (Fluid (supercritical or subcritical phases)); method: Chromatography
Temperature, K	Pressure, kPa	Mole fraction of ethyl 4-aminobenzoate	uncertainty
308	8000	9.86e-05	2.71e-05
308	11000	0.0006562	0.000132
308	13000	0.0007876	0.0001577
308	17000	0.0011131	0.0002228
308	21000	0.0013039	0.0002609
318	8000	2.35e-05	1.76e-05
318	11000	0.0005545	0.000112
318	13000	0.0007657	0.0001538
318	17000	0.0013549	0.0002713
318	21000	0.0016166	0.0003235
328	8000	2.05e-05	7.9e-06
328	11000	0.0002226	4.64e-05
328	13000	0.0006602	0.0001336
328	17000	0.0014498	0.0002904
328	21000	0.0018461	0.0003694

System: ethyl 4-aminobenzoate + ethyl 4-hydroxybenzoate + carbon dioxide; phases: Fluid (supercritical or subcritical phases), Crystal, Crystal
Property: Mole fraction of ethyl 4-hydroxybenzoate (Fluid (supercritical or subcritical phases)); method: Chromatography
Temperature, K	Pressure, kPa	Mole fraction of ethyl 4-hydroxybenzoate	uncertainty
308	8000	0.000245	6e-05
308	11000	0.001266	0.000255
308	13000	0.001463	0.000293
308	17000	0.001874	0.000375
308	21000	0.002212	0.000443
318	8000	8.6e-05	4.1e-05
318	11000	0.001248	0.000253
318	13000	0.002057	0.000412
318	17000	0.002827	0.000566
318	21000	0.003352	0.000671
328	8000	7.3e-05	2.9e-05
328	11000	0.000827	0.000171
328	13000	0.002214	0.000446
328	17000	0.003902	0.000782
328	21000	0.005029	0.001007
