Measured thermophysical data. Density and viscosity of propylene glycol at high temperatures and high pressures
Source: Fluid Phase Equilib., 2017, 10.1016/j.fluid.2017.07.006
Compound 1: 1,2-propanediol, C3H8O2, InChI=1S/C3H8O2/c1-3(5)2-4/h3-5H,2H2,1H3, purity 99.8%

System: 1,2-propanediol; phases: Liquid
Property: Mass density, kg/m3 (Liquid); method: Buoyancy - hydrostatic balance
Temperature, K	Pressure, kPa	Mass density, kg/m3	uncertainty
298.15	98	1032.56	1.55
303.15	98	1028.87	1.54
312.98	98	1022.16	1.53
335.78	98	1005.31	1.51
364.39	98	981.63	1.48
394.95	98	953.22	1.43
423.51	98	926.76	1.39
452.17	98	900.36	1.35
298.15	49030	1055.29	1.58
303.15	49030	1052.03	1.58
313	49030	1046.22	1.57
335.8	49030	1029.3	1.55
364.66	49030	1007.36	1.51
395.11	49030	982.98	1.48
423.62	49030	959.18	1.44
452.1	49030	934.51	1.4
298.15	98060	1072.94	1.61
303.15	98060	1070.79	1.61
313.05	98060	1065.24	1.6
335.76	98060	1050.34	1.58
364.83	98060	1031.15	1.55
395.17	98060	1010.62	1.52
423.9	98060	989.94	1.49
452.14	98060	965.53	1.45
298.15	147100	1088.48	3.27
303.15	147100	1086.25	3.26
313.03	147100	1081.67	3.25
335.78	147100	1068.19	3.21
364.87	147100	1051.61	3.16
395.38	147100	1033.92	3.1
423.97	147100	1016.34	3.05
452.19	147100	996.01	2.99
298.15	196130	1104.32	3.31
303.15	196130	1101.4	3.3
313.04	196130	1095.69	3.29
335.8	196130	1082.92	3.25
365	196130	1067.32	3.2
395.57	196130	1051.9	3.16
424.05	196130	1038.38	3.12
452.18	196130	1022.83	3.07
298.15	245160	1115.28	3.35
303.15	245160	1112.65	3.34
313.03	245160	1107.51	3.32
336.01	245160	1095.8	3.29
364.99	245160	1081.56	3.25
395.68	245160	1067.12	3.2
424.3	245160	1054.25	3.16
452.07	245160	1042.31	3.13

System: 1,2-propanediol; phases: Liquid
Property: Viscosity, Pa*s (Liquid); method: Falling or rolling sphere viscometry
Temperature, K	Pressure, kPa	Viscosity, Pa*s	uncertainty
298.15	98	0.04369	0.00096
303.15	98	0.03235	0.00071
312.98	98	0.01945	0.00042
335.78	98	0.007524	0.000163
364.39	98	0.003034	6.5e-05
394.95	98	0.001504	3.2e-05
423.51	98	0.000925	2e-05
452.17	98	0.000604	1.3e-05
298.15	49030	0.06402	0.00142
303.15	49030	0.04825	0.00105
313	49030	0.02834	0.00061
335.8	49030	0.01059	0.00023
364.66	49030	0.004074	8.8e-05
395.11	49030	0.001954	4.2e-05
423.62	49030	0.001239	2.6e-05
452.1	49030	0.00081	1.7e-05
298.15	98060	0.09428	0.00269
303.15	98060	0.06946	0.0016
313.05	98060	0.03987	0.00086
335.76	98060	0.01423	0.00031
364.83	98060	0.005292	0.000114
395.17	98060	0.002451	5.2e-05
423.9	98060	0.001533	3.3e-05
452.14	98060	0.000995	2.1e-05
298.15	147100	0.1341	0.0049
303.15	147100	0.09733	0.00283
313.03	147100	0.05468	0.00113
335.78	147100	0.01886	0.00041
364.87	147100	0.006718	0.000145
395.38	147100	0.003011	6.5e-05
423.97	147100	0.00189	4e-05
452.19	147100	0.001212	2.6e-05
298.15	196130	0.1872	0.0085
303.15	196130	0.1347	0.005
313.04	196130	0.07388	0.00175
335.8	196130	0.02461	0.00054
365	196130	0.008372	0.000181
395.57	196130	0.003659	7.8e-05
424.05	196130	0.002244	4.8e-05
452.18	196130	0.001425	3e-05
298.15	245160	0.2607	0.0146
303.15	245160	0.1833	0.0083
313.03	245160	0.09804	0.00286
336.01	245160	0.03053	0.00067
364.99	245160	0.01031	0.00022
395.68	245160	0.004374	9.4e-05
424.3	245160	0.002608	5.6e-05
452.07	245160	0.001656	3.5e-05

System: 1,2-propanediol; phases: Liquid
Fixed: Pressure, kPa = 101.325
Property: Mass density, kg/m3 (Liquid); method: Pycnometric method
Temperature, K	Mass density, kg/m3	uncertainty
293.15	1035.5	0.3
313.15	1021.9	0.3
333.15	1006.3	0.4
353.15	990.28	0.4
365.15	978.97	0.42
368.15	977.28	0.42
399.15	949.76	0.49
423.65	925.92	0.54
450.15	896.89	0.59
298.15	1032.56	0.28

System: 1,2-propanediol; phases: Liquid
Fixed: Pressure, kPa = 101.325
Property: Viscosity, Pa*s (Liquid); method: Capillary tube (Ostwald; Ubbelohde) method
Temperature, K	Viscosity, Pa*s	uncertainty
292.1	0.06061	0.00037
293.1	0.05809	0.00034
303.4	0.03154	0.00021
313.9	0.01937	0.00015
316	0.01704	0.00014
332.1	0.00876	5.8e-05
353.4	0.00429	6.1e-05
353.6	0.00418	6e-05
388.6	0.001767	1.5e-05
389.3	0.0017	1.4e-05
423.3	0.000926	6e-06
458.9	0.000533	4e-06
298.15	0.04369	0.000334
