Measured thermophysical data. Static permittivity and molecular interactions in binary mixtures of ethanolamine with alcohols and amides
Source: Fluid Phase Equilib., 2010, 10.1016/j.fluid.2010.02.038
Compound 1: 2-aminoethan-1-ol, C2H7NO, InChI=1S/C2H7NO/c3-1-2-4/h4H,1-3H2, purity 99%
Compound 2: ethanol, C2H6O, InChI=1S/C2H6O/c1-2-3/h3H,2H2,1H3, purity 99%
Compound 3: 1,2-ethanediol, C2H6O2, InChI=1S/C2H6O2/c3-1-2-4/h3-4H,1-2H2, purity 99%
Compound 4: glycerol, C3H8O3, InChI=1S/C3H8O3/c4-1-3(6)2-5/h3-6H,1-2H2, purity 99%
Compound 5: formamide, CH3NO, InChI=1S/CH3NO/c2-1-3/h1H,(H2,2,3), purity 99%
Compound 6: dimethylformamide, C3H7NO, InChI=1S/C3H7NO/c1-4(2)3-5/h3H,1-2H3, purity 99%
Compound 7: N,N-dimethylethanamide, C4H9NO, InChI=1S/C4H9NO/c1-4(6)5(2)3/h1-3H3, purity 99%

System: ethanol + 2-aminoethan-1-ol; phases: Liquid
Fixed: Pressure, kPa = 101
Fixed: Temperature, K = 303.15
Fixed: Frequency, MHz = 1
Property: Relative permittivity at various frequencies (Liquid); method: Capacitive measurement method at f=1 MHz
Mole fraction of 2-aminoethan-1-ol	Relative permittivity at various frequencies	uncertainty
0	23.87	0.14
0.097	24.4	0.16
0.194	24.96	0.16
0.293	25.44	0.16
0.392	26.12	0.17
0.491	26.88	0.18
0.592	27.54	0.18
0.693	28.27	0.19
0.794	29.15	0.2
0.897	30.15	0.21
1	31.46	0.19

System: 1,2-ethanediol + 2-aminoethan-1-ol; phases: Liquid
Fixed: Pressure, kPa = 101
Fixed: Temperature, K = 303.15
Fixed: Frequency, MHz = 1
Property: Relative permittivity at various frequencies (Liquid); method: Capacitive measurement method at f=1 MHz
Mole fraction of 2-aminoethan-1-ol	Relative permittivity at various frequencies	uncertainty
0	39.84	0.24
0.093	38.7	0.26
0.187	37.8	0.24
0.283	37	0.24
0.381	36.1	0.24
0.48	35.18	0.23
0.581	34.21	0.22
0.683	33.36	0.21
0.787	32.64	0.21
0.892	31.95	0.2
1	31.46	0.19

System: glycerol + 2-aminoethan-1-ol; phases: Liquid
Fixed: Pressure, kPa = 101
Fixed: Temperature, K = 303.15
Fixed: Frequency, MHz = 1
Property: Relative permittivity at various frequencies (Liquid); method: Capacitive measurement method at f=1 MHz
Mole fraction of 2-aminoethan-1-ol	Relative permittivity at various frequencies	uncertainty
0	41.17	0.25
0.08	40.71	0.26
0.157	39.86	0.26
0.232	39.14	0.25
0.306	38.52	0.24
0.377	37.97	0.24
0.447	37.51	0.24
0.514	36.95	0.24
0.581	36.26	0.24
0.645	35.5	0.25
0.708	34.7	0.25
0.769	33.81	0.24
0.829	33.08	0.24
0.887	32.24	0.25
0.944	31.31	0.2
1	31.46	0.19

System: formamide + 2-aminoethan-1-ol; phases: Liquid
Fixed: Pressure, kPa = 101
Fixed: Temperature, K = 303.15
Fixed: Frequency, MHz = 1
Property: Relative permittivity at various frequencies (Liquid); method: Capacitive measurement method at f=1 MHz
Mole fraction of 2-aminoethan-1-ol	Relative permittivity at various frequencies	uncertainty
0	106.14	0.64
0.068	97.77	1.28
0.141	90.12	1.18
0.22	81.77	1.1
0.305	74.02	0.98
0.397	66.34	0.87
0.497	59.14	0.77
0.606	52.04	0.71
0.725	44.61	0.66
0.856	36.91	0.53
1	31.46	0.19

System: dimethylformamide + 2-aminoethan-1-ol; phases: Liquid
Fixed: Pressure, kPa = 101
Fixed: Temperature, K = 303.15
Fixed: Frequency, MHz = 1
Property: Relative permittivity at various frequencies (Liquid); method: Capacitive measurement method at f=1 MHz
Mole fraction of 2-aminoethan-1-ol	Relative permittivity at various frequencies	uncertainty
0	36.55	0.22
0.125	36.13	0.22
0.243	35.65	0.22
0.354	35.18	0.22
0.461	34.76	0.22
0.562	34.07	0.21
0.658	33.67	0.21
0.749	32.82	0.22
0.837	32	0.2
0.92	31.9	0.19
1	31.46	0.19

System: N,N-dimethylethanamide + 2-aminoethan-1-ol; phases: Liquid
Fixed: Pressure, kPa = 101
Fixed: Temperature, K = 303.15
Fixed: Frequency, MHz = 1
Property: Relative permittivity at various frequencies (Liquid); method: Capacitive measurement method at f=1 MHz
Mole fraction of 2-aminoethan-1-ol	Relative permittivity at various frequencies	uncertainty
0	37.72	0.23
0.146	35.84	0.24
0.278	35.08	0.22
0.398	34.39	0.21
0.507	33.78	0.21
0.606	33.03	0.21
0.698	32.62	0.2
0.782	32.17	0.2
0.86	32.05	0.19
0.933	31.75	0.2
1	31.46	0.19
