Measured thermophysical data. Experimental study on liquid - liquid equilibria of ionic liquids + alkane + ethyl benzene or p-xylene at 298.15 K
Source: Fluid Phase Equilib., 2016, 10.1016/j.fluid.2015.08.031
Compound 1: hexane, C6H14, InChI=1S/C6H14/c1-3-5-6-4-2/h3-6H2,1-2H3
Compound 2: heptane, C7H16, InChI=1S/C7H16/c1-3-5-7-6-4-2/h3-7H2,1-2H3
Compound 3: octane, C8H18, InChI=1S/C8H18/c1-3-5-7-8-6-4-2/h3-8H2,1-2H3
Compound 4: ethylbenzene, C8H10, InChI=1S/C8H10/c1-2-8-6-4-3-5-7-8/h3-7H,2H2,1H3
Compound 5: 1,4-dimethylbenzene, C8H10, InChI=1S/C8H10/c1-7-3-5-8(2)6-4-7/h3-6H,1-2H3
Compound 6: 1-methyl-3-octylimidazolium nitrate, C12H23N3O3, InChI=1S/C12H23N2.NO3/c1-3-4-5-6-7-8-9-14-11-10-13(2)12-14;2-1(3)4/h10-12H,3-9H2,1-2H3;/q+1;-1
Compound 7: 1-butyl-3-methylimidazolium nitrate, C8H15N3O3, InChI=1S/C8H15N2.NO3/c1-3-4-5-10-7-6-9(2)8-10;2-1(3)4/h6-8H,3-5H2,1-2H3;/q+1;-1

System: ethylbenzene + hexane + 1-butyl-3-methylimidazolium nitrate; phases: Liquid mixture 2, Liquid mixture 1
Fixed: Temperature, K = 298.15
Fixed: Pressure, kPa = 101.3
Property: Mole fraction of hexane (Liquid mixture 2); method: Chromatography
Property: Mole fraction of hexane (Liquid mixture 1); method: Chromatography
Property: Mole fraction of ethylbenzene (Liquid mixture 1); method: Chromatography
Mole fraction of ethylbenzene	Mole fraction of hexane	uncertainty	Mole fraction of hexane	uncertainty	Mole fraction of ethylbenzene	uncertainty
0.135	0.865	0.009	0.007	0.002	0.023	
0.159	0.841	0.009	0.006	0.002	0.027	
0.28	0.72	0.009	0.008	0.002	0.042	
0.336	0.664	0.009	0.008	0.002	0.051	
0.435	0.565	0.009	0.009	0.002	0.061	
0.527	0.473	0.009	0.009	0.002	0.079	
0.632	0.368	0.009	0.01	0.002	0.102	
0.746	0.254	0.009	0.009	0.002	0.125	
0.795	0.205	0.009	0.007	0.002	0.135	

System: ethylbenzene + heptane + 1-butyl-3-methylimidazolium nitrate; phases: Liquid mixture 2, Liquid mixture 1
Fixed: Temperature, K = 298.15
Fixed: Pressure, kPa = 101.3
Property: Mole fraction of heptane (Liquid mixture 2); method: Chromatography
Property: Mole fraction of heptane (Liquid mixture 1); method: Chromatography
Property: Mole fraction of ethylbenzene (Liquid mixture 1); method: Chromatography
Mole fraction of ethylbenzene	Mole fraction of heptane	uncertainty	Mole fraction of heptane	uncertainty	Mole fraction of ethylbenzene	uncertainty
0.153	0.847	0.009	0.005	0.002	0.038	
0.173	0.827	0.009	0.005	0.002	0.043	
0.309	0.691	0.009	0.007	0.002	0.053	
0.367	0.633	0.009	0.005	0.002	0.059	
0.479	0.521	0.009	0.006	0.002	0.065	
0.569	0.431	0.009	0.006	0.002	0.079	
0.641	0.359	0.009	0.007	0.002	0.092	
0.775	0.225	0.009	0.006	0.002	0.117	

System: ethylbenzene + octane + 1-butyl-3-methylimidazolium nitrate; phases: Liquid mixture 2, Liquid mixture 1
Fixed: Temperature, K = 298.15
Fixed: Pressure, kPa = 101.3
Property: Mole fraction of octane (Liquid mixture 2); method: Chromatography
Property: Mole fraction of octane (Liquid mixture 1); method: Chromatography
Property: Mole fraction of ethylbenzene (Liquid mixture 1); method: Chromatography
Mole fraction of ethylbenzene	Mole fraction of octane	uncertainty	Mole fraction of octane	uncertainty	Mole fraction of ethylbenzene	uncertainty
0.167	0.833	0.009	0.004	0.002	0.031	
0.196	0.804	0.009	0.004	0.002	0.037	
0.337	0.663	0.009	0.004	0.002	0.055	
0.396	0.604	0.009	0.004	0.002	0.063	
0.5	0.5	0.009	0.004	0.002	0.075	
0.507	0.493	0.009	0.005	0.002	0.082	
0.593	0.407	0.009	0.004	0.002	0.091	
0.672	0.328	0.009	0.005	0.002	0.102	

System: 1,4-dimethylbenzene + hexane + 1-butyl-3-methylimidazolium nitrate; phases: Liquid mixture 2, Liquid mixture 1
Fixed: Temperature, K = 298.15
Fixed: Pressure, kPa = 101.3
Property: Mole fraction of hexane (Liquid mixture 2); method: Chromatography
Property: Mole fraction of hexane (Liquid mixture 1); method: Chromatography
Property: Mole fraction of 1,4-dimethylbenzene (Liquid mixture 1); method: Chromatography
Mole fraction of 1,4-dimethylbenzene	Mole fraction of hexane	uncertainty	Mole fraction of hexane	uncertainty	Mole fraction of 1,4-dimethylbenzene	uncertainty
0.135	0.865	0.009	0.004	0.002	0.018	
0.162	0.838	0.009	0.004	0.002	0.021	
0.282	0.718	0.009	0.005	0.002	0.032	
0.339	0.661	0.009	0.004	0.002	0.039	
0.441	0.559	0.009	0.005	0.002	0.047	
0.537	0.463	0.009	0.005	0.002	0.061	
0.611	0.389	0.009	0.005	0.002	0.069	
0.754	0.246	0.009	0.005	0.002	0.093	
0.796	0.204	0.009	0.004	0.002	0.101	

System: 1,4-dimethylbenzene + heptane + 1-butyl-3-methylimidazolium nitrate; phases: Liquid mixture 2, Liquid mixture 1
Fixed: Temperature, K = 298.15
Fixed: Pressure, kPa = 101.3
Property: Mole fraction of heptane (Liquid mixture 2); method: Chromatography
Property: Mole fraction of heptane (Liquid mixture 1); method: Chromatography
Property: Mole fraction of 1,4-dimethylbenzene (Liquid mixture 1); method: Chromatography
Mole fraction of 1,4-dimethylbenzene	Mole fraction of heptane	uncertainty	Mole fraction of heptane	uncertainty	Mole fraction of 1,4-dimethylbenzene	uncertainty
0.153	0.847	0.009	0.004	0.002	0.024	
0.176	0.824	0.009	0.004	0.002	0.029	
0.308	0.692	0.009	0.005	0.002	0.051	
0.366	0.634	0.009	0.006	0.002	0.062	
0.464	0.536	0.009	0.006	0.002	0.079	
0.471	0.529	0.009	0.007	0.002	0.085	
0.55	0.45	0.009	0.007	0.002	0.099	
0.644	0.356	0.009	0.009	0.002	0.127	

System: 1,4-dimethylbenzene + octane + 1-butyl-3-methylimidazolium nitrate; phases: Liquid mixture 2, Liquid mixture 1
Fixed: Temperature, K = 298.15
Fixed: Pressure, kPa = 101.3
Property: Mole fraction of octane (Liquid mixture 2); method: Chromatography
Property: Mole fraction of octane (Liquid mixture 1); method: Chromatography
Property: Mole fraction of 1,4-dimethylbenzene (Liquid mixture 1); method: Chromatography
Mole fraction of 1,4-dimethylbenzene	Mole fraction of octane	uncertainty	Mole fraction of octane	uncertainty	Mole fraction of 1,4-dimethylbenzene	uncertainty
0.172	0.828	0.009	0.005	0.002	0.036	
0.192	0.808	0.009	0.005	0.002	0.04	
0.335	0.665	0.009	0.006	0.002	0.06	
0.392	0.608	0.009	0.005	0.002	0.072	
0.483	0.517	0.009	0.006	0.002	0.088	
0.502	0.498	0.009	0.006	0.002	0.092	
0.584	0.416	0.009	0.006	0.002	0.112	
0.664	0.336	0.009	0.006	0.002	0.139	
0.79	0.21	0.009	0.006	0.002	0.174	

System: ethylbenzene + hexane + 1-methyl-3-octylimidazolium nitrate; phases: Liquid mixture 2, Liquid mixture 1
Fixed: Temperature, K = 298.15
Fixed: Pressure, kPa = 101.3
Property: Mole fraction of hexane (Liquid mixture 2); method: Chromatography
Property: Mole fraction of hexane (Liquid mixture 1); method: Chromatography
Property: Mole fraction of ethylbenzene (Liquid mixture 1); method: Chromatography
Mole fraction of ethylbenzene	Mole fraction of hexane	uncertainty	Mole fraction of hexane	uncertainty	Mole fraction of ethylbenzene	uncertainty
0.129	0.871	0.009	0.112	0.003	0.08	
0.151	0.849	0.009	0.105	0.002	0.092	
0.26	0.74	0.009	0.136	0.002	0.16	
0.333	0.667	0.009	0.122	0.002	0.226	
0.378	0.622	0.009	0.117	0.002	0.259	
0.404	0.596	0.009	0.139	0.002	0.283	
0.47	0.53	0.009	0.123	0.002	0.329	
0.564	0.436	0.009	0.131	0.002	0.42	
0.645	0.355	0.009	0.12	0.002	0.525	
0.717	0.283	0.009	0.102	0.002	0.593	

System: ethylbenzene + heptane + 1-methyl-3-octylimidazolium nitrate; phases: Liquid mixture 2, Liquid mixture 1
Fixed: Temperature, K = 298.15
Fixed: Pressure, kPa = 101.3
Property: Mole fraction of heptane (Liquid mixture 2); method: Chromatography
Property: Mole fraction of heptane (Liquid mixture 1); method: Chromatography
Property: Mole fraction of ethylbenzene (Liquid mixture 1); method: Chromatography
Mole fraction of ethylbenzene	Mole fraction of heptane	uncertainty	Mole fraction of heptane	uncertainty	Mole fraction of ethylbenzene	uncertainty
0.139	0.861	0.009	0.091	0.003	0.091	
0.156	0.844	0.009	0.084	0.003	0.1	
0.296	0.704	0.009	0.082	0.003	0.168	
0.341	0.659	0.009	0.068	0.002	0.182	
0.432	0.568	0.009	0.069	0.002	0.216	
0.455	0.545	0.009	0.067	0.002	0.227	
0.538	0.462	0.009	0.063	0.002	0.256	
0.621	0.379	0.009	0.063	0.002	0.31	
0.75	0.25	0.009	0.05	0.002	0.376	
0.805	0.195	0.009	0.043	0.002	0.414	

System: ethylbenzene + octane + 1-methyl-3-octylimidazolium nitrate; phases: Liquid mixture 2, Liquid mixture 1
Fixed: Temperature, K = 298.15
Fixed: Pressure, kPa = 101.3
Property: Mole fraction of octane (Liquid mixture 2); method: Chromatography
Property: Mole fraction of octane (Liquid mixture 1); method: Chromatography
Property: Mole fraction of ethylbenzene (Liquid mixture 1); method: Chromatography
Mole fraction of ethylbenzene	Mole fraction of octane	uncertainty	Mole fraction of octane	uncertainty	Mole fraction of ethylbenzene	uncertainty
0.163	0.837	0.009	0.076	0.002	0.11	
0.166	0.834	0.009	0.075	0.002	0.115	
0.304	0.696	0.009	0.066	0.002	0.18	
0.358	0.642	0.009	0.055	0.002	0.198	
0.457	0.543	0.009	0.054	0.002	0.237	
0.479	0.521	0.009	0.055	0.002	0.254	
0.557	0.443	0.009	0.047	0.002	0.275	
0.645	0.355	0.009	0.04	0.002	0.314	
0.772	0.228	0.009	0.034	0.002	0.377	
0.82	0.18	0.009	0.027	0.002	0.4	

System: 1,4-dimethylbenzene + hexane + 1-methyl-3-octylimidazolium nitrate; phases: Liquid mixture 2, Liquid mixture 1
Fixed: Temperature, K = 298.15
Fixed: Pressure, kPa = 101.3
Property: Mole fraction of hexane (Liquid mixture 2); method: Chromatography
Property: Mole fraction of hexane (Liquid mixture 1); method: Chromatography
Property: Mole fraction of 1,4-dimethylbenzene (Liquid mixture 1); method: Chromatography
Mole fraction of 1,4-dimethylbenzene	Mole fraction of hexane	uncertainty	Mole fraction of hexane	uncertainty	Mole fraction of 1,4-dimethylbenzene	uncertainty
0.133	0.867	0.009	0.058	0.002	0.046	
0.145	0.855	0.009	0.061	0.002	0.055	
0.274	0.726	0.009	0.083	0.002	0.115	
0.32	0.68	0.009	0.079	0.002	0.136	
0.411	0.589	0.009	0.087	0.002	0.184	
0.423	0.577	0.009	0.089	0.002	0.199	
0.496	0.504	0.009	0.083	0.002	0.236	
0.589	0.411	0.009	0.082	0.002	0.301	
0.705	0.295	0.009	0.074	0.002	0.397	
0.775	0.225	0.009	0.083	0.002	0.486	

System: 1,4-dimethylbenzene + heptane + 1-methyl-3-octylimidazolium nitrate; phases: Liquid mixture 2, Liquid mixture 1
Fixed: Temperature, K = 298.15
Fixed: Pressure, kPa = 101.3
Property: Mole fraction of heptane (Liquid mixture 2); method: Chromatography
Property: Mole fraction of heptane (Liquid mixture 1); method: Chromatography
Property: Mole fraction of 1,4-dimethylbenzene (Liquid mixture 1); method: Chromatography
Mole fraction of 1,4-dimethylbenzene	Mole fraction of heptane	uncertainty	Mole fraction of heptane	uncertainty	Mole fraction of 1,4-dimethylbenzene	uncertainty
0.152	0.848	0.009	0.058	0.002	0.052	
0.174	0.826	0.009	0.054	0.002	0.062	
0.3	0.7	0.009	0.068	0.002	0.124	
0.347	0.653	0.009	0.065	0.002	0.15	
0.436	0.564	0.009	0.06	0.002	0.196	
0.455	0.545	0.009	0.062	0.002	0.21	
0.526	0.474	0.009	0.066	0.002	0.269	
0.615	0.385	0.009	0.062	0.002	0.33	
0.73	0.27	0.009	0.055	0.002	0.424	

System: 1,4-dimethylbenzene + octane + 1-methyl-3-octylimidazolium nitrate; phases: Liquid mixture 1, Liquid mixture 2
Fixed: Temperature, K = 298.15
Fixed: Pressure, kPa = 101.3
Property: Mole fraction of octane (Liquid mixture 1); method: Chromatography
Property: Mole fraction of octane (Liquid mixture 2); method: Chromatography
Property: Mole fraction of 1,4-dimethylbenzene (Liquid mixture 2); method: Chromatography
Mole fraction of 1,4-dimethylbenzene	Mole fraction of octane	uncertainty	Mole fraction of octane	uncertainty	Mole fraction of 1,4-dimethylbenzene	uncertainty
0.087	0.074	0.002	0.846	0.009	0.154	
0.415	0.03	0.002	0.184	0.009	0.816	
0.099	0.069	0.002	0.823	0.009	0.177	
0.161	0.065	0.003	0.681	0.009	0.319	
0.174	0.056	0.002	0.63	0.009	0.37	
0.213	0.051	0.002	0.535	0.009	0.465	
0.222	0.05	0.002	0.517	0.009	0.483	
0.259	0.048	0.002	0.435	0.009	0.565	
0.309	0.045	0.002	0.352	0.009	0.648	
0.378	0.032	0.002	0.23	0.009	0.77	
