Measured thermophysical data. Isobaric vapor liquid equilibrium for binary system of ethyl  myristate + ethyl palmitate at 0.5, 1.0 and 1.5 kPa
Source: Fluid Phase Equilib., 2013, 10.1016/j.fluid.2013.03.008
Compound 1: ethyl tetradecanoate, C16H32O2, InChI=1S/C16H32O2/c1-3-5-6-7-8-9-10-11-12-13-14-15-16(17)18-4-2/h3-15H2,1-2H3, purity 99.9%
Compound 2: ethyl hexadecanoate, C18H36O2, InChI=1S/C18H36O2/c1-3-5-6-7-8-9-10-11-12-13-14-15-16-17-18(19)20-4-2/h3-17H2,1-2H3, purity 99.9%

System: ethyl tetradecanoate; phases: Liquid, Gas
Property: Vapor or sublimation pressure, kPa (Liquid); method: Closed cell (Static) method
Temperature, K	Vapor or sublimation pressure, kPa	uncertainty
392.17	0.1	0.01
398.52	0.15	0.01
404.27	0.2	0.01
410.95	0.3	0.01
416.1	0.4	0.01
419.65	0.5	0.01
425.69	0.65	0.02
430.55	0.8	0.02
434.91	1	0.02
439.1	1.2	0.03
443.82	1.5	0.03

System: ethyl hexadecanoate; phases: Liquid, Gas
Property: Vapor or sublimation pressure, kPa (Liquid); method: Closed cell (Static) method
Temperature, K	Vapor or sublimation pressure, kPa	uncertainty
412.63	0.1	0.01
419.36	0.15	0.01
425.07	0.2	0.01
433.31	0.3	0.01
438.71	0.4	0.01
442.68	0.5	0.01
448.35	0.65	0.02
452.99	0.8	0.02
457.98	1	0.02
462.64	1.2	0.03
468.07	1.5	0.03

System: ethyl tetradecanoate + ethyl hexadecanoate; phases: Liquid, Gas
Property: Boiling temperature at pressure P, K (Liquid); method: Ebulliometric method (Recirculating still)
Mole fraction of ethyl tetradecanoate	Pressure, kPa	Boiling temperature at pressure P, K	uncertainty
0	0.5	442.68	1.28
0.0794	0.5	440.18	1.27
0.0998	0.5	439.46	1.23
0.142	0.5	437.96	1.23
0.2222	0.5	435.52	1.21
0.3126	0.5	433.1	1.21
0.4304	0.5	430.33	1.19
0.5193	0.5	428.53	1.12
0.5843	0.5	427.18	1.13
0.6338	0.5	426.34	1.14
0.7618	0.5	424.16	1.12
0.8665	0.5	422.68	1.12
0.9271	0.5	421.79	1.16
1	0.5	420.46	1.22
0	1	457.98	1.24
0.0829	1	455.23	1.21
0.0999	1	454.1	1.23
0.1569	1	452.21	1.22
0.2543	1	449.2	1.22
0.3691	1	446.21	1.21
0.4882	1	443.4	1.19
0.5282	1	441.74	1.2
0.5907	1	440.64	1.21
0.7077	1	438.47	1.18
0.8114	1	436.91	1.18
0.8675	1	436.05	1.2
0.9264	1	435.58	1.18
1	1	434.98	1.15
0	1.5	468.07	1.2
0.0961	1.5	464.75	1.25
0.1162	1.5	463.97	1.25
0.1678	1.5	462.2	1.24
0.236	1.5	460.15	1.25
0.3502	1.5	457.06	1.25
0.4475	1.5	454.73	1.24
0.5032	1.5	453.46	1.24
0.5542	1.5	452.38	1.33
0.69	1.5	449.72	1.31
0.7693	1.5	448.38	1.28
0.8231	1.5	447.5	1.29
0.932	1.5	445.91	1.2
1	1.5	444.05	1.08

System: ethyl tetradecanoate + ethyl hexadecanoate; phases: Gas, Liquid
Property: Mole fraction of ethyl tetradecanoate (Gas); method: Chromatography
Mole fraction of ethyl tetradecanoate	Pressure, kPa	Mole fraction of ethyl tetradecanoate	uncertainty
0	0.5	0	
0.0794	0.5	0.2103	0.0058
0.0998	0.5	0.2538	0.005
0.142	0.5	0.3369	0.0049
0.2222	0.5	0.4673	0.0053
0.3126	0.5	0.5823	0.0046
0.4304	0.5	0.6988	0.0037
0.5193	0.5	0.7673	0.0032
0.5843	0.5	0.8105	0.0029
0.6338	0.5	0.8401	0.0027
0.7618	0.5	0.9064	0.0024
0.8665	0.5	0.9512	0.0022
0.9271	0.5	0.9743	0.0021
1	0.5	1	
0	1	0	
0.0829	1	0.211	0.0045
0.0999	1	0.2421	0.0047
0.1569	1	0.3495	0.0048
0.2543	1	0.497	0.0054
0.3691	1	0.6283	0.0043
0.4882	1	0.7331	0.0035
0.5282	1	0.7632	0.0032
0.5907	1	0.8029	0.0029
0.7077	1	0.8722	0.0025
0.8114	1	0.9236	0.0023
0.8675	1	0.948	0.0022
0.9264	1	0.9718	0.0022
1	1	1	
0	1.5	0	
0.0961	1.5	0.2299	0.0048
0.1162	1.5	0.2689	0.0047
0.1678	1.5	0.3608	0.0049
0.236	1.5	0.4627	0.0052
0.3502	1.5	0.5988	0.0046
0.4475	1.5	0.6912	0.0038
0.5032	1.5	0.7366	0.0034
0.5542	1.5	0.7741	0.0031
0.69	1.5	0.8594	0.0026
0.7693	1.5	0.9009	0.0024
0.8231	1.5	0.9266	0.0023
0.932	1.5	0.9699	0.0022
1	1.5	1	
