Measured thermophysical data. Liquid-liquid equilibria for ternary system water + acetic acid+ cyclohexanone at (293.2 to 323.2) K
Source: Fluid Phase Equilib., 2014, 10.1016/j.fluid.2014.08.034
Compound 1: acetic acid, C2H4O2, InChI=1S/C2H4O2/c1-2(3)4/h1H3,(H,3,4), purity 99%
Compound 2: cyclohexanone, C6H10O, InChI=1S/C6H10O/c7-6-4-2-1-3-5-6/h1-5H2, purity 99%
Compound 3: water, H2O, InChI=1S/H2O/h1H2, purity 99.9%

System: acetic acid + cyclohexanone + water; phases: Liquid mixture 1, Liquid mixture 2
Fixed: Pressure, kPa = 101
Property: Mole fraction of acetic acid (Liquid mixture 1); method: Chromatography
Property: Mole fraction of cyclohexanone (Liquid mixture 2); method: Chromatography
Property: Mole fraction of acetic acid (Liquid mixture 2); method: Chromatography
Temperature, K	Mole fraction of cyclohexanone	Mole fraction of acetic acid	uncertainty	Mole fraction of cyclohexanone	uncertainty	Mole fraction of acetic acid	uncertainty
293.2	0.7839	0.0381	0.0007	0.1059	0.0013	0.0393	
303.2	0.5178	0.1602	0.0013	0.1898	0.0033	0.1509	
313.2	0.8162	0.0438	0.0006	0.09	0.0012	0.0381	
313.2	0.7492	0.0768	0.0007	0.0985	0.0014	0.072	
313.2	0.6919	0.1054	0.0009	0.1155	0.002	0.0943	
313.2	0.6232	0.1321	0.0011	0.1393	0.0027	0.1217	
313.2	0.5287	0.1623	0.0013	0.1866	0.0036	0.155	
323.2	0.7919	0.0421	0.0007	0.0835	0.0013	0.0391	
323.2	0.7368	0.0752	0.0008	0.0965	0.0016	0.071	
323.2	0.6827	0.1006	0.0009	0.1146	0.0023	0.0919	
323.2	0.6408	0.1269	0.001	0.1329	0.0029	0.1073	
293.2	0.7269	0.077	0.0008	0.1154	0.0015	0.0672	
323.2	0.52	0.1581	0.0012	0.1942	0.0032	0.1521	
293.2	0.6833	0.1035	0.0009	0.1285	0.0019	0.0886	
293.2	0.6216	0.1305	0.0011	0.1497	0.0027	0.116	
293.2	0.5319	0.1607	0.0013	0.1992	0.0034	0.1489	
303.2	0.7946	0.0427	0.0006	0.0908	0.0012	0.0382	
303.2	0.7303	0.0782	0.0007	0.1034	0.0015	0.0674	
303.2	0.6743	0.1045	0.0009	0.1175	0.0019	0.0901	
303.2	0.623	0.13	0.001	0.1387	0.0027	0.115	
