Measured thermophysical data. Isobaric vapor-liquid equilibrium for methyl acetate + methanol system containing different ionic liquids at 101.3 kPa
Source: Fluid Phase Equilib., 2016, 10.1016/j.fluid.2015.07.045
Compound 1: methyl ethanoate, C3H6O2, InChI=1S/C3H6O2/c1-3(4)5-2/h1-2H3, purity 99.5%
Compound 2: methanol, CH4O, InChI=1S/CH4O/c1-2/h2H,1H3, purity 99.5%
Compound 3: 1-hexyl-3-methylimidazolium chloride, C10H19ClN2, InChI=1S/C10H19N2.ClH/c1-3-4-5-6-7-12-9-8-11(2)10-12;/h8-10H,3-7H2,1-2H3;1H/q+1;/p-1, purity 99%
Compound 4: 1-benzyl-3-methyl-1H-imidazolium chloride, C11H13ClN2, InChI=1S/C11H13N2.ClH/c1-12-7-8-13(10-12)9-11-5-3-2-4-6-11;/h2-8,10H,9H2,1H3;1H/q+1;/p-1, purity 99%
Compound 5: 3-hexyl-1-methyl-1H-imidazolium bromide, C10H19BrN2, InChI=1S/C10H19N2.BrH/c1-3-4-5-6-7-12-9-8-11(2)10-12;/h8-10H,3-7H2,1-2H3;1H/q+1;/p-1, purity 99%

System: methyl ethanoate; phases: Liquid
Property: Mass density, kg/m3 (Liquid); method: Vibrating tube method
Temperature, K	Pressure, kPa	Mass density, kg/m3	uncertainty
298.15	101.325	927.3	0.4

System: methyl ethanoate; phases: Liquid, Gas
Property: Boiling temperature at pressure P, K (Liquid); method: Ebulliometric method (Recirculating still)
Pressure, kPa	Boiling temperature at pressure P, K	uncertainty
101.3	330.2	0.1

System: methanol; phases: Liquid
Property: Mass density, kg/m3 (Liquid); method: Vibrating tube method
Temperature, K	Pressure, kPa	Mass density, kg/m3	uncertainty
298.15	101.325	787.1	0.4

System: methanol; phases: Liquid, Gas
Property: Boiling temperature at pressure P, K (Liquid); method: Ebulliometric method (Recirculating still)
Pressure, kPa	Boiling temperature at pressure P, K	uncertainty
101.3	337.69	0.1

System: 1-hexyl-3-methylimidazolium chloride; phases: Liquid
Property: Mass density, kg/m3 (Liquid); method: Vibrating tube method
Temperature, K	Pressure, kPa	Mass density, kg/m3	uncertainty
298.15	101.325	1044.3	0.5

System: 1-benzyl-3-methyl-1H-imidazolium chloride; phases: Liquid
Property: Mass density, kg/m3 (Liquid); method: Vibrating tube method
Temperature, K	Pressure, kPa	Mass density, kg/m3	uncertainty
298.15	101.325	1192.8	0.6

System: 3-hexyl-1-methyl-1H-imidazolium bromide; phases: Liquid
Property: Mass density, kg/m3 (Liquid); method: Vibrating tube method
Temperature, K	Pressure, kPa	Mass density, kg/m3	uncertainty
298.15	101.325	1229.2	0.6

System: methanol + methyl ethanoate + 1-hexyl-3-methylimidazolium chloride; phases: Liquid, Gas
Fixed: Pressure, kPa = 101.3
Property: Boiling temperature at pressure P, K (Liquid); method: Ebulliometric method (Recirculating still)
Mole fraction of 1-hexyl-3-methylimidazolium chloride	Mole fraction of methyl ethanoate	Boiling temperature at pressure P, K	uncertainty
0.05	0	341.01	0.22
0.051	0.021	339.01	0.3
0.049	0.083	334.67	0.2
0.05	0.142	332.04	0.15
0.052	0.208	330.12	0.15
0.05	0.267	329.03	0.14
0.051	0.322	328.36	0.14
0.052	0.404	327.83	0.14
0.05	0.451	327.71	0.14
0.051	0.531	327.74	0.14
0.05	0.587	327.9	0.14
0.049	0.657	328.26	0.14
0.05	0.703	328.57	0.14
0.052	0.778	329.3	0.14
0.05	0.854	330.12	0.15
0.051	0.913	331.01	0.15
0.05	0.95	331.61	0.15
0.101	0	346.73	0.26
0.1	0.032	342.28	0.35
0.1	0.093	336.76	0.23
0.101	0.147	333.66	0.18
0.1	0.195	331.78	0.16
0.099	0.243	330.47	0.15
0.1	0.309	329.31	0.14
0.101	0.371	328.71	0.14
0.102	0.427	328.46	0.14
0.1	0.496	328.45	0.14
0.099	0.562	328.65	0.14
0.1	0.621	329.02	0.14
0.102	0.681	329.55	0.14
0.1	0.745	330.17	0.14
0.101	0.811	331.01	0.14
0.1	0.874	331.88	0.15
0.099	0.901	332.29	0.15
0.149	0	352.88	0.29
0.15	0.037	346.15	0.38
0.151	0.098	339.07	0.28
0.15	0.134	336.34	0.2
0.152	0.176	334.05	0.19
0.15	0.238	331.67	0.15
0.151	0.294	330.36	0.14
0.15	0.335	329.71	0.14
0.149	0.416	329.06	0.14
0.15	0.477	328.97	0.14
0.149	0.547	329.16	0.14
0.15	0.598	329.48	0.14
0.151	0.655	329.98	0.14
0.15	0.713	330.59	0.14
0.149	0.765	331.24	0.14
0.152	0.804	331.83	0.14
0.15	0.85	332.51	0.14

System: methanol + methyl ethanoate + 1-hexyl-3-methylimidazolium chloride; phases: Gas, Liquid
Fixed: Pressure, kPa = 101.3
Property: Mole fraction of methyl ethanoate (Gas); method: Chromatography
Mole fraction of 1-hexyl-3-methylimidazolium chloride	Mole fraction of methyl ethanoate	Mole fraction of methyl ethanoate	uncertainty
0.05	0	0	
0.051	0.021	0.102	0.01
0.049	0.083	0.304	0.008
0.05	0.142	0.422	0.007
0.052	0.208	0.512	0.007
0.05	0.267	0.57	0.006
0.051	0.322	0.613	0.006
0.052	0.404	0.665	0.006
0.05	0.451	0.691	0.006
0.051	0.531	0.733	0.005
0.05	0.587	0.761	0.005
0.049	0.657	0.796	0.005
0.05	0.703	0.821	0.004
0.052	0.778	0.865	0.004
0.05	0.854	0.917	0.004
0.051	0.913	0.965	0.003
0.05	0.95	1	
0.101	0	0	
0.1	0.032	0.195	0.009
0.1	0.093	0.414	0.008
0.101	0.147	0.528	0.007
0.1	0.195	0.598	0.006
0.099	0.243	0.65	0.006
0.1	0.309	0.705	0.005
0.101	0.371	0.745	0.005
0.102	0.427	0.776	0.005
0.1	0.496	0.81	0.005
0.099	0.562	0.84	0.004
0.1	0.621	0.865	0.004
0.102	0.681	0.892	0.004
0.1	0.745	0.921	0.003
0.101	0.811	0.952	0.003
0.1	0.874	0.986	0.003
0.099	0.901	1	
0.149	0	0	
0.15	0.037	0.275	0.011
0.151	0.098	0.509	0.009
0.15	0.134	0.59	0.006
0.152	0.176	0.657	0.006
0.15	0.238	0.727	0.005
0.151	0.294	0.771	0.005
0.15	0.335	0.798	0.004
0.149	0.416	0.84	0.004
0.15	0.477	0.866	0.004
0.149	0.547	0.893	0.003
0.15	0.598	0.912	0.003
0.151	0.655	0.931	0.003
0.15	0.713	0.951	0.003
0.149	0.765	0.97	0.003
0.152	0.804	0.983	0.003
0.15	0.85	1	

System: methanol + methyl ethanoate + 1-benzyl-3-methyl-1H-imidazolium chloride; phases: Liquid, Gas
Fixed: Pressure, kPa = 101.3
Property: Boiling temperature at pressure P, K (Liquid); method: Ebulliometric method (Recirculating still)
Mole fraction of 1-benzyl-3-methyl-1H-imidazolium chloride	Mole fraction of methyl ethanoate	Boiling temperature at pressure P, K	uncertainty
0.049	0	341.37	0.3
0.05	0.016	339.73	0.34
0.051	0.079	335.33	0.24
0.05	0.124	333.07	0.23
0.049	0.162	331.65	0.19
0.05	0.218	330.24	0.18
0.052	0.273	329.34	0.17
0.05	0.327	328.61	0.17
0.049	0.381	328.15	0.17
0.051	0.437	327.97	0.17
0.051	0.485	327.88	0.17
0.05	0.549	327.84	0.17
0.051	0.613	328.02	0.17
0.05	0.694	328.34	0.17
0.049	0.773	328.86	0.17
0.051	0.888	330.35	0.17
0.05	0.95	331.52	0.17
0.1	0	348.17	0.31
0.101	0.037	343.56	0.35
0.1	0.085	339.23	0.25
0.102	0.141	336.15	0.23
0.1	0.196	333.88	0.21
0.101	0.252	332.52	0.19
0.1	0.298	331.63	0.19
0.099	0.324	331.22	0.18
0.1	0.383	330.73	0.18
0.101	0.451	330.46	0.18
0.1	0.512	330.28	0.17
0.098	0.569	330.26	0.17
0.1	0.597	330.44	0.17
0.101	0.648	330.7	0.17
0.1	0.721	331.09	0.17
0.102	0.804	331.93	0.17
0.1	0.9	333.08	0.17
0.149	0	355.59	0.33
0.15	0.026	351.2	0.44
0.152	0.085	344.55	0.29
0.15	0.131	340.96	0.25
0.151	0.179	338.61	0.24
0.15	0.244	336.33	0.21
0.149	0.298	335.06	0.2
0.15	0.324	334.71	0.2
0.152	0.384	334.13	0.19
0.151	0.435	333.67	0.19
0.15	0.482	333.4	0.18
0.149	0.549	333.24	0.18
0.15	0.591	333.32	0.18
0.151	0.648	333.5	0.18
0.151	0.711	333.77	0.17
0.15	0.804	334.34	0.17
0.149	0.851	334.72	0.17

System: methanol + methyl ethanoate + 1-benzyl-3-methyl-1H-imidazolium chloride; phases: Gas, Liquid
Fixed: Pressure, kPa = 101.3
Property: Mole fraction of methyl ethanoate (Gas); method: Chromatography
Mole fraction of 1-benzyl-3-methyl-1H-imidazolium chloride	Mole fraction of methyl ethanoate	Mole fraction of methyl ethanoate	uncertainty
0.049	0	0	
0.05	0.016	0.08	0.008
0.051	0.079	0.294	0.007
0.05	0.124	0.389	0.006
0.049	0.162	0.451	0.006
0.05	0.218	0.517	0.006
0.052	0.273	0.568	0.006
0.05	0.327	0.607	0.006
0.049	0.381	0.64	0.005
0.051	0.437	0.671	0.005
0.051	0.485	0.695	0.005
0.05	0.549	0.726	0.005
0.051	0.613	0.757	0.005
0.05	0.694	0.797	0.004
0.049	0.773	0.843	0.004
0.051	0.888	0.932	0.003
0.05	0.95	1	
0.1	0	0	
0.101	0.037	0.208	0.009
0.1	0.085	0.373	0.006
0.102	0.141	0.492	0.007
0.1	0.196	0.567	0.006
0.101	0.252	0.627	0.005
0.1	0.298	0.663	0.005
0.099	0.324	0.682	0.005
0.1	0.383	0.717	0.005
0.101	0.451	0.753	0.004
0.1	0.512	0.782	0.004
0.098	0.569	0.808	0.004
0.1	0.597	0.821	0.004
0.101	0.648	0.845	0.004
0.1	0.721	0.882	0.004
0.102	0.804	0.93	0.003
0.1	0.9	1	
0.149	0	0	
0.15	0.026	0.186	0.015
0.152	0.085	0.426	0.007
0.15	0.131	0.531	0.006
0.151	0.179	0.606	0.006
0.15	0.244	0.675	0.005
0.149	0.298	0.718	0.005
0.15	0.324	0.735	0.004
0.152	0.384	0.77	0.004
0.151	0.435	0.796	0.004
0.15	0.482	0.817	0.004
0.149	0.549	0.848	0.003
0.15	0.591	0.867	0.003
0.151	0.648	0.892	0.003
0.151	0.711	0.922	0.003
0.15	0.804	0.973	0.003
0.149	0.851	1	

System: methanol + methyl ethanoate + 3-hexyl-1-methyl-1H-imidazolium bromide; phases: Liquid, Gas
Fixed: Pressure, kPa = 101.3
Property: Boiling temperature at pressure P, K (Liquid); method: Ebulliometric method (Recirculating still)
Mole fraction of 3-hexyl-1-methyl-1H-imidazolium bromide	Mole fraction of methyl ethanoate	Boiling temperature at pressure P, K	uncertainty
0.049	0	339.54	0.17
0.05	0.036	336.96	0.19
0.051	0.115	333.16	0.17
0.05	0.171	331.45	0.15
0.051	0.248	329.97	0.15
0.052	0.296	329.38	0.15
0.05	0.358	328.79	0.15
0.049	0.433	328.39	0.15
0.05	0.504	328.27	0.15
0.052	0.563	328.34	0.15
0.05	0.636	328.43	0.16
0.052	0.686	328.71	0.16
0.05	0.725	328.86	0.16
0.051	0.772	329.24	0.16
0.05	0.818	329.67	0.17
0.049	0.864	330.22	0.17
0.05	0.95	331.92	0.17
0.101	0	342.7	0.19
0.1	0.033	339.63	0.24
0.101	0.094	335.86	0.19
0.1	0.143	333.82	0.17
0.099	0.21	332	0.16
0.1	0.276	330.95	0.15
0.102	0.336	330.43	0.15
0.1	0.394	330.05	0.15
0.101	0.452	329.95	0.15
0.101	0.507	329.96	0.15
0.1	0.558	330.03	0.16
0.1	0.611	330.24	0.16
0.099	0.697	330.75	0.16
0.1	0.739	331.16	0.17
0.101	0.785	331.71	0.17
0.102	0.826	332.31	0.17
0.1	0.9	333.48	0.17
0.15	0	346.55	0.21
0.151	0.034	342.83	0.26
0.15	0.094	338.34	0.22
0.149	0.143	335.99	0.18
0.15	0.215	333.93	0.17
0.151	0.276	332.93	0.16
0.15	0.336	332.29	0.16
0.152	0.394	332.09	0.16
0.15	0.451	331.91	0.16
0.149	0.502	331.93	0.16
0.15	0.558	332.16	0.16
0.151	0.601	332.43	0.16
0.15	0.657	332.78	0.16
0.152	0.683	333.1	0.17
0.151	0.732	333.55	0.17
0.15	0.798	334.33	0.17
0.15	0.85	335.16	0.17

System: methanol + methyl ethanoate + 3-hexyl-1-methyl-1H-imidazolium bromide; phases: Gas, Liquid
Fixed: Pressure, kPa = 101.3
Property: Mole fraction of methyl ethanoate (Gas); method: Chromatography
Mole fraction of 3-hexyl-1-methyl-1H-imidazolium bromide	Mole fraction of methyl ethanoate	Mole fraction of methyl ethanoate	uncertainty
0.049	0	0	
0.05	0.036	0.136	0.006
0.051	0.115	0.323	0.006
0.05	0.171	0.405	0.006
0.051	0.248	0.486	0.006
0.052	0.296	0.528	0.006
0.05	0.358	0.566	0.005
0.049	0.433	0.609	0.005
0.05	0.504	0.646	0.005
0.052	0.563	0.679	0.005
0.05	0.636	0.717	0.005
0.052	0.686	0.746	0.005
0.05	0.725	0.771	0.004
0.051	0.772	0.806	0.004
0.05	0.818	0.843	0.004
0.049	0.864	0.889	0.004
0.05	0.95	1	
0.101	0	0	
0.1	0.033	0.149	0.007
0.101	0.094	0.326	0.006
0.1	0.143	0.417	0.006
0.099	0.21	0.503	0.006
0.1	0.276	0.565	0.005
0.102	0.336	0.609	0.005
0.1	0.394	0.645	0.005
0.101	0.452	0.678	0.005
0.101	0.507	0.709	0.005
0.1	0.558	0.737	0.004
0.1	0.611	0.765	0.004
0.099	0.697	0.818	0.004
0.1	0.739	0.847	0.004
0.101	0.785	0.884	0.004
0.102	0.826	0.923	0.004
0.1	0.9	1	
0.15	0	0	
0.151	0.034	0.178	0.008
0.15	0.094	0.369	0.007
0.149	0.143	0.465	0.006
0.15	0.215	0.56	0.006
0.151	0.276	0.617	0.005
0.15	0.336	0.661	0.005
0.152	0.394	0.698	0.005
0.15	0.451	0.73	0.004
0.149	0.502	0.758	0.004
0.15	0.558	0.789	0.004
0.151	0.601	0.814	0.004
0.15	0.657	0.847	0.004
0.152	0.683	0.865	0.004
0.151	0.732	0.898	0.004
0.15	0.798	0.952	0.004
0.15	0.85	1	
