Measured thermophysical data. The viscosity of the binary vapor mixture methanol triethylamine at low  densities and in the saturated vapor phase of the vapor liquid equilibrium
Source: Fluid Phase Equilib., 2011, 10.1016/j.fluid.2011.01.013
Compound 1: methanol, CH4O, InChI=1S/CH4O/c1-2/h2H,1H3, purity 99.9%
Compound 2: triethylamine, C6H15N, InChI=1S/C6H15N/c1-4-7(5-2)6-3/h4-6H2,1-3H3, purity 99.5%

System: methanol + triethylamine; phases: Gas
Property: Viscosity, Pa*s (Gas); method: Oscillating disk viscometry
Temperature, K	Mole fraction of methanol	Mass density, kg/m3	Viscosity, Pa*s	uncertainty
296.97	0.4998	2.1808	7.913e-06	3.39e-07
297.25	0.4996	0.6964	7.853e-06	3.39e-07
298.22	0.3322	1.2804	7.476e-06	3.29e-07
298.82	0.4996	0.6964	7.887e-06	3.41e-07
298.92	0.4982	1.1039	7.914e-06	3.39e-07
299.02	0.4999	0.6482	7.865e-06	3.4e-07
310.39	0.4996	0.6964	8.055e-06	3.55e-07
310.51	0.4998	2.1808	8.259e-06	3.47e-07
310.56	0.4999	0.6482	8.025e-06	3.42e-07
310.62	0.4982	1.1039	8.147e-06	3.44e-07
310.75	0.5035	1.5253	8.235e-06	3.46e-07
311.73	0.3322	1.2804	7.712e-06	3.34e-07
324.1	0.4998	2.1808	8.539e-06	3.53e-07
324.27	0.3322	1.2804	7.852e-06	3.37e-07
324.64	0.4996	0.6964	8.338e-06	3.52e-07
325.29	0.4982	1.1039	8.337e-06	3.49e-07
325.44	0.4999	0.6482	8.367e-06	3.54e-07
326.59	0.5035	1.5253	8.476e-06	3.52e-07
337.6	0.3322	1.2804	8.072e-06	3.43e-07
338.04	0.5035	1.5253	8.626e-06	3.55e-07
338.18	0.4982	1.1039	8.632e-06	3.56e-07
338.18	0.4999	0.6482	8.693e-06	3.58e-07
338.37	0.4996	0.6964	8.695e-06	3.57e-07
338.58	0.4998	2.1808	8.69e-06	3.57e-07
352.3	0.4996	0.6964	9.039e-06	3.65e-07
352.47	0.4999	0.6482	9.053e-06	3.67e-07
352.57	0.4982	1.1039	9.009e-06	3.64e-07
352.83	0.4998	2.1808	8.949e-06	3.63e-07
352.91	0.3322	1.2804	8.441e-06	3.51e-07
353.02	0.5035	1.5253	9.026e-06	3.65e-07
365.7	0.4998	2.1808	9.281e-06	3.76e-07
365.96	0.5035	1.5253	9.349e-06	3.72e-07
366.02	0.3322	1.2804	8.766e-06	3.59e-07
366.12	0.5035	1.5253	9.363e-06	3.73e-07
366.13	0.4999	0.6482	9.411e-06	3.75e-07
366.22	0.3322	1.2804	8.747e-06	3.58e-07
366.24	0.4996	0.6964	9.388e-06	3.74e-07
366.29	0.4982	1.1039	9.353e-06	3.72e-07
366.41	0.4998	2.1808	9.307e-06	3.77e-07
366.96	0.4999	0.6482	9.415e-06	3.75e-07
367.89	0.4982	1.1039	9.381e-06	3.73e-07
379.75	0.3322	1.2804	9.075e-06	3.66e-07
380.83	0.4998	2.1808	9.681e-06	3.8e-07
381.57	0.4999	0.6482	9.793e-06	3.83e-07
381.81	0.5035	1.5253	9.77e-06	3.82e-07
381.91	0.4982	1.1039	9.758e-06	3.82e-07
383.76	0.4996	0.6964	9.828e-06	3.85e-07
394.29	0.4998	2.1808	1.0039e-05	3.89e-07
394.84	0.5035	1.5253	1.0093e-05	3.9e-07
394.95	0.4996	0.6964	1.0102e-05	3.9e-07
394.98	0.3322	1.2804	9.437e-06	3.74e-07
395.04	0.4999	0.6482	1.0122e-05	3.93e-07
395.34	0.4982	1.1039	1.0085e-05	3.89e-07
408.74	0.3322	1.2804	9.753e-06	3.82e-07
409.01	0.4982	1.1039	1.0439e-05	3.98e-07
409.18	0.4998	2.1808	1.0417e-05	3.97e-07
409.61	0.4999	0.6482	1.05e-05	4e-07
410.61	0.5035	1.5253	1.0496e-05	3.99e-07
410.75	0.4996	0.6964	1.0515e-05	4e-07
422.83	0.3322	1.2804	1.0083e-05	3.89e-07
423.21	0.5035	1.5253	1.0811e-05	4.06e-07
423.31	0.4996	0.6964	1.083e-05	4.09e-07
423.64	0.4998	2.1808	1.0776e-05	4.06e-07
423.81	0.4982	1.1039	1.0805e-05	4.06e-07
425.55	0.4999	0.6482	1.0908e-05	4.1e-07
436.79	0.5035	1.5253	1.116e-05	4.14e-07
436.89	0.4998	2.1808	1.1108e-05	4.13e-07
436.91	0.4996	0.6964	1.117e-05	4.15e-07
437.47	0.4982	1.1039	1.116e-05	4.14e-07
438.27	0.4999	0.6482	1.1217e-05	4.18e-07
441.21	0.3322	1.2804	1.0528e-05	4e-07
451.54	0.3322	1.2804	1.0764e-05	4.05e-07
451.6	0.5035	1.5253	1.1535e-05	4.23e-07
451.74	0.4982	1.1039	1.1513e-05	4.23e-07
452.02	0.4998	2.1808	1.1506e-05	4.23e-07
452.69	0.4996	0.6964	1.1574e-05	4.26e-07
453.25	0.4999	0.6482	1.1612e-05	4.26e-07
466.65	0.4998	2.1808	1.188e-05	4.31e-07
466.76	0.5035	1.5253	1.1905e-05	4.32e-07
467.26	0.4982	1.1039	1.1896e-05	4.31e-07
467.4	0.3322	1.2804	1.1132e-05	4.14e-07
467.62	0.4999	0.6482	1.1971e-05	4.34e-07
480.98	0.3322	1.2804	1.1452e-05	4.21e-07
481.28	0.4982	1.1039	1.2251e-05	4.4e-07
481.51	0.4998	2.1808	1.2241e-05	4.4e-07
481.53	0.4996	0.6964	1.229e-05	4.41e-07
482.14	0.4999	0.6482	1.2313e-05	4.43e-07
482.73	0.5035	1.5253	1.2285e-05	4.4e-07
494.94	0.4996	0.6964	1.2627e-05	4.53e-07
495.26	0.3322	1.2804	1.1793e-05	4.29e-07
495.28	0.4998	2.1808	1.2602e-05	4.49e-07
495.78	0.5035	1.5253	1.2643e-05	4.49e-07
496.37	0.4999	0.6482	1.2692e-05	4.51e-07
497.66	0.4982	1.1039	1.2672e-05	4.49e-07
