Measured thermophysical data. Thermal conductivity and thermal diffusivity of pyrrolidinium- based ionic liquids at atmospheric pressure
Source: Fluid Phase Equilib., 2019, 10.1016/j.fluid.2018.12.025
Compound 1: 1-methyl-1-propylpyrrolidinium bis[(trifluoromethyl)sulfonyl]imide, C10H18F6N2O4S2, InChI=1S/C8H18N.C2F6NO4S2/c1-3-6-9(2)7-4-5-8-9;3-1(4,5)14(10,11)9-15(12,13)2(6,7)8/h3-8H2,1-2H3;/q+1;-1, purity 99%
Compound 2: 1-butyl-1-methylpyrrolidinium bis[(trifluoromethyl)sulfonyl]imide, C11H20F6N2O4S2, InChI=1S/C9H20N.C2F6NO4S2/c1-3-4-7-10(2)8-5-6-9-10;3-1(4,5)14(10,11)9-15(12,13)2(6,7)8/h3-9H2,1-2H3;/q+1;-1, purity 99%
Compound 3: toluene, C7H8, InChI=1S/C7H8/c1-7-5-3-2-4-6-7/h2-6H,1H3, purity 99.9%
Compound 4: water, H2O, InChI=1S/H2O/h1H2

System: 1-methyl-1-propylpyrrolidinium bis[(trifluoromethyl)sulfonyl]imide; phases: Liquid
Fixed: Pressure, kPa = 101.325
Property: Thermal conductivity, W/m/K (Liquid); method: THOTW
Temperature, K	Thermal conductivity, W/m/K	uncertainty
279.07	0.118	0.0038
300.88	0.1176	0.0038
318.32	0.1174	0.0038
326.71	0.1167	0.0038
340.17	0.1178	0.0038
351.81	0.1166	0.0038
354.65	0.1172	0.0038
389.67	0.1162	0.0038
408.29	0.1142	0.0037
409.24	0.1156	0.0037
434.89	0.115	0.0037
435.53	0.1138	0.0037

System: 1-butyl-1-methylpyrrolidinium bis[(trifluoromethyl)sulfonyl]imide; phases: Liquid
Fixed: Pressure, kPa = 101.325
Property: Thermal conductivity, W/m/K (Liquid); method: THOTW
Temperature, K	Thermal conductivity, W/m/K	uncertainty
279.16	0.1159	0.0037
294.59	0.115	0.0037
306.65	0.1157	0.0037
334.78	0.114	0.0037
335.13	0.1143	0.0037
338.98	0.1136	0.0037
353.98	0.1153	0.0037
362.23	0.1135	0.0037
364.36	0.1142	0.0037
383.56	0.1134	0.0037
419.99	0.1126	0.0036
438.07	0.1123	0.0036

System: toluene; phases: Liquid
Fixed: Pressure, kPa = 101.325
Property: Thermal conductivity, W/m/K (Liquid); method: THOTW
Temperature, K	Thermal conductivity, W/m/K	uncertainty
276.19	0.1359	0.0044
278.42	0.1339	0.0043
281.25	0.1324	0.0043
281.25	0.1325	0.0043
302.05	0.129	0.0042
304.59	0.1268	0.0041
329.65	0.1235	0.004
331.24	0.1237	0.004
337.63	0.1242	0.004
339.65	0.122	0.0039
339.85	0.1226	0.004
340.17	0.12	0.0039
351.33	0.1166	0.0038
351.55	0.12	0.0039
352.25	0.1179	0.0038

System: water; phases: Liquid
Fixed: Pressure, kPa = 101.325
Property: Thermal conductivity, W/m/K (Liquid); method: THOTW
Temperature, K	Thermal conductivity, W/m/K	uncertainty
276.41	0.5538	0.0178
300.61	0.6257	0.0201
303.32	0.6103	0.0196
306.14	0.6095	0.0196
325.57	0.6581	0.0212
329.48	0.6422	0.0206
333.39	0.6498	0.0209
350.97	0.6877	0.0221
355.05	0.672	0.0216
356	0.6781	0.0218
356.22	0.6716	0.0216
356.54	0.6823	0.0219
356.76	0.6589	0.0212
356.9	0.6827	0.0219
360.47	0.6765	0.0217
361.52	0.6756	0.0217
