Measured thermophysical data. Effects of hydroxyl groups on binary diffusion coefficients of -amino acids in dilute aqueous solutions
Source: Fluid Phase Equilib., 2008, 10.1016/j.fluid.2007.10.013
Compound 1: (.+-.)-serine, C3H7NO3, InChI=1S/C3H7NO3/c4-2(1-5)3(6)7/h2,5H,1,4H2,(H,6,7)
Compound 2: DL-threonine, C4H9NO3, InChI=1S/C4H9NO3/c1-2(6)3(5)4(7)8/h2-3,6H,5H2,1H3,(H,7,8)/t2-,3+/m1/s1
Compound 3: DL-allothreonine, C4H9NO3, InChI=1S/C4H9NO3/c1-2(6)3(5)4(7)8/h2-3,6H,5H2,1H3,(H,7,8)/t2-,3-/m0/s1
Compound 4: DL-2-amino-4-hydroxybutanoic acid, C4H9NO3, InChI=1S/C4H9NO3/c5-3(1-2-6)4(7)8/h3,6H,1-2,5H2,(H,7,8)
Compound 5: water, H2O, InChI=1S/H2O/h1H2, purity 99%

System: (.+-.)-serine + water; phases: Liquid
Fixed: Mole fraction of (.+-.)-serine = 0
Fixed: Pressure, kPa = 101
Property: Binary diffusion coefficient, m2/s (Liquid); method: Taylor dispersion method
Temperature, K	Binary diffusion coefficient, m2/s	uncertainty
293.2	7.72e-10	0.024
298.2	8.8e-10	0.023
303.2	9.91e-10	0.028
313.2	1.256e-09	0.038
323.2	1.549e-09	0.047
333.2	1.876e-09	0.057

System: DL-threonine + water; phases: Liquid
Fixed: Mole fraction of DL-threonine = 0
Fixed: Pressure, kPa = 101
Property: Binary diffusion coefficient, m2/s (Liquid); method: Taylor dispersion method
Temperature, K	Binary diffusion coefficient, m2/s	uncertainty
293.2	6.91e-09	0.12
298.2	7.99e-09	0.14
303.2	9.04e-09	0.15
313.2	1.139e-08	0.19
323.2	1.426e-08	0.24
333.2	1.72e-08	0.28

System: DL-allothreonine + water; phases: Liquid
Fixed: Mole fraction of DL-allothreonine = 0
Fixed: Pressure, kPa = 101
Property: Binary diffusion coefficient, m2/s (Liquid); method: Taylor dispersion method
Temperature, K	Binary diffusion coefficient, m2/s	uncertainty
293.2	6.97e-10	0.019
298.2	7.96e-10	0.021
303.2	9.06e-10	0.026
313.2	1.144e-09	0.034
323.2	1.422e-09	0.033
333.2	1.724e-09	0.038

System: DL-2-amino-4-hydroxybutanoic acid + water; phases: Liquid
Fixed: Mole fraction of DL-2-amino-4-hydroxybutanoic acid = 0
Fixed: Pressure, kPa = 101
Property: Binary diffusion coefficient, m2/s (Liquid); method: Taylor dispersion method
Temperature, K	Binary diffusion coefficient, m2/s	uncertainty
293.2	7.26e-10	0.024
298.2	8.39e-10	0.031
303.2	9.39e-10	0.028
313.2	1.186e-09	0.033
323.2	1.475e-09	0.048
333.2	1.783e-09	0.05
