Measured thermophysical data. Liquid liquid equilibria for the quaternary system methyl  isobutyl ketone water phenol hydroquinone
Source: Fluid Phase Equilib., 2007, 10.1016/j.fluid.2007.05.026
Compound 1: phenol, C6H6O, InChI=1S/C6H6O/c7-6-4-2-1-3-5-6/h1-5,7H
Compound 2: 1,4-benzenediol, C6H6O2, InChI=1S/C6H6O2/c7-5-1-2-6(8)4-3-5/h1-4,7-8H
Compound 3: 4-methylpentan-2-one, C6H12O, InChI=1S/C6H12O/c1-5(2)4-6(3)7/h5H,4H2,1-3H3

System: phenol; phases: Liquid
Property: Mass density, kg/m3 (Liquid); method: Vibrating tube method
Temperature, K	Pressure, kPa	Mass density, kg/m3	uncertainty
314.45	101.325	1061	1

System: phenol; phases: Crystal, Liquid, Air at 1 atmosphere
Property: Normal melting temperature, K (Crystal); method: VISOBS
Normal melting temperature, K	uncertainty
314.45	0.5

System: phenol; phases: Liquid
Property: Refractive index (Na D-line) (Liquid); method: Standard Abbe refractometry
Temperature, K	Pressure, kPa	Refractive index (Na D-line)	uncertainty
314.45	101.325	1.5425	0.0007

System: 1,4-benzenediol; phases: Crystal
Property: Mass density, kg/m3 (Crystal); method: Vibrating tube method
Temperature, K	Pressure, kPa	Mass density, kg/m3	uncertainty
298.15	101.325	1338	2

System: 1,4-benzenediol; phases: Crystal, Liquid, Air at 1 atmosphere
Property: Normal melting temperature, K (Crystal); method: VISOBS
Normal melting temperature, K	uncertainty
444.55	0.5

System: 4-methylpentan-2-one; phases: Liquid
Property: Mass density, kg/m3 (Liquid); method: Vibrating tube method
Temperature, K	Pressure, kPa	Mass density, kg/m3	uncertainty
298.15	101.325	799.8	0.3

System: 4-methylpentan-2-one; phases: Liquid, Gas
Property: Normal boiling temperature, K (Liquid); method: Manometric method
Normal boiling temperature, K	uncertainty
390.75	0.1

System: 4-methylpentan-2-one; phases: Liquid
Property: Refractive index (Na D-line) (Liquid); method: Standard Abbe refractometry
Temperature, K	Pressure, kPa	Refractive index (Na D-line)	uncertainty
298.15	101.325	1.396	0.0008
