Measured thermophysical data. Determination and correlation of solubility and solution thermodynamics of coumarin in different pure solvents
Source: Fluid Phase Equilib., 2015, 10.1016/j.fluid.2015.03.022
Compound 1: methanol, CH4O, InChI=1S/CH4O/c1-2/h2H,1H3, purity 99.5%
Compound 2: ethanol, C2H6O, InChI=1S/C2H6O/c1-2-3/h3H,2H2,1H3, purity 99.5%
Compound 3: propan-1-ol, C3H8O, InChI=1S/C3H8O/c1-2-3-4/h4H,2-3H2,1H3, purity 99.5%
Compound 4: propan-2-ol, C3H8O, InChI=1S/C3H8O/c1-3(2)4/h3-4H,1-2H3, purity 99.5%
Compound 5: hexane, C6H14, InChI=1S/C6H14/c1-3-5-6-4-2/h3-6H2,1-2H3, purity 99.5%
Compound 6: cyclohexane, C6H12, InChI=1S/C6H12/c1-2-4-6-5-3-1/h1-6H2, purity 99.5%
Compound 7: 1,2-benzopyrone, C9H6O2, InChI=1S/C9H6O2/c10-9-6-5-7-3-1-2-4-8(7)11-9/h1-6H, purity 99.5%

System: 1,2-benzopyrone; phases: Crystal, Liquid, Air at 1 atmosphere
Property: Normal melting temperature, K (Crystal); method: DTA
Normal melting temperature, K	uncertainty
344.44	0.5

System: 1,2-benzopyrone; phases: Crystal, Liquid, Air at 1 atmosphere
Property: Molar enthalpy of transition or fusion, kJ/mol (Crystal); method: DSC
Molar enthalpy of transition or fusion, kJ/mol	uncertainty
16.04	0.5

System: methanol + 1,2-benzopyrone; phases: Liquid, Crystal
Fixed: Pressure, kPa = 100
Property: Mole fraction of 1,2-benzopyrone (Liquid); method: Titration method
Temperature, K	Mole fraction of 1,2-benzopyrone	uncertainty
278.15	0.01201	4e-05
283.15	0.01822	6e-05
288.15	0.03032	0.0001
293.15	0.05003	0.00015
298.15	0.08021	0.00024
303.15	0.1221	0.0004
308.15	0.1989	0.0006
313.15	0.3198	0.0009
318.15	0.4836	0.0013

System: ethanol + 1,2-benzopyrone; phases: Liquid, Crystal
Fixed: Pressure, kPa = 100
Property: Mole fraction of 1,2-benzopyrone (Liquid); method: Titration method
Temperature, K	Mole fraction of 1,2-benzopyrone	uncertainty
278.15	0.007102	2.3e-05
283.15	0.01096	4e-05
288.15	0.02052	7e-05
293.15	0.03308	0.0001
298.15	0.05332	0.00016
303.15	0.08691	0.00026
308.15	0.1378	0.0004
313.15	0.2216	0.0007
318.15	0.3568	0.001

System: propan-1-ol + 1,2-benzopyrone; phases: Liquid, Crystal
Fixed: Pressure, kPa = 100
Property: Mole fraction of 1,2-benzopyrone (Liquid); method: Titration method
Temperature, K	Mole fraction of 1,2-benzopyrone	uncertainty
278.15	0.005211	2.1e-05
283.15	0.009524	3.3e-05
288.15	0.01722	5e-05
293.15	0.02816	9e-05
298.15	0.04691	0.00015
303.15	0.07806	0.00024
308.15	0.1241	0.0004
313.15	0.2021	0.0006
318.15	0.3302	0.0009

System: propan-2-ol + 1,2-benzopyrone; phases: Liquid, Crystal
Fixed: Pressure, kPa = 100
Property: Mole fraction of 1,2-benzopyrone (Liquid); method: Titration method
Temperature, K	Mole fraction of 1,2-benzopyrone	uncertainty
278.15	0.003712	1.3e-05
283.15	0.006037	2e-05
288.15	0.01084	4e-05
293.15	0.02045	7e-05
298.15	0.03512	0.00011
303.15	0.06035	0.00019
308.15	0.1009	0.0003
313.15	0.1705	0.0005
318.15	0.2824	0.0008

System: 1,2-benzopyrone + hexane; phases: Liquid, Crystal
Fixed: Pressure, kPa = 100
Property: Mole fraction of 1,2-benzopyrone (Liquid); method: Titration method
Temperature, K	Mole fraction of 1,2-benzopyrone	uncertainty
278.15	0.0008622	2.4e-06
283.15	0.001184	3e-06
288.15	0.001689	5e-06
293.15	0.002403	6e-06
298.15	0.003192	8e-06
303.15	0.004211	1.1e-05
308.15	0.005744	1.5e-05
313.15	0.007458	1.9e-05
318.15	0.009622	2.4e-05

System: 1,2-benzopyrone + cyclohexane; phases: Liquid, Crystal
Fixed: Pressure, kPa = 100
Property: Mole fraction of 1,2-benzopyrone (Liquid); method: Titration method
Temperature, K	Mole fraction of 1,2-benzopyrone	uncertainty
283.15	0.001622	5e-06
288.15	0.002363	6e-06
293.15	0.003213	8e-06
298.15	0.004278	1.1e-05
303.15	0.006072	1.6e-05
308.15	0.008241	2.2e-05
313.15	0.01109	3e-05
318.15	0.01443	4e-05
