Measured thermophysical data. Measurement and modeling of vapor liquid equilibria at high salt concentrations
Source: Fluid Phase Equilib., 2005, 10.1016/j.fluid.2004.10.018
Compound 1: lithium chloride, ClLi, InChI=1S/ClH.Li/h1H;/q;+1/p-1, purity 99%
Compound 2: zinc chloride, Cl2Zn, InChI=1S/2ClH.Zn/h2*1H;/q;;+2/p-2, purity 98%
Compound 3: water, H2O, InChI=1S/H2O/h1H2

System: lithium chloride + zinc chloride + water; phases: Liquid, Gas
Property: Boiling temperature at pressure P, K (Liquid); method: EBULLIO:UFactor:8
Mass fraction of lithium chloride	Mass fraction of zinc chloride	Pressure, kPa	Boiling temperature at pressure P, K	uncertainty
0	0.3	20	335.69	0.63
0	0.3	40	351.79	0.59
0	0.3	101.3	376.27	0.55
0	0.4	20	338.74	0.64
0	0.4	40	355.1	0.47
0	0.4	101.3	379.86	0.59
0	0.5	9.3	326.65	1.1
0	0.5	20	343.26	0.79
0	0.5	40	359.7	0.43
0	0.5	101.3	385.14	0.61
0.043	0.057	101.3	374.62	0.62
0.086	0.114	5.3	309.68	1.24
0.086	0.114	20	335.62	1.06
0.086	0.114	40	351.38	0.71
0.086	0.114	101.3	376.64	0.74
0.1	0	20	335.45	0.69
0.1	0	40	351.6	0.7
0.1	0	101.3	376.3	0.64
0.129	0.171	5.3	312.39	1.4
0.129	0.171	20	338.19	1.16
0.129	0.171	40	354.98	0.89
0.129	0.171	101.3	380.08	0.98
0.167	0.033	20	339.42	0.84
0.167	0.033	40	355.68	0.99
0.167	0.033	101.3	380.47	0.84
0.171	0.229	5.3	317.12	1.27
0.171	0.229	20	344.18	0.94
0.171	0.229	40	361.17	0.48
0.171	0.229	101.3	386.65	0.71
0.2	0	20	340.81	0.73
0.2	0	40	357.17	0.65
0.2	0	101.3	382.77	0.78
0.214	0.286	5.3	325.96	1.42
0.214	0.286	20	354.56	1.04
0.214	0.286	40	371.86	0.66
0.214	0.286	101.3	398.45	0.9
0.25	0.05	20	347.5	1.04
0.25	0.05	40	364.32	1.3
0.25	0.05	101.3	390	1.14
0.3	0	20	351.47	0.9
0.3	0	40	368.38	0.62
0.3	0	101.3	394.47	0.88
0.334	0.066	20	359.04	1.08
0.334	0.066	40	377.5	0.76
0.334	0.066	101.3	404.2	1.16
0.417	0.083	19.9	376.23	1.42
0.417	0.083	40	394.33	1
0.417	0.083	101.3	420.79	1.31
