Measured thermophysical data. Liquid-liquid equilibria of water + solutes (acetic acid/ acetol/furfural/guaiacol/methanol/phenol/propanal) + solvents (isopropyl acetate/toluene) ternary systems for pyrolysis oil fractionation
Source: Fluid Phase Equilib., 2018, 10.1016/j.fluid.2018.04.016
Compound 1: acetol, C3H6O2, InChI=1S/C3H6O2/c1-3(5)2-4/h4H,2H2,1H3, purity 95%
Compound 2: 2-furaldehyde, C5H4O2, InChI=1S/C5H4O2/c6-4-5-2-1-3-7-5/h1-4H, purity 99%
Compound 3: 2-methoxyphenol, C7H8O2, InChI=1S/C7H8O2/c1-9-7-5-3-2-4-6(7)8/h2-5,8H,1H3, purity 99%
Compound 4: methanol, CH4O, InChI=1S/CH4O/c1-2/h2H,1H3, purity 99.99%
Compound 5: phenol, C6H6O, InChI=1S/C6H6O/c7-6-4-2-1-3-5-6/h1-5,7H, purity 99.5%
Compound 6: propanal, C3H6O, InChI=1S/C3H6O/c1-2-3-4/h3H,2H2,1H3, purity 99%
Compound 7: toluene, C7H8, InChI=1S/C7H8/c1-7-5-3-2-4-6-7/h2-6H,1H3, purity 99.9%
Compound 8: 1-methylethyl ethanoate, C5H10O2, InChI=1S/C5H10O2/c1-4(2)7-5(3)6/h4H,1-3H3, purity 99%
Compound 9: water, H2O, InChI=1S/H2O/h1H2, purity 99.8%

System: acetol; phases: Liquid
Property: Refractive index (Na D-line) (Liquid); method: Standard Abbe refractometry
Temperature, K	Pressure, kPa	Refractive index (Na D-line)	uncertainty
293.15	101.325	1.4262	0.0023

System: 2-furaldehyde; phases: Liquid
Property: Refractive index (Na D-line) (Liquid); method: Standard Abbe refractometry
Temperature, K	Pressure, kPa	Refractive index (Na D-line)	uncertainty
293.15	101.325	1.5264	0.002

System: 2-methoxyphenol; phases: Liquid
Property: Refractive index (Na D-line) (Liquid); method: Standard Abbe refractometry
Temperature, K	Pressure, kPa	Refractive index (Na D-line)	uncertainty
293.15	101.325	1.5441	0.002

System: methanol; phases: Liquid
Property: Refractive index (Na D-line) (Liquid); method: Standard Abbe refractometry
Temperature, K	Pressure, kPa	Refractive index (Na D-line)	uncertainty
293.15	101.325	1.3293	0.002

System: phenol; phases: Liquid
Property: Refractive index (Na D-line) (Liquid); method: Standard Abbe refractometry
Temperature, K	Pressure, kPa	Refractive index (Na D-line)	uncertainty
314.15	101.325	1.5405	0.002

System: propanal; phases: Liquid
Property: Refractive index (Na D-line) (Liquid); method: Standard Abbe refractometry
Temperature, K	Pressure, kPa	Refractive index (Na D-line)	uncertainty
293.15	101.325	1.3644	0.002

System: toluene; phases: Liquid
Property: Refractive index (Na D-line) (Liquid); method: Standard Abbe refractometry
Temperature, K	Pressure, kPa	Refractive index (Na D-line)	uncertainty
293.15	101.325	1.4969	0.002

System: 1-methylethyl ethanoate; phases: Liquid
Property: Refractive index (Na D-line) (Liquid); method: Standard Abbe refractometry
Temperature, K	Pressure, kPa	Refractive index (Na D-line)	uncertainty
293.15	101.325	1.3779	0.002

System: water + acetol + toluene; phases: Liquid mixture 1, Liquid mixture 2
Fixed: Pressure, kPa = 101.3
Property: Mole fraction of water (Liquid mixture 1); method: Chromatography
Property: Mole fraction of acetol (Liquid mixture 2); method: Chromatography
Property: Mole fraction of water (Liquid mixture 2); method: Chromatography
Temperature, K	Mole fraction of acetol	Mole fraction of water	uncertainty	Mole fraction of acetol	uncertainty	Mole fraction of water	uncertainty
298.15	0.011	0.0038	0.0001	0.0616	0.0006	0.9381	
323.15	0.0616	0.0042	0.0001	0.2609	0.0026	0.737	
323.15	0.0952	0.0042	0.0001	0.3666	0.0037	0.6248	
323.15	0.1223	0.004	0.0001	0.4722	0.0047	0.5074	
323.15	0.1657	0.004	0.0001	0.5358	0.0046	0.4289	
298.15	0.022	0.0038	0.0001	0.1441	0.0014	0.8552	
298.15	0.0321	0.0038	0.0001	0.2127	0.0021	0.786	
298.15	0.0425	0.004	0.0001	0.2624	0.0026	0.7353	
298.15	0.0771	0.0043	0.0001	0.4229	0.0042	0.5651	
298.15	0.1068	0.0038	0.0001	0.5333	0.0047	0.4378	
298.15	0.1414	0.0045	0.0001	0.6258	0.0037	0.3129	
323.15	0.0112	0.0043	0.0001	0.0504	0.0005	0.949	
323.15	0.0325	0.0041	0.0001	0.1475	0.0015	0.8515	

System: water + propanal + toluene; phases: Liquid mixture 2, Liquid mixture 1
Fixed: Pressure, kPa = 101.3
Property: Mole fraction of propanal (Liquid mixture 2); method: Chromatography
Property: Mole fraction of water (Liquid mixture 1); method: Chromatography
Property: Mole fraction of propanal (Liquid mixture 1); method: Chromatography
Temperature, K	Mole fraction of water	Mole fraction of propanal	uncertainty	Mole fraction of water	uncertainty	Mole fraction of propanal	uncertainty
298.15	0.9899	0.0099	0.0001	0.001	0.0001	0.0987	
298.15	0.9789	0.0208	0.0002	0.0013	0.0001	0.2288	
298.15	0.9621	0.0373	0.0004	0.0024	0.0005	0.4221	
298.15	0.9398	0.0596	0.0006	0.0919	0.0011	0.586	
298.15	0.9225	0.0773	0.0008	0.1468	0.0015	0.6895	
313.15	0.9943	0.0056	0.0001	0.0002	0.0001	0.0849	
313.15	0.9856	0.0142	0.0002	0.0002	0.0001	0.2397	
313.15	0.9708	0.029	0.0003	0.0003	0.0002	0.4421	
313.15	0.9541	0.0456	0.0005	0.0634	0.0008	0.6228	
313.15	0.941	0.0587	0.0006	0.1258	0.0014	0.718	

System: water + acetol + 1-methylethyl ethanoate; phases: Liquid mixture 2, Liquid mixture 1
Fixed: Pressure, kPa = 101.3
Property: Mole fraction of acetol (Liquid mixture 2); method: Chromatography
Property: Mole fraction of acetol (Liquid mixture 1); method: Chromatography
Property: Mole fraction of water (Liquid mixture 1); method: Chromatography
Temperature, K	Mole fraction of water	Mole fraction of acetol	uncertainty	Mole fraction of acetol	uncertainty	Mole fraction of water	uncertainty
298.15	0.9546	0.0405	0.0004	0.0236	0.0002	0.0555	
298.15	0.8884	0.1035	0.001	0.0614	0.0038	0.0855	
298.15	0.8853	0.1072	0.0011	0.0618	0.0028	0.0916	
298.15	0.7864	0.1994	0.002	0.147	0.0016	0.089	
298.15	0.741	0.2391	0.0024	0.2036	0.0021	0.1315	
323.15	0.9581	0.0374	0.0004	0.0293	0.0006	0.1032	
323.15	0.9045	0.0882	0.0009	0.0664	0.0008	0.1201	
323.15	0.849	0.141	0.0014	0.1045	0.0012	0.1223	
323.15	0.7877	0.1979	0.002	0.1625	0.0017	0.1395	
323.15	0.7155	0.2604	0.0026	0.2408	0.0025	0.238	

System: water + 2-furaldehyde + 1-methylethyl ethanoate; phases: Liquid mixture 2, Liquid mixture 1
Fixed: Pressure, kPa = 101.3
Property: Mole fraction of 2-furaldehyde (Liquid mixture 2); method: Chromatography
Property: Mole fraction of water (Liquid mixture 1); method: Chromatography
Property: Mole fraction of 2-furaldehyde (Liquid mixture 1); method: Chromatography
Temperature, K	Mole fraction of water	Mole fraction of 2-furaldehyde	uncertainty	Mole fraction of water	uncertainty	Mole fraction of 2-furaldehyde	uncertainty
298.15	0.9941	0.0022	0.0001	0.0747	0.0008	0.1192	
298.15	0.9905	0.0045	0.0001	0.0724	0.0007	0.248	
298.15	0.9897	0.0064	0.0001	0.0909	0.001	0.3671	
298.15	0.9866	0.0097	0.0001	0.127	0.0013	0.5086	
298.15	0.9857	0.0116	0.0001	0.152	0.0016	0.6107	
298.15	0.9848	0.0137	0.0001	0.1591	0.0017	0.7275	
323.15	0.9943	0.0024	0.0001	0.0868	0.0009	0.1233	
323.15	0.9925	0.0043	0.0001	0.089	0.0009	0.2251	
323.15	0.9904	0.0068	0.0001	0.1431	0.0015	0.3509	
323.15	0.9878	0.0097	0.0001	0.1747	0.0018	0.5123	
323.15	0.9856	0.0124	0.0001	0.1985	0.002	0.5822	
323.15	0.9838	0.015	0.0002	0.2217	0.0023	0.6728	

System: water + 2-methoxyphenol + 1-methylethyl ethanoate; phases: Liquid mixture 2, Liquid mixture 1
Fixed: Pressure, kPa = 101.3
Property: Mole fraction of water (Liquid mixture 2); method: Chromatography
Property: Mole fraction of water (Liquid mixture 1); method: Chromatography
Property: Mole fraction of 2-methoxyphenol (Liquid mixture 1); method: Chromatography
Temperature, K	Mole fraction of 2-methoxyphenol	Mole fraction of water	uncertainty	Mole fraction of water	uncertainty	Mole fraction of 2-methoxyphenol	uncertainty
298.15	0.0004	0.9951	0.0001	0.098	0.001	0.1031	
298.15	0.0009	0.9952	0.0001	0.0961	0.001	0.2291	
298.15	0.0015	0.9956	0.0001	0.1084	0.0011	0.3683	
298.15	0.0019	0.9962	0.0001	0.1199	0.0013	0.5063	
298.15	0.0025	0.9963	0.0001	0.1408	0.0014	0.6249	
298.15	0.0034	0.9958	0.0001	0.1533	0.0016	0.7068	
323.15	0.0006	0.996	0.0001	0.0816	0.0008	0.1242	
323.15	0.0009	0.9962	0.0001	0.1013	0.001	0.2029	
323.15	0.0015	0.996	0.0001	0.1245	0.0013	0.3308	
323.15	0.0023	0.9959	0.0001	0.1727	0.0018	0.4833	
323.15	0.0026	0.996	0.0001	0.1593	0.0016	0.5898	
323.15	0.0033	0.996	0.0001	0.1817	0.0018	0.6528	

System: water + methanol + 1-methylethyl ethanoate; phases: Liquid mixture 2, Liquid mixture 1
Fixed: Pressure, kPa = 101.3
Property: Mole fraction of methanol (Liquid mixture 2); method: Chromatography
Property: Mole fraction of methanol (Liquid mixture 1); method: Chromatography
Property: Mole fraction of water (Liquid mixture 1); method: Chromatography
Temperature, K	Mole fraction of water	Mole fraction of methanol	uncertainty	Mole fraction of methanol	uncertainty	Mole fraction of water	uncertainty
298.15	0.9753	0.0201	0.0002	0.0126	0.0007	0.0897	
298.15	0.9475	0.0469	0.0005	0.0346	0.0008	0.1002	
298.15	0.9043	0.0894	0.0009	0.0747	0.0009	0.1179	
298.15	0.8534	0.1368	0.0014	0.1249	0.0014	0.1604	
298.15	0.7755	0.2055	0.0021	0.2102	0.0021	0.2435	
298.15	0.6982	0.2587	0.0026	0.2813	0.0028	0.3612	
323.15	0.9773	0.0191	0.0002	0.0181	0.0006	0.1334	
323.15	0.953	0.0443	0.0004	0.0469	0.0007	0.1579	
323.15	0.9103	0.0852	0.0009	0.0956	0.0011	0.1817	
323.15	0.8642	0.1285	0.0013	0.1498	0.0016	0.214	
323.15	0.7819	0.1959	0.002	0.2332	0.0024	0.3354	
323.15	0.7146	0.2371	0.0024	0.273	0.0029	0.4264	

System: water + phenol + 1-methylethyl ethanoate; phases: Liquid mixture 2, Liquid mixture 1
Fixed: Temperature, K = 323.15
Fixed: Pressure, kPa = 101.3
Property: Mole fraction of phenol (Liquid mixture 2); method: Chromatography
Property: Mole fraction of phenol (Liquid mixture 1); method: Chromatography
Property: Mole fraction of water (Liquid mixture 1); method: Chromatography
Mole fraction of water	Mole fraction of phenol	uncertainty	Mole fraction of phenol	uncertainty	Mole fraction of water	uncertainty
0.9966	0.0007	0.0001	0.1012	0.001	0.1308	
0.9961	0.0016	0.0001	0.2172	0.0022	0.1554	
0.9946	0.0039	0.0001	0.336	0.0034	0.2513	
0.9915	0.0075	0.0001	0.4303	0.0043	0.3311	
0.9874	0.0119	0.0001	0.4117	0.0041	0.4782	
0.9843	0.0154	0.0002	0.349	0.0035	0.6132	

System: water + propanal + 1-methylethyl ethanoate; phases: Liquid mixture 2, Liquid mixture 1
Fixed: Pressure, kPa = 101.3
Property: Mole fraction of propanal (Liquid mixture 2); method: Chromatography
Property: Mole fraction of water (Liquid mixture 1); method: Chromatography
Property: Mole fraction of propanal (Liquid mixture 1); method: Chromatography
Temperature, K	Mole fraction of water	Mole fraction of propanal	uncertainty	Mole fraction of water	uncertainty	Mole fraction of propanal	uncertainty
298.15	0.9896	0.0064	0.0001	0.1001	0.001	0.078	
298.15	0.9786	0.0173	0.0002	0.1099	0.0012	0.1826	
298.15	0.9663	0.0298	0.0003	0.1574	0.0016	0.3227	
298.15	0.9518	0.0451	0.0005	0.1626	0.0016	0.4856	
298.15	0.9382	0.0594	0.0006	0.1906	0.0019	0.5875	
298.15	0.9162	0.0821	0.0008	0.2398	0.0024	0.6716	
313.15	0.9917	0.0049	0.0001	0.1213	0.0012	0.0776	
313.15	0.9864	0.0119	0.0001	0.1505	0.0016	0.1926	
313.15	0.9724	0.0243	0.0002	0.1655	0.0017	0.342	
313.15	0.9621	0.0354	0.0004	0.1692	0.0017	0.4992	
313.15	0.9566	0.0418	0.0004	0.1967	0.002	0.5895	
313.15	0.9396	0.0596	0.0006	0.2269	0.0023	0.6842	
