Measured thermophysical data. Vapor pressure and enthalpy of vaporization of trimethylolpropane and carboxylic acids esters
Source: Fluid Phase Equilib., 2018, 10.1016/j.fluid.2018.01.018
Compound 1: 2-(acetoxymethyl)-2-ethylpropane-1,3-diyl diacetate, C12H20O6, InChI=1S/C12H20O6/c1-5-12(6-16-9(2)13,7-17-10(3)14)8-18-11(4)15/h5-8H2,1-4H3, purity 99.9%
Compound 2: 2-((butyryloxy)methyl)-2-ethylpropane-1,3-diyl dibutyrate, C18H32O6, InChI=1S/C18H32O6/c1-5-9-15(19)22-12-18(8-4,13-23-16(20)10-6-2)14-24-17(21)11-7-3/h5-14H2,1-4H3, purity 99.9%
Compound 3: 2-ethyl-2-((pentanoyloxy)methyl)propane-1,3-diyl dipentanoate, C21H38O6, InChI=1S/C21H38O6/c1-5-9-12-18(22)25-15-21(8-4,16-26-19(23)13-10-6-2)17-27-20(24)14-11-7-3/h5-17H2,1-4H3, purity 99.9%
Compound 4: 2-ethyl-2-((hexanoyloxy)methyl)propane-1,3-diyl dihexanoate, C24H44O6, InChI=1S/C24H44O6/c1-5-9-12-15-21(25)28-18-24(8-4,19-29-22(26)16-13-10-6-2)20-30-23(27)17-14-11-7-3/h5-20H2,1-4H3, purity 99.2%
Compound 5: 2-ethyl-2-((isobutyryloxy)methyl)propane-1,3-diyl bis(2-methylpropanoate), C18H32O6, InChI=1S/C18H32O6/c1-8-18(9-22-15(19)12(2)3,10-23-16(20)13(4)5)11-24-17(21)14(6)7/h12-14H,8-11H2,1-7H3, purity 99.8%
Compound 6: 2-ethyl-2-(((3-methylbutanoyl)oxy)methyl)propane-1,3-diyl bis(3-methylbutanoate), C21H38O6, InChI=1S/C21H38O6/c1-8-21(12-25-18(22)9-15(2)3,13-26-19(23)10-16(4)5)14-27-20(24)11-17(6)7/h15-17H,8-14H2,1-7H3, purity 99.8%
Compound 7: 2-ethyl-2-((pivaloyloxy)methyl)propane-1,3-diyl bis(2,2-dimethylpropanoate), C21H38O6, InChI=1S/C21H38O6/c1-11-21(12-25-15(22)18(2,3)4,13-26-16(23)19(5,6)7)14-27-17(24)20(8,9)10/h11-14H2,1-10H3, purity 99.7%

System: 2-(acetoxymethyl)-2-ethylpropane-1,3-diyl diacetate; phases: Liquid, Gas
Property: Vapor or sublimation pressure, kPa (Liquid); method: Transpiration method
Temperature, K	Vapor or sublimation pressure, kPa	uncertainty
318.6	0.000402	2.6e-05
320.6	0.000495	3.1e-05
322.5	0.000589	3.7e-05
325.5	0.000792	4.7e-05
326.6	0.00092	5.5e-05
327.5	0.000967	5.6e-05
329.6	0.001194	7e-05
331.5	0.001462	8.2e-05
332.5	0.001569	8.6e-05
334.6	0.001793	9.9e-05
335.5	0.00202	0.000112
337.6	0.002343	0.000127
338.5	0.002569	0.000142
340.5	0.003028	0.000167
341.5	0.003461	0.000189
343.5	0.003999	0.000216
344.6	0.004472	0.000245

System: 2-((butyryloxy)methyl)-2-ethylpropane-1,3-diyl dibutyrate; phases: Liquid, Gas
Property: Vapor or sublimation pressure, kPa (Liquid); method: Transpiration method
Temperature, K	Vapor or sublimation pressure, kPa	uncertainty
333.2	2.21e-05	8.1e-06
335.3	2.7e-05	8.1e-06
338.4	3.93e-05	8.2e-06
340.2	4.74e-05	8.2e-06
343.4	6.28e-05	8.4e-06
345.4	8.32e-05	1.07e-05
348.3	0.000114	1.09e-05
350.3	0.000125	1.13e-05
353.2	0.0001773	1.39e-05
353.3	0.0001675	1.38e-05
355.3	0.0002016	1.65e-05
358.2	0.0002885	1.96e-05
360.2	0.0003176	2.23e-05
363.2	0.000453	2.91e-05
365.1	0.0005723	3.53e-05

System: 2-ethyl-2-((pentanoyloxy)methyl)propane-1,3-diyl dipentanoate; phases: Liquid, Gas
Property: Vapor or sublimation pressure, kPa (Liquid); method: Transpiration method
Temperature, K	Vapor or sublimation pressure, kPa	uncertainty
347.4	2.9e-05	8.1e-06
349.2	3.51e-05	8.1e-06
351.4	4.46e-05	8.2e-06
353.3	5.18e-05	8.3e-06
355.6	6.96e-05	8.5e-06
357.3	8.25e-05	1.06e-05
359.2	0.0001007	1.1e-05
361.2	0.0001351	1.33e-05
363.3	0.0001605	1.35e-05
365.5	0.0001784	1.4e-05
365.5	0.000181	1.41e-05
368	0.0002432	1.89e-05
370	0.0002889	1.96e-05
371.2	0.0003183	2.18e-05

System: 2-ethyl-2-((hexanoyloxy)methyl)propane-1,3-diyl dihexanoate; phases: Liquid, Gas
Property: Vapor or sublimation pressure, kPa (Liquid); method: Transpiration method
Temperature, K	Vapor or sublimation pressure, kPa	uncertainty
355.2	1.19e-05	6e-06
361.2	2.13e-05	8.1e-06
363.1	3.25e-05	8.1e-06
365.1	4e-05	8.2e-06
367	4.75e-05	8.2e-06
368.1	5.36e-05	8.4e-06
368.9	6.43e-05	8.4e-06
370	6.44e-05	8.4e-06
370.9	7.08e-05	8.4e-06
372	7.04e-05	8.4e-06
372	6.75e-05	8.4e-06

System: 2-ethyl-2-((isobutyryloxy)methyl)propane-1,3-diyl bis(2-methylpropanoate); phases: Liquid, Gas
Property: Vapor or sublimation pressure, kPa (Liquid); method: Transpiration method
Temperature, K	Vapor or sublimation pressure, kPa	uncertainty
318.6	4.47e-05	8.3e-06
323.6	8.4e-05	1.06e-05
328.6	0.0001434	1.34e-05
333.6	0.000237	1.68e-05
335.6	0.0002767	1.98e-05
338.6	0.0003878	2.56e-05
340.6	0.0004844	3.03e-05
343.5	0.0005623	3.39e-05
345.5	0.0007024	4.43e-05
348.5	0.0010029	5.76e-05
351.1	0.0011749	6.68e-05
353.2	0.0014951	8.38e-05
355.6	0.0017393	9.79e-05
358.5	0.0023913	0.0001327
361	0.0029421	0.00016
363.2	0.0034995	0.0001879

System: 2-ethyl-2-(((3-methylbutanoyl)oxy)methyl)propane-1,3-diyl bis(3-methylbutanoate); phases: Liquid, Gas
Property: Vapor or sublimation pressure, kPa (Liquid); method: Transpiration method
Temperature, K	Vapor or sublimation pressure, kPa	uncertainty
339.3	4.8e-05	8.2e-06
341.3	5.34e-05	8.3e-06
343.3	7.17e-05	8.5e-06
345.3	8.03e-05	1.05e-05
347.3	9.93e-05	1.1e-05
349.2	0.0001358	1.32e-05
351.2	0.0001537	1.36e-05
353.2	0.0001987	1.61e-05
355.2	0.0002271	1.65e-05
357.2	0.0002687	1.93e-05
359.1	0.0003249	2.23e-05
361.2	0.0003976	2.59e-05
363.1	0.0004925	3.1e-05
365	0.000567	3.48e-05
367.1	0.0007206	4.33e-05
369	0.000846	4.87e-05

System: 2-ethyl-2-((pivaloyloxy)methyl)propane-1,3-diyl bis(2,2-dimethylpropanoate); phases: Liquid, Gas
Property: Vapor or sublimation pressure, kPa (Liquid); method: Transpiration method
Temperature, K	Vapor or sublimation pressure, kPa	uncertainty
316.5	2.15e-05	8e-06
318.5	2.44e-05	8.1e-06
320.5	3.41e-05	8.2e-06
322.5	4.7e-05	8.3e-06
324.5	6.1e-05	8.4e-06
326.5	7.26e-05	1.04e-05
328.5	8.73e-05	1.07e-05
330.5	0.0001109	1.1e-05
332.5	0.0001281	1.13e-05
334.5	0.0001653	1.39e-05
336.4	0.000202	1.64e-05
338.4	0.0002516	1.92e-05
340.4	0.0003128	2.2e-05
342.4	0.0003722	2.53e-05
344.4	0.0004743	3.05e-05
346.4	0.0005391	3.3e-05
348.3	0.0006046	3.74e-05
354.3	0.0010125	5.69e-05
