Measured thermophysical data. Vapor liquid liquid equilibria of perfluorohexane +CO2 + methanol, +toluene, and +acetone at 313K
Source: Fluid Phase Equilib., 2006, 10.1016/j.fluid.2005.12.041
Compound 1: methanol, CH4O, InChI=1S/CH4O/c1-2/h2H,1H3, purity 99.9%
Compound 2: acetone, C3H6O, InChI=1S/C3H6O/c1-3(2)4/h1-2H3, purity 99.9%
Compound 3: toluene, C7H8, InChI=1S/C7H8/c1-7-5-3-2-4-6-7/h2-6H,1H3, purity 99.5%
Compound 4: perfluorohexane, C6F14, InChI=1S/C6F14/c7-1(8,3(11,12)5(15,16)17)2(9,10)4(13,14)6(18,19)20, purity 99%
Compound 5: carbon dioxide, CO2, InChI=1S/CO2/c2-1-3, purity 99.99%

System: methanol + perfluorohexane; phases: Liquid mixture 2, Liquid mixture 1
Property: Mole fraction of methanol (Liquid mixture 2); method: Chromatography
Temperature, K	Pressure, kPa	Mole fraction of methanol	uncertainty
313	101	0.0033	0.0001

System: methanol + perfluorohexane; phases: Liquid mixture 1, Liquid mixture 2
Property: Mole fraction of perfluorohexane (Liquid mixture 1); method: Chromatography
Temperature, K	Pressure, kPa	Mole fraction of perfluorohexane	uncertainty
313	101	0.0041	0.0001

System: acetone + perfluorohexane; phases: Liquid mixture 2, Liquid mixture 1
Property: Mole fraction of acetone (Liquid mixture 2); method: Chromatography
Temperature, K	Pressure, kPa	Mole fraction of acetone	uncertainty
313	101	0.1274	0.0027

System: acetone + perfluorohexane; phases: Liquid mixture 1, Liquid mixture 2
Property: Mole fraction of perfluorohexane (Liquid mixture 1); method: Chromatography
Temperature, K	Pressure, kPa	Mole fraction of perfluorohexane	uncertainty
313	101	0.0107	0.0002

System: toluene + perfluorohexane; phases: Liquid mixture 2, Liquid mixture 1
Property: Mole fraction of toluene (Liquid mixture 2); method: Chromatography
Temperature, K	Pressure, kPa	Mole fraction of toluene	uncertainty
313	101	0.0136	0.0003

System: toluene + perfluorohexane; phases: Liquid mixture 1, Liquid mixture 2
Property: Mole fraction of perfluorohexane (Liquid mixture 1); method: Chromatography
Temperature, K	Pressure, kPa	Mole fraction of perfluorohexane	uncertainty
313	101	0.0093	0.0002

System: methanol + carbon dioxide + perfluorohexane; phases: Liquid mixture 2, Liquid mixture 1, Gas
Fixed: Temperature, K = 313
Property: Molar volume, m3/mol (Liquid mixture 2); method: PYCNOM:UFactor:128
Pressure, kPa	Molar volume, m3/mol	uncertainty
2130	4.01e-05	2e-06
2760	4.07e-05	2e-06
3450	4.22e-05	2.1e-06
4140	4.34e-05	2.1e-06
4830	4.55e-05	2.2e-06
5170	4.68e-05	2.3e-06
5520	4.9e-05	2.4e-06

System: methanol + carbon dioxide + perfluorohexane; phases: Liquid mixture 1, Liquid mixture 2, Gas
Fixed: Temperature, K = 313
Property: Molar volume, m3/mol (Liquid mixture 1); method: PYCNOM:UFactor:128
Pressure, kPa	Molar volume, m3/mol	uncertainty
2130	0.0002021	8.3e-06
2760	0.0001823	7.6e-06
3450	0.0001421	6.2e-06
4140	0.0001227	5.5e-06
4830	0.0001029	4.7e-06
5170	9e-05	4.2e-06
5520	8.07e-05	3.8e-06

System: methanol + carbon dioxide + perfluorohexane; phases: Liquid mixture 1, Liquid mixture 2, Gas
Fixed: Temperature, K = 313
Property: Mole fraction of carbon dioxide (Liquid mixture 1); method: Phase equilibration
Pressure, kPa	Mole fraction of carbon dioxide	uncertainty
2130	0.31	0.036
2760	0.341	0.036
3450	0.503	0.036
4140	0.594	0.036
4830	0.653	0.036
5170	0.656	0.036
5520	0.679	0.036

System: methanol + carbon dioxide + perfluorohexane; phases: Liquid mixture 2, Liquid mixture 1, Gas
Fixed: Temperature, K = 313
Property: Mole fraction of carbon dioxide (Liquid mixture 2); method: Phase equilibration
Pressure, kPa	Mole fraction of carbon dioxide	uncertainty
2130	0.119	0.036
2760	0.164	0.036
3450	0.205	0.036
4140	0.247	0.036
4830	0.306	0.036
5170	0.368	0.036
5520	0.415	0.036

System: methanol + carbon dioxide + perfluorohexane; phases: Liquid mixture 1, Liquid mixture 2, Gas
Fixed: Temperature, K = 313
Property: Mole fraction of perfluorohexane (Liquid mixture 1); method: Phase equilibration
Pressure, kPa	Mole fraction of perfluorohexane	uncertainty
2130	0.69	0.036
2760	0.656	0.036
3450	0.495	0.036
4140	0.402	0.036
4830	0.271	0.036
5170	0.215	0.036
5520	0.161	0.036

System: methanol + carbon dioxide + perfluorohexane; phases: Liquid mixture 2, Liquid mixture 1, Gas
Fixed: Temperature, K = 313
Property: Mole fraction of perfluorohexane (Liquid mixture 2); method: Phase equilibration
Pressure, kPa	Mole fraction of perfluorohexane	uncertainty
2130	0.022	0.022
2760	0.016	0.016
3450	0.01	0.01
4140	0.009	0.009
4830	0.017	0.017
5170	0.019	0.019
5520	0.027	0.027

System: acetone + carbon dioxide + perfluorohexane; phases: Liquid mixture 2, Liquid mixture 1, Gas
Fixed: Temperature, K = 313
Property: Molar volume, m3/mol (Liquid mixture 2); method: PYCNOM:UFactor:128
Pressure, kPa	Molar volume, m3/mol	uncertainty
1240	7.35e-05	3.5e-06
1550	7.23e-05	3.4e-06
1900	7.02e-05	3.3e-06
2070	7.1e-05	3.4e-06

System: acetone + carbon dioxide + perfluorohexane; phases: Liquid mixture 1, Liquid mixture 2, Gas
Fixed: Temperature, K = 313
Property: Molar volume, m3/mol (Liquid mixture 1); method: PYCNOM:UFactor:128
Pressure, kPa	Molar volume, m3/mol	uncertainty
1240	0.0001546	6.7e-06
1550	0.0001568	6.8e-06
1900	0.0001354	6e-06
2070	0.0001261	5.6e-06

System: acetone + carbon dioxide + perfluorohexane; phases: Liquid mixture 1, Liquid mixture 2, Gas
Fixed: Temperature, K = 313
Property: Mole fraction of carbon dioxide (Liquid mixture 1); method: Phase equilibration
Pressure, kPa	Mole fraction of carbon dioxide	uncertainty
1240	0.299	0.036
1550	0.309	0.036
1900	0.379	0.036
2070	0.396	0.036

System: acetone + carbon dioxide + perfluorohexane; phases: Liquid mixture 2, Liquid mixture 1, Gas
Fixed: Temperature, K = 313
Property: Mole fraction of carbon dioxide (Liquid mixture 2); method: Phase equilibration
Pressure, kPa	Mole fraction of carbon dioxide	uncertainty
1240	0.2	0.036
1550	0.232	0.036
1900	0.329	0.036
2070	0.349	0.036

System: acetone + carbon dioxide + perfluorohexane; phases: Liquid mixture 1, Liquid mixture 2, Gas
Fixed: Temperature, K = 313
Property: Mole fraction of perfluorohexane (Liquid mixture 1); method: Phase equilibration
Pressure, kPa	Mole fraction of perfluorohexane	uncertainty
1240	0.622	0.036
1550	0.584	0.036
1900	0.444	0.036
2070	0.387	0.036

System: acetone + carbon dioxide + perfluorohexane; phases: Liquid mixture 2, Liquid mixture 1, Gas
Fixed: Temperature, K = 313
Property: Mole fraction of perfluorohexane (Liquid mixture 2); method: Phase equilibration
Pressure, kPa	Mole fraction of perfluorohexane	uncertainty
1240	0.029	0.029
1550	0.037	0.036
1900	0.052	0.036
2070	0.062	0.036

System: toluene + carbon dioxide + perfluorohexane; phases: Liquid mixture 2, Liquid mixture 1, Gas
Fixed: Temperature, K = 313
Property: Molar volume, m3/mol (Liquid mixture 2); method: PYCNOM:UFactor:128
Pressure, kPa	Molar volume, m3/mol	uncertainty
1130	0.0001022	4.7e-06
1570	0.0001036	4.8e-06
3210	8.58e-05	4e-06
3510	8.56e-05	4e-06

System: toluene + carbon dioxide + perfluorohexane; phases: Liquid mixture 1, Liquid mixture 2, Gas
Fixed: Temperature, K = 313
Property: Molar volume, m3/mol (Liquid mixture 1); method: PYCNOM:UFactor:128
Pressure, kPa	Molar volume, m3/mol	uncertainty
1130	0.0001738	7.4e-06
1570	0.0001549	6.7e-06
3210	0.0001199	5.4e-06
3510	0.0001123	5.1e-06

System: toluene + carbon dioxide + perfluorohexane; phases: Liquid mixture 1, Liquid mixture 2, Gas
Fixed: Temperature, K = 313
Property: Mole fraction of carbon dioxide (Liquid mixture 1); method: Phase equilibration
Pressure, kPa	Mole fraction of carbon dioxide	uncertainty
1130	0.193	0.036
1570	0.231	0.036
3210	0.426	0.036
3510	0.456	0.036

System: toluene + carbon dioxide + perfluorohexane; phases: Liquid mixture 2, Liquid mixture 1, Gas
Fixed: Temperature, K = 313
Property: Mole fraction of carbon dioxide (Liquid mixture 2); method: Phase equilibration
Pressure, kPa	Mole fraction of carbon dioxide	uncertainty
1130	0.125	0.036
1570	0.181	0.036
3210	0.405	0.036
3510	0.428	0.036

System: toluene + carbon dioxide + perfluorohexane; phases: Liquid mixture 1, Liquid mixture 2, Gas
Fixed: Temperature, K = 313
Property: Mole fraction of perfluorohexane (Liquid mixture 1); method: Phase equilibration
Pressure, kPa	Mole fraction of perfluorohexane	uncertainty
1130	0.746	0.036
1570	0.594	0.036
3210	0.369	0.036
3510	0.287	0.036

System: toluene + carbon dioxide + perfluorohexane; phases: Liquid mixture 2, Liquid mixture 1, Gas
Fixed: Temperature, K = 313
Property: Mole fraction of perfluorohexane (Liquid mixture 2); method: Phase equilibration
Pressure, kPa	Mole fraction of perfluorohexane	uncertainty
1130	0.013	0.013
1570	0.019	0.019
3210	0.024	0.024
3510	0.046	0.036
