Measured thermophysical data. Measurement of the triethylene glycol solubility in supercritical methane at pressures up to 9MPa
Source: Fluid Phase Equilib., 2008, 10.1016/j.fluid.2007.11.017
Compound 1: triethylene glycol, C6H14O4, InChI=1S/C6H14O4/c7-1-3-9-5-6-10-4-2-8/h7-8H,1-6H2
Compound 2: methane, CH4, InChI=1S/CH4/h1H4

System: methane + triethylene glycol; phases: Gas, Liquid
Property: Mole fraction of triethylene glycol (Gas); method: Chromatography
Temperature, K	Pressure, kPa	Mole fraction of triethylene glycol	uncertainty
298.15	1606	3.63e-07	4.4e-08
298.15	3243	2.87e-07	3.5e-08
298.15	5132	3.05e-07	3.7e-08
298.15	6485	3.45e-07	4.2e-08
298.15	7485	4.1e-07	4.9e-08
298.15	8612	4.79e-07	5.8e-08
316.75	1880	1.38e-06	1.7e-07
316.75	3313	1.13e-06	1.4e-07
316.75	4903	1.1e-06	1.3e-07
316.75	6392	1.11e-06	1.3e-07
316.75	7505	1.17e-06	1.4e-07
316.75	8697	1.22e-06	1.5e-07
