Measured thermophysical data. VLE and LLE in ternary systems of two associating components (water, aniline, and cyclohexylamine) and a hydrocarbon (cyclohexane or methylcyclohexane)
Source: Fluid Phase Equilib., 2014, 10.1016/j.fluid.2014.02.023
Compound 1: water, H2O, InChI=1S/H2O/h1H2
Compound 2: cyclohexane, C6H12, InChI=1S/C6H12/c1-2-4-6-5-3-1/h1-6H2, purity 99.5%
Compound 3: methylcyclohexane, C7H14, InChI=1S/C7H14/c1-7-5-3-2-4-6-7/h7H,2-6H2,1H3, purity 99.5%
Compound 4: aniline, C6H7N, InChI=1S/C6H7N/c7-6-4-2-1-3-5-6/h1-5H,7H2, purity 99.5%
Compound 5: cyclohexylamine, C6H13N, InChI=1S/C6H13N/c7-6-4-2-1-3-5-6/h6H,1-5,7H2, purity 99.5%

System: aniline + cyclohexane + water; phases: Liquid, Gas
Property: Mole fraction of water (Liquid); method: Chromatography
Property: Mole fraction of cyclohexane (Gas); method: Chromatography
Property: Mole fraction of water (Gas); method: Chromatography
Temperature, K	Pressure, kPa	Mole fraction of cyclohexane	Mole fraction of water	uncertainty	Mole fraction of cyclohexane	uncertainty	Mole fraction of water	uncertainty
333.15	30.5	0.0408	0.0958	0.01	0.6561	0.0104	0.3191	
333.15	43.19	0.0432	0.2103	0.0101	0.7231	0.0103	0.2591	
333.15	46.9	0.0887	0.1198	0.01	0.6064	0.0105	0.3829	
333.15	62.17	0.1779	0.1668	0.0101	0.6754	0.0104	0.3148	
333.15	64.04	0.1615	0.1569	0.0101	0.7092	0.0103	0.2824	
333.15	66.62	0.3788	0.0632	0.01	0.6364	0.0105	0.3555	
333.15	66.87	0.5774	0.0528	0.01	0.7487	0.0102	0.2428	
333.15	67.21	0.5985	0.0496	0.01	0.7518	0.0102	0.2395	
333.15	67.28	0.6628	0.0224	0.01	0.7232	0.0103	0.2702	
333.15	67.3	0.5906	0.0486	0.01	0.794	0.0102	0.2003	
333.15	67.4	0.5945	0.0424	0.01	0.7618	0.0102	0.2331	
333.15	67.43	0.8544	0.0055	0.0055	0.7611	0.0102	0.2316	
343.15	86.65	0.1381	0.1739	0.0101	0.6349	0.0105	0.3152	
343.15	94.96	0.8002	0.0165	0.01	0.6197	0.0105	0.3625	
343.15	96.6	0.8174	0.0129	0.01	0.7233	0.0103	0.2662	
343.15	97.87	0.8385	0.0111	0.01	0.6613	0.0104	0.3313	
353.15	50.27	0.0335	0.0971	0.01	0.4082	0.0106	0.5478	
353.15	54.09	0.0438	0.1108	0.01	0.4854	0.0108	0.4785	
353.15	69.74	0.081	0.0873	0.01	0.7144	0.0103	0.2514	
353.15	89.5	0.053	0.2188	0.0101	0.4832	0.0108	0.4946	

System: cyclohexylamine + cyclohexane + water; phases: Liquid mixture 1, Liquid mixture 2
Fixed: Temperature, K = 298.15
Fixed: Pressure, kPa = 101
Property: Mole fraction of cyclohexane (Liquid mixture 1); method: Titration method
Mole fraction of water	Mole fraction of cyclohexane	uncertainty
0.9736	0.0035	0.0035
0.9638	0.0044	0.0044
0.9468	0.0082	0.0062
0.9176	0.0167	0.0066
0.8615	0.0474	0.007
0.84	0.0603	0.0072

System: cyclohexylamine + cyclohexane + water; phases: Liquid, Gas
Property: Mole fraction of cyclohexane (Liquid); method: Chromatography
Property: Mole fraction of cyclohexane (Gas); method: Chromatography
Property: Mole fraction of water (Gas); method: Chromatography
Temperature, K	Pressure, kPa	Mole fraction of water	Mole fraction of cyclohexane	uncertainty	Mole fraction of cyclohexane	uncertainty	Mole fraction of water	uncertainty
333.15	16.46	0.1453	0.041	0.01	0.2768	0.0103	0.3614	
333.15	22.69	0.3376	0.0361	0.01	0.2914	0.0103	0.4926	
333.15	30.26	0.5813	0.0233	0.01	0.3304	0.0104	0.5578	
333.15	33.02	0.1999	0.1676	0.0101	0.5714	0.0106	0.292	
333.15	33.75	0.0715	0.304	0.0102	0.6867	0.0103	0.1748	
333.15	39.16	0.8779	0.0064	0.0064	0.4503	0.0107	0.4881	
333.15	43.07	0.7122	0.029	0.01	0.5208	0.0108	0.4235	
333.15	51.15	0.2934	0.2716	0.0102	0.6708	0.0104	0.2728	
333.15	52.32	0.1086	0.5004	0.0106	0.6951	0.0103	0.2523	
333.15	63.52	0.5944	0.1699	0.0101	0.7298	0.0103	0.2416	
333.15	64.44	0.3611	0.3726	0.0103	0.6502	0.0104	0.3247	
333.15	64.74	0.1409	0.6238	0.0103	0.7144	0.0103	0.2568	
333.15	65.94	0.0183	0.8101	0.0101	0.6951	0.0103	0.2769	
333.15	67	0.0088	0.866	0.01	0.6508	0.0104	0.3296	
363.15	53	0.1352	0.0358	0.01	0.1696	0.0101	0.4398	
363.15	73.88	0.3292	0.0316	0.01	0.1739	0.0101	0.5887	
363.15	91.42	0.0668	0.293	0.0102	0.5888	0.0106	0.2392	
363.15	92.26	0.1866	0.156	0.0101	0.4199	0.0106	0.4163	
363.15	93.43	0.5679	0.0208	0.01	0.2104	0.0102	0.6635	

System: cyclohexylamine + cyclohexane + water; phases: Liquid mixture 2, Liquid mixture 1
Fixed: Pressure, kPa = 101
Property: Mole fraction of cyclohexane (Liquid mixture 2); method: Chromatography
Property: Mole fraction of cyclohexane (Liquid mixture 1); method: Chromatography
Property: Mole fraction of water (Liquid mixture 1); method: Chromatography
Temperature, K	Mole fraction of water	Mole fraction of cyclohexane	uncertainty	Mole fraction of cyclohexane	uncertainty	Mole fraction of water	uncertainty
298.15	0.9837	0.0017	0.0017	0.0141	0.0066	0.9275	
298.15	0.9896	0.0011	0.0011	0.0311	0.0066	0.8904	
298.15	0.7704	0.102	0.0067	0.8723	0.0162	0.0225	
298.15	0.7264	0.1299	0.0069	0.861	0.0094	0.0319	
298.15	0.6323	0.2044	0.0073	0.8053	0.0094	0.0761	
298.15	0.5254	0.3048	0.0077	0.6933	0.0093	0.172	
298.15	0.4082	0.4312	0.008	0.5118	0.0088	0.337	
298.15	0.9909	0.0031	0.0031	0.9266	0.0159	0.0048	
298.15	0.9969	0.0009	0.0009	0.9743	0.0116	0.002	
333.15	0.9919	0.0005	0.0005	0.0241	0.0067	0.8423	
333.15	0.9934	0.0002	0.0002	0.0626	0.0073	0.764	
333.15	0.9933	0.0003	0.0003	0.2084	0.0079	0.5702	
333.15	0.9929	0.0008	0.0008	0.3838	0.0087	0.3695	
333.15	0.9917	0.0023	0.0023	0.5457	0.01	0.2155	
333.15	0.9943	0.0005	0.0005	0.756	0.012	0.0635	
333.15	0.9967	0.001	0.001	0.9208	0.0185	0.0068	
333.15	0.9973	0.0019	0.0019	0.9753	0.0111	0.0026	

System: cyclohexylamine + cyclohexane + water; phases: Liquid mixture 3, Liquid mixture 2, Liquid mixture 1
Fixed: Pressure, kPa = 101
Property: Mole fraction of water (Liquid mixture 3); method: Titration method
Property: Mole fraction of cyclohexane (Liquid mixture 3); method: Titration method
Property: Mole fraction of water (Liquid mixture 2); method: Titration method
Property: Mole fraction of cyclohexane (Liquid mixture 2); method: Titration method
Property: Mole fraction of water (Liquid mixture 1); method: Titration method
Property: Mole fraction of cyclohexane (Liquid mixture 1); method: Titration method
Temperature, K	Mole fraction of water	uncertainty	Mole fraction of cyclohexane	uncertainty	Mole fraction of water	uncertainty	Mole fraction of cyclohexane	uncertainty	Mole fraction of water	uncertainty	Mole fraction of cyclohexane	uncertainty
298.15	0.9887	0.006	0.0023	0.0023	0.822	0.008	0.0767	0.0061	0.0156	0.0061	0.8821	0.0063
303.15	0.9888	0.006	0.0031	0.0031	0.7778	0.0095	0.0992	0.0067	0.0381	0.0069	0.8422	0.0073
308.15	0.9902	0.006	0.0023	0.0023	0.6354	0.0132	0.2187	0.0078	0.1718	0.0094	0.6806	0.0091

System: aniline + cyclohexylamine + cyclohexane; phases: Liquid mixture 1, Liquid mixture 2
Fixed: Temperature, K = 298.15
Fixed: Pressure, kPa = 101
Property: Mole fraction of aniline (Liquid mixture 1); method: Titration method
Mole fraction of cyclohexane	Mole fraction of aniline	uncertainty
0.279	0.721	0.0133
0.2847	0.7075	0.0125
0.3037	0.6845	0.0127
0.3278	0.6586	0.0132
0.3401	0.644	0.0137
0.4136	0.5683	0.0151
0.4284	0.5523	0.0153
0.4591	0.5215	0.016
0.4786	0.5027	0.0165
0.5075	0.4737	0.0159
0.5446	0.4362	0.015
0.5611	0.4204	0.0145

System: aniline + cyclohexylamine + cyclohexane; phases: Liquid mixture 1, Liquid mixture 2
Fixed: Temperature, K = 298.15
Fixed: Pressure, kPa = 101
Property: Mole fraction of aniline (Liquid mixture 1); method: Chromatography
Property: Mole fraction of aniline (Liquid mixture 2); method: Chromatography
Property: Mole fraction of cyclohexane (Liquid mixture 2); method: Chromatography
Mole fraction of cyclohexane	Mole fraction of aniline	uncertainty	Mole fraction of aniline	uncertainty	Mole fraction of cyclohexane	uncertainty
0.6554	0.3295	0.0064	0.5603	0.0068	0.4219	
0.6889	0.2966	0.0085	0.593	0.0091	0.3897	
0.7629	0.2289	0.0062	0.6794	0.0064	0.3065	
0.7613	0.2304	0.0062	0.6913	0.0098	0.2965	
0.7776	0.2143	0.0086	0.6874	0.0064	0.3036	
0.7887	0.2034	0.0083	0.7049	0.0064	0.2896	
0.8015	0.1919	0.0062	0.7085	0.0063	0.2892	

System: aniline + methylcyclohexane + water; phases: Liquid mixture 1, Liquid mixture 2
Fixed: Temperature, K = 323.15
Fixed: Pressure, kPa = 101
Property: Mole fraction of methylcyclohexane (Liquid mixture 1); method: Chromatography
Mole fraction of water	Mole fraction of methylcyclohexane	uncertainty
0.2626	0	
0.226	0.0441	0.0104
0.2047	0.0835	0.0115
0.1797	0.1201	0.0115
0.1245	0.2137	0.0128
0.0585	0.3465	0.0269
0.0521	0.3743	0.0214
0.0398	0.4111	0.0452
0.0305	0.5406	0.0838

System: aniline + methylcyclohexane + water; phases: Liquid mixture 1, Liquid mixture 2
Fixed: Pressure, kPa = 101
Property: Mole fraction of methylcyclohexane (Liquid mixture 1); method: Chromatography
Property: Mole fraction of methylcyclohexane (Liquid mixture 2); method: Chromatography
Property: Mole fraction of water (Liquid mixture 2); method: Chromatography
Temperature, K	Mole fraction of water	Mole fraction of methylcyclohexane	uncertainty	Mole fraction of methylcyclohexane	uncertainty	Mole fraction of water	uncertainty
298.15	0.0041	0.897	0.0071	0.101	0.0062	0.0748	
298.15	0.0029	0.8979	0.0066	0.1031	0.0072	0.1046	
298.15	0.0038	0.957	0.007	0.0001	0.0001	0.9944	
298.15	0.9912	0.0001	0.0001	0.0455	0.0078	0.176	
323.15	0.0011	0.97	0.0199	0.0001	0.0001	0.9976	
323.15	0.0054	0.9617	0.0383	0.0001	0.0001	0.9969	
323.15	0.0196	0.6513	0.1313	0.291	0.0082	0.0817	
323.15	0.0212	0.6374	0.1233	0.3052	0.0082	0.0645	

System: aniline + methylcyclohexane + water; phases: Liquid mixture 3, Liquid mixture 2, Liquid mixture 1
Fixed: Pressure, kPa = 101
Property: Mole fraction of water (Liquid mixture 3); method: Titration method
Property: Mole fraction of methylcyclohexane (Liquid mixture 3); method: Titration method
Property: Mole fraction of methylcyclohexane (Liquid mixture 2); method: Titration method
Property: Mole fraction of water (Liquid mixture 2); method: Titration method
Property: Mole fraction of methylcyclohexane (Liquid mixture 1); method: Titration method
Property: Mole fraction of water (Liquid mixture 1); method: Titration method
Temperature, K	Mole fraction of water	uncertainty	Mole fraction of methylcyclohexane	uncertainty	Mole fraction of methylcyclohexane	uncertainty	Mole fraction of water	uncertainty	Mole fraction of methylcyclohexane	uncertainty	Mole fraction of water	uncertainty
298.15	0.9929	0.006	0.0001	0.0001	0.0883	0.0061	0.159	0.0075	0.9053	0.0061	0.0056	0.0056
303.15	0.9931	0.006	0.0001	0.0001	0.1064	0.0061	0.1527	0.0074	0.8898	0.0061	0.0056	0.0056
308.15	0.9877	0.006	0.0003	0.0003	0.1179	0.0061	0.1635	0.0076	0.8626	0.0062	0.0073	0.006
313.15	0.9903	0.006	0.0001	0.0001	0.128	0.0061	0.1685	0.0077	0.8377	0.0062	0.0084	0.006
318.15	0.9914	0.006	0.0001	0.0001	0.149	0.0061	0.1566	0.0075	0.808	0.0064	0.0126	0.006
323.15	0.9915	0.006	0.0001	0.0001	0.166	0.0063	0.1611	0.0075	0.7421	0.0069	0.0353	0.0061
328.15	0.9914	0.006	0.0001	0.0001	0.2161	0.0068	0.1447	0.0073	0.6677	0.0075	0.0327	0.0061
331.45	0.99	0.006	0.0001	0.0001	0.2888	0.021	0.1241	0.008	0.5778	0.0213	0.0463	0.0082
332.15	0.9899	0.006	0.0001	0.0001	0.3587	0.021	0.11	0.0079	0.5071	0.0214	0.0651	0.0083

System: aniline + methylcyclohexane + water; phases: Liquid, Gas
Property: Mole fraction of water (Liquid); method: Titration method
Property: Mole fraction of water (Gas); method: Titration method
Property: Mole fraction of methylcyclohexane (Gas); method: Titration method
Temperature, K	Pressure, kPa	Mole fraction of methylcyclohexane	Mole fraction of water	uncertainty	Mole fraction of water	uncertainty	Mole fraction of methylcyclohexane	uncertainty
333.15	29.54	0.0584	0.1194	0.01	0.4534	0.01	0.5267	
333.15	35.1	0.343	0.0403	0.01	0.3348	0.01	0.6524	
333.15	37.27	0.1218	0.1263	0.01	0.3606	0.01	0.626	
333.15	44.26	0.1043	0.1968	0.01	0.5017	0.01	0.4861	
333.15	44.47	0.1812	0.162	0.01	0.416	0.01	0.5702	
333.15	44.48	0.2501	0.1264	0.01	0.3427	0.01	0.6426	
333.15	44.59	0.5726	0.0551	0.01	0.3354	0.01	0.649	
353.15	92.09	0.6158	0.0471	0.01	0.4785	0.01	0.5034	
353.15	92.22	0.1986	0.1774	0.01	0.4726	0.01	0.5086	
353.15	92.47	0.6851	0.0316	0.01	0.4438	0.01	0.5385	
353.15	93.49	0.1537	0.1998	0.01	0.461	0.01	0.5202	
353.15	94	0.235	0.1572	0.01	0.454	0.01	0.5265	
353.15	95.52	0.505	0.0665	0.01	0.4897	0.01	0.4976	
358.15	98.46	0.2798	0.0852	0.01	0.3778	0.01	0.6034	
363.15	91	0.0814	0.1232	0.01	0.4933	0.01	0.4814	
363.15	96.07	0.1253	0.1309	0.01	0.4659	0.01	0.5035	

System: methylcyclohexane + cyclohexylamine + water; phases: Liquid mixture 1, Liquid mixture 2
Fixed: Pressure, kPa = 101
Property: Mole fraction of methylcyclohexane (Liquid mixture 1); method: Chromatography
Property: Mole fraction of methylcyclohexane (Liquid mixture 2); method: Chromatography
Property: Mole fraction of water (Liquid mixture 2); method: Chromatography
Temperature, K	Mole fraction of water	Mole fraction of methylcyclohexane	uncertainty	Mole fraction of methylcyclohexane	uncertainty	Mole fraction of water	uncertainty
298.15	0.0004	0.9906	0.0073	0.0001	0.0001	0.999	
298.15	0.0375	0.8449	0.0095	0.1258	0.0066	0.6881	
298.15	0.0724	0.799	0.0096	0.1754	0.0068	0.6317	
298.15	0.1066	0.7596	0.0098	0.2012	0.0069	0.5975	
298.15	0.1338	0.7218	0.0095	0.2229	0.007	0.5769	
298.15	0.233	0.6089	0.012	0.2895	0.0072	0.5102	
298.15	0.0011	0.9828	0.0129	0.0019	0.0019	0.9963	
298.15	0.0016	0.9639	0.0154	0.0022	0.0022	0.9951	
298.15	0.0051	0.9407	0.0499	0.0021	0.0021	0.9929	
298.15	0.0063	0.9017	0.0171	0.0041	0.0041	0.9853	
298.15	0.0106	0.8843	0.034	0.0102	0.0062	0.9483	
298.15	0.0117	0.8766	0.0317	0.0377	0.0063	0.8557	
298.15	0.0189	0.8682	0.0096	0.0685	0.0064	0.793	
298.15	0.0203	0.8615	0.0094	0.0891	0.0065	0.7485	
323.15	0.5907	0.2245	0.0084	0.0003	0.0003	0.9929	
323.15	0.764	0.0807	0.0081	0.0007	0.0007	0.9924	
323.15	0.01	0.8995	0.0337	0.0003	0.0003	0.9968	
323.15	0.0194	0.8476	0.0236	0.0005	0.0005	0.9943	
323.15	0.0351	0.8018	0.0186	0.0002	0.0002	0.9952	
323.15	0.1001	0.7122	0.0091	0.0006	0.0006	0.9933	
323.15	0.0061	0.9342	0.0395	0.0001	0.0001	0.9983	
323.15	0.3429	0.4594	0.0093	0.0004	0.0004	0.9928	
323.15	0.4555	0.3517	0.0088	0.0011	0.0011	0.9953	

System: methylcyclohexane + cyclohexylamine + water; phases: Liquid mixture 1, Liquid mixture 2, Liquid mixture 3
Fixed: Pressure, kPa = 101
Property: Mole fraction of methylcyclohexane (Liquid mixture 1); method: Chromatography
Property: Mole fraction of water (Liquid mixture 1); method: Chromatography
Property: Mole fraction of water (Liquid mixture 2); method: Chromatography
Property: Mole fraction of methylcyclohexane (Liquid mixture 2); method: Chromatography
Property: Mole fraction of water (Liquid mixture 3); method: Chromatography
Property: Mole fraction of methylcyclohexane (Liquid mixture 3); method: Chromatography
Temperature, K	Mole fraction of methylcyclohexane	uncertainty	Mole fraction of water	uncertainty	Mole fraction of water	uncertainty	Mole fraction of methylcyclohexane	uncertainty	Mole fraction of water	uncertainty	Mole fraction of methylcyclohexane	uncertainty
303.15	0.8688	0.0062	0.0145	0.006	0.9021	0.0069	0.0235	0.006	0.9859	0.006	0.0008	0.0008
308.15	0.843	0.0063	0.0234	0.0061	0.8503	0.0076	0.0421	0.0061	0.9905	0.006	0.0001	0.0001
313.15	0.7994	0.0068	0.0444	0.0064	0.807	0.0084	0.0644	0.0062	0.991	0.006	0.0003	0.0003
318.15	0.6968	0.0076	0.1156	0.0074	0.7345	0.01	0.1072	0.0063	0.9915	0.006	0.0001	0.0001

System: methylcyclohexane + cyclohexylamine + water; phases: Liquid, Gas
Property: Mole fraction of methylcyclohexane (Liquid); method: Chromatography
Property: Mole fraction of methylcyclohexane (Gas); method: Chromatography
Property: Mole fraction of water (Gas); method: Chromatography
Temperature, K	Pressure, kPa	Mole fraction of water	Mole fraction of methylcyclohexane	uncertainty	Mole fraction of methylcyclohexane	uncertainty	Mole fraction of water	uncertainty
333.15	19.18	0.2067	0.0714	0.01	0.2828	0.0103	0.4489	
333.15	23.9	0.3752	0.0585	0.01	0.2906	0.0103	0.5214	
333.15	28.17	0.52	0.0441	0.01	0.2592	0.0102	0.5947	
333.15	32.27	0.6185	0.0389	0.01	0.3877	0.0105	0.5367	
333.15	33.85	0.6937	0.0281	0.01	0.4086	0.0106	0.5231	
333.15	36	0.7796	0.0196	0.01	0.4553	0.0107	0.4803	
333.15	39.44	0.3077	0.3186	0.0103	0.5224	0.0108	0.4171	
333.15	41.63	0.4394	0.2389	0.0101	0.6158	0.0105	0.3286	
333.15	42.83	0.7443	0.0669	0.01	0.646	0.0104	0.2992	
333.15	43.78	0.4367	0.3202	0.0103	0.6761	0.0104	0.2743	
333.15	43.94	0.1399	0.6232	0.0103	0.6576	0.0104	0.2956	
333.15	44.35	0.0254	0.802	0.0101	0.7196	0.0103	0.2314	
333.15	44.65	0.0384	0.7684	0.0101	0.5102	0.0108	0.4593	
348.15	71.26	0.2989	0.3162	0.0102	0.5514	0.0107	0.3774	
348.15	74.71	0.4305	0.2346	0.0101	0.4252	0.0106	0.5169	
348.15	76.58	0.7406	0.047	0.01	0.4194	0.0106	0.5347	
348.15	77.48	0.4997	0.2219	0.0101	0.5188	0.0108	0.4246	
348.15	78.2	0.1708	0.5402	0.0105	0.4586	0.0107	0.4911	
353.15	67.97	0.5632	0.0432	0.01	0.2912	0.0103	0.6099	
353.15	71.75	0.6392	0.0335	0.01	0.3078	0.0103	0.6108	
353.15	73.36	0.7041	0.0227	0.01	0.3058	0.0103	0.6133	
353.15	83.43	0.7818	0.0261	0.01	0.4003	0.0106	0.5274	
363.15	72.26	0.2607	0.0742	0.01	0.1888	0.0101	0.5824	
363.15	89.44	0.4471	0.0556	0.01	0.2174	0.0102	0.6383	

System: aniline + methylcyclohexane + cyclohexylamine; phases: Liquid, Gas
Property: Mole fraction of aniline (Liquid); method: Chromatography
Property: Mole fraction of aniline (Gas); method: Chromatography
Property: Mole fraction of methylcyclohexane (Gas); method: Chromatography
Temperature, K	Pressure, kPa	Mole fraction of methylcyclohexane	Mole fraction of aniline	uncertainty	Mole fraction of aniline	uncertainty	Mole fraction of methylcyclohexane	uncertainty
333.15	10.39	0.0943	0.2944	0.0102	0.0146	0.01	0.5791	
333.15	24.75	0.8191	0.0864	0.01	0.0084	0.0084	0.9618	
333.15	10.53	0.0909	0.1542	0.0101	0.0062	0.0062	0.4693	
333.15	13.7	0.1469	0.4735	0.0105	0.0221	0.01	0.815	
333.15	14.12	0.195	0.1513	0.0101	0.0038	0.0038	0.674	
333.15	16.36	0.1667	0.6143	0.0104	0.0276	0.01	0.8974	
333.15	17.21	0.3064	0.1701	0.0101	0.008	0.008	0.7817	
333.15	20.63	0.4642	0.1727	0.0101	0.0077	0.0077	0.8749	
333.15	21.98	0.4518	0.3959	0.0104	0.0258	0.01	0.9371	
333.15	22.6	0.614	0.1603	0.0101	0.0107	0.01	0.9216	
363.15	57.93	0.4346	0.4065	0.0104	0.0318	0.01	0.9138	
363.15	28.95	0.0839	0.3406	0.0103	0.0219	0.01	0.5071	
363.15	61.54	0.615	0.1513	0.0101	0.0148	0.01	0.8951	
363.15	66.66	0.7767	0.1311	0.01	0.0164	0.01	0.9509	
363.15	31.17	0.0839	0.1396	0.01	0.0075	0.0075	0.3769	
363.15	32.17	0.1089	0.4934	0.0106	0.0383	0.01	0.6891	
363.15	37.43	0.1123	0.762	0.0101	0.0644	0.01	0.8655	
363.15	37.85	0.1354	0.6352	0.0103	0.0512	0.01	0.8222	
363.15	38.75	0.1753	0.146	0.0101	0.0075	0.0075	0.5693	
363.15	46.86	0.2933	0.1603	0.0101	0.012	0.01	0.708	
363.15	54.81	0.4392	0.1663	0.0101	0.02	0.01	0.7997	

System: aniline + cyclohexane; phases: Liquid, Gas
Property: Vapor or sublimation pressure, kPa (Liquid); method: Ebulliometric method (Recirculating still)
Mole fraction of cyclohexane	Temperature, K	Vapor or sublimation pressure, kPa	uncertainty
0.0835	333.15	25.03	1.21
0.2054	333.15	39.6	1.03
0.2526	333.15	40.94	0.44
0.3244	333.15	43.8	0.37
0.4212	333.15	44.94	0.3
0.4401	333.15	45.11	0.3
0.5101	333.15	45.66	0.31
0.5423	333.15	45.88	0.3
0.6023	333.15	46.08	0.31
0.6625	333.15	46.53	0.32
0.7111	333.15	46.79	0.32
0.795	333.15	47.48	0.34
0.9123	333.15	49.22	0.36
0.0755	353.15	39.64	1.98
0.2326	353.15	70.47	1.24
0.416	353.15	81.07	0.63
0.5049	353.15	83.29	0.46
0.596	353.15	85.07	0.46
0.692	353.15	87.06	0.48
0.7991	353.15	89.48	0.52
0.9063	353.15	93.17	0.57

System: aniline + cyclohexane; phases: Gas, Liquid
Property: Mole fraction of cyclohexane (Gas); method: Titration method
Mole fraction of cyclohexane	Temperature, K	Mole fraction of cyclohexane	uncertainty
0.0835	333.15	0.9814	0.01
0.2054	333.15	0.9834	0.01
0.2526	333.15	0.9851	0.01
0.3244	333.15	0.9867	0.01
0.4212	333.15	0.9882	0.01
0.4401	333.15	0.9892	0.01
0.5101	333.15	0.9896	0.01
0.5423	333.15	0.9886	0.01
0.6023	333.15	0.9901	0.0099
0.6625	333.15	0.9878	0.01
0.7111	333.15	0.9918	0.0082
0.795	333.15	0.9904	0.0096
0.9123	333.15	0.9935	0.0065
0.0755	353.15	0.9655	0.01
0.2326	353.15	0.9764	0.01
0.416	353.15	0.9801	0.01
0.5049	353.15	0.9823	0.01
0.596	353.15	0.9836	0.01
0.692	353.15	0.9852	0.01
0.7991	353.15	0.9877	0.01
0.9063	353.15	0.9931	0.0069

System: aniline + cyclohexane; phases: Liquid mixture 1, Liquid mixture 2
Property: Mole fraction of aniline (Liquid mixture 1); method: Titration method
Pressure, kPa	Temperature, K	Mole fraction of aniline	uncertainty
101	298.15	0.721	0.0133

System: aniline + water; phases: Liquid mixture 1, Liquid mixture 2
Property: Mole fraction of water (Liquid mixture 1); method: Titration method
Pressure, kPa	Temperature, K	Mole fraction of water	uncertainty
101	323.15	0.2626	0.0071
