Measured thermophysical data. Multiphase equilibria for mixtures containing water, acetic acid, propionic acid, methyl acetate and methyl propionate
Source: Fluid Phase Equilib., 2008, 10.1016/j.fluid.2008.07.004
Compound 1: acetic acid, C2H4O2, InChI=1S/C2H4O2/c1-2(3)4/h1H3,(H,3,4)
Compound 2: propanoic acid, C3H6O2, InChI=1S/C3H6O2/c1-2-3(4)5/h2H2,1H3,(H,4,5)
Compound 3: methyl ethanoate, C3H6O2, InChI=1S/C3H6O2/c1-3(4)5-2/h1-2H3
Compound 4: methyl propanoate, C4H8O2, InChI=1S/C4H8O2/c1-3-4(5)6-2/h3H2,1-2H3
Compound 5: water, H2O, InChI=1S/H2O/h1H2

System: methyl ethanoate; phases: Liquid, Gas
Property: Vapor or sublimation pressure, kPa (Liquid); method: EBULLIO:UFactor:6
Temperature, K	Vapor or sublimation pressure, kPa	uncertainty
330.05	101.3	3.6

System: methyl propanoate; phases: Liquid, Gas
Property: Vapor or sublimation pressure, kPa (Liquid); method: EBULLIO:UFactor:8
Temperature, K	Vapor or sublimation pressure, kPa	uncertainty
352.65	101.3	4

System: acetic acid + methyl propanoate; phases: Gas, Liquid
Fixed: Pressure, kPa = 101.3
Property: Boiling temperature at pressure P, K (Gas); method: EBULLIO:UFactor:8
Mole fraction of acetic acid	Boiling temperature at pressure P, K	uncertainty
0	352.65	0.68
0.0665	356.75	0.71
0.0979	358.25	0.7
0.1572	360.85	0.7
0.1806	362.15	0.7
0.2622	365.05	0.7
0.3356	368.15	0.69
0.4243	371.05	0.69
0.4849	373.65	0.7
0.5355	375.45	0.69

System: acetic acid + methyl propanoate; phases: Liquid, Gas
Fixed: Pressure, kPa = 101.3
Property: Mole fraction of acetic acid (Liquid); method: CHROM:UFactor:6
Mole fraction of acetic acid	Mole fraction of acetic acid	uncertainty
0.0665	0.2077	0.012
0.0979	0.2705	0.0141
0.1572	0.3708	0.0185
0.1806	0.4251	0.0205
0.2622	0.5328	0.0222
0.3356	0.606	0.0187
0.4243	0.6798	0.0153
0.4849	0.7374	0.0126
0.5355	0.7661	0.0111

System: propanoic acid + methyl ethanoate; phases: Gas, Liquid
Fixed: Pressure, kPa = 101.3
Property: Boiling temperature at pressure P, K (Gas); method: EBULLIO:UFactor:6
Mole fraction of propanoic acid	Boiling temperature at pressure P, K	uncertainty
0	330.05	0.51
0.0113	338.95	1.75
0.0184	341.65	1.1
0.022	342.95	1.07
0.0403	346.65	0.73
0.0558	349.65	0.68
0.0801	353.45	0.65
0.0892	354.75	0.63
0.1156	358.35	0.64
0.1406	362.15	0.65
0.155	364.35	0.65

System: propanoic acid + methyl ethanoate; phases: Liquid, Gas
Fixed: Pressure, kPa = 101.3
Property: Mole fraction of propanoic acid (Liquid); method: CHROM:UFactor:6
Mole fraction of propanoic acid	Mole fraction of propanoic acid	uncertainty
0.0113	0.2285	0.0256
0.0184	0.2921	0.0292
0.022	0.3364	0.0356
0.0403	0.4499	0.0253
0.0558	0.5199	0.0241
0.0801	0.5909	0.0206
0.0892	0.6203	0.0182
0.1156	0.6557	0.0165
0.1406	0.6929	0.0148
0.155	0.7136	0.0139

System: propanoic acid + methyl ethanoate; phases: Liquid, Gas
Property: Mole fraction of propanoic acid (Liquid); method: CHROM:UFactor:6
Temperature, K	Pressure, kPa	Mole fraction of propanoic acid	uncertainty
335.65	101.3	0.1066	0.0052

System: propanoic acid + methyl propanoate; phases: Gas, Liquid
Fixed: Pressure, kPa = 101.3
Property: Boiling temperature at pressure P, K (Gas); method: EBULLIO:UFactor:6
Mole fraction of propanoic acid	Boiling temperature at pressure P, K	uncertainty
0	352.65	0.51
0.0187	357.25	1.2
0.0324	359.35	0.86
0.0501	361.45	0.75
0.0638	362.65	0.8
0.1073	368.05	0.76
0.1401	370.75	0.67
0.214	376.95	0.65
0.2687	380.65	0.62

System: propanoic acid + methyl propanoate; phases: Liquid, Gas
Fixed: Pressure, kPa = 101.3
Property: Mole fraction of propanoic acid (Liquid); method: CHROM:UFactor:6
Mole fraction of propanoic acid	Mole fraction of propanoic acid	uncertainty
0.0187	0.1828	0.0353
0.0324	0.2725	0.0254
0.0501	0.3184	0.02
0.0638	0.3537	0.0228
0.1073	0.4896	0.0262
0.1401	0.5404	0.0226
0.214	0.6405	0.0178
0.2687	0.6859	0.0153

System: methyl ethanoate + methyl propanoate; phases: Gas, Liquid
Fixed: Pressure, kPa = 101.3
Property: Boiling temperature at pressure P, K (Gas); method: EBULLIO:UFactor:6
Mole fraction of methyl propanoate	Boiling temperature at pressure P, K	uncertainty
0	330.05	0.51
0.0865	332.75	0.52
0.1387	334.15	0.52
0.1826	335.25	0.52
0.2681	337.45	0.52
0.33	338.95	0.52
0.3865	340.05	0.52
0.409	340.55	0.52
0.4919	342.35	0.52

System: methyl ethanoate + methyl propanoate; phases: Liquid, Gas
Fixed: Pressure, kPa = 101.3
Property: Mole fraction of methyl propanoate (Liquid); method: CHROM:UFactor:6
Mole fraction of methyl propanoate	Mole fraction of methyl propanoate	uncertainty
0.0865	0.1799	0.0088
0.1387	0.2494	0.012
0.1826	0.319	0.0151
0.2681	0.4362	0.0205
0.33	0.5076	0.0231
0.3865	0.5558	0.0208
0.409	0.5783	0.0198
0.4919	0.6485	0.0165

System: methyl ethanoate + water; phases: Gas, Liquid mixture 1, Liquid mixture 2
Property: Vapor or sublimation pressure, kPa (Gas); method: EBULLIO:UFactor:8
Temperature, K	Vapor or sublimation pressure, kPa	uncertainty
323.24	78.2	3.5
343.15	157	7

System: methyl ethanoate + water; phases: Liquid mixture 1, Gas, Liquid mixture 2
Property: Mole fraction of methyl ethanoate (Liquid mixture 1); method: CHROM:UFactor:8
Temperature, K	Mole fraction of methyl ethanoate	uncertainty
323.24	0.6594	0.0272
343.15	0.5571	0.0354

System: methyl ethanoate + water; phases: Liquid mixture 2, Gas, Liquid mixture 1
Property: Mole fraction of methyl ethanoate (Liquid mixture 2); method: CHROM:UFactor:8
Temperature, K	Mole fraction of methyl ethanoate	uncertainty
323.24	0.07	0.0056
343.15	0.077	0.0062

System: methyl ethanoate + water; phases: Gas, Liquid mixture 1, Liquid mixture 2
Property: Mole fraction of methyl ethanoate (Gas); method: CHROM:UFactor:8
Temperature, K	Mole fraction of methyl ethanoate	uncertainty
323.24	0.8613	0.0111
343.15	0.8249	0.014

System: methyl propanoate + water; phases: Gas, Liquid mixture 1, Liquid mixture 2
Property: Vapor or sublimation pressure, kPa (Gas); method: EBULLIO:UFactor:8
Temperature, K	Vapor or sublimation pressure, kPa	uncertainty
323.24	43.7	2.2
343.15	95.3	4.2

System: methyl propanoate + water; phases: Gas, Liquid mixture 1, Liquid mixture 2
Property: Mole fraction of methyl propanoate (Gas); method: Chromatography
Temperature, K	Mole fraction of methyl propanoate	uncertainty
323.24	0.7532	0.0025
343.15	0.7267	0.0027

System: methyl propanoate + water; phases: Liquid mixture 1, Gas, Liquid mixture 2
Property: Mole fraction of methyl propanoate (Liquid mixture 1); method: CHROM:UFactor:8
Temperature, K	Mole fraction of methyl propanoate	uncertainty
323.24	0.8838	0.0093
343.15	0.823	0.0142

System: methyl propanoate + water; phases: Liquid mixture 2, Gas, Liquid mixture 1
Property: Mole fraction of methyl propanoate (Liquid mixture 2); method: CHROM:UFactor:8
Temperature, K	Mole fraction of methyl propanoate	uncertainty
323.24	0.0109	0.0009
343.15	0.0101	0.0008

System: methyl ethanoate + methyl propanoate + water; phases: Liquid mixture 1, Gas, Liquid mixture 2
Property: Mole fraction of methyl ethanoate (Liquid mixture 1); method: CHROM:UFactor:8
Property: Mole fraction of methyl ethanoate (Liquid mixture 2); method: CHROM:UFactor:8
Property: Mole fraction of methyl ethanoate (Gas); method: CHROM:UFactor:8
Property: Mole fraction of methyl propanoate (Gas); method: CHROM:UFactor:8
Property: Mole fraction of methyl propanoate (Liquid mixture 1); method: CHROM:UFactor:8
Property: Mole fraction of methyl propanoate (Liquid mixture 2); method: CHROM:UFactor:8
Temperature, K	Pressure, kPa	Mole fraction of methyl ethanoate	uncertainty	Mole fraction of methyl ethanoate	uncertainty	Mole fraction of methyl ethanoate	uncertainty	Mole fraction of methyl propanoate	uncertainty	Mole fraction of methyl propanoate	uncertainty	Mole fraction of methyl propanoate	uncertainty
323.24	78.2	0.6594	0.0273	0.07	0.0056	0.8613	0.0114	0	0.0001	0	0.0001	0	0.0001
323.24	66.1	0.4992	0.04	0.0292	0.0024	0.6502	0.0281	0.1884	0.0153	0.2671	0.0216	0.0052	0.0004
323.24	57.4	0.2847	0.0229	0.0138	0.0011	0.4259	0.0342	0.391	0.0314	0.5496	0.0362	0.0087	0.0007
323.24	49.5	0.1098	0.009	0.0056	0.0005	0.1959	0.0159	0.6167	0.0307	0.7604	0.0193	0.008	0.0006
323.24	47.1	0.0693	0.0058	0.0033	0.0003	0.0773	0.0066	0.7205	0.0225	0.8067	0.0157	0.01	0.0008
323.24	43.7	0	0.0001	0	0.0001	0	0.0001	0.7532	0.0198	0.8838	0.0096	0.0109	0.0009
343.15	157	0.5571	0.0354	0.077	0.0062	0.8249	0.0145	0	0.0001	0	0.0001	0	0.0001
343.15	144.7	0.5258	0.038	0.044	0.0036	0.6902	0.0251	0.1028	0.009	0.1494	0.0126	0.0048	0.0004
343.15	136.5	0.4672	0.0375	0.0289	0.0023	0.5585	0.0356	0.227	0.0185	0.2516	0.0207	0.0054	0.0004
343.15	121.5	0.2821	0.0228	0.0138	0.0011	0.3801	0.0307	0.3753	0.0303	0.5099	0.0395	0.0074	0.0006
343.15	108.1	0.1186	0.01	0.0054	0.0005	0.1309	0.0113	0.6145	0.0311	0.7187	0.0228	0.0095	0.0008
343.15	102.5	0.0687	0.006	0.003	0.0003	0.0806	0.0071	0.6513	0.028	0.7823	0.0176	0.0099	0.0008
343.15	95.3	0	0.0001	0	0.0001	0	0.0001	0.7267	0.022	0.823	0.0143	0.0101	0.0008
