Measured thermophysical data. Temperature dependence of limiting activity coefficients and Henry s law constants of cyclic and open-chain ethers in water
Source: Fluid Phase Equilib., 2007, 10.1016/j.fluid.2007.08.013
Compound 1: diethyl ether, C4H10O, InChI=1S/C4H10O/c1-3-5-4-2/h3-4H2,1-2H3
Compound 2: dimethoxymethane, C3H8O2, InChI=1S/C3H8O2/c1-4-3-5-2/h3H2,1-2H3
Compound 3: tetrahydrofuran, C4H8O, InChI=1S/C4H8O/c1-2-4-5-3-1/h1-4H2
Compound 4: tetrahydropyran, C5H10O, InChI=1S/C5H10O/c1-2-4-6-5-3-1/h1-5H2
Compound 5: 1,2-dimethoxyethane, C4H10O2, InChI=1S/C4H10O2/c1-5-3-4-6-2/h3-4H2,1-2H3
Compound 6: 1,3-dioxolane, C3H6O2, InChI=1S/C3H6O2/c1-2-5-3-4-1/h1-3H2
Compound 7: 1,4-dioxane, C4H8O2, InChI=1S/C4H8O2/c1-2-6-4-3-5-1/h1-4H2
Compound 8: water, H2O, InChI=1S/H2O/h1H2

System: diethyl ether + water; phases: Liquid, Gas
Fixed: Mole fraction of diethyl ether = 0
Property: Activity coefficient of diethyl ether (Liquid); method: Chromatography
Temperature, K	Activity coefficient of diethyl ether	uncertainty
273.35	33.9	2.3
278.15	41.2	2.8
283.15	49.4	3.4
288.15	58.5	4
293.15	68.6	4.7
298.15	77.1	5.3
303.15	88.8	6.1
308.15	98.8	6.8
318.15	121	8.3
328.15	139.5	9.6

System: tetrahydrofuran + water; phases: Liquid, Gas
Fixed: Mole fraction of tetrahydrofuran = 0
Property: Activity coefficient of tetrahydrofuran (Liquid); method: classical headspace analysis
Temperature, K	Activity coefficient of tetrahydrofuran	uncertainty
273.35	9.74	0.58
278.15	11.1	0.7

System: tetrahydrofuran + water; phases: Liquid, Gas
Fixed: Mole fraction of tetrahydrofuran = 0
Property: Activity coefficient of tetrahydrofuran (Liquid); method: Chromatography
Temperature, K	Activity coefficient of tetrahydrofuran	uncertainty
288.15	14.3	1
298.15	17.6	1.2
308.15	20.6	1.4
318.15	24	1.6

System: tetrahydrofuran + water; phases: Liquid, Gas
Fixed: Temperature, K = 328.15
Fixed: Mole fraction of tetrahydrofuran = 0
Property: Activity coefficient of tetrahydrofuran (Liquid); method: non steady state GLC
Activity coefficient of tetrahydrofuran	uncertainty
26.8	1.6
28.1	1.7

System: tetrahydropyran + water; phases: Liquid, Gas
Fixed: Mole fraction of tetrahydropyran = 0
Property: Activity coefficient of tetrahydropyran (Liquid); method: relative headspace analysis
Temperature, K	Activity coefficient of tetrahydropyran	uncertainty
273.35	39.6	2.4
283.15	44.9	2.7

System: tetrahydropyran + water; phases: Liquid, Gas
Fixed: Mole fraction of tetrahydropyran = 0
Property: Activity coefficient of tetrahydropyran (Liquid); method: Chromatography
Temperature, K	Activity coefficient of tetrahydropyran	uncertainty
288.15	58	4
298.15	70.5	4.8
308.15	83.4	5.7
318.15	96.2	6.6
328.15	107.5	7.4

System: dimethoxymethane + water; phases: Liquid, Gas
Fixed: Mole fraction of dimethoxymethane = 0
Property: Activity coefficient of dimethoxymethane (Liquid); method: Chromatography
Temperature, K	Activity coefficient of dimethoxymethane	uncertainty
273.35	10.8	0.7
283.15	13.7	0.9
293.15	15.6	1.1
298.15	16.9	1.2
303.15	18	1.2
313.15	19.9	1.4
323.15	22	1.5
333.15	23.9	1.6

System: 1,2-dimethoxyethane + water; phases: Liquid, Gas
Property: Activity coefficient of 1,2-dimethoxyethane (Liquid); method: Chromatography
Temperature, K	Mole fraction of 1,2-dimethoxyethane	Activity coefficient of 1,2-dimethoxyethane	uncertainty
318.15	0	7.25	0.49

System: 1,2-dimethoxyethane + water; phases: Liquid, Gas
Fixed: Mole fraction of 1,2-dimethoxyethane = 0
Property: Activity coefficient of 1,2-dimethoxyethane (Liquid); method: non steady state GLC
Temperature, K	Activity coefficient of 1,2-dimethoxyethane	uncertainty
328.15	9.12	0.55
328.15	8.81	0.53
338.15	11.2	0.7
338.15	11.1	0.7

System: 1,2-dimethoxyethane + water; phases: Liquid, Gas
Property: Activity coefficient of 1,2-dimethoxyethane (Liquid); method: Rayleigh distillation
Temperature, K	Mole fraction of 1,2-dimethoxyethane	Activity coefficient of 1,2-dimethoxyethane	uncertainty
348.15	0	12.2	0.7

System: 1,2-dimethoxyethane + water; phases: Liquid, Gas
Property: Activity coefficient of 1,2-dimethoxyethane (Liquid); method: circulation still
Temperature, K	Mole fraction of 1,2-dimethoxyethane	Activity coefficient of 1,2-dimethoxyethane	uncertainty
372.5	0	14.9	0.9

System: 1,3-dioxolane + water; phases: Liquid, Gas
Property: Activity coefficient of 1,3-dioxolane (Liquid); method: circulation still
Temperature, K	Mole fraction of 1,3-dioxolane	Activity coefficient of 1,3-dioxolane	uncertainty
372.55	0	11.2	0.7

System: 1,3-dioxolane + water; phases: Liquid, Gas
Property: Activity coefficient of 1,3-dioxolane (Liquid); method: Rayleigh distillation
Temperature, K	Mole fraction of 1,3-dioxolane	Activity coefficient of 1,3-dioxolane	uncertainty
348.15	0	11.3	0.7

System: 1,3-dioxolane + water; phases: Liquid, Gas
Fixed: Temperature, K = 338.15
Fixed: Mole fraction of 1,3-dioxolane = 0
Property: Activity coefficient of 1,3-dioxolane (Liquid); method: non steady state GLC
Activity coefficient of 1,3-dioxolane	uncertainty
11	0.7
11.4	0.7

System: 1,3-dioxolane + water; phases: Liquid, Gas
Fixed: Mole fraction of 1,3-dioxolane = 0
Property: Activity coefficient of 1,3-dioxolane (Liquid); method: Chromatography
Temperature, K	Activity coefficient of 1,3-dioxolane	uncertainty
318.15	10.6	0.7
328.15	10.9	0.7

System: 1,3-dioxolane + water; phases: Liquid, Gas
Fixed: Mole fraction of 1,3-dioxolane = 0
Property: Activity coefficient of 1,3-dioxolane (Liquid); method: relative headspace analysis
Temperature, K	Activity coefficient of 1,3-dioxolane	uncertainty
273.35	8.13	0.49
278.15	8.48	0.51
288.15	9.12	0.55
298.15	9.71	0.58
308.15	10.2	0.6

System: 1,4-dioxane + water; phases: Liquid, Gas
Fixed: Mole fraction of 1,4-dioxane = 0
Property: Activity coefficient of 1,4-dioxane (Liquid); method: relative headspace analysis
Temperature, K	Activity coefficient of 1,4-dioxane	uncertainty
273.35	3.53	0.21
278.15	4	0.24
288.15	4.75	0.29
308.15	6.15	0.37
318.15	6.82	0.41

System: 1,4-dioxane + water; phases: Liquid, Gas
Fixed: Mole fraction of 1,4-dioxane = 0
Property: Activity coefficient of 1,4-dioxane (Liquid); method: headspace analysis
Temperature, K	Activity coefficient of 1,4-dioxane	uncertainty
288.15	5.17	0.31
298.15	5.88	0.35
308.15	6.7	0.4

System: 1,4-dioxane + water; phases: Liquid, Gas
Fixed: Mole fraction of 1,4-dioxane = 0
Property: Activity coefficient of 1,4-dioxane (Liquid); method: non steady state GLC
Temperature, K	Activity coefficient of 1,4-dioxane	uncertainty
328.15	7.76	0.47
338.15	8.27	0.5

System: 1,4-dioxane + water; phases: Liquid, Gas
Property: Activity coefficient of 1,4-dioxane (Liquid); method: Chromatography
Temperature, K	Mole fraction of 1,4-dioxane	Activity coefficient of 1,4-dioxane	uncertainty
338.15	0	8.22	0.56

System: 1,4-dioxane + water; phases: Liquid, Gas
Property: Activity coefficient of 1,4-dioxane (Liquid); method: rayleigh distillation
Temperature, K	Mole fraction of 1,4-dioxane	Activity coefficient of 1,4-dioxane	uncertainty
348.15	0	8.43	0.51

System: 1,4-dioxane + water; phases: Liquid, Gas
Property: Activity coefficient of 1,4-dioxane (Liquid); method: circulation still
Temperature, K	Mole fraction of 1,4-dioxane	Activity coefficient of 1,4-dioxane	uncertainty
372.5	0	10.3	0.6
