Measured thermophysical data. Thermodynamic properties and molecular interactions of [Bmim][NTf2]/[Bmim][Pf6] and N-Methylaniline binary systems from T = (298.15 to 323.15) K at 0.1 MPa
Source: J. Chem. Thermodyn., 2019, 10.1016/j.jct.2019.06.003
Compound 1: 1-butyl-3-methylimidazolium bis(trifluoromethylsulfonyl)imide, C10H15F6N3O4S2, InChI=1S/C8H15N2.C2F6NO4S2/c1-3-4-5-10-7-6-9(2)8-10;3-1(4,5)14(10,11)9-15(12,13)2(6,7)8/h6-8H,3-5H2,1-2H3;/q+1;-1, purity 99%
Compound 2: 1-butyl-3-methylimidazolium hexafluorophosphate, C8H15F6N2P, InChI=1S/C8H15N2.F6P/c1-3-4-5-10-7-6-9(2)8-10;1-7(2,3,4,5)6/h6-8H,3-5H2,1-2H3;/q+1;-1, purity 99%
Compound 3: N-methylaniline, C7H9N, InChI=1S/C7H9N/c1-8-7-5-3-2-4-6-7/h2-6,8H,1H3, purity 99%

System: 1-butyl-3-methylimidazolium bis(trifluoromethylsulfonyl)imide; phases: Liquid
Fixed: Pressure, kPa = 101.325
Property: Molar heat capacity at constant pressure, J/K/mol (Liquid); method: DSC
Temperature, K	Molar heat capacity at constant pressure, J/K/mol	uncertainty
298.15	567.22	39.5
303.15	569.85	39.69
308.15	572.64	39.88
313.15	575.47	40.08
318.15	578.38	40.28
323.15	581.52	40.5

System: 1-butyl-3-methylimidazolium bis(trifluoromethylsulfonyl)imide; phases: Liquid
Fixed: Pressure, kPa = 100
Property: Mass density, kg/m3 (Liquid); method: Vibrating tube method
Temperature, K	Mass density, kg/m3	uncertainty
298.15	1436.62	1.14
303.15	1431.8	1.14
308.15	1426.98	1.14
313.15	1422.16	1.14
318.15	1417.34	1.14
323.15	1412.52	1.13

System: 1-butyl-3-methylimidazolium bis(trifluoromethylsulfonyl)imide; phases: Liquid
Fixed: Pressure, kPa = 100
Fixed: Frequency, MHz = 3
Property: Speed of sound, m/s (Liquid); method: Single path-length method
Temperature, K	Speed of sound, m/s	uncertainty
298.15	1227.82	1.42
303.15	1216.74	1.42
308.15	1205.81	1.42
313.15	1194.93	1.42
318.15	1184.26	1.42
323.15	1173.64	1.42

System: 1-butyl-3-methylimidazolium bis(trifluoromethylsulfonyl)imide; phases: Liquid
Fixed: Pressure, kPa = 100
Property: Viscosity, Pa*s (Liquid); method: Falling or rolling sphere viscometry
Temperature, K	Viscosity, Pa*s	uncertainty
298.15	0.04924	0.00299
303.15	0.03999	0.00243
308.15	0.03302	0.002
313.15	0.02766	0.00168
318.15	0.02347	0.00142
323.15	0.02015	0.00122

System: 1-butyl-3-methylimidazolium hexafluorophosphate; phases: Liquid
Fixed: Pressure, kPa = 101.325
Property: Molar heat capacity at constant pressure, J/K/mol (Liquid); method: DSC
Temperature, K	Molar heat capacity at constant pressure, J/K/mol	uncertainty
298.15	407.08	28.35
303.15	410.01	28.55
308.15	412.77	28.75
313.15	415.44	28.93
318.15	418.26	29.13
323.15	421.21	29.33

System: 1-butyl-3-methylimidazolium hexafluorophosphate; phases: Liquid
Fixed: Pressure, kPa = 100
Property: Mass density, kg/m3 (Liquid); method: Vibrating tube method
Temperature, K	Mass density, kg/m3	uncertainty
298.15	1367.24	1.12
303.15	1363.08	1.12
308.15	1358.91	1.11
313.15	1354.74	1.11
318.15	1350.58	1.11
323.15	1346.41	1.11

System: 1-butyl-3-methylimidazolium hexafluorophosphate; phases: Liquid
Fixed: Pressure, kPa = 100
Fixed: Frequency, MHz = 3
Property: Speed of sound, m/s (Liquid); method: Single path-length method
Temperature, K	Speed of sound, m/s	uncertainty
298.15	1443.74	1.42
303.15	1431.91	1.42
308.15	1420.15	1.42
313.15	1408.53	1.42
318.15	1397.16	1.42
323.15	1385.92	1.42

System: 1-butyl-3-methylimidazolium hexafluorophosphate; phases: Liquid
Fixed: Pressure, kPa = 100
Property: Viscosity, Pa*s (Liquid); method: Falling or rolling sphere viscometry
Temperature, K	Viscosity, Pa*s	uncertainty
298.15	0.27286	0.02177
303.15	0.2041	0.01515
308.15	0.1557	0.01085
313.15	0.1209	0.00799
318.15	0.09539	0.00605
323.15	0.07637	0.00471

System: N-methylaniline; phases: Liquid
Fixed: Pressure, kPa = 101.325
Property: Molar heat capacity at constant pressure, J/K/mol (Liquid); method: DSC
Temperature, K	Molar heat capacity at constant pressure, J/K/mol	uncertainty
298.15	207.12	14.42
303.15	210.92	14.69
308.15	214.73	14.95
313.15	218.53	15.22
318.15	222.37	15.49
323.15	225.88	15.73

System: N-methylaniline; phases: Liquid
Fixed: Pressure, kPa = 100
Property: Mass density, kg/m3 (Liquid); method: Vibrating tube method
Temperature, K	Mass density, kg/m3	uncertainty
298.15	982.7	1
303.15	978.59	1
308.15	974.47	1
313.15	970.36	1
318.15	966.24	1
323.15	962.13	1

System: N-methylaniline; phases: Liquid
Fixed: Pressure, kPa = 100
Fixed: Frequency, MHz = 3
Property: Speed of sound, m/s (Liquid); method: Single path-length method
Temperature, K	Speed of sound, m/s	uncertainty
298.15	1564.53	1.12
303.15	1546.14	1.12
308.15	1528.32	1.12
313.15	1511.57	1.12
318.15	1492.83	1.12
323.15	1476.26	1.12

System: N-methylaniline; phases: Liquid
Fixed: Pressure, kPa = 100
Property: Viscosity, Pa*s (Liquid); method: Falling or rolling sphere viscometry
Temperature, K	Viscosity, Pa*s	uncertainty
298.15	0.00194	0.00012
303.15	0.00173	0.0001
308.15	0.00155	9e-05
313.15	0.0014	8e-05
318.15	0.00127	8e-05
323.15	0.00116	7e-05

System: 1-butyl-3-methylimidazolium bis(trifluoromethylsulfonyl)imide + N-methylaniline; phases: Liquid
Fixed: Pressure, kPa = 100
Property: Mass density, kg/m3 (Liquid); method: Vibrating tube method
Temperature, K	Mole fraction of 1-butyl-3-methylimidazolium bis(trifluoromethylsulfonyl)imide	Mass density, kg/m3	uncertainty
298.15	0	982.7	1
298.15	0.0958	1085.92	1.48
298.15	0.2004	1171.17	1.55
298.15	0.3061	1237.44	1.61
298.15	0.4074	1287.31	1.65
298.15	0.4939	1321.9	1.69
298.15	0.5905	1352.65	1.72
298.15	0.6834	1377.01	1.75
298.15	0.7988	1402.4	1.78
298.15	0.8751	1415.81	1.8
298.15	1	1436.62	1.14
303.15	0	978.59	1
303.15	0.0958	1081.63	1.48
303.15	0.2004	1166.89	1.55
303.15	0.3061	1233.05	1.6
303.15	0.4074	1282.85	1.65
303.15	0.4939	1317.38	1.68
303.15	0.5905	1348.07	1.72
303.15	0.6834	1372.38	1.75
303.15	0.7988	1397.7	1.78
303.15	0.8751	1411.09	1.8
303.15	1	1431.8	1.14
308.15	0	974.47	1
308.15	0.0958	1077.34	1.47
308.15	0.2004	1162.61	1.54
308.15	0.3061	1228.67	1.6
308.15	0.4074	1278.4	1.65
308.15	0.4939	1312.87	1.68
308.15	0.5905	1343.49	1.71
308.15	0.6834	1367.74	1.74
308.15	0.7988	1393.02	1.77
308.15	0.8751	1406.37	1.79
308.15	1	1426.98	1.14
313.15	0	970.36	1
313.15	0.0958	1073.05	1.47
313.15	0.2004	1158.33	1.54
313.15	0.3061	1224.28	1.6
313.15	0.4074	1273.93	1.64
313.15	0.4939	1308.35	1.68
313.15	0.5905	1338.91	1.71
313.15	0.6834	1363.11	1.74
313.15	0.7988	1388.31	1.77
313.15	0.8751	1401.64	1.79
313.15	1	1422.16	1.14
318.15	0	966.24	1
318.15	0.0958	1068.75	1.47
318.15	0.2004	1154.04	1.54
318.15	0.3061	1219.9	1.59
318.15	0.4074	1269.47	1.64
318.15	0.4939	1303.83	1.67
318.15	0.5905	1334.33	1.7
318.15	0.6834	1358.47	1.73
318.15	0.7988	1383.61	1.76
318.15	0.8751	1396.92	1.78
318.15	1	1417.34	1.14
323.15	0	962.13	1
323.15	0.0958	1064.46	1.47
323.15	0.2004	1149.76	1.53
323.15	0.3061	1215.52	1.59
323.15	0.4074	1265	1.63
323.15	0.4939	1299.32	1.67
323.15	0.5905	1329.74	1.7
323.15	0.6834	1353.84	1.73
323.15	0.7988	1378.91	1.76
323.15	0.8751	1392.22	1.78
323.15	1	1412.52	1.13

System: 1-butyl-3-methylimidazolium bis(trifluoromethylsulfonyl)imide + N-methylaniline; phases: Liquid
Fixed: Pressure, kPa = 100
Fixed: Frequency, MHz = 3
Property: Speed of sound, m/s (Liquid); method: Single path-length method
Temperature, K	Mole fraction of 1-butyl-3-methylimidazolium bis(trifluoromethylsulfonyl)imide	Speed of sound, m/s	uncertainty
298.15	0	1564.53	1.12
298.15	0.0958	1478.42	1.14
298.15	0.2004	1416.51	1.17
298.15	0.3061	1372.13	1.2
298.15	0.4074	1337.57	1.23
298.15	0.4939	1312.13	1.25
298.15	0.5905	1286.84	1.28
298.15	0.6834	1267.94	1.31
298.15	0.7988	1250.42	1.35
298.15	0.8751	1241.01	1.37
298.15	1	1227.82	1.42
303.15	0	1546.14	1.12
303.15	0.0958	1462.92	1.14
303.15	0.2004	1402.23	1.17
303.15	0.3061	1358.77	1.2
303.15	0.4074	1324.73	1.23
303.15	0.4939	1299.72	1.25
303.15	0.5905	1275.18	1.28
303.15	0.6834	1256.51	1.31
303.15	0.7988	1239.12	1.35
303.15	0.8751	1229.83	1.37
303.15	1	1216.74	1.42
308.15	0	1528.32	1.12
308.15	0.0958	1447.91	1.14
308.15	0.2004	1388.04	1.17
308.15	0.3061	1345.42	1.2
308.15	0.4074	1312.14	1.23
308.15	0.4939	1287.63	1.25
308.15	0.5905	1263.37	1.28
308.15	0.6834	1245.02	1.31
308.15	0.7988	1228.13	1.35
308.15	0.8751	1218.92	1.37
308.15	1	1205.81	1.42
313.15	0	1511.57	1.12
313.15	0.0958	1433.72	1.14
313.15	0.2004	1373.84	1.17
313.15	0.3061	1332.51	1.2
313.15	0.4074	1299.92	1.23
313.15	0.4939	1275.74	1.25
313.15	0.5905	1251.82	1.28
313.15	0.6834	1233.81	1.31
313.15	0.7988	1217.19	1.35
313.15	0.8751	1208.18	1.37
313.15	1	1194.93	1.42
318.15	0	1492.83	1.12
318.15	0.0958	1417.62	1.14
318.15	0.2004	1359.91	1.17
318.15	0.3061	1319.43	1.2
318.15	0.4074	1287.44	1.23
318.15	0.4939	1263.62	1.25
318.15	0.5905	1240.01	1.28
318.15	0.6834	1222.45	1.31
318.15	0.7988	1206.13	1.35
318.15	0.8751	1197.12	1.37
318.15	1	1184.26	1.42
323.15	0	1476.26	1.12
323.15	0.0958	1403.23	1.14
323.15	0.2004	1346.52	1.17
323.15	0.3061	1306.74	1.2
323.15	0.4074	1275.55	1.23
323.15	0.4939	1252.02	1.25
323.15	0.5905	1228.64	1.28
323.15	0.6834	1211.52	1.31
323.15	0.7988	1195.25	1.35
323.15	0.8751	1186.42	1.37
323.15	1	1173.64	1.42

System: 1-butyl-3-methylimidazolium bis(trifluoromethylsulfonyl)imide + N-methylaniline; phases: Liquid
Fixed: Pressure, kPa = 100
Property: Viscosity, Pa*s (Liquid); method: Falling or rolling sphere viscometry
Temperature, K	Mole fraction of 1-butyl-3-methylimidazolium bis(trifluoromethylsulfonyl)imide	Viscosity, Pa*s	uncertainty
298.15	0	0.00194	0.00012
298.15	0.0958	0.00378	0.00023
298.15	0.2004	0.00741	0.00045
298.15	0.3061	0.01089	0.00066
298.15	0.4074	0.01538	0.00093
298.15	0.4939	0.01938	0.00117
298.15	0.5905	0.02354	0.00143
298.15	0.6834	0.02871	0.00174
298.15	0.7988	0.03525	0.00214
298.15	0.8751	0.04087	0.00248
298.15	1	0.04924	0.00299
303.15	0	0.00173	0.0001
303.15	0.0958	0.00332	0.0002
303.15	0.2004	0.00634	0.00038
303.15	0.3061	0.0092	0.00056
303.15	0.4074	0.01287	0.00078
303.15	0.4939	0.01631	0.00099
303.15	0.5905	0.01968	0.00119
303.15	0.6834	0.02379	0.00144
303.15	0.7988	0.02903	0.00176
303.15	0.8751	0.03345	0.00203
303.15	1	0.03999	0.00243
308.15	0	0.00155	9e-05
308.15	0.0958	0.00293	0.00018
308.15	0.2004	0.00547	0.00033
308.15	0.3061	0.00787	0.00048
308.15	0.4074	0.01091	0.00066
308.15	0.4939	0.01385	0.00084
308.15	0.5905	0.01665	0.00101
308.15	0.6834	0.02	0.00121
308.15	0.7988	0.02427	0.00147
308.15	0.8751	0.02784	0.00169
308.15	1	0.03302	0.002
313.15	0	0.0014	8e-05
313.15	0.0958	0.00261	0.00016
313.15	0.2004	0.00476	0.00029
313.15	0.3061	0.0068	0.00041
313.15	0.4074	0.00936	0.00057
313.15	0.4939	0.01186	0.00072
313.15	0.5905	0.01424	0.00086
313.15	0.6834	0.01704	0.00103
313.15	0.7988	0.02057	0.00125
313.15	0.8751	0.02351	0.00142
313.15	1	0.02766	0.00168
318.15	0	0.00127	8e-05
318.15	0.0958	0.00234	0.00014
318.15	0.2004	0.00417	0.00025
318.15	0.3061	0.00594	0.00036
318.15	0.4074	0.00812	0.00049
318.15	0.4939	0.01024	0.00062
318.15	0.5905	0.0123	0.00074
318.15	0.6834	0.01469	0.00089
318.15	0.7988	0.01764	0.00107
318.15	0.8751	0.02012	0.00122
318.15	1	0.02347	0.00142
323.15	0	0.00116	7e-05
323.15	0.0958	0.00211	0.00013
323.15	0.2004	0.00368	0.00022
323.15	0.3061	0.00523	0.00032
323.15	0.4074	0.0071	0.00043
323.15	0.4939	0.0089	0.00054
323.15	0.5905	0.01072	0.00065
323.15	0.6834	0.01279	0.00077
323.15	0.7988	0.01529	0.00093
323.15	0.8751	0.01741	0.00106
323.15	1	0.02015	0.00122

System: 1-butyl-3-methylimidazolium hexafluorophosphate + N-methylaniline; phases: Liquid
Fixed: Pressure, kPa = 100
Property: Mass density, kg/m3 (Liquid); method: Vibrating tube method
Temperature, K	Mole fraction of 1-butyl-3-methylimidazolium hexafluorophosphate	Mass density, kg/m3	uncertainty
298.15	0	982.7	1
298.15	0.1076	1064.1	1.46
298.15	0.2146	1128.52	1.52
298.15	0.3053	1174.31	1.56
298.15	0.3985	1214.23	1.59
298.15	0.4805	1243.22	1.62
298.15	0.5766	1272.38	1.65
298.15	0.6793	1299.48	1.68
298.15	0.7871	1325.04	1.71
298.15	0.9009	1348.44	1.74
298.15	1	1367.24	1.12
303.15	0	978.59	1
303.15	0.1076	1060.11	1.46
303.15	0.2146	1124.54	1.51
303.15	0.3053	1170.33	1.55
303.15	0.3985	1210.27	1.59
303.15	0.4805	1239.24	1.61
303.15	0.5766	1268.37	1.64
303.15	0.6793	1295.43	1.67
303.15	0.7871	1320.94	1.7
303.15	0.9009	1344.33	1.73
303.15	1	1363.08	1.12
308.15	0	974.47	1
308.15	0.1076	1056.11	1.46
308.15	0.2146	1120.57	1.51
308.15	0.3053	1166.34	1.55
308.15	0.3985	1206.32	1.58
308.15	0.4805	1235.26	1.61
308.15	0.5766	1264.35	1.64
308.15	0.6793	1291.38	1.67
308.15	0.7871	1316.84	1.7
308.15	0.9009	1340.21	1.73
308.15	1	1358.91	1.11
313.15	0	970.36	1
313.15	0.1076	1052.12	1.46
313.15	0.2146	1116.59	1.51
313.15	0.3053	1162.35	1.55
313.15	0.3985	1202.36	1.58
313.15	0.4805	1231.27	1.61
313.15	0.5766	1260.34	1.64
313.15	0.6793	1287.33	1.67
313.15	0.7871	1312.75	1.7
313.15	0.9009	1336.1	1.73
313.15	1	1354.74	1.11
318.15	0	966.24	1
318.15	0.1076	1048.13	1.45
318.15	0.2146	1112.61	1.5
318.15	0.3053	1158.36	1.54
318.15	0.3985	1198.4	1.6
318.15	0.4805	1227.29	1.6
318.15	0.5766	1256.33	1.63
318.15	0.6793	1283.28	1.66
318.15	0.7871	1308.65	1.69
318.15	0.9009	1331.99	1.72
318.15	1	1350.58	1.11
323.15	0	962.13	1
323.15	0.1076	1044.13	1.45
323.15	0.2146	1108.64	1.5
323.15	0.3053	1154.38	1.54
323.15	0.3985	1194.44	1.57
323.15	0.4805	1223.3	1.6
323.15	0.5766	1252.31	1.63
323.15	0.6793	1279.23	1.66
323.15	0.7871	1304.56	1.69
323.15	0.9009	1327.88	1.72
323.15	1	1346.41	1.11

System: 1-butyl-3-methylimidazolium hexafluorophosphate + N-methylaniline; phases: Liquid
Fixed: Pressure, kPa = 100
Fixed: Frequency, MHz = 3
Property: Speed of sound, m/s (Liquid); method: Single path-length method
Temperature, K	Mole fraction of 1-butyl-3-methylimidazolium hexafluorophosphate	Speed of sound, m/s	uncertainty
298.15	0	1564.53	1.12
298.15	0.1076	1558.72	1.15
298.15	0.2146	1549.85	1.17
298.15	0.3053	1538.23	1.2
298.15	0.3985	1516.18	1.22
298.15	0.4805	1497.12	1.25
298.15	0.5766	1481.91	1.28
298.15	0.6793	1468.85	1.31
298.15	0.7871	1457.92	1.34
298.15	0.9009	1447.26	1.38
298.15	1	1443.74	1.42
303.15	0	1546.14	1.12
303.15	0.1076	1542.21	1.15
303.15	0.2146	1534.33	1.17
303.15	0.3053	1523.45	1.2
303.15	0.3985	1502.32	1.22
303.15	0.4805	1484.17	1.25
303.15	0.5766	1469.42	1.28
303.15	0.6793	1456.71	1.31
303.15	0.7871	1445.92	1.34
303.15	0.9009	1435.43	1.38
303.15	1	1431.91	1.42
308.15	0	1528.32	1.12
308.15	0.1076	1525.95	1.15
308.15	0.2146	1518.92	1.17
308.15	0.3053	1508.81	1.2
308.15	0.3985	1488.93	1.22
308.15	0.4805	1471.12	1.25
308.15	0.5766	1456.74	1.28
308.15	0.6793	1444.42	1.31
308.15	0.7871	1433.97	1.34
308.15	0.9009	1423.55	1.38
308.15	1	1420.15	1.42
313.15	0	1511.57	1.12
313.15	0.1076	1506.78	1.15
313.15	0.2146	1500.83	1.17
313.15	0.3053	1492.66	1.2
313.15	0.3985	1475.51	1.22
313.15	0.4805	1458.03	1.25
313.15	0.5766	1444.22	1.28
313.15	0.6793	1432.39	1.31
313.15	0.7871	1422.21	1.34
313.15	0.9009	1411.94	1.38
313.15	1	1408.53	1.42
318.15	0	1492.83	1.12
318.15	0.1076	1491.12	1.15
318.15	0.2146	1488.23	1.17
318.15	0.3053	1479.82	1.2
318.15	0.3985	1462.14	1.22
318.15	0.4805	1445.12	1.25
318.15	0.5766	1431.86	1.28
318.15	0.6793	1420.33	1.31
318.15	0.7871	1410.42	1.34
318.15	0.9009	1400.57	1.38
318.15	1	1397.16	1.42
323.15	0	1476.26	1.12
323.15	0.1076	1473.92	1.15
323.15	0.2146	1471.75	1.17
323.15	0.3053	1466.14	1.2
323.15	0.3985	1448.83	1.22
323.15	0.4805	1432.32	1.25
323.15	0.5766	1419.67	1.28
323.15	0.6793	1408.42	1.31
323.15	0.7871	1398.92	1.34
323.15	0.9009	1389.24	1.38
323.15	1	1385.92	1.42

System: 1-butyl-3-methylimidazolium hexafluorophosphate + N-methylaniline; phases: Liquid
Fixed: Pressure, kPa = 100
Property: Viscosity, Pa*s (Liquid); method: Falling or rolling sphere viscometry
Temperature, K	Mole fraction of 1-butyl-3-methylimidazolium hexafluorophosphate	Viscosity, Pa*s	uncertainty
298.15	0	0.00194	0.00012
298.15	0.1076	0.00542	0.00033
298.15	0.2146	0.01147	0.00069
298.15	0.3053	0.02249	0.00136
298.15	0.3985	0.03719	0.00225
298.15	0.4805	0.05352	0.00322
298.15	0.5766	0.07145	0.00437
298.15	0.6793	0.09521	0.00603
298.15	0.7871	0.12678	0.00845
298.15	0.9009	0.18723	0.01361
298.15	1	0.27286	0.02177
303.15	0	0.00173	0.0001
303.15	0.1076	0.00431	0.00026
303.15	0.2146	0.00924	0.00056
303.15	0.3053	0.01665	0.00101
303.15	0.3985	0.0272	0.00165
303.15	0.4805	0.03953	0.00239
303.15	0.5766	0.05354	0.00322
303.15	0.6793	0.07421	0.00456
303.15	0.7871	0.09609	0.0061
303.15	0.9009	0.14054	0.00957
303.15	1	0.2041	0.01515
308.15	0	0.00155	9e-05
308.15	0.1076	0.00352	0.00021
308.15	0.2146	0.00754	0.00046
308.15	0.3053	0.01257	0.00076
308.15	0.3985	0.02033	0.00123
308.15	0.4805	0.02979	0.0018
308.15	0.5766	0.04088	0.00248
308.15	0.6793	0.05397	0.00325
308.15	0.7871	0.07245	0.00444
308.15	0.9009	0.10754	0.00696
308.15	1	0.1557	0.01085
313.15	0	0.0014	8e-05
313.15	0.1076	0.00295	0.00018
313.15	0.2146	0.00601	0.00036
313.15	0.3053	0.00966	0.00058
313.15	0.3985	0.01549	0.00094
313.15	0.4805	0.02287	0.00138
313.15	0.5766	0.03176	0.00192
313.15	0.6793	0.04271	0.00259
313.15	0.7871	0.05732	0.00346
313.15	0.9009	0.08373	0.00521
313.15	1	0.1209	0.00799
318.15	0	0.00127	8e-05
318.15	0.1076	0.0025	0.00015
318.15	0.2146	0.005	0.0003
318.15	0.3053	0.00784	0.00047
318.15	0.3985	0.01202	0.00073
318.15	0.4805	0.01773	0.00107
318.15	0.5766	0.02505	0.00152
318.15	0.6793	0.03426	0.00208
318.15	0.7871	0.04602	0.00279
318.15	0.9009	0.06623	0.00403
318.15	1	0.09539	0.00605
323.15	0	0.00116	7e-05
323.15	0.1076	0.00207	0.00013
323.15	0.2146	0.00402	0.00024
323.15	0.3053	0.00632	0.00038
323.15	0.3985	0.00948	0.00057
323.15	0.4805	0.01362	0.00082
323.15	0.5766	0.01975	0.0012
323.15	0.6793	0.02782	0.00169
323.15	0.7871	0.03745	0.00227
323.15	0.9009	0.05314	0.0032
323.15	1	0.07637	0.00471
