Measured thermophysical data. Thermodynamic properties of solid electrolyte Li7La3Zr2O12
Source: J. Chem. Thermodyn., 2019, 10.1016/j.jct.2018.08.009
Compound 1: lanthanum lithium zirconium oxide (La3Li7Zr2O12), La3Li7O12Zr2, InChI=1S/3La.7Li.12O.2Zr/q3*+3;7*+1;12*-2;2*+4

System: lanthanum lithium zirconium oxide (La3Li7Zr2O12); phases: Crystal
Fixed: Pressure, kPa = 101.325
Property: Molar heat capacity at constant pressure, J/K/mol (Crystal); method: DSC
Temperature, K	Molar heat capacity at constant pressure, J/K/mol	uncertainty
318.65	479.4939953	59.6218453
323.65	471.9362966	58.782101
328.65	472.7760409	58.782101
333.65	476.1350181	59.6218453
338.65	477.8145067	59.6218453
343.65	481.1734839	60.4615896
348.65	484.5324611	60.4615896
353.65	486.2119497	60.4615896
358.65	489.5709269	61.3013339
363.65	492.0901598	61.3013339
368.65	494.6093927	62.1410782
373.65	497.1286256	62.1410782
378.65	499.6478585	62.1410782
383.65	502.1670914	62.9808225
388.65	505.5260686	62.9808225
393.65	510.5645344	63.8205668
398.65	514.7632559	64.6603111
403.65	517.2824888	64.6603111
408.65	519.8017217	64.6603111
413.65	521.4812103	65.5000554
418.65	523.1606989	65.5000554
423.65	525.6799318	65.5000554
428.65	526.5196761	65.5000554
433.65	528.1991647	66.3397997
438.65	529.8786533	66.3397997
443.65	532.3978862	66.3397997
448.65	534.0773748	67.179544
453.65	534.9171191	67.179544
458.65	537.436352	67.179544
463.65	538.2760963	67.179544
468.65	540.7953292	68.0192883
473.65	541.6350735	68.0192883
478.65	543.3145621	68.0192883
483.65	544.1543064	68.0192883
488.65	545.833795	68.0192883
493.65	546.6735393	68.0192883
498.65	547.5132836	68.8590326
503.65	549.1927722	68.8590326
508.65	550.0325165	68.8590326
513.65	550.8722608	68.8590326
518.65	551.7120051	68.8590326
523.65	552.5517494	68.8590326
528.65	553.3914937	68.8590326
533.65	553.3914937	68.8590326
538.65	555.0709823	69.6987769
543.65	555.9107266	69.6987769
548.65	556.7504709	69.6987769
553.65	556.7504709	69.6987769
558.65	556.7504709	69.6987769
563.65	558.4299595	69.6987769
568.65	559.2697038	69.6987769
573.65	560.9491924	70.5385212
578.65	560.1094481	69.6987769
583.65	561.7889367	70.5385212
588.65	562.628681	70.5385212
593.65	564.3081696	70.5385212
598.65	565.1479139	70.5385212
603.65	565.9876582	70.5385212
608.65	567.6671468	71.3782655
613.65	567.6671468	71.3782655
618.65	571.026124	71.3782655
623.65	571.8658683	71.3782655
628.65	572.7056126	71.3782655
633.65	575.2248455	72.2180098
638.65	576.9043341	72.2180098
643.65	579.423567	72.2180098
648.65	582.7825442	73.0577541
653.65	583.6222885	73.0577541
658.65	585.3017771	73.0577541
663.65	587.82101	73.8974984
668.65	591.1799872	73.8974984
673.65	592.8594758	73.8974984
678.65	594.5389644	74.7372427
683.65	597.8979416	74.7372427
688.65	601.2569188	75.576987
693.65	602.9364074	75.576987
698.65	606.2953846	75.576987
703.65	606.2953846	75.576987
708.65	610.4941061	76.4167313
713.65	608.8146175	76.4167313
718.65	608.8146175	76.4167313
723.65	607.9748732	76.4167313
728.65	607.1351289	75.576987
733.65	607.9748732	76.4167313
738.65	606.2953846	75.576987
743.65	607.1351289	75.576987
748.65	608.8146175	76.4167313
753.65	607.9748732	76.4167313
758.65	607.9748732	76.4167313
763.65	608.8146175	76.4167313
768.65	608.8146175	76.4167313
773.65	609.6543618	76.4167313
778.65	611.3338504	76.4167313
783.65	612.1735947	76.4167313
788.65	615.5325719	77.2564756
793.65	613.8530833	76.4167313
798.65	615.5325719	77.2564756
803.65	617.2120605	77.2564756
808.65	618.8915491	77.2564756
813.65	620.5710377	77.2564756
