Measured thermophysical data. Densities and derived thermodynamic properties of binary mixtures of diethylcarbonate, acetophenone, and 1-hexanol at T = (293.15 to 323.15) K for the liquid region and at ambient pressure
Source: J. Chem. Thermodyn., 2007, 10.1016/j.jct.2007.02.004
Compound 1: diethyl carbonate, C5H10O3, InChI=1S/C5H10O3/c1-3-7-5(6)8-4-2/h3-4H2,1-2H3, purity 99.5%
Compound 2: acetophenone, C8H8O, InChI=1S/C8H8O/c1-7(9)8-5-3-2-4-6-8/h2-6H,1H3, purity 99%
Compound 3: hexan-1-ol, C6H14O, InChI=1S/C6H14O/c1-2-3-4-5-6-7/h7H,2-6H2,1H3, purity 99%

System: diethyl carbonate; phases: Liquid
Property: Refractive index (Na D-line) (Liquid); method: Standard Abbe refractometry
Temperature, K	Pressure, kPa	Refractive index (Na D-line)	uncertainty
293.15	101.325	1.3845	0.0007

System: diethyl carbonate; phases: Liquid
Property: Mass density, kg/m3 (Liquid); method: VIBTUB:UFactor:4
Temperature, K	Pressure, kPa	Mass density, kg/m3	uncertainty
293.15	101.325	974.65	0.28

System: acetophenone; phases: Liquid
Property: Refractive index (Na D-line) (Liquid); method: Standard Abbe refractometry
Temperature, K	Pressure, kPa	Refractive index (Na D-line)	uncertainty
293.15	101.325	1.5336	0.0008

System: acetophenone; phases: Liquid
Property: Mass density, kg/m3 (Liquid); method: VIBTUB:UFactor:6
Temperature, K	Pressure, kPa	Mass density, kg/m3	uncertainty
293.15	101.325	1027.93	0.6

System: hexan-1-ol; phases: Liquid
Property: Refractive index (Na D-line) (Liquid); method: Standard Abbe refractometry
Temperature, K	Pressure, kPa	Refractive index (Na D-line)	uncertainty
293.15	101.325	1.4178	0.0008

System: hexan-1-ol; phases: Liquid
Property: Mass density, kg/m3 (Liquid); method: VIBTUB:UFactor:6
Temperature, K	Pressure, kPa	Mass density, kg/m3	uncertainty
293.15	101.325	818.84	0.97

System: acetophenone + diethyl carbonate; phases: Liquid
Fixed: Pressure, kPa = 101
Property: Mass density, kg/m3 (Liquid); method: VIBTUB:UFactor:6
Temperature, K	Mole fraction of diethyl carbonate	Mass density, kg/m3	uncertainty
293.15	0.0511	1025.44	0.44
293.15	0.1014	1023.08	0.43
293.15	0.1501	1020.74	0.41
293.15	0.1996	1018.43	0.4
293.15	0.2465	1016.19	0.38
293.15	0.3041	1013.28	0.36
293.15	0.3467	1011.14	0.35
293.15	0.4001	1008.46	0.34
293.15	0.4507	1005.87	0.32
293.15	0.4888	1003.88	0.31
293.15	0.5506	1000.64	0.29
293.15	0.6038	997.77	0.29
293.15	0.6498	995.25	0.29
293.15	0.7104	991.92	0.29
293.15	0.7513	989.53	0.29
293.15	0.8078	986.29	0.29
293.15	0.8522	983.66	0.29
293.15	0.8993	980.83	0.29
293.15	0.9488	977.82	0.29
303.15	0.0511	1016.4	0.42
303.15	0.1014	1014.09	0.4
303.15	0.1501	1011.77	0.39
303.15	0.1996	1009.35	0.37
303.15	0.2465	1007.04	0.36
303.15	0.3041	1004.02	0.34
303.15	0.3467	1001.78	0.33
303.15	0.4001	998.99	0.32
303.15	0.4507	996.27	0.31
303.15	0.4888	994.18	0.31
303.15	0.5506	990.73	0.31
303.15	0.6038	987.73	0.31
303.15	0.6498	985.06	0.31
303.15	0.7104	981.54	0.31
303.15	0.7513	979.05	0.31
303.15	0.8078	975.68	0.31
303.15	0.8522	972.91	0.31
303.15	0.8993	969.91	0.31
303.15	0.9488	966.78	0.32
313.15	0.0511	1007.58	0.39
313.15	0.1014	1005.19	0.38
313.15	0.1501	1002.73	0.36
313.15	0.1996	1000.2	0.35
313.15	0.2465	997.78	0.34
313.15	0.3041	994.63	0.34
313.15	0.3467	992.31	0.34
313.15	0.4001	989.35	0.34
313.15	0.4507	986.55	0.33
313.15	0.4888	984.35	0.33
313.15	0.5506	980.71	0.33
313.15	0.6038	977.48	0.33
313.15	0.6498	974.69	0.33
313.15	0.7104	971.04	0.33
313.15	0.7513	968.47	0.33
313.15	0.8078	964.89	0.33
313.15	0.8522	961.99	0.34
313.15	0.8993	958.99	0.34
313.15	0.9488	955.63	0.34
323.15	0.0511	998.79	0.38
323.15	0.1014	996.27	0.37
323.15	0.1501	993.68	0.37
323.15	0.1996	991.08	0.36
323.15	0.2465	988.56	0.36
323.15	0.3041	985.24	0.36
323.15	0.3467	982.8	0.36
323.15	0.4001	979.74	0.36
323.15	0.4507	976.77	0.35
323.15	0.4888	974.49	0.35
323.15	0.5506	970.76	0.35
323.15	0.6038	967.47	0.35
323.15	0.6498	964.54	0.35
323.15	0.7104	960.63	0.35
323.15	0.7513	957.86	0.36
323.15	0.8078	954.13	0.36
323.15	0.8522	951.07	0.36
323.15	0.8993	947.76	0.36
323.15	0.9488	944.32	0.37

System: diethyl carbonate + hexan-1-ol; phases: Liquid
Fixed: Pressure, kPa = 101
Property: Mass density, kg/m3 (Liquid); method: VIBTUB:UFactor:6
Temperature, K	Mole fraction of diethyl carbonate	Mass density, kg/m3	uncertainty
293.15	0.0502	825.96	0.72
293.15	0.1123	834.86	0.7
293.15	0.1499	840.29	0.68
293.15	0.2103	849.1	0.65
293.15	0.2508	855.05	0.64
293.15	0.3121	864.19	0.61
293.15	0.3576	871.02	0.59
293.15	0.4113	879.15	0.57
293.15	0.4632	887.08	0.55
293.15	0.5111	894.51	0.53
293.15	0.552	900.88	0.51
293.15	0.6008	908.59	0.48
293.15	0.6498	916.39	0.46
293.15	0.7108	926.19	0.43
293.15	0.7554	933.45	0.41
293.15	0.8112	942.65	0.38
293.15	0.8501	949.13	0.37
293.15	0.9002	957.5	0.34
293.15	0.9555	966.89	0.31
303.15	0.0502	818.55	0.74
303.15	0.1123	827.16	0.71
303.15	0.1499	832.48	0.7
303.15	0.2103	841.04	0.67
303.15	0.2508	846.79	0.65
303.15	0.3121	855.69	0.63
303.15	0.3576	862.23	0.61
303.15	0.4113	870.21	0.59
303.15	0.4632	877.88	0.57
303.15	0.5111	885.13	0.55
303.15	0.552	891.35	0.53
303.15	0.6008	898.87	0.51
303.15	0.6498	906.42	0.48
303.15	0.7108	915.93	0.45
303.15	0.7554	923.08	0.43
303.15	0.8112	932.03	0.41
303.15	0.8501	938.29	0.39
303.15	0.9002	946.57	0.37
303.15	0.9555	955.77	0.34
313.15	0.0502	811.04	0.75
313.15	0.1123	819.37	0.73
313.15	0.1499	824.54	0.71
313.15	0.2103	832.78	0.69
313.15	0.2508	838.35	0.67
313.15	0.3121	846.97	0.65
313.15	0.3576	853.42	0.63
313.15	0.4113	861.12	0.61
313.15	0.4632	868.59	0.59
313.15	0.5111	875.61	0.57
313.15	0.552	881.55	0.55
313.15	0.6008	888.91	0.53
313.15	0.6498	896.35	0.5
313.15	0.7108	905.65	0.48
313.15	0.7554	912.55	0.46
313.15	0.8112	921.16	0.43
313.15	0.8501	927.49	0.41
313.15	0.9002	935.57	0.39
313.15	0.9555	944.49	0.36
323.15	0.0502	803.29	0.77
323.15	0.1123	811.3	0.74
323.15	0.1499	816.2	0.73
323.15	0.2103	824.2	0.71
323.15	0.2508	829.57	0.69
323.15	0.3121	837.88	0.67
323.15	0.3576	844.05	0.65
323.15	0.4113	851.48	0.63
323.15	0.4632	858.73	0.61
323.15	0.5111	865.59	0.59
323.15	0.552	871.51	0.57
323.15	0.6008	878.65	0.55
323.15	0.6498	885.85	0.53
323.15	0.7108	894.96	0.5
323.15	0.7554	901.77	0.48
323.15	0.8112	910.41	0.46
323.15	0.8501	916.42	0.44
323.15	0.9002	924.3	0.42
323.15	0.9555	933.24	0.39

System: acetophenone + hexan-1-ol; phases: Liquid
Fixed: Pressure, kPa = 101
Property: Mass density, kg/m3 (Liquid); method: VIBTUB:UFactor:6
Temperature, K	Mole fraction of acetophenone	Mass density, kg/m3	uncertainty
293.15	0.0498	828.67	0.72
293.15	0.1009	838.84	0.7
293.15	0.1517	848.99	0.68
293.15	0.2106	860.83	0.66
293.15	0.2474	868.27	0.65
293.15	0.3028	879.54	0.62
293.15	0.3426	887.68	0.61
293.15	0.3978	899.04	0.59
293.15	0.4512	910.1	0.57
293.15	0.4985	919.95	0.55
293.15	0.5526	931.29	0.53
293.15	0.6071	942.79	0.5
293.15	0.6491	951.7	0.48
293.15	0.7101	964.72	0.46
293.15	0.7485	972.96	0.44
293.15	0.8019	984.49	0.42
293.15	0.8521	995.4	0.39
293.15	0.9045	1006.85	0.4
293.15	0.9554	1018.05	0.43
303.15	0.0498	821.42	0.74
303.15	0.1009	831.49	0.72
303.15	0.1517	841.56	0.7
303.15	0.2106	853.32	0.68
303.15	0.2474	860.71	0.66
303.15	0.3028	871.9	0.64
303.15	0.3426	879.99	0.62
303.15	0.3978	891.28	0.6
303.15	0.4512	902.26	0.58
303.15	0.4985	912.05	0.57
303.15	0.5526	923.31	0.54
303.15	0.6071	934.73	0.52
303.15	0.6491	943.59	0.5
303.15	0.7101	956.53	0.47
303.15	0.7485	964.73	0.46
303.15	0.8019	976.21	0.43
303.15	0.8521	987.06	0.41
303.15	0.9045	998.46	0.39
303.15	0.9554	1009.61	0.41
313.15	0.0498	813.97	0.75
313.15	0.1009	823.85	0.73
313.15	0.1517	833.75	0.71
313.15	0.2106	845.32	0.69
313.15	0.2474	852.58	0.68
313.15	0.3028	863.61	0.66
313.15	0.3426	871.57	0.64
313.15	0.3978	882.7	0.62
313.15	0.4512	893.55	0.6
313.15	0.4985	903.23	0.58
313.15	0.5526	914.38	0.56
313.15	0.6071	925.7	0.54
313.15	0.6491	934.49	0.52
313.15	0.7101	947.35	0.49
313.15	0.7485	955.5	0.47
313.15	0.8019	966.9	0.45
313.15	0.8521	977.72	0.43
313.15	0.9045	989.09	0.41
313.15	0.9554	1000.23	0.38
323.15	0.0498	806.47	0.77
323.15	0.1009	816.28	0.75
323.15	0.1517	826.11	0.73
323.15	0.2106	837.59	0.71
323.15	0.2474	844.8	0.69
323.15	0.3028	855.74	0.67
323.15	0.3426	863.65	0.66
323.15	0.3978	874.71	0.64
323.15	0.4512	885.48	0.62
323.15	0.4985	895.1	0.6
323.15	0.5526	906.19	0.58
323.15	0.6071	917.44	0.55
323.15	0.6491	926.17	0.53
323.15	0.7101	938.95	0.51
323.15	0.7485	947.06	0.49
323.15	0.8019	958.4	0.47
323.15	0.8521	969.16	0.45
323.15	0.9045	980.48	0.42
323.15	0.9554	991.56	0.4
