Measured thermophysical data. Influence of nanofluid instability on thermodynamic properties near the critical point
Source: J. Chem. Thermodyn., 2019, 10.1016/j.jct.2018.12.009
Compound 1: propan-2-ol, C3H8O, InChI=1S/C3H8O/c1-3(2)4/h3-4H,1-2H3, purity 99.8%

System: propan-2-ol; phases: Liquid
Fixed: Mass density, kg/m3 = 329.2
Property: Molar heat capacity at constant volume, J/K/mol (Liquid); method: ADIACNV
Temperature, K	Molar heat capacity at constant volume, J/K/mol	uncertainty
508.16	218.1449226	10.93729364
508.18	208.5297194	10.15605838
508.28	195.9097652	9.49501316
508.37	187.7969375	8.89406296
508.47	185.6936118	8.7137779
508.57	186.8955122	8.7137779
508.67	192.9050142	8.95415798
508.76	186.8955122	8.65368288
509.35	179.56391976	8.35320778
509.45	180.16486996	8.35320778
509.55	178.84277952	8.29311276
509.64	179.9845849	8.35320778
509.79	177.46059406	8.23301774
509.99	177.280309	8.23301774
510.14	178.12163928	8.23301774
510.23	177.94135422	8.23301774
510.33	176.6793588	8.17292272
510.48	178.60239944	8.29311276
516.9	176.73945382	8.23301774
516.99	176.79954884	8.23301774
517.08	176.79954884	8.23301774
517.27	172.1722323	7.99263766
521.87	173.13375262	8.05273268
521.96	168.5665311	7.8123526
522.14	173.19384764	8.05273268
522.33	168.62662612	7.8123526
522.42	171.63137712	7.93254264
522.51	173.85489286	8.05273268
522.6	175.1769833	8.17292272
530.01	168.38624604	7.8123526
532.04	168.266056	7.8123526
535.11	168.32615102	7.8123526
540.06	168.38624604	7.8123526
545.13	168.62662612	7.8123526
560.04	169.7684315	7.87244762
570.09	173.85489286	8.05273268
580.16	174.21546298	8.05273268
590.07	176.3788837	8.17292272
600.1	178.60239944	8.29311276

System: propan-2-ol; phases: Liquid, Gas
Property: Vapor or sublimation pressure, kPa (Liquid); method: Closed cell (Static) method
Temperature, K	Vapor or sublimation pressure, kPa	uncertainty
301.24	7	1
314.26	15	1
342.03	57	1
369.13	169	2
391.5	360	4
416.73	736	7
442.14	1368	14
463.56	2140	22
468.1	2330	24
482.72	3090	31
501.08	4226	43
504.03	4436	45
506.61	4648	47
505.06	4521	46
506.96	4708	48
314.29	15	1
314.52	15	1
314.8	16	1
315.05	16	1
315.3	16	1
315.42	16	1
315.61	16	1
315.8	17	1
341.91	57	1
342.08	57	1
342.2	57	1
342.32	58	1
342.49	58	1
342.67	58	1
342.79	59	1
342.91	59	1
343.03	59	1
369.05	169	2
369.16	169	2
369.28	170	2
369.39	171	2
369.5	171	2
369.67	172	2
369.84	173	2
369.96	174	2
370.07	175	2
391.32	358	4
391.53	360	4
391.54	360	4
391.65	362	4
391.76	363	4
391.87	364	4
391.98	366	4
392.09	367	4
392.2	368	4
416.55	732	7
416.65	734	7
416.76	736	7
416.86	739	8
416.97	741	8
417.08	743	8
417.18	745	8
417.29	747	8
417.4	749	8
417.5	756	8
442.12	1367	14
442.23	1371	14
442.33	1374	14
442.43	1377	14
442.54	1381	14
442.64	1383	14
442.74	1386	14
442.85	1389	14
463.48	2136	22
463.58	2141	22
463.78	2149	22
463.83	2152	22
463.97	2158	22
464.18	2166	22
464.27	2171	22
464.42	2177	22
464.97	2201	22
465.27	2213	22
465.34	2217	22
482.51	3081	31
482.6	3085	31
482.7	3089	31
482.8	3093	31
482.89	3098	31
482.99	3102	31
483.09	3106	31
483.18	3110	31
500.85	4213	43
500.95	4219	43
501.04	4224	43
501.14	4229	43
501.23	4235	43
501.33	4240	43
501.42	4245	43
501.53	4251	43
501.62	4256	43
501.81	4267	43
501.9	4272	43
503.92	4428	45
504.02	4438	45
504.11	4366	45
504.31	4456	45
504.5	4470	45
504.59	4477	45
504.98	4504	46
505.08	4522	46
505.27	4536	46
505.37	4544	46
506.43	4667	47
506.53	4675	47
506.62	4682	47
506.72	4690	47
506.82	4697	48
506.97	4709	48
507.11	4720	48
507.2	4727	48
507.3	4735	48
507.4	4743	48
507.5	4750	48
507.59	4757	48
507.69	4765	48
507.79	4773	48
507.89	4781	48
508.04	4793	49
508.16	4803	49

System: propan-2-ol; phases: Fluid (supercritical or subcritical phases)
Property: Mass density, kg/m3 (Fluid (supercritical or subcritical phases)); method: ISOCHOR
Temperature, K	Pressure, kPa	Mass density, kg/m3	uncertainty
509.5	5095	329.2	0.7
510.93	5271	329.2	0.7
508.16	4803	329.2	0.7
508.18	4804	329.2	0.7
508.28	4813	329.2	0.7
508.37	4822	329.2	0.7
508.47	4831	329.2	0.7
508.57	4840	329.2	0.7
508.67	4849	329.2	0.7
508.76	4858	329.2	0.7
509.35	4911	329.2	0.7
509.45	4920	329.2	0.7
509.55	4929	329.2	0.7
509.64	4938	329.2	0.7
509.79	4951	329.2	0.7
509.99	4967	329.2	0.7
510.14	4981	329.2	0.7
510.23	4990	329.2	0.7
510.33	4999	329.2	0.7
510.48	5012	329.2	0.7
516.9	5603	329.2	0.7
516.99	5611	329.2	0.7
517.08	5619	329.2	0.7
517.27	5637	329.2	0.7
521.87	6056	329.2	0.7
521.96	6064	329.2	0.7
522.14	6080	329.2	0.7
522.33	6397	329.2	0.7
522.42	6405	329.2	0.7
522.51	6414	329.2	0.7
522.6	6495	329.2	0.7

System: propan-2-ol; phases: Fluid (supercritical or subcritical phases)
Fixed: Mass density, kg/m3 = 329.2
Property: Molar heat capacity at constant volume, J/K/mol (Fluid (supercritical or subcritical phases)); method: ADIACNV
Temperature, K	Molar heat capacity at constant volume, J/K/mol	uncertainty
314.29	177.46059406	8.23301774
314.52	182.80905084	8.47339782
314.8	184.67199646	8.53349284
315.05	181.4869604	8.4133028
315.3	177.8812592	8.23301774
315.42	176.25869366	8.17292272
315.61	174.8765082	8.1128277
315.8	178.60239944	8.29311276
341.91	203.1211676	9.43491814
342.08	202.2197423	9.37482312
342.2	203.54183274	9.43491814
342.32	207.26772398	9.6152032
342.49	201.318317	9.3147281
342.67	203.7221178	9.43491814
342.79	202.76059748	9.37482312
342.91	201.6187921	9.37482312
343.03	204.08268792	9.49501316
369.05	225.89718018	10.45653348
369.16	220.00786822	10.2161534
369.28	231.30573198	10.75700858
369.39	222.83233416	10.33634344
369.5	225.9572752	10.45653348
369.67	223.5534744	10.39643846
369.84	221.7506238	10.27624842
369.96	221.02948356	10.27624842
370.07	219.46701304	10.2161534
391.32	243.384831	11.29786376
391.53	248.85347782	11.53824384
391.54	243.44492602	11.29786376
391.65	246.93043718	11.47814882
391.76	235.69266844	10.93729364
391.87	241.16131526	11.17767372
391.98	242.54350072	11.23776874
392.09	244.10597124	11.29786376
392.2	243.20454594	11.29786376
416.55	258.82925114	12.019004
416.65	260.09124656	12.07909902
416.76	252.51927404	11.7185289
416.86	257.98792086	11.95890898
416.97	255.76440512	11.83871894
417.08	261.47343202	12.13919404
417.18	252.93993918	11.7185289
417.29	253.84136448	11.77862392
417.4	259.73067644	12.07909902
417.5	261.17295692	12.13919404
442.12	262.9157125	12.19928906
442.23	265.86036848	12.3194791
442.33	272.5309157	12.6199542
442.43	265.68008342	12.3194791
442.54	266.76179378	12.37957412
442.64	267.60312406	12.43966914
442.74	270.1271149	12.55985918
442.85	265.86036848	12.3194791
463.48	270.30739996	12.55985918
463.58	271.6294904	12.6199542
463.78	270.30739996	12.55985918
463.83	274.6342414	12.74014424
463.97	279.441843	12.98052432
464.18	278.72070276	12.9204293
464.27	280.16298324	12.98052432
464.42	278.2399426	12.9204293
464.97	277.3385173	12.86033428
465.27	272.77129578	12.68004922
465.34	278.5404177	12.9204293
482.51	288.09552588	13.34109444
482.6	289.89837648	13.46128448
482.7	288.456096	13.40118946
482.8	287.73495576	13.34109444
482.89	288.33590596	13.40118946
482.99	292.00170218	13.5213795
483.09	287.19410058	13.34109444
483.18	291.64113206	13.5213795
500.85	316.94113548	14.7232799
500.95	311.35229862	14.4228048
501.04	310.87153846	14.4228048
501.14	313.93638448	14.54299484
501.23	314.05657452	14.54299484
501.33	310.75134842	14.4228048
501.42	316.76085042	14.66318488
501.53	318.08294086	14.7232799
501.62	320.48674166	14.84346994
501.81	316.64066038	14.66318488
501.9	317.06132552	14.7232799
503.92	322.04921218	14.96365998
504.02	325.7150084	15.08385002
504.11	323.3112076	15.023755
504.31	318.86417612	14.78337492
504.5	325.7150084	15.08385002
504.59	319.64541138	14.84346994
504.98	328.35918928	15.20404006
505.08	326.9169088	15.14394504
505.27	325.95538848	15.14394504
505.37	325.35443828	15.08385002
506.43	328.05871418	15.20404006
506.53	330.64280004	15.3242301
506.62	335.9311618	15.56461018
506.72	332.68603072	15.44442014
506.82	332.26536558	15.38432512
506.97	330.2221349	15.3242301
507.11	342.541614	15.9251803
507.2	339.59695802	15.74489524
507.3	339.41667296	15.74489524
507.4	335.9311618	15.6247052
507.5	343.02237416	15.9251803
507.59	338.9359128	15.74489524
507.69	354.8610931	16.46603548
507.79	347.9501658	16.16556038
507.89	352.7577674	16.40594046
508.04	358.1663192	16.64632054
508.16	363.75515606	16.94679564
