Measured thermophysical data. Separation of azeotropic mixture (2, 2, 3, 3-Tetrafluoro-1-propanol + water) by extractive distillation: Entrainers selection and vapour-liquid equilibrium measurements
Source: J. Chem. Thermodyn., 2019, 10.1016/j.jct.2019.06.026
Compound 1: 2,2,3,3-tetrafluoro-1-propanol, C3H4F4O, InChI=1S/C3H4F4O/c4-2(5)3(6,7)1-8/h2,8H,1H2, purity 99.5%
Compound 2: N-methylformamide, C2H5NO, InChI=1S/C2H5NO/c1-3-2-4/h2H,1H3,(H,3,4), purity 99.5%
Compound 3: dimethylformamide, C3H7NO, InChI=1S/C3H7NO/c1-4(2)3-5/h3H,1-2H3, purity 99.5%
Compound 4: N-methylpyrrolidone, C5H9NO, InChI=1S/C5H9NO/c1-6-4-2-3-5(6)7/h2-4H2,1H3, purity 99%

System: 2,2,3,3-tetrafluoro-1-propanol; phases: Liquid, Gas
Property: Vapor or sublimation pressure, kPa (Liquid); method: Ebulliometric method (Recirculating still)
Temperature, K	Vapor or sublimation pressure, kPa	uncertainty
381.95	101.3	3.6

System: N-methylformamide; phases: Liquid, Gas
Property: Vapor or sublimation pressure, kPa (Liquid); method: Ebulliometric method (Recirculating still)
Temperature, K	Vapor or sublimation pressure, kPa	uncertainty
471.2	101.3	3.6

System: dimethylformamide; phases: Liquid, Gas
Property: Vapor or sublimation pressure, kPa (Liquid); method: Ebulliometric method (Recirculating still)
Temperature, K	Vapor or sublimation pressure, kPa	uncertainty
426.05	101.3	3.6

System: N-methylpyrrolidone; phases: Liquid, Gas
Property: Vapor or sublimation pressure, kPa (Liquid); method: Ebulliometric method (Recirculating still)
Temperature, K	Vapor or sublimation pressure, kPa	uncertainty
476.05	101.3	3.6

System: 2,2,3,3-tetrafluoro-1-propanol + N-methylformamide; phases: Liquid, Gas
Fixed: Pressure, kPa = 101.3
Property: Boiling temperature at pressure P, K (Liquid); method: Ebulliometric method (Recirculating still)
Mole fraction of 2,2,3,3-tetrafluoro-1-propanol	Boiling temperature at pressure P, K	uncertainty
0	471.2	0.72
0.0103	467.35	0.72
0.0369	459.95	0.72
0.0726	451.55	0.72
0.1009	445.7	0.72
0.1365	439.2	0.72
0.1812	432.25	0.72
0.2248	426.65	0.72
0.2758	420.95	0.72
0.3476	414.15	0.72
0.4271	408.05	0.72
0.5225	401.95	0.72
0.5541	400.15	0.72
0.6989	393.15	0.72
0.8348	387.85	0.72
1	381.95	0.72

System: 2,2,3,3-tetrafluoro-1-propanol + N-methylformamide; phases: Gas, Liquid
Fixed: Pressure, kPa = 101.3
Property: Mole fraction of 2,2,3,3-tetrafluoro-1-propanol (Gas); method: Chromatography
Mole fraction of 2,2,3,3-tetrafluoro-1-propanol	Mole fraction of 2,2,3,3-tetrafluoro-1-propanol	uncertainty
0	0	
0.0103	0.093	0.0136
0.0369	0.2842	0.0138
0.0726	0.4613	0.0142
0.1009	0.5626	0.0142
0.1365	0.656	0.014
0.1812	0.7387	0.0138
0.2248	0.792	0.0138
0.2758	0.8398	0.0137
0.3476	0.8863	0.0137
0.4271	0.9201	0.0136
0.5225	0.9471	0.0136
0.5541	0.9538	0.0136
0.6989	0.9764	0.0136
0.8348	0.9895	0.0105
1	1	

System: 2,2,3,3-tetrafluoro-1-propanol + dimethylformamide; phases: Liquid, Gas
Fixed: Pressure, kPa = 101.3
Property: Boiling temperature at pressure P, K (Liquid); method: Ebulliometric method (Recirculating still)
Mole fraction of 2,2,3,3-tetrafluoro-1-propanol	Boiling temperature at pressure P, K	uncertainty
0	426.05	0.72
0.0153	423.2	0.72
0.0473	420.65	0.72
0.0783	417.95	0.72
0.1232	414.65	0.72
0.1697	411.75	0.72
0.2303	408.7	0.72
0.2929	405.45	0.72
0.3482	402.8	0.72
0.4261	399.45	0.72
0.5074	396.3	0.72
0.5948	393.25	0.72
0.6907	390.45	0.72
0.8001	387.35	0.72
0.9102	384.55	0.72
1	381.95	0.72

System: 2,2,3,3-tetrafluoro-1-propanol + dimethylformamide; phases: Gas, Liquid
Fixed: Pressure, kPa = 101.3
Property: Mole fraction of 2,2,3,3-tetrafluoro-1-propanol (Gas); method: Chromatography
Mole fraction of 2,2,3,3-tetrafluoro-1-propanol	Mole fraction of 2,2,3,3-tetrafluoro-1-propanol	uncertainty
0	0	
0.0153	0.0809	0.0134
0.0473	0.1709	0.0135
0.0783	0.2559	0.0136
0.1232	0.3549	0.0138
0.1697	0.4374	0.014
0.2303	0.5174	0.0141
0.2929	0.5964	0.0139
0.3482	0.6556	0.0138
0.4261	0.7264	0.0137
0.5074	0.7864	0.0136
0.5948	0.8403	0.0135
0.6907	0.8868	0.0135
0.8001	0.9338	0.0134
0.9102	0.9728	0.0134
1	1	

System: 2,2,3,3-tetrafluoro-1-propanol + N-methylpyrrolidone; phases: Liquid, Gas
Fixed: Pressure, kPa = 101.3
Property: Boiling temperature at pressure P, K (Liquid); method: Ebulliometric method (Recirculating still)
Mole fraction of 2,2,3,3-tetrafluoro-1-propanol	Boiling temperature at pressure P, K	uncertainty
0	476.05	0.72
0.02	468.95	0.72
0.035	463.55	0.72
0.055	457.25	0.72
0.075	451.75	0.72
0.0998	445.75	0.72
0.1253	440.6	0.72
0.16	434.45	0.72
0.2035	428.5	0.72
0.2535	422.2	0.72
0.3067	416.5	0.72
0.3835	410.25	0.72
0.4642	404.45	0.72
0.5565	398.85	0.72
0.6898	392.95	0.72
0.8435	387	0.72
0.9214	384.75	0.72
1	381.95	0.72

System: 2,2,3,3-tetrafluoro-1-propanol + N-methylpyrrolidone; phases: Gas, Liquid
Fixed: Pressure, kPa = 101.3
Property: Mole fraction of 2,2,3,3-tetrafluoro-1-propanol (Gas); method: Chromatography
Mole fraction of 2,2,3,3-tetrafluoro-1-propanol	Mole fraction of 2,2,3,3-tetrafluoro-1-propanol	uncertainty
0	0	
0.02	0.2005	0.0171
0.035	0.3146	0.0172
0.055	0.432	0.0175
0.075	0.5215	0.0177
0.0998	0.6065	0.0175
0.1253	0.6707	0.0174
0.16	0.7371	0.0172
0.2035	0.7908	0.0172
0.2535	0.8396	0.0171
0.3067	0.8764	0.0171
0.3835	0.911	0.017
0.4642	0.9367	0.017
0.5565	0.9572	0.017
0.6898	0.9758	0.017
0.8435	0.9903	0.0097
0.9214	0.9954	0.0046
1	1	
