Measured thermophysical data. Study of (solute + solute) and (solute + solvent) interactions of homologous series of some .alpha.-amino acids in aqueous-streptomycin sulfate solutions at different temperatures by using physicochemical methods
Source: J. Chem. Thermodyn., 2016, 10.1016/j.jct.2015.11.015
Compound 1: 2-aminoacetic acid, C2H5NO2, InChI=1S/C2H5NO2/c3-1-2(4)5/h1,3H2,(H,4,5), purity 99%
Compound 2: (S)-2-aminopropanoic acid, C3H7NO2, InChI=1S/C3H7NO2/c1-2(4)3(5)6/h2H,4H2,1H3,(H,5,6)/t2-/m0/s1, purity 99%
Compound 3: L-valine, C5H11NO2, InChI=1S/C5H11NO2/c1-3(2)4(6)5(7)8/h3-4H,6H2,1-2H3,(H,7,8)/t4-/m0/s1, purity 99%
Compound 4: 2-amino-3-methylpentanoic acid, C6H13NO2, InChI=1S/C6H13NO2/c1-3-4(2)5(7)6(8)9/h4-5H,3,7H2,1-2H3,(H,8,9)/t4-,5-/m0/s1, purity 99%
Compound 5: Streptomycin sulfate, C42H84N14O36S3, InChI=1S/2C21H39N7O12.3H2O4S/c2*1-5-21(36,4-30)16(40-17-9(26-2)13(34)10(31)6(3-29)38-17)18(37-5)39-15-8(28-20(24)25)11(32)7(27-19(22)23)12(33)14(15)35;3*1-5(2,3)4/h2*4-18,26,29,31-36H,3H2,1-2H3,(H4,22,23,27)(H4,24,25,28);3*(H2,1,2,3,4)/t2*5-,6-,7+,8-,9-,10-,11+,12-,13-,14+,15+,16-,17-,18-,21+;;;/m00.../s1, purity 99%
Compound 6: water, H2O, InChI=1S/H2O/h1H2

System: 2-aminoacetic acid + Streptomycin sulfate + water; phases: Liquid
Fixed: Pressure, kPa = 101
Property: Mass density, kg/m3 (Liquid); method: Pycnometric method
Solvent: Mass fraction of Streptomycin sulfate	Temperature, K	Molality, mol/kg of 2-aminoacetic acid	Mass density, kg/m3	uncertainty
0	293.15	0	998.24	1.68
0	293.15	0.025	999.03	1.68
0	293.15	0.05	999.8	1.68
0	293.15	0.075	1000.55	1.68
0	293.15	0.0999	1001.28	1.68
0	293.15	0.1249	1001.99	1.68
0	293.15	0.15	1002.68	1.68
0	298.15	0	997.07	1.68
0	298.15	0.025	997.86	1.68
0	298.15	0.05	998.63	1.68
0	298.15	0.075	999.38	1.68
0	298.15	0.0999	1000.11	1.68
0	298.15	0.1249	1000.82	1.68
0	298.15	0.15	1001.51	1.68
0	303.15	0	995.68	1.68
0	303.15	0.025	996.47	1.68
0	303.15	0.05	997.24	1.68
0	303.15	0.075	997.99	1.68
0	303.15	0.0999	998.72	1.68
0	303.15	0.1249	999.43	1.68
0	303.15	0.15	1000.12	1.68
0	308.15	0	994.07	1.68
0	308.15	0.025	994.86	1.68
0	308.15	0.05	995.63	1.68
0	308.15	0.075	996.39	1.68
0	308.15	0.0999	997.12	1.68
0	308.15	0.1249	997.83	1.68
0	308.15	0.15	998.52	1.68
0	313.15	0	992.25	1.69
0	313.15	0.025	993.05	1.69
0	313.15	0.05	993.82	1.69
0	313.15	0.075	994.57	1.69
0	313.15	0.0999	995.31	1.69
0	313.15	0.1249	996.02	1.69
0	313.15	0.15	996.71	1.69
0	318.15	0	990.24	1.69
0	318.15	0.025	991.04	1.69
0	318.15	0.05	991.82	1.69
0	318.15	0.075	992.57	1.69
0	318.15	0.0999	993.31	1.69
0	318.15	0.1249	994.02	1.69
0	318.15	0.15	994.72	1.69
0.01	293.15	0	1002.76	1.68
0.01	293.15	0.025	1003.52	1.68
0.01	293.15	0.05	1004.26	1.68
0.01	293.15	0.075	1004.98	1.68
0.01	293.15	0.0999	1005.68	1.68
0.01	293.15	0.1249	1006.36	1.68
0.01	293.15	0.15	1007.02	1.68
0.01	298.15	0	1001.29	1.68
0.01	298.15	0.025	1002.05	1.68
0.01	298.15	0.05	1002.8	1.68
0.01	298.15	0.075	1003.52	1.68
0.01	298.15	0.0999	1004.22	1.68
0.01	298.15	0.1249	1004.9	1.68
0.01	298.15	0.15	1005.56	1.68
0.01	303.15	0	999.81	1.68
0.01	303.15	0.025	1000.57	1.68
0.01	303.15	0.05	1001.32	1.68
0.01	303.15	0.075	1002.04	1.68
0.01	303.15	0.0999	1002.74	1.68
0.01	303.15	0.1249	1003.42	1.68
0.01	303.15	0.15	1004.09	1.68
0.01	308.15	0	998.34	1.69
0.01	308.15	0.025	999.11	1.69
0.01	308.15	0.05	999.85	1.69
0.01	308.15	0.075	1000.57	1.69
0.01	308.15	0.0999	1001.28	1.69
0.01	308.15	0.1249	1001.96	1.69
0.01	308.15	0.15	1002.63	1.69
0.01	313.15	0	996.86	1.69
0.01	313.15	0.025	997.63	1.69
0.01	313.15	0.05	998.37	1.69
0.01	313.15	0.075	999.1	1.69
0.01	313.15	0.0999	999.81	1.69
0.01	313.15	0.1249	1000.49	1.69
0.01	313.15	0.15	1001.16	1.69
0.01	318.15	0	995.39	1.69
0.01	318.15	0.025	996.16	1.69
0.01	318.15	0.05	996.91	1.69
0.01	318.15	0.075	997.64	1.69
0.01	318.15	0.0999	998.34	1.69
0.01	318.15	0.1249	999.03	1.69
0.01	318.15	0.15	999.7	1.69
0.02	293.15	0	1007.26	1.68
0.02	293.15	0.025	1007.99	1.68
0.02	293.15	0.05	1008.7	1.68
0.02	293.15	0.075	1009.39	1.68
0.02	293.15	0.0999	1010.05	1.68
0.02	293.15	0.1249	1010.7	1.68
0.02	293.15	0.15	1011.33	1.68
0.02	298.15	0	1005.43	1.68
0.02	298.15	0.025	1006.16	1.68
0.02	298.15	0.05	1006.88	1.68
0.02	298.15	0.075	1007.57	1.68
0.02	298.15	0.0999	1008.23	1.68
0.02	298.15	0.1249	1008.88	1.68
0.02	298.15	0.15	1009.51	1.68
0.02	303.15	0	1003.6	1.68
0.02	303.15	0.025	1004.34	1.68
0.02	303.15	0.05	1005.05	1.68
0.02	303.15	0.075	1005.74	1.68
0.02	303.15	0.0999	1006.41	1.68
0.02	303.15	0.1249	1007.06	1.68
0.02	303.15	0.15	1007.69	1.68
0.02	308.15	0	1001.77	1.69
0.02	308.15	0.025	1002.51	1.69
0.02	308.15	0.05	1003.22	1.69
0.02	308.15	0.075	1003.92	1.69
0.02	308.15	0.0999	1004.58	1.69
0.02	308.15	0.1249	1005.24	1.69
0.02	308.15	0.15	1005.87	1.69
0.02	313.15	0	999.94	1.69
0.02	313.15	0.025	1000.68	1.69
0.02	313.15	0.05	1001.4	1.69
0.02	313.15	0.075	1002.1	1.69
0.02	313.15	0.0999	1002.77	1.69
0.02	313.15	0.1249	1003.42	1.69
0.02	313.15	0.15	1004.05	1.69
0.02	318.15	0	998.11	1.69
0.02	318.15	0.025	998.85	1.69
0.02	318.15	0.05	999.57	1.69
0.02	318.15	0.075	1000.27	1.69
0.02	318.15	0.0999	1000.95	1.69
0.02	318.15	0.1249	1001.6	1.69
0.02	318.15	0.15	1002.24	1.69

System: 2-aminoacetic acid + Streptomycin sulfate + water; phases: Liquid
Fixed: Pressure, kPa = 101
Property: Viscosity, Pa*s (Liquid); method: Capillary tube (Ostwald; Ubbelohde) method
Solvent: Mass fraction of Streptomycin sulfate	Temperature, K	Molality, mol/kg of 2-aminoacetic acid	Viscosity, Pa*s	uncertainty
0.01	298.15	0	0.0009434	2.16e-05
0.01	298.15	0.025	0.0009486	2.17e-05
0.01	298.15	0.05	0.0009534	2.18e-05
0.01	298.15	0.075	0.0009582	2.19e-05
0.01	298.15	0.0999	0.000963	2.2e-05
0.01	298.15	0.1249	0.000968	2.21e-05
0.01	298.15	0.15	0.0009728	2.22e-05
0.01	303.15	0	0.0008493	1.94e-05
0.01	303.15	0.025	0.0008544	1.96e-05
0.01	303.15	0.05	0.0008591	1.97e-05
0.01	303.15	0.075	0.0008639	1.98e-05
0.01	303.15	0.0999	0.0008689	1.99e-05
0.01	303.15	0.1249	0.0008739	2e-05
0.01	303.15	0.15	0.0008788	2.01e-05
0.01	308.15	0	0.0007667	1.76e-05
0.01	308.15	0.025	0.0007718	1.77e-05
0.01	308.15	0.05	0.0007765	1.78e-05
0.01	308.15	0.075	0.0007813	1.79e-05
0.01	308.15	0.0999	0.0007862	1.8e-05
0.01	308.15	0.1249	0.0007913	1.81e-05
0.01	308.15	0.15	0.0007964	1.83e-05
0.01	313.15	0	0.0006932	1.59e-05
0.01	313.15	0.025	0.0006982	1.6e-05
0.01	313.15	0.05	0.000703	1.61e-05
0.01	313.15	0.075	0.0007078	1.62e-05
0.01	313.15	0.0999	0.0007127	1.64e-05
0.01	313.15	0.1249	0.0007177	1.65e-05
0.01	313.15	0.15	0.0007227	1.66e-05
0.01	318.15	0	0.0006275	1.44e-05
0.01	318.15	0.025	0.0006324	1.45e-05
0.01	318.15	0.05	0.0006372	1.46e-05
0.01	318.15	0.075	0.0006419	1.47e-05
0.01	318.15	0.0999	0.0006468	1.49e-05
0.01	318.15	0.1249	0.0006516	1.5e-05
0.01	318.15	0.15	0.0006565	1.51e-05
0.02	298.15	0	0.0009849	2.25e-05
0.02	298.15	0.025	0.0009928	2.27e-05
0.02	298.15	0.05	0.0009996	2.28e-05
0.02	298.15	0.075	0.0010065	2.3e-05
0.02	298.15	0.0999	0.0010132	2.32e-05
0.02	298.15	0.1249	0.0010202	2.33e-05
0.02	298.15	0.15	0.0010273	2.35e-05
0.02	303.15	0	0.0008904	2.04e-05
0.02	303.15	0.025	0.0008977	2.05e-05
0.02	303.15	0.05	0.0009043	2.07e-05
0.02	303.15	0.075	0.0009109	2.08e-05
0.02	303.15	0.0999	0.0009174	2.1e-05
0.02	303.15	0.1249	0.0009242	2.11e-05
0.02	303.15	0.15	0.000931	2.13e-05
0.02	308.15	0	0.0008077	1.85e-05
0.02	308.15	0.025	0.0008147	1.87e-05
0.02	308.15	0.05	0.000821	1.88e-05
0.02	308.15	0.075	0.0008275	1.89e-05
0.02	308.15	0.0999	0.0008339	1.91e-05
0.02	308.15	0.1249	0.0008405	1.92e-05
0.02	308.15	0.15	0.0008472	1.94e-05
0.02	313.15	0	0.0007345	1.68e-05
0.02	313.15	0.025	0.000741	1.7e-05
0.02	313.15	0.05	0.0007472	1.71e-05
0.02	313.15	0.075	0.0007534	1.73e-05
0.02	313.15	0.0999	0.0007596	1.74e-05
0.02	313.15	0.1249	0.000766	1.76e-05
0.02	313.15	0.15	0.0007723	1.77e-05
0.02	318.15	0	0.0006686	1.53e-05
0.02	318.15	0.025	0.0006748	1.55e-05
0.02	318.15	0.05	0.0006808	1.56e-05
0.02	318.15	0.075	0.0006869	1.58e-05
0.02	318.15	0.0999	0.0006928	1.59e-05
0.02	318.15	0.1249	0.000699	1.6e-05
0.02	318.15	0.15	0.0007051	1.62e-05
0	298.15	0	0.0008903	2.03e-05
0	298.15	0.025	0.0008918	2.04e-05
0	298.15	0.05	0.0008942	2.04e-05
0	298.15	0.075	0.0008968	2.05e-05
0	298.15	0.0999	0.0008995	2.06e-05
0	298.15	0.1249	0.0009024	2.06e-05
0	298.15	0.15	0.0009053	2.07e-05
0	303.15	0	0.0007973	1.82e-05
0	303.15	0.025	0.0007987	1.83e-05
0	303.15	0.05	0.000801	1.83e-05
0	303.15	0.075	0.0008035	1.84e-05
0	303.15	0.0999	0.0008061	1.84e-05
0	303.15	0.1249	0.0008089	1.85e-05
0	303.15	0.15	0.0008117	1.86e-05
0	308.15	0	0.000719	1.65e-05
0	308.15	0.025	0.0007205	1.65e-05
0	308.15	0.05	0.0007227	1.66e-05
0	308.15	0.075	0.0007251	1.66e-05
0	308.15	0.0999	0.0007276	1.67e-05
0	308.15	0.1249	0.0007302	1.67e-05
0	308.15	0.15	0.000733	1.68e-05
0	313.15	0	0.0006526	1.5e-05
0	313.15	0.025	0.0006541	1.5e-05
0	313.15	0.05	0.0006562	1.5e-05
0	313.15	0.075	0.0006585	1.51e-05
0	313.15	0.0999	0.0006609	1.52e-05
0	313.15	0.1249	0.0006634	1.52e-05
0	313.15	0.15	0.000666	1.53e-05
0	318.15	0	0.0005972	1.37e-05
0	318.15	0.025	0.0005986	1.37e-05
0	318.15	0.05	0.0006007	1.38e-05
0	318.15	0.075	0.0006029	1.38e-05
0	318.15	0.0999	0.0006052	1.39e-05
0	318.15	0.1249	0.0006076	1.39e-05
0	318.15	0.15	0.0006099	1.4e-05

System: 2-aminoacetic acid + Streptomycin sulfate + water; phases: Liquid
Fixed: Pressure, kPa = 101
Fixed: Frequency, MHz = 3
Property: Speed of sound, m/s (Liquid); method: Linear variable-path acoustic interferometer
Solvent: Mass fraction of Streptomycin sulfate	Temperature, K	Molality, mol/kg of 2-aminoacetic acid	Speed of sound, m/s	uncertainty
0	298.15	0	1496.9	3.7
0	298.15	0.025	1497.5	3.7
0	298.15	0.05	1498.5	3.7
0	298.15	0.075	1499.7	3.7
0	298.15	0.0999	1501.3	3.7
0	298.15	0.1249	1503.1	3.7
0	298.15	0.15	1505.3	3.7
0	303.15	0	1508.4	3.7
0	303.15	0.025	1509	3.7
0	303.15	0.05	1509.9	3.7
0	303.15	0.075	1511.2	3.7
0	303.15	0.0999	1512.7	3.7
0	303.15	0.1249	1514.6	3.7
0	303.15	0.15	1516.7	3.7
0	308.15	0	1519.8	3.7
0	308.15	0.025	1520.4	3.7
0	308.15	0.05	1521.3	3.7
0	308.15	0.075	1522.5	3.7
0	308.15	0.0999	1524.1	3.7
0	308.15	0.1249	1525.9	3.7
0	308.15	0.15	1528	3.7
0	313.15	0	1526.8	3.7
0	313.15	0.025	1527.3	3.7
0	313.15	0.05	1528.2	3.7
0	313.15	0.075	1529.4	3.7
0	313.15	0.0999	1530.9	3.7
0	313.15	0.1249	1532.7	3.7
0	313.15	0.15	1534.8	3.7
0	318.15	0	1533	3.7
0	318.15	0.025	1533.5	3.7
0	318.15	0.05	1534.3	3.7
0	318.15	0.075	1535.5	3.7
0	318.15	0.0999	1537	3.7
0	318.15	0.1249	1538.7	3.7
0	318.15	0.15	1540.8	3.7
0.01	298.15	0	1503.8	3.7
0.01	298.15	0.025	1504.4	3.7
0.01	298.15	0.05	1505.3	3.7
0.01	298.15	0.075	1506.5	3.7
0.01	298.15	0.0999	1508	3.7
0.01	298.15	0.1249	1509.8	3.7
0.01	298.15	0.15	1511.9	3.7
0.01	303.15	0	1515.8	3.7
0.01	303.15	0.025	1516.4	3.7
0.01	303.15	0.05	1517.2	3.7
0.01	303.15	0.075	1518.4	3.7
0.01	303.15	0.0999	1519.9	3.7
0.01	303.15	0.1249	1521.7	3.7
0.01	303.15	0.15	1523.8	3.7
0.01	308.15	0	1524.8	3.7
0.01	308.15	0.025	1525.3	3.7
0.01	308.15	0.05	1526.2	3.7
0.01	308.15	0.075	1527.3	3.7
0.01	308.15	0.0999	1528.8	3.7
0.01	308.15	0.1249	1530.6	3.7
0.01	308.15	0.15	1532.6	3.7
0.01	313.15	0	1532.3	3.7
0.01	313.15	0.025	1532.8	3.7
0.01	313.15	0.05	1533.6	3.7
0.01	313.15	0.075	1534.7	3.7
0.01	313.15	0.0999	1536.2	3.7
0.01	313.15	0.1249	1537.9	3.7
0.01	313.15	0.15	1539.9	3.7
0.01	318.15	0	1539.4	3.7
0.01	318.15	0.025	1539.8	3.7
0.01	318.15	0.05	1540.6	3.7
0.01	318.15	0.075	1541.7	3.7
0.01	318.15	0.0999	1543.1	3.7
0.01	318.15	0.1249	1544.8	3.7
0.01	318.15	0.15	1546.8	3.7
0.02	298.15	0	1507.2	3.7
0.02	298.15	0.025	1507.8	3.7
0.02	298.15	0.05	1508.6	3.7
0.02	298.15	0.075	1509.8	3.7
0.02	298.15	0.0999	1511.2	3.7
0.02	298.15	0.1249	1512.9	3.7
0.02	298.15	0.15	1515	3.7
0.02	303.15	0	1519.7	3.7
0.02	303.15	0.025	1520.2	3.7
0.02	303.15	0.05	1521.1	3.7
0.02	303.15	0.075	1522.2	3.7
0.02	303.15	0.0999	1523.6	3.7
0.02	303.15	0.1249	1525.3	3.7
0.02	303.15	0.15	1527.3	3.7
0.02	308.15	0	1528.8	3.7
0.02	308.15	0.025	1529.3	3.7
0.02	308.15	0.05	1530.1	3.7
0.02	308.15	0.075	1531.1	3.7
0.02	308.15	0.0999	1532.5	3.7
0.02	308.15	0.1249	1534.2	3.7
0.02	308.15	0.15	1536.2	3.7
0.02	313.15	0	1536.9	3.7
0.02	313.15	0.025	1537.3	3.7
0.02	313.15	0.05	1538.1	3.7
0.02	313.15	0.075	1539.1	3.7
0.02	313.15	0.0999	1540.5	3.7
0.02	313.15	0.1249	1542.1	3.7
0.02	313.15	0.15	1544	3.7
0.02	318.15	0	1543.3	3.7
0.02	318.15	0.025	1543.7	3.7
0.02	318.15	0.05	1544.4	3.7
0.02	318.15	0.075	1545.4	3.7
0.02	318.15	0.0999	1546.6	3.7
0.02	318.15	0.1249	1548.3	3.7
0.02	318.15	0.15	1550.1	3.7

System: (S)-2-aminopropanoic acid + Streptomycin sulfate + water; phases: Liquid
Fixed: Pressure, kPa = 101
Property: Mass density, kg/m3 (Liquid); method: Pycnometric method
Solvent: Mass fraction of Streptomycin sulfate	Temperature, K	Molality, mol/kg of (S)-2-aminopropanoic acid	Mass density, kg/m3	uncertainty
0	293.15	0	998.24	1.68
0	293.15	0.025	998.96	1.68
0	293.15	0.05	999.66	1.68
0	293.15	0.075	1000.34	1.68
0	293.15	0.0999	1001	1.68
0	293.15	0.1249	1001.64	1.68
0	293.15	0.15	1002.26	1.68
0	298.15	0	997.07	1.68
0	298.15	0.025	997.79	1.68
0	298.15	0.05	998.49	1.68
0	298.15	0.075	999.17	1.68
0	298.15	0.0999	999.83	1.68
0	298.15	0.1249	1000.47	1.68
0	298.15	0.15	1001.09	1.68
0	303.15	0	995.68	1.68
0	303.15	0.025	996.4	1.68
0	303.15	0.05	997.1	1.68
0	303.15	0.075	997.78	1.68
0	303.15	0.0999	998.44	1.68
0	303.15	0.1249	999.08	1.68
0	303.15	0.15	999.7	1.68
0	308.15	0	994.07	1.69
0	308.15	0.025	994.79	1.69
0	308.15	0.05	995.49	1.69
0	308.15	0.075	996.17	1.69
0	308.15	0.0999	996.83	1.69
0	308.15	0.1249	997.47	1.69
0	308.15	0.15	998.09	1.69
0	313.15	0	992.25	1.69
0	313.15	0.025	992.97	1.69
0	313.15	0.05	993.67	1.69
0	313.15	0.075	994.36	1.69
0	313.15	0.0999	995.01	1.69
0	313.15	0.1249	995.66	1.69
0	313.15	0.15	996.28	1.69
0	318.15	0	990.24	1.69
0	318.15	0.025	990.97	1.69
0	318.15	0.05	991.67	1.69
0	318.15	0.075	992.35	1.69
0	318.15	0.0999	993.01	1.69
0	318.15	0.1249	993.65	1.69
0	318.15	0.15	994.27	1.69
0.01	293.15	0	1002.76	1.68
0.01	293.15	0.025	1003.45	1.68
0.01	293.15	0.05	1004.12	1.68
0.01	293.15	0.075	1004.77	1.68
0.01	293.15	0.0999	1005.4	1.68
0.01	293.15	0.1249	1006.01	1.68
0.01	293.15	0.15	1006.6	1.68
0.01	298.15	0	1001.29	1.68
0.01	298.15	0.025	1001.98	1.68
0.01	298.15	0.05	1002.65	1.68
0.01	298.15	0.075	1003.3	1.68
0.01	298.15	0.0999	1003.93	1.68
0.01	298.15	0.1249	1004.54	1.68
0.01	298.15	0.15	1005.14	1.68
0.01	303.15	0	999.81	1.69
0.01	303.15	0.025	1000.5	1.69
0.01	303.15	0.05	1001.17	1.69
0.01	303.15	0.075	1001.82	1.69
0.01	303.15	0.0999	1002.45	1.69
0.01	303.15	0.1249	1003.06	1.69
0.01	303.15	0.15	1003.65	1.69
0.01	308.15	0	998.34	1.69
0.01	308.15	0.025	999.03	1.69
0.01	308.15	0.05	999.7	1.69
0.01	308.15	0.075	1000.35	1.69
0.01	308.15	0.0999	1000.98	1.69
0.01	308.15	0.1249	1001.59	1.69
0.01	308.15	0.15	1002.18	1.69
0.01	313.15	0	996.86	1.69
0.01	313.15	0.025	997.55	1.69
0.01	313.15	0.05	998.22	1.69
0.01	313.15	0.075	998.87	1.69
0.01	313.15	0.0999	999.5	1.69
0.01	313.15	0.1249	1000.11	1.69
0.01	313.15	0.15	1000.7	1.69
0.01	318.15	0	995.39	1.69
0.01	318.15	0.025	996.08	1.69
0.01	318.15	0.05	996.76	1.69
0.01	318.15	0.075	997.41	1.69
0.01	318.15	0.0999	998.03	1.69
0.01	318.15	0.1249	998.64	1.69
0.01	318.15	0.15	999.23	1.69
0.02	293.15	0	1007.26	1.68
0.02	293.15	0.025	1007.92	1.68
0.02	293.15	0.05	1008.55	1.68
0.02	293.15	0.075	1009.17	1.68
0.02	293.15	0.0999	1009.76	1.68
0.02	293.15	0.1249	1010.33	1.68
0.02	293.15	0.15	1010.88	1.68
0.02	298.15	0	1005.43	1.68
0.02	298.15	0.025	1006.09	1.68
0.02	298.15	0.05	1006.73	1.68
0.02	298.15	0.075	1007.35	1.68
0.02	298.15	0.0999	1007.94	1.68
0.02	298.15	0.1249	1008.51	1.68
0.02	298.15	0.15	1009.07	1.68
0.02	303.15	0	1003.6	1.69
0.02	303.15	0.025	1004.26	1.69
0.02	303.15	0.05	1004.9	1.69
0.02	303.15	0.075	1005.52	1.69
0.02	303.15	0.0999	1006.12	1.69
0.02	303.15	0.1249	1006.7	1.69
0.02	303.15	0.15	1007.26	1.69
0.02	308.15	0	1001.77	1.69
0.02	308.15	0.025	1002.43	1.69
0.02	308.15	0.05	1003.08	1.69
0.02	308.15	0.075	1003.7	1.69
0.02	308.15	0.0999	1004.3	1.69
0.02	308.15	0.1249	1004.87	1.69
0.02	308.15	0.15	1005.43	1.69
0.02	313.15	0	999.94	1.69
0.02	313.15	0.025	1000.61	1.69
0.02	313.15	0.05	1001.25	1.69
0.02	313.15	0.075	1001.87	1.69
0.02	313.15	0.0999	1002.47	1.69
0.02	313.15	0.1249	1003.05	1.69
0.02	313.15	0.15	1003.62	1.69
0.02	318.15	0	998.11	1.69
0.02	318.15	0.025	998.78	1.69
0.02	318.15	0.05	999.42	1.69
0.02	318.15	0.075	1000.05	1.69
0.02	318.15	0.0999	1000.65	1.69
0.02	318.15	0.1249	1001.23	1.69
0.02	318.15	0.15	1001.79	1.69

System: (S)-2-aminopropanoic acid + Streptomycin sulfate + water; phases: Liquid
Fixed: Pressure, kPa = 101
Property: Viscosity, Pa*s (Liquid); method: Capillary tube (Ostwald; Ubbelohde) method
Solvent: Mass fraction of Streptomycin sulfate	Temperature, K	Molality, mol/kg of (S)-2-aminopropanoic acid	Viscosity, Pa*s	uncertainty
0.01	298.15	0	0.0009434	2.16e-05
0.01	298.15	0.025	0.0009507	2.18e-05
0.01	298.15	0.05	0.0009575	2.19e-05
0.01	298.15	0.075	0.0009646	2.21e-05
0.01	298.15	0.0999	0.0009718	2.23e-05
0.01	298.15	0.1249	0.000979	2.24e-05
0.01	298.15	0.15	0.0009862	2.26e-05
0.01	303.15	0	0.0008493	1.95e-05
0.01	303.15	0.025	0.0008564	1.96e-05
0.01	303.15	0.05	0.0008631	1.98e-05
0.01	303.15	0.075	0.0008701	1.99e-05
0.01	303.15	0.0999	0.000877	2.01e-05
0.01	303.15	0.1249	0.000884	2.03e-05
0.01	303.15	0.15	0.000891	2.04e-05
0.01	308.15	0	0.0007667	1.76e-05
0.01	308.15	0.025	0.0007736	1.78e-05
0.01	308.15	0.05	0.0007802	1.79e-05
0.01	308.15	0.075	0.000787	1.81e-05
0.01	308.15	0.0999	0.0007936	1.82e-05
0.01	308.15	0.1249	0.0008004	1.84e-05
0.01	308.15	0.15	0.0008073	1.85e-05
0.01	313.15	0	0.0006932	1.59e-05
0.01	313.15	0.025	0.0006999	1.61e-05
0.01	313.15	0.05	0.0007064	1.62e-05
0.01	313.15	0.075	0.0007129	1.64e-05
0.01	313.15	0.0999	0.0007194	1.65e-05
0.01	313.15	0.1249	0.000726	1.67e-05
0.01	313.15	0.15	0.0007326	1.68e-05
0.01	318.15	0	0.0006275	1.44e-05
0.01	318.15	0.025	0.0006339	1.46e-05
0.01	318.15	0.05	0.0006402	1.47e-05
0.01	318.15	0.075	0.0006464	1.49e-05
0.01	318.15	0.0999	0.0006527	1.5e-05
0.01	318.15	0.1249	0.000659	1.52e-05
0.01	318.15	0.15	0.0006654	1.53e-05
0.02	298.15	0	0.0009849	2.25e-05
0.02	298.15	0.025	0.0009931	2.27e-05
0.02	298.15	0.05	0.0010011	2.29e-05
0.02	298.15	0.075	0.0010094	2.31e-05
0.02	298.15	0.0999	0.0010178	2.33e-05
0.02	298.15	0.1249	0.0010264	2.35e-05
0.02	298.15	0.15	0.0010353	2.37e-05
0.02	303.15	0	0.0008904	2.04e-05
0.02	303.15	0.025	0.0008981	2.06e-05
0.02	303.15	0.05	0.0009059	2.08e-05
0.02	303.15	0.075	0.0009138	2.09e-05
0.02	303.15	0.0999	0.0009218	2.11e-05
0.02	303.15	0.1249	0.00093	2.13e-05
0.02	303.15	0.15	0.0009385	2.15e-05
0.02	308.15	0	0.0008077	1.85e-05
0.02	308.15	0.025	0.0008151	1.87e-05
0.02	308.15	0.05	0.0008226	1.89e-05
0.02	308.15	0.075	0.0008302	1.9e-05
0.02	308.15	0.0999	0.0008381	1.92e-05
0.02	308.15	0.1249	0.000846	1.94e-05
0.02	308.15	0.15	0.0008541	1.96e-05
0.02	313.15	0	0.0007345	1.69e-05
0.02	313.15	0.025	0.0007416	1.7e-05
0.02	313.15	0.05	0.0007489	1.72e-05
0.02	313.15	0.075	0.0007563	1.74e-05
0.02	313.15	0.0999	0.0007639	1.75e-05
0.02	313.15	0.1249	0.0007715	1.77e-05
0.02	313.15	0.15	0.0007794	1.79e-05
0.02	318.15	0	0.0006686	1.54e-05
0.02	318.15	0.025	0.0006754	1.55e-05
0.02	318.15	0.05	0.0006824	1.57e-05
0.02	318.15	0.075	0.0006896	1.59e-05
0.02	318.15	0.0999	0.0006969	1.6e-05
0.02	318.15	0.1249	0.0007042	1.62e-05
0.02	318.15	0.15	0.0007118	1.64e-05
0	298.15	0	0.0008903	2.04e-05
0	298.15	0.025	0.0008958	2.05e-05
0	298.15	0.05	0.0009013	2.06e-05
0	298.15	0.075	0.0009069	2.08e-05
0	298.15	0.0999	0.0009126	2.09e-05
0	298.15	0.1249	0.0009183	2.1e-05
0	298.15	0.15	0.0009242	2.11e-05
0	303.15	0	0.0007973	1.83e-05
0	303.15	0.025	0.0008023	1.84e-05
0	303.15	0.05	0.0008076	1.85e-05
0	303.15	0.075	0.0008128	1.86e-05
0	303.15	0.0999	0.0008182	1.87e-05
0	303.15	0.1249	0.0008235	1.89e-05
0	303.15	0.15	0.000829	1.9e-05
0	308.15	0	0.000719	1.65e-05
0	308.15	0.025	0.0007238	1.66e-05
0	308.15	0.05	0.0007288	1.67e-05
0	308.15	0.075	0.0007338	1.68e-05
0	308.15	0.0999	0.0007389	1.69e-05
0	308.15	0.1249	0.0007439	1.71e-05
0	308.15	0.15	0.000749	1.72e-05
0	313.15	0	0.0006526	1.5e-05
0	313.15	0.025	0.0006571	1.51e-05
0	313.15	0.05	0.0006618	1.52e-05
0	313.15	0.075	0.0006666	1.53e-05
0	313.15	0.0999	0.0006714	1.54e-05
0	313.15	0.1249	0.0006761	1.55e-05
0	313.15	0.15	0.0006809	1.56e-05
0	318.15	0	0.0005972	1.37e-05
0	318.15	0.025	0.0006014	1.38e-05
0	318.15	0.05	0.0006059	1.39e-05
0	318.15	0.075	0.0006104	1.4e-05
0	318.15	0.0999	0.0006149	1.41e-05
0	318.15	0.1249	0.0006195	1.42e-05
0	318.15	0.15	0.000624	1.43e-05

System: (S)-2-aminopropanoic acid + Streptomycin sulfate + water; phases: Liquid
Fixed: Pressure, kPa = 101
Fixed: Frequency, MHz = 3
Property: Speed of sound, m/s (Liquid); method: Linear variable-path acoustic interferometer
Solvent: Mass fraction of Streptomycin sulfate	Temperature, K	Molality, mol/kg of (S)-2-aminopropanoic acid	Speed of sound, m/s	uncertainty
0	298.15	0	1496.9	3.7
0	298.15	0.025	1497.5	3.7
0	298.15	0.05	1498.5	3.7
0	298.15	0.075	1499.8	3.7
0	298.15	0.0999	1501.5	3.7
0	298.15	0.1249	1503.5	3.7
0	298.15	0.15	1505.9	3.7
0	303.15	0	1508.4	3.7
0	303.15	0.025	1509	3.7
0	303.15	0.05	1510	3.7
0	303.15	0.075	1511.3	3.7
0	303.15	0.0999	1512.9	3.7
0	303.15	0.1249	1514.9	3.7
0	303.15	0.15	1517.3	3.7
0	308.15	0	1519.8	3.7
0	308.15	0.025	1520.4	3.7
0	308.15	0.05	1521.3	3.7
0	308.15	0.075	1522.6	3.7
0	308.15	0.0999	1524.3	3.7
0	308.15	0.1249	1526.3	3.7
0	308.15	0.15	1528.6	3.7
0	313.15	0	1526.8	3.7
0	313.15	0.025	1527.3	3.7
0	313.15	0.05	1528.2	3.7
0	313.15	0.075	1529.5	3.7
0	313.15	0.0999	1531.1	3.7
0	313.15	0.1249	1533.1	3.7
0	313.15	0.15	1535.4	3.7
0	318.15	0	1533	3.7
0	318.15	0.025	1533.5	3.7
0	318.15	0.05	1534.4	3.7
0	318.15	0.075	1535.6	3.7
0	318.15	0.0999	1537.2	3.7
0	318.15	0.1249	1539.1	3.7
0	318.15	0.15	1541.4	3.7
0.01	298.15	0	1503.8	3.7
0.01	298.15	0.025	1504.3	3.7
0.01	298.15	0.05	1505.1	3.7
0.01	298.15	0.075	1506.2	3.7
0.01	298.15	0.0999	1507.5	3.7
0.01	298.15	0.1249	1509.1	3.7
0.01	298.15	0.15	1511	3.7
0.01	303.15	0	1515.8	3.7
0.01	303.15	0.025	1516.3	3.7
0.01	303.15	0.05	1517.1	3.7
0.01	303.15	0.075	1518.1	3.7
0.01	303.15	0.0999	1519.4	3.7
0.01	303.15	0.1249	1521	3.7
0.01	303.15	0.15	1522.9	3.7
0.01	308.15	0	1524.8	3.7
0.01	308.15	0.025	1525.3	3.7
0.01	308.15	0.05	1526	3.7
0.01	308.15	0.075	1527	3.7
0.01	308.15	0.0999	1528.3	3.7
0.01	308.15	0.1249	1529.9	3.7
0.01	308.15	0.15	1531.8	3.7
0.01	313.15	0	1532.3	3.7
0.01	313.15	0.025	1532.7	3.7
0.01	313.15	0.05	1533.4	3.7
0.01	313.15	0.075	1534.4	3.7
0.01	313.15	0.0999	1535.7	3.7
0.01	313.15	0.1249	1537.3	3.7
0.01	313.15	0.15	1539.2	3.7
0.01	318.15	0	1539.4	3.7
0.01	318.15	0.025	1539.8	3.7
0.01	318.15	0.05	1540.4	3.7
0.01	318.15	0.075	1541.4	3.7
0.01	318.15	0.0999	1542.7	3.7
0.01	318.15	0.1249	1544.3	3.7
0.01	318.15	0.15	1546.1	3.7
0.02	298.15	0	1507.2	3.7
0.02	298.15	0.025	1507.7	3.7
0.02	298.15	0.05	1508.5	3.7
0.02	298.15	0.075	1509.6	3.7
0.02	298.15	0.0999	1511	3.7
0.02	298.15	0.1249	1512.7	3.7
0.02	298.15	0.15	1514.7	3.7
0.02	303.15	0	1519.7	3.7
0.02	303.15	0.025	1520.1	3.7
0.02	303.15	0.05	1520.9	3.7
0.02	303.15	0.075	1522	3.7
0.02	303.15	0.0999	1523.4	3.7
0.02	303.15	0.1249	1525.1	3.7
0.02	303.15	0.15	1527.1	3.7
0.02	308.15	0	1528.8	3.7
0.02	308.15	0.025	1529.2	3.7
0.02	308.15	0.05	1529.9	3.7
0.02	308.15	0.075	1531	3.7
0.02	308.15	0.0999	1532.3	3.7
0.02	308.15	0.1249	1534	3.7
0.02	308.15	0.15	1536	3.7
0.02	313.15	0	1536.9	3.7
0.02	313.15	0.025	1537.3	3.7
0.02	313.15	0.05	1537.9	3.7
0.02	313.15	0.075	1538.9	3.7
0.02	313.15	0.0999	1540.3	3.7
0.02	313.15	0.1249	1541.9	3.7
0.02	313.15	0.15	1543.8	3.7
0.02	318.15	0	1543.3	3.7
0.02	318.15	0.025	1543.6	3.7
0.02	318.15	0.05	1544.2	3.7
0.02	318.15	0.075	1545.2	3.7
0.02	318.15	0.0999	1546.4	3.7
0.02	318.15	0.1249	1548	3.7
0.02	318.15	0.15	1549.9	3.7

System: L-valine + Streptomycin sulfate + water; phases: Liquid
Fixed: Pressure, kPa = 101
Property: Mass density, kg/m3 (Liquid); method: Pycnometric method
Solvent: Mass fraction of Streptomycin sulfate	Temperature, K	Molality, mol/kg of L-valine	Mass density, kg/m3	uncertainty
0	293.15	0	998.24	1.68
0	293.15	0.025	998.91	1.68
0	293.15	0.05	999.55	1.68
0	293.15	0.075	1000.18	1.68
0	293.15	0.0999	1000.79	1.68
0	293.15	0.1249	1001.39	1.68
0	293.15	0.15	1001.96	1.68
0	298.15	0	997.07	1.68
0	298.15	0.025	997.74	1.68
0	298.15	0.05	998.38	1.68
0	298.15	0.075	999.01	1.68
0	298.15	0.0999	999.62	1.68
0	298.15	0.1249	1000.21	1.68
0	298.15	0.15	1000.78	1.68
0	303.15	0	995.68	1.68
0	303.15	0.025	996.35	1.68
0	303.15	0.05	997	1.68
0	303.15	0.075	997.63	1.68
0	303.15	0.0999	998.23	1.68
0	303.15	0.1249	998.83	1.68
0	303.15	0.15	999.4	1.68
0	308.15	0	994.07	1.69
0	308.15	0.025	994.74	1.69
0	308.15	0.05	995.39	1.69
0	308.15	0.075	996.02	1.69
0	308.15	0.0999	996.63	1.69
0	308.15	0.1249	997.23	1.69
0	308.15	0.15	997.81	1.69
0	313.15	0	992.25	1.69
0	313.15	0.025	992.92	1.69
0	313.15	0.05	993.58	1.69
0	313.15	0.075	994.21	1.69
0	313.15	0.0999	994.82	1.69
0	313.15	0.1249	995.42	1.69
0	313.15	0.15	996	1.69
0	318.15	0	990.24	1.69
0	318.15	0.025	990.92	1.69
0	318.15	0.05	991.58	1.69
0	318.15	0.075	992.21	1.69
0	318.15	0.0999	992.83	1.69
0	318.15	0.1249	993.43	1.69
0	318.15	0.15	994.02	1.69
0.01	293.15	0	1002.76	1.68
0.01	293.15	0.025	1003.39	1.68
0.01	293.15	0.05	1004	1.68
0.01	293.15	0.075	1004.59	1.68
0.01	293.15	0.0999	1005.16	1.68
0.01	293.15	0.1249	1005.72	1.68
0.01	293.15	0.15	1006.25	1.68
0.01	298.15	0	1001.29	1.68
0.01	298.15	0.025	1001.92	1.68
0.01	298.15	0.05	1002.53	1.68
0.01	298.15	0.075	1003.12	1.68
0.01	298.15	0.0999	1003.69	1.68
0.01	298.15	0.1249	1004.24	1.68
0.01	298.15	0.15	1004.77	1.68
0.01	303.15	0	999.81	1.69
0.01	303.15	0.025	1000.44	1.69
0.01	303.15	0.05	1001.06	1.69
0.01	303.15	0.075	1001.65	1.69
0.01	303.15	0.0999	1002.22	1.69
0.01	303.15	0.1249	1002.77	1.69
0.01	303.15	0.15	1003.3	1.69
0.01	308.15	0	998.34	1.69
0.01	308.15	0.025	998.98	1.69
0.01	308.15	0.05	999.59	1.69
0.01	308.15	0.075	1000.19	1.69
0.01	308.15	0.0999	1000.76	1.69
0.01	308.15	0.1249	1001.31	1.69
0.01	308.15	0.15	1001.84	1.69
0.01	313.15	0	996.86	1.69
0.01	313.15	0.025	997.5	1.69
0.01	313.15	0.05	998.12	1.69
0.01	313.15	0.075	998.71	1.69
0.01	313.15	0.0999	999.29	1.69
0.01	313.15	0.1249	999.84	1.69
0.01	313.15	0.15	1000.38	1.69
0.01	318.15	0	995.39	1.69
0.01	318.15	0.025	996.03	1.69
0.01	318.15	0.05	996.65	1.69
0.01	318.15	0.075	997.25	1.69
0.01	318.15	0.0999	997.82	1.69
0.01	318.15	0.1249	998.38	1.69
0.01	318.15	0.15	998.92	1.69
0.02	293.15	0	1007.26	1.68
0.02	293.15	0.025	1007.86	1.68
0.02	293.15	0.05	1008.44	1.68
0.02	293.15	0.075	1009	1.68
0.02	293.15	0.0999	1009.54	1.68
0.02	293.15	0.1249	1010.06	1.68
0.02	293.15	0.15	1010.57	1.68
0.02	298.15	0	1005.43	1.68
0.02	298.15	0.025	1006.03	1.68
0.02	298.15	0.05	1006.61	1.68
0.02	298.15	0.075	1007.18	1.68
0.02	298.15	0.0999	1007.72	1.68
0.02	298.15	0.1249	1008.24	1.68
0.02	298.15	0.15	1008.76	1.68
0.02	303.15	0	1003.6	1.69
0.02	303.15	0.025	1004.2	1.69
0.02	303.15	0.05	1004.79	1.69
0.02	303.15	0.075	1005.36	1.69
0.02	303.15	0.0999	1005.9	1.69
0.02	303.15	0.1249	1006.43	1.69
0.02	303.15	0.15	1006.94	1.69
0.02	308.15	0	1001.77	1.69
0.02	308.15	0.025	1002.38	1.69
0.02	308.15	0.05	1002.97	1.69
0.02	308.15	0.075	1003.54	1.69
0.02	308.15	0.0999	1004.09	1.69
0.02	308.15	0.1249	1004.62	1.69
0.02	308.15	0.15	1005.14	1.69
0.02	313.15	0	999.94	1.69
0.02	313.15	0.025	1000.55	1.69
0.02	313.15	0.05	1001.14	1.69
0.02	313.15	0.075	1001.72	1.69
0.02	313.15	0.0999	1002.27	1.69
0.02	313.15	0.1249	1002.8	1.69
0.02	313.15	0.15	1003.33	1.69
0.02	318.15	0	998.11	1.69
0.02	318.15	0.025	998.72	1.69
0.02	318.15	0.05	999.32	1.69
0.02	318.15	0.075	999.9	1.69
0.02	318.15	0.0999	1000.45	1.69
0.02	318.15	0.1249	1000.99	1.69
0.02	318.15	0.15	1001.52	1.69

System: L-valine + Streptomycin sulfate + water; phases: Liquid
Fixed: Pressure, kPa = 101
Property: Viscosity, Pa*s (Liquid); method: Capillary tube (Ostwald; Ubbelohde) method
Solvent: Mass fraction of Streptomycin sulfate	Temperature, K	Molality, mol/kg of L-valine	Viscosity, Pa*s	uncertainty
0.01	298.15	0	0.0009434	2.16e-05
0.01	298.15	0.025	0.0009521	2.18e-05
0.01	298.15	0.05	0.0009622	2.2e-05
0.01	298.15	0.075	0.0009729	2.23e-05
0.01	298.15	0.0999	0.0009838	2.25e-05
0.01	298.15	0.1249	0.0009951	2.28e-05
0.01	298.15	0.15	0.0010067	2.3e-05
0.01	303.15	0	0.0008493	1.95e-05
0.01	303.15	0.025	0.0008579	1.97e-05
0.01	303.15	0.05	0.0008679	1.99e-05
0.01	303.15	0.075	0.0008782	2.01e-05
0.01	303.15	0.0999	0.0008884	2.04e-05
0.01	303.15	0.1249	0.0008993	2.06e-05
0.01	303.15	0.15	0.0009102	2.09e-05
0.01	308.15	0	0.0007667	1.76e-05
0.01	308.15	0.025	0.0007754	1.78e-05
0.01	308.15	0.05	0.0007849	1.8e-05
0.01	308.15	0.075	0.0007948	1.82e-05
0.01	308.15	0.0999	0.0008048	1.85e-05
0.01	308.15	0.1249	0.0008153	1.87e-05
0.01	308.15	0.15	0.0008257	1.89e-05
0.01	313.15	0	0.0006932	1.59e-05
0.01	313.15	0.025	0.0007017	1.61e-05
0.01	313.15	0.05	0.0007108	1.63e-05
0.01	313.15	0.075	0.0007203	1.65e-05
0.01	313.15	0.0999	0.0007299	1.68e-05
0.01	313.15	0.1249	0.0007396	1.7e-05
0.01	313.15	0.15	0.0007495	1.72e-05
0.01	318.15	0	0.0006275	1.44e-05
0.01	318.15	0.025	0.0006357	1.46e-05
0.01	318.15	0.05	0.0006444	1.48e-05
0.01	318.15	0.075	0.0006534	1.5e-05
0.01	318.15	0.0999	0.0006624	1.52e-05
0.01	318.15	0.1249	0.0006717	1.54e-05
0.01	318.15	0.15	0.000681	1.57e-05
0.02	298.15	0	0.0009849	2.25e-05
0.02	298.15	0.025	0.0009952	2.28e-05
0.02	298.15	0.05	0.0010064	2.3e-05
0.02	298.15	0.075	0.0010182	2.33e-05
0.02	298.15	0.0999	0.0010302	2.36e-05
0.02	298.15	0.1249	0.0010428	2.39e-05
0.02	298.15	0.15	0.0010558	2.42e-05
0.02	303.15	0	0.0008904	2.04e-05
0.02	303.15	0.025	0.0009001	2.06e-05
0.02	303.15	0.05	0.0009109	2.09e-05
0.02	303.15	0.075	0.0009221	2.11e-05
0.02	303.15	0.0999	0.0009334	2.14e-05
0.02	303.15	0.1249	0.0009454	2.17e-05
0.02	303.15	0.15	0.0009576	2.19e-05
0.02	308.15	0	0.0008077	1.85e-05
0.02	308.15	0.025	0.000817	1.87e-05
0.02	308.15	0.05	0.0008274	1.9e-05
0.02	308.15	0.075	0.000838	1.92e-05
0.02	308.15	0.0999	0.0008487	1.95e-05
0.02	308.15	0.1249	0.0008601	1.97e-05
0.02	308.15	0.15	0.000872	2e-05
0.02	313.15	0	0.0007345	1.69e-05
0.02	313.15	0.025	0.0007434	1.71e-05
0.02	313.15	0.05	0.0007534	1.73e-05
0.02	313.15	0.075	0.0007635	1.75e-05
0.02	313.15	0.0999	0.0007739	1.78e-05
0.02	313.15	0.1249	0.0007845	1.8e-05
0.02	313.15	0.15	0.0007955	1.83e-05
0.02	318.15	0	0.0006686	1.54e-05
0.02	318.15	0.025	0.0006771	1.56e-05
0.02	318.15	0.05	0.0006866	1.58e-05
0.02	318.15	0.075	0.0006964	1.6e-05
0.02	318.15	0.0999	0.0007062	1.62e-05
0.02	318.15	0.1249	0.0007162	1.65e-05
0.02	318.15	0.15	0.0007266	1.67e-05
0	298.15	0	0.0008903	2.04e-05
0	298.15	0.025	0.0008955	2.05e-05
0	298.15	0.05	0.0009038	2.07e-05
0	298.15	0.075	0.0009129	2.09e-05
0	298.15	0.0999	0.0009222	2.11e-05
0	298.15	0.1249	0.0009318	2.13e-05
0	298.15	0.15	0.0009413	2.15e-05
0	303.15	0	0.0007973	1.83e-05
0	303.15	0.025	0.0008023	1.84e-05
0	303.15	0.05	0.0008101	1.86e-05
0	303.15	0.075	0.0008187	1.88e-05
0	303.15	0.0999	0.0008274	1.9e-05
0	303.15	0.1249	0.0008364	1.92e-05
0	303.15	0.15	0.0008456	1.94e-05
0	308.15	0	0.000719	1.65e-05
0	308.15	0.025	0.0007239	1.66e-05
0	308.15	0.05	0.0007315	1.68e-05
0	308.15	0.075	0.0007396	1.7e-05
0	308.15	0.0999	0.0007478	1.71e-05
0	308.15	0.1249	0.0007561	1.73e-05
0	308.15	0.15	0.0007648	1.75e-05
0	313.15	0	0.0006526	1.5e-05
0	313.15	0.025	0.0006573	1.51e-05
0	313.15	0.05	0.0006645	1.53e-05
0	313.15	0.075	0.0006722	1.54e-05
0	313.15	0.0999	0.0006799	1.56e-05
0	313.15	0.1249	0.0006878	1.58e-05
0	313.15	0.15	0.000696	1.6e-05
0	318.15	0	0.0005972	1.37e-05
0	318.15	0.025	0.0006017	1.38e-05
0	318.15	0.05	0.0006086	1.4e-05
0	318.15	0.075	0.0006159	1.42e-05
0	318.15	0.0999	0.0006233	1.43e-05
0	318.15	0.1249	0.000631	1.45e-05
0	318.15	0.15	0.0006386	1.47e-05

System: L-valine + Streptomycin sulfate + water; phases: Liquid
Fixed: Pressure, kPa = 101
Fixed: Frequency, MHz = 3
Property: Speed of sound, m/s (Liquid); method: Linear variable-path acoustic interferometer
Solvent: Mass fraction of Streptomycin sulfate	Temperature, K	Molality, mol/kg of L-valine	Speed of sound, m/s	uncertainty
0	298.15	0	1496.9	3.7
0	298.15	0.025	1497.3	3.7
0	298.15	0.05	1498.1	3.7
0	298.15	0.075	1499.3	3.7
0	298.15	0.0999	1500.9	3.7
0	298.15	0.1249	1502.9	3.7
0	298.15	0.15	1505.2	3.7
0	303.15	0	1508.4	3.7
0	303.15	0.025	1508.8	3.7
0	303.15	0.05	1509.6	3.7
0	303.15	0.075	1510.8	3.7
0	303.15	0.0999	1512.4	3.7
0	303.15	0.1249	1514.3	3.7
0	303.15	0.15	1516.7	3.7
0	308.15	0	1519.8	3.7
0	308.15	0.025	1520.2	3.7
0	308.15	0.05	1520.9	3.7
0	308.15	0.075	1522.1	3.7
0	308.15	0.0999	1523.7	3.7
0	308.15	0.1249	1525.7	3.7
0	308.15	0.15	1528	3.7
0	313.15	0	1526.8	3.7
0	313.15	0.025	1527.1	3.7
0	313.15	0.05	1527.9	3.7
0	313.15	0.075	1529	3.7
0	313.15	0.0999	1530.6	3.7
0	313.15	0.1249	1532.5	3.7
0	313.15	0.15	1534.8	3.7
0	318.15	0	1533	3.7
0	318.15	0.025	1533.3	3.7
0	318.15	0.05	1534	3.7
0	318.15	0.075	1535.1	3.7
0	318.15	0.0999	1536.6	3.7
0	318.15	0.1249	1538.5	3.7
0	318.15	0.15	1540.8	3.7
0.01	298.15	0	1503.8	3.7
0.01	298.15	0.025	1504.1	3.7
0.01	298.15	0.05	1504.7	3.7
0.01	298.15	0.075	1505.6	3.7
0.01	298.15	0.0999	1506.9	3.7
0.01	298.15	0.1249	1508.5	3.7
0.01	298.15	0.15	1510.5	3.7
0.01	303.15	0	1515.8	3.7
0.01	303.15	0.025	1516	3.7
0.01	303.15	0.05	1516.6	3.7
0.01	303.15	0.075	1517.6	3.7
0.01	303.15	0.0999	1518.8	3.7
0.01	303.15	0.1249	1520.5	3.7
0.01	303.15	0.15	1522.5	3.7
0.01	308.15	0	1524.8	3.7
0.01	308.15	0.025	1525	3.7
0.01	308.15	0.05	1525.5	3.7
0.01	308.15	0.075	1526.4	3.7
0.01	308.15	0.0999	1527.7	3.7
0.01	308.15	0.1249	1529.3	3.7
0.01	308.15	0.15	1531.3	3.7
0.01	313.15	0	1532.3	3.7
0.01	313.15	0.025	1532.5	3.7
0.01	313.15	0.05	1533	3.7
0.01	313.15	0.075	1533.8	3.7
0.01	313.15	0.0999	1535.1	3.7
0.01	313.15	0.1249	1536.6	3.7
0.01	313.15	0.15	1538.6	3.7
0.01	318.15	0	1539.4	3.7
0.01	318.15	0.025	1539.5	3.7
0.01	318.15	0.05	1540	3.7
0.01	318.15	0.075	1540.8	3.7
0.01	318.15	0.0999	1542	3.7
0.01	318.15	0.1249	1543.5	3.7
0.01	318.15	0.15	1545.4	3.7
0.02	298.15	0	1507.2	3.7
0.02	298.15	0.025	1507.4	3.7
0.02	298.15	0.05	1508	3.7
0.02	298.15	0.075	1508.9	3.7
0.02	298.15	0.0999	1510.2	3.7
0.02	298.15	0.1249	1511.9	3.7
0.02	298.15	0.15	1513.9	3.7
0.02	303.15	0	1519.7	3.7
0.02	303.15	0.025	1519.9	3.7
0.02	303.15	0.05	1520.4	3.7
0.02	303.15	0.075	1521.3	3.7
0.02	303.15	0.0999	1522.5	3.7
0.02	303.15	0.1249	1524.2	3.7
0.02	303.15	0.15	1526.1	3.7
0.02	308.15	0	1528.8	3.7
0.02	308.15	0.025	1528.9	3.7
0.02	308.15	0.05	1529.4	3.7
0.02	308.15	0.075	1530.2	3.7
0.02	308.15	0.0999	1531.4	3.7
0.02	308.15	0.1249	1533	3.7
0.02	308.15	0.15	1534.9	3.7
0.02	313.15	0	1536.9	3.7
0.02	313.15	0.025	1537	3.7
0.02	313.15	0.05	1537.4	3.7
0.02	313.15	0.075	1538.2	3.7
0.02	313.15	0.0999	1539.3	3.7
0.02	313.15	0.1249	1540.8	3.7
0.02	313.15	0.15	1542.6	3.7
0.02	318.15	0	1543.3	3.7
0.02	318.15	0.025	1543.3	3.7
0.02	318.15	0.05	1543.7	3.7
0.02	318.15	0.075	1544.4	3.7
0.02	318.15	0.0999	1545.5	3.7
0.02	318.15	0.1249	1546.9	3.7
0.02	318.15	0.15	1548.7	3.7

System: 2-amino-3-methylpentanoic acid + Streptomycin sulfate + water; phases: Liquid
Fixed: Pressure, kPa = 101
Property: Mass density, kg/m3 (Liquid); method: Pycnometric method
Solvent: Mass fraction of Streptomycin sulfate	Temperature, K	Molality, mol/kg of 2-amino-3-methylpentanoic acid	Mass density, kg/m3	uncertainty
0.01	293.15	0	1002.76	1.69
0.01	293.15	0.025	1003.36	1.69
0.01	293.15	0.05	1003.95	1.69
0.01	293.15	0.075	1004.52	1.69
0.01	293.15	0.0999	1005.07	1.69
0.01	293.15	0.1249	1005.6	1.69
0.01	293.15	0.15	1006.12	1.69
0.01	298.15	0	1001.29	1.69
0.01	298.15	0.025	1001.9	1.69
0.01	298.15	0.05	1002.49	1.69
0.01	298.15	0.075	1003.06	1.69
0.01	298.15	0.0999	1003.61	1.69
0.01	298.15	0.1249	1004.14	1.69
0.01	298.15	0.15	1004.66	1.69
0.01	303.15	0	999.81	1.69
0.01	303.15	0.025	1000.42	1.69
0.01	303.15	0.05	1001.01	1.69
0.01	303.15	0.075	1001.58	1.69
0.01	303.15	0.0999	1002.13	1.69
0.01	303.15	0.1249	1002.67	1.69
0.01	303.15	0.15	1003.19	1.69
0.01	308.15	0	998.34	1.69
0.01	308.15	0.025	998.95	1.69
0.01	308.15	0.05	999.54	1.69
0.01	308.15	0.075	1000.12	1.69
0.01	308.15	0.0999	1000.67	1.69
0.01	308.15	0.1249	1001.21	1.69
0.01	308.15	0.15	1001.73	1.69
0.01	313.15	0	996.86	1.69
0.01	313.15	0.025	997.47	1.69
0.01	313.15	0.05	998.07	1.69
0.01	313.15	0.075	998.64	1.69
0.01	313.15	0.0999	999.19	1.69
0.01	313.15	0.1249	999.73	1.69
0.01	313.15	0.15	1000.25	1.69
0.01	318.15	0	995.39	1.69
0.01	318.15	0.025	996	1.69
0.01	318.15	0.05	996.6	1.69
0.01	318.15	0.075	997.18	1.69
0.01	318.15	0.0999	997.73	1.69
0.01	318.15	0.1249	998.27	1.69
0.01	318.15	0.15	998.79	1.69
0.02	293.15	0	1007.26	1.69
0.02	293.15	0.025	1007.83	1.69
0.02	293.15	0.05	1008.39	1.69
0.02	293.15	0.075	1008.93	1.69
0.02	293.15	0.0999	1009.45	1.69
0.02	293.15	0.1249	1009.96	1.69
0.02	293.15	0.15	1010.46	1.69
0.02	298.15	0	1005.43	1.69
0.02	298.15	0.025	1006.01	1.69
0.02	298.15	0.05	1006.57	1.69
0.02	298.15	0.075	1007.11	1.69
0.02	298.15	0.0999	1007.64	1.69
0.02	298.15	0.1249	1008.15	1.69
0.02	298.15	0.15	1008.65	1.69
0.02	303.15	0	1003.6	1.69
0.02	303.15	0.025	1004.18	1.69
0.02	303.15	0.05	1004.74	1.69
0.02	303.15	0.075	1005.29	1.69
0.02	303.15	0.0999	1005.82	1.69
0.02	303.15	0.1249	1006.34	1.69
0.02	303.15	0.15	1006.84	1.69
0.02	308.15	0	1001.77	1.69
0.02	308.15	0.025	1002.35	1.69
0.02	308.15	0.05	1002.92	1.69
0.02	308.15	0.075	1003.47	1.69
0.02	308.15	0.0999	1004.01	1.69
0.02	308.15	0.1249	1004.53	1.69
0.02	308.15	0.15	1005.04	1.69
0.02	313.15	0	999.94	1.69
0.02	313.15	0.025	1000.53	1.69
0.02	313.15	0.05	1001.1	1.69
0.02	313.15	0.075	1001.66	1.69
0.02	313.15	0.0999	1002.19	1.69
0.02	313.15	0.1249	1002.72	1.69
0.02	313.15	0.15	1003.23	1.69
0.02	318.15	0	998.11	1.69
0.02	318.15	0.025	998.7	1.69
0.02	318.15	0.05	999.28	1.69
0.02	318.15	0.075	999.84	1.69
0.02	318.15	0.0999	1000.38	1.69
0.02	318.15	0.1249	1000.91	1.69
0.02	318.15	0.15	1001.43	1.69
0	293.15	0	998.24	1.68
0	293.15	0.025	998.88	1.68
0	293.15	0.05	999.5	1.68
0	293.15	0.075	1000.1	1.68
0	293.15	0.0999	1000.68	1.68
0	293.15	0.1249	1001.24	1.68
0	293.15	0.15	1001.78	1.68
0	298.15	0	997.07	1.68
0	298.15	0.025	997.71	1.68
0	298.15	0.05	998.33	1.68
0	298.15	0.075	998.93	1.68
0	298.15	0.0999	999.51	1.68
0	298.15	0.1249	1000.07	1.68
0	298.15	0.15	1000.61	1.68
0	303.15	0	995.68	1.69
0	303.15	0.025	996.32	1.69
0	303.15	0.05	996.94	1.69
0	303.15	0.075	997.54	1.69
0	303.15	0.0999	998.12	1.69
0	303.15	0.1249	998.68	1.69
0	303.15	0.15	999.22	1.69
0	308.15	0	994.07	1.69
0	308.15	0.025	994.71	1.69
0	308.15	0.05	995.34	1.69
0	308.15	0.075	995.94	1.69
0	308.15	0.0999	996.52	1.69
0	308.15	0.1249	997.08	1.69
0	308.15	0.15	997.62	1.69
0	313.15	0	992.25	1.69
0	313.15	0.025	992.9	1.69
0	313.15	0.05	993.52	1.69
0	313.15	0.075	994.13	1.69
0	313.15	0.0999	994.71	1.69
0	313.15	0.1249	995.27	1.69
0	313.15	0.15	995.82	1.69
0	318.15	0	990.24	1.69
0	318.15	0.025	990.89	1.69
0	318.15	0.05	991.52	1.69
0	318.15	0.075	992.13	1.69
0	318.15	0.0999	992.72	1.69
0	318.15	0.1249	993.28	1.69
0	318.15	0.15	993.83	1.69

System: 2-amino-3-methylpentanoic acid + Streptomycin sulfate + water; phases: Liquid
Fixed: Pressure, kPa = 101
Property: Viscosity, Pa*s (Liquid); method: Capillary tube (Ostwald; Ubbelohde) method
Solvent: Mass fraction of Streptomycin sulfate	Temperature, K	Molality, mol/kg of 2-amino-3-methylpentanoic acid	Viscosity, Pa*s	uncertainty
0.01	298.15	0	0.0009434	2.16e-05
0.01	298.15	0.025	0.0009534	2.19e-05
0.01	298.15	0.05	0.0009654	2.21e-05
0.01	298.15	0.075	0.000978	2.24e-05
0.01	298.15	0.0999	0.000991	2.27e-05
0.01	298.15	0.1249	0.0010045	2.3e-05
0.01	298.15	0.15	0.0010185	2.34e-05
0.01	303.15	0	0.0008493	1.95e-05
0.01	303.15	0.025	0.0008591	1.97e-05
0.01	303.15	0.05	0.0008706	2e-05
0.01	303.15	0.075	0.0008827	2.03e-05
0.01	303.15	0.0999	0.0008951	2.06e-05
0.01	303.15	0.1249	0.0009077	2.08e-05
0.01	303.15	0.15	0.0009207	2.11e-05
0.01	308.15	0	0.0007667	1.76e-05
0.01	308.15	0.025	0.0007763	1.79e-05
0.01	308.15	0.05	0.0007874	1.81e-05
0.01	308.15	0.075	0.0007991	1.84e-05
0.01	308.15	0.0999	0.0008106	1.86e-05
0.01	308.15	0.1249	0.0008227	1.89e-05
0.01	308.15	0.15	0.0008351	1.92e-05
0.01	313.15	0	0.0006932	1.6e-05
0.01	313.15	0.025	0.0007026	1.62e-05
0.01	313.15	0.05	0.000713	1.64e-05
0.01	313.15	0.075	0.0007239	1.67e-05
0.01	313.15	0.0999	0.0007349	1.69e-05
0.01	313.15	0.1249	0.0007464	1.72e-05
0.01	313.15	0.15	0.0007583	1.74e-05
0.01	318.15	0	0.0006275	1.45e-05
0.01	318.15	0.025	0.0006366	1.47e-05
0.01	318.15	0.05	0.0006465	1.49e-05
0.01	318.15	0.075	0.0006568	1.51e-05
0.01	318.15	0.0999	0.0006675	1.54e-05
0.01	318.15	0.1249	0.0006782	1.56e-05
0.01	318.15	0.15	0.0006891	1.59e-05
0.02	298.15	0	0.0009849	2.26e-05
0.02	298.15	0.025	0.0009962	2.28e-05
0.02	298.15	0.05	0.0010093	2.31e-05
0.02	298.15	0.075	0.0010229	2.34e-05
0.02	298.15	0.0999	0.0010369	2.38e-05
0.02	298.15	0.1249	0.0010512	2.41e-05
0.02	298.15	0.15	0.001066	2.44e-05
0.02	303.15	0	0.0008904	2.04e-05
0.02	303.15	0.025	0.000901	2.07e-05
0.02	303.15	0.05	0.0009132	2.1e-05
0.02	303.15	0.075	0.0009262	2.13e-05
0.02	303.15	0.0999	0.0009393	2.16e-05
0.02	303.15	0.1249	0.0009528	2.19e-05
0.02	303.15	0.15	0.0009667	2.22e-05
0.02	308.15	0	0.0008077	1.86e-05
0.02	308.15	0.025	0.0008177	1.88e-05
0.02	308.15	0.05	0.0008293	1.91e-05
0.02	308.15	0.075	0.0008415	1.93e-05
0.02	308.15	0.0999	0.000854	1.96e-05
0.02	308.15	0.1249	0.0008668	1.99e-05
0.02	308.15	0.15	0.0008798	2.02e-05
0.02	313.15	0	0.0007345	1.69e-05
0.02	313.15	0.025	0.000744	1.71e-05
0.02	313.15	0.05	0.000755	1.74e-05
0.02	313.15	0.075	0.0007666	1.76e-05
0.02	313.15	0.0999	0.0007783	1.79e-05
0.02	313.15	0.1249	0.0007904	1.82e-05
0.02	313.15	0.15	0.0008026	1.84e-05
0.02	318.15	0	0.0006686	1.54e-05
0.02	318.15	0.025	0.0006776	1.56e-05
0.02	318.15	0.05	0.0006881	1.58e-05
0.02	318.15	0.075	0.0006991	1.61e-05
0.02	318.15	0.0999	0.0007103	1.63e-05
0.02	318.15	0.1249	0.0007215	1.66e-05
0.02	318.15	0.15	0.000733	1.69e-05
0	298.15	0	0.0008903	2.04e-05
0	298.15	0.025	0.000896	2.05e-05
0	298.15	0.05	0.0009057	2.08e-05
0	298.15	0.075	0.0009164	2.1e-05
0	298.15	0.0999	0.0009273	2.13e-05
0	298.15	0.1249	0.0009386	2.15e-05
0	298.15	0.15	0.0009502	2.18e-05
0	303.15	0	0.0007973	1.83e-05
0	303.15	0.025	0.0008028	1.84e-05
0	303.15	0.05	0.0008118	1.86e-05
0	303.15	0.075	0.0008217	1.89e-05
0	303.15	0.0999	0.0008319	1.91e-05
0	303.15	0.1249	0.0008423	1.93e-05
0	303.15	0.15	0.0008531	1.96e-05
0	308.15	0	0.000719	1.65e-05
0	308.15	0.025	0.0007244	1.66e-05
0	308.15	0.05	0.000733	1.68e-05
0	308.15	0.075	0.0007422	1.71e-05
0	308.15	0.0999	0.0007516	1.73e-05
0	308.15	0.1249	0.0007613	1.75e-05
0	308.15	0.15	0.0007714	1.77e-05
0	313.15	0	0.0006526	1.5e-05
0	313.15	0.025	0.0006578	1.51e-05
0	313.15	0.05	0.0006658	1.53e-05
0	313.15	0.075	0.0006745	1.55e-05
0	313.15	0.0999	0.0006834	1.57e-05
0	313.15	0.1249	0.0006925	1.59e-05
0	313.15	0.15	0.000702	1.61e-05
0	318.15	0	0.0005972	1.38e-05
0	318.15	0.025	0.0006022	1.39e-05
0	318.15	0.05	0.0006098	1.4e-05
0	318.15	0.075	0.0006181	1.42e-05
0	318.15	0.0999	0.0006265	1.44e-05
0	318.15	0.1249	0.0006351	1.46e-05
0	318.15	0.15	0.0006438	1.48e-05

System: 2-amino-3-methylpentanoic acid + Streptomycin sulfate + water; phases: Liquid
Fixed: Pressure, kPa = 101
Fixed: Frequency, MHz = 3
Property: Speed of sound, m/s (Liquid); method: Linear variable-path acoustic interferometer
Solvent: Mass fraction of Streptomycin sulfate	Temperature, K	Molality, mol/kg of 2-amino-3-methylpentanoic acid	Speed of sound, m/s	uncertainty
0	298.15	0	1496.9	3.7
0	298.15	0.025	1497.2	3.7
0	298.15	0.05	1497.9	3.7
0	298.15	0.075	1499	3.7
0	298.15	0.0999	1500.5	3.7
0	298.15	0.1249	1502.4	3.7
0	298.15	0.15	1504.7	3.7
0	303.15	0	1508.4	3.7
0	303.15	0.025	1508.7	3.7
0	303.15	0.05	1509.4	3.7
0	303.15	0.075	1510.5	3.7
0	303.15	0.0999	1512	3.7
0	303.15	0.1249	1513.9	3.7
0	303.15	0.15	1516.2	3.7
0	308.15	0	1519.8	3.7
0	308.15	0.025	1520.1	3.7
0	308.15	0.05	1520.7	3.7
0	308.15	0.075	1521.8	3.7
0	308.15	0.0999	1523.3	3.7
0	308.15	0.1249	1525.1	3.7
0	308.15	0.15	1527.4	3.7
0	313.15	0	1526.8	3.7
0	313.15	0.025	1527	3.7
0	313.15	0.05	1527.7	3.7
0	313.15	0.075	1528.7	3.7
0	313.15	0.0999	1530.2	3.7
0	313.15	0.1249	1532	3.7
0	313.15	0.15	1534.2	3.7
0	318.15	0	1533	3.7
0	318.15	0.025	1533.2	3.7
0	318.15	0.05	1533.8	3.7
0	318.15	0.075	1534.8	3.7
0	318.15	0.0999	1536.2	3.7
0	318.15	0.1249	1538	3.7
0	318.15	0.15	1540.1	3.7
0.01	298.15	0	1503.8	3.7
0.01	298.15	0.025	1503.9	3.7
0.01	298.15	0.05	1504.3	3.7
0.01	298.15	0.075	1505	3.7
0.01	298.15	0.0999	1506	3.7
0.01	298.15	0.1249	1507.3	3.7
0.01	298.15	0.15	1508.8	3.7
0.01	303.15	0	1515.8	3.7
0.01	303.15	0.025	1515.9	3.7
0.01	303.15	0.05	1516.3	3.7
0.01	303.15	0.075	1516.9	3.7
0.01	303.15	0.0999	1517.9	3.7
0.01	303.15	0.1249	1519.1	3.7
0.01	303.15	0.15	1520.7	3.7
0.01	308.15	0	1524.8	3.7
0.01	308.15	0.025	1524.8	3.7
0.01	308.15	0.05	1525.2	3.7
0.01	308.15	0.075	1525.8	3.7
0.01	308.15	0.0999	1526.8	3.7
0.01	308.15	0.1249	1528	3.7
0.01	308.15	0.15	1529.5	3.7
0.01	313.15	0	1532.3	3.7
0.01	313.15	0.025	1532.3	3.7
0.01	313.15	0.05	1532.6	3.7
0.01	313.15	0.075	1533.2	3.7
0.01	313.15	0.0999	1534.1	3.7
0.01	313.15	0.1249	1535.3	3.7
0.01	313.15	0.15	1536.8	3.7
0.01	318.15	0	1539.5	3.7
0.01	318.15	0.025	1539.4	3.7
0.01	318.15	0.05	1539.7	3.7
0.01	318.15	0.075	1540.3	3.7
0.01	318.15	0.0999	1541.2	3.7
0.01	318.15	0.1249	1542.3	3.7
0.01	318.15	0.15	1543.8	3.7
0.02	298.15	0	1507.2	3.7
0.02	298.15	0.025	1507.2	3.7
0.02	298.15	0.05	1507.5	3.7
0.02	298.15	0.075	1508.1	3.7
0.02	298.15	0.0999	1509.1	3.7
0.02	298.15	0.1249	1510.3	3.7
0.02	298.15	0.15	1511.7	3.7
0.02	303.15	0	1519.7	3.7
0.02	303.15	0.025	1519.7	3.7
0.02	303.15	0.05	1520	3.7
0.02	303.15	0.075	1520.5	3.7
0.02	303.15	0.0999	1521.4	3.7
0.02	303.15	0.1249	1522.6	3.7
0.02	303.15	0.15	1524	3.7
0.02	308.15	0	1528.8	3.7
0.02	308.15	0.025	1528.7	3.7
0.02	308.15	0.05	1528.9	3.7
0.02	308.15	0.075	1529.5	3.7
0.02	308.15	0.0999	1530.3	3.7
0.02	308.15	0.1249	1531.4	3.7
0.02	308.15	0.15	1532.8	3.7
0.02	313.15	0	1536.9	3.7
0.02	313.15	0.025	1536.8	3.7
0.02	313.15	0.05	1537	3.7
0.02	313.15	0.075	1537.5	3.7
0.02	313.15	0.0999	1538.2	3.7
0.02	313.15	0.1249	1539.3	3.7
0.02	313.15	0.15	1540.6	3.7
0.02	318.15	0	1543.3	3.7
0.02	318.15	0.025	1543.1	3.7
0.02	318.15	0.05	1543.3	3.7
0.02	318.15	0.075	1543.7	3.7
0.02	318.15	0.0999	1544.4	3.7
0.02	318.15	0.1249	1545.4	3.7
0.02	318.15	0.15	1546.7	3.7

System: Streptomycin sulfate + water; phases: Liquid
Fixed: Pressure, kPa = 101
Property: Mass density, kg/m3 (Liquid); method: Pycnometric method
Mass fraction of Streptomycin sulfate	Temperature, K	Mass density, kg/m3	uncertainty
0.01	293.15	1002.76	1.68
0.01	298.15	1001.29	1.68
0.01	303.15	999.81	1.68
0.01	308.15	998.34	1.69
0.01	313.15	996.86	1.69
0.01	318.15	995.39	1.69
0.02	293.15	1007.26	1.68
0.02	298.15	1005.43	1.68
0.02	303.15	1003.6	1.68
0.02	308.15	1001.77	1.69
0.02	313.15	999.94	1.69
0.02	318.15	998.11	1.69

System: Streptomycin sulfate + water; phases: Liquid
Fixed: Pressure, kPa = 101
Property: Viscosity, Pa*s (Liquid); method: Capillary tube (Ostwald; Ubbelohde) method
Mass fraction of Streptomycin sulfate	Temperature, K	Viscosity, Pa*s	uncertainty
0.01	298.15	0.0009434	2.16e-05
0.01	303.15	0.0008493	1.94e-05
0.01	308.15	0.0007667	1.76e-05
0.01	313.15	0.0006932	1.59e-05
0.01	318.15	0.0006275	1.44e-05
0.02	298.15	0.0009849	2.25e-05
0.02	303.15	0.0008904	2.04e-05
0.02	308.15	0.0008077	1.85e-05
0.02	313.15	0.0007345	1.68e-05
0.02	318.15	0.0006686	1.53e-05

System: Streptomycin sulfate + water; phases: Liquid
Fixed: Pressure, kPa = 101
Fixed: Frequency, MHz = 3
Property: Speed of sound, m/s (Liquid); method: Linear variable-path acoustic interferometer
Mass fraction of Streptomycin sulfate	Temperature, K	Speed of sound, m/s	uncertainty
0.01	298.15	1503.8	3.7
0.01	303.15	1515.8	3.7
0.01	308.15	1524.8	3.7
0.01	313.15	1532.3	3.7
0.01	318.15	1539.4	3.7
0.02	298.15	1507.2	3.7
0.02	303.15	1519.7	3.7
0.02	308.15	1528.8	3.7
0.02	313.15	1536.9	3.7
0.02	318.15	1543.3	3.7
0.01	318.15	1539.5	3.7

System: 2-aminoacetic acid + water; phases: Liquid
Fixed: Pressure, kPa = 101
Property: Mass density, kg/m3 (Liquid); method: Pycnometric method
Temperature, K	Molality, mol/kg of 2-aminoacetic acid	Mass density, kg/m3	uncertainty
293.15	0.025	999.03	1.68
293.15	0.05	999.8	1.68
293.15	0.075	1000.55	1.68
293.15	0.0999	1001.28	1.68
293.15	0.1249	1001.99	1.68
293.15	0.15	1002.68	1.68
298.15	0.025	997.86	1.68
298.15	0.05	998.63	1.68
298.15	0.075	999.38	1.68
298.15	0.0999	1000.11	1.68
298.15	0.1249	1000.82	1.68
298.15	0.15	1001.51	1.68
303.15	0.025	996.47	1.68
303.15	0.05	997.24	1.68
303.15	0.075	997.99	1.68
303.15	0.0999	998.72	1.68
303.15	0.1249	999.43	1.68
303.15	0.15	1000.12	1.68
308.15	0.025	994.86	1.68
308.15	0.05	995.63	1.68
308.15	0.075	996.39	1.68
308.15	0.0999	997.12	1.68
308.15	0.1249	997.83	1.68
308.15	0.15	998.52	1.68
313.15	0.025	993.05	1.69
313.15	0.05	993.82	1.69
313.15	0.075	994.57	1.69
313.15	0.0999	995.31	1.69
313.15	0.1249	996.02	1.69
313.15	0.15	996.71	1.69
318.15	0.025	991.04	1.69
318.15	0.05	991.82	1.69
318.15	0.075	992.57	1.69
318.15	0.0999	993.31	1.69
318.15	0.1249	994.02	1.69
318.15	0.15	994.72	1.69

System: 2-aminoacetic acid + water; phases: Liquid
Fixed: Pressure, kPa = 101
Property: Viscosity, Pa*s (Liquid); method: Capillary tube (Ostwald; Ubbelohde) method
Temperature, K	Molality, mol/kg of 2-aminoacetic acid	Viscosity, Pa*s	uncertainty
298.15	0.025	0.0008918	2.04e-05
298.15	0.05	0.0008942	2.04e-05
298.15	0.075	0.0008968	2.05e-05
298.15	0.0999	0.0008995	2.06e-05
298.15	0.1249	0.0009024	2.06e-05
298.15	0.15	0.0009053	2.07e-05
303.15	0.025	0.0007987	1.83e-05
303.15	0.05	0.000801	1.83e-05
303.15	0.075	0.0008035	1.84e-05
303.15	0.0999	0.0008061	1.84e-05
303.15	0.1249	0.0008089	1.85e-05
303.15	0.15	0.0008117	1.86e-05
308.15	0.025	0.0007205	1.65e-05
308.15	0.05	0.0007227	1.66e-05
308.15	0.075	0.0007251	1.66e-05
308.15	0.0999	0.0007276	1.67e-05
308.15	0.1249	0.0007302	1.67e-05
308.15	0.15	0.000733	1.68e-05
313.15	0.025	0.0006541	1.5e-05
313.15	0.05	0.0006562	1.5e-05
313.15	0.075	0.0006585	1.51e-05
313.15	0.0999	0.0006609	1.52e-05
313.15	0.1249	0.0006634	1.52e-05
313.15	0.15	0.000666	1.53e-05
318.15	0.025	0.0005986	1.37e-05
318.15	0.05	0.0006007	1.38e-05
318.15	0.075	0.0006029	1.38e-05
318.15	0.0999	0.0006052	1.39e-05
318.15	0.1249	0.0006076	1.39e-05
318.15	0.15	0.0006099	1.4e-05

System: 2-aminoacetic acid + water; phases: Liquid
Fixed: Pressure, kPa = 101
Fixed: Frequency, MHz = 3
Property: Speed of sound, m/s (Liquid); method: Linear variable-path acoustic interferometer
Temperature, K	Molality, mol/kg of 2-aminoacetic acid	Speed of sound, m/s	uncertainty
298.15	0.025	1497.5	3.7
298.15	0.05	1498.5	3.7
298.15	0.075	1499.7	3.7
298.15	0.0999	1501.3	3.7
298.15	0.1249	1503.1	3.7
298.15	0.15	1505.3	3.7
303.15	0.025	1509	3.7
303.15	0.05	1509.9	3.7
303.15	0.075	1511.2	3.7
303.15	0.0999	1512.7	3.7
303.15	0.1249	1514.6	3.7
303.15	0.15	1516.7	3.7
308.15	0.025	1520.4	3.7
308.15	0.05	1521.3	3.7
308.15	0.075	1522.5	3.7
308.15	0.0999	1524.1	3.7
308.15	0.1249	1525.9	3.7
308.15	0.15	1528	3.7
313.15	0.025	1527.3	3.7
313.15	0.05	1528.2	3.7
313.15	0.075	1529.4	3.7
313.15	0.0999	1530.9	3.7
313.15	0.1249	1532.7	3.7
313.15	0.15	1534.8	3.7
318.15	0.025	1533.5	3.7
318.15	0.05	1534.3	3.7
318.15	0.075	1535.5	3.7
318.15	0.0999	1537	3.7
318.15	0.1249	1538.7	3.7
318.15	0.15	1540.8	3.7

System: (S)-2-aminopropanoic acid + water; phases: Liquid
Fixed: Pressure, kPa = 101
Property: Mass density, kg/m3 (Liquid); method: Pycnometric method
Temperature, K	Molality, mol/kg of (S)-2-aminopropanoic acid	Mass density, kg/m3	uncertainty
293.15	0.025	998.96	1.68
293.15	0.05	999.66	1.68
293.15	0.075	1000.34	1.68
293.15	0.0999	1001	1.68
293.15	0.1249	1001.64	1.68
293.15	0.15	1002.26	1.68
298.15	0.025	997.79	1.68
298.15	0.05	998.49	1.68
298.15	0.075	999.17	1.68
298.15	0.0999	999.83	1.68
298.15	0.1249	1000.47	1.68
298.15	0.15	1001.09	1.68
303.15	0.025	996.4	1.68
303.15	0.05	997.1	1.68
303.15	0.075	997.78	1.68
303.15	0.0999	998.44	1.68
303.15	0.1249	999.08	1.68
303.15	0.15	999.7	1.68
308.15	0.025	994.79	1.69
308.15	0.05	995.49	1.69
308.15	0.075	996.17	1.69
308.15	0.0999	996.83	1.69
308.15	0.1249	997.47	1.69
308.15	0.15	998.09	1.69
313.15	0.025	992.97	1.69
313.15	0.05	993.67	1.69
313.15	0.075	994.36	1.69
313.15	0.0999	995.01	1.69
313.15	0.1249	995.66	1.69
313.15	0.15	996.28	1.69
318.15	0.025	990.97	1.69
318.15	0.05	991.67	1.69
318.15	0.075	992.35	1.69
318.15	0.0999	993.01	1.69
318.15	0.1249	993.65	1.69
318.15	0.15	994.27	1.69

System: (S)-2-aminopropanoic acid + water; phases: Liquid
Fixed: Pressure, kPa = 101
Property: Viscosity, Pa*s (Liquid); method: Capillary tube (Ostwald; Ubbelohde) method
Temperature, K	Molality, mol/kg of (S)-2-aminopropanoic acid	Viscosity, Pa*s	uncertainty
298.15	0.025	0.0008958	2.05e-05
298.15	0.05	0.0009013	2.06e-05
298.15	0.075	0.0009069	2.08e-05
298.15	0.0999	0.0009126	2.09e-05
298.15	0.1249	0.0009183	2.1e-05
298.15	0.15	0.0009242	2.11e-05
303.15	0.025	0.0008023	1.84e-05
303.15	0.05	0.0008076	1.85e-05
303.15	0.075	0.0008128	1.86e-05
303.15	0.0999	0.0008182	1.87e-05
303.15	0.1249	0.0008235	1.89e-05
303.15	0.15	0.000829	1.9e-05
308.15	0.025	0.0007238	1.66e-05
308.15	0.05	0.0007288	1.67e-05
308.15	0.075	0.0007338	1.68e-05
308.15	0.0999	0.0007389	1.69e-05
308.15	0.1249	0.0007439	1.71e-05
308.15	0.15	0.000749	1.72e-05
313.15	0.025	0.0006571	1.51e-05
313.15	0.05	0.0006618	1.52e-05
313.15	0.075	0.0006666	1.53e-05
313.15	0.0999	0.0006714	1.54e-05
313.15	0.1249	0.0006761	1.55e-05
313.15	0.15	0.0006809	1.56e-05
318.15	0.025	0.0006014	1.38e-05
318.15	0.05	0.0006059	1.39e-05
318.15	0.075	0.0006104	1.4e-05
318.15	0.0999	0.0006149	1.41e-05
318.15	0.1249	0.0006195	1.42e-05
318.15	0.15	0.000624	1.43e-05

System: (S)-2-aminopropanoic acid + water; phases: Liquid
Fixed: Pressure, kPa = 101
Fixed: Frequency, MHz = 3
Property: Speed of sound, m/s (Liquid); method: Linear variable-path acoustic interferometer
Temperature, K	Molality, mol/kg of (S)-2-aminopropanoic acid	Speed of sound, m/s	uncertainty
298.15	0.025	1497.5	3.7
298.15	0.05	1498.5	3.7
298.15	0.075	1499.8	3.7
298.15	0.0999	1501.5	3.7
298.15	0.1249	1503.5	3.7
298.15	0.15	1505.9	3.7
303.15	0.025	1509	3.7
303.15	0.05	1510	3.7
303.15	0.075	1511.3	3.7
303.15	0.0999	1512.9	3.7
303.15	0.1249	1514.9	3.7
303.15	0.15	1517.3	3.7
308.15	0.025	1520.4	3.7
308.15	0.05	1521.3	3.7
308.15	0.075	1522.6	3.7
308.15	0.0999	1524.3	3.7
308.15	0.1249	1526.3	3.7
308.15	0.15	1528.6	3.7
313.15	0.025	1527.3	3.7
313.15	0.05	1528.2	3.7
313.15	0.075	1529.5	3.7
313.15	0.0999	1531.1	3.7
313.15	0.1249	1533.1	3.7
313.15	0.15	1535.4	3.7
318.15	0.025	1533.5	3.7
318.15	0.05	1534.4	3.7
318.15	0.075	1535.6	3.7
318.15	0.0999	1537.2	3.7
318.15	0.1249	1539.1	3.7
318.15	0.15	1541.4	3.7

System: L-valine + water; phases: Liquid
Fixed: Pressure, kPa = 101
Property: Mass density, kg/m3 (Liquid); method: Pycnometric method
Temperature, K	Molality, mol/kg of L-valine	Mass density, kg/m3	uncertainty
293.15	0.025	998.91	1.68
293.15	0.05	999.55	1.68
293.15	0.075	1000.18	1.68
293.15	0.0999	1000.79	1.68
293.15	0.1249	1001.39	1.68
293.15	0.15	1001.96	1.68
298.15	0.025	997.74	1.68
298.15	0.05	998.38	1.68
298.15	0.075	999.01	1.68
298.15	0.0999	999.62	1.68
298.15	0.1249	1000.21	1.68
298.15	0.15	1000.78	1.68
303.15	0.025	996.35	1.68
303.15	0.05	997	1.68
303.15	0.075	997.63	1.68
303.15	0.0999	998.23	1.68
303.15	0.1249	998.83	1.68
303.15	0.15	999.4	1.68
308.15	0.025	994.74	1.69
308.15	0.05	995.39	1.69
308.15	0.075	996.02	1.69
308.15	0.0999	996.63	1.69
308.15	0.1249	997.23	1.69
308.15	0.15	997.81	1.69
313.15	0.025	992.92	1.69
313.15	0.05	993.58	1.69
313.15	0.075	994.21	1.69
313.15	0.0999	994.82	1.69
313.15	0.1249	995.42	1.69
313.15	0.15	996	1.69
318.15	0.025	990.92	1.69
318.15	0.05	991.58	1.69
318.15	0.075	992.21	1.69
318.15	0.0999	992.83	1.69
318.15	0.1249	993.43	1.69
318.15	0.15	994.02	1.69

System: L-valine + water; phases: Liquid
Fixed: Pressure, kPa = 101
Property: Viscosity, Pa*s (Liquid); method: Capillary tube (Ostwald; Ubbelohde) method
Temperature, K	Molality, mol/kg of L-valine	Viscosity, Pa*s	uncertainty
298.15	0.025	0.0008955	2.05e-05
298.15	0.05	0.0009038	2.07e-05
298.15	0.075	0.0009129	2.09e-05
298.15	0.0999	0.0009222	2.11e-05
298.15	0.1249	0.0009318	2.13e-05
298.15	0.15	0.0009413	2.15e-05
303.15	0.025	0.0008023	1.84e-05
303.15	0.05	0.0008101	1.86e-05
303.15	0.075	0.0008187	1.88e-05
303.15	0.0999	0.0008274	1.9e-05
303.15	0.1249	0.0008364	1.92e-05
303.15	0.15	0.0008456	1.94e-05
308.15	0.025	0.0007239	1.66e-05
308.15	0.05	0.0007315	1.68e-05
308.15	0.075	0.0007396	1.7e-05
308.15	0.0999	0.0007478	1.71e-05
308.15	0.1249	0.0007561	1.73e-05
308.15	0.15	0.0007648	1.75e-05
313.15	0.025	0.0006573	1.51e-05
313.15	0.05	0.0006645	1.53e-05
313.15	0.075	0.0006722	1.54e-05
313.15	0.0999	0.0006799	1.56e-05
313.15	0.1249	0.0006878	1.58e-05
313.15	0.15	0.000696	1.6e-05
318.15	0.025	0.0006017	1.38e-05
318.15	0.05	0.0006086	1.4e-05
318.15	0.075	0.0006159	1.42e-05
318.15	0.0999	0.0006233	1.43e-05
318.15	0.1249	0.000631	1.45e-05
318.15	0.15	0.0006386	1.47e-05

System: L-valine + water; phases: Liquid
Fixed: Pressure, kPa = 101
Fixed: Frequency, MHz = 3
Property: Speed of sound, m/s (Liquid); method: Linear variable-path acoustic interferometer
Temperature, K	Molality, mol/kg of L-valine	Speed of sound, m/s	uncertainty
298.15	0.025	1497.3	3.7
298.15	0.05	1498.1	3.7
298.15	0.075	1499.3	3.7
298.15	0.0999	1500.9	3.7
298.15	0.1249	1502.9	3.7
298.15	0.15	1505.2	3.7
303.15	0.025	1508.8	3.7
303.15	0.05	1509.6	3.7
303.15	0.075	1510.8	3.7
303.15	0.0999	1512.4	3.7
303.15	0.1249	1514.3	3.7
303.15	0.15	1516.7	3.7
308.15	0.025	1520.2	3.7
308.15	0.05	1520.9	3.7
308.15	0.075	1522.1	3.7
308.15	0.0999	1523.7	3.7
308.15	0.1249	1525.7	3.7
308.15	0.15	1528	3.7
313.15	0.025	1527.1	3.7
313.15	0.05	1527.9	3.7
313.15	0.075	1529	3.7
313.15	0.0999	1530.6	3.7
313.15	0.1249	1532.5	3.7
313.15	0.15	1534.8	3.7
318.15	0.025	1533.3	3.7
318.15	0.05	1534	3.7
318.15	0.075	1535.1	3.7
318.15	0.0999	1536.6	3.7
318.15	0.1249	1538.5	3.7
318.15	0.15	1540.8	3.7

System: 2-amino-3-methylpentanoic acid + water; phases: Liquid
Fixed: Pressure, kPa = 101
Property: Mass density, kg/m3 (Liquid); method: Pycnometric method
Temperature, K	Molality, mol/kg of 2-amino-3-methylpentanoic acid	Mass density, kg/m3	uncertainty
293.15	0.025	998.88	1.68
293.15	0.05	999.5	1.68
293.15	0.075	1000.1	1.68
293.15	0.0999	1000.68	1.68
293.15	0.1249	1001.24	1.68
293.15	0.15	1001.78	1.68
298.15	0.025	997.71	1.68
298.15	0.05	998.33	1.68
298.15	0.075	998.93	1.68
298.15	0.0999	999.51	1.68
298.15	0.1249	1000.07	1.68
298.15	0.15	1000.61	1.68
303.15	0.025	996.32	1.69
303.15	0.05	996.94	1.69
303.15	0.075	997.54	1.69
303.15	0.0999	998.12	1.69
303.15	0.1249	998.68	1.69
303.15	0.15	999.22	1.69
308.15	0.025	994.71	1.69
308.15	0.05	995.34	1.69
308.15	0.075	995.94	1.69
308.15	0.0999	996.52	1.69
308.15	0.1249	997.08	1.69
308.15	0.15	997.62	1.69
313.15	0.025	992.9	1.69
313.15	0.05	993.52	1.69
313.15	0.075	994.13	1.69
313.15	0.0999	994.71	1.69
313.15	0.1249	995.27	1.69
313.15	0.15	995.82	1.69
318.15	0.025	990.89	1.69
318.15	0.05	991.52	1.69
318.15	0.075	992.13	1.69
318.15	0.0999	992.72	1.69
318.15	0.1249	993.28	1.69
318.15	0.15	993.83	1.69

System: 2-amino-3-methylpentanoic acid + water; phases: Liquid
Fixed: Pressure, kPa = 101
Property: Viscosity, Pa*s (Liquid); method: Capillary tube (Ostwald; Ubbelohde) method
Temperature, K	Molality, mol/kg of 2-amino-3-methylpentanoic acid	Viscosity, Pa*s	uncertainty
298.15	0.025	0.000896	2.05e-05
298.15	0.05	0.0009057	2.08e-05
298.15	0.075	0.0009164	2.1e-05
298.15	0.0999	0.0009273	2.13e-05
298.15	0.1249	0.0009386	2.15e-05
298.15	0.15	0.0009502	2.18e-05
303.15	0.025	0.0008028	1.84e-05
303.15	0.05	0.0008118	1.86e-05
303.15	0.075	0.0008217	1.89e-05
303.15	0.0999	0.0008319	1.91e-05
303.15	0.1249	0.0008423	1.93e-05
303.15	0.15	0.0008531	1.96e-05
308.15	0.025	0.0007244	1.66e-05
308.15	0.05	0.000733	1.68e-05
308.15	0.075	0.0007422	1.71e-05
308.15	0.0999	0.0007516	1.73e-05
308.15	0.1249	0.0007613	1.75e-05
308.15	0.15	0.0007714	1.77e-05
313.15	0.025	0.0006578	1.51e-05
313.15	0.05	0.0006658	1.53e-05
313.15	0.075	0.0006745	1.55e-05
313.15	0.0999	0.0006834	1.57e-05
313.15	0.1249	0.0006925	1.59e-05
313.15	0.15	0.000702	1.61e-05
318.15	0.025	0.0006022	1.39e-05
318.15	0.05	0.0006098	1.4e-05
318.15	0.075	0.0006181	1.42e-05
318.15	0.0999	0.0006265	1.44e-05
318.15	0.1249	0.0006351	1.46e-05
318.15	0.15	0.0006438	1.48e-05

System: 2-amino-3-methylpentanoic acid + water; phases: Liquid
Fixed: Pressure, kPa = 101
Fixed: Frequency, MHz = 3
Property: Speed of sound, m/s (Liquid); method: Linear variable-path acoustic interferometer
Temperature, K	Molality, mol/kg of 2-amino-3-methylpentanoic acid	Speed of sound, m/s	uncertainty
298.15	0.025	1497.2	3.7
298.15	0.05	1497.9	3.7
298.15	0.075	1499	3.7
298.15	0.0999	1500.5	3.7
298.15	0.1249	1502.4	3.7
298.15	0.15	1504.7	3.7
303.15	0.025	1508.7	3.7
303.15	0.05	1509.4	3.7
303.15	0.075	1510.5	3.7
303.15	0.0999	1512	3.7
303.15	0.1249	1513.9	3.7
303.15	0.15	1516.2	3.7
308.15	0.025	1520.1	3.7
308.15	0.05	1520.7	3.7
308.15	0.075	1521.8	3.7
308.15	0.0999	1523.3	3.7
308.15	0.1249	1525.1	3.7
308.15	0.15	1527.4	3.7
313.15	0.025	1527	3.7
313.15	0.05	1527.7	3.7
313.15	0.075	1528.7	3.7
313.15	0.0999	1530.2	3.7
313.15	0.1249	1532	3.7
313.15	0.15	1534.2	3.7
318.15	0.025	1533.2	3.7
318.15	0.05	1533.8	3.7
318.15	0.075	1534.8	3.7
318.15	0.0999	1536.2	3.7
318.15	0.1249	1538	3.7
318.15	0.15	1540.1	3.7
