Measured thermophysical data. Phase equilibrium measurements and thermodynamic modeling of methane alcohol systems at ambient temperature
Source: J. Chem. Thermodyn., 2012, 10.1016/j.jct.2012.03.028
Compound 1: methane, CH4, InChI=1S/CH4/h1H4, purity 99.97%
Compound 2: methanol, CH4O, InChI=1S/CH4O/c1-2/h2H,1H3, purity 99.8%
Compound 3: ethanol, C2H6O, InChI=1S/C2H6O/c1-2-3/h3H,2H2,1H3, purity 99.7%
Compound 4: propan-1-ol, C3H8O, InChI=1S/C3H8O/c1-2-3-4/h4H,2-3H2,1H3, purity 99.9%

System: methanol + methane; phases: Liquid, Gas
Property: Mole fraction of methane (Liquid); method: Density calibration data
Temperature, K	Pressure, kPa	Mole fraction of methane	uncertainty
294.2	2980	0.028	0.004
294.5	1050	0.011	0.004
294.5	3960	0.038	0.004
294.6	2000	0.02	0.004
294.6	4980	0.048	0.004
294.6	5980	0.057	0.004
294.8	6990	0.066	0.004
294.8	7990	0.075	0.004

System: ethanol + methane; phases: Liquid, Gas
Property: Mole fraction of methane (Liquid); method: Density calibration data
Temperature, K	Pressure, kPa	Mole fraction of methane	uncertainty
294.6	3010	0.038	0.004
294.7	3990	0.05	0.004
295.1	1020	0.013	0.004
295.1	4980	0.063	0.004
295.1	6040	0.076	0.004
295.2	2030	0.026	0.004
295.2	7000	0.087	0.004
295.2	7990	0.099	0.004

System: propan-1-ol + methane; phases: Liquid, Gas
Property: Mole fraction of methane (Liquid); method: Density calibration data
Temperature, K	Pressure, kPa	Mole fraction of methane	uncertainty
294.3	990	0.016	0.004
294.5	2030	0.031	0.004
294.6	8020	0.112	0.004
294.7	6980	0.099	0.004
295.1	3030	0.045	0.004
295.2	4000	0.059	0.004
295.5	5000	0.073	0.004
295.5	5990	0.086	0.004
