Measured thermophysical data. Volumetric, acoustic, and refractometric properties of (thiophene + hexane/cyclohexane) solutions in the presence of some imidazolium based ionic liquids at T = 298.15 K
Source: J. Chem. Thermodyn., 2015, 10.1016/j.jct.2015.03.004
Compound 1: 3-hexyl-1-methyl-1H-imidazolium bromide, C10H19BrN2, InChI=1S/C10H19N2.BrH/c1-3-4-5-6-7-12-9-8-11(2)10-12;/h8-10H,3-7H2,1-2H3;1H/q+1;/p-1
Compound 2: 1-ethyl-3-methylimidazolium ethyl sulfate, C8H16N2O4S, InChI=1S/C6H11N2.C2H6O4S/c1-3-8-5-4-7(2)6-8;1-2-6-7(3,4)5/h4-6H,3H2,1-2H3;2H2,1H3,(H,3,4,5)/q+1;/p-1
Compound 3: thiophene, C4H4S, InChI=1S/C4H4S/c1-2-4-5-3-1/h1-4H, purity 99%
Compound 4: cyclohexane, C6H12, InChI=1S/C6H12/c1-2-4-6-5-3-1/h1-6H2, purity 99%
Compound 5: hexane, C6H14, InChI=1S/C6H14/c1-3-5-6-4-2/h3-6H2,1-2H3, purity 95%

System: 3-hexyl-1-methyl-1H-imidazolium bromide; phases: Liquid
Property: Mass density, kg/m3 (Liquid); method: Vibrating tube method
Temperature, K	Pressure, kPa	Mass density, kg/m3	uncertainty
298.15	101.325	1223.807	0.417

System: 3-hexyl-1-methyl-1H-imidazolium bromide; phases: Liquid
Property: Refractive index (Na D-line) (Liquid); method: Standard Abbe refractometry
Temperature, K	Pressure, kPa	Refractive index (Na D-line)	uncertainty
298.15	101.325	1.5308	0.0005

System: 3-hexyl-1-methyl-1H-imidazolium bromide; phases: Liquid
Property: Speed of sound, m/s (Liquid); method: Sing-around technique in a fixed-path interferometer
Temperature, K	Pressure, kPa	Speed of sound, m/s	uncertainty
298.15	101.325	1587.54	1.58

System: 1-ethyl-3-methylimidazolium ethyl sulfate; phases: Liquid
Property: Mass density, kg/m3 (Liquid); method: Vibrating tube method
Temperature, K	Pressure, kPa	Mass density, kg/m3	uncertainty
298.15	101.325	1237.72	0.43

System: 1-ethyl-3-methylimidazolium ethyl sulfate; phases: Liquid
Property: Refractive index (Na D-line) (Liquid); method: Standard Abbe refractometry
Temperature, K	Pressure, kPa	Refractive index (Na D-line)	uncertainty
298.15	101.325	1.4784	0.0005

System: 1-ethyl-3-methylimidazolium ethyl sulfate; phases: Liquid
Property: Speed of sound, m/s (Liquid); method: Sing-around technique in a fixed-path interferometer
Temperature, K	Pressure, kPa	Speed of sound, m/s	uncertainty
298.15	101.325	1680.21	1.6

System: thiophene; phases: Liquid
Property: Mass density, kg/m3 (Liquid); method: Vibrating tube method
Temperature, K	Pressure, kPa	Mass density, kg/m3	uncertainty
298.15	101.325	1058.556	0.277

System: thiophene; phases: Liquid
Property: Refractive index (Na D-line) (Liquid); method: Standard Abbe refractometry
Temperature, K	Pressure, kPa	Refractive index (Na D-line)	uncertainty
298.15	101.325	1.5252	0.0005

System: thiophene; phases: Liquid
Fixed: Pressure, kPa = 101.325
Property: Speed of sound, m/s (Liquid); method: Sing-around technique in a fixed-path interferometer
Temperature, K	Speed of sound, m/s	uncertainty
298.15	1258.97	1.53
303.15	1258.65	1.53

System: cyclohexane; phases: Liquid
Property: Mass density, kg/m3 (Liquid); method: Vibrating tube method
Pressure, kPa	Temperature, K	Mass density, kg/m3	uncertainty
101.33	298.15	773.87	0.24

System: cyclohexane; phases: Liquid
Property: Speed of sound, m/s (Liquid); method: Sing-around technique in a fixed-path interferometer
Temperature, K	Pressure, kPa	Speed of sound, m/s	uncertainty
298.15	101.33	1253.71	1.53

System: cyclohexane; phases: Liquid
Property: Refractive index (Na D-line) (Liquid); method: Standard Abbe refractometry
Temperature, K	Pressure, kPa	Refractive index (Na D-line)	uncertainty
298.15	101.33	1.4235	0.0005

System: hexane; phases: Liquid
Property: Refractive index (Na D-line) (Liquid); method: Standard Abbe refractometry
Temperature, K	Pressure, kPa	Refractive index (Na D-line)	uncertainty
298.15	101.325	1.3722	0.0011

System: hexane; phases: Liquid
Property: Mass density, kg/m3 (Liquid); method: Vibrating tube method
Pressure, kPa	Temperature, K	Mass density, kg/m3	uncertainty
101.33	298.15	655.175	2.469

System: hexane; phases: Liquid
Property: Speed of sound, m/s (Liquid); method: Sing-around technique in a fixed-path interferometer
Temperature, K	Pressure, kPa	Speed of sound, m/s	uncertainty
298.15	101.33	1077.21	5.22

System: thiophene + cyclohexane; phases: Liquid
Fixed: Pressure, kPa = 101.33
Fixed: Temperature, K = 298.15
Property: Mass density, kg/m3 (Liquid); method: Vibrating tube method
Molality, mol/kg of thiophene	Mass density, kg/m3	uncertainty
0	773.87	0.24
0.0404	774.512	0.24
0.0503	774.668	0.24
0.0602	774.824	0.24
0.0703	774.983	0.24
0.0803	775.14	0.24
0.0902	775.295	0.24
0.1003	775.452	0.24
0.1103	775.608	0.24
0.1203	775.764	0.24
0.1303	775.917	0.24
0.1402	776.075	0.24
0.1503	776.227	0.24
0.1603	776.38	0.24
0.1702	776.53	0.24
0.1802	776.684	0.24

System: thiophene + cyclohexane; phases: Liquid
Fixed: Temperature, K = 298.15
Fixed: Pressure, kPa = 101.33
Property: Speed of sound, m/s (Liquid); method: Sing-around technique in a fixed-path interferometer
Molality, mol/kg of thiophene	Speed of sound, m/s	uncertainty
0	1253.71	1.53
0.0404	1253.44	1.53
0.0503	1253.37	1.53
0.0602	1253.3	1.53
0.0703	1253.22	1.53
0.0803	1253.15	1.53
0.0902	1253.09	1.53
0.1003	1253.01	1.53
0.1103	1252.94	1.53
0.1203	1252.87	1.53
0.1303	1252.8	1.53
0.1402	1252.73	1.53
0.1503	1252.64	1.53
0.1603	1252.59	1.53
0.1702	1252.52	1.53
0.1802	1252.44	1.53

System: thiophene + cyclohexane; phases: Liquid
Fixed: Temperature, K = 298.15
Fixed: Pressure, kPa = 101.33
Property: Refractive index (Na D-line) (Liquid); method: Standard Abbe refractometry
Molality, mol/kg of thiophene	Refractive index (Na D-line)	uncertainty
0	1.4235	0.0005
0.0404	1.424	0.0005
0.0503	1.4241	0.0005
0.0602	1.4242	0.0005
0.0703	1.4243	0.0005
0.0803	1.4244	0.0005
0.0902	1.4245	0.0005
0.1003	1.4246	0.0005
0.1103	1.4247	0.0005
0.1203	1.4248	0.0005
0.1303	1.4249	0.0005
0.1402	1.425	0.0005
0.1503	1.4251	0.0005
0.1603	1.4252	0.0005
0.1702	1.4253	0.0005
0.1802	1.4254	0.0005

System: thiophene + cyclohexane + 1-ethyl-3-methylimidazolium ethyl sulfate; phases: Liquid
Fixed: Pressure, kPa = 101.33
Fixed: Temperature, K = 298.15
Fixed: Solvent: Molality, mol/kg of 1-ethyl-3-methylimidazolium ethyl sulfate = 0.0999
Property: Mass density, kg/m3 (Liquid); method: Vibrating tube method
Molality, mol/kg of thiophene	Mass density, kg/m3	uncertainty
0	773.884	0.24
0.0309	774.397	0.24
0.041	774.561	0.24
0.051	774.722	0.24
0.061	774.883	0.24
0.0711	775.042	0.24
0.081	775.198	0.24
0.0911	775.356	0.24
0.1009	775.506	0.24
0.1111	775.66	0.24
0.1209	775.808	0.24
0.1311	775.959	0.24
0.1413	776.113	0.24
0.1506	776.248	0.24
0.1609	776.395	0.24

System: thiophene + cyclohexane + 1-ethyl-3-methylimidazolium ethyl sulfate; phases: Liquid
Fixed: Temperature, K = 298.15
Fixed: Pressure, kPa = 101.33
Fixed: Solvent: Molality, mol/kg of 1-ethyl-3-methylimidazolium ethyl sulfate = 0.0999
Property: Speed of sound, m/s (Liquid); method: Sing-around technique in a fixed-path interferometer
Molality, mol/kg of thiophene	Speed of sound, m/s	uncertainty
0	1254.28	1.53
0.0309	1253.95	1.53
0.041	1253.86	1.53
0.051	1253.77	1.53
0.061	1253.7	1.53
0.0711	1253.63	1.53
0.081	1253.55	1.53
0.0911	1253.47	1.53
0.1009	1253.43	1.53
0.1111	1253.38	1.53
0.1209	1253.32	1.53
0.1311	1253.28	1.53
0.1413	1253.24	1.53
0.1506	1253.2	1.53
0.1609	1253.15	1.53

System: thiophene + cyclohexane + 1-ethyl-3-methylimidazolium ethyl sulfate; phases: Liquid
Fixed: Temperature, K = 298.15
Fixed: Pressure, kPa = 101.33
Fixed: Solvent: Molality, mol/kg of 1-ethyl-3-methylimidazolium ethyl sulfate = 0.0999
Property: Refractive index (Na D-line) (Liquid); method: Standard Abbe refractometry
Molality, mol/kg of thiophene	Refractive index (Na D-line)	uncertainty
0	1.4237	0.0005
0.0309	1.4238	0.0005
0.041	1.4239	0.0005
0.051	1.424	0.0005
0.061	1.4241	0.0005
0.0711	1.4242	0.0005
0.081	1.4243	0.0005
0.0911	1.4244	0.0005
0.1009	1.4245	0.0005
0.1111	1.4246	0.0005
0.1209	1.4247	0.0005
0.1311	1.4248	0.0005
0.1413	1.4249	0.0005
0.1506	1.425	0.0005
0.1609	1.4251	0.0005

System: thiophene + cyclohexane + 3-hexyl-1-methyl-1H-imidazolium bromide; phases: Liquid
Fixed: Pressure, kPa = 101.33
Fixed: Temperature, K = 298.15
Fixed: Solvent: Molality, mol/kg of 3-hexyl-1-methyl-1H-imidazolium bromide = 0.0999
Property: Mass density, kg/m3 (Liquid); method: Vibrating tube method
Molality, mol/kg of thiophene	Mass density, kg/m3	uncertainty
0	773.932	0.24
0.0309	774.44	0.24
0.041	774.602	0.24
0.051	774.762	0.24
0.061	774.922	0.24
0.071	775.08	0.24
0.081	775.237	0.24
0.091	775.392	0.24
0.111	775.701	0.24
0.1212	775.854	0.24
0.1311	776.004	0.24
0.1412	776.155	0.24
0.1507	776.299	0.24

System: thiophene + cyclohexane + 3-hexyl-1-methyl-1H-imidazolium bromide; phases: Liquid
Fixed: Temperature, K = 298.15
Fixed: Pressure, kPa = 101.33
Fixed: Solvent: Molality, mol/kg of 3-hexyl-1-methyl-1H-imidazolium bromide = 0.0999
Property: Speed of sound, m/s (Liquid); method: Sing-around technique in a fixed-path interferometer
Molality, mol/kg of thiophene	Speed of sound, m/s	uncertainty
0	1254.29	1.53
0.0309	1253.95	1.53
0.041	1253.86	1.53
0.051	1253.77	1.53
0.061	1253.7	1.53
0.071	1253.63	1.53
0.081	1253.57	1.53
0.091	1253.51	1.53
0.111	1253.42	1.53
0.1212	1253.39	1.53
0.1311	1253.35	1.53
0.1412	1253.31	1.53
0.1507	1253.29	1.53

System: thiophene + cyclohexane + 3-hexyl-1-methyl-1H-imidazolium bromide; phases: Liquid
Fixed: Temperature, K = 298.15
Fixed: Pressure, kPa = 101.33
Fixed: Solvent: Molality, mol/kg of 3-hexyl-1-methyl-1H-imidazolium bromide = 0.0999
Property: Refractive index (Na D-line) (Liquid); method: Standard Abbe refractometry
Molality, mol/kg of thiophene	Refractive index (Na D-line)	uncertainty
0	1.4236	0.0005
0.0309	1.4239	0.0005
0.041	1.424	0.0005
0.051	1.4241	0.0005
0.061	1.4242	0.0005
0.071	1.4243	0.0005
0.081	1.4244	0.0005
0.091	1.4245	0.0005
0.111	1.4247	0.0005
0.1212	1.4248	0.0005
0.1311	1.4249	0.0005
0.1412	1.425	0.0005
0.1507	1.4251	0.0005

System: thiophene + hexane; phases: Liquid
Fixed: Pressure, kPa = 101.33
Fixed: Temperature, K = 298.15
Property: Mass density, kg/m3 (Liquid); method: Vibrating tube method
Molality, mol/kg of thiophene	Mass density, kg/m3	uncertainty
0	655.175	2.469
0.0303	655.82	2.463
0.0354	655.927	2.462
0.0403	656.03	2.461
0.0453	656.133	2.46
0.0504	656.239	2.459
0.0554	656.34	2.458
0.0603	656.441	2.457
0.0654	656.545	2.456
0.0704	656.646	2.455
0.0753	656.745	2.455
0.0804	656.847	2.454
0.0852	656.945	2.453
0.0903	657.046	2.452
0.0954	657.146	2.451
0.1004	657.243	2.45
0.1053	657.342	2.449
0.1104	657.441	2.448

System: thiophene + hexane; phases: Liquid
Fixed: Temperature, K = 298.15
Fixed: Pressure, kPa = 101.33
Property: Speed of sound, m/s (Liquid); method: Sing-around technique in a fixed-path interferometer
Molality, mol/kg of thiophene	Speed of sound, m/s	uncertainty
0	1077.21	5.13
0.0303	1077.28	5.12
0.0354	1077.3	5.12
0.0403	1077.32	5.11
0.0453	1077.34	5.11
0.0504	1077.36	5.11
0.0554	1077.39	5.11
0.0603	1077.41	5.11
0.0654	1077.44	5.11
0.0704	1077.47	5.1
0.0753	1077.5	5.1
0.0804	1077.53	5.1
0.0852	1077.56	5.1
0.0903	1077.6	5.1
0.0954	1077.64	5.1
0.1004	1077.68	5.09
0.1053	1077.72	5.09
0.1104	1077.76	5.09

System: thiophene + hexane; phases: Liquid
Fixed: Temperature, K = 298.15
Fixed: Pressure, kPa = 101.33
Property: Refractive index (Na D-line) (Liquid); method: Standard Abbe refractometry
Molality, mol/kg of thiophene	Refractive index (Na D-line)	uncertainty
0	1.3722	0.0011
0.0303	1.3725	0.0011
0.0354	1.3726	0.0011
0.0403	1.3727	0.0011
0.0453	1.3728	0.0011
0.0504	1.3729	0.0011
0.0554	1.373	0.0011
0.0603	1.3731	0.0011
0.0654	1.3732	0.0011
0.0704	1.3733	0.0011
0.0753	1.3734	0.0011
0.0804	1.3735	0.0011
0.0852	1.3736	0.0011
0.0903	1.3737	0.0011
0.0954	1.3738	0.0011
0.1004	1.3739	0.0011
0.1053	1.374	0.0011
0.1104	1.3741	0.0011

System: thiophene + hexane + 3-hexyl-1-methyl-1H-imidazolium bromide; phases: Liquid
Fixed: Pressure, kPa = 101.33
Fixed: Temperature, K = 298.15
Fixed: Solvent: Molality, mol/kg of 3-hexyl-1-methyl-1H-imidazolium bromide = 0.1
Property: Mass density, kg/m3 (Liquid); method: Vibrating tube method
Molality, mol/kg of thiophene	Mass density, kg/m3	uncertainty
0	655.221	0.641
0.0462	656.222	0.642
0.0612	656.541	0.642
0.0761	656.857	0.642
0.091	657.168	0.643
0.1064	657.485	0.643
0.1213	657.789	0.643
0.1362	658.095	0.644
0.1513	658.402	0.644
0.166	658.69	0.644
0.1812	658.992	0.645
0.1958	659.284	0.645

System: thiophene + hexane + 3-hexyl-1-methyl-1H-imidazolium bromide; phases: Liquid
Fixed: Temperature, K = 298.15
Fixed: Pressure, kPa = 101.33
Fixed: Solvent: Molality, mol/kg of 3-hexyl-1-methyl-1H-imidazolium bromide = 0.1
Property: Speed of sound, m/s (Liquid); method: Sing-around technique in a fixed-path interferometer
Molality, mol/kg of thiophene	Speed of sound, m/s	uncertainty
0	1077.36	2.59
0.0462	1077.46	2.59
0.0612	1077.51	2.59
0.0761	1077.56	2.59
0.091	1077.62	2.59
0.1064	1077.7	2.59
0.1213	1077.77	2.59
0.1362	1077.84	2.59
0.1513	1077.92	2.59
0.166	1078.02	2.59
0.1812	1078.11	2.59
0.1958	1078.2	2.59

System: thiophene + hexane + 3-hexyl-1-methyl-1H-imidazolium bromide; phases: Liquid
Fixed: Temperature, K = 298.15
Fixed: Pressure, kPa = 101.33
Fixed: Solvent: Molality, mol/kg of 3-hexyl-1-methyl-1H-imidazolium bromide = 0.1
Property: Refractive index (Na D-line) (Liquid); method: Standard Abbe refractometry
Molality, mol/kg of thiophene	Refractive index (Na D-line)	uncertainty
0	1.3737	0.0007
0.0462	1.3741	0.0007
0.0612	1.3743	0.0007
0.0761	1.3745	0.0007
0.091	1.3747	0.0007
0.1064	1.3749	0.0007
0.1213	1.3751	0.0007
0.1362	1.3753	0.0007
0.1513	1.3755	0.0007
0.166	1.3757	0.0007
0.1812	1.3759	0.0007
0.1958	1.3761	0.0007

System: cyclohexane + 1-ethyl-3-methylimidazolium ethyl sulfate; phases: Liquid
Property: Mass density, kg/m3 (Liquid); method: Vibrating tube method
Pressure, kPa	Temperature, K	Molality, mol/kg of 1-ethyl-3-methylimidazolium ethyl sulfate	Mass density, kg/m3	uncertainty
101.33	298.15	0.0999	773.884	0.24

System: cyclohexane + 1-ethyl-3-methylimidazolium ethyl sulfate; phases: Liquid
Property: Speed of sound, m/s (Liquid); method: Sing-around technique in a fixed-path interferometer
Temperature, K	Pressure, kPa	Molality, mol/kg of 1-ethyl-3-methylimidazolium ethyl sulfate	Speed of sound, m/s	uncertainty
298.15	101.33	0.0999	1254.28	1.53

System: cyclohexane + 1-ethyl-3-methylimidazolium ethyl sulfate; phases: Liquid
Property: Refractive index (Na D-line) (Liquid); method: Standard Abbe refractometry
Temperature, K	Pressure, kPa	Molality, mol/kg of 1-ethyl-3-methylimidazolium ethyl sulfate	Refractive index (Na D-line)	uncertainty
298.15	101.33	0.0999	1.4237	0.0005

System: cyclohexane + 3-hexyl-1-methyl-1H-imidazolium bromide; phases: Liquid
Property: Mass density, kg/m3 (Liquid); method: Vibrating tube method
Pressure, kPa	Temperature, K	Molality, mol/kg of 3-hexyl-1-methyl-1H-imidazolium bromide	Mass density, kg/m3	uncertainty
101.33	298.15	0.0999	773.932	0.24

System: cyclohexane + 3-hexyl-1-methyl-1H-imidazolium bromide; phases: Liquid
Property: Speed of sound, m/s (Liquid); method: Sing-around technique in a fixed-path interferometer
Temperature, K	Pressure, kPa	Molality, mol/kg of 3-hexyl-1-methyl-1H-imidazolium bromide	Speed of sound, m/s	uncertainty
298.15	101.33	0.0999	1254.29	1.53

System: cyclohexane + 3-hexyl-1-methyl-1H-imidazolium bromide; phases: Liquid
Property: Refractive index (Na D-line) (Liquid); method: Standard Abbe refractometry
Temperature, K	Pressure, kPa	Molality, mol/kg of 3-hexyl-1-methyl-1H-imidazolium bromide	Refractive index (Na D-line)	uncertainty
298.15	101.33	0.0999	1.4236	0.0005

System: hexane + 3-hexyl-1-methyl-1H-imidazolium bromide; phases: Liquid
Property: Mass density, kg/m3 (Liquid); method: Vibrating tube method
Pressure, kPa	Temperature, K	Molality, mol/kg of 3-hexyl-1-methyl-1H-imidazolium bromide	Mass density, kg/m3	uncertainty
101.33	298.15	0.1	655.221	0.641

System: hexane + 3-hexyl-1-methyl-1H-imidazolium bromide; phases: Liquid
Property: Speed of sound, m/s (Liquid); method: Sing-around technique in a fixed-path interferometer
Temperature, K	Pressure, kPa	Molality, mol/kg of 3-hexyl-1-methyl-1H-imidazolium bromide	Speed of sound, m/s	uncertainty
298.15	101.33	0.1	1077.36	2.59

System: hexane + 3-hexyl-1-methyl-1H-imidazolium bromide; phases: Liquid
Property: Refractive index (Na D-line) (Liquid); method: Standard Abbe refractometry
Temperature, K	Pressure, kPa	Molality, mol/kg of 3-hexyl-1-methyl-1H-imidazolium bromide	Refractive index (Na D-line)	uncertainty
298.15	101.33	0.1	1.3737	0.0007
