Measured thermophysical data. Experimental determination of enthalpy of 1-butyl-3-methylimidazolium iodide synthesis and prediction of enthalpies of formation for imidazolium ionic liquids
Source: J. Chem. Thermodyn., 2010, 10.1016/j.jct.2010.05.007
Compound 1: 1-methylimidazole, C4H6N2, InChI=1S/C4H6N2/c1-6-3-2-5-4-6/h2-4H,1H3
Compound 2: 1-butyl-3-methylimidazolium iodide, C8H15IN2, InChI=1S/C8H15N2.HI/c1-3-4-5-10-7-6-9(2)8-10;/h6-8H,3-5H2,1-2H3;1H/q+1;/p-1, purity 98.6%
Compound 3: 1-iodobutane, C4H9I, InChI=1S/C4H9I/c1-2-3-4-5/h2-4H2,1H3

System: 1-butyl-3-methylimidazolium iodide; phases: Crystal 1, Liquid, Gas
Property: Molar enthalpy of transition or fusion, kJ/mol (Crystal 1); method: Adiabatic calorimetry
Molar enthalpy of transition or fusion, kJ/mol	uncertainty
19	0.2

System: 1-butyl-3-methylimidazolium iodide; phases: Crystal 1, Liquid, Gas
Property: Triple point temperature, K (Crystal 1); method: Adiabatic calorimetry
Triple point temperature, K	uncertainty
291.87	0.05

System: 1-butyl-3-methylimidazolium iodide; phases: Liquid
Property: Molar heat capacity at constant pressure, J/K/mol (Liquid); method: Vacuum adiabatic calorimetry
Temperature, K	Pressure, kPa	Molar heat capacity at constant pressure, J/K/mol	uncertainty
298	101.325	310	2.4

System: 1-methylimidazole + 1-butyl-3-methylimidazolium iodide; phases: Liquid mixture 1, Liquid
Fixed: Pressure, kPa = 101
Property: Molar enthalpy of solution, kJ/mol (Liquid mixture 1); method: ISOPERIBOL
Mole fraction of 1-methylimidazole	Molar enthalpy of solution, kJ/mol	uncertainty
0.315	-0.62	0.08
0.328	-0.65	0.08

Reaction: -1 1-iodobutane + -1 1-methylimidazole + 1 1-butyl-3-methylimidazolium iodide
Property: Molar enthalpy of reaction, kJ/mol
-100.2
