Measured thermophysical data. Solubility and preferential solvation of econazole nitrate in binary solvent mixtures of methanol, ethanol and 1,4-dioxane in water
Source: J. Chem. Thermodyn., 2017, 10.1016/j.jct.2017.03.038
Compound 1: Econazole nitrate, C18H16Cl3N3O4, InChI=1S/C18H15Cl3N2O.HNO3/c19-14-3-1-13(2-4-14)11-24-18(10-23-8-7-22-12-23)16-6-5-15(20)9-17(16)21;2-1(3)4/h1-9,12,18H,10-11H2;(H,2,3,4), purity 97.5%
Compound 2: methanol, CH4O, InChI=1S/CH4O/c1-2/h2H,1H3, purity 99.6%
Compound 3: ethanol, C2H6O, InChI=1S/C2H6O/c1-2-3/h3H,2H2,1H3, purity 99.5%
Compound 4: 1,4-dioxane, C4H8O2, InChI=1S/C4H8O2/c1-2-6-4-3-5-1/h1-4H2, purity 99.5%
Compound 5: water, H2O, InChI=1S/H2O/h1H2

System: methanol + water + Econazole nitrate; phases: Liquid, Crystal
Fixed: Pressure, kPa = 101.2
Property: Mole fraction of Econazole nitrate (Liquid); method: Chromatography
Temperature, K	Solvent: Mass fraction of methanol	Mole fraction of Econazole nitrate	uncertainty
278.15	0	1.674e-05	2.18e-06
283.15	0	2.049e-05	2.66e-06
288.15	0	2.469e-05	3.21e-06
293.15	0	2.934e-05	3.81e-06
298.15	0	3.441e-05	4.47e-06
303.15	0	3.984e-05	5.18e-06
308.15	0	4.559e-05	5.93e-06
313.15	0	5.159e-05	6.71e-06
318.15	0	5.776e-05	7.51e-06
278.15	0.0964	9.423e-05	1.227e-05
283.15	0.0964	0.0001126	1.47e-05
288.15	0.0964	0.0001329	1.73e-05
293.15	0.0964	0.0001548	2.02e-05
298.15	0.0964	0.0001786	2.33e-05
303.15	0.0964	0.0002036	2.65e-05
308.15	0.0964	0.0002297	2.99e-05
313.15	0.0964	0.0002567	3.34e-05
318.15	0.0964	0.0002839	3.7e-05
278.15	0.1994	0.0002648	3.45e-05
283.15	0.1994	0.0003128	4.07e-05
288.15	0.1994	0.0003661	4.77e-05
293.15	0.1994	0.0004229	5.51e-05
298.15	0.1994	0.0004861	6.33e-05
303.15	0.1994	0.0005519	7.19e-05
308.15	0.1994	0.0006207	8.08e-05
313.15	0.1994	0.0006924	9.02e-05
318.15	0.1994	0.0007646	9.96e-05
278.15	0.2936	0.0004263	5.55e-05
283.15	0.2936	0.0005024	6.54e-05
288.15	0.2936	0.0005882	7.66e-05
293.15	0.2936	0.0006798	8.85e-05
298.15	0.2936	0.0007844	0.0001021
303.15	0.2936	0.0008935	0.0001163
308.15	0.2936	0.001009	0.000131
313.15	0.2936	0.001131	0.000147
318.15	0.2936	0.001256	0.000164
278.15	0.3993	0.0005479	7.13e-05
283.15	0.3993	0.0006475	8.42e-05
288.15	0.3993	0.000762	9.91e-05
293.15	0.3993	0.000885	0.0001151
298.15	0.3993	0.00103	0.000134
303.15	0.3993	0.001183	0.000154
308.15	0.3993	0.001348	0.000175
313.15	0.3993	0.001526	0.000199
318.15	0.3993	0.00171	0.000223
278.15	0.4996	0.0006288	8.18e-05
283.15	0.4996	0.0007461	9.71e-05
288.15	0.4996	0.000884	0.000115
293.15	0.4996	0.001033	0.000134
298.15	0.4996	0.001215	0.000158
303.15	0.4996	0.001408	0.000183
308.15	0.4996	0.00162	0.000211
313.15	0.4996	0.001855	0.000241
318.15	0.4996	0.0021	0.000273
278.15	0.6028	0.0007351	9.56e-05
283.15	0.6028	0.0008758	0.0001139
288.15	0.6028	0.001045	0.000136
293.15	0.6028	0.001229	0.00016
298.15	0.6028	0.001459	0.00019
303.15	0.6028	0.001707	0.000222
308.15	0.6028	0.001984	0.000258
313.15	0.6028	0.002296	0.000299
318.15	0.6028	0.002628	0.000342
278.15	0.6968	0.0008954	0.0001165
283.15	0.6968	0.00107	0.000139
288.15	0.6968	0.001282	0.000167
293.15	0.6968	0.001516	0.000197
298.15	0.6968	0.001814	0.000236
303.15	0.6968	0.00214	0.000278
308.15	0.6968	0.002508	0.000326
313.15	0.6968	0.002928	0.000381
318.15	0.6968	0.003382	0.00044
278.15	0.7995	0.00116	0.000151
283.15	0.7995	0.001389	0.000181
288.15	0.7995	0.001673	0.000218
293.15	0.7995	0.001987	0.000258
298.15	0.7995	0.002398	0.000312
303.15	0.7995	0.00285	0.000371
308.15	0.7995	0.003368	0.000438
313.15	0.7995	0.00397	0.000516
318.15	0.7995	0.0046268	0.0006018
278.15	0.8984	0.001439	0.000187
283.15	0.8984	0.001727	0.000225
288.15	0.8984	0.002092	0.000272
293.15	0.8984	0.002496	0.000325
298.15	0.8984	0.003038	0.000395
303.15	0.8984	0.00364	0.000473
308.15	0.8984	0.004339	0.000564
313.15	0.8984	0.005163	0.000671
318.15	0.8984	0.006073	0.00079
278.15	1	0.001501	0.000195
283.15	1	0.001813	0.000236
288.15	1	0.002214	0.000288
293.15	1	0.002664	0.000346
298.15	1	0.003279	0.000426
303.15	1	0.003972	0.000516
308.15	1	0.004788	0.000623
313.15	1	0.005773	0.000751
318.15	1	0.006869	0.000893

System: ethanol + water + Econazole nitrate; phases: Liquid, Crystal
Fixed: Pressure, kPa = 101.2
Property: Mole fraction of Econazole nitrate (Liquid); method: Chromatography
Temperature, K	Solvent: Mass fraction of ethanol	Mole fraction of Econazole nitrate	uncertainty
278.15	0	1.674e-05	2.18e-06
283.15	0	2.049e-05	2.66e-06
288.15	0	2.469e-05	3.21e-06
293.15	0	2.934e-05	3.81e-06
298.15	0	3.441e-05	4.47e-06
303.15	0	3.984e-05	5.18e-06
308.15	0	4.559e-05	5.93e-06
313.15	0	5.159e-05	6.71e-06
318.15	0	5.776e-05	7.51e-06
278.15	0.1002	4.807e-05	6.25e-06
283.15	0.1002	5.822e-05	7.58e-06
288.15	0.1002	6.967e-05	9.07e-06
293.15	0.1002	8.205e-05	1.068e-05
298.15	0.1002	9.558e-05	1.244e-05
303.15	0.1002	0.0001101	1.43e-05
308.15	0.1002	0.0001256	1.63e-05
313.15	0.1002	0.0001416	1.84e-05
318.15	0.1002	0.0001582	2.06e-05
278.15	0.2003	9.552e-05	1.243e-05
283.15	0.2003	0.0001152	1.5e-05
288.15	0.2003	0.0001378	1.79e-05
293.15	0.2003	0.0001618	2.11e-05
298.15	0.2003	0.0001883	2.45e-05
303.15	0.2003	0.0002171	2.83e-05
308.15	0.2003	0.0002482	3.23e-05
313.15	0.2003	0.0002802	3.65e-05
318.15	0.2003	0.0003139	4.09e-05
278.15	0.298	0.0001469	1.91e-05
283.15	0.298	0.0001773	2.31e-05
288.15	0.298	0.0002127	2.77e-05
293.15	0.298	0.00025	3.25e-05
298.15	0.298	0.0002919	3.8e-05
303.15	0.298	0.0003381	4.4e-05
308.15	0.298	0.0003886	5.06e-05
313.15	0.298	0.000441	5.74e-05
318.15	0.298	0.0004971	6.47e-05
278.15	0.3985	0.0001966	2.56e-05
283.15	0.3985	0.000238	3.1e-05
288.15	0.3985	0.0002872	3.74e-05
293.15	0.3985	0.0003388	4.41e-05
298.15	0.3985	0.0003977	5.18e-05
303.15	0.3985	0.0004639	6.04e-05
308.15	0.3985	0.0005376	7e-05
313.15	0.3985	0.0006145	8e-05
318.15	0.3985	0.0006985	9.1e-05
278.15	0.4985	0.0002424	3.15e-05
283.15	0.4985	0.0002946	3.83e-05
288.15	0.4985	0.0003582	4.66e-05
293.15	0.4985	0.0004246	5.53e-05
298.15	0.4985	0.0005018	6.53e-05
303.15	0.4985	0.0005901	7.68e-05
308.15	0.4985	0.0006902	8.99e-05
313.15	0.4985	0.0007957	0.0001036
318.15	0.4985	0.000913	0.0001189
278.15	0.5998	0.0002905	3.78e-05
283.15	0.5998	0.0003548	4.62e-05
288.15	0.5998	0.0004349	5.66e-05
293.15	0.5998	0.0005183	6.74e-05
298.15	0.5998	0.000617	8.03e-05
303.15	0.5998	0.000732	9.53e-05
308.15	0.5998	0.0008646	0.0001125
313.15	0.5998	0.001006	0.000131
318.15	0.5998	0.001166	0.000152
278.15	0.6987	0.0003453	4.49e-05
283.15	0.6987	0.0004239	5.51e-05
288.15	0.6987	0.0005237	6.81e-05
293.15	0.6987	0.0006275	8.16e-05
298.15	0.6987	0.0007523	9.79e-05
303.15	0.6987	0.0009002	0.0001171
308.15	0.6987	0.001074	0.00014
313.15	0.6987	0.00126	0.000164
318.15	0.6987	0.001475	0.000192
278.15	0.799	0.000405	5.27e-05
283.15	0.799	0.0004994	6.49e-05
288.15	0.799	0.0006223	8.09e-05
293.15	0.799	0.0007498	9.75e-05
298.15	0.799	0.0009058	0.0001178
303.15	0.799	0.001094	0.000142
308.15	0.799	0.001318	0.000171
313.15	0.799	0.00156	0.000203
318.15	0.799	0.001845	0.00024
278.15	0.9004	0.0004419	5.75e-05
283.15	0.9004	0.0005517	7.17e-05
288.15	0.9004	0.0006939	9.02e-05
293.15	0.9004	0.0008575	0.0001115
298.15	0.9004	0.00105	0.000137
303.15	0.9004	0.001307	0.00017
308.15	0.9004	0.001616	0.00021
313.15	0.9004	0.001982	0.000258
318.15	0.9004	0.002366	0.000308
278.15	1	0.0005256	6.83e-05
283.15	1	0.0006561	8.53e-05
288.15	1	0.0008319	0.0001082
293.15	1	0.001015	0.000132
298.15	1	0.001246	0.000162
303.15	1	0.001533	0.000199
308.15	1	0.001886	0.000245
313.15	1	0.002277	0.000296
318.15	1	0.002751	0.000358

System: 1,4-dioxane + water + Econazole nitrate; phases: Liquid, Crystal
Fixed: Pressure, kPa = 101.2
Property: Mole fraction of Econazole nitrate (Liquid); method: Chromatography
Temperature, K	Solvent: Mass fraction of 1,4-dioxane	Mole fraction of Econazole nitrate	uncertainty
288.15	0	2.469e-05	3.21e-06
293.15	0	2.934e-05	3.81e-06
298.15	0	3.441e-05	4.47e-06
303.15	0	3.984e-05	5.18e-06
308.15	0	4.559e-05	5.93e-06
313.15	0	5.159e-05	6.71e-06
318.15	0	5.776e-05	7.51e-06
288.15	0.1008	0.0001004	1.31e-05
293.15	0.1008	0.0001172	1.53e-05
298.15	0.1008	0.0001356	1.76e-05
303.15	0.1008	0.000155	2.02e-05
308.15	0.1008	0.0001756	2.28e-05
313.15	0.1008	0.0001968	2.56e-05
318.15	0.1008	0.0002188	2.85e-05
288.15	0.2007	0.000193	2.51e-05
293.15	0.2007	0.0002241	2.92e-05
298.15	0.2007	0.0002589	3.37e-05
303.15	0.2007	0.0002957	3.85e-05
308.15	0.2007	0.0003354	4.36e-05
313.15	0.2007	0.0003765	4.9e-05
318.15	0.2007	0.0004198	5.46e-05
288.15	0.298	0.0002493	3.24e-05
293.15	0.298	0.0002899	3.77e-05
298.15	0.298	0.0003366	4.38e-05
303.15	0.298	0.0003864	5.03e-05
308.15	0.298	0.0004415	5.74e-05
313.15	0.298	0.0004992	6.49e-05
318.15	0.298	0.0005614	7.3e-05
288.15	0.4001	0.0002812	3.66e-05
293.15	0.4001	0.0003282	4.27e-05
298.15	0.4001	0.0003839	4.99e-05
303.15	0.4001	0.0004442	5.78e-05
308.15	0.4001	0.0005126	6.67e-05
313.15	0.4001	0.0005853	7.61e-05
318.15	0.4001	0.0006657	8.66e-05
288.15	0.4996	0.0003194	4.16e-05
293.15	0.4996	0.0003743	4.87e-05
298.15	0.4996	0.0004409	5.74e-05
303.15	0.4996	0.000514	6.69e-05
308.15	0.4996	0.0005988	7.79e-05
313.15	0.4996	0.00069	8.98e-05
318.15	0.4996	0.0007935	0.0001033
288.15	0.6002	0.0003921	5.1e-05
293.15	0.6002	0.0004606	5.99e-05
298.15	0.6002	0.0005459	7.1e-05
303.15	0.6002	0.0006404	8.34e-05
308.15	0.6002	0.0007523	9.79e-05
313.15	0.6002	0.0008742	0.0001138
318.15	0.6002	0.001015	0.000132
288.15	0.6968	0.0004996	6.5e-05
293.15	0.6968	0.0005878	7.65e-05
298.15	0.6968	0.0007002	9.11e-05
303.15	0.6968	0.0008258	0.0001074
308.15	0.6968	0.0009773	0.0001271
313.15	0.6968	0.001144	0.000149
318.15	0.6968	0.00134	0.000174
288.15	0.8008	0.0006002	7.8e-05
293.15	0.8008	0.0007083	9.21e-05
298.15	0.8008	0.0008494	0.0001104
303.15	0.8008	0.001009	0.000131
308.15	0.8008	0.001205	0.000157
313.15	0.8008	0.001423	0.000185
318.15	0.8008	0.001685	0.000219
288.15	0.8998	0.0005349	6.96e-05
293.15	0.8998	0.0006362	8.27e-05
298.15	0.8998	0.0007716	0.0001003
303.15	0.8998	0.0009268	0.0001205
308.15	0.8998	0.001121	0.000146
313.15	0.8998	0.001342	0.000175
318.15	0.8998	0.001612	0.00021
288.15	1	0.0002619	3.41e-05
293.15	1	0.0003172	4.12e-05
298.15	1	0.0003929	5.11e-05
303.15	1	0.0004819	6.27e-05
308.15	1	0.0005964	7.75e-05
313.15	1	0.0007294	9.48e-05
318.15	1	0.0008966	0.0001166

System: water + Econazole nitrate; phases: Liquid, Crystal
Fixed: Pressure, kPa = 101.2
Property: Mole fraction of Econazole nitrate (Liquid); method: Chromatography
Temperature, K	Mole fraction of Econazole nitrate	uncertainty
278.15	1.674e-05	2.18e-06
283.15	2.049e-05	2.66e-06
288.15	2.469e-05	3.21e-06
293.15	2.934e-05	3.81e-06
298.15	3.441e-05	4.47e-06
303.15	3.984e-05	5.18e-06
308.15	4.559e-05	5.93e-06
313.15	5.159e-05	6.71e-06
318.15	5.776e-05	7.51e-06
