Measured thermophysical data. Hydration of urea and its derivatives - Volumetric and compressibility studies
Source: J. Chem. Thermodyn., 2014, 10.1016/j.jct.2014.07.012
Compound 1: urea, CH4N2O, InChI=1S/CH4N2O/c2-1(3)4/h(H4,2,3,4), purity 99.5%
Compound 2: N-propylurea, C4H10N2O, InChI=1S/C4H10N2O/c1-2-3-6-4(5)7/h2-3H2,1H3,(H3,5,6,7), purity 98%
Compound 3: N,N-dimethylurea, C3H8N2O, InChI=1S/C3H8N2O/c1-5(2)3(4)6/h1-2H3,(H2,4,6), purity 99%
Compound 4: 1,1-diethylurea, C5H12N2O, InChI=1S/C5H12N2O/c1-3-7(4-2)5(6)8/h3-4H2,1-2H3,(H2,6,8), purity 97%
Compound 5: N-butylurea, C5H12N2O, InChI=1S/C5H12N2O/c1-2-3-4-7-5(6)8/h2-4H2,1H3,(H3,6,7,8), purity 99%
Compound 6: water, H2O, InChI=1S/H2O/h1H2

System: water; phases: Liquid
Fixed: Pressure, kPa = 100
Property: Mass density, kg/m3 (Liquid); method: Vibrating tube method
Temperature, K	Mass density, kg/m3	uncertainty
288.15	999.1	0.039
293.15	998.206	0.04
298.15	997.054	0.04
303.15	995.661	0.041
308.15	994.043	0.042

System: water; phases: Liquid
Fixed: Pressure, kPa = 100
Fixed: Frequency, MHz = 3
Property: Speed of sound, m/s (Liquid); method: Sing-around technique in a fixed-path interferometer
Temperature, K	Speed of sound, m/s	uncertainty
288.15	1466.6	1.2
293.15	1482.5	1.2
298.15	1496.7	1.2
303.15	1509.3	1.2
308.15	1520	1.2

System: urea + water; phases: Liquid
Fixed: Pressure, kPa = 100
Property: Mass density, kg/m3 (Liquid); method: Vibrating tube method
Temperature, K	Molality, mol/kg of urea	Mass density, kg/m3	uncertainty
288.15	0	999.086	0.039
288.15	0.0504	999.922	0.039
288.15	0.0807	1000.426	0.039
288.15	0.1107	1000.918	0.04
288.15	0.151	1001.581	0.04
288.15	0.2005	1002.391	0.04
288.15	0.2512	1003.214	0.041
293.15	0	998.201	0.04
293.15	0.0504	999.019	0.04
293.15	0.0807	999.511	0.039
293.15	0.1107	999.994	0.039
293.15	0.151	1000.641	0.04
293.15	0.2005	1001.43	0.04
293.15	0.2512	1002.229	0.04
298.15	0	997.045	0.04
298.15	0.0504	997.847	0.04
298.15	0.0807	998.329	0.04
298.15	0.1107	998.802	0.04
298.15	0.151	999.436	0.04
298.15	0.2005	1000.21	0.04
298.15	0.2512	1000.993	0.04
303.15	0	995.653	0.041
303.15	0.0504	996.442	0.041
303.15	0.0807	996.911	0.041
303.15	0.1107	997.378	0.04
303.15	0.151	997.998	0.04
303.15	0.2005	998.757	0.04
303.15	0.2512	999.529	0.04
308.15	0	994.043	0.042
308.15	0.0504	994.816	0.041
308.15	0.0807	995.281	0.041
308.15	0.1107	995.738	0.041
308.15	0.151	996.351	0.041
308.15	0.2005	997.097	0.041
308.15	0.2512	997.855	0.041

System: urea + water; phases: Liquid
Fixed: Pressure, kPa = 100
Fixed: Frequency, MHz = 3
Property: Speed of sound, m/s (Liquid); method: Sing-around technique in a fixed-path interferometer
Temperature, K	Molality, mol/kg of urea	Speed of sound, m/s	uncertainty
288.15	0	1466.6	1.2
288.15	0.0504	1468.2	1.2
288.15	0.0807	1469.1	1.2
288.15	0.1107	1470	1.2
288.15	0.151	1471.3	1.2
288.15	0.2005	1472.8	1.2
288.15	0.2512	1474.1	1.2
293.15	0	1482.5	1.2
293.15	0.0504	1483.9	1.2
293.15	0.0807	1484.8	1.2
293.15	0.1107	1485.6	1.2
293.15	0.151	1486.8	1.2
293.15	0.2005	1488.1	1.2
293.15	0.2512	1489.5	1.2
298.15	0	1496.7	1.2
298.15	0.0504	1498	1.2
298.15	0.0807	1498.8	1.2
298.15	0.1107	1499.6	1.2
298.15	0.151	1500.6	1.2
298.15	0.2005	1501.9	1.2
298.15	0.2512	1503.1	1.2
303.15	0	1509.1	1.2
303.15	0.0504	1510.3	1.2
303.15	0.0807	1511	1.2
303.15	0.1107	1511.8	1.2
303.15	0.151	1512.7	1.2
303.15	0.2005	1513.9	1.2
303.15	0.2512	1515	1.2
308.15	0	1519.8	1.2
308.15	0.0504	1520.9	1.2
308.15	0.0807	1521.6	1.2
308.15	0.1107	1522.2	1.2
308.15	0.151	1523.1	1.2
308.15	0.2005	1524.2	1.2
308.15	0.2512	1525.3	1.2

System: N-propylurea + water; phases: Liquid
Fixed: Pressure, kPa = 100
Property: Mass density, kg/m3 (Liquid); method: Vibrating tube method
Temperature, K	Molality, mol/kg of N-propylurea	Mass density, kg/m3	uncertainty
288.15	0	999.096	0.039
288.15	0.0494	999.566	0.04
288.15	0.079	999.848	0.04
288.15	0.1089	1000.134	0.041
288.15	0.1484	1000.517	0.041
288.15	0.1983	1000.994	0.042
288.15	0.249	1001.486	0.043
288.15	0.3012	1001.991	0.045
293.15	0	998.206	0.04
293.15	0.0494	998.653	0.04
293.15	0.079	998.924	0.041
293.15	0.1089	999.198	0.041
293.15	0.1484	999.564	0.041
293.15	0.1983	1000.021	0.042
293.15	0.249	1000.493	0.043
293.15	0.3012	1000.974	0.044
298.15	0	997.051	0.04
298.15	0.0494	997.48	0.041
298.15	0.079	997.74	0.041
298.15	0.1089	998.003	0.042
298.15	0.1484	998.356	0.042
298.15	0.1983	998.792	0.043
298.15	0.249	999.244	0.043
298.15	0.3012	999.704	0.044
303.15	0	995.65	0.041
303.15	0.0494	996.069	0.041
303.15	0.079	996.318	0.042
303.15	0.1089	996.573	0.042
303.15	0.1484	996.91	0.043
303.15	0.1983	997.329	0.043
303.15	0.249	997.763	0.044
303.15	0.3012	998.202	0.045
308.15	0	994.036	0.042
308.15	0.0494	994.44	0.042
308.15	0.079	994.678	0.042
308.15	0.1089	994.925	0.043
308.15	0.1484	995.249	0.043
308.15	0.1983	995.652	0.044
308.15	0.249	996.069	0.045
308.15	0.3012	996.489	0.045

System: N-propylurea + water; phases: Liquid
Fixed: Pressure, kPa = 100
Fixed: Frequency, MHz = 3
Property: Speed of sound, m/s (Liquid); method: Sing-around technique in a fixed-path interferometer
Temperature, K	Molality, mol/kg of N-propylurea	Speed of sound, m/s	uncertainty
288.15	0	1466.7	1.2
288.15	0.0791	1473.3	1.2
288.15	0.1089	1475.8	1.2
288.15	0.1484	1479	1.2
288.15	0.1983	1483	1.2
288.15	0.249	1487.1	1.2
288.15	0.3012	1491.1	1.2
293.15	0	1482.6	1.2
293.15	0.0791	1488.9	1.2
293.15	0.1089	1491.1	1.2
293.15	0.1484	1494.1	1.2
293.15	0.1983	1497.8	1.2
293.15	0.249	1501.6	1.2
293.15	0.3012	1505.3	1.2
298.15	0	1496.9	1.2
298.15	0.0791	1502.6	1.2
298.15	0.1089	1504.7	1.2
298.15	0.1484	1507.4	1.2
298.15	0.1983	1510.8	1.2
298.15	0.249	1514.2	1.2
298.15	0.3012	1517.7	1.2
303.15	0	1509.5	1.2
303.15	0.0791	1514.5	1.2
303.15	0.1089	1516.4	1.2
303.15	0.1484	1518.9	1.2
303.15	0.1983	1522	1.2
303.15	0.249	1525.2	1.2
303.15	0.3012	1528.4	1.2
308.15	0	1520.2	1.2
308.15	0.0791	1524.8	1.2
308.15	0.1089	1526.5	1.2
308.15	0.1484	1528.8	1.2
308.15	0.1983	1531.7	1.2
308.15	0.249	1534.6	1.2
308.15	0.3012	1537.5	1.2

System: N,N-dimethylurea + water; phases: Liquid
Fixed: Pressure, kPa = 100
Property: Mass density, kg/m3 (Liquid); method: Vibrating tube method
Temperature, K	Molality, mol/kg of N,N-dimethylurea	Mass density, kg/m3	uncertainty
288.15	0	999.095	0.039
288.15	0.0526	999.644	0.039
288.15	0.0842	999.97	0.039
288.15	0.1149	1000.29	0.04
288.15	0.1572	1000.728	0.04
288.15	0.2104	1001.283	0.041
288.15	0.2629	1001.831	0.041
288.15	0.318	1002.401	0.042
293.15	0	998.205	0.04
293.15	0.0526	998.733	0.04
293.15	0.0842	999.051	0.04
293.15	0.1149	999.36	0.04
293.15	0.1572	999.785	0.04
293.15	0.2104	1000.321	0.04
293.15	0.2629	1000.85	0.041
293.15	0.318	1001.405	0.041
298.15	0	997.048	0.04
298.15	0.0526	997.562	0.04
298.15	0.0842	997.869	0.04
298.15	0.1149	998.171	0.04
298.15	0.1572	998.583	0.041
298.15	0.2104	999.103	0.041
298.15	0.2629	999.617	0.041
298.15	0.318	1000.153	0.041
303.15	0	995.653	0.041
303.15	0.0526	996.154	0.041
303.15	0.0842	996.454	0.041
303.15	0.1149	996.746	0.041
303.15	0.1572	997.148	0.041
303.15	0.2104	997.653	0.041
303.15	0.2629	998.153	0.041
303.15	0.318	998.673	0.042
308.15	0	994.037	0.042
308.15	0.0526	994.527	0.042
308.15	0.0842	994.818	0.042
308.15	0.1149	995.103	0.042
308.15	0.1572	995.495	0.042
308.15	0.2104	995.988	0.042
308.15	0.2629	996.474	0.042
308.15	0.318	996.98	0.042

System: N,N-dimethylurea + water; phases: Liquid
Fixed: Pressure, kPa = 100
Fixed: Frequency, MHz = 3
Property: Speed of sound, m/s (Liquid); method: Sing-around technique in a fixed-path interferometer
Temperature, K	Molality, mol/kg of N,N-dimethylurea	Speed of sound, m/s	uncertainty
288.15	0	1466.6	1.2
288.15	0.0526	1469.9	1.2
288.15	0.0842	1471.8	1.2
288.15	0.1149	1473.7	1.2
288.15	0.1572	1476.3	1.2
288.15	0.2104	1479.6	1.2
288.15	0.2629	1482.6	1.2
288.15	0.318	1485.9	1.2
293.15	0	1482.7	1.2
293.15	0.0526	1485.7	1.2
293.15	0.0842	1487.5	1.2
293.15	0.1149	1489.2	1.2
293.15	0.1572	1491.6	1.2
293.15	0.2104	1494.6	1.2
293.15	0.2629	1497.4	1.2
293.15	0.318	1500.4	1.2
298.15	0	1496.9	1.2
298.15	0.0526	1499.7	1.2
298.15	0.0842	1501.3	1.2
298.15	0.1149	1502.9	1.2
298.15	0.1572	1505.1	1.2
298.15	0.2104	1507.8	1.2
298.15	0.2629	1510.4	1.2
298.15	0.318	1513.2	1.2
303.15	0	1509.3	1.2
303.15	0.0526	1511.8	1.2
303.15	0.0842	1513.4	1.2
303.15	0.1149	1514.8	1.2
303.15	0.1572	1516.8	1.2
303.15	0.2104	1519.3	1.2
303.15	0.2629	1521.7	1.2
303.15	0.318	1524.2	1.2
308.15	0	1520	1.2
308.15	0.0526	1522.3	1.2
308.15	0.0842	1523.7	1.2
308.15	0.1149	1525	1.2
308.15	0.1572	1526.8	1.2
308.15	0.2104	1529.1	1.2
308.15	0.2629	1531.3	1.2
308.15	0.318	1533.6	1.2

System: 1,1-diethylurea + water; phases: Liquid
Fixed: Pressure, kPa = 100
Property: Mass density, kg/m3 (Liquid); method: Vibrating tube method
Temperature, K	Molality, mol/kg of 1,1-diethylurea	Mass density, kg/m3	uncertainty
288.15	0	999.1	0.039
288.15	0.0535	999.376	0.041
288.15	0.0856	999.546	0.041
288.15	0.1181	999.725	0.042
288.15	0.1603	999.959	0.043
288.15	0.2142	1000.267	0.045
288.15	0.2689	1000.589	0.047
288.15	0.3254	1000.929	0.049
293.15	0	998.209	0.04
293.15	0.0535	998.462	0.041
293.15	0.0856	998.62	0.042
293.15	0.1181	998.786	0.043
293.15	0.1603	999.002	0.044
293.15	0.2142	999.288	0.045
293.15	0.2689	999.586	0.047
293.15	0.3254	999.905	0.049
298.15	0	997.054	0.04
298.15	0.0535	997.288	0.042
298.15	0.0856	997.435	0.042
298.15	0.1181	997.589	0.043
298.15	0.1603	997.788	0.044
298.15	0.2142	998.052	0.046
298.15	0.2689	998.328	0.048
298.15	0.3254	998.628	0.05
303.15	0	995.661	0.041
303.15	0.0535	995.875	0.042
303.15	0.0856	996.012	0.043
303.15	0.1181	996.154	0.044
303.15	0.1603	996.338	0.045
303.15	0.2142	996.585	0.047
303.15	0.2689	996.837	0.048
303.15	0.3254	997.108	0.05
308.15	0	994.04	0.042
308.15	0.0535	994.243	0.043
308.15	0.0856	994.369	0.044
308.15	0.1181	994.501	0.045
308.15	0.1603	994.672	0.046
308.15	0.2142	994.898	0.047
308.15	0.2689	995.135	0.049
308.15	0.3254	995.381	0.051

System: 1,1-diethylurea + water; phases: Liquid
Fixed: Pressure, kPa = 100
Fixed: Frequency, MHz = 3
Property: Speed of sound, m/s (Liquid); method: Sing-around technique in a fixed-path interferometer
Temperature, K	Molality, mol/kg of 1,1-diethylurea	Speed of sound, m/s	uncertainty
288.15	0	1466.5	1.2
288.15	0.0856	1474.9	1.2
288.15	0.1181	1478	1.2
288.15	0.1603	1482	1.2
288.15	0.2142	1487	1.2
288.15	0.2689	1491.9	1.2
288.15	0.3254	1496.9	1.2
293.15	0	1482.4	1.2
293.15	0.0856	1490.4	1.2
293.15	0.1181	1493.2	1.2
293.15	0.1603	1496.8	1.2
293.15	0.2142	1501.4	1.2
293.15	0.2689	1506	1.2
293.15	0.3254	1510.3	1.2
298.15	0	1496.6	1.2
298.15	0.0856	1503.9	1.2
298.15	0.1181	1506.6	1.2
298.15	0.1603	1509.9	1.2
298.15	0.2142	1514.1	1.2
298.15	0.2689	1518.2	1.2
298.15	0.3254	1522.2	1.2
303.15	0	1509	1.2
303.15	0.0856	1515.7	1.2
303.15	0.1181	1518.1	1.2
303.15	0.1603	1521.2	1.2
303.15	0.2142	1525	1.2
303.15	0.2689	1528.8	1.2
303.15	0.3254	1532.6	1.3
308.15	0	1519.9	1.2
308.15	0.0856	1525.8	1.2
308.15	0.1181	1528	1.2
308.15	0.1603	1530.8	1.2
308.15	0.2142	1534.3	1.2
308.15	0.2689	1537.8	1.2
308.15	0.3254	1541.3	1.3

System: N-butylurea + water; phases: Liquid
Fixed: Pressure, kPa = 100
Property: Mass density, kg/m3 (Liquid); method: Vibrating tube method
Temperature, K	Molality, mol/kg of N-butylurea	Mass density, kg/m3	uncertainty
288.15	0	999.126	0.039
288.15	0.0486	999.444	0.04
288.15	0.0781	999.638	0.04
288.15	0.1078	999.835	0.04
288.15	0.1473	1000.1	0.04
288.15	0.1974	1000.443	0.041
288.15	0.2475	1000.782	0.041
288.15	0.2986	1001.137	0.042
293.15	0	998.232	0.04
293.15	0.0486	998.527	0.04
293.15	0.0781	998.707	0.04
293.15	0.1078	998.889	0.04
293.15	0.1473	999.134	0.04
293.15	0.1974	999.45	0.041
293.15	0.2475	999.763	0.041
293.15	0.2986	1000.09	0.04
298.15	0	997.074	0.04
298.15	0.0486	997.349	0.04
298.15	0.0781	997.514	0.041
298.15	0.1078	997.683	0.041
298.15	0.1473	997.909	0.041
298.15	0.1974	998.201	0.041
298.15	0.2475	998.489	0.042
298.15	0.2986	998.789	0.042
303.15	0	995.678	0.041
303.15	0.0486	995.933	0.041
303.15	0.0781	996.086	0.041
303.15	0.1078	996.243	0.041
303.15	0.1473	996.448	0.042
303.15	0.1974	996.718	0.042
303.15	0.2475	996.985	0.042
303.15	0.2986	997.259	0.043
308.15	0	994.065	0.042
308.15	0.0486	994.297	0.042
308.15	0.0781	994.438	0.042
308.15	0.1078	994.583	0.042
308.15	0.1473	994.774	0.042
308.15	0.1974	995.022	0.043
308.15	0.2475	995.266	0.043
308.15	0.2986	995.516	0.043

System: N-butylurea + water; phases: Liquid
Fixed: Pressure, kPa = 100
Fixed: Frequency, MHz = 3
Property: Speed of sound, m/s (Liquid); method: Sing-around technique in a fixed-path interferometer
Temperature, K	Molality, mol/kg of N-butylurea	Speed of sound, m/s	uncertainty
288.15	0	1466.6	1.2
288.15	0.0486	1471.6	1.2
288.15	0.0781	1474.5	1.2
288.15	0.1078	1477.5	1.2
288.15	0.1473	1481.3	1.2
288.15	0.1974	1486.1	1.2
288.15	0.2475	1490.8	1.2
288.15	0.2986	1495.5	1.2
293.15	0	1482.7	1.2
293.15	0.0486	1487.2	1.2
293.15	0.0781	1490	1.2
293.15	0.1078	1492.7	1.2
293.15	0.1473	1496.2	1.2
293.15	0.1974	1500.6	1.2
293.15	0.2475	1504.9	1.2
293.15	0.2986	1509.2	1.2
298.15	0	1496.9	1.2
298.15	0.0486	1501.1	1.2
298.15	0.0781	1503.6	1.2
298.15	0.1078	1506.1	1.2
298.15	0.1473	1509.3	1.2
298.15	0.1974	1513.3	1.2
298.15	0.2475	1517.3	1.2
298.15	0.2986	1521.2	1.2
303.15	0	1509.3	1.2
303.15	0.0486	1513.1	1.2
303.15	0.0781	1515.4	1.2
303.15	0.1078	1517.7	1.2
303.15	0.1473	1520.6	1.2
303.15	0.1974	1524.3	1.2
303.15	0.2475	1527.9	1.2
303.15	0.2986	1531.5	1.2
308.15	0	1520	1.2
308.15	0.0486	1523.5	1.2
308.15	0.0781	1525.6	1.2
308.15	0.1078	1527.6	1.2
308.15	0.1473	1530.3	1.2
308.15	0.1974	1533.7	1.2
308.15	0.2475	1536.9	1.2
308.15	0.2986	1540.2	1.2
