Measured thermophysical data. Excess properties and isobaric (vapor + liquid) equilibrium at sub-atmospheric pressures of binary (1,2-propanediol + 1,3-propanediol) system: Measurement and modelling
Source: J. Chem. Thermodyn., 2016, 10.1016/j.jct.2016.01.019
Compound 1: 1,2-propanediol, C3H8O2, InChI=1S/C3H8O2/c1-3(5)2-4/h3-5H,2H2,1H3, purity 99.5%
Compound 2: propan-1,3-diol, C3H8O2, InChI=1S/C3H8O2/c4-2-1-3-5/h4-5H,1-3H2, purity 99%

System: 1,2-propanediol; phases: Liquid, Gas
Property: Vapor or sublimation pressure, kPa (Liquid); method: Ebulliometric method (Recirculating still)
Temperature, K	Vapor or sublimation pressure, kPa	uncertainty
389.39	6.67	1.8
396.95	10	2.02
402.95	13.33	2.35
408.6	16.61	2.74
412.95	19.96	3.28
417.15	23.34	3.39
421.2	26.62	4.21
424.5	30	4.44
427.23	33.57	5.14
429.55	36.61	6.01
432.05	40.01	6.52
433.7	43.33	6.81
436.07	46.66	7.16
437.77	50	7.42
439.74	53.25	6.97
441.27	56.74	8.15
443.15	59.99	7.88
413.23	19.99	3.32
421.21	26.66	4.21
427.16	33.33	5.14
432.05	39.99	6.52

System: 1,2-propanediol; phases: Liquid
Fixed: Pressure, kPa = 94.64
Property: Refractive index (Na D-line) (Liquid); method: Standard Abbe refractometry
Temperature, K	Refractive index (Na D-line)	uncertainty
293.15	1.43219	0.00202
298.15	1.4303	0.00202
303.15	1.42921	0.00202
308.15	1.42746	0.00202
313.15	1.42566	0.00202
318.15	1.42386	0.00202

System: 1,2-propanediol; phases: Liquid
Fixed: Pressure, kPa = 94.64
Property: Mass density, kg/m3 (Liquid); method: Vibrating tube method
Temperature, K	Mass density, kg/m3	uncertainty
293.15	1036.25	3.2
298.15	1032.61	3.2
303.15	1028.93	3.2
308.15	1025.19	3.2
313.15	1021.42	3.2
318.15	1017.65	3.2

System: 1,2-propanediol; phases: Liquid
Fixed: Pressure, kPa = 94.64
Property: Refractive index (other wavelength) (Liquid); method: Standard Abbe refractometry
Temperature, K	Wavelength, nm	Refractive index (other wavelength)	uncertainty
293.15	404.7	1.445	0.00202
293.15	435.8	1.44204	0.00202
293.15	486.1	1.43722	0.00202
293.15	546.1	1.43406	0.00202
293.15	587.6	1.43227	0.00202
293.15	632.8	1.43023	0.00202
293.15	644	1.43008	0.00202
293.15	706.5	1.42866	0.00202
298.15	404.7	1.4429	0.00203
298.15	435.8	1.43967	0.00202
298.15	486.1	1.43566	0.00202
298.15	546.1	1.43245	0.00202
298.15	587.6	1.4305	0.00202
298.15	632.8	1.429	0.00202
298.15	644	1.4289	0.00202
298.15	706.5	1.42701	0.00202
303.15	404.7	1.44135	0.00203
303.15	435.8	1.43785	0.00202
303.15	486.1	1.43417	0.00202
303.15	546.1	1.43096	0.00202
303.15	587.6	1.42927	0.00202
303.15	632.8	1.42774	0.00202
303.15	644	1.42734	0.00202
303.15	706.5	1.42571	0.00202
308.15	404.7	1.43955	0.00203
308.15	435.8	1.43622	0.00202
308.15	486.1	1.43239	0.00202
308.15	546.1	1.42919	0.00202
308.15	587.6	1.42752	0.00202
308.15	632.8	1.426	0.00202
308.15	644	1.42565	0.00202
308.15	706.5	1.42397	0.00202
313.15	404.7	1.43771	0.00203
313.15	435.8	1.43437	0.00202
313.15	486.1	1.43055	0.00202
313.15	546.1	1.42738	0.00202
313.15	587.6	1.42572	0.00202
313.15	632.8	1.4242	0.00202
313.15	644	1.42386	0.00202
313.15	706.5	1.42219	0.00202
318.15	404.7	1.43584	0.00203
318.15	435.8	1.43252	0.00202
318.15	486.1	1.42875	0.00202
318.15	546.1	1.42557	0.00202
318.15	587.6	1.42392	0.00202
318.15	632.8	1.42243	0.00202
318.15	644	1.42208	0.00202
318.15	706.5	1.42043	0.00202

System: propan-1,3-diol; phases: Liquid, Gas
Property: Vapor or sublimation pressure, kPa (Liquid); method: Ebulliometric method (Recirculating still)
Temperature, K	Vapor or sublimation pressure, kPa	uncertainty
414.2	6.65	2.03
420.8	9.93	2.06
427.6	13.47	2.17
433.9	16.75	2.58
438.05	19.99	3.62
441.95	23.46	3.8
445.3	26.66	4.07
448.65	30.22	3.8
451.65	33.22	4.62
454.65	36.69	4.96
457.49	40.04	6.33
459.85	43.37	6
461.95	46.67	6.29
463.95	49.97	6.8
465.45	53.24	7.43
414.2	6.67	2.01
427.55	13.33	2.17
453.15	33.33	4.67
457.45	39.99	6.33
461.95	46.66	6.28

System: propan-1,3-diol; phases: Liquid
Fixed: Pressure, kPa = 94.64
Property: Refractive index (Na D-line) (Liquid); method: Standard Abbe refractometry
Temperature, K	Refractive index (Na D-line)	uncertainty
293.15	1.43932	0.00203
298.15	1.43796	0.00203
303.15	1.43665	0.00203
308.15	1.43523	0.00203
313.15	1.43385	0.00203
318.15	1.43255	0.00203

System: propan-1,3-diol; phases: Liquid
Fixed: Pressure, kPa = 94.64
Property: Mass density, kg/m3 (Liquid); method: Vibrating tube method
Temperature, K	Mass density, kg/m3	uncertainty
293.15	1052.75	3.21
298.15	1049.67	3.21
303.15	1046.55	3.21
308.15	1043.45	3.21
313.15	1040.32	3.21
318.15	1037.18	3.21

System: propan-1,3-diol; phases: Liquid
Fixed: Pressure, kPa = 94.64
Property: Refractive index (other wavelength) (Liquid); method: Standard Abbe refractometry
Temperature, K	Wavelength, nm	Refractive index (other wavelength)	uncertainty
293.15	404.7	1.45177	0.00203
293.15	435.8	1.44842	0.00203
293.15	486.1	1.4444	0.00203
293.15	546.1	1.44112	0.00203
293.15	587.6	1.43939	0.00203
293.15	632.8	1.43781	0.00203
293.15	644	1.43746	0.00203
293.15	706.5	1.43577	0.00203
298.15	404.7	1.45037	0.00203
298.15	435.8	1.447	0.00203
298.15	486.1	1.44301	0.00203
298.15	546.1	1.43975	0.00203
298.15	587.6	1.43802	0.00203
298.15	632.8	1.43645	0.00203
298.15	644	1.43611	0.00203
298.15	706.5	1.43441	0.00203
303.15	404.7	1.44902	0.00203
303.15	435.8	1.44566	0.00203
303.15	486.1	1.44168	0.00203
303.15	546.1	1.43844	0.00203
303.15	587.6	1.43671	0.00203
303.15	632.8	1.43514	0.00203
303.15	644	1.4348	0.00203
303.15	706.5	1.43312	0.00203
308.15	404.7	1.44755	0.00203
308.15	435.8	1.44419	0.00203
308.15	486.1	1.44027	0.00203
308.15	546.1	1.43699	0.00203
308.15	587.6	1.43529	0.00203
308.15	632.8	1.43375	0.00203
308.15	644	1.4334	0.00203
308.15	706.5	1.4317	0.00203
313.15	404.7	1.44615	0.00203
313.15	435.8	1.4428	0.00203
313.15	486.1	1.43888	0.00203
313.15	546.1	1.43562	0.00203
313.15	587.6	1.43392	0.00203
313.15	632.8	1.43238	0.00203
313.15	644	1.43203	0.00203
313.15	706.5	1.43035	0.00203
318.15	404.7	1.44474	0.00203
318.15	435.8	1.44141	0.00203
318.15	486.1	1.43754	0.00203
318.15	546.1	1.43429	0.00203
318.15	587.6	1.43261	0.00203
318.15	632.8	1.43109	0.00203
318.15	644	1.43075	0.00203
318.15	706.5	1.42908	0.00203

System: 1,2-propanediol + propan-1,3-diol; phases: Liquid, Gas
Property: Boiling temperature at pressure P, K (Liquid); method: Ebulliometric method (Recirculating still)
Pressure, kPa	Mole fraction of 1,2-propanediol	Boiling temperature at pressure P, K	uncertainty
6.67	0	414.2	4.11
6.67	0.042	412	4.12
6.67	0.1011	408.82	4.13
6.67	0.1502	406.72	4.14
6.67	0.2023	404.51	4.15
6.67	0.29	401.56	4.16
6.67	0.387	398.5	4.15
6.67	0.5009	395.86	4.16
6.67	0.5961	393.87	4.16
6.67	0.6965	392.31	4.16
6.67	0.7974	391.34	4.15
6.67	0.8985	390.68	4.14
6.67	0.9289	390.35	4.13
6.67	0.9695	390.08	4.13
6.67	1	389.39	4.11
13.33	0	427.55	4.26
13.33	0.0295	426.53	4.25
13.33	0.0689	425.02	4.23
13.33	0.0985	424.13	4.23
13.33	0.1502	422.5	4.27
13.33	0.2023	421	4.28
13.33	0.2854	418.87	4.3
13.33	0.3961	415.42	4.32
13.33	0.5009	413.12	4.33
13.33	0.5961	411.62	4.33
13.33	0.6965	410.05	4.33
13.33	0.8105	407.92	4.31
13.33	0.8985	406.28	4.28
13.33	0.9289	405.7	4.27
13.33	0.9695	404.85	4.26
13.33	1	402.95	4.26
19.99	0	438.05	4.31
19.99	0.0295	435.51	4.32
19.99	0.0689	433.67	4.34
19.99	0.135	431.22	4.34
19.99	0.2023	429.45	4.34
19.99	0.3015	427.15	4.31
19.99	0.3961	424.88	4.32
19.99	0.5009	423	4.31
19.99	0.5961	421.15	4.28
19.99	0.6965	419.55	4.27
19.99	0.7974	417.6	4.28
19.99	0.8985	415.4	4.29
19.99	0.9289	414.82	4.29
19.99	0.9695	414.04	4.29
19.99	1	413.23	4.33
26.66	0	445.3	4.39
26.66	0.0295	444.52	4.45
26.66	0.0689	443.51	4.49
26.66	0.135	441.45	4.5
26.66	0.2023	439.48	4.48
26.66	0.3015	436.15	4.43
26.66	0.3961	433.25	4.37
26.66	0.5009	430.79	4.33
26.66	0.5961	428.34	4.3
26.66	0.6965	426.25	4.28
26.66	0.7974	424.65	4.28
26.66	0.8985	423.2	4.31
26.66	0.9289	422.8	4.32
26.66	0.9695	421.9	4.33
26.66	1	421.21	4.34
33.33	0	453.15	4.39
33.33	0.0295	451.86	4.41
33.33	0.0689	450.83	4.41
33.33	0.135	448.63	4.42
33.33	0.2023	446.54	4.42
33.33	0.3015	443.25	4.45
33.33	0.3961	439.65	4.43
33.33	0.5009	436.71	4.37
33.33	0.5961	434.11	4.33
33.33	0.6965	432.1	4.32
33.33	0.7974	430.15	4.28
33.33	0.8985	428.75	4.29
33.33	0.9289	428.35	4.29
33.33	0.9695	427.78	4.31
33.33	1	427.16	4.32
39.99	0	457.45	4.31
39.99	0.0295	456.91	4.35
39.99	0.0689	456.02	4.34
39.99	0.0985	455.15	4.24
39.99	0.1502	453.64	4.34
39.99	0.2023	452.15	4.34
39.99	0.3015	449.27	4.36
39.99	0.3961	446.05	4.43
39.99	0.5009	442.6	4.42
39.99	0.5961	439.38	4.45
39.99	0.6965	436.95	4.43
39.99	0.7974	434.6	4.41
39.99	0.8985	433.32	4.34
39.99	0.9289	432.9	4.34
39.99	0.9695	432.44	4.32
39.99	1	432.05	4.32
46.66	0	461.95	4.42
46.66	0.0295	461.35	4.39
46.66	0.0689	460.11	4.34
46.66	0.0955	459	4.33
46.66	0.1502	457.5	4.31
46.66	0.2023	455.85	4.3
46.66	0.3015	452.87	4.3
46.66	0.3961	450.36	4.37
46.66	0.5109	446.94	4.48
46.66	0.5961	445.05	4.63
46.66	0.6965	442.83	4.66
46.66	0.8105	440.29	4.68
46.66	0.9124	437.91	4.5
46.66	0.9695	436.75	4.38
46.66	1	436.07	4.34

System: 1,2-propanediol + propan-1,3-diol; phases: Liquid
Fixed: Pressure, kPa = 94.64
Property: Refractive index (Na D-line) (Liquid); method: Standard Abbe refractometry
Temperature, K	Mole fraction of 1,2-propanediol	Refractive index (Na D-line)	uncertainty
293.15	0	1.43932	0.00203
293.15	0.0985	1.43907	0.00203
293.15	0.2023	1.43879	0.00203
293.15	0.3015	1.43838	0.00203
293.15	0.3961	1.4378	0.00203
293.15	0.5009	1.43695	0.00203
293.15	0.5961	1.436	0.00202
293.15	0.6965	1.43508	0.00202
293.15	0.7974	1.4342	0.00202
293.15	0.8985	1.4331	0.00202
293.15	1	1.43219	0.00202
298.15	0	1.43796	0.00203
298.15	0.0985	1.4376	0.00203
298.15	0.2023	1.43721	0.00203
298.15	0.3015	1.43671	0.00203
298.15	0.3961	1.43612	0.00203
298.15	0.5009	1.43533	0.00203
298.15	0.5961	1.43455	0.00202
298.15	0.6965	1.43364	0.00202
298.15	0.7974	1.43275	0.00202
298.15	0.8985	1.43161	0.00202
298.15	1	1.4303	0.00202
303.15	0	1.43665	0.00203
303.15	0.0985	1.43619	0.00203
303.15	0.2023	1.43572	0.00203
303.15	0.3015	1.43521	0.00203
303.15	0.3961	1.43459	0.00203
303.15	0.5009	1.4339	0.00203
303.15	0.5961	1.43318	0.00202
303.15	0.6965	1.4321	0.00202
303.15	0.7974	1.4311	0.00202
303.15	0.8985	1.43017	0.00202
303.15	1	1.42921	0.00202
308.15	0	1.43523	0.00203
308.15	0.0985	1.43478	0.00203
308.15	0.2023	1.43424	0.00203
308.15	0.3015	1.43377	0.00203
308.15	0.3961	1.43324	0.00203
308.15	0.5009	1.43241	0.00203
308.15	0.5961	1.43161	0.00202
308.15	0.6965	1.43076	0.00202
308.15	0.7974	1.42967	0.00202
308.15	0.8985	1.42858	0.00202
308.15	1	1.42746	0.00202
313.15	0	1.43385	0.00203
313.15	0.0985	1.4333	0.00203
313.15	0.2023	1.43276	0.00203
313.15	0.3015	1.43207	0.00203
313.15	0.3961	1.43145	0.00203
313.15	0.5009	1.43061	0.00203
313.15	0.5961	1.43	0.00202
313.15	0.6965	1.42906	0.00202
313.15	0.7974	1.42818	0.00202
313.15	0.8985	1.42699	0.00202
313.15	1	1.42566	0.00202
318.15	0	1.43255	0.00203
318.15	0.0985	1.43195	0.00203
318.15	0.2023	1.43131	0.00203
318.15	0.3015	1.43057	0.00203
318.15	0.3961	1.42992	0.00203
318.15	0.5009	1.42921	0.00203
318.15	0.5961	1.42848	0.00202
318.15	0.6965	1.42752	0.00202
318.15	0.7974	1.42653	0.00202
318.15	0.8985	1.42545	0.00202
318.15	1	1.42386	0.00202

System: 1,2-propanediol + propan-1,3-diol; phases: Liquid
Fixed: Pressure, kPa = 94.64
Property: Mass density, kg/m3 (Liquid); method: Vibrating tube method
Temperature, K	Mole fraction of 1,2-propanediol	Mass density, kg/m3	uncertainty
293.15	0	1052.75	3.21
293.15	0.0985	1051.85	3.21
293.15	0.2023	1050.9	3.21
293.15	0.3015	1049.75	3.21
293.15	0.3961	1048.38	3.2
293.15	0.5009	1046.9	3.2
293.15	0.5961	1045.18	3.2
293.15	0.6965	1043.35	3.2
293.15	0.7974	1041.33	3.2
293.15	0.8985	1038.71	3.2
293.15	1	1036.25	3.2
298.15	0	1049.67	3.21
298.15	0.0985	1048.71	3.21
298.15	0.2023	1047.71	3.21
298.15	0.3015	1046.51	3.21
298.15	0.3961	1045.09	3.2
298.15	0.5009	1043.57	3.2
298.15	0.5961	1041.79	3.2
298.15	0.6965	1039.9	3.2
298.15	0.7974	1037.77	3.2
298.15	0.8985	1035.15	3.2
298.15	1	1032.61	3.2
303.15	0	1046.55	3.21
303.15	0.0985	1045.54	3.21
303.15	0.2023	1044.49	3.21
303.15	0.3015	1043.23	3.21
303.15	0.3961	1041.76	3.2
303.15	0.5009	1040.18	3.2
303.15	0.5961	1038.34	3.2
303.15	0.6965	1036.39	3.2
303.15	0.7974	1034.25	3.2
303.15	0.8985	1031.52	3.2
303.15	1	1028.93	3.2
308.15	0	1043.45	3.21
308.15	0.0985	1042.36	3.21
308.15	0.2023	1041.24	3.21
308.15	0.3015	1039.93	3.21
308.15	0.3961	1038.41	3.2
308.15	0.5009	1036.78	3.2
308.15	0.5961	1034.87	3.2
308.15	0.6965	1032.85	3.2
308.15	0.7974	1030.65	3.2
308.15	0.8985	1027.85	3.2
308.15	1	1025.19	3.2
313.15	0	1040.32	3.21
313.15	0.0985	1039.16	3.21
313.15	0.2023	1037.97	3.21
313.15	0.3015	1036.61	3.21
313.15	0.3961	1035.02	3.2
313.15	0.5009	1033.34	3.2
313.15	0.5961	1031.36	3.2
313.15	0.6965	1029.27	3.2
313.15	0.7974	1027.04	3.2
313.15	0.8985	1024.18	3.2
313.15	1	1021.42	3.2
318.15	0	1037.18	3.21
318.15	0.0985	1035.96	3.21
318.15	0.2023	1034.7	3.21
318.15	0.3015	1033.26	3.21
318.15	0.3961	1031.62	3.2
318.15	0.5009	1029.89	3.2
318.15	0.5961	1027.83	3.2
318.15	0.6965	1025.68	3.2
318.15	0.7974	1023.38	3.2
318.15	0.8985	1020.43	3.2
318.15	1	1017.65	3.2

System: 1,2-propanediol + propan-1,3-diol; phases: Liquid
Fixed: Pressure, kPa = 94.64
Property: Refractive index (other wavelength) (Liquid); method: Standard Abbe refractometry
Temperature, K	Mole fraction of 1,2-propanediol	Wavelength, nm	Refractive index (other wavelength)	uncertainty
293.15	0	404.7	1.45177	0.00203
293.15	0.0985	404.7	1.45152	0.00203
293.15	0.2023	404.7	1.45117	0.00203
293.15	0.3015	404.7	1.45077	0.00203
293.15	0.3961	404.7	1.45025	0.00203
293.15	0.5009	404.7	1.44969	0.00203
293.15	0.5961	404.7	1.44909	0.00203
293.15	0.6965	404.7	1.44823	0.00203
293.15	0.7974	404.7	1.44738	0.00203
293.15	0.8985	404.7	1.44618	0.00203
293.15	1	404.7	1.445	0.00202
293.15	0	435.8	1.44842	0.00203
293.15	0.0985	435.8	1.44817	0.00203
293.15	0.2023	435.8	1.44786	0.00203
293.15	0.3015	435.8	1.44741	0.00203
293.15	0.3961	435.8	1.44688	0.00203
293.15	0.5009	435.8	1.44623	0.00203
293.15	0.5961	435.8	1.4456	0.00203
293.15	0.6965	435.8	1.44492	0.00203
293.15	0.7974	435.8	1.44401	0.00203
293.15	0.8985	435.8	1.44315	0.00203
293.15	1	435.8	1.44204	0.00202
293.15	0	486.1	1.4444	0.00203
293.15	0.0985	486.1	1.44417	0.00203
293.15	0.2023	486.1	1.44386	0.00203
293.15	0.3015	486.1	1.44341	0.00203
293.15	0.3961	486.1	1.4429	0.00203
293.15	0.5009	486.1	1.44217	0.00203
293.15	0.5961	486.1	1.44132	0.00203
293.15	0.6965	486.1	1.44021	0.00203
293.15	0.7974	486.1	1.43935	0.00202
293.15	0.8985	486.1	1.43821	0.00202
293.15	1	486.1	1.43722	0.00202
293.15	0	546.1	1.44112	0.00203
293.15	0.0985	546.1	1.44088	0.00203
293.15	0.2023	546.1	1.44041	0.00203
293.15	0.3015	546.1	1.44013	0.00203
293.15	0.3961	546.1	1.43961	0.00203
293.15	0.5009	546.1	1.43884	0.00203
293.15	0.5961	546.1	1.43806	0.00203
293.15	0.6965	546.1	1.43695	0.00202
293.15	0.7974	546.1	1.4362	0.00202
293.15	0.8985	546.1	1.43491	0.00202
293.15	1	546.1	1.43406	0.00202
293.15	0	587.6	1.43939	0.00203
293.15	0.0985	587.6	1.43913	0.00203
293.15	0.2023	587.6	1.43875	0.00203
293.15	0.3015	587.6	1.4384	0.00203
293.15	0.3961	587.6	1.43788	0.00203
293.15	0.5009	587.6	1.43721	0.00203
293.15	0.5961	587.6	1.43623	0.00203
293.15	0.6965	587.6	1.43524	0.00202
293.15	0.7974	587.6	1.43439	0.00202
293.15	0.8985	587.6	1.43321	0.00202
293.15	1	587.6	1.43227	0.00202
293.15	0	632.8	1.43781	0.00203
293.15	0.0985	632.8	1.43756	0.00203
293.15	0.2023	632.8	1.43729	0.00203
293.15	0.3015	632.8	1.43683	0.00203
293.15	0.3961	632.8	1.43632	0.00203
293.15	0.5009	632.8	1.43545	0.00203
293.15	0.5961	632.8	1.43467	0.00202
293.15	0.6965	632.8	1.43369	0.00202
293.15	0.7974	632.8	1.43253	0.00202
293.15	0.8985	632.8	1.43168	0.00202
293.15	1	632.8	1.43023	0.00202
293.15	0	644	1.43746	0.00203
293.15	0.0985	644	1.43722	0.00203
293.15	0.2023	644	1.43699	0.00203
293.15	0.3015	644	1.43649	0.00203
293.15	0.3961	644	1.43597	0.00203
293.15	0.5009	644	1.43501	0.00203
293.15	0.5961	644	1.43435	0.00203
293.15	0.6965	644	1.43334	0.00202
293.15	0.7974	644	1.43219	0.00202
293.15	0.8985	644	1.43133	0.00202
293.15	1	644	1.43008	0.00202
293.15	0	706.5	1.43577	0.00203
293.15	0.0985	706.5	1.43555	0.00203
293.15	0.2023	706.5	1.43506	0.00203
293.15	0.3015	706.5	1.43479	0.00203
293.15	0.3961	706.5	1.43428	0.00203
293.15	0.5009	706.5	1.43373	0.00203
293.15	0.5961	706.5	1.43315	0.00202
293.15	0.6965	706.5	1.43207	0.00202
293.15	0.7974	706.5	1.4311	0.00202
293.15	0.8985	706.5	1.42985	0.00202
293.15	1	706.5	1.42866	0.00202
298.15	0	404.7	1.45037	0.00203
298.15	0.0985	404.7	1.44979	0.00203
298.15	0.2023	404.7	1.44932	0.00203
298.15	0.3015	404.7	1.4489	0.00203
298.15	0.3961	404.7	1.44849	0.00203
298.15	0.5009	404.7	1.44768	0.00203
298.15	0.5961	404.7	1.44694	0.00203
298.15	0.6965	404.7	1.44595	0.00203
298.15	0.7974	404.7	1.44515	0.00203
298.15	0.8985	404.7	1.44396	0.00203
298.15	1	404.7	1.4429	0.00203
298.15	0	435.8	1.447	0.00203
298.15	0.0985	435.8	1.44654	0.00203
298.15	0.2023	435.8	1.44606	0.00203
298.15	0.3015	435.8	1.44553	0.00203
298.15	0.3961	435.8	1.44512	0.00203
298.15	0.5009	435.8	1.44432	0.00203
298.15	0.5961	435.8	1.4436	0.00203
298.15	0.6965	435.8	1.44261	0.00203
298.15	0.7974	435.8	1.44156	0.00203
298.15	0.8985	435.8	1.44059	0.00202
298.15	1	435.8	1.43967	0.00202
298.15	0	486.1	1.44301	0.00203
298.15	0.0985	486.1	1.44246	0.00203
298.15	0.2023	486.1	1.44198	0.00203
298.15	0.3015	486.1	1.44156	0.00203
298.15	0.3961	486.1	1.44107	0.00203
298.15	0.5009	486.1	1.44037	0.00203
298.15	0.5961	486.1	1.43963	0.00203
298.15	0.6965	486.1	1.43868	0.00203
298.15	0.7974	486.1	1.43776	0.00202
298.15	0.8985	486.1	1.43667	0.00202
298.15	1	486.1	1.43566	0.00202
298.15	0	546.1	1.43975	0.00203
298.15	0.0985	546.1	1.43919	0.00203
298.15	0.2023	546.1	1.43879	0.00203
298.15	0.3015	546.1	1.4383	0.00203
298.15	0.3961	546.1	1.43762	0.00203
298.15	0.5009	546.1	1.43712	0.00203
298.15	0.5961	546.1	1.43618	0.00203
298.15	0.6965	546.1	1.43541	0.00202
298.15	0.7974	546.1	1.43467	0.00202
298.15	0.8985	546.1	1.43341	0.00202
298.15	1	546.1	1.43245	0.00202
298.15	0	587.6	1.43802	0.00203
298.15	0.0985	587.6	1.43746	0.00203
298.15	0.2023	587.6	1.437	0.00203
298.15	0.3015	587.6	1.43658	0.00203
298.15	0.3961	587.6	1.43619	0.00203
298.15	0.5009	587.6	1.43539	0.00203
298.15	0.5961	587.6	1.43469	0.00203
298.15	0.6965	587.6	1.43371	0.00202
298.15	0.7974	587.6	1.43285	0.00202
298.15	0.8985	587.6	1.43168	0.00202
298.15	1	587.6	1.4305	0.00202
298.15	0	632.8	1.43645	0.00203
298.15	0.0985	632.8	1.4359	0.00203
298.15	0.2023	632.8	1.43532	0.00203
298.15	0.3015	632.8	1.43502	0.00203
298.15	0.3961	632.8	1.43462	0.00203
298.15	0.5009	632.8	1.43383	0.00203
298.15	0.5961	632.8	1.43322	0.00202
298.15	0.6965	632.8	1.43217	0.00202
298.15	0.7974	632.8	1.43136	0.00202
298.15	0.8985	632.8	1.43004	0.00202
298.15	1	632.8	1.429	0.00202
298.15	0	644	1.43611	0.00203
298.15	0.0985	644	1.43555	0.00203
298.15	0.2023	644	1.43498	0.00203
298.15	0.3015	644	1.43455	0.00203
298.15	0.3961	644	1.43428	0.00203
298.15	0.5009	644	1.43349	0.00203
298.15	0.5961	644	1.433	0.00203
298.15	0.6965	644	1.43183	0.00202
298.15	0.7974	644	1.43102	0.00202
298.15	0.8985	644	1.4298	0.00202
298.15	1	644	1.4289	0.00202
298.15	0	706.5	1.43441	0.00203
298.15	0.0985	706.5	1.43388	0.00203
298.15	0.2023	706.5	1.43335	0.00203
298.15	0.3015	706.5	1.43299	0.00203
298.15	0.3961	706.5	1.4326	0.00203
298.15	0.5009	706.5	1.43191	0.00203
298.15	0.5961	706.5	1.43129	0.00202
298.15	0.6965	706.5	1.43036	0.00202
298.15	0.7974	706.5	1.42924	0.00202
298.15	0.8985	706.5	1.42812	0.00202
298.15	1	706.5	1.42701	0.00202
303.15	0	404.7	1.44902	0.00203
303.15	0.0985	404.7	1.44844	0.00203
303.15	0.2023	404.7	1.44795	0.00203
303.15	0.3015	404.7	1.44749	0.00203
303.15	0.3961	404.7	1.44689	0.00203
303.15	0.5009	404.7	1.44619	0.00203
303.15	0.5961	404.7	1.44547	0.00203
303.15	0.6965	404.7	1.44435	0.00203
303.15	0.7974	404.7	1.44351	0.00203
303.15	0.8985	404.7	1.44237	0.00203
303.15	1	404.7	1.44135	0.00203
303.15	0	435.8	1.44566	0.00203
303.15	0.0985	435.8	1.44521	0.00203
303.15	0.2023	435.8	1.44451	0.00203
303.15	0.3015	435.8	1.44394	0.00203
303.15	0.3961	435.8	1.44353	0.00203
303.15	0.5009	435.8	1.44285	0.00203
303.15	0.5961	435.8	1.44213	0.00203
303.15	0.6965	435.8	1.44101	0.00203
303.15	0.7974	435.8	1.44017	0.00203
303.15	0.8985	435.8	1.43903	0.00202
303.15	1	435.8	1.43785	0.00202
303.15	0	486.1	1.44168	0.00203
303.15	0.0985	486.1	1.44133	0.00203
303.15	0.2023	486.1	1.44074	0.00203
303.15	0.3015	486.1	1.44019	0.00203
303.15	0.3961	486.1	1.43962	0.00203
303.15	0.5009	486.1	1.43892	0.00203
303.15	0.5961	486.1	1.43821	0.00203
303.15	0.6965	486.1	1.43713	0.00203
303.15	0.7974	486.1	1.43628	0.00202
303.15	0.8985	486.1	1.43516	0.00202
303.15	1	486.1	1.43417	0.00202
303.15	0	546.1	1.43844	0.00203
303.15	0.0985	546.1	1.43797	0.00203
303.15	0.2023	546.1	1.43739	0.00203
303.15	0.3015	546.1	1.43695	0.00203
303.15	0.3961	546.1	1.43637	0.00203
303.15	0.5009	546.1	1.43567	0.00203
303.15	0.5961	546.1	1.43498	0.00203
303.15	0.6965	546.1	1.43387	0.00202
303.15	0.7974	546.1	1.43316	0.00202
303.15	0.8985	546.1	1.43194	0.00202
303.15	1	546.1	1.43096	0.00202
303.15	0	587.6	1.43671	0.00203
303.15	0.0985	587.6	1.43615	0.00203
303.15	0.2023	587.6	1.43575	0.00203
303.15	0.3015	587.6	1.43524	0.00203
303.15	0.3961	587.6	1.43466	0.00203
303.15	0.5009	587.6	1.43396	0.00203
303.15	0.5961	587.6	1.43314	0.00203
303.15	0.6965	587.6	1.43216	0.00202
303.15	0.7974	587.6	1.43125	0.00202
303.15	0.8985	587.6	1.43024	0.00202
303.15	1	587.6	1.42927	0.00202
303.15	0	632.8	1.43514	0.00203
303.15	0.0985	632.8	1.4344	0.00203
303.15	0.2023	632.8	1.43386	0.00203
303.15	0.3015	632.8	1.43339	0.00203
303.15	0.3961	632.8	1.43311	0.00203
303.15	0.5009	632.8	1.43232	0.00203
303.15	0.5961	632.8	1.43161	0.00202
303.15	0.6965	632.8	1.43065	0.00202
303.15	0.7974	632.8	1.42981	0.00202
303.15	0.8985	632.8	1.42869	0.00202
303.15	1	632.8	1.42774	0.00202
303.15	0	644	1.4348	0.00203
303.15	0.0985	644	1.43405	0.00203
303.15	0.2023	644	1.43371	0.00203
303.15	0.3015	644	1.43304	0.00203
303.15	0.3961	644	1.43277	0.00203
303.15	0.5009	644	1.43207	0.00203
303.15	0.5961	644	1.43136	0.00202
303.15	0.6965	644	1.43031	0.00202
303.15	0.7974	644	1.42947	0.00202
303.15	0.8985	644	1.42834	0.00202
303.15	1	644	1.42734	0.00202
303.15	0	706.5	1.43312	0.00203
303.15	0.0985	706.5	1.43234	0.00203
303.15	0.2023	706.5	1.43183	0.00203
303.15	0.3015	706.5	1.43136	0.00203
303.15	0.3961	706.5	1.43109	0.00203
303.15	0.5009	706.5	1.4304	0.00203
303.15	0.5961	706.5	1.42989	0.00202
303.15	0.6965	706.5	1.42884	0.00202
303.15	0.7974	706.5	1.428	0.00202
303.15	0.8985	706.5	1.42669	0.00202
303.15	1	706.5	1.42571	0.00202
308.15	0	404.7	1.44755	0.00203
308.15	0.0985	404.7	1.44681	0.00203
308.15	0.2023	404.7	1.44642	0.00203
308.15	0.3015	404.7	1.44583	0.00203
308.15	0.3961	404.7	1.44528	0.00203
308.15	0.5009	404.7	1.44466	0.00203
308.15	0.5961	404.7	1.44403	0.00203
308.15	0.6965	404.7	1.44294	0.00203
308.15	0.7974	404.7	1.44202	0.00203
308.15	0.8985	404.7	1.44072	0.00203
308.15	1	404.7	1.43955	0.00203
308.15	0	435.8	1.44419	0.00203
308.15	0.0985	435.8	1.44355	0.00203
308.15	0.2023	435.8	1.44296	0.00203
308.15	0.3015	435.8	1.44258	0.00203
308.15	0.3961	435.8	1.44194	0.00203
308.15	0.5009	435.8	1.44132	0.00203
308.15	0.5961	435.8	1.4406	0.00203
308.15	0.6965	435.8	1.43962	0.00203
308.15	0.7974	435.8	1.43868	0.00203
308.15	0.8985	435.8	1.43738	0.00202
308.15	1	435.8	1.43622	0.00202
308.15	0	486.1	1.44027	0.00203
308.15	0.0985	486.1	1.43972	0.00203
308.15	0.2023	486.1	1.43922	0.00203
308.15	0.3015	486.1	1.43857	0.00203
308.15	0.3961	486.1	1.43806	0.00203
308.15	0.5009	486.1	1.43743	0.00203
308.15	0.5961	486.1	1.43673	0.00203
308.15	0.6965	486.1	1.43585	0.00203
308.15	0.7974	486.1	1.43482	0.00202
308.15	0.8985	486.1	1.43353	0.00202
308.15	1	486.1	1.43239	0.00202
308.15	0	546.1	1.43699	0.00203
308.15	0.0985	546.1	1.43636	0.00203
308.15	0.2023	546.1	1.43579	0.00203
308.15	0.3015	546.1	1.43522	0.00203
308.15	0.3961	546.1	1.4348	0.00203
308.15	0.5009	546.1	1.43417	0.00203
308.15	0.5961	546.1	1.43347	0.00203
308.15	0.6965	546.1	1.43254	0.00202
308.15	0.7974	546.1	1.43163	0.00202
308.15	0.8985	546.1	1.43033	0.00202
308.15	1	546.1	1.42919	0.00202
308.15	0	587.6	1.43529	0.00203
308.15	0.0985	587.6	1.43471	0.00203
308.15	0.2023	587.6	1.434	0.00203
308.15	0.3015	587.6	1.43353	0.00203
308.15	0.3961	587.6	1.4331	0.00203
308.15	0.5009	587.6	1.43247	0.00203
308.15	0.5961	587.6	1.43187	0.00203
308.15	0.6965	587.6	1.43093	0.00202
308.15	0.7974	587.6	1.42993	0.00202
308.15	0.8985	587.6	1.42865	0.00202
308.15	1	587.6	1.42752	0.00202
308.15	0	632.8	1.43375	0.00203
308.15	0.0985	632.8	1.43302	0.00203
308.15	0.2023	632.8	1.4324	0.00203
308.15	0.3015	632.8	1.432	0.00203
308.15	0.3961	632.8	1.43158	0.00203
308.15	0.5009	632.8	1.43095	0.00203
308.15	0.5961	632.8	1.43034	0.00202
308.15	0.6965	632.8	1.42938	0.00202
308.15	0.7974	632.8	1.42838	0.00202
308.15	0.8985	632.8	1.42712	0.00202
308.15	1	632.8	1.426	0.00202
308.15	0	644	1.4334	0.00203
308.15	0.0985	644	1.43286	0.00203
308.15	0.2023	644	1.4322	0.00203
308.15	0.3015	644	1.43185	0.00203
308.15	0.3961	644	1.43123	0.00203
308.15	0.5009	644	1.43061	0.00203
308.15	0.5961	644	1.43	0.00203
308.15	0.6965	644	1.42895	0.00202
308.15	0.7974	644	1.42803	0.00202
308.15	0.8985	644	1.42677	0.00202
308.15	1	644	1.42565	0.00202
308.15	0	706.5	1.4317	0.00203
308.15	0.0985	706.5	1.43089	0.00203
308.15	0.2023	706.5	1.4305	0.00203
308.15	0.3015	706.5	1.42987	0.00203
308.15	0.3961	706.5	1.42955	0.00203
308.15	0.5009	706.5	1.42893	0.00203
308.15	0.5961	706.5	1.42834	0.00203
308.15	0.6965	706.5	1.42729	0.00202
308.15	0.7974	706.5	1.42637	0.00202
308.15	0.8985	706.5	1.42508	0.00202
308.15	1	706.5	1.42397	0.00202
313.15	0	404.7	1.44615	0.00203
313.15	0.0985	404.7	1.44547	0.00203
313.15	0.2023	404.7	1.44484	0.00203
313.15	0.3015	404.7	1.44421	0.00203
313.15	0.3961	404.7	1.44353	0.00203
313.15	0.5009	404.7	1.4429	0.00203
313.15	0.5961	404.7	1.44213	0.00203
313.15	0.6965	404.7	1.4412	0.00203
313.15	0.7974	404.7	1.44027	0.00203
313.15	0.8985	404.7	1.4391	0.00203
313.15	1	404.7	1.43771	0.00203
313.15	0	435.8	1.4428	0.00203
313.15	0.0985	435.8	1.44212	0.00203
313.15	0.2023	435.8	1.44145	0.00203
313.15	0.3015	435.8	1.44077	0.00203
313.15	0.3961	435.8	1.44021	0.00203
313.15	0.5009	435.8	1.43956	0.00203
313.15	0.5961	435.8	1.43886	0.00203
313.15	0.6965	435.8	1.43787	0.00203
313.15	0.7974	435.8	1.43694	0.00203
313.15	0.8985	435.8	1.43576	0.00202
313.15	1	435.8	1.43437	0.00202
313.15	0	486.1	1.43888	0.00203
313.15	0.0985	486.1	1.43822	0.00203
313.15	0.2023	486.1	1.43758	0.00203
313.15	0.3015	486.1	1.43688	0.00203
313.15	0.3961	486.1	1.43634	0.00203
313.15	0.5009	486.1	1.43565	0.00203
313.15	0.5961	486.1	1.435	0.00203
313.15	0.6965	486.1	1.43401	0.00203
313.15	0.7974	486.1	1.43313	0.00202
313.15	0.8985	486.1	1.43193	0.00202
313.15	1	486.1	1.43055	0.00202
313.15	0	546.1	1.43562	0.00203
313.15	0.0985	546.1	1.43502	0.00203
313.15	0.2023	546.1	1.4344	0.00203
313.15	0.3015	546.1	1.43385	0.00203
313.15	0.3961	546.1	1.43312	0.00203
313.15	0.5009	546.1	1.43257	0.00203
313.15	0.5961	546.1	1.43175	0.00203
313.15	0.6965	546.1	1.43082	0.00202
313.15	0.7974	546.1	1.42992	0.00202
313.15	0.8985	546.1	1.42873	0.00202
313.15	1	546.1	1.42738	0.00202
313.15	0	587.6	1.43392	0.00203
313.15	0.0985	587.6	1.43331	0.00203
313.15	0.2023	587.6	1.43262	0.00203
313.15	0.3015	587.6	1.43194	0.00203
313.15	0.3961	587.6	1.43132	0.00203
313.15	0.5009	587.6	1.43077	0.00203
313.15	0.5961	587.6	1.43006	0.00203
313.15	0.6965	587.6	1.42912	0.00202
313.15	0.7974	587.6	1.42824	0.00202
313.15	0.8985	587.6	1.42705	0.00202
313.15	1	587.6	1.42572	0.00202
313.15	0	632.8	1.43238	0.00203
313.15	0.0985	632.8	1.43157	0.00203
313.15	0.2023	632.8	1.43095	0.00203
313.15	0.3015	632.8	1.43031	0.00203
313.15	0.3961	632.8	1.42988	0.00203
313.15	0.5009	632.8	1.42924	0.00203
313.15	0.5961	632.8	1.42852	0.00203
313.15	0.6965	632.8	1.42758	0.00202
313.15	0.7974	632.8	1.42673	0.00202
313.15	0.8985	632.8	1.42553	0.00202
313.15	1	632.8	1.4242	0.00202
313.15	0	644	1.43203	0.00203
313.15	0.0985	644	1.43122	0.00203
313.15	0.2023	644	1.43065	0.00203
313.15	0.3015	644	1.42997	0.00203
313.15	0.3961	644	1.42954	0.00203
313.15	0.5009	644	1.429	0.00203
313.15	0.5961	644	1.42818	0.00202
313.15	0.6965	644	1.42724	0.00202
313.15	0.7974	644	1.42638	0.00202
313.15	0.8985	644	1.42518	0.00202
313.15	1	644	1.42386	0.00202
313.15	0	706.5	1.43035	0.00203
313.15	0.0985	706.5	1.42953	0.00203
313.15	0.2023	706.5	1.42898	0.00203
313.15	0.3015	706.5	1.4284	0.00203
313.15	0.3961	706.5	1.42788	0.00203
313.15	0.5009	706.5	1.42723	0.00203
313.15	0.5961	706.5	1.42653	0.00202
313.15	0.6965	706.5	1.42558	0.00202
313.15	0.7974	706.5	1.4247	0.00202
313.15	0.8985	706.5	1.42352	0.00202
313.15	1	706.5	1.42219	0.00202
318.15	0	404.7	1.44474	0.00203
318.15	0.0985	404.7	1.44416	0.00203
318.15	0.2023	404.7	1.44346	0.00203
318.15	0.3015	404.7	1.44271	0.00203
318.15	0.3961	404.7	1.4421	0.00203
318.15	0.5009	404.7	1.44134	0.00203
318.15	0.5961	404.7	1.44059	0.00203
318.15	0.6965	404.7	1.43957	0.00203
318.15	0.7974	404.7	1.43859	0.00203
318.15	0.8985	404.7	1.43751	0.00203
318.15	1	404.7	1.43584	0.00203
318.15	0	435.8	1.44141	0.00203
318.15	0.0985	435.8	1.44072	0.00203
318.15	0.2023	435.8	1.44015	0.00203
318.15	0.3015	435.8	1.43938	0.00203
318.15	0.3961	435.8	1.43872	0.00203
318.15	0.5009	435.8	1.438	0.00203
318.15	0.5961	435.8	1.43725	0.00203
318.15	0.6965	435.8	1.43624	0.00203
318.15	0.7974	435.8	1.43526	0.00203
318.15	0.8985	435.8	1.43417	0.00202
318.15	1	435.8	1.43252	0.00202
318.15	0	486.1	1.43754	0.00203
318.15	0.0985	486.1	1.43671	0.00203
318.15	0.2023	486.1	1.43608	0.00203
318.15	0.3015	486.1	1.43535	0.00203
318.15	0.3961	486.1	1.43468	0.00203
318.15	0.5009	486.1	1.43396	0.00203
318.15	0.5961	486.1	1.43322	0.00203
318.15	0.6965	486.1	1.43243	0.00203
318.15	0.7974	486.1	1.43145	0.00202
318.15	0.8985	486.1	1.43035	0.00202
318.15	1	486.1	1.42875	0.00202
318.15	0	546.1	1.43429	0.00203
318.15	0.0985	546.1	1.43372	0.00203
318.15	0.2023	546.1	1.43312	0.00203
318.15	0.3015	546.1	1.43243	0.00203
318.15	0.3961	546.1	1.43177	0.00203
318.15	0.5009	546.1	1.43107	0.00203
318.15	0.5961	546.1	1.43022	0.00203
318.15	0.6965	546.1	1.42925	0.00202
318.15	0.7974	546.1	1.42827	0.00202
318.15	0.8985	546.1	1.42718	0.00202
318.15	1	546.1	1.42557	0.00202
318.15	0	587.6	1.43261	0.00203
318.15	0.0985	587.6	1.43191	0.00203
318.15	0.2023	587.6	1.43127	0.00203
318.15	0.3015	587.6	1.43053	0.00203
318.15	0.3961	587.6	1.42988	0.00203
318.15	0.5009	587.6	1.42918	0.00203
318.15	0.5961	587.6	1.42854	0.00203
318.15	0.6965	587.6	1.42758	0.00202
318.15	0.7974	587.6	1.42659	0.00202
318.15	0.8985	587.6	1.42551	0.00202
318.15	1	587.6	1.42392	0.00202
318.15	0	632.8	1.43109	0.00203
318.15	0.0985	632.8	1.43037	0.00203
318.15	0.2023	632.8	1.42963	0.00203
318.15	0.3015	632.8	1.42894	0.00203
318.15	0.3961	632.8	1.42826	0.00203
318.15	0.5009	632.8	1.42752	0.00203
318.15	0.5961	632.8	1.42682	0.00202
318.15	0.6965	632.8	1.42606	0.00202
318.15	0.7974	632.8	1.42507	0.00202
318.15	0.8985	632.8	1.424	0.00202
318.15	1	632.8	1.42243	0.00202
318.15	0	644	1.43075	0.00203
318.15	0.0985	644	1.43013	0.00203
318.15	0.2023	644	1.4294	0.00203
318.15	0.3015	644	1.42884	0.00203
318.15	0.3961	644	1.42811	0.00203
318.15	0.5009	644	1.42748	0.00203
318.15	0.5961	644	1.42668	0.00202
318.15	0.6965	644	1.42572	0.00202
318.15	0.7974	644	1.42473	0.00202
318.15	0.8985	644	1.42365	0.00202
318.15	1	644	1.42208	0.00202
318.15	0	706.5	1.42908	0.00203
318.15	0.0985	706.5	1.42827	0.00203
318.15	0.2023	706.5	1.4276	0.00203
318.15	0.3015	706.5	1.42698	0.00203
318.15	0.3961	706.5	1.42645	0.00203
318.15	0.5009	706.5	1.42575	0.00203
318.15	0.5961	706.5	1.425	0.00202
318.15	0.6965	706.5	1.42406	0.00202
318.15	0.7974	706.5	1.42308	0.00202
318.15	0.8985	706.5	1.42199	0.00202
318.15	1	706.5	1.42043	0.00202
