Measured thermophysical data. Measurement and correlation of solubility of pronamide in five organic solvents at (278.15-323.15) K
Source: J. Chem. Thermodyn., 2016, 10.1016/j.jct.2016.03.039
Compound 1: 3,5-dichloro-N-(1,1-dimethylpropynyl)benzamide, C12H11Cl2NO, InChI=1S/C12H11Cl2NO/c1-4-12(2,3)15-11(16)8-5-9(13)7-10(14)6-8/h1,5-7H,2-3H3,(H,15,16)
Compound 2: ethanol, C2H6O, InChI=1S/C2H6O/c1-2-3/h3H,2H2,1H3, purity 99.5%
Compound 3: methanol, CH4O, InChI=1S/CH4O/c1-2/h2H,1H3, purity 99.7%
Compound 4: propan-2-ol, C3H8O, InChI=1S/C3H8O/c1-3(2)4/h3-4H,1-2H3, purity 99.5%
Compound 5: cyclohexane, C6H12, InChI=1S/C6H12/c1-2-4-6-5-3-1/h1-6H2, purity 99.7%
Compound 6: toluene, C7H8, InChI=1S/C7H8/c1-7-5-3-2-4-6-7/h2-6H,1H3, purity 98%

System: 3,5-dichloro-N-(1,1-dimethylpropynyl)benzamide; phases: Crystal
Property: Mass density, kg/m3 (Crystal); method: X-ray diffraction
Temperature, K	Pressure, kPa	Mass density, kg/m3	uncertainty
298	101.325	1349	10

System: ethanol + 3,5-dichloro-N-(1,1-dimethylpropynyl)benzamide; phases: Liquid, Crystal
Fixed: Pressure, kPa = 101.3
Property: Mole fraction of 3,5-dichloro-N-(1,1-dimethylpropynyl)benzamide (Liquid); method: Titration method
Temperature, K	Mole fraction of 3,5-dichloro-N-(1,1-dimethylpropynyl)benzamide	uncertainty
278.15	0.0071	0.000838
283.15	0.00834	0.000985
288.15	0.00953	0.001125
293.15	0.01104	0.0013
298.15	0.01307	0.00154
303.15	0.01508	0.00178
308.15	0.01742	0.00206
313.15	0.02055	0.00243
318.15	0.02417	0.00285
323.15	0.02948	0.00348

System: methanol + 3,5-dichloro-N-(1,1-dimethylpropynyl)benzamide; phases: Liquid, Crystal
Fixed: Pressure, kPa = 101.3
Property: Mole fraction of 3,5-dichloro-N-(1,1-dimethylpropynyl)benzamide (Liquid); method: Titration method
Temperature, K	Mole fraction of 3,5-dichloro-N-(1,1-dimethylpropynyl)benzamide	uncertainty
278.15	0.00654	0.00077
283.15	0.0077	0.00091
288.15	0.00892	0.00105
293.15	0.01014	0.0012
298.15	0.01238	0.00146
303.15	0.01453	0.00172
308.15	0.01696	0.002
313.15	0.0201	0.00237
318.15	0.02356	0.00278
323.15	0.02829	0.00334

System: propan-2-ol + 3,5-dichloro-N-(1,1-dimethylpropynyl)benzamide; phases: Liquid, Crystal
Fixed: Pressure, kPa = 101.3
Property: Mole fraction of 3,5-dichloro-N-(1,1-dimethylpropynyl)benzamide (Liquid); method: Titration method
Temperature, K	Mole fraction of 3,5-dichloro-N-(1,1-dimethylpropynyl)benzamide	uncertainty
278.15	0.00219	0.00026
283.15	0.00269	0.00032
288.15	0.00351	0.00042
293.15	0.00526	0.00062
298.15	0.00705	0.00083
303.15	0.00865	0.00102
308.15	0.01117	0.00132
313.15	0.0137	0.00162
318.15	0.01709	0.00202
323.15	0.02299	0.00272

System: toluene + 3,5-dichloro-N-(1,1-dimethylpropynyl)benzamide; phases: Liquid, Crystal
Fixed: Pressure, kPa = 101.3
Property: Mole fraction of 3,5-dichloro-N-(1,1-dimethylpropynyl)benzamide (Liquid); method: Titration method
Temperature, K	Mole fraction of 3,5-dichloro-N-(1,1-dimethylpropynyl)benzamide	uncertainty
278.15	0.00179	0.00021
283.15	0.00238	0.00028
288.15	0.00298	0.00035
293.15	0.00368	0.00043
298.15	0.00467	0.00055
303.15	0.00593	0.0007
308.15	0.00735	0.00087
313.15	0.00924	0.00109
318.15	0.01131	0.00134
323.15	0.01245	0.00147

System: cyclohexane + 3,5-dichloro-N-(1,1-dimethylpropynyl)benzamide; phases: Liquid, Crystal
Fixed: Pressure, kPa = 101.3
Property: Mole fraction of 3,5-dichloro-N-(1,1-dimethylpropynyl)benzamide (Liquid); method: Titration method
Temperature, K	Mole fraction of 3,5-dichloro-N-(1,1-dimethylpropynyl)benzamide	uncertainty
283.15	0.000135	1.6e-05
288.15	0.000185	2.2e-05
293.15	0.000293	3.5e-05
298.15	0.000425	5e-05
303.15	0.000544	6.4e-05
308.15	0.000704	8.3e-05
313.15	0.00081	9.6e-05
318.15	0.00101	0.000119
323.15	0.00124	0.000146
