Measured thermophysical data. Enthalpies of dilution and volumetric properties of N,N0-hexamethylenebisacetamide in aqueous solutions of sodium chloride at 298.15 K
Source: J. Chem. Thermodyn., 2010, 10.1016/j.jct.2010.04.004
Compound 1: N,N'-diacetyl-1,6-hexanediamine, C10H20N2O2, InChI=1S/C10H20N2O2/c1-9(13)11-7-5-3-4-6-8-12-10(2)14/h3-8H2,1-2H3,(H,11,13)(H,12,14)
Compound 2: sodium chloride, ClNa, InChI=1S/ClH.Na/h1H;/q;+1/p-1
Compound 3: water, H2O, InChI=1S/H2O/h1H2, purity 99.9%

System: N,N'-diacetyl-1,6-hexanediamine + sodium chloride + water; phases: Liquid
Fixed: Temperature, K = 298.15
Fixed: Pressure, kPa = 101.325
Property: Molar enthalpy of dilution, kJ/mol (Liquid); method: Isothermal Titration Calorimetry
Solvent: Molality, mol/kg of sodium chloride	Initial molality of solute, mol/kg	Final molality of solute, mol/kg	Molar enthalpy of dilution, kJ/mol	uncertainty
0	0.50009	0.0117	-1.05671	0.02266
0	0.50009	0.0229	-1.03584	0.02222
0	0.50009	0.0336	-1.01626	0.0218
0	0.50009	0.0438	-0.99333	0.02132
0	0.50009	0.0536	-0.97345	0.0209
0	0.50009	0.0629	-0.95467	0.0205
0	0.50009	0.0719	-0.93655	0.02011
0	0.50009	0.0805	-0.92188	0.0198
0	0.50009	0.0888	-0.90752	0.0195
0	0.50009	0.0967	-0.89094	0.01915
0	0.50009	0.1044	-0.87572	0.01882
0	0.50009	0.1117	-0.86004	0.01849
0	0.50009	0.1188	-0.84503	0.01817
0	0.50009	0.1257	-0.83003	0.01786
0	0.50009	0.1322	-0.81572	0.01755
0	0.50009	0.1386	-0.80182	0.01726
0	0.50009	0.1448	-0.78911	0.01699
0	0.50009	0.1507	-0.77754	0.01674
0	0.50009	0.1564	-0.76498	0.01648
0	0.50009	0.162	-0.75301	0.01622
0	0.50009	0.1674	-0.74103	0.01597
0	0.50009	0.1726	-0.72917	0.01572
0	0.50009	0.1776	-0.71795	0.01548
0	0.50009	0.1825	-0.70672	0.01524
0	0.50009	0.1873	-0.69631	0.01502
0	0.50009	0.1919	-0.68611	0.01481
0	0.50009	0.1964	-0.67627	0.0146
0	0.50009	0.2007	-0.66656	0.01439
0	0.50009	0.2049	-0.65704	0.01419
0	0.50009	0.209	-0.64765	0.01399
0	0.50009	0.213	-0.63889	0.01381
0	0.50009	0.2169	-0.63014	0.01362
0	0.50009	0.2207	-0.62172	0.01344
0	0.50009	0.2243	-0.61339	0.01327
0	0.50009	0.2279	-0.60526	0.01309
0	0.50009	0.2314	-0.59721	0.01292
0	0.50009	0.2348	-0.5876	0.01272
0	0.50009	0.2381	-0.58115	0.01258
0	0.50009	0.2413	-0.57089	0.01236
0	0.50009	0.2445	-0.56472	0.01223
0.1	0.50005	0.0117	-1.12248	0.02406
0.1	0.50005	0.0229	-1.10475	0.02368
0.1	0.50005	0.0338	-1.0868	0.0233
0.1	0.50005	0.0438	-1.06792	0.0229
0.1	0.50005	0.0535	-1.05034	0.02253
0.1	0.50005	0.0629	-1.03093	0.02212
0.1	0.50005	0.0719	-1.01112	0.0217
0.1	0.50005	0.0805	-0.99098	0.02127
0.1	0.50005	0.0887	-0.97148	0.02086
0.1	0.50005	0.0967	-0.95033	0.02041
0.1	0.50005	0.1043	-0.9335	0.02005
0.1	0.50005	0.1117	-0.91727	0.01971
0.1	0.50005	0.1188	-0.90166	0.01937
0.1	0.50005	0.1256	-0.88672	0.01906
0.1	0.50005	0.1322	-0.87242	0.01875
0.1	0.50005	0.1385	-0.85856	0.01846
0.1	0.50005	0.1447	-0.84497	0.01817
0.1	0.50005	0.1506	-0.83173	0.01789
0.1	0.50005	0.1564	-0.8189	0.01762
0.1	0.50005	0.1619	-0.80676	0.01736
0.1	0.50005	0.1673	-0.79489	0.01711
0.1	0.50005	0.1725	-0.78335	0.01687
0.1	0.50005	0.1775	-0.77225	0.01663
0.1	0.50005	0.1824	-0.76127	0.0164
0.1	0.50005	0.1872	-0.75043	0.01617
0.1	0.50005	0.1918	-0.7399	0.01595
0.1	0.50005	0.1962	-0.7297	0.01573
0.1	0.50005	0.2006	-0.71973	0.01552
0.1	0.50005	0.2048	-0.7102	0.01532
0.1	0.50005	0.2089	-0.70114	0.01512
0.1	0.50005	0.2129	-0.69219	0.01493
0.1	0.50005	0.2168	-0.68328	0.01475
0.1	0.50005	0.2205	-0.6745	0.01456
0.1	0.50005	0.2242	-0.66616	0.01438
0.1	0.50005	0.2278	-0.65783	0.01421
0.1	0.50005	0.2313	-0.64967	0.01403
0.1	0.50005	0.2347	-0.64168	0.01386
0.1	0.50005	0.238	-0.6341	0.0137
0.1	0.50005	0.2412	-0.62867	0.01359
0.1	0.50005	0.2443	-0.62345	0.01348
0.15	0.49987	0.0117	-1.05213	0.02257
0.15	0.49987	0.0229	-1.03518	0.02221
0.15	0.49987	0.0336	-1.01837	0.02185
0.15	0.49987	0.0438	-1.00105	0.02148
0.15	0.49987	0.0535	-0.98307	0.0211
0.15	0.49987	0.0629	-0.96509	0.02072
0.15	0.49987	0.0719	-0.94851	0.02037
0.15	0.49987	0.0805	-0.93349	0.02005
0.15	0.49987	0.0887	-0.91916	0.01975
0.15	0.49987	0.0967	-0.903	0.0194
0.15	0.49987	0.1043	-0.88771	0.01908
0.15	0.49987	0.1117	-0.8727	0.01876
0.15	0.49987	0.1188	-0.85794	0.01845
0.15	0.49987	0.1256	-0.84361	0.01814
0.15	0.49987	0.1322	-0.82968	0.01785
0.15	0.49987	0.1385	-0.81647	0.01757
0.15	0.49987	0.1447	-0.80346	0.01729
0.15	0.49987	0.1506	-0.79097	0.01703
0.15	0.49987	0.1564	-0.77886	0.01677
0.15	0.49987	0.1619	-0.76743	0.01653
0.15	0.49987	0.1673	-0.75589	0.01628
0.15	0.49987	0.1725	-0.74454	0.01604
0.15	0.49987	0.1775	-0.73334	0.01581
0.15	0.49987	0.1824	-0.72242	0.01558
0.15	0.49987	0.1872	-0.71265	0.01537
0.15	0.49987	0.1918	-0.70291	0.01516
0.15	0.49987	0.1962	-0.69324	0.01496
0.15	0.49987	0.2006	-0.68367	0.01475
0.15	0.49987	0.2048	-0.67433	0.01456
0.15	0.49987	0.2089	-0.66512	0.01436
0.15	0.49987	0.2129	-0.6563	0.01417
0.15	0.49987	0.2168	-0.64764	0.01399
0.15	0.49987	0.2205	-0.63939	0.01382
0.15	0.49987	0.2242	-0.63119	0.01364
0.15	0.49987	0.2278	-0.62284	0.01347
0.15	0.49987	0.2313	-0.61513	0.0133
0.15	0.49987	0.2347	-0.60755	0.01314
0.15	0.49987	0.238	-0.6001	0.01298
0.15	0.49987	0.2412	-0.59266	0.01283
0.15	0.49987	0.2443	-0.58555	0.01268
0.2	0.50007	0.0117	-0.96861	0.02079
0.2	0.50007	0.0229	-0.95675	0.02054
0.2	0.50007	0.0336	-0.94142	0.02022
0.2	0.50007	0.0438	-0.92645	0.0199
0.2	0.50007	0.0536	-0.91044	0.01956
0.2	0.50007	0.0629	-0.89455	0.01922
0.2	0.50007	0.1673	-0.70004	0.0151
0.2	0.50007	0.1725	-0.68966	0.01488
0.2	0.50007	0.1776	-0.67961	0.01467
0.2	0.50007	0.1825	-0.66985	0.01446
0.2	0.50007	0.1872	-0.66047	0.01426
0.2	0.50007	0.1918	-0.65146	0.01407
0.2	0.50007	0.0719	-0.87881	0.01889
0.2	0.50007	0.0805	-0.86357	0.01857
0.2	0.50007	0.0888	-0.84899	0.01826
0.2	0.50007	0.0967	-0.83454	0.01795
0.2	0.50007	0.1043	-0.82011	0.01765
0.2	0.50007	0.1117	-0.80641	0.01736
0.2	0.50007	0.1188	-0.79304	0.01707
0.2	0.50007	0.1256	-0.78035	0.0168
0.2	0.50007	0.1322	-0.76789	0.01654
0.2	0.50007	0.1386	-0.75579	0.01628
0.2	0.50007	0.1447	-0.74372	0.01603
0.2	0.50007	0.1507	-0.73206	0.01578
0.2	0.50007	0.1564	-0.72124	0.01555
0.2	0.50007	0.162	-0.71069	0.01533
0.2	0.50007	0.1963	-0.64263	0.01388
0.2	0.50007	0.2006	-0.6339	0.0137
0.2	0.50007	0.2049	-0.62538	0.01352
0.2	0.50007	0.209	-0.61703	0.01334
0.2	0.50007	0.2129	-0.60886	0.01317
0.2	0.50007	0.2168	-0.60097	0.013
0.2	0.50007	0.2206	-0.59332	0.01284
0.2	0.50007	0.2243	-0.58587	0.01268
0.2	0.50007	0.2279	-0.57853	0.01253
0.2	0.50007	0.2313	-0.5714	0.01238
0.2	0.50007	0.2347	-0.56421	0.01222
0.2	0.50007	0.2381	-0.55734	0.01208
0.2	0.50007	0.2413	-0.55066	0.01194
0.2	0.50007	0.2444	-0.54415	0.0118
0.3	0.49721	0.0117	-0.98849	0.02122
0.3	0.49721	0.0229	-0.9742	0.02091
0.3	0.49721	0.0336	-0.96525	0.02072
0.3	0.49721	0.0438	-0.95426	0.02049
0.3	0.49721	0.0536	-0.94042	0.0202
0.3	0.49721	0.0629	-0.92715	0.01992
0.3	0.49721	0.0719	-0.91352	0.01963
0.3	0.49721	0.0805	-0.89865	0.01931
0.3	0.49721	0.0888	-0.88472	0.01902
0.3	0.49721	0.0968	-0.87126	0.01873
0.3	0.49721	0.1044	-0.85873	0.01846
0.3	0.49721	0.1118	-0.84573	0.01819
0.3	0.49721	0.1189	-0.83241	0.01791
0.3	0.49721	0.1257	-0.81917	0.01763
0.3	0.49721	0.1323	-0.80645	0.01736
0.3	0.49721	0.1387	-0.79456	0.0171
0.3	0.49721	0.1449	-0.78268	0.01685
0.3	0.49721	0.1508	-0.77066	0.0166
0.3	0.49721	0.1566	-0.7595	0.01636
0.3	0.49721	0.1621	-0.74845	0.01613
0.3	0.49721	0.1675	-0.73833	0.01591
0.3	0.49721	0.1728	-0.727	0.01567
0.3	0.49721	0.1778	-0.7161	0.01544
0.3	0.49721	0.1827	-0.70599	0.01523
0.3	0.49721	0.1875	-0.69622	0.01502
0.3	0.49721	0.1921	-0.6869	0.01482
0.3	0.49721	0.1966	-0.67784	0.01463
0.3	0.49721	0.2009	-0.66882	0.01444
0.3	0.49721	0.2052	-0.65988	0.01425
0.3	0.49721	0.2093	-0.65125	0.01407
0.3	0.49721	0.2133	-0.64278	0.01389
0.3	0.49721	0.2172	-0.6346	0.01371
0.3	0.49721	0.221	-0.62665	0.01355
0.3	0.49721	0.2246	-0.61895	0.01338
0.3	0.49721	0.2282	-0.61137	0.01322
0.3	0.49721	0.2317	-0.60402	0.01307
0.3	0.49721	0.2351	-0.59673	0.01291
0.3	0.49721	0.2385	-0.58966	0.01276
0.3	0.49721	0.2417	-0.58277	0.01262
0.3	0.49721	0.2449	-0.57596	0.01247
0.5	0.49949	0.0117	-1.00154	0.02149
0.5	0.49949	0.0229	-0.99634	0.02138
0.5	0.49949	0.0336	-0.98514	0.02114
0.5	0.49949	0.0438	-0.97126	0.02085
0.5	0.49949	0.0536	-0.95764	0.02056
0.5	0.49949	0.0629	-0.94196	0.02023
0.5	0.49949	0.0719	-0.92752	0.01992
0.5	0.49949	0.0805	-0.9128	0.01961
0.5	0.49949	0.0888	-0.89817	0.0193
0.5	0.49949	0.0967	-0.8843	0.01901
0.5	0.49949	0.1044	-0.87118	0.01873
0.5	0.49949	0.1117	-0.85841	0.01846
0.5	0.49949	0.1188	-0.8459	0.01819
0.5	0.49949	0.1256	-0.83329	0.01793
0.5	0.49949	0.1322	-0.82092	0.01766
0.5	0.49949	0.1386	-0.80876	0.01741
0.5	0.49949	0.1447	-0.79664	0.01715
0.5	0.49949	0.1507	-0.78527	0.01691
0.5	0.49949	0.1564	-0.77399	0.01667
0.5	0.49949	0.162	-0.76313	0.01644
0.5	0.49949	0.1674	-0.75268	0.01622
0.5	0.49949	0.1726	-0.74208	0.01599
0.5	0.49949	0.1776	-0.73152	0.01577
0.5	0.49949	0.1825	-0.72142	0.01555
0.5	0.49949	0.1872	-0.71145	0.01534
0.5	0.49949	0.1919	-0.70201	0.01514
0.5	0.49949	0.1963	-0.69273	0.01495
0.5	0.49949	0.2007	-0.68378	0.01476
0.5	0.49949	0.2049	-0.67481	0.01457
0.5	0.49949	0.209	-0.66602	0.01438
0.5	0.49949	0.213	-0.65746	0.0142
0.5	0.49949	0.2169	-0.64916	0.01402
0.5	0.49949	0.2206	-0.64117	0.01385
0.5	0.49949	0.2243	-0.6334	0.01369
0.5	0.49949	0.2279	-0.62575	0.01353
0.5	0.49949	0.2314	-0.61832	0.01337
0.5	0.49949	0.2348	-0.61086	0.01321
0.5	0.49949	0.2381	-0.60375	0.01306
0.5	0.49949	0.2413	-0.59675	0.01291
0.5	0.49949	0.2445	-0.5899	0.01277
0.7	0.49993	0.0117	-1.02766	0.02205
0.7	0.49993	0.0229	-1.02322	0.02195
0.7	0.49993	0.0336	-1.01293	0.02173
0.7	0.49993	0.0438	-0.99769	0.02141
0.7	0.49993	0.0535	-0.98243	0.02109
0.7	0.49993	0.0629	-0.96641	0.02075
0.7	0.49993	0.0719	-0.95099	0.02042
0.7	0.49993	0.0805	-0.93663	0.02012
0.7	0.49993	0.0888	-0.92264	0.01982
0.7	0.49993	0.0967	-0.90821	0.01951
0.7	0.49993	0.1044	-0.89521	0.01924
0.7	0.49993	0.1117	-0.88208	0.01896
0.7	0.49993	0.1188	-0.8694	0.01869
0.7	0.49993	0.1256	-0.85585	0.0184
0.7	0.49993	0.1322	-0.84332	0.01814
0.7	0.49993	0.1386	-0.83089	0.01787
0.7	0.49993	0.1674	-0.77307	0.01665
0.7	0.49993	0.1726	-0.76205	0.01642
0.7	0.49993	0.1776	-0.75181	0.0162
0.7	0.49993	0.1825	-0.74154	0.01598
0.7	0.49993	0.1873	-0.73163	0.01577
0.7	0.49993	0.1919	-0.72202	0.01557
0.7	0.49993	0.1964	-0.71236	0.01536
0.7	0.49993	0.2007	-0.70303	0.01516
0.7	0.49993	0.2049	-0.6938	0.01497
0.7	0.49993	0.209	-0.6848	0.01478
0.7	0.49993	0.213	-0.67605	0.01459
0.7	0.49993	0.2169	-0.66763	0.01441
0.7	0.49993	0.2207	-0.6594	0.01424
0.7	0.49993	0.2244	-0.6514	0.01407
0.7	0.49993	0.2279	-0.64348	0.0139
0.7	0.49993	0.2314	-0.6358	0.01374
0.7	0.49993	0.1447	-0.81908	0.01762
0.7	0.49993	0.1507	-0.80719	0.01737
0.7	0.49993	0.1564	-0.79557	0.01713
0.7	0.49993	0.162	-0.78419	0.01688
0.7	0.49993	0.2348	-0.62818	0.01358
0.7	0.49993	0.2381	-0.62076	0.01342
0.7	0.49993	0.2414	-0.61358	0.01327
0.7	0.49993	0.2445	-0.60652	0.01312
0.8	0.4999	0.0117	-1.04433	0.0224
0.8	0.4999	0.0229	-1.02765	0.02205
0.8	0.4999	0.0336	-1.01468	0.02177
0.8	0.4999	0.0438	-0.99429	0.02134
0.8	0.4999	0.0535	-0.97792	0.02099
0.8	0.4999	0.0629	-0.96384	0.02069
0.8	0.4999	0.0719	-0.94645	0.02032
0.8	0.4999	0.0805	-0.93139	0.02001
0.8	0.4999	0.0888	-0.91908	0.01974
0.8	0.4999	0.0967	-0.90481	0.01944
0.8	0.4999	0.1044	-0.89071	0.01914
0.8	0.4999	0.1117	-0.87737	0.01886
0.8	0.4999	0.1188	-0.86416	0.01858
0.8	0.4999	0.1256	-0.85166	0.01831
0.8	0.4999	0.1322	-0.83923	0.01805
0.8	0.4999	0.1386	-0.82658	0.01778
0.8	0.4999	0.1447	-0.81525	0.01754
0.8	0.4999	0.1507	-0.80397	0.0173
0.8	0.4999	0.1564	-0.79195	0.01705
0.8	0.4999	0.162	-0.77887	0.01677
0.8	0.4999	0.1674	-0.76714	0.01652
0.8	0.4999	0.1726	-0.75658	0.0163
0.8	0.4999	0.1776	-0.7483	0.01612
0.8	0.4999	0.1825	-0.74042	0.01596
0.8	0.4999	0.1873	-0.72768	0.01569
0.8	0.4999	0.1919	-0.71768	0.01547
0.8	0.4999	0.1964	-0.70836	0.01528
0.8	0.4999	0.2007	-0.69914	0.01508
0.8	0.4999	0.2049	-0.69043	0.0149
0.8	0.4999	0.209	-0.68177	0.01471
0.8	0.4999	0.213	-0.67333	0.01454
0.8	0.4999	0.2169	-0.66514	0.01436
0.8	0.4999	0.2207	-0.65716	0.01419
0.8	0.4999	0.2243	-0.64936	0.01403
0.8	0.4999	0.2279	-0.64169	0.01386
0.8	0.4999	0.2314	-0.63406	0.0137
0.8	0.4999	0.2348	-0.62664	0.01355
0.8	0.4999	0.2381	-0.61936	0.01339
0.8	0.4999	0.2414	-0.6123	0.01324
0.8	0.4999	0.2445	-0.60528	0.01309

System: N,N'-diacetyl-1,6-hexanediamine + sodium chloride + water; phases: Liquid
Fixed: Temperature, K = 298.15
Fixed: Pressure, kPa = 101.325
Property: Mass density, kg/m3 (Liquid); method: Vibrating tube method
Solvent: Molality, mol/kg of sodium chloride	Molality, mol/kg of N,N'-diacetyl-1,6-hexanediamine	Mass density, kg/m3	uncertainty
0	0.0501	997.509	0.402
0	0.1	997.98	0.402
0	0.1501	998.452	0.402
0	0.2	998.938	0.403
0	0.25	999.43	0.403
0	0.2999	999.91	0.403
0	0.3501	1000.427	0.403
0	0.4	1000.925	0.404
0	0.4501	1001.424	0.405
0	0.5	1001.928	0.405
0.1	0.05	1001.452	0.404
0.1	0.1	1001.898	0.405
0.1	0.1501	1002.354	0.406
0.1	0.2	1002.816	0.406
0.1	0.2499	1003.285	0.407
0.1	0.2999	1003.755	0.407
0.1	0.3499	1004.243	0.408
0.1	0.4	1004.73	0.408
0.1	0.45	1005.218	0.409
0.1	0.4998	1005.722	0.409
0.15	0.0501	1003.65	0.41
0.15	0.1001	1004.077	0.408
0.15	0.1499	1004.506	0.408
0.15	0.2001	1004.938	0.408
0.15	0.25	1005.375	0.409
0.15	0.3	1005.815	0.409
0.15	0.3499	1006.261	0.41
0.15	0.4001	1006.712	0.411
0.15	0.45	1007.174	0.411
0.15	0.5	1007.63	0.43
0.2	0.0499	999.358	0.403
0.2	0.0999	1002.408	0.41
0.2	0.15	1005.538	0.414
0.2	0.1999	1008.69	0.417
0.2	0.2499	1011.861	0.421
0.2	0.29988	1014.92	0.424
0.2	0.3499	1017.992	0.428
0.2	0.3999	1021.062	0.431
0.2	0.4499	1024.069	0.434
0.2	0.4998	1027.097	0.465
0.3	0.05	1009.662	0.417
0.3	0.1	1010.04	0.414
0.3	0.15	1010.422	0.415
0.3	0.2	1010.814	0.415
0.3	0.2501	1011.206	0.416
0.3	0.3	1011.602	0.416
0.3	0.35	1011.999	0.417
0.3	0.4001	1012.405	0.417
0.3	0.4501	1012.82	0.417
0.3	0.5	1013.234	0.436
0.4	0.0501	1013.469	0.418
0.4	0.1	1013.817	0.419
0.4	0.1499	1014.168	0.419
0.4	0.2	1014.525	0.419
0.4	0.2499	1014.885	0.42
0.4	0.3	1015.254	0.42
0.4	0.3501	1015.622	0.421
0.4	0.4	1015.986	0.421
0.4	0.45	1016.372	0.422
0.4	0.4999	1016.738	0.422
0.5	0.05	1016.467	0.422
0.5	0.1	1016.8	0.422
0.5	0.1499	1017.143	0.422
0.5	0.2001	1017.489	0.423
0.5	0.25	1017.847	0.423
0.5	0.3	1018.207	0.424
0.5	0.3501	1018.587	0.424
0.5	0.4001	1018.965	0.424
0.5	0.45	1019.338	0.425
0.5	0.5001	1019.722	0.426
0.7	0.0495	1025.529	0.432
0.7	0.0991	1025.775	0.432
0.7	0.1485	1026.021	0.433
0.7	0.198	1026.272	0.433
0.7	0.2475	1026.523	0.433
0.7	0.2972	1026.776	0.433
0.7	0.349	1027.031	0.434
0.7	0.3988	1027.288	0.434
0.7	0.4486	1027.545	0.434
0.7	0.4951	1027.8	0.435
0.8	0.05	1029.138	0.436
0.8	0.1	1029.365	0.436
0.8	0.15	1029.592	0.437
0.8	0.2	1029.825	0.437
0.8	0.25	1030.059	0.437
0.8	0.3	1030.293	0.438
0.8	0.35	1030.535	0.438
0.8	0.4	1030.775	0.438
0.8	0.45	1031.018	0.438
0.8	0.5	1031.266	0.439

System: N,N'-diacetyl-1,6-hexanediamine + water; phases: Liquid
Fixed: Initial molality of solute, mol/kg = 0.50009
Fixed: Temperature, K = 298.15
Fixed: Pressure, kPa = 101.325
Property: Molar enthalpy of dilution, kJ/mol (Liquid); method: Isothermal Titration Calorimetry
Final molality of solute, mol/kg	Molar enthalpy of dilution, kJ/mol	uncertainty
0.0117	-1.05671	0.02266
0.0229	-1.03584	0.02222
0.0336	-1.01626	0.0218
0.0438	-0.99333	0.02132
0.0536	-0.97345	0.0209
0.0629	-0.95467	0.0205
0.0719	-0.93655	0.02011
0.0805	-0.92188	0.0198
0.0888	-0.90752	0.0195
0.0967	-0.89094	0.01915
0.1044	-0.87572	0.01882
0.1117	-0.86004	0.01849
0.1188	-0.84503	0.01817
0.1257	-0.83003	0.01786
0.1322	-0.81572	0.01755
0.1386	-0.80182	0.01726
0.1448	-0.78911	0.01699
0.1507	-0.77754	0.01674
0.1564	-0.76498	0.01648
0.162	-0.75301	0.01622
0.1674	-0.74103	0.01597
0.1726	-0.72917	0.01572
0.1776	-0.71795	0.01548
0.1825	-0.70672	0.01524
0.1873	-0.69631	0.01502
0.1919	-0.68611	0.01481
0.1964	-0.67627	0.0146
0.2007	-0.66656	0.01439
0.2049	-0.65704	0.01419
0.209	-0.64765	0.01399
0.213	-0.63889	0.01381
0.2169	-0.63014	0.01362
0.2207	-0.62172	0.01344
0.2243	-0.61339	0.01327
0.2279	-0.60526	0.01309
0.2314	-0.59721	0.01292
0.2348	-0.5876	0.01272
0.2381	-0.58115	0.01258
0.2413	-0.57089	0.01236
0.2445	-0.56472	0.01223

System: N,N'-diacetyl-1,6-hexanediamine + water; phases: Liquid
Fixed: Temperature, K = 298.15
Fixed: Pressure, kPa = 101.325
Property: Mass density, kg/m3 (Liquid); method: Vibrating tube method
Molality, mol/kg of N,N'-diacetyl-1,6-hexanediamine	Mass density, kg/m3	uncertainty
0.0501	997.509	0.402
0.1	997.98	0.402
0.1501	998.452	0.402
0.2	998.938	0.403
0.25	999.43	0.403
0.2999	999.91	0.403
0.3501	1000.427	0.403
0.4	1000.925	0.404
0.4501	1001.424	0.405
0.5	1001.928	0.405
