Measured thermophysical data. Kinematic viscosity and speed of sound in gaseous CO, CO2, SiF4, SF6, C4F8, and NH3 from 220 K to 375 K and pressures up to 3.4 MPa
Source: J. Chem. Thermodyn., 2008, 10.1016/j.jct.2007.07.002
Compound 1: carbon monoxide, CO, InChI=1S/CO/c1-2
Compound 2: carbon dioxide, CO2, InChI=1S/CO2/c2-1-3
Compound 3: silicon tetrafluoride, F4Si, InChI=1S/F4Si/c1-5(2,3)4
Compound 4: sulfur hexafluoride, F6S, InChI=1S/F6S/c1-7(2,3,4,5)6
Compound 5: octafluorocyclobutane, C4F8, InChI=1S/C4F8/c5-1(6)2(7,8)4(11,12)3(1,9)10
Compound 6: ammonia, H3N, InChI=1S/H3N/h1H3

System: carbon monoxide; phases: Gas
Property: Kinematic viscosity, m2/s (Gas); method: double Helmholtz acoustic resonator
Temperature, K	Pressure, kPa	Kinematic viscosity, m2/s	uncertainty
225	250.04	3.742e-06	4.49e-08
225	371.9	2.502e-06	1.88e-07
225	499.99	1.858e-06	5e-08
225	560.56	1.675e-06	6e-08
225	743.07	1.253e-06	1.5e-08
225	750	1.2332e-06	1.86e-08
225	934.61	1.0005e-06	1.2e-08
225	1000	9.402e-07	1.13e-08
225	1141.55	8.167e-07	9.8e-09
225	1250	7.365e-07	1.28e-08
225	1345.57	6.952e-07	8.3e-09
225	1500	6.194e-07	7.4e-09
225	1581.46	5.882e-07	7.1e-09
225	1750	5.317e-07	6.4e-09
225	1787.07	5.204e-07	6.6e-09
225	2000	4.659e-07	8.4e-09
225	2016.09	4.629e-07	5.6e-09
225	2263.97	4.141e-07	5e-09
225	2454.7	3.787e-07	5e-09
250	221.65	5.37e-06	7.2e-07
250	401.55	2.878e-06	6.6e-08
250	587.83	1.955e-06	4.4e-08
250	791.25	1.4462e-06	1.74e-08
250	982.55	1.163e-06	2.4e-08
250	1169.11	9.777e-07	1.44e-08
250	1392.31	8.191e-07	9.8e-09
250	1587.81	7.193e-07	1.04e-08
250	1808.18	6.278e-07	7.5e-09
250	2050.14	5.565e-07	6.8e-09
250	2241.48	5.084e-07	6.1e-09
275	250.64	5.04e-06	1.06e-06
275	286.53	4.39e-06	2.8e-07
275	465.9	2.827e-06	9.6e-08
275	500.41	2.7e-06	1e-07
275	652.16	2.0691e-06	2.48e-08
275	750	1.84e-06	1.42e-07
275	832.04	1.6325e-06	1.98e-08
275	1000	1.371e-06	5.6e-08
275	1045.38	1.297e-06	2.2e-08
275	1250	1.109e-06	4.2e-08
275	1252.24	1.0859e-06	1.92e-08
275	1443.14	9.45e-07	1.13e-08
275	1500	9.2e-07	2.2e-08
275	1675	8.124e-07	9.7e-09
275	1750	7.885e-07	9.5e-09
275	1882.65	7.231e-07	8.7e-09
275	2000	6.961e-07	8.4e-09
275	2150.85	6.334e-07	7.6e-09
275	2364.73	5.787e-07	6.9e-09
300	252.56	6.71e-06	2.4e-07
300	501.19	3.248e-06	4.4e-08
300	709.53	2.28e-06	4.8e-07
300	1000.01	1.6371e-06	1.96e-08
300	1178.09	1.3919e-06	1.67e-08
300	1250.01	1.3138e-06	1.58e-08
300	1373.95	1.2005e-06	1.44e-08
300	1481.47	1.1191e-06	1.34e-08
300	1500	1.0997e-06	1.32e-08
300	1602.13	1.0286e-06	1.23e-08
300	1730.28	9.548e-07	1.15e-08
300	1750	9.467e-07	1.14e-08
300	1868.03	8.89e-07	1.07e-08
300	2000	8.319e-07	1e-08
300	2005.34	8.272e-07	9.9e-09
325	303.08	5.93e-06	3.6e-07
325	515.56	3.492e-06	9.6e-08
325	732.01	2.486e-06	3.2e-08
325	943.23	1.9423e-06	2.33e-08
325	1169.67	1.5703e-06	1.88e-08
325	1401.15	1.312e-06	1.57e-08
325	1633.88	1.1232e-06	1.35e-08
325	1908.67	9.623e-07	1.15e-08
325	2129.59	8.627e-07	1.04e-08
325	2413.09	7.66e-07	9.8e-09
350	342.4	6.04e-06	2.6e-07
350	544.1	3.842e-06	6.4e-08
350	775.52	2.693e-06	3.4e-08
350	1007.12	2.0632e-06	2.48e-08
350	1245.13	1.6838e-06	2.02e-08
350	1461.54	1.4283e-06	1.71e-08
350	1735.08	1.2073e-06	1.7e-08
350	1995.63	1.0517e-06	1.3e-08
350	2208.19	9.512e-07	1.14e-08
350	2464.21	8.552e-07	1.03e-08
375	260.28	8.45e-06	1.18e-06
375	460.71	4.992e-06	1.7e-07
375	672.43	3.418e-06	8e-08
375	885.97	2.6282e-06	3.15e-08
375	1102.86	2.129e-06	2.55e-08
375	1302.3	1.8071e-06	2.17e-08
375	1537.48	1.5266e-06	1.83e-08
375	1815.58	1.2955e-06	1.55e-08
375	2026.16	1.164e-06	1.4e-08
375	2250.59	1.0486e-06	1.26e-08
375	2518.19	9.404e-07	1.13e-08

System: carbon monoxide; phases: Gas
Property: Speed of sound, m/s (Gas); method: double Helmholtz acoustic resonator
Temperature, K	Pressure, kPa	Speed of sound, m/s	uncertainty
225	250.04	305.594	0.275
225	371.9	305.415	0.348
225	499.99	305.4	0.093
225	560.56	305.344	0.081
225	743.07	305.237	0.063
225	750	305.259	0.075
225	934.61	305.141	0.063
225	1000	305.154	0.063
225	1141.55	305.059	0.063
225	1250	305.043	0.099
225	1345.57	304.994	0.063
225	1500	304.987	0.063
225	1581.46	304.937	0.063
225	1750	304.952	0.063
225	1787.07	304.91	0.063
225	2000	304.94	0.063
225	2016.09	304.908	0.063
225	2263.97	304.936	0.063
225	2454.7	304.965	0.063
250	221.65	322.56	2.71
250	401.55	322.4	0.374
250	587.83	322.431	0.245
250	791.25	322.506	0.098
250	982.55	322.583	0.066
250	1169.11	322.667	0.11
250	1392.31	322.794	0.066
250	1587.81	322.926	0.066
250	1808.18	323.08	0.072
250	2050.14	323.271	0.066
250	2241.48	323.445	0.066
275	250.64	338.34	2.571
275	286.53	338.19	0.744
275	465.9	338.322	0.467
275	500.41	338.478	0.237
275	652.16	338.54	0.116
275	750	338.756	0.38
275	832.04	338.755	0.069
275	1000	338.987	0.238
275	1045.38	338.985	0.069
275	1250	339.265	0.231
275	1252.24	339.219	0.069
275	1443.14	339.459	0.069
275	1500	339.57	0.089
275	1675	339.741	0.069
275	1750	339.887	0.069
275	1882.65	340.017	0.069
275	2000	340.229	0.069
275	2150.85	340.383	0.069
275	2364.73	340.694	0.076
300	252.56	353.435	0.58
300	501.19	353.744	0.156
300	709.53	354	0.85
300	1000.01	354.517	0.086
300	1178.09	354.777	0.072
300	1250.01	354.914	0.072
300	1373.95	355.091	0.072
300	1481.47	355.267	0.072
300	1500	355.324	0.072
300	1602.13	355.46	0.072
300	1730.28	355.674	0.072
300	1750	355.741	0.072
300	1868.03	355.91	0.072
300	2000	356.146	0.136
300	2005.34	356.146	0.072
325	303.08	367.794	0.508
325	515.56	368.109	0.324
325	732.01	368.516	0.075
325	943.23	368.907	0.075
325	1169.67	369.334	0.082
325	1401.15	369.773	0.075
325	1633.88	370.218	0.075
325	1908.67	370.769	0.075
325	2129.59	371.218	0.075
325	2413.09	371.819	0.075
350	342.4	381.628	0.473
350	544.1	382.059	0.092
350	775.52	382.518	0.077
350	1007.12	382.991	0.1
350	1245.13	383.511	0.077
350	1461.54	383.965	0.078
350	1735.08	384.562	0.108
350	1995.63	385.142	0.078
350	2208.19	385.622	0.078
350	2464.21	386.207	0.078
375	260.28	394.36	1.735
375	460.71	394.79	0.869
375	672.43	395.315	0.095
375	885.97	395.844	0.08
375	1102.86	396.344	0.08
375	1302.3	396.823	0.08
375	1537.48	397.369	0.08
375	1815.58	398.035	0.08
375	2026.16	398.558	0.08
375	2250.59	399.115	0.081
375	2518.19	399.799	0.081

System: carbon dioxide; phases: Gas
Property: Kinematic viscosity, m2/s (Gas); method: double Helmholtz acoustic resonator
Temperature, K	Pressure, kPa	Kinematic viscosity, m2/s	uncertainty
220	195.46	2.367e-06	6.6e-08
220	226.71	2.003e-06	2.4e-08
220	254.44	1.7918e-06	2.15e-08
220	288.21	1.5567e-06	1.87e-08
220	324.47	1.375e-06	1.65e-08
220	362.71	1.225e-06	2.6e-08
220	393.15	1.1195e-06	1.36e-08
220	425.51	1.0287e-06	1.23e-08
220	449.74	9.699e-07	1.16e-08
220	479.78	9.019e-07	1.08e-08
235	224.78	2.312e-06	2.8e-08
235	359.42	1.4232e-06	1.71e-08
235	452.88	1.1143e-06	1.34e-08
235	545.18	9.134e-07	1.1e-08
235	638.46	7.665e-07	9.2e-09
235	723.88	6.708e-07	8.1e-09
235	803.31	5.951e-07	9.8e-09
250	274.2	2.1534e-06	2.58e-08
250	372.33	1.5676e-06	1.88e-08
250	491.25	1.1702e-06	1.4e-08
250	595.84	9.534e-07	1.14e-08
250	702.28	7.985e-07	9.6e-09
250	818.89	6.754e-07	8.1e-09
250	953.03	5.715e-07	6.9e-09
250	1060.25	5.065e-07	6.1e-09
250	1177.57	4.497e-07	5.4e-09
250	1291.6	4.031e-07	4.8e-09
250	1438.24	3.544e-07	4.3e-09
270	196.61	3.504e-06	1.22e-07
270	354.95	1.953e-06	9.6e-08
270	526.01	1.2881e-06	1.55e-08
270	705.02	9.474e-07	1.14e-08
270	898.25	7.277e-07	8.7e-09
270	1076.54	5.989e-07	7.2e-09
270	1287.09	4.911e-07	5.9e-09
270	1446.7	4.309e-07	5.2e-09
270	1630.02	3.763e-07	4.5e-09
270	1846.01	3.262e-07	3.9e-09
270	2079.64	2.837e-07	3.4e-09
270	2316.11	2.494e-07	3e-09
270	2509.61	2.258e-07	4.2e-09
285	371.48	2.0695e-06	2.48e-08
285	575.25	1.3113e-06	1.57e-08
285	787.74	9.437e-07	1.13e-08
285	1012.98	7.217e-07	8.7e-09
285	1228.51	5.874e-07	7e-09
285	1500.4	4.716e-07	5.7e-09
285	1707.23	4.086e-07	4.9e-09
285	1947.24	3.524e-07	4.2e-09
285	2221.25	3.032e-07	3.6e-09
285	2559.66	2.576e-07	3.1e-09
285	2841.89	2.271e-07	2.7e-09
285	3057.76	2.062e-07	2.5e-09
300	313.43	2.7182e-06	3.26e-08
300	531.89	1.5815e-06	1.9e-08
300	748.54	1.1095e-06	1.33e-08
300	993.26	8.257e-07	9.9e-09
300	1237.01	6.539e-07	7.8e-09
300	1526.14	5.216e-07	6.3e-09
300	1747.76	4.502e-07	5.4e-09
300	1991.46	3.899e-07	4.7e-09
300	2272.21	3.37e-07	4e-09
300	2577.86	2.916e-07	3.5e-09
300	2893.94	2.57e-07	3.1e-09
300	3145.79	2.334e-07	2.8e-09
304.77	317.81	2.782e-06	3.3e-08
304.77	527.05	1.6498e-06	1.98e-08
304.77	745.25	1.1528e-06	1.38e-08
304.77	979.77	8.661e-07	1.04e-08
304.77	1201.73	6.981e-07	8.4e-09
304.77	1478.86	5.593e-07	6.7e-09
304.77	1699.38	4.816e-07	5.8e-09
304.77	1949.98	4.142e-07	5e-09
304.77	2235.18	3.566e-07	4.3e-09
304.77	2552.72	3.072e-07	3.7e-09
304.77	2881.02	2.686e-07	4e-09
304.77	3135.88	2.441e-07	2.9e-09
310	342.08	2.661e-06	3.2e-08
310	552.05	1.63e-06	1.96e-08
310	773.76	1.1495e-06	1.38e-08
310	1018.04	8.635e-07	1.04e-08
310	1259.27	6.896e-07	8.3e-09
310	1549.04	5.533e-07	6.6e-09
310	1786.58	4.745e-07	5.7e-09
310	2055.58	4.075e-07	4.9e-09
310	2362.96	3.494e-07	4.2e-09
310	2708.78	3.003e-07	3.6e-09
310	3077.99	2.605e-07	3.1e-09
330	201.27	5.168e-06	6.2e-08
330	402.42	2.5505e-06	3.06e-08
330	626.86	1.6211e-06	1.95e-08
330	846.53	1.1907e-06	1.43e-08
330	1059.35	9.444e-07	1.13e-08
330	1332.98	7.428e-07	8.9e-09
330	1559.26	6.298e-07	7.6e-09
330	1813.09	5.371e-07	6.4e-09
330	2103.2	4.586e-07	5.5e-09
330	2423.4	3.943e-07	4.7e-09
330	2778.74	3.396e-07	4.1e-09
330	3067.62	3.059e-07	3.7e-09
350	234.16	4.971e-06	6.4e-08
350	440.84	2.6127e-06	3.14e-08
350	660.1	1.7308e-06	2.08e-08
350	905.02	1.2532e-06	1.5e-08
350	1143.54	9.856e-07	1.18e-08
350	1347.77	8.312e-07	1e-08
350	1584.41	7.026e-07	8.4e-09
350	1872.95	5.901e-07	7.1e-09
350	2228.51	4.92e-07	5.9e-09
350	2447.32	4.451e-07	5.3e-09
350	2827.17	3.819e-07	4.6e-09
350	3133.84	3.421e-07	4.1e-09
370	335.49	3.823e-06	4.6e-08
370	537.7	2.3746e-06	2.85e-08
370	749.31	1.6966e-06	2.04e-08
370	964.83	1.315e-06	1.58e-08
370	1228.54	1.0256e-06	1.23e-08
370	1449.3	8.665e-07	1.04e-08
370	1714.08	7.288e-07	8.7e-09
370	2019.04	6.149e-07	7.4e-09
370	2382.7	5.179e-07	6.2e-09
370	2771.65	4.422e-07	5.3e-09
370	3095.89	3.934e-07	4.7e-09

System: carbon dioxide; phases: Gas
Property: Speed of sound, m/s (Gas); method: double Helmholtz acoustic resonator
Temperature, K	Pressure, kPa	Speed of sound, m/s	uncertainty
220	195.46	231.697	0.048
220	226.71	231.053	0.047
220	254.44	230.535	0.047
220	288.21	229.811	0.047
220	324.47	229.072	0.047
220	362.71	228.286	0.047
220	393.15	227.642	0.047
220	425.51	226.947	0.047
220	449.74	226.424	0.047
220	479.78	225.763	0.047
235	224.78	238.87	0.049
235	359.42	236.686	0.049
235	452.88	235.117	0.048
235	545.18	233.524	0.048
235	638.46	231.866	0.048
235	723.88	230.307	0.048
235	803.31	228.81	0.047
250	274.2	245.572	0.05
250	372.33	244.249	0.05
250	491.25	242.616	0.05
250	595.84	241.151	0.049
250	702.28	239.622	0.049
250	818.89	237.904	0.049
250	953.03	235.866	0.049
250	1060.25	234.183	0.048
250	1177.57	232.284	0.048
250	1291.6	230.374	0.048
250	1438.24	227.814	0.048
270	196.61	255.766	0.124
270	354.95	254.132	0.094
270	526.01	252.297	0.051
270	705.02	250.332	0.051
270	898.25	248.157	0.051
270	1076.54	246.097	0.051
270	1287.09	243.582	0.05
270	1446.7	241.616	0.05
270	1630.02	239.286	0.05
270	1846.01	236.431	0.049
270	2079.64	233.186	0.049
270	2316.11	229.714	0.048
270	2509.61	226.693	0.048
285	371.48	260.813	0.053
285	575.25	258.96	0.053
285	787.74	257	0.052
285	1012.98	254.874	0.052
285	1228.51	252.793	0.052
285	1500.4	250.092	0.051
285	1707.23	247.983	0.051
285	1947.24	245.461	0.051
285	2221.25	242.477	0.05
285	2559.66	238.616	0.05
285	2841.89	235.226	0.05
285	3057.76	232.506	0.049
300	313.43	267.831	0.054
300	531.89	266.161	0.054
300	748.54	264.479	0.054
300	993.26	262.55	0.053
300	1237.01	260.596	0.053
300	1526.14	258.228	0.053
300	1747.76	256.377	0.053
300	1991.46	254.302	0.052
300	2272.21	251.857	0.052
300	2577.86	249.121	0.052
300	2893.94	246.209	0.051
300	3145.79	243.815	0.051
304.77	317.81	269.839	0.055
304.77	527.05	268.3	0.054
304.77	745.25	266.692	0.054
304.77	979.77	264.938	0.054
304.77	1201.73	263.256	0.054
304.77	1478.86	261.121	0.053
304.77	1699.38	259.398	0.053
304.77	1949.98	257.402	0.053
304.77	2235.18	255.087	0.052
304.77	2552.72	252.452	0.052
304.77	2881.02	249.657	0.052
304.77	3135.88	247.426	0.052
310	342.08	271.862	0.055
310	552.05	270.405	0.055
310	773.76	268.857	0.055
310	1018.04	267.131	0.054
310	1259.27	265.404	0.054
310	1549.04	263.303	0.054
310	1786.58	261.551	0.053
310	2055.58	259.537	0.053
310	2362.96	257.194	0.053
310	2708.78	254.502	0.052
310	3077.99	251.56	0.052
330	201.27	280.886	0.057
330	402.42	279.728	0.057
330	626.86	278.458	0.056
330	846.53	277.211	0.056
330	1059.35	275.997	0.056
330	1332.98	274.426	0.056
330	1559.26	273.117	0.055
330	1813.09	271.644	0.055
330	2103.2	269.943	0.055
330	2423.4	268.057	0.055
330	2778.74	265.942	0.054
330	3067.62	264.214	0.054
350	234.16	288.494	0.058
350	440.84	287.515	0.058
350	660.1	286.496	0.058
350	905.02	285.36	0.058
350	1143.54	284.253	0.058
350	1347.77	283.305	0.057
350	1584.41	282.204	0.057
350	1872.95	280.864	0.057
350	2228.51	279.211	0.057
350	2447.32	278.194	0.057
350	2827.17	276.429	0.056
350	3133.84	275.009	0.056
370	335.49	295.629	0.06
370	537.7	294.855	0.059
370	749.31	294.053	0.059
370	964.83	293.237	0.059
370	1228.54	292.239	0.059
370	1449.3	291.407	0.059
370	1714.08	290.415	0.059
370	2019.04	289.275	0.059
370	2382.7	287.927	0.058
370	2771.65	286.495	0.058
370	3095.89	285.315	0.058

System: silicon tetrafluoride; phases: Gas
Property: Kinematic viscosity, m2/s (Gas); method: double Helmholtz acoustic resonator
Temperature, K	Pressure, kPa	Kinematic viscosity, m2/s	uncertainty
215	198.15	1.056e-06	8e-08
215	283.66	7.32e-07	1.9e-08
215	378.5	5.24e-07	3e-08
215	461.43	4.37e-07	2.4e-08
215	551.52	3.602e-07	5.8e-09
215	649.39	3.031e-07	3.6e-09
215	746.64	2.59e-07	3.1e-09
230	271.49	8.88e-07	6.4e-08
230	424.62	5.63e-07	4.4e-08
230	578.31	3.985e-07	8.2e-09
230	742.99	2.835e-07	1.38e-08
230	897.83	2.499e-07	6e-09
230	1088.35	2.9e-07	3.4e-07
230	1250.99	1.758e-07	8.4e-09
245	248.32	1.093e-06	9.6e-08
245	393.67	6.602e-07	1.82e-08
245	542.46	4.92e-07	2.4e-08
245	703.75	3.695e-07	1.68e-08
245	873.41	2.949e-07	3.5e-09
245	1034.47	2.457e-07	2.9e-09
245	1220.05	2.078e-07	5.4e-09
245	1434.33	1.738e-07	4e-09
245	1599.8	1.551e-07	3.4e-09
245	1777.83	1.399e-07	2.2e-09
245	1958.48	1.246e-07	1.6e-09
260	206.14	1.338e-06	1.44e-07
260	410.06	7.49e-07	5.2e-08
260	617.98	4.82e-07	2.6e-08
260	830.76	3.543e-07	4.3e-09
260	1047.12	2.741e-07	1.3e-08
260	1252.04	2.299e-07	6.4e-09
260	1498.23	1.911e-07	2.8e-09
260	1794.29	1.575e-07	2.6e-09
260	2026.63	1.392e-07	8.6e-09
260	2282.25	1.247e-07	4e-09
260	2541.67	1.097e-07	5e-09
274.58	524.86	6.36e-07	4.4e-08
274.58	642.96	5.09e-07	5.4e-08
274.58	744.26	4.244e-07	1.28e-08
274.58	845.26	3.884e-07	1.24e-08
274.58	947.16	3.479e-07	4.8e-09
274.58	1048.29	3.11e-07	6.2e-09
274.58	1150.31	2.86e-07	3.4e-09
274.58	1252.18	2.594e-07	6.8e-09
274.58	1353.82	2.422e-07	1.52e-08
274.58	1454.61	2.279e-07	7.4e-09
274.58	1556.05	2.093e-07	6e-09
274.58	1657.9	2.006e-07	9.6e-09
274.58	1764.42	1.819e-07	7.6e-09
274.58	1878.13	1.704e-07	9.6e-09
274.58	1998.5	1.639e-07	7.6e-09
274.58	2141.86	1.518e-07	4.8e-09
274.58	2244.21	1.424e-07	2.2e-09
274.58	2354.11	1.361e-07	2e-09
274.58	2474.02	1.305e-07	2.6e-09
274.58	2776.62	1.15e-07	1.8e-09
274.58	2951.29	1.076e-07	1.3e-09
300	386.04	1.14e-06	1.44e-06
300	581.57	7.42e-07	5.2e-08
300	775.29	5.2e-07	6.6e-08
300	975.51	4.04e-07	4.6e-08
300	1173.93	3.247e-07	1.8e-08
300	1443.44	2.69e-07	2.2e-08
300	1648.68	2.374e-07	1.06e-08
300	1872.11	2.107e-07	1.22e-08
300	2157.89	1.71e-07	4.6e-08
300	2526.14	1.53e-07	3.6e-09
324.96	582.54	8.84e-07	1.74e-07
324.96	731.36	6e-07	4.4e-07
324.96	1070.79	4.22e-07	3.2e-08
324.96	1257.38	3.6e-07	5e-08
324.96	1487.57	3.1e-07	4e-09
324.96	1769	2.586e-07	3.1e-09
324.96	1936.2	2.417e-07	7.2e-09
324.96	2114.4	2.11e-07	9e-09
324.96	2322.23	1.989e-07	8.2e-09
324.96	2540.96	1.843e-07	5.6e-09

System: silicon tetrafluoride; phases: Gas
Property: Speed of sound, m/s (Gas); method: double Helmholtz acoustic resonator
Temperature, K	Pressure, kPa	Speed of sound, m/s	uncertainty
215	198.15	136.985	0.1
215	283.66	135.345	0.045
215	378.5	133.422	0.028
215	461.43	131.701	0.028
215	551.52	129.725	0.028
215	649.39	127.458	0.027
215	746.64	125.064	0.027
230	271.49	141.023	0.033
230	424.62	138.593	0.033
230	578.31	136.01	0.028
230	742.99	133.07	0.043
230	897.83	130.185	0.028
230	1088.35	126.351	0.156
230	1250.99	122.679	0.028
245	248.32	146.4	0.096
245	393.67	144.547	0.033
245	542.46	142.594	0.033
245	703.75	140.391	0.029
245	873.41	138.003	0.029
245	1034.47	135.635	0.029
245	1220.05	132.777	0.029
245	1434.33	129.263	0.028
245	1599.8	126.373	0.028
245	1777.83	123.04	0.039
245	1958.48	119.337	0.038
260	206.14	151.46	0.144
260	410.06	149.455	0.048
260	617.98	147.215	0.03
260	830.76	144.876	0.03
260	1047.12	142.414	0.03
260	1252.04	140.009	0.03
260	1498.23	137.011	0.03
260	1794.29	133.23	0.032
260	2026.63	130.083	0.081
260	2282.25	126.449	0.029
260	2541.67	122.51	0.043
274.58	524.86	153.144	0.07
274.58	642.96	152.026	0.031
274.58	744.26	151.148	0.031
274.58	845.26	150.262	0.031
274.58	947.16	149.337	0.031
274.58	1048.29	148.413	0.031
274.58	1150.31	147.475	0.031
274.58	1252.18	146.525	0.03
274.58	1353.82	145.573	0.035
274.58	1454.61	144.62	0.03
274.58	1556.05	143.641	0.03
274.58	1657.9	142.673	0.03
274.58	1764.42	141.624	0.03
274.58	1878.13	140.505	0.03
274.58	1998.5	139.335	0.029
274.58	2141.86	137.92	0.03
274.58	2244.21	136.847	0.03
274.58	2354.11	135.736	0.029
274.58	2474.02	134.503	0.03
274.58	2776.62	131.328	0.029
274.58	2951.29	129.468	0.032
300	386.04	161.89	1.1
300	581.57	160.87	0.2
300	775.29	159.49	0.22
300	975.51	158.171	0.056
300	1173.93	156.882	0.032
300	1443.44	155.168	0.032
300	1648.68	153.859	0.032
300	1872.11	152.436	0.032
300	2157.89	150.604	0.094
300	2526.14	148.302	0.032
324.96	582.54	168.12	0.44
324.96	731.36	167.213	0.164
324.96	1070.79	165.707	0.034
324.96	1257.38	164.87	0.046
324.96	1487.57	163.839	0.034
324.96	1769	162.6	0.033
324.96	1936.2	161.876	0.033
324.96	2114.4	161.103	0.033
324.96	2322.23	160.234	0.033
324.96	2540.96	159.339	0.033

System: sulfur hexafluoride; phases: Gas
Fixed: Temperature, K = 273.16
Property: Kinematic viscosity, m2/s (Gas); method: double Helmholtz acoustic resonator
Pressure, kPa	Kinematic viscosity, m2/s	uncertainty
290.38	7.194e-07	8.6e-09
386.66	5.327e-07	6.4e-09
492.4	4.099e-07	4.9e-09
602.05	3.283e-07	3.9e-09
712.29	2.722e-07	3.3e-09
808.73	2.352e-07	2.8e-09
903.28	2.24e-07	1.12e-07
1000.51	1.808e-07	4.4e-09

System: sulfur hexafluoride; phases: Gas
Fixed: Temperature, K = 273.16
Property: Speed of sound, m/s (Gas); method: double Helmholtz acoustic resonator
Pressure, kPa	Speed of sound, m/s	uncertainty
290.38	126.141	0.029
386.66	124.461	0.029
492.4	122.539	0.028
602.05	120.453	0.028
712.29	118.245	0.027
808.73	116.211	0.027
903.28	114.14	0.16
1000.51	111.81	0.026

System: octafluorocyclobutane; phases: Gas
Property: Kinematic viscosity, m2/s (Gas); method: double Helmholtz acoustic resonator
Temperature, K	Pressure, kPa	Kinematic viscosity, m2/s	uncertainty
300	160.13	8.537e-07	1.03e-08
300	180.38	7.621e-07	1.36e-08
300	209.45	6.474e-07	8e-09
300	239.58	5.545e-07	1e-08
310	167.11	1.04e-06	7.4e-07
310	212.21	6.65e-07	1.54e-07
310	259.63	5.45e-07	6e-08
310	319.54	4.4e-07	3e-08
310	359.99	4.21e-07	1.82e-07
315	195.64	7.57e-07	4.2e-08
315	234.75	6.39e-07	3.4e-08
315	272.93	5.38e-07	1.94e-08
315	312.27	4.612e-07	1.04e-08
315	357.7	3.988e-07	5.2e-09
315	410.27	3.417e-07	4.1e-09
320	122.6	1.121e-06	1.52e-07
320	172.92	9.2e-07	2.8e-07
320	222.82	6.6e-07	2.4e-07
320	274.43	5.38e-07	9.4e-08
320	326.85	4.48e-07	3e-08
320	380.03	3.919e-07	1.66e-08
320	482.22	2.95e-07	2.6e-08
330	117.49	1.433e-06	1.58e-07
330	189.29	8.81e-07	8.2e-08
330	215.35	7.77e-07	1.32e-07
330	288.39	5.63e-07	1.2e-07
330	290.78	5.67e-07	1.32e-07
330	368.85	4.301e-07	1.1e-08
330	376.53	4.204e-07	1.84e-08
330	450.7	3.451e-07	5.6e-09
330	465.61	3.296e-07	4e-09
330	534.61	2.827e-07	4.2e-09
330	536.09	2.803e-07	4.4e-09
330	621.46	2.365e-07	4.4e-09
330	621.46	2.369e-07	2.8e-09
345.04	244.86	7.3e-07	3.4e-08
345.04	347.35	5.14e-07	2e-08
345.04	445.79	3.86e-07	3e-08
345.04	553.32	3.045e-07	3.7e-09
345.04	652.37	2.524e-07	4.4e-09
345.04	772.66	2.056e-07	5.2e-09
345.04	881.89	1.762e-07	8.6e-09
360	216.1	9.15e-07	4.4e-08
360	407.3	4.74e-07	3e-08
360	609.73	3.202e-07	4.22e-08
360	802.73	2.19e-07	2.6e-09
360	1012.2	1.684e-07	5.8e-09
360	1203.26	1.354e-07	6e-09
375	183.85	1.117e-06	6.8e-08
375	378.87	5.53e-07	3.2e-08
375	568.99	3.537e-07	7e-09
375	758.63	2.59e-07	2e-08
375	960.1	2.046e-07	6.4e-09
375	1188.17	1.555e-07	3.4e-09
375	1402.03	1.278e-07	3.8e-09
375	1620.38	1.063e-07	3.2e-09

System: octafluorocyclobutane; phases: Gas
Property: Speed of sound, m/s (Gas); method: double Helmholtz acoustic resonator
Temperature, K	Pressure, kPa	Speed of sound, m/s	uncertainty
300	160.13	109.847	0.022
300	180.38	109.165	0.022
300	209.45	108.134	0.023
300	239.58	107.039	0.022
310	167.11	111.91	0.32
310	212.21	110.435	0.122
310	259.63	108.881	0.034
310	319.54	106.837	0.052
310	359.99	105.466	0.182
315	195.64	112.234	0.054
315	234.75	111.096	0.026
315	272.93	109.919	0.023
315	312.27	108.662	0.023
315	357.7	107.159	0.022
315	410.27	105.337	0.022
320	122.6	115.18	0.2
320	172.92	113.83	0.34
320	222.82	112.465	0.16
320	274.43	111.029	0.09
320	326.85	109.445	0.038
320	380.03	107.764	0.038
320	482.22	104.314	0.037
330	117.49	117.54	0.172
330	189.29	115.79	0.064
330	215.35	115.125	0.09
330	288.39	113.255	0.042
330	290.78	113.105	0.146
330	368.85	111.063	0.023
330	376.53	110.783	0.023
330	450.7	108.709	0.023
330	465.61	108.183	0.022
330	534.61	106.126	0.022
330	536.09	105.996	0.022
330	621.46	103.148	0.022
330	621.46	103.248	0.022
345.04	244.86	117.718	0.04
345.04	347.35	115.42	0.024
345.04	445.79	113.119	0.134
345.04	553.32	110.349	0.023
345.04	652.37	107.68	0.023
345.04	772.66	104.173	0.022
345.04	881.89	100.69	0.022
360	216.1	121.468	0.064
360	407.3	117.745	0.025
360	609.73	113.456	0.078
360	802.73	108.935	0.023
360	1012.2	103.467	0.022
360	1203.26	97.726	0.022
375	183.85	124.967	0.078
375	378.87	121.72	0.025
375	568.99	118.34	0.024
375	758.63	114.748	0.05
375	960.1	110.614	0.024
375	1188.17	105.478	0.023
375	1402.03	100.08	0.026
375	1620.38	93.75	0.022

System: ammonia; phases: Gas
Property: Kinematic viscosity, m2/s (Gas); method: double Helmholtz acoustic resonator
Temperature, K	Pressure, kPa	Kinematic viscosity, m2/s	uncertainty
300	223.53	6.475e-06	1.4e-07
300	259.87	5.47e-06	3.2e-07
300	329.51	4.32e-06	5.2e-08
300	361.99	3.95e-06	7.2e-08
300	447.86	3.137e-06	3.8e-08
300	465.77	3.019e-06	5.4e-08
300	568.68	2.4461e-06	2.94e-08
300	569.79	2.453e-06	4.4e-08
300	676.75	2.0302e-06	2.44e-08
300	692.8	1.977e-06	5.6e-08
300	802.37	1.713e-06	2.6e-08
300	802.82	1.6954e-06	2.03e-08
315	250.83	6.409e-06	7.8e-08
315	378.83	4.193e-06	6.8e-08
315	506.43	3.0826e-06	3.7e-08
315	661.04	2.3351e-06	2.8e-08
315	791.02	1.9168e-06	2.3e-08
315	938.74	1.5933e-06	1.91e-08
315	1080.91	1.3636e-06	1.64e-08
315	1284.99	1.1321e-06	1.36e-08
330	308.27	5.766e-06	1.46e-07
330	473.84	3.685e-06	4.4e-08
330	664.29	2.5831e-06	3.1e-08
330	822.59	2.0604e-06	2.47e-08
330	977.41	1.7093e-06	2.05e-08
330	1142.12	1.4396e-06	1.73e-08
330	1294.82	1.2526e-06	1.5e-08
330	1480.49	1.0768e-06	1.29e-08
330	1640.8	9.572e-07	1.15e-08
330	1792.05	8.659e-07	1.04e-08
330	1945.84	7.907e-07	9.5e-09
345	297.74	6.499e-06	7.8e-08
345	504.54	3.784e-06	4.54e-08
345	708.88	2.6651e-06	3.2e-08
345	914.14	2.0446e-06	2.45e-08
345	1123.2	1.6371e-06	1.96e-08
345	1332.13	1.3587e-06	1.63e-08
345	1537.04	1.1587e-06	1.39e-08
345	1744.59	1.0035e-06	1.2e-08
345	1955.14	8.795e-07	1.06e-08
345	2315.57	7.212e-07	8.7e-09
345	2530.02	6.496e-07	7.8e-09
345	2769	5.836e-07	7e-09
360	242.7	8.737e-06	1.05e-07
360	453.28	4.681e-06	8.2e-08
360	661.35	3.164e-06	3.8e-08
360	865.15	2.3862e-06	2.86e-08
360	1069.66	1.9034e-06	2.28e-08
360	1277.79	1.5735e-06	1.89e-08
360	1481.15	1.3395e-06	1.61e-08
360	1690.65	1.1597e-06	1.39e-08
360	1894.78	1.0216e-06	1.23e-08
360	2277.38	8.277e-07	9.9e-09
360	2480.7	7.488e-07	9e-09
360	2738.78	6.662e-07	8e-09
360	3050.47	5.85e-07	7e-09
360	3365.4	5.189e-07	6.2e-09
375	260.57	1.01e-05	3.8e-06
375	483.31	4.9e-06	8e-07
375	684.74	3.42e-06	2.2e-07
375	897.66	2.568e-06	6e-08
375	1130.68	1.956e-06	6.8e-08
375	1341.71	1.634e-06	4.2e-08
375	1583.75	1.3698e-06	1.64e-08
375	1793.43	1.2003e-06	1.96e-08
375	2026.26	1.0365e-06	1.42e-08
375	2290.42	9.117e-07	1.09e-08
375	2599.92	7.938e-07	1.2e-08
375	2933.13	6.898e-07	8.3e-09
375	3140.48	6.381e-07	8.2e-09
375	3379.2	5.876e-07	9e-09

System: ammonia; phases: Gas
Property: Speed of sound, m/s (Gas); method: double Helmholtz acoustic resonator
Temperature, K	Pressure, kPa	Speed of sound, m/s	uncertainty
300	223.53	430.996	0.259
300	259.87	429.552	0.258
300	329.51	428.067	0.257
300	361.99	426.77	0.257
300	447.86	424.67	0.255
300	465.77	423.726	0.255
300	568.68	421.025	0.253
300	569.79	420.632	0.253
300	676.75	417.605	0.251
300	692.8	416.702	0.251
300	802.37	413.013	0.249
300	802.82	413.377	0.249
315	250.83	441.419	0.265
315	378.83	438.522	0.264
315	506.43	435.457	0.262
315	661.04	431.685	0.26
315	791.02	428.351	0.258
315	938.74	424.426	0.255
315	1080.91	420.458	0.253
315	1284.99	414.392	0.25
330	308.27	450.904	0.271
330	473.84	447.677	0.269
330	664.29	443.842	0.267
330	822.59	440.539	0.265
330	977.41	437.208	0.263
330	1142.12	433.538	0.261
330	1294.82	430.009	0.259
330	1480.49	425.535	0.256
330	1640.8	421.5	0.254
330	1792.05	417.518	0.251
330	1945.84	413.283	0.249
345	297.74	461.308	0.277
345	504.54	457.908	0.275
345	708.88	454.468	0.273
345	914.14	450.883	0.271
345	1123.2	447.09	0.269
345	1332.13	443.168	0.266
345	1537.04	439.192	0.264
345	1744.59	435.007	0.262
345	1955.14	430.584	0.259
345	2315.57	422.554	0.254
345	2530.02	417.457	0.252
345	2769	411.451	0.248
360	242.7	471.706	0.283
360	453.28	468.856	0.282
360	661.35	465.91	0.28
360	865.15	462.911	0.278
360	1069.66	459.837	0.276
360	1277.79	456.617	0.274
360	1481.15	453.385	0.273
360	1690.65	449.969	0.271
360	1894.78	446.529	0.269
360	2277.38	439.831	0.265
360	2480.7	436.098	0.263
360	2738.78	431.196	0.26
360	3050.47	424.968	0.256
360	3365.4	418.3	0.252
375	260.57	480.64	1.48
375	483.31	478.26	0.4
375	684.74	475.646	0.286
375	897.66	473	0.284
375	1130.68	469.931	0.282
375	1341.71	467.142	0.281
375	1583.75	463.889	0.279
375	1793.43	461.01	0.277
375	2026.26	457.698	0.275
375	2290.42	453.865	0.273
375	2599.92	449.234	0.27
375	2933.13	444.037	0.267
375	3140.48	440.693	0.265
375	3379.2	436.744	0.263
