Measured thermophysical data. Thermophysical properties of Ca2GeO4 over the temperature range between (6 and 350) K
Source: J. Chem. Thermodyn., 2014, 10.1016/j.jct.2014.06.019
Compound 1: calcium germanium oxide (Ca2GeO4), Ca2GeO4, InChI=1S/2Ca.Ge.4O/q2*+2;+4;4*-2, purity 98%

System: calcium germanium oxide (Ca2GeO4); phases: Crystal
Fixed: Pressure, kPa = 101.325
Property: Molar heat capacity at constant pressure, J/K/mol (Crystal); method: Small (less than 1 g) adiabatic calorimetry
Temperature, K	Molar heat capacity at constant pressure, J/K/mol	uncertainty
83.16	41.5387424	0.2743752
85.78	43.5425128	0.2826896
88.41	45.3799952	0.291004
90.04	46.5356968	0.332576
91.67	47.6913984	0.332576
93.43	48.888672	0.3408904
95.18	50.135832	0.3492048
96.94	51.4328784	0.3492048
98.69	52.5137504	0.3575192
100.45	53.8024824	0.3658336
102.2	55.0912144	0.374148
103.96	56.496348	0.374148
105.71	57.6021632	0.3824624
107.48	58.9823536	0.3907768
109.24	60.0632256	0.3907768
110.93	61.0360104	0.3990912
112.63	62.3330568	0.4074056
114.32	63.355728	0.4074056
115.8	64.353456	0.41572
117.5	65.517472	0.41572
118.98	66.3322832	0.4240344
120.6	67.4547272	0.4240344
122.22	68.5688568	0.4323488
123.99	69.7079296	0.4406632
125.75	70.8470024	0.4406632
127.52	71.877988	0.4489776
129.28	72.9006592	0.457292
131.05	74.0231032	0.457292
132.81	75.1455472	0.4656064
134.5	76.1682184	0.4656064
136.19	77.199204	0.4739208
137.89	78.2218752	0.4822352
139.58	79.2528608	0.4822352
141.2	79.9762136	0.4905496
142.82	80.6995664	0.4905496
144.6	81.6806656	0.498864
146.39	82.6534504	0.498864
148.74	84.308016	0.498864
151.09	85.63832	0.498864
153.45	86.552904	0.498864
155.8	87.883208	0.498864
157.27	88.714648	0.498864
158.73	89.546088	0.498864
160.34	90.294384	0.498864
161.96	91.125824	0.582008
163.73	92.123552	0.582008
165.5	93.12128	0.582008
167.27	94.035864	0.582008
169.03	95.033592	0.582008
171.41	96.03132	0.582008
173.79	97.029048	0.582008
176.16	98.026776	0.582008
178.54	99.024504	0.582008
181.22	100.271664	0.582008
183.9	101.518824	0.582008
186.84	102.599696	0.582008
189.78	103.597424	0.582008
192.48	104.595152	0.582008
195.21	106.091744	0.582008
197.79	106.84004	0.582008
200.59	108.0872	0.665152
201.43	108.586064	0.665152
203.16	109.084928	0.665152
204.81	109.75008	0.665152
206.62	110.498376	0.665152
208.43	110.99724	0.665152
210.23	111.496104	0.665152
212.03	112.410688	0.665152
213.83	112.992696	0.665152
215.63	113.574704	0.665152
217.43	114.239856	0.665152
219.23	114.73872	0.665152
221.02	115.320728	0.665152
221.91	115.237584	0.665152
221.95	115.57016	0.665152
225.69	116.900464	0.665152
227.73	117.482472	0.665152
230	118.230768	0.665152
231.76	118.812776	0.665152
234.8	119.810504	0.665152
238.26	120.475656	0.665152
239.37	120.97452	0.665152
241.42	121.722816	0.665152
244.36	122.471112	0.665152
245.17	122.471112	0.665152
247.51	123.136264	0.665152
250.96	124.217136	0.665152
250.99	124.383424	0.665152
254.1	125.13172	0.665152
256.86	125.880016	0.748296
259.98	126.711456	0.748296
263	127.542896	0.748296
266.54	128.623768	0.748296
269.42	129.455208	0.748296
81.22	40.5327	0.2660608
83.66	42.0791784	0.2743752
86.11	43.7670016	0.2826896
88.55	45.7208856	0.2993184
90.99	47.39208	0.332576
93.43	48.7722704	0.3408904
95.86	50.800984	0.3492048
98.28	52.3890344	0.3575192
100.7	54.0934864	0.3658336
103.12	55.789624	0.374148
105.53	57.4691328	0.3824624
107.94	59.3315584	0.3907768
110.35	60.778264	0.3990912
112.74	62.3081136	0.4074056
115.14	64.0125656	0.41572
117.53	65.5839872	0.41572
119.92	67.13878	0.4240344
122.3	68.6935728	0.4323488
124.69	70.4977976	0.4406632
127.06	71.9777608	0.4489776
129.44	73.1999776	0.457292
131.8	74.6134256	0.4656064
134.17	76.367764	0.4739208
136.53	77.407064	0.4739208
138.89	78.5544512	0.4822352
141.24	80.3919336	0.4905496
143.59	81.522692	0.498864
145.93	83.060856	0.498864
148.27	84.308016	0.498864
150.61	85.63832	0.498864
152.94	86.552904	0.498864
155.27	88.049496	0.498864
157.57	89.462944	0.498864
159.9	90.21124	0.498864
162.21	91.707832	0.582008
164.52	92.206696	0.582008
166.83	93.453856	0.582008
169.13	94.867304	0.582008
171.43	95.449312	0.582008
173.73	96.44704	0.582008
176.02	97.943632	0.582008
178.31	99.024504	0.582008
180.59	100.105376	0.582008
182.87	101.269392	0.582008
185.16	101.685112	0.582008
187.43	102.433408	0.582008
189.71	103.846856	0.582008
191.98	104.76144	0.582008
194.24	105.759168	0.582008
196.51	106.590608	0.582008
198.78	107.505192	0.582008
201.04	108.253488	0.665152
203.32	108.752352	0.665152
205.58	110.082656	0.665152
207.84	111.163528	0.665152
210.11	111.496104	0.665152
212.37	111.994968	0.665152
214.63	113.07584	0.665152
216.9	113.990424	0.665152
219.16	115.403872	0.665152
221.41	115.071296	0.665152
223.67	115.736448	0.665152
225.93	117.23304	0.665152
228.18	117.482472	0.665152
230.42	118.147624	0.665152
232.68	119.477928	0.665152
234.93	119.228496	0.665152
237.17	120.226224	0.665152
239.42	120.725088	0.665152
241.66	121.556528	0.665152
243.91	122.471112	0.665152
246.15	123.05312	0.665152
248.39	123.385696	0.665152
250.63	124.050848	0.665152
252.87	124.383424	0.665152
255.1	125.048576	0.665152
257.33	125.381152	0.748296
259.56	126.212592	0.748296
261.8	127.127176	0.748296
264.03	127.293464	0.748296
266.24	128.374336	0.748296
268.46	128.623768	0.748296
270.69	129.372064	0.748296
272.9	129.870928	0.748296
275.12	130.286648	0.748296
277.34	130.9518	0.748296
279.55	131.450664	0.748296
281.76	131.866384	0.748296
283.96	132.365248	0.748296
286.15	133.362976	0.748296
288.35	133.612408	0.748296
290.54	133.612408	0.748296
292.72	134.360704	0.748296
294.9	134.69328	0.748296
297.08	136.189872	0.748296
299.25	135.94044	0.748296
301.34	136.855024	0.748296
303.46	137.520176	0.748296
305.57	137.353888	0.748296
307.67	138.185328	0.748296
309.77	138.102184	0.748296
311.86	137.935896	0.748296
313.93	139.099912	0.748296
315.98	139.848208	0.748296
318.04	140.263928	0.748296
320.09	140.430216	0.748296
322.13	140.845936	0.748296
324.15	141.594232	0.748296
326.16	142.093096	0.748296
328.14	141.594232	0.748296
330.11	142.17624	0.748296
332.06	143.00768	0.83144
333.85	143.257112	0.83144
335.79	143.83912	0.83144
337.71	144.171696	0.83144
339.61	144.005408	0.83144
341.5	144.337984	0.83144
343.38	144.587416	0.83144
345.22	144.67056	0.83144
347.04	145.585144	0.83144
348.88	145.418856	0.83144
350.69	145.668288	0.83144
352.49	145.834576	0.83144
80.55	39.9839496	0.2660608
82.97	41.5886288	0.2743752
85.42	43.1766792	0.2826896
87.86	44.9559608	0.291004
90.3	46.7186136	0.332576
92.73	48.5727248	0.3408904
95.16	50.343692	0.3492048
97.58	51.9566856	0.3575192
100	53.6943952	0.3658336
102.42	55.49862	0.374148
104.82	57.0949848	0.3824624
107.23	58.9158384	0.3907768
109.63	60.4789456	0.3990912
112.02	62.1750832	0.4074056
114.42	63.2393264	0.4074056
116.8	64.9022064	0.41572
119.18	66.6565448	0.4240344
121.56	68.1032504	0.4323488
123.93	69.5832136	0.4406632
126.3	71.4705824	0.4489776
128.67	72.792572	0.457292
131.03	74.1062472	0.457292
133.39	75.3367784	0.4656064
135.74	76.3095632	0.4739208
138.09	78.3133336	0.4822352
140.43	79.6685808	0.4822352
142.77	81.0071992	0.4905496
145.11	82.6201928	0.498864
147.44	83.310288	0.498864
149.76	84.890024	0.498864
152.09	86.137184	0.498864
154.41	87.384344	0.498864
156.71	88.880936	0.498864
159.02	90.128096	0.498864
161.33	90.62696	0.498864
163.63	92.040408	0.582008
165.93	93.204424	0.582008
168.22	94.534728	0.582008
170.52	95.6156	0.582008
172.8	96.44704	0.582008
175.09	97.361624	0.582008
177.36	98.52564	0.582008
179.64	99.606512	0.582008
181.91	100.60424	0.582008
184.18	101.186248	0.582008
186.44	102.433408	0.582008
188.71	103.431136	0.582008
190.97	104.096288	0.582008
193.21	104.927728	0.582008
195.46	106.091744	0.582008
197.72	106.923184	0.582008
199.98	107.505192	0.582008
202.23	108.419776	0.665152
204.48	109.084928	0.665152
206.73	109.999512	0.665152
208.98	111.163528	0.665152
211.23	111.911824	0.665152
213.46	112.66012	0.665152
215.7	113.158984	0.665152
217.94	114.239856	0.665152
220.17	114.73872	0.665152
222.4	115.653304	0.665152
224.62	116.069024	0.665152
226.85	116.734176	0.665152
229.03	118.06448	0.665152
231.25	118.397056	0.665152
233.47	119.062208	0.665152
235.68	119.976792	0.665152
237.9	120.475656	0.665152
240.11	121.223952	0.665152
242.31	121.972248	0.665152
244.51	122.387968	0.665152
246.72	122.803688	0.665152
248.92	123.385696	0.665152
251.12	124.050848	0.665152
253.31	124.799144	0.665152
255.5	125.298008	0.665152
257.69	126.212592	0.748296
259.88	126.129448	0.748296
262.07	126.545168	0.748296
264.2	127.709184	0.748296
266.39	128.790056	0.748296
268.57	129.455208	0.748296
270.75	129.621496	0.748296
272.93	129.954072	0.748296
275.1	130.53608	0.748296
277.28	131.034944	0.748296
279.45	131.36752	0.748296
281.62	132.032672	0.748296
283.78	132.780968	0.748296
285.95	132.864112	0.748296
288.11	133.362976	0.748296
290.27	133.612408	0.748296
292.43	134.443848	0.748296
294.58	134.526992	0.748296
296.73	135.358432	0.748296
298.83	135.607864	0.748296
300.98	136.023584	0.748296
303.11	137.270744	0.748296
305.2	137.104456	0.748296
307.28	137.935896	0.748296
309.34	137.935896	0.748296
311.41	138.01904	0.748296
313.46	138.43476	0.748296
315.48	139.349344	0.748296
317.51	139.099912	0.748296
319.52	140.347072	0.748296
321.53	140.09764	0.748296
323.51	141.261656	0.748296
325.49	141.926808	0.748296
327.46	142.342528	0.748296
329.42	142.259384	0.748296
331.19	141.926808	0.748296
333.11	142.841392	0.83144
336.92	143.506544	0.83144
338.8	144.088552	0.83144
340.67	144.171696	0.83144
342.53	144.088552	0.83144
344.36	144.836848	0.83144
346.2	144.919992	0.83144
348.02	144.836848	0.83144
349.83	145.585144	0.83144
244.21	122.387968	0.665152
246.36	122.6374	0.665152
248.58	123.551984	0.665152
250.78	124.133992	0.665152
252.99	124.799144	0.665152
255.19	125.381152	0.748296
257.39	125.96316	0.748296
259.59	126.7946	0.748296
261.78	127.709184	0.748296
263.98	128.04176	0.748296
266.17	128.540624	0.748296
268.35	128.790056	0.748296
270.54	129.787784	0.748296
272.72	130.452936	0.748296
274.91	130.785512	0.748296
277.09	131.034944	0.748296
279.23	131.201232	0.748296
281.4	131.700096	0.748296
283.57	132.531536	0.748296
285.74	133.113544	0.748296
287.91	133.44612	0.748296
290.07	134.194416	0.748296
292.23	134.526992	0.748296
294.4	134.859568	0.748296
296.55	135.52472	0.748296
298.7	136.189872	0.748296
300.86	136.77188	0.748296
303	136.855024	0.748296
305.09	137.270744	0.748296
307.18	137.270744	0.748296
309.25	137.60332	0.748296
311.31	138.517904	0.748296
313.25	139.016768	0.748296
315.29	139.349344	0.748296
317.32	139.68192	0.748296
319.34	140.09764	0.748296
321.35	141.178512	0.748296
323.35	140.51336	0.748296
325.31	141.095368	0.748296
327.3	141.594232	0.748296
329.28	142.009952	0.748296
331.24	142.093096	0.748296
333.19	142.841392	0.83144
335.13	143.672832	0.83144
337.05	143.589688	0.83144
338.95	144.337984	0.83144
340.82	144.088552	0.83144
342.69	144.587416	0.83144
344.32	145.169424	0.83144
346.16	145.003136	0.83144
347.97	145.335712	0.83144
349.78	145.834576	0.83144
351.56	145.91772	0.83144
353.33	145.91772	0.83144
20.43	1.51654656	0.03159472
21.62	1.92727792	0.03575192
23.58	2.4485908	0.04074056
25.61	3.07050792	0.04739208
27.7	3.81797248	0.05487504
29.82	4.68599584	0.06318944
31.99	5.6579492	0.10725576
34.2	6.75046136	0.1164016
36.44	7.97517248	0.12721032
38.72	9.2539272	0.1413448
41.03	10.642432	0.1164016
43.37	12.0226224	0.124716
45.73	13.4610136	0.1330304
48.12	14.96592	0.1413448
50.52	16.5539704	0.1496592
52.93	18.2002216	0.1579736
55.37	19.8880448	0.166288
57.82	21.7172128	0.1746024
60.28	23.5048088	0.1829168
62.74	25.3921776	0.1912312
65.22	27.2379744	0.1995456
67.71	29.1752296	0.20786
70.2	31.0293408	0.2161744
72.69	32.8917664	0.2328032
75.17	34.7791352	0.2411176
77.66	36.7745912	0.249432
80.16	38.7617328	0.2577464
82.66	40.7156168	0.2743752
85.17	42.6029856	0.2826896
87.69	44.3905816	0.291004
90.21	46.1948064	0.332576
92.73	47.8244288	0.3408904
95.26	49.7034832	0.3492048
97.78	51.673996	0.3575192
100.28	53.6611376	0.3658336
102.79	55.6067072	0.374148
105.34	57.4857616	0.3824624
107.88	59.2401	0.3907768
110.43	60.90298	0.3990912
112.98	62.4993448	0.4074056
115.53	64.1206528	0.41572
118.09	65.8001616	0.4240344
120.65	67.5378712	0.4323488
123.21	69.2256944	0.4406632
6.44	0.09519988	0.016795088
6.54	0.112410688	0.01704452
6.64	0.085555176	0.0166288
6.73	0.0812649456	0.0165955424
6.83	0.093786432	0.016795088
6.92	0.093703288	0.016711944
7.02	0.0707888016	0.0164375688
7.12	0.08563832	0.0166288
7.22	0.09810992	0.016795088
7.32	0.104512008	0.016878232
7.42	0.0722355072	0.0164458832
7.52	0.0586664064	0.0162795952
7.62	0.0778976136	0.0165290272
7.73	0.0773488632	0.0165123984
7.83	0.0403497832	0.0160301632
7.94	0.0548584112	0.0162213944
8.03	0.0758605856	0.0164957696
8.14	0.0603292864	0.0162795952
8.24	0.064727604	0.016337796
8.35	0.0564215184	0.0162297088
8.46	0.0562386016	0.0162213944
8.57	0.0292583736	0.0158638752
8.68	0.0314616896	0.0159054472
8.8	0.0233967216	0.01579736
8.91	0.0269885424	0.015838932
9.02	0.0225819104	0.0157807312
9.14	0.0203952232	0.0157641024
9.25	0.019206264	0.0157391592
9.37	0.0151072648	0.0156892728
9.49	0.025733068	0.0158223032
9.61	0.0470428752	0.0160800496
9.73	0.0247852264	0.0158056744
9.84	0.031844152	0.0158888184
9.97	0.022532024	0.0157724168
10.18	0.0130785512	0.0156560152
10.48	0.0130785512	0.0156560152
10.79	0.0180588768	0.015714216
11.1	0.0210853184	0.015755788
11.41	0.0497284264	0.0161133072
11.73	0.0626323752	0.0162795952
12.05	0.0798265544	0.0164708264
12.38	0.109833224	0.016795088
12.72	0.129787784	0.01704452
13.07	0.138351616	0.017210808
13.42	0.161049928	0.01746024
13.76	0.192727792	0.017792816
14.11	0.264896784	0.018624256
14.47	0.311623712	0.01912312
14.82	0.3492048	0.019455696
15.18	0.420043488	0.020203992
15.56	0.470096176	0.020702856
15.93	0.479075728	0.020786
16.31	0.55124472	0.021368008
16.69	0.625409168	0.022116304
17.08	0.703148808	0.022947744
17.47	0.719029312	0.023030888
17.87	0.818635824	0.023862328
18.27	0.87633776	0.02411176
18.67	0.95532456	0.0249432
19.08	1.00687384	0.02577464
19.49	1.1141296	0.02660608
19.91	1.1557016	0.02660608
21.05	1.47746888	0.03076328
22.96	2.0037704	0.03575192
24.94	2.63815912	0.04240344
26.98	3.36982632	0.0498864
29.06	4.22870384	0.0582008
31.2	5.18984848	0.10309856
33.38	6.25575456	0.1122444
35.6	7.40563608	0.12222168
37.86	8.6386616	0.1330304
40.15	10.0105376	0.1164016
42.47	11.4156712	0.124716
44.81	12.8623768	0.124716
47.18	14.3506544	0.1330304
49.57	15.9387048	0.1413448
51.98	17.5184408	0.1496592
54.4	19.1064912	0.1579736
56.84	20.8525152	0.166288
59.28	22.6816832	0.1746024
61.74	24.52748	0.1829168
64.21	26.4231632	0.1995456
66.69	28.4019904	0.20786
69.17	30.2893592	0.2161744
71.65	32.2099856	0.2244888
74.12	34.1472408	0.2328032
76.61	36.042924	0.249432
79.1	38.0051224	0.2577464
81.6	39.8592336	0.2660608
84.11	41.488856	0.2743752
86.62	43.3346528	0.2826896
89.13	45.355052	0.291004
91.65	47.4419664	0.332576
94.19	49.3293352	0.3408904

System: calcium germanium oxide (Ca2GeO4); phases: Crystal
Fixed: Pressure, kPa = 101.325
Property: Molar volume, m3/mol (Crystal); method: X-ray diffraction
Temperature, K	Molar volume, m3/mol	uncertainty
101	6.068e-05	2.5e-07
155	6.076e-05	2.5e-07
177	6.08e-05	2.5e-07
200	6.084e-05	2.5e-07
222	6.087e-05	2.5e-07
234	6.09e-05	2.5e-07
259	6.093e-05	2.5e-07
275	6.096e-05	2.5e-07
269	6.095e-05	2.5e-07
294	6.099e-05	2.5e-07
