Measured thermophysical data. Solubility and distribution of bicycle derivatives of 1,3-selenazine in pharmaceutically relevant media by saturation shake-flask method
Source: J. Chem. Thermodyn., 2017, 10.1016/j.jct.2017.08.012
Compound 1: hexane, C6H14, InChI=1S/C6H14/c1-3-5-6-4-2/h3-6H2,1-2H3, purity 97%
Compound 2: N-(3-chloro-4-methylphenyl)-3-selena-1-azabicyclo[3.3.1]nonan-2-imine, C14H17ClN2Se, InChI=1S/C14H17ClN2Se/c1-10-4-5-12(7-13(10)15)16-14-17-6-2-3-11(8-17)9-18-14/h4-5,7,11H,2-3,6,8-9H2,1H3
Compound 3: N-(4-fluorophenyl)-3-selena-1-azabicyclo[3.3.1]nonan-2-imine, C13H15FN2Se, InChI=1S/C13H15FN2Se/c14-11-3-5-12(6-4-11)15-13-16-7-1-2-10(8-16)9-17-13/h3-6,10H,1-2,7-9H2
Compound 4: N-(4-isopropylphenyl)-3-selena-1-azabicyclo[3.3.1]nonan-2-imine, C16H22N2Se, InChI=1S/C16H22N2Se/c1-12(2)14-5-7-15(8-6-14)17-16-18-9-3-4-13(10-18)11-19-16/h5-8,12-13H,3-4,9-11H2,1-2H3
Compound 5: potassium chloride, ClK, InChI=1S/ClH.K/h1H;/q;+1/p-1, purity 99%
Compound 6: hydrogen chloride, ClH, InChI=1S/ClH/h1H, purity 99%
Compound 7: water, H2O, InChI=1S/H2O/h1H2
Compound 8: monopotassium phosphate, H2KO4P, InChI=1S/K.H3O4P/c;1-5(2,3)4/h;(H3,1,2,3,4)/q+1;/p-1, purity 99%
Compound 9: disodium hydrogen phosphate, HNa2O4P, InChI=1S/2Na.H3O4P/c;;1-5(2,3)4/h;;(H3,1,2,3,4)/q2*+1;/p-2, purity 99%

System: hexane; phases: Liquid
Fixed: Pressure, kPa = 101.325
Property: Mass density, kg/m3 (Liquid); method: Vibrating tube method
Temperature, K	Mass density, kg/m3	uncertainty
293.15	659.4	4.06
298.15	654.76	4.04
303.15	650.21	4.01
308.15	645.43	3.98
313.15	640.75	3.95

System: hexane + N-(3-chloro-4-methylphenyl)-3-selena-1-azabicyclo[3.3.1]nonan-2-imine; phases: Liquid, Crystal
Fixed: Pressure, kPa = 100
Property: Mole fraction of N-(3-chloro-4-methylphenyl)-3-selena-1-azabicyclo[3.3.1]nonan-2-imine (Liquid); method: UV spectrophotometry
Temperature, K	Mole fraction of N-(3-chloro-4-methylphenyl)-3-selena-1-azabicyclo[3.3.1]nonan-2-imine	uncertainty
293.15	0.000536	4.3e-05
298.15	0.000551	4.4e-05
303.15	0.000567	4.5e-05
308.15	0.000581	4.7e-05
313.15	0.000595	4.8e-05

System: hexane + N-(4-fluorophenyl)-3-selena-1-azabicyclo[3.3.1]nonan-2-imine; phases: Liquid, Crystal
Fixed: Pressure, kPa = 100
Property: Mole fraction of N-(4-fluorophenyl)-3-selena-1-azabicyclo[3.3.1]nonan-2-imine (Liquid); method: UV spectrophotometry
Temperature, K	Mole fraction of N-(4-fluorophenyl)-3-selena-1-azabicyclo[3.3.1]nonan-2-imine	uncertainty
293.15	0.000115	9e-06
298.15	0.000121	1e-05
303.15	0.000128	1e-05
308.15	0.000134	1.1e-05
313.15	0.000143	1.1e-05

System: N-(4-isopropylphenyl)-3-selena-1-azabicyclo[3.3.1]nonan-2-imine + hexane; phases: Liquid, Crystal
Fixed: Pressure, kPa = 100
Property: Mole fraction of N-(4-isopropylphenyl)-3-selena-1-azabicyclo[3.3.1]nonan-2-imine (Liquid); method: UV spectrophotometry
Temperature, K	Mole fraction of N-(4-isopropylphenyl)-3-selena-1-azabicyclo[3.3.1]nonan-2-imine	uncertainty
293.15	0.000481	3.9e-05
298.15	0.00056	4.5e-05
303.15	0.000643	5.2e-05
308.15	0.000725	5.8e-05
313.15	0.000819	6.6e-05

System: potassium chloride + hydrogen chloride + water; phases: Liquid
Fixed: Pressure, kPa = 100
Fixed: Amount concentration (molarity), mol/dm3 of potassium chloride = 0.0881
Fixed: Amount concentration (molarity), mol/dm3 of hydrogen chloride = 0.0119
Property: Mass density, kg/m3 (Liquid); method: Vibrating tube method
Temperature, K	Mass density, kg/m3	uncertainty
293.15	1003.46	6.02
298.15	1002.26	6.01
303.15	1000.82	6.01
308.15	999.18	6
313.15	997.34	5.99

System: monopotassium phosphate + disodium hydrogen phosphate + water; phases: Liquid
Fixed: Pressure, kPa = 100
Fixed: Amount concentration (molarity), mol/dm3 of monopotassium phosphate = 0.0669
Fixed: Amount concentration (molarity), mol/dm3 of disodium hydrogen phosphate = 0.0659
Property: Mass density, kg/m3 (Liquid); method: Vibrating tube method
Temperature, K	Mass density, kg/m3	uncertainty
293.15	1005.99	6.04
298.15	1004.77	6.03
303.15	1003.31	6.02
308.15	1001.65	6.01
313.15	999.78	6
