Measured thermophysical data. Thermochemical study of some dichloroacetophenone isomers
Source: J. Chem. Thermodyn., 2011, 10.1016/j.jct.2010.09.005
Compound 1: water, H2O, InChI=1S/H2O/h1H2
Compound 2: chlorine, Cl2, InChI=1S/Cl2/c1-2
Compound 3: hydrogen, H2, InChI=1S/H2/h1H
Compound 4: graphite, C
Compound 5: oxygen, O2, InChI=1S/O2/c1-2
Compound 6: 2',5'-dichloroacetophenone, C8H6Cl2O, InChI=1S/C8H6Cl2O/c1-5(11)7-4-6(9)2-3-8(7)10/h2-4H,1H3
Compound 7: 2',4'-dichloroacetophenone, C8H6Cl2O, InChI=1S/C8H6Cl2O/c1-5(11)7-3-2-6(9)4-8(7)10/h2-4H,1H3
Compound 8: 3',4'-dichloroacetophenone, C8H6Cl2O, InChI=1S/C8H6Cl2O/c1-5(11)6-2-3-7(9)8(10)4-6/h2-4H,1H3
Compound 9: carbon dioxide, CO2, InChI=1S/CO2/c2-1-3
Compound 10: hydrogen chloride, ClH, InChI=1S/ClH/h1H

System: 2',5'-dichloroacetophenone; phases: Liquid, Gas
Property: Molar enthalpy of vaporization or sublimation, kJ/mol (Liquid); method: vacuum sublimation
Temperature, K	Molar enthalpy of vaporization or sublimation, kJ/mol	uncertainty
298.15	66.3	3

System: 2',4'-dichloroacetophenone; phases: Crystal, Gas
Property: Molar enthalpy of vaporization or sublimation, kJ/mol (Crystal); method: vacuum sublimation
Temperature, K	Molar enthalpy of vaporization or sublimation, kJ/mol	uncertainty
298.15	63.6	2.8

System: 3',4'-dichloroacetophenone; phases: Crystal, Gas
Property: Molar enthalpy of vaporization or sublimation, kJ/mol (Crystal); method: vacuum sublimation
Temperature, K	Molar enthalpy of vaporization or sublimation, kJ/mol	uncertainty
298.15	90.8	3.2

System: 3',4'-dichloroacetophenone; phases: Crystal, Gas
Property: Vapor or sublimation pressure, kPa (Crystal); method: Calculated from knudsen effusion weight loss
Temperature, K	Vapor or sublimation pressure, kPa	uncertainty
293.25	0.0001703	8.5e-06
293.25	0.0001647	8.3e-06
293.25	0.0001655	8.3e-06
295.17	0.0002238	1.12e-05
295.17	0.0002145	1.07e-05
295.17	0.000213	1.07e-05
297.09	0.0002738	1.37e-05
297.09	0.0002832	1.42e-05
297.09	0.0002774	1.39e-05
299.21	0.0003546	1.78e-05
299.21	0.0003484	1.75e-05
299.21	0.0003522	1.76e-05
301.16	0.0004547	2.28e-05
301.16	0.0004516	2.26e-05
301.16	0.0004492	2.25e-05
303.08	0.0005694	2.85e-05
303.08	0.0005819	2.91e-05
303.08	0.0005785	2.9e-05
305.19	0.0007368	3.69e-05
305.19	0.0007202	3.61e-05
305.19	0.0007224	3.62e-05
307.16	0.000944	4.73e-05
307.16	0.0009302	4.66e-05
307.16	0.0009113	4.56e-05
309.09	0.0011745	0.0001216
309.09	0.0011864	0.0001231
309.09	0.0011758	0.0001217

Reaction: -1 2',4'-dichloroacetophenone + 2 hydrogen chloride + 8 carbon dioxide + 2 water + -8.5 oxygen
Property: Specific internal energy of reaction at constant volume, J/g
-20437.3

Reaction: -1 2',5'-dichloroacetophenone + 2 hydrogen chloride + 8 carbon dioxide + 2 water + -8.5 oxygen
Property: Specific internal energy of reaction at constant volume, J/g
-20415.3

Reaction: -1 3',4'-dichloroacetophenone + 2 hydrogen chloride + 8 carbon dioxide + 2 water + -8.5 oxygen
Property: Specific internal energy of reaction at constant volume, J/g
-20232

Reaction: 1 2',4'-dichloroacetophenone + -1 chlorine + -3 hydrogen + -8 graphite + -.5 oxygen
Property: Molar enthalpy of reaction, kJ/mol
-188.1

Reaction: 1 2',4'-dichloroacetophenone + -1 chlorine + -3 hydrogen + -8 graphite + -.5 oxygen
Property: Molar enthalpy of reaction, kJ/mol
-124.5

Reaction: 1 2',5'-dichloroacetophenone + -1 chlorine + -3 hydrogen + -8 graphite + -.5 oxygen
Property: Molar enthalpy of reaction, kJ/mol
-192.3

Reaction: 1 2',5'-dichloroacetophenone + -1 chlorine + -3 hydrogen + -8 graphite + -.5 oxygen
Property: Molar enthalpy of reaction, kJ/mol
-126

Reaction: 1 3',4'-dichloroacetophenone + -1 chlorine + -3 hydrogen + -8 graphite + -.5 oxygen
Property: Molar enthalpy of reaction, kJ/mol
-227

Reaction: 1 3',4'-dichloroacetophenone + -1 chlorine + -3 hydrogen + -8 graphite + -.5 oxygen
Property: Molar enthalpy of reaction, kJ/mol
-134.8
