Measured thermophysical data. Molecular interactions between some amino acids and a pharmaceutically active ionic liquid domiphen DL-mandelic acid in aqueous medium at temperatures from 293.15 K to 313.15 K
Source: J. Chem. Thermodyn., 2019, 10.1016/j.jct.2019.06.002
Compound 1: domiphen DL-mandelate, C30H47NO4, InChI=1S/C22H40NO.C8H8O3/c1-4-5-6-7-8-9-10-11-12-16-19-23(2,3)20-21-24-22-17-14-13-15-18-22;9-7(8(10)11)6-4-2-1-3-5-6/h13-15,17-18H,4-12,16,19-21H2,1-3H3;1-5,7,9H,(H,10,11)/q+1;/p-1
Compound 2: 2-aminoacetic acid, C2H5NO2, InChI=1S/C2H5NO2/c3-1-2(4)5/h1,3H2,(H,4,5), purity 99%
Compound 3: (S)-2-aminopropanoic acid, C3H7NO2, InChI=1S/C3H7NO2/c1-2(4)3(5)6/h2H,4H2,1H3,(H,5,6)/t2-/m0/s1, purity 99%
Compound 4: L-valine, C5H11NO2, InChI=1S/C5H11NO2/c1-3(2)4(6)5(7)8/h3-4H,6H2,1-2H3,(H,7,8)/t4-/m0/s1, purity 99%
Compound 5: L-leucine, C6H13NO2, InChI=1S/C6H13NO2/c1-4(2)3-5(7)6(8)9/h4-5H,3,7H2,1-2H3,(H,8,9)/t5-/m0/s1, purity 99%
Compound 6: water, H2O, InChI=1S/H2O/h1H2

System: 2-aminoacetic acid + domiphen DL-mandelate + water; phases: Liquid
Fixed: Pressure, kPa = 101
Property: Mass density, kg/m3 (Liquid); method: Vibrating tube method
Solvent: Molality, mol/kg of domiphen DL-mandelate	Temperature, K	Molality, mol/kg of 2-aminoacetic acid	Mass density, kg/m3	uncertainty
0.005	293.15	0	998.41	0.31
0.005	293.15	0.05959	1000.35	0.31
0.005	293.15	0.0793	1000.99	0.31
0.005	293.15	0.09921	1001.62	0.32
0.005	293.15	0.11905	1002.25	0.32
0.005	293.15	0.13935	1002.9	0.32
0.005	293.15	0.15928	1003.53	0.33
0.005	293.15	0.17948	1004.16	0.33
0.005	293.15	0.20005	1004.8	0.34
0.005	298.15	0	997.24	0.31
0.005	298.15	0.05959	999.16	0.31
0.005	298.15	0.0793	999.79	0.31
0.005	298.15	0.09921	1000.42	0.31
0.005	298.15	0.11905	1001.04	0.32
0.005	298.15	0.13935	1001.68	0.32
0.005	298.15	0.15928	1002.3	0.33
0.005	298.15	0.17948	1002.93	0.33
0.005	298.15	0.20005	1003.57	0.34
0.005	303.15	0	995.84	0.31
0.005	303.15	0.05959	997.73	0.31
0.005	303.15	0.0793	998.35	0.31
0.005	303.15	0.09921	998.97	0.32
0.005	303.15	0.11905	999.59	0.32
0.005	303.15	0.13935	1000.22	0.32
0.005	303.15	0.15928	1000.84	0.33
0.005	303.15	0.17948	1001.46	0.33
0.005	303.15	0.20005	1002.09	0.34
0.005	308.15	0	994.22	0.31
0.005	308.15	0.04009	995.48	0.31
0.005	308.15	0.05959	996.09	0.31
0.005	308.15	0.0793	996.7	0.31
0.005	308.15	0.09921	997.32	0.32
0.005	308.15	0.11905	997.93	0.32
0.005	308.15	0.13935	998.56	0.32
0.005	308.15	0.15928	999.17	0.33
0.005	308.15	0.17948	999.79	0.33
0.005	308.15	0.20005	1000.42	0.34
0.01	293.15	0	998.56	0.31
0.01	293.15	0.05878	1000.47	0.31
0.01	293.15	0.07851	1001.11	0.31
0.01	293.15	0.09804	1001.73	0.32
0.01	293.15	0.11766	1002.36	0.32
0.01	293.15	0.1376	1002.99	0.32
0.01	293.15	0.15738	1003.61	0.33
0.01	293.15	0.17719	1004.23	0.33
0.01	293.15	0.19765	1004.88	0.34
0.01	298.15	0	997.38	0.31
0.01	298.15	0.05878	999.27	0.31
0.01	298.15	0.07851	999.89	0.31
0.01	298.15	0.09804	1000.51	0.31
0.01	298.15	0.11766	1001.13	0.32
0.01	298.15	0.1376	1001.75	0.32
0.01	298.15	0.15738	1002.37	0.32
0.01	298.15	0.17719	1002.99	0.33
0.01	298.15	0.19765	1003.63	0.33
0.01	303.15	0	995.99	0.31
0.01	303.15	0.03945	997.24	0.31
0.01	303.15	0.05878	997.85	0.31
0.01	303.15	0.07851	998.47	0.31
0.01	303.15	0.09804	999.08	0.31
0.01	303.15	0.11766	999.69	0.32
0.01	303.15	0.1376	1000.31	0.32
0.01	303.15	0.15738	1000.92	0.33
0.01	303.15	0.17719	1001.54	0.33
0.01	303.15	0.19765	1002.17	0.34
0.01	308.15	0	994.37	0.31
0.01	308.15	0.03945	995.6	0.31
0.01	308.15	0.05878	996.2	0.31
0.01	308.15	0.07851	996.81	0.31
0.01	308.15	0.11766	998.02	0.32
0.01	308.15	0.1376	998.63	0.32
0.01	308.15	0.15738	999.23	0.33
0.01	308.15	0.17719	999.83	0.33
0.01	308.15	0.19765	1000.45	0.33

System: 2-aminoacetic acid + domiphen DL-mandelate + water; phases: Liquid
Fixed: Pressure, kPa = 101
Property: Electrical conductivity, S/m (Liquid); method: Direct current cell with electrodes
Solvent: Molality, mol/kg of 2-aminoacetic acid	Temperature, K	Molality, mol/kg of domiphen DL-mandelate	Electrical conductivity, S/m	uncertainty
0	293.15	0	9.29e-05	5.6e-06
0	293.15	0.00028	0.00222	0.00014
0	293.15	0.00051	0.00405	0.00026
0	293.15	0.00064	0.00497	0.00031
0	293.15	0.0008	0.00622	0.00039
0	293.15	0.00097	0.0074	0.00046
0	293.15	0.00118	0.00888	0.00056
0	293.15	0.00137	0.01017	0.00063
0	293.15	0.00156	0.011	0.00068
0	293.15	0.00173	0.01186	0.00073
0	293.15	0.00189	0.01252	0.00077
0	293.15	0.00209	0.01325	0.00081
0	293.15	0.00226	0.01391	0.00085
0	293.15	0.00239	0.01436	0.00088
0	293.15	0.00251	0.01479	0.0009
0	293.15	0.00265	0.01527	0.00093
0	298.15	0	0.0001095	6.6e-06
0	298.15	0.00028	0.00244	0.00015
0	298.15	0.00051	0.00445	0.00028
0	298.15	0.00064	0.00547	0.00035
0	298.15	0.0008	0.00685	0.00043
0	298.15	0.00097	0.00815	0.00051
0	298.15	0.00118	0.00977	0.00061
0	298.15	0.00137	0.01124	0.0007
0	298.15	0.00156	0.01215	0.00075
0	298.15	0.00173	0.01321	0.00082
0	298.15	0.00189	0.01395	0.00085
0	298.15	0.00209	0.01477	0.0009
0	298.15	0.00226	0.0155	0.00095
0	298.15	0.00239	0.01602	0.00098
0	298.15	0.00251	0.01649	0.00101
0	298.15	0.00265	0.01707	0.00105
0	303.15	0	0.0001199	7.2e-06
0	303.15	0.00028	0.00269	0.00017
0	303.15	0.00051	0.00489	0.00031
0	303.15	0.00064	0.006	0.00038
0	303.15	0.0008	0.00752	0.00047
0	303.15	0.00097	0.00894	0.00056
0	303.15	0.00118	0.01073	0.00067
0	303.15	0.00137	0.01237	0.00077
0	303.15	0.00156	0.01364	0.00084
0	303.15	0.00173	0.01468	0.0009
0	303.15	0.00189	0.0155	0.00095
0	303.15	0.00209	0.01645	0.00101
0	303.15	0.00226	0.01724	0.00106
0	303.15	0.00239	0.01784	0.00109
0	303.15	0.00251	0.01838	0.00113
0	303.15	0.00265	0.01907	0.00119
0	308.15	0	0.0001309	7.9e-06
0	308.15	0.00028	0.00295	0.00019
0	308.15	0.00051	0.00537	0.00034
0	308.15	0.00064	0.00659	0.00042
0	308.15	0.0008	0.00827	0.00052
0	308.15	0.00097	0.00983	0.00062
0	308.15	0.00118	0.01178	0.00074
0	308.15	0.00137	0.01363	0.00085
0	308.15	0.00156	0.01516	0.00094
0	308.15	0.00173	0.01641	0.00101
0	308.15	0.00189	0.01736	0.00106
0	308.15	0.00209	0.01845	0.00113
0	308.15	0.00226	0.01955	0.00121
0	308.15	0.00239	0.0203	0.0012
0	308.15	0.00251	0.0209	0.0013
0	308.15	0.00265	0.0217	0.0013
0	313.15	0	0.0001407	8.4e-06
0	313.15	0.00028	0.00316	0.0002
0	313.15	0.00051	0.00572	0.00036
0	313.15	0.00064	0.00726	0.00046
0	313.15	0.0008	0.00889	0.00056
0	313.15	0.00097	0.01069	0.00067
0	313.15	0.00118	0.01282	0.00081
0	313.15	0.00137	0.01477	0.00093
0	313.15	0.00156	0.0165	0.00103
0	313.15	0.00173	0.01802	0.00112
0	313.15	0.00189	0.01916	0.00118
0	313.15	0.00209	0.0205	0.0013
0	313.15	0.00226	0.0216	0.0013
0	313.15	0.00239	0.0223	0.0014
0	313.15	0.00251	0.0233	0.0014
0	313.15	0.00265	0.0242	0.0015
0.05	293.15	0	0.000373	2.4e-05
0.05	293.15	0.00024	0.00216	0.00013
0.05	293.15	0.00042	0.00354	0.00022
0.05	293.15	0.00061	0.00494	0.00031
0.05	293.15	0.00077	0.00611	0.00038
0.05	293.15	0.00093	0.00731	0.00046
0.05	293.15	0.00113	0.00877	0.00055
0.05	293.15	0.00132	0.00993	0.00061
0.05	293.15	0.00149	0.01077	0.00066
0.05	293.15	0.00165	0.01148	0.0007
0.05	293.15	0.00179	0.01207	0.00074
0.05	293.15	0.00195	0.01265	0.00077
0.05	293.15	0.00213	0.01334	0.00082
0.05	293.15	0.00229	0.01395	0.00085
0.05	293.15	0.00245	0.01453	0.00089
0.05	293.15	0.00262	0.01505	0.00092
0.05	298.15	0	0.000407	2.6e-05
0.05	298.15	0.00024	0.00238	0.00015
0.05	298.15	0.00042	0.0039	0.00024
0.05	298.15	0.00061	0.00543	0.00034
0.05	298.15	0.00077	0.00673	0.00042
0.05	298.15	0.00093	0.00805	0.00051
0.05	298.15	0.00113	0.00967	0.00061
0.05	298.15	0.00132	0.01102	0.00068
0.05	298.15	0.00149	0.01197	0.00074
0.05	298.15	0.00165	0.01282	0.00079
0.05	298.15	0.00179	0.01348	0.00082
0.05	298.15	0.00195	0.01415	0.00086
0.05	298.15	0.00213	0.0149	0.00091
0.05	298.15	0.00229	0.01561	0.00096
0.05	298.15	0.00245	0.01624	0.00099
0.05	298.15	0.00262	0.01685	0.00103
0.05	303.15	0	0.000444	2.8e-05
0.05	303.15	0.00024	0.00261	0.00016
0.05	303.15	0.00042	0.00428	0.00027
0.05	303.15	0.00061	0.00597	0.00037
0.05	303.15	0.00077	0.00739	0.00046
0.05	303.15	0.00093	0.00884	0.00056
0.05	303.15	0.00113	0.01062	0.00067
0.05	303.15	0.00132	0.01217	0.00076
0.05	303.15	0.00149	0.01331	0.00082
0.05	303.15	0.00165	0.01427	0.00088
0.05	303.15	0.00179	0.01504	0.00092
0.05	303.15	0.00195	0.01579	0.00097
0.05	303.15	0.00213	0.01661	0.00102
0.05	303.15	0.00229	0.01746	0.00107
0.05	303.15	0.00245	0.01814	0.00111
0.05	303.15	0.00262	0.01885	0.00115
0.05	308.15	0	0.000487	3e-05
0.05	308.15	0.00024	0.00288	0.00018
0.05	308.15	0.00042	0.00472	0.0003
0.05	308.15	0.00061	0.00659	0.00041
0.05	308.15	0.00077	0.00816	0.00051
0.05	308.15	0.00093	0.00975	0.00061
0.05	308.15	0.00113	0.01171	0.00073
0.05	308.15	0.00132	0.01348	0.00084
0.05	308.15	0.00149	0.01488	0.00092
0.05	308.15	0.00165	0.01604	0.00099
0.05	308.15	0.00179	0.01693	0.00104
0.05	308.15	0.00195	0.01777	0.00109
0.05	308.15	0.00213	0.01874	0.00115
0.05	308.15	0.00229	0.0196	0.0012
0.05	308.15	0.00245	0.0204	0.0012
0.05	308.15	0.00262	0.0212	0.0013
0.05	313.15	0	0.000536	3.3e-05
0.05	313.15	0.00024	0.00315	0.0002
0.05	313.15	0.00042	0.00517	0.00032
0.05	313.15	0.00061	0.0072	0.00045
0.05	313.15	0.00077	0.00892	0.00056
0.05	313.15	0.00093	0.01065	0.00067
0.05	313.15	0.00113	0.01281	0.0008
0.05	313.15	0.00132	0.01475	0.00092
0.05	313.15	0.00149	0.01642	0.00102
0.05	313.15	0.00165	0.01785	0.00111
0.05	313.15	0.00179	0.01891	0.00117
0.05	313.15	0.00195	0.02	0.0012
0.05	313.15	0.00213	0.0211	0.0013
0.05	313.15	0.00229	0.0221	0.0014
0.05	313.15	0.00245	0.023	0.0014
0.05	313.15	0.00262	0.024	0.0015
0.0999	293.15	0	0.000835	5.3e-05
0.0999	293.15	0.00026	0.00274	0.00017
0.0999	293.15	0.00045	0.0041	0.00026
0.0999	293.15	0.00064	0.00551	0.00034
0.0999	293.15	0.00083	0.00681	0.00043
0.0999	293.15	0.001	0.00803	0.0005
0.0999	293.15	0.00116	0.00913	0.00057
0.0999	293.15	0.00138	0.01039	0.00064
0.0999	293.15	0.00158	0.01127	0.00069
0.0999	293.15	0.00176	0.01197	0.00073
0.0999	293.15	0.00194	0.01261	0.00077
0.0999	293.15	0.00214	0.01338	0.00082
0.0999	293.15	0.00232	0.01407	0.00086
0.0999	293.15	0.00251	0.01471	0.0009
0.0999	293.15	0.00267	0.01518	0.00092
0.0999	293.15	0.00281	0.01553	0.00094
0.0999	298.15	0	0.000882	5.6e-05
0.0999	298.15	0.00026	0.00298	0.00018
0.0999	298.15	0.00045	0.00448	0.00028
0.0999	298.15	0.00064	0.00604	0.00038
0.0999	298.15	0.00083	0.00747	0.00047
0.0999	298.15	0.001	0.00882	0.00055
0.0999	298.15	0.00116	0.01004	0.00062
0.0999	298.15	0.00138	0.01149	0.00071
0.0999	298.15	0.00158	0.01251	0.00077
0.0999	298.15	0.00176	0.01332	0.00081
0.0999	298.15	0.00194	0.01405	0.00086
0.0999	298.15	0.00214	0.01492	0.00091
0.0999	298.15	0.00232	0.01567	0.00096
0.0999	298.15	0.00251	0.01639	0.001
0.0999	298.15	0.00267	0.01704	0.00104
0.0999	298.15	0.00281	0.01756	0.00107
0.0999	303.15	0	0.000934	5.9e-05
0.0999	303.15	0.00026	0.00324	0.0002
0.0999	303.15	0.00045	0.0049	0.00031
0.0999	303.15	0.00064	0.0066	0.00041
0.0999	303.15	0.00083	0.00816	0.00051
0.0999	303.15	0.001	0.00964	0.0006
0.0999	303.15	0.00116	0.011	0.00069
0.0999	303.15	0.00138	0.0127	0.00079
0.0999	303.15	0.00158	0.01387	0.00085
0.0999	303.15	0.00176	0.0148	0.0009
0.0999	303.15	0.00194	0.01562	0.00096
0.0999	303.15	0.00214	0.01662	0.00102
0.0999	303.15	0.00232	0.01747	0.00107
0.0999	303.15	0.00251	0.01827	0.00112
0.0999	303.15	0.00267	0.01897	0.00116
0.0999	303.15	0.00281	0.01956	0.00121
0.0999	308.15	0	0.001	6e-05
0.0999	308.15	0.00026	0.00354	0.00022
0.0999	308.15	0.00045	0.00537	0.00033
0.0999	308.15	0.00064	0.00724	0.00045
0.0999	308.15	0.00083	0.00897	0.00056
0.0999	308.15	0.001	0.01059	0.00066
0.0999	308.15	0.00116	0.01209	0.00076
0.0999	308.15	0.00138	0.01408	0.00087
0.0999	308.15	0.00158	0.01551	0.00095
0.0999	308.15	0.00176	0.01658	0.00101
0.0999	308.15	0.00194	0.01752	0.00107
0.0999	308.15	0.00214	0.01876	0.00115
0.0999	308.15	0.00232	0.01961	0.0012
0.0999	308.15	0.00251	0.0205	0.0013
0.0999	308.15	0.00267	0.0213	0.0013
0.0999	308.15	0.00281	0.0219	0.0014
0.0999	313.15	0	0.00107	7e-05
0.0999	313.15	0.00026	0.00386	0.00024
0.0999	313.15	0.00045	0.00585	0.00036
0.0999	313.15	0.00064	0.00789	0.00049
0.0999	313.15	0.00083	0.00978	0.00061
0.0999	313.15	0.001	0.01155	0.00072
0.0999	313.15	0.00116	0.0132	0.00083
0.0999	313.15	0.00138	0.01543	0.00096
0.0999	313.15	0.00158	0.01719	0.00106
0.0999	313.15	0.00176	0.01846	0.00114
0.0999	313.15	0.00194	0.01985	0.00122
0.0999	313.15	0.00214	0.0211	0.0013
0.0999	313.15	0.00232	0.0221	0.0014
0.0999	313.15	0.00251	0.0233	0.0014
0.0999	313.15	0.00267	0.0242	0.0015
0.0999	313.15	0.00281	0.0252	0.0016

System: (S)-2-aminopropanoic acid + domiphen DL-mandelate + water; phases: Liquid
Fixed: Pressure, kPa = 101
Property: Mass density, kg/m3 (Liquid); method: Vibrating tube method
Solvent: Molality, mol/kg of domiphen DL-mandelate	Temperature, K	Molality, mol/kg of (S)-2-aminopropanoic acid	Mass density, kg/m3	uncertainty
0.005	293.15	0	998.41	0.31
0.005	293.15	0.02031	999.01	0.31
0.005	293.15	0.03983	999.58	0.31
0.005	293.15	0.05943	1000.15	0.31
0.005	293.15	0.07926	1000.72	0.31
0.005	293.15	0.09915	1001.29	0.31
0.005	293.15	0.11896	1001.85	0.32
0.005	293.15	0.13928	1002.43	0.32
0.005	293.15	0.15933	1002.99	0.32
0.005	293.15	0.17948	1003.55	0.33
0.005	293.15	0.2002	1004.12	0.33
0.005	298.15	0	997.23	0.31
0.005	298.15	0.05943	998.95	0.31
0.005	298.15	0.07926	999.52	0.31
0.005	298.15	0.09915	1000.09	0.31
0.005	298.15	0.11896	1000.65	0.32
0.005	298.15	0.13928	1001.22	0.32
0.005	298.15	0.15933	1001.78	0.32
0.005	298.15	0.17948	1002.34	0.33
0.005	298.15	0.2002	1002.91	0.33
0.005	303.15	0	995.84	0.31
0.005	303.15	0.05943	997.54	0.31
0.005	303.15	0.07926	998.1	0.31
0.005	303.15	0.09915	998.66	0.31
0.005	303.15	0.11896	999.21	0.32
0.005	303.15	0.13928	999.78	0.32
0.005	303.15	0.15933	1000.33	0.32
0.005	303.15	0.17948	1000.88	0.33
0.005	303.15	0.2002	1001.45	0.33
0.005	308.15	0	994.22	0.31
0.005	308.15	0.03983	995.35	0.31
0.005	308.15	0.07926	996.46	0.31
0.005	308.15	0.09915	997.02	0.31
0.005	308.15	0.11896	997.57	0.32
0.005	308.15	0.13928	998.14	0.32
0.005	308.15	0.15933	998.69	0.32
0.005	308.15	0.17948	999.25	0.33
0.005	308.15	0.2002	999.82	0.33
0.01	293.15	0	998.57	0.31
0.01	293.15	0.06008	1000.33	0.31
0.01	293.15	0.08049	1000.92	0.31
0.01	293.15	0.10027	1001.49	0.31
0.01	293.15	0.12035	1002.07	0.32
0.01	293.15	0.14099	1002.65	0.32
0.01	293.15	0.16102	1003.22	0.32
0.01	293.15	0.1814	1003.8	0.33
0.01	293.15	0.20253	1004.4	0.33
0.01	298.15	0	997.4	0.31
0.01	298.15	0.04033	998.57	0.31
0.01	298.15	0.06008	999.14	0.31
0.01	298.15	0.10027	1000.29	0.31
0.01	298.15	0.12035	1000.87	0.32
0.01	298.15	0.14099	1001.45	0.32
0.01	298.15	0.16102	1002.02	0.32
0.01	298.15	0.1814	1002.6	0.33
0.01	298.15	0.20253	1003.19	0.33
0.01	303.15	0	995.99	0.31
0.01	303.15	0.06008	997.71	0.31
0.01	303.15	0.08049	998.29	0.31
0.01	303.15	0.10027	998.85	0.31
0.01	303.15	0.12035	999.42	0.32
0.01	303.15	0.14099	1000	0.32
0.01	303.15	0.16102	1000.56	0.32
0.01	303.15	0.1814	1001.13	0.33
0.01	303.15	0.20253	1001.72	0.33
0.01	308.15	0	994.38	0.31
0.01	308.15	0.04033	995.52	0.31
0.01	308.15	0.08049	996.65	0.31
0.01	308.15	0.10027	997.2	0.31
0.01	308.15	0.12035	997.76	0.32
0.01	308.15	0.14099	998.33	0.32
0.01	308.15	0.16102	998.89	0.32
0.01	308.15	0.1814	999.45	0.33
0.01	308.15	0.20253	1000.03	0.33

System: (S)-2-aminopropanoic acid + domiphen DL-mandelate + water; phases: Liquid
Fixed: Pressure, kPa = 101
Property: Electrical conductivity, S/m (Liquid); method: Direct current cell with electrodes
Solvent: Molality, mol/kg of (S)-2-aminopropanoic acid	Temperature, K	Molality, mol/kg of domiphen DL-mandelate	Electrical conductivity, S/m	uncertainty
0	293.15	0	9.29e-05	5.6e-06
0	293.15	0.00028	0.00222	0.00014
0	293.15	0.00051	0.00405	0.00026
0	293.15	0.00064	0.00497	0.00031
0	293.15	0.0008	0.00622	0.00039
0	293.15	0.00097	0.0074	0.00046
0	293.15	0.00118	0.00888	0.00056
0	293.15	0.00137	0.01017	0.00063
0	293.15	0.00156	0.011	0.00068
0	293.15	0.00173	0.01186	0.00073
0	293.15	0.00189	0.01252	0.00077
0	293.15	0.00209	0.01325	0.00081
0	293.15	0.00226	0.01391	0.00085
0	293.15	0.00239	0.01436	0.00088
0	293.15	0.00251	0.01479	0.0009
0	293.15	0.00265	0.01527	0.00093
0	298.15	0	0.0001095	6.6e-06
0	298.15	0.00028	0.00244	0.00015
0	298.15	0.00051	0.00445	0.00028
0	298.15	0.00064	0.00547	0.00035
0	298.15	0.0008	0.00685	0.00043
0	298.15	0.00097	0.00815	0.00051
0	298.15	0.00118	0.00977	0.00061
0	298.15	0.00137	0.01124	0.0007
0	298.15	0.00156	0.01215	0.00075
0	298.15	0.00173	0.01321	0.00082
0	298.15	0.00189	0.01395	0.00085
0	298.15	0.00209	0.01477	0.0009
0	298.15	0.00226	0.0155	0.00095
0	298.15	0.00239	0.01602	0.00098
0	298.15	0.00251	0.01649	0.00101
0	298.15	0.00265	0.01707	0.00105
0	303.15	0	0.0001199	7.2e-06
0	303.15	0.00028	0.00269	0.00017
0	303.15	0.00051	0.00489	0.00031
0	303.15	0.00064	0.006	0.00038
0	303.15	0.0008	0.00752	0.00047
0	303.15	0.00097	0.00894	0.00056
0	303.15	0.00118	0.01073	0.00067
0	303.15	0.00137	0.01237	0.00077
0	303.15	0.00156	0.01364	0.00084
0	303.15	0.00173	0.01468	0.0009
0	303.15	0.00189	0.0155	0.00095
0	303.15	0.00209	0.01645	0.00101
0	303.15	0.00226	0.01724	0.00106
0	303.15	0.00239	0.01784	0.00109
0	303.15	0.00251	0.01838	0.00113
0	303.15	0.00265	0.01907	0.00119
0	308.15	0	0.0001309	7.9e-06
0	308.15	0.00028	0.00295	0.00019
0	308.15	0.00051	0.00537	0.00034
0	308.15	0.00064	0.00659	0.00042
0	308.15	0.0008	0.00827	0.00052
0	308.15	0.00097	0.00983	0.00062
0	308.15	0.00118	0.01178	0.00074
0	308.15	0.00137	0.01363	0.00085
0	308.15	0.00156	0.01516	0.00094
0	308.15	0.00173	0.01641	0.00101
0	308.15	0.00189	0.01736	0.00106
0	308.15	0.00209	0.01845	0.00113
0	308.15	0.00226	0.01955	0.00121
0	308.15	0.00239	0.0203	0.0012
0	308.15	0.00251	0.0209	0.0013
0	308.15	0.00265	0.0217	0.0013
0	313.15	0	0.0001407	8.4e-06
0	313.15	0.00028	0.00316	0.0002
0	313.15	0.00051	0.00572	0.00036
0	313.15	0.00064	0.00726	0.00046
0	313.15	0.0008	0.00889	0.00056
0	313.15	0.00097	0.01069	0.00067
0	313.15	0.00118	0.01282	0.00081
0	313.15	0.00137	0.01477	0.00093
0	313.15	0.00156	0.0165	0.00103
0	313.15	0.00173	0.01802	0.00112
0	313.15	0.00189	0.01916	0.00118
0	313.15	0.00209	0.0205	0.0013
0	313.15	0.00226	0.0216	0.0013
0	313.15	0.00239	0.0223	0.0014
0	313.15	0.00251	0.0233	0.0014
0	313.15	0.00265	0.0242	0.0015
0.0499	293.15	0	0.000248	1.5e-05
0.0499	293.15	0.00029	0.00244	0.00015
0.0499	293.15	0.00045	0.00367	0.00023
0.0499	293.15	0.00065	0.00516	0.00032
0.0499	293.15	0.00083	0.00651	0.00041
0.0499	293.15	0.001	0.00781	0.00049
0.0499	293.15	0.00121	0.00929	0.00058
0.0499	293.15	0.00142	0.01039	0.00064
0.0499	293.15	0.0016	0.01122	0.00069
0.0499	293.15	0.00177	0.01191	0.00073
0.0499	293.15	0.00194	0.01256	0.00077
0.0499	293.15	0.0021	0.01314	0.00081
0.0499	293.15	0.00229	0.01392	0.00085
0.0499	293.15	0.00247	0.01452	0.00089
0.0499	293.15	0.00263	0.01512	0.00093
0.0499	298.15	0	0.000281	1.7e-05
0.0499	298.15	0.00029	0.0027	0.00017
0.0499	298.15	0.00045	0.00406	0.00025
0.0499	298.15	0.00065	0.0057	0.00036
0.0499	298.15	0.00083	0.00719	0.00045
0.0499	298.15	0.001	0.00862	0.00054
0.0499	298.15	0.00121	0.01028	0.00064
0.0499	298.15	0.00142	0.01157	0.00071
0.0499	298.15	0.0016	0.01254	0.00077
0.0499	298.15	0.00177	0.01333	0.00082
0.0499	298.15	0.00194	0.01407	0.00086
0.0499	298.15	0.0021	0.01473	0.0009
0.0499	298.15	0.00229	0.01551	0.00095
0.0499	298.15	0.00247	0.01628	0.001
0.0499	298.15	0.00263	0.01691	0.00104
0.0499	303.15	0	0.000316	1.9e-05
0.0499	303.15	0.00029	0.00297	0.00019
0.0499	303.15	0.00045	0.00447	0.00028
0.0499	303.15	0.00065	0.00627	0.00039
0.0499	303.15	0.00083	0.00791	0.0005
0.0499	303.15	0.001	0.00948	0.0006
0.0499	303.15	0.00121	0.01134	0.00071
0.0499	303.15	0.00142	0.01287	0.0008
0.0499	303.15	0.0016	0.014	0.00086
0.0499	303.15	0.00177	0.01491	0.00091
0.0499	303.15	0.00194	0.01571	0.00096
0.0499	303.15	0.0021	0.01645	0.00101
0.0499	303.15	0.00229	0.01734	0.00106
0.0499	303.15	0.00247	0.01821	0.00112
0.0499	303.15	0.00263	0.01893	0.00116
0.0499	308.15	0	0.000356	2.2e-05
0.0499	308.15	0.00029	0.00329	0.00021
0.0499	308.15	0.00045	0.00494	0.00031
0.0499	308.15	0.00065	0.00693	0.00044
0.0499	308.15	0.00083	0.00874	0.00055
0.0499	308.15	0.001	0.01047	0.00066
0.0499	308.15	0.00121	0.01255	0.00079
0.0499	308.15	0.00142	0.01435	0.00089
0.0499	308.15	0.0016	0.01571	0.00097
0.0499	308.15	0.00177	0.01678	0.00103
0.0499	308.15	0.00194	0.01772	0.00108
0.0499	308.15	0.0021	0.01855	0.00114
0.0499	308.15	0.00229	0.01976	0.00121
0.0499	308.15	0.00247	0.0206	0.0013
0.0499	308.15	0.00263	0.0215	0.0013
0.0499	313.15	0	0.0004	2.4e-05
0.0499	313.15	0.00029	0.00361	0.00023
0.0499	313.15	0.00045	0.00542	0.00034
0.0499	313.15	0.00065	0.00759	0.00048
0.0499	313.15	0.00083	0.00957	0.0006
0.0499	313.15	0.001	0.01145	0.00072
0.0499	313.15	0.00121	0.01374	0.00086
0.0499	313.15	0.00142	0.01583	0.00099
0.0499	313.15	0.0016	0.0175	0.00108
0.0499	313.15	0.00177	0.01875	0.00115
0.0499	313.15	0.00194	0.0196	0.0012
0.0499	313.15	0.0021	0.0205	0.0013
0.0499	313.15	0.00229	0.0216	0.0013
0.0499	313.15	0.00247	0.0223	0.0014
0.0499	313.15	0.00263	0.0233	0.0015
0.1004	293.15	0	0.000309	1.9e-05
0.1004	293.15	0.00027	0.00236	0.00015
0.1004	293.15	0.00046	0.00378	0.00024
0.1004	293.15	0.00065	0.00517	0.00032
0.1004	293.15	0.00082	0.00645	0.00041
0.1004	293.15	0.00099	0.00768	0.00048
0.1004	293.15	0.0012	0.00914	0.00057
0.1004	293.15	0.00139	0.01019	0.00063
0.1004	293.15	0.00158	0.01103	0.00068
0.1004	293.15	0.00176	0.01186	0.00073
0.1004	293.15	0.00193	0.01259	0.00077
0.1004	293.15	0.00213	0.01311	0.0008
0.1004	293.15	0.00231	0.01377	0.00084
0.1004	293.15	0.00249	0.01442	0.00088
0.1004	293.15	0.00265	0.01501	0.00092
0.1004	298.15	0	0.000356	2.2e-05
0.1004	298.15	0.00027	0.00262	0.00016
0.1004	298.15	0.00046	0.00419	0.00026
0.1004	298.15	0.00065	0.00572	0.00036
0.1004	298.15	0.00082	0.00713	0.00045
0.1004	298.15	0.00099	0.0085	0.00053
0.1004	298.15	0.0012	0.0101	0.00063
0.1004	298.15	0.00139	0.01136	0.0007
0.1004	298.15	0.00158	0.01234	0.00076
0.1004	298.15	0.00176	0.01322	0.00081
0.1004	298.15	0.00193	0.01396	0.00085
0.1004	298.15	0.00213	0.01468	0.0009
0.1004	298.15	0.00231	0.01545	0.00095
0.1004	298.15	0.00249	0.01617	0.00099
0.1004	298.15	0.00265	0.01681	0.00104
0.1004	303.15	0	0.000408	2.5e-05
0.1004	303.15	0.00027	0.0029	0.00018
0.1004	303.15	0.00046	0.00462	0.00029
0.1004	303.15	0.00065	0.00631	0.0004
0.1004	303.15	0.00082	0.00786	0.00049
0.1004	303.15	0.00099	0.00936	0.00059
0.1004	303.15	0.0012	0.01115	0.0007
0.1004	303.15	0.00139	0.01263	0.00078
0.1004	303.15	0.00158	0.01376	0.00084
0.1004	303.15	0.00176	0.01472	0.0009
0.1004	303.15	0.00193	0.01552	0.00095
0.1004	303.15	0.00213	0.01642	0.00101
0.1004	303.15	0.00231	0.0173	0.00106
0.1004	303.15	0.00249	0.01812	0.00111
0.1004	303.15	0.00265	0.01881	0.00116
0.1004	308.15	0	0.00047	2.9e-05
0.1004	308.15	0.00027	0.00322	0.0002
0.1004	308.15	0.00046	0.00512	0.00032
0.1004	308.15	0.00065	0.00698	0.00044
0.1004	308.15	0.00082	0.00869	0.00055
0.1004	308.15	0.00099	0.01033	0.00065
0.1004	308.15	0.0012	0.01234	0.00077
0.1004	308.15	0.00139	0.01409	0.00088
0.1004	308.15	0.00158	0.01547	0.00095
0.1004	308.15	0.00176	0.01657	0.00102
0.1004	308.15	0.00193	0.01751	0.00107
0.1004	308.15	0.00213	0.01844	0.00113
0.1004	308.15	0.00231	0.01951	0.00119
0.1004	308.15	0.00249	0.0203	0.0012
0.1004	308.15	0.00265	0.0211	0.0013
0.1004	313.15	0	0.00054	3.3e-05
0.1004	313.15	0.00027	0.00356	0.00022
0.1004	313.15	0.00046	0.00564	0.00035
0.1004	313.15	0.00065	0.00765	0.00048
0.1004	313.15	0.00082	0.00954	0.0006
0.1004	313.15	0.00099	0.01132	0.00071
0.1004	313.15	0.0012	0.01352	0.00085
0.1004	313.15	0.00139	0.01554	0.00097
0.1004	313.15	0.00158	0.01722	0.00106
0.1004	313.15	0.00176	0.01849	0.00113
0.1004	313.15	0.00193	0.01956	0.00119
0.1004	313.15	0.00213	0.0204	0.0012
0.1004	313.15	0.00231	0.0213	0.0013
0.1004	313.15	0.00249	0.0222	0.0014
0.1004	313.15	0.00265	0.0232	0.0014

System: L-valine + domiphen DL-mandelate + water; phases: Liquid
Fixed: Pressure, kPa = 101
Property: Mass density, kg/m3 (Liquid); method: Vibrating tube method
Solvent: Molality, mol/kg of domiphen DL-mandelate	Temperature, K	Molality, mol/kg of L-valine	Mass density, kg/m3	uncertainty
0.005	293.15	0	998.41	0.31
0.005	293.15	0.04468	999.62	0.31
0.005	293.15	0.05959	1000.02	0.31
0.005	293.15	0.07432	1000.41	0.31
0.005	293.15	0.08921	1000.81	0.31
0.005	293.15	0.10578	1001.25	0.31
0.005	293.15	0.12001	1001.62	0.32
0.005	293.15	0.1351	1002.01	0.32
0.005	293.15	0.15077	1002.42	0.32
0.005	298.15	0	997.24	0.31
0.005	298.15	0.05959	998.83	0.31
0.005	298.15	0.07432	999.22	0.31
0.005	298.15	0.08921	999.61	0.31
0.005	298.15	0.10578	1000.04	0.31
0.005	298.15	0.12001	1000.41	0.31
0.005	298.15	0.1351	1000.8	0.32
0.005	298.15	0.15077	1001.2	0.32
0.005	303.15	0	995.85	0.31
0.005	303.15	0.04468	997.03	0.31
0.005	303.15	0.05959	997.42	0.31
0.005	303.15	0.07432	997.8	0.31
0.005	303.15	0.08921	998.19	0.31
0.005	303.15	0.10578	998.61	0.31
0.005	303.15	0.12001	998.98	0.32
0.005	303.15	0.1351	999.36	0.32
0.005	303.15	0.15077	999.76	0.32
0.005	308.15	0	994.23	0.31
0.005	308.15	0.05959	995.78	0.31
0.005	308.15	0.07432	996.16	0.31
0.005	308.15	0.08921	996.54	0.31
0.005	308.15	0.10578	996.96	0.31
0.005	308.15	0.12001	997.32	0.32
0.005	308.15	0.1351	997.7	0.32
0.005	308.15	0.15077	998.09	0.32
0.01	293.15	0	998.58	0.31
0.01	293.15	0.02929	999.37	0.31
0.01	293.15	0.04383	999.76	0.31
0.01	293.15	0.05855	1000.15	0.31
0.01	293.15	0.07311	1000.53	0.31
0.01	293.15	0.08779	1000.92	0.31
0.01	293.15	0.10287	1001.31	0.31
0.01	293.15	0.11757	1001.69	0.31
0.01	293.15	0.13236	1002.07	0.32
0.01	293.15	0.14782	1002.47	0.32
0.01	298.15	0	997.42	0.31
0.01	298.15	0.04383	998.58	0.31
0.01	298.15	0.05855	998.97	0.31
0.01	298.15	0.07311	999.35	0.31
0.01	298.15	0.08779	999.73	0.31
0.01	298.15	0.10287	1000.12	0.31
0.01	298.15	0.11757	1000.49	0.31
0.01	298.15	0.13236	1000.87	0.32
0.01	298.15	0.14782	1001.26	0.32
0.01	303.15	0	996	0.31
0.01	303.15	0.05855	997.54	0.31
0.01	303.15	0.07311	997.92	0.31
0.01	303.15	0.08779	998.3	0.31
0.01	303.15	0.10287	998.69	0.31
0.01	303.15	0.11757	999.07	0.32
0.01	303.15	0.13236	999.45	0.32
0.01	303.15	0.14782	999.84	0.32
0.01	308.15	0	994.37	0.31
0.01	308.15	0.04383	995.51	0.31
0.01	308.15	0.05855	995.89	0.31
0.01	308.15	0.08779	996.64	0.31
0.01	308.15	0.10287	997.02	0.31
0.01	308.15	0.11757	997.4	0.32
0.01	308.15	0.13236	997.77	0.32
0.01	308.15	0.14782	998.16	0.32

System: L-valine + domiphen DL-mandelate + water; phases: Liquid
Fixed: Pressure, kPa = 101
Property: Electrical conductivity, S/m (Liquid); method: Direct current cell with electrodes
Solvent: Molality, mol/kg of L-valine	Temperature, K	Molality, mol/kg of domiphen DL-mandelate	Electrical conductivity, S/m	uncertainty
0	293.15	0	9.29e-05	5.6e-06
0	293.15	0.00028	0.00222	0.00014
0	293.15	0.00051	0.00405	0.00026
0	293.15	0.00064	0.00497	0.00031
0	293.15	0.0008	0.00622	0.00039
0	293.15	0.00097	0.0074	0.00046
0	293.15	0.00118	0.00888	0.00056
0	293.15	0.00137	0.01017	0.00063
0	293.15	0.00156	0.011	0.00068
0	293.15	0.00173	0.01186	0.00073
0	293.15	0.00189	0.01252	0.00077
0	293.15	0.00209	0.01325	0.00081
0	293.15	0.00226	0.01391	0.00085
0	293.15	0.00239	0.01436	0.00088
0	293.15	0.00251	0.01479	0.0009
0	293.15	0.00265	0.01527	0.00093
0	298.15	0	0.0001095	6.6e-06
0	298.15	0.00028	0.00244	0.00015
0	298.15	0.00051	0.00445	0.00028
0	298.15	0.00064	0.00547	0.00035
0	298.15	0.0008	0.00685	0.00043
0	298.15	0.00097	0.00815	0.00051
0	298.15	0.00118	0.00977	0.00061
0	298.15	0.00137	0.01124	0.0007
0	298.15	0.00156	0.01215	0.00075
0	298.15	0.00173	0.01321	0.00082
0	298.15	0.00189	0.01395	0.00085
0	298.15	0.00209	0.01477	0.0009
0	298.15	0.00226	0.0155	0.00095
0	298.15	0.00239	0.01602	0.00098
0	298.15	0.00251	0.01649	0.00101
0	298.15	0.00265	0.01707	0.00105
0	303.15	0	0.0001199	7.2e-06
0	303.15	0.00028	0.00269	0.00017
0	303.15	0.00051	0.00489	0.00031
0	303.15	0.00064	0.006	0.00038
0	303.15	0.0008	0.00752	0.00047
0	303.15	0.00097	0.00894	0.00056
0	303.15	0.00118	0.01073	0.00067
0	303.15	0.00137	0.01237	0.00077
0	303.15	0.00156	0.01364	0.00084
0	303.15	0.00173	0.01468	0.0009
0	303.15	0.00189	0.0155	0.00095
0	303.15	0.00209	0.01645	0.00101
0	303.15	0.00226	0.01724	0.00106
0	303.15	0.00239	0.01784	0.00109
0	303.15	0.00251	0.01838	0.00113
0	303.15	0.00265	0.01907	0.00119
0	308.15	0	0.0001309	7.9e-06
0	308.15	0.00028	0.00295	0.00019
0	308.15	0.00051	0.00537	0.00034
0	308.15	0.00064	0.00659	0.00042
0	308.15	0.0008	0.00827	0.00052
0	308.15	0.00097	0.00983	0.00062
0	308.15	0.00118	0.01178	0.00074
0	308.15	0.00137	0.01363	0.00085
0	308.15	0.00156	0.01516	0.00094
0	308.15	0.00173	0.01641	0.00101
0	308.15	0.00189	0.01736	0.00106
0	308.15	0.00209	0.01845	0.00113
0	308.15	0.00226	0.01955	0.00121
0	308.15	0.00239	0.0203	0.0012
0	308.15	0.00251	0.0209	0.0013
0	308.15	0.00265	0.0217	0.0013
0	313.15	0	0.0001407	8.4e-06
0	313.15	0.00028	0.00316	0.0002
0	313.15	0.00051	0.00572	0.00036
0	313.15	0.00064	0.00726	0.00046
0	313.15	0.0008	0.00889	0.00056
0	313.15	0.00097	0.01069	0.00067
0	313.15	0.00118	0.01282	0.00081
0	313.15	0.00137	0.01477	0.00093
0	313.15	0.00156	0.0165	0.00103
0	313.15	0.00173	0.01802	0.00112
0	313.15	0.00189	0.01916	0.00118
0	313.15	0.00209	0.0205	0.0013
0	313.15	0.00226	0.0216	0.0013
0	313.15	0.00239	0.0223	0.0014
0	313.15	0.00251	0.0233	0.0014
0	313.15	0.00265	0.0242	0.0015
0.05	293.15	0	0.000603	3.7e-05
0.05	293.15	0.00028	0.00266	0.00017
0.05	293.15	0.00046	0.00407	0.00025
0.05	293.15	0.00065	0.00548	0.00034
0.05	293.15	0.00084	0.00692	0.00043
0.05	293.15	0.00102	0.00827	0.00052
0.05	293.15	0.00124	0.00974	0.0006
0.05	293.15	0.00144	0.01078	0.00066
0.05	293.15	0.00164	0.01163	0.00071
0.05	293.15	0.00182	0.01235	0.00076
0.05	293.15	0.00199	0.01302	0.0008
0.05	293.15	0.00219	0.01377	0.00084
0.05	293.15	0.00239	0.01445	0.00088
0.05	293.15	0.00256	0.01511	0.00093
0.05	293.15	0.0027	0.01559	0.00095
0.05	293.15	0.00279	0.01591	0.00102
0.05	298.15	0	0.000676	4.2e-05
0.05	298.15	0.00028	0.00294	0.00018
0.05	298.15	0.00046	0.00451	0.00028
0.05	298.15	0.00065	0.00606	0.00038
0.05	298.15	0.00084	0.00765	0.00048
0.05	298.15	0.00102	0.00914	0.00057
0.05	298.15	0.00124	0.01077	0.00067
0.05	298.15	0.00144	0.01201	0.00074
0.05	298.15	0.00164	0.01296	0.0008
0.05	298.15	0.00182	0.01382	0.00085
0.05	298.15	0.00199	0.01454	0.0009
0.05	298.15	0.00219	0.01544	0.00094
0.05	298.15	0.00239	0.01617	0.00099
0.05	298.15	0.00256	0.01693	0.00104
0.05	298.15	0.0027	0.01748	0.00107
0.05	298.15	0.00279	0.01783	0.00116
0.05	303.15	0	0.000753	4.7e-05
0.05	303.15	0.00028	0.00324	0.0002
0.05	303.15	0.00046	0.00499	0.00031
0.05	303.15	0.00065	0.0067	0.00042
0.05	303.15	0.00084	0.00843	0.00053
0.05	303.15	0.00102	0.01006	0.00063
0.05	303.15	0.00124	0.0119	0.00074
0.05	303.15	0.00144	0.01338	0.00083
0.05	303.15	0.00164	0.01449	0.00089
0.05	303.15	0.00182	0.01543	0.00094
0.05	303.15	0.00199	0.01623	0.001
0.05	303.15	0.00219	0.01726	0.00105
0.05	303.15	0.00239	0.01808	0.0011
0.05	303.15	0.00256	0.01894	0.00116
0.05	303.15	0.0027	0.01954	0.00119
0.05	303.15	0.00279	0.01992	0.0013
0.05	308.15	0	0.000843	5.2e-05
0.05	308.15	0.00028	0.00359	0.00022
0.05	308.15	0.00046	0.00551	0.00034
0.05	308.15	0.00065	0.00741	0.00046
0.05	308.15	0.00084	0.00931	0.00058
0.05	308.15	0.00102	0.01109	0.0007
0.05	308.15	0.00124	0.01318	0.00083
0.05	308.15	0.00144	0.01495	0.00093
0.05	308.15	0.00164	0.01625	0.001
0.05	308.15	0.00182	0.01737	0.00106
0.05	308.15	0.00199	0.01829	0.00113
0.05	308.15	0.00219	0.01945	0.00118
0.05	308.15	0.00239	0.0203	0.0012
0.05	308.15	0.00256	0.0211	0.0013
0.05	308.15	0.0027	0.0217	0.0013
0.05	308.15	0.00279	0.0222	0.0014
0.05	313.15	0	0.000936	5.8e-05
0.05	313.15	0.00028	0.00394	0.00024
0.05	313.15	0.00046	0.00605	0.00038
0.05	313.15	0.00065	0.00811	0.00051
0.05	313.15	0.00084	0.0102	0.00064
0.05	313.15	0.00102	0.01215	0.00076
0.05	313.15	0.00124	0.01446	0.00091
0.05	313.15	0.00144	0.01652	0.00103
0.05	313.15	0.00164	0.01809	0.00112
0.05	313.15	0.00182	0.0192	0.00117
0.05	313.15	0.00199	0.0203	0.0013
0.05	313.15	0.00219	0.0215	0.0013
0.05	313.15	0.00239	0.0224	0.0014
0.05	313.15	0.00256	0.0233	0.0014
0.05	313.15	0.0027	0.0242	0.0015
0.05	313.15	0.00279	0.0246	0.0015
0.1002	293.15	0	0.00099	6.1e-05
0.1002	293.15	0.00027	0.00283	0.00017
0.1002	293.15	0.00045	0.00409	0.00025
0.1002	293.15	0.00065	0.00551	0.00034
0.1002	293.15	0.00081	0.00661	0.00041
0.1002	293.15	0.00098	0.00777	0.00048
0.1002	293.15	0.00119	0.00909	0.00056
0.1002	293.15	0.00139	0.01016	0.00063
0.1002	293.15	0.00157	0.01101	0.00067
0.1002	293.15	0.00174	0.01149	0.0007
0.1002	293.15	0.0019	0.01209	0.00074
0.1002	293.15	0.00209	0.01278	0.00078
0.1002	293.15	0.00227	0.01341	0.00082
0.1002	293.15	0.00244	0.01401	0.00086
0.1002	293.15	0.00259	0.01455	0.00089
0.1002	293.15	0.00277	0.01514	0.00093
0.1002	298.15	0	0.001111	6.9e-05
0.1002	298.15	0.00027	0.00314	0.00019
0.1002	298.15	0.00045	0.00452	0.00028
0.1002	298.15	0.00065	0.00608	0.00038
0.1002	298.15	0.00081	0.00731	0.00046
0.1002	298.15	0.00098	0.0086	0.00054
0.1002	298.15	0.00119	0.01008	0.00062
0.1002	298.15	0.00139	0.01124	0.00069
0.1002	298.15	0.00157	0.01216	0.00074
0.1002	298.15	0.00174	0.01287	0.00079
0.1002	298.15	0.0019	0.01351	0.00083
0.1002	298.15	0.00209	0.01431	0.00088
0.1002	298.15	0.00227	0.01501	0.00092
0.1002	298.15	0.00244	0.01568	0.00096
0.1002	298.15	0.00259	0.01627	0.001
0.1002	298.15	0.00277	0.01696	0.00104
0.1002	303.15	0	0.00134	8.3e-05
0.1002	303.15	0.00027	0.00358	0.00022
0.1002	303.15	0.00045	0.0051	0.00032
0.1002	303.15	0.00065	0.00678	0.00042
0.1002	303.15	0.00081	0.00817	0.00051
0.1002	303.15	0.00098	0.00959	0.0006
0.1002	303.15	0.00119	0.01125	0.0007
0.1002	303.15	0.00139	0.01259	0.00078
0.1002	303.15	0.00157	0.01362	0.00083
0.1002	303.15	0.00174	0.01447	0.00088
0.1002	303.15	0.0019	0.01522	0.00093
0.1002	303.15	0.00209	0.01612	0.00099
0.1002	303.15	0.00227	0.01687	0.00103
0.1002	303.15	0.00244	0.0177	0.00108
0.1002	303.15	0.00259	0.01829	0.00112
0.1002	303.15	0.00277	0.019	0.00116
0.1002	308.15	0	0.001493	9.3e-05
0.1002	308.15	0.00027	0.00397	0.00024
0.1002	308.15	0.00045	0.00565	0.00035
0.1002	308.15	0.00065	0.0075	0.00047
0.1002	308.15	0.00081	0.00904	0.00056
0.1002	308.15	0.00098	0.01061	0.00066
0.1002	308.15	0.00119	0.01249	0.00078
0.1002	308.15	0.00139	0.01406	0.00087
0.1002	308.15	0.00157	0.01527	0.00094
0.1002	308.15	0.00174	0.01623	0.00099
0.1002	308.15	0.0019	0.01712	0.00105
0.1002	308.15	0.00209	0.01814	0.00111
0.1002	308.15	0.00227	0.01901	0.00116
0.1002	308.15	0.00244	0.01987	0.00121
0.1002	308.15	0.00259	0.0205	0.0012
0.1002	308.15	0.00277	0.0212	0.0013
0.1002	313.15	0	0.001652	0.000103
0.1002	313.15	0.00027	0.00436	0.00027
0.1002	313.15	0.00045	0.00621	0.00038
0.1002	313.15	0.00065	0.00823	0.00051
0.1002	313.15	0.00081	0.00992	0.00062
0.1002	313.15	0.00098	0.01162	0.00072
0.1002	313.15	0.00119	0.01372	0.00085
0.1002	313.15	0.00139	0.01552	0.00096
0.1002	313.15	0.00157	0.01698	0.00104
0.1002	313.15	0.00174	0.01807	0.00111
0.1002	313.15	0.0019	0.01916	0.00117
0.1002	313.15	0.00209	0.0201	0.0012
0.1002	313.15	0.00227	0.0208	0.0013
0.1002	313.15	0.00244	0.0217	0.0013
0.1002	313.15	0.00259	0.0225	0.0014
0.1002	313.15	0.00277	0.0233	0.0014

System: L-leucine + domiphen DL-mandelate + water; phases: Liquid
Fixed: Pressure, kPa = 101
Property: Mass density, kg/m3 (Liquid); method: Vibrating tube method
Solvent: Molality, mol/kg of domiphen DL-mandelate	Temperature, K	Molality, mol/kg of L-leucine	Mass density, kg/m3	uncertainty
0.005	293.15	0	998.41	0.31
0.005	293.15	0.01973	998.9	0.31
0.005	293.15	0.02944	999.14	0.31
0.005	293.15	0.03921	999.37	0.31
0.005	293.15	0.04904	999.61	0.31
0.005	293.15	0.05884	999.85	0.31
0.005	293.15	0.06912	1000.09	0.31
0.005	293.15	0.07886	1000.32	0.31
0.005	293.15	0.08884	1000.55	0.31
0.005	293.15	0.09889	1000.78	0.31
0.005	298.15	0	997.24	0.31
0.005	298.15	0.02944	997.95	0.31
0.005	298.15	0.03921	998.18	0.31
0.005	298.15	0.04904	998.41	0.31
0.005	298.15	0.05884	998.64	0.31
0.005	298.15	0.06912	998.87	0.31
0.005	298.15	0.07886	999.09	0.31
0.005	298.15	0.08884	999.31	0.31
0.005	298.15	0.09889	999.53	0.31
0.005	303.15	0	995.84	0.31
0.005	303.15	0.02944	996.54	0.31
0.005	303.15	0.03921	996.77	0.31
0.005	303.15	0.04904	996.99	0.31
0.005	303.15	0.05884	997.22	0.31
0.005	303.15	0.06912	997.45	0.31
0.005	303.15	0.07886	997.67	0.31
0.005	303.15	0.08884	997.89	0.31
0.005	303.15	0.09889	998.11	0.31
0.005	308.15	0	994.22	0.31
0.005	308.15	0.02944	994.91	0.31
0.005	308.15	0.03921	995.14	0.31
0.005	308.15	0.04904	995.36	0.31
0.005	308.15	0.05884	995.59	0.31
0.005	308.15	0.06912	995.83	0.31
0.005	308.15	0.07886	996.05	0.31
0.005	308.15	0.08884	996.27	0.31
0.005	308.15	0.09889	996.5	0.31
0.01	293.15	0	998.58	0.31
0.01	293.15	0.01011	998.83	0.31
0.01	293.15	0.01982	999.07	0.31
0.01	293.15	0.0296	999.3	0.31
0.01	293.15	0.03952	999.54	0.31
0.01	293.15	0.04938	999.77	0.31
0.01	293.15	0.0593	1000	0.31
0.01	293.15	0.06942	1000.24	0.31
0.01	293.15	0.0793	1000.46	0.31
0.01	293.15	0.08924	1000.69	0.31
0.01	293.15	0.09965	1000.93	0.31
0.01	298.15	0	997.39	0.31
0.01	298.15	0.01982	997.87	0.31
0.01	298.15	0.0296	998.1	0.31
0.01	298.15	0.03952	998.33	0.31
0.01	298.15	0.04938	998.57	0.31
0.01	298.15	0.0593	998.8	0.31
0.01	298.15	0.06942	999.03	0.31
0.01	298.15	0.0793	999.25	0.31
0.01	298.15	0.08924	999.48	0.31
0.01	298.15	0.09965	999.71	0.31
0.01	303.15	0	995.99	0.31
0.01	303.15	0.01011	996.23	0.31
0.01	303.15	0.01982	996.46	0.31
0.01	303.15	0.0296	996.69	0.31
0.01	303.15	0.03952	996.92	0.31
0.01	303.15	0.04938	997.15	0.31
0.01	303.15	0.0593	997.38	0.31
0.01	303.15	0.06942	997.61	0.31
0.01	303.15	0.0793	997.84	0.31
0.01	303.15	0.08924	998.06	0.31
0.01	303.15	0.09965	998.3	0.31
0.01	308.15	0	994.37	0.31
0.01	308.15	0.01982	994.83	0.31
0.01	308.15	0.03952	995.28	0.31
0.01	308.15	0.04938	995.51	0.31
0.01	308.15	0.0593	995.73	0.31
0.01	308.15	0.06942	995.96	0.31
0.01	308.15	0.0793	996.18	0.31
0.01	308.15	0.08924	996.4	0.31
0.01	308.15	0.09965	996.63	0.31

System: L-leucine + domiphen DL-mandelate + water; phases: Liquid
Fixed: Pressure, kPa = 101
Property: Electrical conductivity, S/m (Liquid); method: Direct current cell with electrodes
Solvent: Molality, mol/kg of L-leucine	Temperature, K	Molality, mol/kg of domiphen DL-mandelate	Electrical conductivity, S/m	uncertainty
0	293.15	0	9.29e-05	5.6e-06
0	293.15	0.00028	0.00222	0.00014
0	293.15	0.00051	0.00405	0.00026
0	293.15	0.00064	0.00497	0.00031
0	293.15	0.0008	0.00622	0.00039
0	293.15	0.00097	0.0074	0.00046
0	293.15	0.00118	0.00888	0.00056
0	293.15	0.00137	0.01017	0.00063
0	293.15	0.00156	0.011	0.00068
0	293.15	0.00173	0.01186	0.00073
0	293.15	0.00189	0.01252	0.00077
0	293.15	0.00209	0.01325	0.00081
0	293.15	0.00226	0.01391	0.00085
0	293.15	0.00239	0.01436	0.00088
0	293.15	0.00251	0.01479	0.0009
0	293.15	0.00265	0.01527	0.00093
0	298.15	0	0.0001095	6.6e-06
0	298.15	0.00028	0.00244	0.00015
0	298.15	0.00051	0.00445	0.00028
0	298.15	0.00064	0.00547	0.00035
0	298.15	0.0008	0.00685	0.00043
0	298.15	0.00097	0.00815	0.00051
0	298.15	0.00118	0.00977	0.00061
0	298.15	0.00137	0.01124	0.0007
0	298.15	0.00156	0.01215	0.00075
0	298.15	0.00173	0.01321	0.00082
0	298.15	0.00189	0.01395	0.00085
0	298.15	0.00209	0.01477	0.0009
0	298.15	0.00226	0.0155	0.00095
0	298.15	0.00239	0.01602	0.00098
0	298.15	0.00251	0.01649	0.00101
0	298.15	0.00265	0.01707	0.00105
0	303.15	0	0.0001199	7.2e-06
0	303.15	0.00028	0.00269	0.00017
0	303.15	0.00051	0.00489	0.00031
0	303.15	0.00064	0.006	0.00038
0	303.15	0.0008	0.00752	0.00047
0	303.15	0.00097	0.00894	0.00056
0	303.15	0.00118	0.01073	0.00067
0	303.15	0.00137	0.01237	0.00077
0	303.15	0.00156	0.01364	0.00084
0	303.15	0.00173	0.01468	0.0009
0	303.15	0.00189	0.0155	0.00095
0	303.15	0.00209	0.01645	0.00101
0	303.15	0.00226	0.01724	0.00106
0	303.15	0.00239	0.01784	0.00109
0	303.15	0.00251	0.01838	0.00113
0	303.15	0.00265	0.01907	0.00119
0	308.15	0	0.0001309	7.9e-06
0	308.15	0.00028	0.00295	0.00019
0	308.15	0.00051	0.00537	0.00034
0	308.15	0.00064	0.00659	0.00042
0	308.15	0.0008	0.00827	0.00052
0	308.15	0.00097	0.00983	0.00062
0	308.15	0.00118	0.01178	0.00074
0	308.15	0.00137	0.01363	0.00085
0	308.15	0.00156	0.01516	0.00094
0	308.15	0.00173	0.01641	0.00101
0	308.15	0.00189	0.01736	0.00106
0	308.15	0.00209	0.01845	0.00113
0	308.15	0.00226	0.01955	0.00121
0	308.15	0.00239	0.0203	0.0012
0	308.15	0.00251	0.0209	0.0013
0	308.15	0.00265	0.0217	0.0013
0	313.15	0	0.0001407	8.4e-06
0	313.15	0.00028	0.00316	0.0002
0	313.15	0.00051	0.00572	0.00036
0	313.15	0.00064	0.00726	0.00046
0	313.15	0.0008	0.00889	0.00056
0	313.15	0.00097	0.01069	0.00067
0	313.15	0.00118	0.01282	0.00081
0	313.15	0.00137	0.01477	0.00093
0	313.15	0.00156	0.0165	0.00103
0	313.15	0.00173	0.01802	0.00112
0	313.15	0.00189	0.01916	0.00118
0	313.15	0.00209	0.0205	0.0013
0	313.15	0.00226	0.0216	0.0013
0	313.15	0.00239	0.0223	0.0014
0	313.15	0.00251	0.0233	0.0014
0	313.15	0.00265	0.0242	0.0015
0.0499	293.15	0	0.001098	6.8e-05
0.0499	293.15	0.00027	0.00312	0.00019
0.0499	293.15	0.00045	0.00448	0.00028
0.0499	293.15	0.00064	0.00585	0.00036
0.0499	293.15	0.00081	0.00714	0.00045
0.0499	293.15	0.00097	0.00836	0.00052
0.0499	293.15	0.00118	0.0098	0.00061
0.0499	293.15	0.00138	0.01083	0.00066
0.0499	293.15	0.00156	0.01165	0.00071
0.0499	293.15	0.00174	0.01235	0.00076
0.0499	293.15	0.0019	0.01298	0.0008
0.0499	293.15	0.00209	0.0137	0.00084
0.0499	293.15	0.00227	0.01435	0.00088
0.0499	293.15	0.00244	0.01502	0.00092
0.0499	293.15	0.00271	0.0159	0.00096
0.0499	298.15	0	0.001185	7.4e-05
0.0499	298.15	0.00027	0.00342	0.00021
0.0499	298.15	0.00045	0.00492	0.0003
0.0499	298.15	0.00064	0.00646	0.0004
0.0499	298.15	0.00081	0.00785	0.00049
0.0499	298.15	0.00097	0.0092	0.00057
0.0499	298.15	0.00118	0.0108	0.00067
0.0499	298.15	0.00138	0.01204	0.00074
0.0499	298.15	0.00156	0.01299	0.0008
0.0499	298.15	0.00174	0.01378	0.00084
0.0499	298.15	0.0019	0.01448	0.00089
0.0499	298.15	0.00209	0.01532	0.00094
0.0499	298.15	0.00227	0.01601	0.00098
0.0499	298.15	0.00244	0.01678	0.00103
0.0499	298.15	0.00271	0.0178	0.00108
0.0499	303.15	0	0.001376	8.5e-05
0.0499	303.15	0.00027	0.00384	0.00024
0.0499	303.15	0.00045	0.00548	0.00034
0.0499	303.15	0.00064	0.00718	0.00045
0.0499	303.15	0.00081	0.00872	0.00055
0.0499	303.15	0.00097	0.0102	0.00064
0.0499	303.15	0.00118	0.012	0.00075
0.0499	303.15	0.00138	0.01344	0.00083
0.0499	303.15	0.00156	0.01452	0.00089
0.0499	303.15	0.00174	0.01545	0.00095
0.0499	303.15	0.0019	0.01628	0.001
0.0499	303.15	0.00209	0.01719	0.00105
0.0499	303.15	0.00227	0.01784	0.0011
0.0499	303.15	0.00244	0.01883	0.00116
0.0499	303.15	0.00271	0.02	0.0012
0.0499	308.15	0	0.001482	9.2e-05
0.0499	308.15	0.00027	0.0042	0.00026
0.0499	308.15	0.00045	0.00602	0.00037
0.0499	308.15	0.00064	0.00788	0.00049
0.0499	308.15	0.00081	0.00958	0.0006
0.0499	308.15	0.00097	0.01121	0.0007
0.0499	308.15	0.00118	0.01324	0.00083
0.0499	308.15	0.00138	0.01495	0.00093
0.0499	308.15	0.00156	0.01628	0.001
0.0499	308.15	0.00174	0.01733	0.00106
0.0499	308.15	0.0019	0.01825	0.00112
0.0499	308.15	0.00209	0.01929	0.00118
0.0499	308.15	0.00227	0.0201	0.0012
0.0499	308.15	0.00244	0.0209	0.0013
0.0499	308.15	0.00271	0.022	0.0013
0.0499	313.15	0	0.001662	0.000103
0.0499	313.15	0.00027	0.00463	0.00029
0.0499	313.15	0.00045	0.00663	0.00041
0.0499	313.15	0.00064	0.00866	0.00054
0.0499	313.15	0.00081	0.01052	0.00066
0.0499	313.15	0.00097	0.0123	0.00077
0.0499	313.15	0.00118	0.01455	0.00091
0.0499	313.15	0.00138	0.01653	0.00103
0.0499	313.15	0.00156	0.01808	0.00112
0.0499	313.15	0.00174	0.01933	0.00119
0.0499	313.15	0.0019	0.0204	0.0012
0.0499	313.15	0.00209	0.0213	0.0013
0.0499	313.15	0.00227	0.0222	0.0014
0.0499	313.15	0.00244	0.0233	0.0014
0.0499	313.15	0.00271	0.0243	0.0015
0.0997	293.15	0	0.001767	0.000109
0.0997	293.15	0.00023	0.00329	0.0002
0.0997	293.15	0.00044	0.00465	0.00029
0.0997	293.15	0.00061	0.00586	0.00036
0.0997	293.15	0.00077	0.00685	0.00042
0.0997	293.15	0.00093	0.00793	0.00049
0.0997	293.15	0.00113	0.00913	0.00056
0.0997	293.15	0.00132	0.01011	0.00062
0.0997	293.15	0.00149	0.011	0.00067
0.0997	293.15	0.00166	0.01154	0.0007
0.0997	293.15	0.00183	0.01214	0.00074
0.0997	293.15	0.00202	0.01281	0.00078
0.0997	293.15	0.0022	0.01345	0.00082
0.0997	293.15	0.00237	0.01404	0.00086
0.0997	293.15	0.00256	0.01465	0.00089
0.0997	293.15	0.00272	0.01513	0.00092
0.0997	298.15	0	0.001996	0.000124
0.0997	298.15	0.00023	0.00367	0.00022
0.0997	298.15	0.00044	0.00518	0.00032
0.0997	298.15	0.00061	0.00649	0.0004
0.0997	298.15	0.00077	0.00762	0.00047
0.0997	298.15	0.00093	0.00882	0.00055
0.0997	298.15	0.00113	0.01017	0.00063
0.0997	298.15	0.00132	0.01129	0.00069
0.0997	298.15	0.00149	0.01217	0.00074
0.0997	298.15	0.00166	0.01292	0.00079
0.0997	298.15	0.00183	0.0136	0.00083
0.0997	298.15	0.00202	0.01438	0.00088
0.0997	298.15	0.0022	0.01509	0.00092
0.0997	298.15	0.00237	0.01577	0.00096
0.0997	298.15	0.00256	0.01644	0.001
0.0997	298.15	0.00272	0.017	0.00104
0.0997	303.15	0	0.00229	0.00014
0.0997	303.15	0.00023	0.00412	0.00025
0.0997	303.15	0.00044	0.00578	0.00035
0.0997	303.15	0.00061	0.00723	0.00045
0.0997	303.15	0.00077	0.00848	0.00052
0.0997	303.15	0.00093	0.00979	0.00061
0.0997	303.15	0.00113	0.0113	0.0007
0.0997	303.15	0.00132	0.01262	0.00078
0.0997	303.15	0.00149	0.01365	0.00084
0.0997	303.15	0.00166	0.01451	0.00089
0.0997	303.15	0.00183	0.01526	0.00093
0.0997	303.15	0.00202	0.01615	0.00099
0.0997	303.15	0.0022	0.01695	0.00104
0.0997	303.15	0.00237	0.01769	0.00108
0.0997	303.15	0.00256	0.01837	0.00112
0.0997	303.15	0.00272	0.01911	0.00118
0.0997	308.15	0	0.00253	0.00016
0.0997	308.15	0.00023	0.00457	0.00028
0.0997	308.15	0.00044	0.00641	0.00039
0.0997	308.15	0.00061	0.008	0.00049
0.0997	308.15	0.00077	0.00939	0.00058
0.0997	308.15	0.00093	0.01083	0.00067
0.0997	308.15	0.00113	0.01253	0.00077
0.0997	308.15	0.00132	0.01406	0.00087
0.0997	308.15	0.00149	0.01527	0.00094
0.0997	308.15	0.00166	0.01625	0.00099
0.0997	308.15	0.00183	0.01714	0.00105
0.0997	308.15	0.00202	0.01815	0.00111
0.0997	308.15	0.0022	0.01908	0.00117
0.0997	308.15	0.00237	0.0199	0.00121
0.0997	308.15	0.00256	0.0206	0.0013
0.0997	308.15	0.00272	0.0214	0.0013
0.0997	313.15	0	0.00276	0.00017
0.0997	313.15	0.00023	0.005	0.0003
0.0997	313.15	0.00044	0.00701	0.00043
0.0997	313.15	0.00061	0.00875	0.00054
0.0997	313.15	0.00077	0.01027	0.00063
0.0997	313.15	0.00093	0.01184	0.00073
0.0997	313.15	0.00113	0.01375	0.00085
0.0997	313.15	0.00132	0.01548	0.00096
0.0997	313.15	0.00149	0.01691	0.00104
0.0997	313.15	0.00166	0.01808	0.00111
0.0997	313.15	0.00183	0.01912	0.00117
0.0997	313.15	0.00202	0.0202	0.0012
0.0997	313.15	0.0022	0.0212	0.0013
0.0997	313.15	0.00237	0.022	0.0013
0.0997	313.15	0.00256	0.0229	0.0014
0.0997	313.15	0.00272	0.0238	0.0015

System: domiphen DL-mandelate + water; phases: Liquid
Fixed: Pressure, kPa = 101
Property: Mass density, kg/m3 (Liquid); method: Vibrating tube method
Molality, mol/kg of domiphen DL-mandelate	Temperature, K	Mass density, kg/m3	uncertainty
0.005	293.15	998.41	0.2
0.005	298.15	997.24	0.2
0.005	303.15	995.84	0.2
0.005	308.15	994.22	0.2
0.01	293.15	998.56	0.2
0.01	298.15	997.38	0.2
0.01	303.15	995.99	0.2
0.01	308.15	994.37	0.2
0.005	298.15	997.23	0.2
0.01	293.15	998.57	0.2
0.01	298.15	997.4	0.2
0.01	308.15	994.38	0.2
0.005	303.15	995.85	0.2
0.005	308.15	994.23	0.2
0.01	293.15	998.58	0.2
0.01	298.15	997.42	0.2
0.01	303.15	996	0.2
0.01	298.15	997.39	0.2

System: domiphen DL-mandelate + water; phases: Liquid
Fixed: Pressure, kPa = 101
Property: Electrical conductivity, S/m (Liquid); method: Direct current cell with electrodes
Temperature, K	Molality, mol/kg of domiphen DL-mandelate	Electrical conductivity, S/m	uncertainty
293.15	0.00028	0.00222	0.00014
293.15	0.00051	0.00405	0.00026
293.15	0.00064	0.00497	0.00031
293.15	0.0008	0.00622	0.00039
293.15	0.00097	0.0074	0.00046
293.15	0.00118	0.00888	0.00056
293.15	0.00137	0.01017	0.00063
293.15	0.00156	0.011	0.00068
293.15	0.00173	0.01186	0.00073
293.15	0.00189	0.01252	0.00077
293.15	0.00209	0.01325	0.00081
293.15	0.00226	0.01391	0.00085
293.15	0.00239	0.01436	0.00088
293.15	0.00251	0.01479	0.0009
293.15	0.00265	0.01527	0.00093
298.15	0.00028	0.00244	0.00015
298.15	0.00051	0.00445	0.00028
298.15	0.00064	0.00547	0.00035
298.15	0.0008	0.00685	0.00043
298.15	0.00097	0.00815	0.00051
298.15	0.00118	0.00977	0.00061
298.15	0.00137	0.01124	0.0007
298.15	0.00156	0.01215	0.00075
298.15	0.00173	0.01321	0.00082
298.15	0.00189	0.01395	0.00085
298.15	0.00209	0.01477	0.0009
298.15	0.00226	0.0155	0.00095
298.15	0.00239	0.01602	0.00098
298.15	0.00251	0.01649	0.00101
298.15	0.00265	0.01707	0.00105
303.15	0.00028	0.00269	0.00017
303.15	0.00051	0.00489	0.00031
303.15	0.00064	0.006	0.00038
303.15	0.0008	0.00752	0.00047
303.15	0.00097	0.00894	0.00056
303.15	0.00118	0.01073	0.00067
303.15	0.00137	0.01237	0.00077
303.15	0.00156	0.01364	0.00084
303.15	0.00173	0.01468	0.0009
303.15	0.00189	0.0155	0.00095
303.15	0.00209	0.01645	0.00101
303.15	0.00226	0.01724	0.00106
303.15	0.00239	0.01784	0.00109
303.15	0.00251	0.01838	0.00113
303.15	0.00265	0.01907	0.00119
308.15	0.00028	0.00295	0.00019
308.15	0.00051	0.00537	0.00034
308.15	0.00064	0.00659	0.00042
308.15	0.0008	0.00827	0.00052
308.15	0.00097	0.00983	0.00062
308.15	0.00118	0.01178	0.00074
308.15	0.00137	0.01363	0.00085
308.15	0.00156	0.01516	0.00094
308.15	0.00173	0.01641	0.00101
308.15	0.00189	0.01736	0.00106
308.15	0.00209	0.01845	0.00113
308.15	0.00226	0.01955	0.00121
308.15	0.00239	0.0203	0.0012
308.15	0.00251	0.0209	0.0013
308.15	0.00265	0.0217	0.0013
313.15	0.00028	0.00316	0.0002
313.15	0.00051	0.00572	0.00036
313.15	0.00064	0.00726	0.00046
313.15	0.0008	0.00889	0.00056
313.15	0.00097	0.01069	0.00067
313.15	0.00118	0.01282	0.00081
313.15	0.00137	0.01477	0.00093
313.15	0.00156	0.0165	0.00103
313.15	0.00173	0.01802	0.00112
313.15	0.00189	0.01916	0.00118
313.15	0.00209	0.0205	0.0013
313.15	0.00226	0.0216	0.0013
313.15	0.00239	0.0223	0.0014
313.15	0.00251	0.0233	0.0014
313.15	0.00265	0.0242	0.0015
293.15	0	9.29e-05	5.6e-06
298.15	0	0.0001095	6.6e-06
303.15	0	0.0001199	7.2e-06
308.15	0	0.0001309	7.9e-06
313.15	0	0.0001407	8.4e-06

System: 2-aminoacetic acid + water; phases: Liquid
Fixed: Pressure, kPa = 101
Property: Electrical conductivity, S/m (Liquid); method: Direct current cell with electrodes
Molality, mol/kg of 2-aminoacetic acid	Temperature, K	Electrical conductivity, S/m	uncertainty
0.05	293.15	0.000373	2.4e-05
0.05	298.15	0.000407	2.6e-05
0.05	303.15	0.000444	2.8e-05
0.05	308.15	0.000487	3e-05
0.05	313.15	0.000536	3.3e-05
0.0999	293.15	0.000835	5.3e-05
0.0999	298.15	0.000882	5.6e-05
0.0999	303.15	0.000934	5.9e-05
0.0999	308.15	0.001	6e-05
0.0999	313.15	0.00107	7e-05
0	293.15	9.29e-05	5.6e-06
0	298.15	0.0001095	6.6e-06
0	303.15	0.0001199	7.2e-06
0	308.15	0.0001309	7.9e-06
0	313.15	0.0001407	8.4e-06

System: 2-aminoacetic acid + water; phases: Liquid
Fixed: Pressure, kPa = 101
Property: Mass density, kg/m3 (Liquid); method: Vibrating tube method
Molality, mol/kg of 2-aminoacetic acid	Temperature, K	Mass density, kg/m3	uncertainty
0	293.15	998.23	0.21
0.03195	293.15	999.25	0.2
0.05964	293.15	1000.14	0.21
0.1006	293.15	1001.44	0.21
0.1521	293.15	1003.04	0.22
0.20381	293.15	1004.64	0.24
0.25691	293.15	1006.28	0.26
0.30261	293.15	1007.7	0.27
0.35132	293.15	1009.15	0.29
0.45012	293.15	1012.02	0.33
0	298.15	997.04	0.21
0.03195	298.15	998.05	0.2
0.05964	298.15	998.92	0.21
0.1006	298.15	1000.2	0.21
0.1521	298.15	1001.8	0.22
0.20381	298.15	1003.4	0.24
0.25691	298.15	1005.03	0.26
0.30261	298.15	1006.39	0.27
0.35132	298.15	1007.85	0.29
0.45012	298.15	1010.74	0.33
0	303.15	995.66	0.21
0.03195	303.15	996.67	0.2
0.05964	303.15	997.53	0.21
0.1006	303.15	998.81	0.21
0.1521	303.15	1000.4	0.22
0.20381	303.15	1001.99	0.24
0.25691	303.15	1003.56	0.25
0.30261	303.15	1004.91	0.27
0.35132	303.15	1006.32	0.29
0.45012	303.15	1009.16	0.33
0	308.15	994.03	0.21
0.03195	308.15	995.03	0.2
0.05964	308.15	995.89	0.21
0.1006	308.15	997.15	0.21
0.1521	308.15	998.73	0.22
0.20381	308.15	1000.3	0.24
0.25691	308.15	1001.9	0.26
0.30261	308.15	1003.27	0.27
0.35132	308.15	1004.65	0.29
0.45012	308.15	1007.52	0.33

System: (S)-2-aminopropanoic acid + water; phases: Liquid
Fixed: Pressure, kPa = 101
Property: Electrical conductivity, S/m (Liquid); method: Direct current cell with electrodes
Molality, mol/kg of (S)-2-aminopropanoic acid	Temperature, K	Electrical conductivity, S/m	uncertainty
0.0499	293.15	0.000248	1.5e-05
0.0499	298.15	0.000281	1.7e-05
0.0499	303.15	0.000316	1.9e-05
0.0499	308.15	0.000356	2.2e-05
0.0499	313.15	0.0004	2.4e-05
0.1004	293.15	0.000309	1.9e-05
0.1004	298.15	0.000356	2.2e-05
0.1004	303.15	0.000408	2.5e-05
0.1004	308.15	0.00047	2.9e-05
0.1004	313.15	0.00054	3.3e-05
0	293.15	9.29e-05	5.6e-06
0	298.15	0.0001095	6.6e-06
0	303.15	0.0001199	7.2e-06
0	308.15	0.0001309	7.9e-06
0	313.15	0.0001407	8.4e-06

System: (S)-2-aminopropanoic acid + water; phases: Liquid
Fixed: Pressure, kPa = 101
Property: Mass density, kg/m3 (Liquid); method: Vibrating tube method
Molality, mol/kg of (S)-2-aminopropanoic acid	Temperature, K	Mass density, kg/m3	uncertainty
0	293.15	998.24	0.21
0.05894	293.15	999.95	0.21
0.07916	293.15	1000.53	0.21
0.09862	293.15	1001.09	0.21
0.11858	293.15	1001.66	0.21
0.13862	293.15	1002.23	0.22
0.15843	293.15	1002.8	0.22
0.17826	293.15	1003.38	0.23
0.19883	293.15	1003.94	0.23
0	298.15	997.06	0.21
0.05894	298.15	998.76	0.21
0.07916	298.15	999.34	0.21
0.09862	298.15	999.9	0.21
0.11858	298.15	1000.48	0.21
0.13862	298.15	1001.05	0.22
0.15843	298.15	1001.62	0.22
0.17826	298.15	1002.18	0.23
0.19883	298.15	1002.76	0.22
0	303.15	995.66	0.21
0.05894	303.15	997.33	0.21
0.07916	303.15	997.9	0.21
0.09862	303.15	998.45	0.21
0.11858	303.15	999	0.21
0.13862	303.15	999.56	0.22
0.15843	303.15	1000.12	0.22
0.17826	303.15	1000.68	0.22
0.19883	303.15	1001.2	0.23
0	308.15	994.07	0.21
0.05894	308.15	995.72	0.21
0.07916	308.15	996.28	0.21
0.09862	308.15	996.84	0.21
0.11858	308.15	997.39	0.21
0.13862	308.15	997.96	0.22
0.15843	308.15	998.51	0.22
0.17826	308.15	999.06	0.23
0.19883	308.15	999.64	0.23

System: L-valine + water; phases: Liquid
Fixed: Pressure, kPa = 101
Property: Electrical conductivity, S/m (Liquid); method: Direct current cell with electrodes
Molality, mol/kg of L-valine	Temperature, K	Electrical conductivity, S/m	uncertainty
0.05	293.15	0.000603	3.7e-05
0.05	298.15	0.000676	4.2e-05
0.05	303.15	0.000753	4.7e-05
0.05	308.15	0.000843	5.2e-05
0.05	313.15	0.000936	5.8e-05
0.1002	293.15	0.00099	6.1e-05
0.1002	298.15	0.001111	6.9e-05
0.1002	303.15	0.00134	8.3e-05
0.1002	308.15	0.001493	9.3e-05
0.1002	313.15	0.001652	0.000103
0	293.15	9.29e-05	5.6e-06
0	298.15	0.0001095	6.6e-06
0	303.15	0.0001199	7.2e-06
0	308.15	0.0001309	7.9e-06
0	313.15	0.0001407	8.4e-06

System: L-valine + water; phases: Liquid
Fixed: Pressure, kPa = 101
Property: Mass density, kg/m3 (Liquid); method: Vibrating tube method
Molality, mol/kg of L-valine	Temperature, K	Mass density, kg/m3	uncertainty
0	293.15	998.2	0.21
0.03912	293.15	999.26	0.2
0.05913	293.15	999.81	0.21
0.07854	293.15	1000.36	0.21
0.09849	293.15	1000.93	0.21
0.11849	293.15	1001.51	0.21
0.13784	293.15	1002.08	0.22
0.15771	293.15	1002.64	0.22
0.17773	293.15	1003.24	0.23
0.19883	293.15	1003.83	0.23
0	298.15	997.06	0.21
0.03912	298.15	998.11	0.2
0.05913	298.15	998.66	0.21
0.07854	298.15	999.22	0.21
0.09849	298.15	999.79	0.21
0.11849	298.15	1000.37	0.21
0.13784	298.15	1000.94	0.22
0.15771	298.15	1001.5	0.22
0.17773	298.15	1002.09	0.23
0.19883	298.15	1002.69	0.22
0	303.15	995.65	0.21
0.03912	303.15	996.69	0.2
0.05913	303.15	997.24	0.21
0.07854	303.15	997.76	0.21
0.09849	303.15	998.3	0.21
0.11849	303.15	998.85	0.21
0.13784	303.15	999.37	0.22
0.15771	303.15	999.93	0.22
0.17773	303.15	1000.49	0.23
0.19883	303.15	1001.07	0.23
0	308.15	994.05	0.21
0.03912	308.15	995.09	0.2
0.05913	308.15	995.62	0.21
0.07854	308.15	996.15	0.21
0.09849	308.15	996.69	0.21
0.11849	308.15	997.23	0.21
0.13784	308.15	997.75	0.22
0.15771	308.15	998.3	0.22
0.17773	308.15	998.84	0.22
0.19883	308.15	999.4	0.23

System: L-leucine + water; phases: Liquid
Fixed: Pressure, kPa = 101
Property: Electrical conductivity, S/m (Liquid); method: Direct current cell with electrodes
Molality, mol/kg of L-leucine	Temperature, K	Electrical conductivity, S/m	uncertainty
0.0499	293.15	0.001098	6.8e-05
0.0499	298.15	0.001185	7.4e-05
0.0499	303.15	0.001376	8.5e-05
0.0499	308.15	0.001482	9.2e-05
0.0499	313.15	0.001662	0.000103
0.0997	293.15	0.001767	0.000109
0.0997	298.15	0.001996	0.000124
0.0997	303.15	0.00229	0.00014
0.0997	308.15	0.00253	0.00016
0.0997	313.15	0.00276	0.00017
0	293.15	9.29e-05	5.6e-06
0	298.15	0.0001095	6.6e-06
0	303.15	0.0001199	7.2e-06
0	308.15	0.0001309	7.9e-06
0	313.15	0.0001407	8.4e-06

System: L-leucine + water; phases: Liquid
Fixed: Pressure, kPa = 101
Property: Mass density, kg/m3 (Liquid); method: Vibrating tube method
Molality, mol/kg of L-leucine	Temperature, K	Mass density, kg/m3	uncertainty
0	293.15	998.22	0.2
0.03002	293.15	998.95	0.2
0.03461	293.15	999.06	0.2
0.04958	293.15	999.41	0.2
0.08099	293.15	1000.16	0.21
0.1188	293.15	1001.07	0.21
0.1322	293.15	1001.39	0.21
0	298.15	997.05	0.21
0.03002	298.15	997.76	0.2
0.03461	298.15	997.87	0.2
0.04958	298.15	998.22	0.2
0.08099	298.15	998.96	0.21
0.1188	298.15	999.84	0.21
0.1322	298.15	1000.16	0.21
0	303.15	995.65	0.21
0.03002	303.15	996.35	0.2
0.03461	303.15	996.46	0.2
0.04958	303.15	996.81	0.2
0.08099	303.15	997.54	0.21
0.1188	303.15	998.42	0.21
0.1322	303.15	998.73	0.21
0	308.15	994.05	0.2
0.03002	308.15	994.75	0.2
0.03461	308.15	994.86	0.2
0.04958	308.15	995.2	0.2
0.08099	308.15	995.93	0.21
0.1188	308.15	996.8	0.21
0.1322	308.15	997.1	0.21
