Measured thermophysical data. Density, excess volume, and excess coefficient of thermal expansion of the binary systems of dimethyl carbonate with butyl methacrylate, allyl methacrylate, styrene, and vinyl acetate at T = (293.15, 303.15, and 313.15) K
Source: J. Chem. Thermodyn., 2008, 10.1016/j.jct.2008.06.017
Compound 1: dimethyl carbonate, C3H6O3, InChI=1S/C3H6O3/c1-5-3(4)6-2/h1-2H3, purity 99.95%
Compound 2: butyl 2-methyl-2-propenoate, C8H14O2, InChI=1S/C8H14O2/c1-4-5-6-10-8(9)7(2)3/h2,4-6H2,1,3H3, purity 99.5%
Compound 3: 2-propenyl 2-methylpropenoate, C7H10O2, InChI=1S/C7H10O2/c1-4-5-9-7(8)6(2)3/h4H,1-2,5H2,3H3, purity 99.3%
Compound 4: styrene, C8H8, InChI=1S/C8H8/c1-2-8-6-4-3-5-7-8/h2-7H,1H2, purity 99.9%
Compound 5: vinyl acetate, C4H6O2, InChI=1S/C4H6O2/c1-3-6-4(2)5/h3H,1H2,2H3, purity 99.9%

System: dimethyl carbonate; phases: Liquid, Air at 1 atmosphere
Property: Mass density, kg/m3 (Liquid); method: Vibrating tube method
Temperature, K	Mass density, kg/m3	uncertainty
293.15	1069.794	0.068
303.15	1056.75	0.064
313.15	1043.369	0.06

System: butyl 2-methyl-2-propenoate; phases: Liquid, Air at 1 atmosphere
Property: Mass density, kg/m3 (Liquid); method: Vibrating tube method
Temperature, K	Mass density, kg/m3	uncertainty
293.15	895.231	0.112
303.15	885.991	0.115
313.15	876.19	0.118

System: 2-propenyl 2-methylpropenoate; phases: Liquid, Air at 1 atmosphere
Property: Mass density, kg/m3 (Liquid); method: Vibrating tube method
Temperature, K	Mass density, kg/m3	uncertainty
293.15	932.965	0.142
303.15	922.525	0.144
313.15	912.072	0.146

System: styrene; phases: Liquid, Air at 1 atmosphere
Property: Mass density, kg/m3 (Liquid); method: Vibrating tube method
Temperature, K	Mass density, kg/m3	uncertainty
293.15	906.26	0.075
303.15	897.392	0.078
313.15	888.472	0.081

System: vinyl acetate; phases: Liquid, Air at 1 atmosphere
Property: Mass density, kg/m3 (Liquid); method: Vibrating tube method
Temperature, K	Mass density, kg/m3	uncertainty
293.15	931.95	0.068
303.15	919.089	0.072
313.15	906.116	0.076

System: butyl 2-methyl-2-propenoate + dimethyl carbonate; phases: Liquid, Air at 1 atmosphere
Property: Mass density, kg/m3 (Liquid); method: Vibrating tube method
Temperature, K	Mole fraction of dimethyl carbonate	Mass density, kg/m3	uncertainty
293.15	0	895.231	0.111
293.15	0.0253	897.401	0.11
293.15	0.0496	899.525	0.108
293.15	0.1	904.247	0.103
293.15	0.1512	909.195	0.099
293.15	0.2002	914.234	0.095
293.15	0.2501	919.652	0.092
293.15	0.3	925.514	0.088
293.15	0.3496	931.664	0.085
293.15	0.4002	938.381	0.082
293.15	0.45	945.36	0.079
293.15	0.4998	952.885	0.076
293.15	0.5499	960.906	0.074
293.15	0.6	969.499	0.071
293.15	0.6499	978.774	0.07
293.15	0.7003	988.865	0.069
293.15	0.7501	999.691	0.068
293.15	0.7998	1011.242	0.072
293.15	0.8502	1024.043	0.076
293.15	0.8997	1037.815	0.082
293.15	0.9499	1053.101	0.087
293.15	0.9747	1061.178	0.091
293.15	1	1069.794	0.067
303.15	0	885.991	0.114
303.15	0.0255	888.128	0.112
303.15	0.0511	890.378	0.11
303.15	0.0984	894.561	0.106
303.15	0.1496	899.445	0.101
303.15	0.1998	904.542	0.098
303.15	0.251	909.93	0.094
303.15	0.3	915.538	0.091
303.15	0.3498	921.462	0.087
303.15	0.4002	927.876	0.084
303.15	0.4505	934.768	0.081
303.15	0.5001	942.022	0.078
303.15	0.5497	949.757	0.076
303.15	0.6003	958.326	0.074
303.15	0.6507	967.581	0.072
303.15	0.7003	977.274	0.07
303.15	0.7503	987.854	0.069
303.15	0.8003	999.303	0.069
303.15	0.8497	1011.722	0.073
303.15	0.8997	1025.31	0.079
303.15	0.95	1040.302	0.083
303.15	0.9746	1048.258	0.088
303.15	1	1056.75	0.063
313.15	0	876.19	0.117
313.15	0.0248	878.23	0.115
313.15	0.0506	880.426	0.113
313.15	0.1009	884.856	0.109
313.15	0.1505	889.457	0.104
313.15	0.2003	894.361	0.1
313.15	0.2512	899.681	0.097
313.15	0.3005	905.153	0.093
313.15	0.3502	910.961	0.09
313.15	0.4009	917.353	0.087
313.15	0.4509	924.075	0.084
313.15	0.4999	931.103	0.081
313.15	0.5506	938.855	0.078
313.15	0.6	947.003	0.076
313.15	0.6502	955.954	0.074
313.15	0.7002	965.503	0.072
313.15	0.7503	975.976	0.071
313.15	0.7999	987.089	0.071
313.15	0.8501	999.417	0.071
313.15	0.8998	1012.692	0.076
313.15	0.9498	1027.299	0.08
313.15	0.9751	1035.147	0.085
313.15	1	1043.369	0.06

System: 2-propenyl 2-methylpropenoate + dimethyl carbonate; phases: Liquid, Air at 1 atmosphere
Property: Mass density, kg/m3 (Liquid); method: Vibrating tube method
Temperature, K	Mole fraction of dimethyl carbonate	Mass density, kg/m3	uncertainty
293.15	0	932.965	0.141
293.15	0.0254	935.07	0.137
293.15	0.0498	937.164	0.133
293.15	0.1006	941.619	0.125
293.15	0.1507	946.22	0.117
293.15	0.2	950.913	0.109
293.15	0.2505	955.966	0.102
293.15	0.2999	961.134	0.096
293.15	0.3499	966.623	0.09
293.15	0.4005	972.4	0.084
293.15	0.449	978.208	0.08
293.15	0.5	984.616	0.075
293.15	0.5499	991.215	0.071
293.15	0.5991	998.042	0.067
293.15	0.6502	1005.492	0.066
293.15	0.7	1013.175	0.067
293.15	0.7502	1021.341	0.068
293.15	0.8001	1029.9	0.069
293.15	0.8499	1039.003	0.071
293.15	0.9002	1048.706	0.074
293.15	0.9499	1058.874	0.076
293.15	0.975	1064.272	0.078
293.15	1	1069.794	0.067
303.15	0	922.525	0.143
303.15	0.0253	924.591	0.14
303.15	0.0501	926.656	0.136
303.15	0.101	931.041	0.127
303.15	0.15	935.458	0.12
303.15	0.1999	940.145	0.112
303.15	0.2505	945.101	0.105
303.15	0.2999	950.165	0.098
303.15	0.3499	955.527	0.092
303.15	0.4003	961.195	0.087
303.15	0.447	966.662	0.082
303.15	0.5001	973.205	0.077
303.15	0.5501	979.68	0.073
303.15	0.5994	986.387	0.069
303.15	0.6502	993.661	0.066
303.15	0.7001	1001.189	0.064
303.15	0.7503	1009.19	0.065
303.15	0.8001	1017.583	0.066
303.15	0.8499	1026.466	0.068
303.15	0.9002	1035.995	0.07
303.15	0.9499	1046.001	0.073
303.15	0.975	1051.3	0.075
303.15	1	1056.75	0.063
313.15	0	912.072	0.145
313.15	0.0247	914.028	0.142
313.15	0.0499	916.075	0.138
313.15	0.1002	920.29	0.13
313.15	0.1496	924.626	0.122
313.15	0.1997	929.2	0.115
313.15	0.2495	933.94	0.108
313.15	0.2999	938.979	0.101
313.15	0.3502	944.239	0.095
313.15	0.3999	949.688	0.09
313.15	0.4499	955.431	0.085
313.15	0.4997	961.436	0.08
313.15	0.5503	967.862	0.076
313.15	0.6001	974.504	0.072
313.15	0.6497	981.462	0.069
313.15	0.7001	988.916	0.066
313.15	0.7498	996.664	0.063
313.15	0.7998	1004.932	0.063
313.15	0.85	1013.713	0.065
313.15	0.8998	1022.998	0.067
313.15	0.9498	1032.834	0.069
313.15	0.9746	1037.942	0.071
313.15	1	1043.369	0.06

System: styrene + dimethyl carbonate; phases: Liquid, Air at 1 atmosphere
Property: Mass density, kg/m3 (Liquid); method: Vibrating tube method
Temperature, K	Mole fraction of dimethyl carbonate	Mass density, kg/m3	uncertainty
293.15	0	906.26	0.075
293.15	0.0246	909.146	0.077
293.15	0.0498	912.112	0.076
293.15	0.1006	918.267	0.075
293.15	0.1506	924.493	0.073
293.15	0.2004	930.891	0.072
293.15	0.2506	937.533	0.07
293.15	0.3008	944.38	0.069
293.15	0.3498	951.272	0.067
293.15	0.4007	958.655	0.066
293.15	0.4498	966.048	0.065
293.15	0.5001	973.84	0.063
293.15	0.5499	981.838	0.062
293.15	0.5996	990.075	0.061
293.15	0.6507	998.871	0.06
293.15	0.7001	1007.723	0.062
293.15	0.7496	1016.934	0.065
293.15	0.7997	1026.611	0.067
293.15	0.8501	1036.777	0.07
293.15	0.9001	1047.288	0.074
293.15	0.9499	1058.267	0.077
293.15	0.9747	1063.93	0.079
293.15	1	1069.794	0.067
303.15	0	897.392	0.077
303.15	0.0262	900.37	0.079
303.15	0.0502	903.146	0.079
303.15	0.1004	909.105	0.077
303.15	0.1506	915.204	0.076
303.15	0.2005	921.462	0.074
303.15	0.2502	927.883	0.073
303.15	0.3001	934.514	0.071
303.15	0.3502	941.367	0.07
303.15	0.4	948.407	0.068
303.15	0.45	955.705	0.067
303.15	0.5003	963.262	0.065
303.15	0.5498	971.001	0.064
303.15	0.5998	979.074	0.063
303.15	0.6497	987.452	0.062
303.15	0.7007	996.305	0.061
303.15	0.7502	1005.274	0.062
303.15	0.8002	1014.685	0.065
303.15	0.85	1024.502	0.067
303.15	0.8999	1034.719	0.07
303.15	0.9502	1045.498	0.073
303.15	0.975	1051.047	0.076
303.15	1	1056.75	0.063
313.15	0	888.472	0.08
313.15	0.0256	891.333	0.082
313.15	0.0501	894.082	0.081
313.15	0.0998	899.822	0.08
313.15	0.1514	905.948	0.078
313.15	0.2007	911.977	0.077
313.15	0.2506	918.225	0.075
313.15	0.3008	924.745	0.073
313.15	0.3499	931.26	0.072
313.15	0.4006	938.218	0.07
313.15	0.4501	945.282	0.069
313.15	0.5103	954.115	0.067
313.15	0.5503	960.19	0.066
313.15	0.5995	967.947	0.065
313.15	0.6499	976.16	0.064
313.15	0.6999	984.624	0.063
313.15	0.7503	993.432	0.062
313.15	0.8002	1002.61	0.062
313.15	0.8499	1012.093	0.064
313.15	0.9001	1022.038	0.067
313.15	0.9497	1032.413	0.07
313.15	0.975	1037.837	0.072
313.15	1	1043.369	0.06

System: vinyl acetate + dimethyl carbonate; phases: Liquid, Air at 1 atmosphere
Property: Mass density, kg/m3 (Liquid); method: Vibrating tube method
Temperature, K	Mole fraction of dimethyl carbonate	Mass density, kg/m3	uncertainty
293.15	0	931.95	0.067
293.15	0.025	935.258	0.071
293.15	0.0504	938.581	0.07
293.15	0.1002	945.231	0.069
293.15	0.1537	952.421	0.067
293.15	0.1999	958.65	0.065
293.15	0.25	965.315	0.064
293.15	0.3001	972.123	0.062
293.15	0.3498	978.865	0.061
293.15	0.4002	985.701	0.059
293.15	0.4503	992.611	0.058
293.15	0.5	999.443	0.057
293.15	0.5502	1006.391	0.058
293.15	0.6001	1013.375	0.059
293.15	0.6495	1020.263	0.061
293.15	0.6934	1026.465	0.062
293.15	0.7501	1034.481	0.064
293.15	0.7971	1041.095	0.065
293.15	0.8499	1048.598	0.067
293.15	0.9002	1055.592	0.069
293.15	0.9493	1062.611	0.071
293.15	0.975	1066.221	0.071
293.15	1	1069.794	0.067
303.15	0	919.089	0.071
303.15	0.025	922.4	0.074
303.15	0.0501	925.708	0.074
303.15	0.0999	932.33	0.072
303.15	0.15	939.009	0.07
303.15	0.1998	945.689	0.068
303.15	0.2499	952.431	0.067
303.15	0.3004	959.251	0.065
303.15	0.35	965.996	0.064
303.15	0.4003	972.857	0.062
303.15	0.4488	979.518	0.061
303.15	0.4999	986.544	0.059
303.15	0.5496	993.403	0.058
303.15	0.6	1000.407	0.057
303.15	0.6489	1007.219	0.058
303.15	0.6986	1014.134	0.059
303.15	0.7494	1021.257	0.061
303.15	0.8	1028.361	0.062
303.15	0.8496	1035.375	0.064
303.15	0.8999	1042.51	0.066
303.15	0.9496	1049.558	0.067
303.15	0.9753	1053.222	0.068
303.15	1	1056.75	0.063
313.15	0	906.116	0.075
313.15	0.0248	909.387	0.078
313.15	0.0501	912.718	0.077
313.15	0.1003	919.392	0.075
313.15	0.1499	925.976	0.073
313.15	0.2001	932.73	0.072
313.15	0.25	939.446	0.07
313.15	0.2999	946.16	0.068
313.15	0.3502	953.002	0.067
313.15	0.3999	959.753	0.065
313.15	0.45	966.575	0.063
313.15	0.4996	973.402	0.062
313.15	0.5501	980.351	0.06
313.15	0.5998	987.189	0.059
313.15	0.6502	994.195	0.058
313.15	0.7	1001.115	0.057
313.15	0.7501	1008.142	0.058
313.15	0.7999	1015.14	0.059
313.15	0.8499	1022.146	0.061
313.15	0.8995	1029.121	0.062
313.15	0.9501	1036.31	0.064
313.15	0.9746	1039.752	0.065
313.15	1	1043.369	0.06
