Measured thermophysical data. Densimetric and ultraacoustic study of LiCl in 1-butyl-3- methylimidazolium tetrafluoroborate and in water: A comparative interaction analysis
Source: J. Chem. Thermodyn., 2017, 10.1016/j.jct.2017.02.004
Compound 1: 1-butyl-3-methylimidazolium tetrafluoroborate, C8H15BF4N2, InChI=1S/C8H15N2.BF4/c1-3-4-5-10-7-6-9(2)8-10;2-1(3,4)5/h6-8H,3-5H2,1-2H3;/q+1;-1, purity 98.5%
Compound 2: lithium chloride, ClLi, InChI=1S/ClH.Li/h1H;/q;+1/p-1, purity 99%
Compound 3: water, H2O, InChI=1S/H2O/h1H2, purity 99.8%

System: 1-butyl-3-methylimidazolium tetrafluoroborate; phases: Liquid
Fixed: Pressure, kPa = 100
Property: Mass density, kg/m3 (Liquid); method: Vibrating tube method
Temperature, K	Mass density, kg/m3	uncertainty
288.15	1209.045	0.772
293.15	1205.503	0.767
298.15	1201.959	0.761
303.15	1198.418	0.756
308.15	1194.87	0.751

System: 1-butyl-3-methylimidazolium tetrafluoroborate; phases: Liquid
Fixed: Pressure, kPa = 100
Fixed: Frequency, MHz = 3
Property: Speed of sound, m/s (Liquid); method: Single path-length method
Temperature, K	Speed of sound, m/s	uncertainty
288.15	1590.99	1.81
293.15	1578.9	1.81
298.15	1566.91	1.81
303.15	1555.08	1.81
308.15	1543.42	1.81

System: water; phases: Liquid
Fixed: Pressure, kPa = 100
Property: Mass density, kg/m3 (Liquid); method: Vibrating tube method
Temperature, K	Mass density, kg/m3	uncertainty
288.15	999.081	0.311
293.15	998.186	0.313
298.15	997.029	0.312
303.15	995.629	0.312
308.15	994.013	0.311

System: water; phases: Liquid
Fixed: Pressure, kPa = 100
Fixed: Frequency, MHz = 3
Property: Speed of sound, m/s (Liquid); method: Single path-length method
Temperature, K	Speed of sound, m/s	uncertainty
288.15	1466.6	1.04
293.15	1482.59	1.05
298.15	1496.78	1.05
303.15	1509.17	1.05
308.15	1519.85	1.04

System: lithium chloride + 1-butyl-3-methylimidazolium tetrafluoroborate; phases: Liquid
Fixed: Pressure, kPa = 100
Property: Mass density, kg/m3 (Liquid); method: Vibrating tube method
Temperature, K	Molality, mol/kg of lithium chloride	Mass density, kg/m3	uncertainty
288.15	0	1209.045	0.772
288.15	0.0999	1211.101	0.773
288.15	0.1499	1212.169	0.774
288.15	0.2	1213.241	0.775
288.15	0.2501	1214.33	0.775
288.15	0.3003	1215.461	0.776
288.15	0.3498	1216.563	0.777
293.15	0	1205.503	0.767
293.15	0.0999	1207.563	0.768
293.15	0.1499	1208.614	0.769
293.15	0.2	1209.678	0.769
293.15	0.2501	1210.728	0.77
293.15	0.3003	1211.876	0.771
293.15	0.3498	1212.933	0.771
298.15	0	1201.959	0.761
298.15	0.0999	1204.027	0.763
298.15	0.1499	1205.082	0.763
298.15	0.2	1206.141	0.764
298.15	0.2501	1207.216	0.765
298.15	0.3003	1208.307	0.765
298.15	0.3498	1209.359	0.766
303.15	0	1198.418	0.756
303.15	0.0999	1200.525	0.758
303.15	0.1499	1201.608	0.758
303.15	0.2	1202.692	0.759
303.15	0.2501	1203.787	0.76
303.15	0.3003	1204.939	0.761
303.15	0.3498	1206.037	0.761
308.15	0	1194.87	0.751
308.15	0.0999	1196.985	0.752
308.15	0.1499	1198.069	0.753
308.15	0.2	1199.157	0.754
308.15	0.2501	1200.268	0.755
308.15	0.3003	1201.365	0.756
308.15	0.3498	1202.498	0.756

System: lithium chloride + 1-butyl-3-methylimidazolium tetrafluoroborate; phases: Liquid
Fixed: Pressure, kPa = 100
Fixed: Frequency, MHz = 3
Property: Speed of sound, m/s (Liquid); method: Single path-length method
Temperature, K	Molality, mol/kg of lithium chloride	Speed of sound, m/s	uncertainty
288.15	0	1590.99	1.81
288.15	0.0999	1595.51	1.81
288.15	0.1499	1597.65	1.81
288.15	0.2	1599.69	1.81
288.15	0.2501	1601.65	1.81
288.15	0.3003	1603.5	1.8
288.15	0.3498	1605.26	1.8
293.15	0	1578.9	1.81
293.15	0.0999	1583.29	1.81
293.15	0.1499	1585.36	1.81
293.15	0.2	1587.33	1.81
293.15	0.2501	1589.24	1.81
293.15	0.3003	1590.97	1.8
293.15	0.3498	1592.64	1.8
298.15	0	1566.91	1.81
298.15	0.0999	1571.25	1.81
298.15	0.1499	1573.29	1.81
298.15	0.2	1575.21	1.81
298.15	0.2501	1577.01	1.8
298.15	0.3003	1578.71	1.8
298.15	0.3498	1580.29	1.8
303.15	0	1555.08	1.81
303.15	0.0999	1559.39	1.81
303.15	0.1499	1561.39	1.81
303.15	0.2	1563.27	1.81
303.15	0.2501	1565.07	1.8
303.15	0.3003	1566.67	1.8
303.15	0.3498	1568.19	1.8
308.15	0	1543.42	1.81
308.15	0.0999	1547.69	1.81
308.15	0.1499	1549.66	1.81
308.15	0.2	1551.51	1.81
308.15	0.2501	1553.23	1.8
308.15	0.3003	1554.86	1.8
308.15	0.3498	1556.25	1.8

System: lithium chloride + water; phases: Liquid
Fixed: Pressure, kPa = 100
Property: Mass density, kg/m3 (Liquid); method: Vibrating tube method
Temperature, K	Molality, mol/kg of lithium chloride	Mass density, kg/m3	uncertainty
288.15	0	999.081	0.311
288.15	0.05	1000.329	0.311
288.15	0.1002	1001.566	0.311
288.15	0.1498	1002.78	0.311
288.15	0.1999	1004.001	0.311
288.15	0.2502	1005.219	0.311
288.15	0.2999	1006.415	0.311
288.15	0.3503	1007.631	0.311
288.15	0.4	1008.825	0.311
288.15	0.4503	1010.021	0.311
288.15	0.5	1011.207	0.311
293.15	0	998.186	0.313
293.15	0.05	999.427	0.311
293.15	0.1002	1000.658	0.311
293.15	0.1498	1001.865	0.311
293.15	0.1999	1003.075	0.311
293.15	0.2502	1004.285	0.311
293.15	0.2999	1005.471	0.311
293.15	0.3503	1006.675	0.311
293.15	0.4	1007.856	0.311
293.15	0.4503	1009.041	0.311
293.15	0.5	1010.211	0.31
298.15	0	997.029	0.312
298.15	0.05	998.265	0.311
298.15	0.1002	999.489	0.311
298.15	0.1498	1000.69	0.311
298.15	0.1999	1001.893	0.311
298.15	0.2502	1003.098	0.311
298.15	0.2999	1004.279	0.311
298.15	0.3503	1005.474	0.311
298.15	0.4	1006.649	0.311
298.15	0.4503	1007.828	0.311
298.15	0.5	1008.991	0.31
303.15	0	995.629	0.312
303.15	0.05	996.862	0.311
303.15	0.1002	998.083	0.311
303.15	0.1498	999.281	0.311
303.15	0.1999	1000.481	0.311
303.15	0.2502	1001.681	0.311
303.15	0.2999	1002.859	0.311
303.15	0.3503	1004.054	0.311
303.15	0.4	1005.224	0.311
303.15	0.4503	1006.398	0.311
303.15	0.5	1007.564	0.31
308.15	0	994.013	0.311
308.15	0.05	995.242	0.311
308.15	0.1002	996.458	0.311
308.15	0.1498	997.651	0.311
308.15	0.1999	998.845	0.311
308.15	0.2502	1000.041	0.31
308.15	0.2999	1001.213	0.31
308.15	0.3503	1002.399	0.31
308.15	0.4	1003.566	0.31
308.15	0.4503	1004.742	0.31
308.15	0.5	1005.898	0.311

System: lithium chloride + water; phases: Liquid
Fixed: Pressure, kPa = 100
Fixed: Frequency, MHz = 3
Property: Speed of sound, m/s (Liquid); method: Single path-length method
Temperature, K	Molality, mol/kg of lithium chloride	Speed of sound, m/s	uncertainty
288.15	0	1466.6	1.04
288.15	0.05	1469.64	1.04
288.15	0.1002	1472.71	1.04
288.15	0.1498	1475.75	1.04
288.15	0.1999	1478.83	1.04
288.15	0.2502	1481.95	1.05
288.15	0.2999	1485.05	1.04
288.15	0.3503	1488.08	1.04
288.15	0.4	1491.13	1.05
288.15	0.4503	1494.23	1.05
288.15	0.5	1497.22	1.05
293.15	0	1482.59	1.05
293.15	0.05	1485.62	1.04
293.15	0.1002	1488.64	1.04
293.15	0.1498	1491.63	1.04
293.15	0.1999	1494.62	1.04
293.15	0.2502	1497.59	1.04
293.15	0.2999	1500.55	1.04
293.15	0.3503	1503.47	1.04
293.15	0.4	1506.33	1.04
293.15	0.4503	1509.21	1.04
293.15	0.5	1512.06	1.04
298.15	0	1496.78	1.05
298.15	0.05	1499.69	1.04
298.15	0.1002	1502.59	1.04
298.15	0.1498	1505.46	1.04
298.15	0.1999	1508.34	1.04
298.15	0.2502	1511.23	1.04
298.15	0.2999	1514.06	1.04
298.15	0.3503	1516.86	1.04
298.15	0.4	1519.61	1.04
298.15	0.4503	1522.38	1.04
298.15	0.5	1525.14	1.04
303.15	0	1509.17	1.05
303.15	0.05	1511.99	1.04
303.15	0.1002	1514.8	1.04
303.15	0.1498	1517.56	1.04
303.15	0.1999	1520.33	1.04
303.15	0.2502	1523.14	1.04
303.15	0.2999	1525.9	1.04
303.15	0.3503	1528.58	1.04
303.15	0.4	1531.23	1.04
303.15	0.4503	1533.9	1.04
303.15	0.5	1536.57	1.04
308.15	0	1519.85	1.04
308.15	0.05	1522.59	1.04
308.15	0.1002	1525.31	1.04
308.15	0.1498	1527.99	1.04
308.15	0.1999	1530.7	1.04
308.15	0.2502	1533.41	1.04
308.15	0.2999	1536.02	1.04
308.15	0.3503	1538.67	1.04
308.15	0.4	1541.24	1.04
308.15	0.4503	1543.82	1.04
308.15	0.5	1546.41	1.04
