Measured thermophysical data. Physical properties of seven deep eutectic solvents based on L-proline or betaine
Source: J. Chem. Thermodyn., 2019, 10.1016/j.jct.2018.12.017
Compound 1: L-proline, C5H9NO2, InChI=1S/C5H9NO2/c7-5(8)4-2-1-3-6-4/h4,6H,1-3H2,(H,7,8)/t4-/m0/s1, purity 98%
Compound 2: 4-oxopentanoic acid, C5H8O3, InChI=1S/C5H8O3/c1-4(6)2-3-5(7)8/h2-3H2,1H3,(H,7,8), purity 99%
Compound 3: 2-hydroxypropanoic acid, C3H6O3, InChI=1S/C3H6O3/c1-2(4)3(5)6/h2,4H,1H3,(H,5,6), purity 90%
Compound 4: (trimethylammonio)acetate, C5H11NO2, InChI=1S/C5H11NO2/c1-6(2,3)4-5(7)8/h4H2,1-3H3, purity 98%
Compound 5: water, H2O, InChI=1S/H2O/h1H2, purity 99.8%
Compound 6: citric acid, C6H8O7, InChI=1S/C6H8O7/c7-3(8)1-6(13,5(11)12)2-4(9)10/h13H,1-2H2,(H,7,8)(H,9,10)(H,11,12), purity 99%

System: L-proline + 4-oxopentanoic acid; phases: Liquid
Fixed: Pressure, kPa = 100
Fixed: Mole fraction of 4-oxopentanoic acid = 0.667
Property: Mass density, kg/m3 (Liquid); method: Vibrating tube method
Temperature, K	Mass density, kg/m3	uncertainty
293.15	1201	10.09
298.15	1197.25	10.09
303.15	1193.51	10.09
308.15	1189.76	10.09
313.15	1186.04	10.09
318.15	1182.36	10.08
323.15	1178.69	10.08
328.15	1175.01	10.08
333.15	1171.34	10.08
338.15	1167.68	10.08
343.15	1164.03	10.08

System: L-proline + 4-oxopentanoic acid; phases: Liquid
Fixed: Pressure, kPa = 100
Fixed: Mole fraction of 4-oxopentanoic acid = 0.667
Property: Viscosity, Pa*s (Liquid); method: Falling or rolling sphere viscometry
Temperature, K	Viscosity, Pa*s	uncertainty
303.15	0.955	0.129
308.15	0.6361	0.0809
313.15	0.4325	0.052
318.15	0.301	0.0344
323.15	0.2196	0.0242
328.15	0.1609	0.0171
333.15	0.1243	0.0129
338.15	0.0945	0.0097
343.15	0.0734	0.0074

System: L-proline + 4-oxopentanoic acid; phases: Liquid
Fixed: Pressure, kPa = 100
Fixed: Mole fraction of 4-oxopentanoic acid = 0.667
Fixed: Frequency, MHz = 3
Property: Speed of sound, m/s (Liquid); method: Single path-length method
Temperature, K	Speed of sound, m/s	uncertainty
293.15	1690.5	2.4
298.15	1667.3	2.4
303.15	1646.8	2.4
308.15	1628.3	2.4
313.15	1611.3	2.4
318.15	1595.4	2.4
323.15	1580.1	2.4
328.15	1565.3	2.4
333.15	1550.6	2.4
338.15	1535.7	2.4
343.15	1521.8	2.4

System: L-proline + 4-oxopentanoic acid; phases: Liquid
Fixed: Pressure, kPa = 100
Fixed: Mole fraction of 4-oxopentanoic acid = 0.667
Property: Refractive index (Na D-line) (Liquid); method: Standard Abbe refractometry
Temperature, K	Refractive index (Na D-line)	uncertainty
293.15	1.476	0.00107
298.15	1.47474	0.00107
303.15	1.47337	0.00107
308.15	1.4719	0.00107
313.15	1.47042	0.00107
318.15	1.46895	0.00107
323.15	1.46746	0.00107
328.15	1.46596	0.00107
333.15	1.46449	0.00107
338.15	1.46301	0.00107
343.15	1.46146	0.00107

System: L-proline + 2-hydroxypropanoic acid; phases: Liquid
Fixed: Pressure, kPa = 100
Fixed: Mole fraction of 2-hydroxypropanoic acid = 0.5
Property: Mass density, kg/m3 (Liquid); method: Vibrating tube method
Temperature, K	Mass density, kg/m3	uncertainty
293.15	1265.11	15.41
298.15	1262.58	15.37
303.15	1258.07	15.31
308.15	1254.56	15.26
313.15	1251.05	15.21
318.15	1247.55	15.16
323.15	1244.03	15.11
328.15	1240.49	15.06
333.15	1237.01	15.02
338.15	1233.56	14.97
343.15	1230.14	14.92

System: L-proline + 2-hydroxypropanoic acid; phases: Liquid
Fixed: Pressure, kPa = 100
Fixed: Mole fraction of 2-hydroxypropanoic acid = 0.5
Property: Viscosity, Pa*s (Liquid); method: Falling or rolling sphere viscometry
Temperature, K	Viscosity, Pa*s	uncertainty
323.15	0.9974	0.1388
328.15	0.6751	0.0888
333.15	0.4724	0.0591
338.15	0.3389	0.0406
343.15	0.2461	0.0284

System: L-proline + 2-hydroxypropanoic acid; phases: Liquid
Fixed: Pressure, kPa = 100
Fixed: Mole fraction of 2-hydroxypropanoic acid = 0.5
Fixed: Frequency, MHz = 3
Property: Speed of sound, m/s (Liquid); method: Single path-length method
Temperature, K	Speed of sound, m/s	uncertainty
298.15	1850	6.3
303.15	1805.8	6.3
308.15	1773.1	6.3
313.15	1748.1	6.3
318.15	1727.6	6.3
323.15	1709.9	6.3
328.15	1693.9	6.3
333.15	1679.2	6.3
338.15	1665.2	6.3
343.15	1651.9	6.3

System: L-proline + 2-hydroxypropanoic acid; phases: Liquid
Fixed: Pressure, kPa = 100
Fixed: Mole fraction of 2-hydroxypropanoic acid = 0.5
Property: Refractive index (Na D-line) (Liquid); method: Standard Abbe refractometry
Temperature, K	Refractive index (Na D-line)	uncertainty
293.15	1.48891	0.00159
298.15	1.48758	0.00159
303.15	1.48617	0.00159
308.15	1.48474	0.00159
313.15	1.48331	0.00159
318.15	1.4819	0.00159
323.15	1.48046	0.00159
328.15	1.47903	0.00159
333.15	1.4776	0.00159
338.15	1.47617	0.00159
343.15	1.47471	0.00159

System: (trimethylammonio)acetate + 2-hydroxypropanoic acid; phases: Liquid
Fixed: Pressure, kPa = 100
Property: Mass density, kg/m3 (Liquid); method: Vibrating tube method
Mole fraction of 2-hydroxypropanoic acid	Temperature, K	Mass density, kg/m3	uncertainty
0.667	298.15	1201.4	18.95
0.667	303.15	1197.9	18.87
0.667	308.15	1194.37	18.79
0.667	313.15	1190.88	18.71
0.667	318.15	1187.41	18.63
0.667	323.15	1183.91	18.55
0.667	328.15	1180.41	18.47
0.667	333.15	1176.9	18.39
0.667	338.15	1173.38	18.32
0.667	343.15	1169.88	18.24
0.833	293.15	1208.93	25.58
0.833	298.15	1205.08	25.42
0.833	303.15	1201.18	25.25
0.833	308.15	1197.24	25.09
0.833	313.15	1193.32	24.92
0.833	318.15	1189.37	24.75
0.833	323.15	1185.44	24.59
0.833	328.15	1181.5	24.44
0.833	333.15	1177.48	24.3
0.833	338.15	1173.54	24.16
0.833	343.15	1169.59	24.03

System: (trimethylammonio)acetate + 2-hydroxypropanoic acid; phases: Liquid
Fixed: Pressure, kPa = 100
Property: Viscosity, Pa*s (Liquid); method: Falling or rolling sphere viscometry
Mole fraction of 2-hydroxypropanoic acid	Temperature, K	Viscosity, Pa*s	uncertainty
0.667	298.15	1.266	0.1943
0.667	303.15	0.8186	0.1199
0.667	308.15	0.5446	0.0757
0.667	313.15	0.3746	0.0497
0.667	318.15	0.2605	0.0332
0.667	323.15	0.1902	0.0234
0.667	328.15	0.1416	0.017
0.667	333.15	0.1075	0.0127
0.667	338.15	0.0837	0.0097
0.667	343.15	0.0659	0.0076
0.833	293.15	0.3866	0.0784
0.833	298.15	0.2453	0.067
0.833	303.15	0.1677	0.0432
0.833	308.15	0.1204	0.0287
0.833	313.15	0.0861	0.0196
0.833	318.15	0.0655	0.0137
0.833	323.15	0.0506	0.01
0.833	328.15	0.0396	0.0075
0.833	333.15	0.0311	0.0057
0.833	338.15	0.0251	0.0044
0.833	343.15	0.0206	0.0035

System: (trimethylammonio)acetate + 2-hydroxypropanoic acid; phases: Liquid
Fixed: Pressure, kPa = 100
Fixed: Frequency, MHz = 3
Property: Speed of sound, m/s (Liquid); method: Single path-length method
Mole fraction of 2-hydroxypropanoic acid	Temperature, K	Speed of sound, m/s	uncertainty
0.667	298.15	1800.7	11.4
0.667	303.15	1783.7	11.2
0.667	308.15	1767.9	11.1
0.667	313.15	1753.1	11.1
0.667	318.15	1738.9	11
0.667	323.15	1725.2	11
0.667	328.15	1711.8	11
0.667	333.15	1698.6	11
0.667	338.15	1685.6	11
0.667	343.15	1672.9	11
0.833	293.15	1675.4	12.3
0.833	298.15	1660.8	12.2
0.833	303.15	1646.7	12.1
0.833	308.15	1633.1	12
0.833	313.15	1619.7	12
0.833	318.15	1606.5	11.9
0.833	323.15	1593.4	11.9
0.833	328.15	1580.4	11.9
0.833	333.15	1567.4	11.9
0.833	338.15	1554.5	11.9
0.833	343.15	1541.7	11.9

System: (trimethylammonio)acetate + 2-hydroxypropanoic acid; phases: Liquid
Fixed: Pressure, kPa = 100
Property: Refractive index (Na D-line) (Liquid); method: Standard Abbe refractometry
Mole fraction of 2-hydroxypropanoic acid	Temperature, K	Refractive index (Na D-line)	uncertainty
0.667	293.15	1.4618	0.00203
0.667	298.15	1.46037	0.00203
0.667	303.15	1.45905	0.00203
0.667	308.15	1.45758	0.00204
0.667	313.15	1.45618	0.00204
0.667	318.15	1.45476	0.00204
0.667	323.15	1.45341	0.00205
0.667	328.15	1.45197	0.00205
0.667	333.15	1.45055	0.00205
0.667	338.15	1.44912	0.00206
0.667	343.15	1.4477	0.00206
0.833	293.15	1.4463	0.00223
0.833	298.15	1.4448	0.00223
0.833	303.15	1.44332	0.00223
0.833	308.15	1.44178	0.00223
0.833	313.15	1.44027	0.00224
0.833	318.15	1.43872	0.00224
0.833	323.15	1.43715	0.00224
0.833	328.15	1.43564	0.00225
0.833	333.15	1.43409	0.00225
0.833	338.15	1.43249	0.00225
0.833	343.15	1.43093	0.00226

System: (trimethylammonio)acetate + 4-oxopentanoic acid; phases: Liquid
Fixed: Pressure, kPa = 100
Fixed: Mole fraction of 4-oxopentanoic acid = 0.667
Property: Mass density, kg/m3 (Liquid); method: Vibrating tube method
Temperature, K	Mass density, kg/m3	uncertainty
293.15	1161.9	10.08
298.15	1158.32	10.08
303.15	1154.74	10.08
308.15	1151.16	10.08
313.15	1147.62	10.08
318.15	1144.1	10.08
323.15	1140.59	10.08
328.15	1137.07	10.08
333.15	1133.56	10.08
338.15	1130.06	10.08
343.15	1126.57	10.07

System: (trimethylammonio)acetate + 4-oxopentanoic acid; phases: Liquid
Fixed: Pressure, kPa = 100
Fixed: Mole fraction of 4-oxopentanoic acid = 0.667
Property: Viscosity, Pa*s (Liquid); method: Falling or rolling sphere viscometry
Temperature, K	Viscosity, Pa*s	uncertainty
298.15	1.342	0.191
303.15	0.8573	0.114
308.15	0.5723	0.0716
313.15	0.3936	0.0467
318.15	0.2689	0.0303
323.15	0.1942	0.0211
328.15	0.1457	0.0154
333.15	0.1111	0.0115
338.15	0.0848	0.0086
343.15	0.067	0.0067

System: (trimethylammonio)acetate + 4-oxopentanoic acid; phases: Liquid
Fixed: Pressure, kPa = 100
Fixed: Mole fraction of 4-oxopentanoic acid = 0.667
Fixed: Frequency, MHz = 3
Property: Speed of sound, m/s (Liquid); method: Single path-length method
Temperature, K	Speed of sound, m/s	uncertainty
293.15	1745.5	2.4
298.15	1724.2	2.4
303.15	1705.5	2.4
308.15	1688.5	2.4
313.15	1672.7	2.4
318.15	1657.7	2.4
323.15	1642.1	2.4
328.15	1628.7	2.4
333.15	1614.4	2.4
338.15	1600.6	2.4
343.15	1587	2.4

System: (trimethylammonio)acetate + 4-oxopentanoic acid; phases: Liquid
Fixed: Pressure, kPa = 100
Fixed: Mole fraction of 4-oxopentanoic acid = 0.667
Property: Refractive index (Na D-line) (Liquid); method: Standard Abbe refractometry
Temperature, K	Refractive index (Na D-line)	uncertainty
293.15	1.46621	0.00107
298.15	1.46476	0.00107
303.15	1.4633	0.00107
308.15	1.46183	0.00107
313.15	1.46037	0.00107
318.15	1.4589	0.00107
323.15	1.45743	0.00107
328.15	1.45599	0.00107
333.15	1.45452	0.00107
338.15	1.45307	0.00107
343.15	1.4516	0.00107

System: (trimethylammonio)acetate + 2-hydroxypropanoic acid + water; phases: Liquid
Fixed: Pressure, kPa = 100
Fixed: Mole fraction of (trimethylammonio)acetate = 0.333
Fixed: Mole fraction of water = 0.334
Property: Mass density, kg/m3 (Liquid); method: Vibrating tube method
Temperature, K	Mass density, kg/m3	uncertainty
293.15	1184.23	11.11
298.15	1181.02	11.1
303.15	1177.82	11.09
308.15	1174.64	11.08
313.15	1171.44	11.07
318.15	1168.19	11.06
323.15	1164.96	11.04
328.15	1161.71	11.03
333.15	1158.47	11.02
338.15	1155.22	11.01
343.15	1151.96	11

System: (trimethylammonio)acetate + 2-hydroxypropanoic acid + water; phases: Liquid
Fixed: Pressure, kPa = 100
Fixed: Mole fraction of (trimethylammonio)acetate = 0.333
Fixed: Mole fraction of water = 0.334
Property: Viscosity, Pa*s (Liquid); method: Falling or rolling sphere viscometry
Temperature, K	Viscosity, Pa*s	uncertainty
293.15	0.6904	0.0898
298.15	0.4732	0.0583
303.15	0.3276	0.0384
308.15	0.2234	0.025
313.15	0.1646	0.0178
318.15	0.1213	0.0128
323.15	0.092	0.0095
328.15	0.0708	0.0073
333.15	0.0565	0.0058
338.15	0.0461	0.0047
343.15	0.0379	0.0039

System: (trimethylammonio)acetate + 2-hydroxypropanoic acid + water; phases: Liquid
Fixed: Pressure, kPa = 100
Fixed: Mole fraction of (trimethylammonio)acetate = 0.333
Fixed: Mole fraction of water = 0.334
Fixed: Frequency, MHz = 3
Property: Speed of sound, m/s (Liquid); method: Single path-length method
Temperature, K	Speed of sound, m/s	uncertainty
293.15	1930.6	4.5
298.15	1915.5	4.5
303.15	1901.3	4.5
308.15	1887.4	4.5
313.15	1874	4.5
318.15	1861	4.5
323.15	1848.2	4.5
328.15	1835.4	4.5
333.15	1822.7	4.5
338.15	1810	4.5
343.15	1796.8	4.5

System: (trimethylammonio)acetate + 2-hydroxypropanoic acid + water; phases: Liquid
Fixed: Pressure, kPa = 100
Fixed: Mole fraction of (trimethylammonio)acetate = 0.333
Fixed: Mole fraction of water = 0.334
Property: Refractive index (Na D-line) (Liquid); method: Standard Abbe refractometry
Temperature, K	Refractive index (Na D-line)	uncertainty
293.15	1.46303	0.00132
298.15	1.46176	0.00132
303.15	1.46046	0.00132
308.15	1.45915	0.00132
313.15	1.45781	0.00132
318.15	1.45646	0.00132
323.15	1.45514	0.00132
328.15	1.45378	0.00132
333.15	1.45243	0.00132
338.15	1.45105	0.00132
343.15	1.44965	0.00132

System: (trimethylammonio)acetate + citric acid + water; phases: Liquid
Fixed: Pressure, kPa = 100
Fixed: Mole fraction of (trimethylammonio)acetate = 0.222
Fixed: Mole fraction of water = 0.667
Property: Mass density, kg/m3 (Liquid); method: Vibrating tube method
Temperature, K	Mass density, kg/m3	uncertainty
293.15	1263.07	10.16
298.15	1259.85	10.16
303.15	1256.62	10.16
308.15	1253.37	10.16
313.15	1250.12	10.16
318.15	1246.91	10.16
323.15	1243.69	10.16
328.15	1240.46	10.16
333.15	1237.21	10.15
338.15	1233.95	10.15
343.15	1230.68	10.15

System: (trimethylammonio)acetate + citric acid + water; phases: Liquid
Fixed: Pressure, kPa = 100
Fixed: Mole fraction of (trimethylammonio)acetate = 0.222
Fixed: Mole fraction of water = 0.667
Property: Viscosity, Pa*s (Liquid); method: Falling or rolling sphere viscometry
Temperature, K	Viscosity, Pa*s	uncertainty
303.15	1.057	0.1449
308.15	0.726	0.094
313.15	0.5101	0.0627
318.15	0.3634	0.0426
323.15	0.2589	0.029
328.15	0.196	0.021
333.15	0.1481	0.0156
338.15	0.1146	0.0118
343.15	0.0909	0.0092

System: (trimethylammonio)acetate + citric acid + water; phases: Liquid
Fixed: Pressure, kPa = 100
Fixed: Mole fraction of (trimethylammonio)acetate = 0.222
Fixed: Mole fraction of water = 0.667
Fixed: Frequency, MHz = 3
Property: Speed of sound, m/s (Liquid); method: Single path-length method
Temperature, K	Speed of sound, m/s	uncertainty
293.15	2007.3	2.1
298.15	1989.4	2.1
303.15	1973.8	2.1
308.15	1959.9	2.1
313.15	1947.1	2.1
318.15	1934.9	2.1
323.15	1923.1	2.1
328.15	1911.4	2.1
333.15	1900	2.1
338.15	1888.6	2.1
343.15	1877.1	2.1

System: (trimethylammonio)acetate + citric acid + water; phases: Liquid
Fixed: Pressure, kPa = 100
Fixed: Mole fraction of (trimethylammonio)acetate = 0.222
Fixed: Mole fraction of water = 0.667
Property: Refractive index (Na D-line) (Liquid); method: Standard Abbe refractometry
Temperature, K	Refractive index (Na D-line)	uncertainty
293.15	1.46837	0.00105
298.15	1.46714	0.00105
303.15	1.46588	0.00105
308.15	1.46461	0.00105
313.15	1.46334	0.00105
318.15	1.46204	0.00105
323.15	1.46079	0.00105
328.15	1.45951	0.00105
333.15	1.45822	0.00105
338.15	1.45695	0.00105
343.15	1.45564	0.00105
