Measured thermophysical data. Consistency of experimental data in SLLV equilibrium of ternary systems with electrolyte. Application to the water + NaCl + 2-propanol system at 101.3 kPa
Source: J. Chem. Thermodyn., 2018, 10.1016/j.jct.2018.04.017
Compound 1: sodium chloride, ClNa, InChI=1S/ClH.Na/h1H;/q;+1/p-1, purity 99.9%
Compound 2: propan-2-ol, C3H8O, InChI=1S/C3H8O/c1-3(2)4/h3-4H,1-2H3, purity 99.5%
Compound 3: water, H2O, InChI=1S/H2O/h1H2, purity 99.8%

System: sodium chloride + propan-2-ol + water; phases: Liquid, Crystal
Fixed: Pressure, kPa = 101.3
Property: Mole fraction of sodium chloride (Liquid); method: Gravimetric method
Temperature, K	Mole fraction of water	Mole fraction of sodium chloride	uncertainty
353.55	0.431	0.0095	0.001
353.48	0.405	0.0079	0.0008
353.4	0.362	0.0053	0.0005
353.38	0.323	0.0035	0.0004
353.35	0.288	0.0025	0.0005
353.35	0.243	0.0014	0.0006
353.55	0.176	0.0006	0.0005
353.82	0.131	0.0005	0.0005
354.07	0.106	0.0005	0.0005
354.29	0.077	0.0005	0.0005
354.7	0.052	0.0005	0.0005
354.51	0.894	0.0948	0.0038
357.23	0.895	0.0956	0.0038
358.65	0.896	0.0961	0.0038
361.57	0.897	0.0975	0.0039
367.1	0.898	0.0992	0.004
372.71	0.898	0.1005	0.004
353.6	0.441	0.0095	0.001
353.6	0.888	0.094	0.004

System: sodium chloride + propan-2-ol + water; phases: Liquid, Gas
Fixed: Pressure, kPa = 101.3
Property: Mole fraction of propan-2-ol (Liquid); method: Chromatography
Property: Mole fraction of propan-2-ol (Gas); method: Chromatography
Property: Mole fraction of water (Gas); method: Chromatography
Temperature, K	Mole fraction of water	Mole fraction of propan-2-ol	uncertainty	Mole fraction of propan-2-ol	uncertainty	Mole fraction of water	uncertainty
353.55	0.431	0.559	0.018	0.646	0.015	0.354	
354.29	0.077	0.923	0.003	0.875	0.005	0.125	
354.7	0.052	0.947	0.002	0.918	0.003	0.082	
354.51	0.894	0.011	0.001	0.626	0.015	0.374	
357.23	0.895	0.009	0.001	0.572	0.018	0.428	
358.65	0.896	0.008	0.001	0.555	0.018	0.445	
361.57	0.897	0.006	0.001	0.523	0.02	0.477	
367.1	0.898	0.003	0.001	0.46	0.019	0.54	
372.71	0.898	0.001	0.001	0.303	0.012	0.697	
353.63	0.891	0.023	0.001	0.637	0.015	0.363	
353.74	0.897	0.029	0.001	0.626	0.015	0.374	
353.48	0.405	0.587	0.017	0.652	0.014	0.348	
353.8	0.898	0.033	0.001	0.623	0.015	0.377	
353.88	0.898	0.039	0.002	0.618	0.016	0.382	
353.95	0.897	0.044	0.002	0.613	0.016	0.387	
354.01	0.891	0.056	0.002	0.609	0.016	0.391	
354.08	0.878	0.075	0.003	0.606	0.016	0.394	
353.63	0.469	0.52	0.02	0.637	0.015	0.363	
353.74	0.521	0.467	0.019	0.626	0.015	0.374	
353.8	0.549	0.438	0.018	0.623	0.015	0.377	
353.88	0.579	0.406	0.017	0.618	0.016	0.382	
353.95	0.607	0.377	0.015	0.613	0.016	0.387	
353.4	0.362	0.633	0.015	0.661	0.014	0.339	
354.01	0.635	0.347	0.014	0.609	0.016	0.391	
354.08	0.67	0.308	0.013	0.606	0.016	0.394	
353.6	0.441	0.549	0.018	0.649	0.014	0.351	
353.6	0.888	0.018	0.001	0.649	0.014	0.351	
354.13	0.631	0.368	0.015	0.587	0.017	0.413	
354.47	0.736	0.261	0.011	0.579	0.017	0.421	
354.66	0.791	0.207	0.008	0.572	0.018	0.428	
354.86	0.856	0.136	0.006	0.569	0.018	0.431	
355.09	0.91	0.082	0.003	0.562	0.018	0.438	
356	0.935	0.052	0.002	0.552	0.018	0.448	
353.38	0.323	0.673	0.013	0.674	0.013	0.326	
360.86	0.966	0.021	0.001	0.452	0.019	0.548	
353.35	0.288	0.71	0.012	0.687	0.013	0.313	
353.35	0.243	0.756	0.01	0.712	0.012	0.288	
353.55	0.176	0.823	0.007	0.763	0.01	0.237	
353.82	0.131	0.869	0.005	0.809	0.008	0.191	
354.07	0.106	0.894	0.004	0.837	0.007	0.163	
355.33	0.753	0.247	0.01	0.549	0.018	0.451	
353.32	0.347	0.653	0.014	0.673	0.013	0.327	
353.3	0.311	0.689	0.013	0.688	0.013	0.312	

System: sodium chloride + propan-2-ol + water; phases: Liquid mixture 2, Liquid mixture 1
Fixed: Pressure, kPa = 101.3
Property: Mole fraction of water (Liquid mixture 2); method: Chromatography
Property: Mole fraction of water (Liquid mixture 1); method: Chromatography
Property: Mole fraction of propan-2-ol (Liquid mixture 1); method: Chromatography
Temperature, K	Mole fraction of propan-2-ol	Mole fraction of water	uncertainty	Mole fraction of water	uncertainty	Mole fraction of propan-2-ol	uncertainty
353.63	0.52	0.469	0.019	0.891	0.004	0.023	
353.74	0.467	0.521	0.019	0.897	0.004	0.029	
353.8	0.438	0.549	0.018	0.898	0.004	0.033	
353.88	0.406	0.579	0.017	0.898	0.004	0.039	
353.95	0.377	0.607	0.016	0.897	0.004	0.044	
354.01	0.347	0.635	0.015	0.891	0.004	0.056	
354.08	0.308	0.67	0.013	0.878	0.005	0.075	
353.6	0.549	0.441	0.018	0.888	0.005	0.018	

System: propan-2-ol + water; phases: Liquid, Gas
Fixed: Pressure, kPa = 101.3
Property: Boiling temperature at pressure P, K (Liquid); method: Ebulliometric method (Recirculating still)
Mole fraction of water	Boiling temperature at pressure P, K	uncertainty
0.753	355.33	0.17
0.347	353.32	0.16
0.311	353.3	0.16

System: propan-2-ol + water; phases: Gas, Liquid
Fixed: Pressure, kPa = 101.3
Property: Mole fraction of water (Gas); method: Chromatography
Mole fraction of water	Mole fraction of water	uncertainty
0.753	0.451	0.019
0.347	0.327	0.015
0.311	0.312	0.014
