Measured thermophysical data. Selective recovery of aliphatics from aromatics in the presence of the {[4empy][Tf2N] + [emim][DCA]} ionic liquid mixture
Source: J. Chem. Thermodyn., 2016, 10.1016/j.jct.2015.12.033
Compound 1: 1-ethyl-3-methylimidazolium dicyanamide, C8H11N5, InChI=1S/C6H11N2.C2N3/c1-3-8-5-4-7(2)6-8;3-1-5-2-4/h4-6H,3H2,1-2H3;/q+1;-1, purity 98%
Compound 2: 1-ethyl-4-methylpyridinium bis((trifluoromethyl)sulfonyl)amide, C10H12F6N2O4S2, InChI=1S/C8H12N.C2F6NO4S2/c1-3-9-6-4-8(2)5-7-9;3-1(4,5)14(10,11)9-15(12,13)2(6,7)8/h4-7H,3H2,1-2H3;/q+1;-1, purity 99%
Compound 3: hexane, C6H14, InChI=1S/C6H14/c1-3-5-6-4-2/h3-6H2,1-2H3, purity 99.5%
Compound 4: heptane, C7H16, InChI=1S/C7H16/c1-3-5-7-6-4-2/h3-7H2,1-2H3, purity 99.7%
Compound 5: octane, C8H18, InChI=1S/C8H18/c1-3-5-7-8-6-4-2/h3-8H2,1-2H3, purity 99%
Compound 6: cyclohexane, C6H12, InChI=1S/C6H12/c1-2-4-6-5-3-1/h1-6H2, purity 99.5%
Compound 7: 2,3-dimethylpentane, C7H16, InChI=1S/C7H16/c1-5-7(4)6(2)3/h6-7H,5H2,1-4H3, purity 99%
Compound 8: benzene, C6H6, InChI=1S/C6H6/c1-2-4-6-5-3-1/h1-6H, purity 99.5%
Compound 9: toluene, C7H8, InChI=1S/C7H8/c1-7-5-3-2-4-6-7/h2-6H,1H3, purity 99.5%
Compound 10: 1,4-dimethylbenzene, C8H10, InChI=1S/C8H10/c1-7-3-5-8(2)6-4-7/h3-6H,1-2H3, purity 99%
Compound 11: ethylbenzene, C8H10, InChI=1S/C8H10/c1-2-8-6-4-3-5-7-8/h3-7H,2H2,1H3, purity 99.8%

System: toluene + hexane + 1-ethyl-4-methylpyridinium bis((trifluoromethyl)sulfonyl)amide; phases: Liquid, Gas
Property: Mole fraction of toluene (Liquid); method: Gravimetric method + Mass balance
Property: Mole fraction of toluene (Gas); method: Gravimetric method + Mass balance
Property: Mole fraction of hexane (Gas); method: Gravimetric method + Mass balance
Temperature, K	Pressure, kPa	Mole fraction of hexane	Mole fraction of toluene	uncertainty	Mole fraction of toluene	uncertainty	Mole fraction of hexane	uncertainty
323.2	1.55	0.00067	0.01393	0.0008	0.3163	0.0034	0.6837	
343.2	2.33	0.00064	0.01386	0.0008	0.4656	0.0047	0.5344	
363.2	3.68	0.00059	0.01391	0.0008	0.6028	0.0043	0.3972	

System: toluene + heptane + 1-ethyl-4-methylpyridinium bis((trifluoromethyl)sulfonyl)amide; phases: Liquid, Gas
Property: Mole fraction of heptane (Liquid); method: Gravimetric method + Mass balance
Property: Mole fraction of heptane (Gas); method: Gravimetric method + Mass balance
Property: Mole fraction of toluene (Gas); method: Gravimetric method + Mass balance
Temperature, K	Pressure, kPa	Mole fraction of toluene	Mole fraction of heptane	uncertainty	Mole fraction of heptane	uncertainty	Mole fraction of toluene	uncertainty
323.2	1.35	0.01707	0.00083	0.0008	0.6519	0.0038	0.3481	
343.2	2.1	0.01745	0.00075	0.00075	0.5182	0.0048	0.4818	
363.2	3.17	0.01698	0.00072	0.00072	0.3901	0.004	0.6099	

System: toluene + octane + 1-ethyl-4-methylpyridinium bis((trifluoromethyl)sulfonyl)amide; phases: Liquid, Gas
Property: Mole fraction of octane (Liquid); method: Gravimetric method + Mass balance
Property: Mole fraction of octane (Gas); method: Gravimetric method + Mass balance
Property: Mole fraction of toluene (Gas); method: Gravimetric method + Mass balance
Temperature, K	Pressure, kPa	Mole fraction of toluene	Mole fraction of octane	uncertainty	Mole fraction of octane	uncertainty	Mole fraction of toluene	uncertainty
323.2	1.28	0.01552	0.00078	0.00078	0.5423	0.0052	0.4577	
343.2	1.93	0.01505	0.00065	0.00065	0.4409	0.0047	0.5591	
363.2	3.21	0.01448	0.00052	0.00052	0.3473	0.0037	0.6527	

System: toluene + cyclohexane + 1-ethyl-4-methylpyridinium bis((trifluoromethyl)sulfonyl)amide; phases: Liquid, Gas
Property: Mole fraction of toluene (Liquid); method: Gravimetric method + Mass balance
Property: Mole fraction of toluene (Gas); method: Gravimetric method + Mass balance
Property: Mole fraction of cyclohexane (Gas); method: Gravimetric method + Mass balance
Temperature, K	Pressure, kPa	Mole fraction of cyclohexane	Mole fraction of toluene	uncertainty	Mole fraction of toluene	uncertainty	Mole fraction of cyclohexane	uncertainty
323.2	1.39	0.0012	0.0166	0.0008	0.3939	0.004	0.6061	
343.2	2.32	0.00111	0.01659	0.0008	0.5298	0.0048	0.4702	
363.2	3.77	0.00109	0.01671	0.0008	0.6399	0.004	0.3601	

System: toluene + 2,3-dimethylpentane + 1-ethyl-4-methylpyridinium bis((trifluoromethyl)sulfonyl)amide; phases: Liquid, Gas
Property: Mole fraction of 2,3-dimethylpentane (Liquid); method: Gravimetric method + Mass balance
Property: Mole fraction of 2,3-dimethylpentane (Gas); method: Gravimetric method + Mass balance
Property: Mole fraction of toluene (Gas); method: Gravimetric method + Mass balance
Temperature, K	Pressure, kPa	Mole fraction of toluene	Mole fraction of 2,3-dimethylpentane	uncertainty	Mole fraction of 2,3-dimethylpentane	uncertainty	Mole fraction of toluene	uncertainty
323.2	1.62	0.01676	0.00074	0.00074	0.6456	0.0045	0.3544	
343.2	2.12	0.01349	0.00051	0.00051	0.5023	0.0055	0.4977	
363.2	3.72	0.01513	0.00057	0.00057	0.384	0.0041	0.616	

System: toluene + hexane + 1-ethyl-3-methylimidazolium dicyanamide; phases: Liquid, Gas
Property: Mole fraction of hexane (Liquid); method: Gravimetric method + Mass balance
Property: Mole fraction of hexane (Gas); method: Gravimetric method + Mass balance
Property: Mole fraction of toluene (Gas); method: Gravimetric method + Mass balance
Temperature, K	Pressure, kPa	Mole fraction of toluene	Mole fraction of hexane	uncertainty	Mole fraction of hexane	uncertainty	Mole fraction of toluene	uncertainty
323.2	2.41	0.0164	0.0003	0.0003	0.6048	0.0043	0.3952	
343.2	3.42	0.01423	0.00027	0.00027	0.4514	0.0046	0.5486	
363.2	5.12	0.0153	0.0003	0.0003	0.3454	0.0036	0.6546	

System: toluene + heptane + 1-ethyl-3-methylimidazolium dicyanamide; phases: Liquid, Gas
Property: Mole fraction of heptane (Liquid); method: Gravimetric method + Mass balance
Property: Mole fraction of heptane (Gas); method: Gravimetric method + Mass balance
Property: Mole fraction of toluene (Gas); method: Gravimetric method + Mass balance
Temperature, K	Pressure, kPa	Mole fraction of toluene	Mole fraction of heptane	uncertainty	Mole fraction of heptane	uncertainty	Mole fraction of toluene	uncertainty
323.2	2.21	0.01397	0.00033	0.00033	0.5949	0.0042	0.4051	
343.2	3.36	0.01343	0.00027	0.00027	0.433	0.0043	0.567	
363.2	4.98	0.01488	0.00032	0.00032	0.3287	0.0035	0.6713	

System: toluene + octane + 1-ethyl-3-methylimidazolium dicyanamide; phases: Liquid, Gas
Property: Mole fraction of octane (Liquid); method: Gravimetric method + Mass balance
Property: Mole fraction of octane (Gas); method: Gravimetric method + Mass balance
Property: Mole fraction of toluene (Gas); method: Gravimetric method + Mass balance
Temperature, K	Pressure, kPa	Mole fraction of toluene	Mole fraction of octane	uncertainty	Mole fraction of octane	uncertainty	Mole fraction of toluene	uncertainty
323.2	2.32	0.01976	0.00044	0.00044	0.5359	0.0052	0.4641	
343.2	3.54	0.01887	0.00033	0.00033	0.3856	0.0041	0.6144	
363.2	5.71	0.01828	0.00032	0.00032	0.2784	0.0032	0.7216	

System: toluene + cyclohexane + 1-ethyl-3-methylimidazolium dicyanamide; phases: Liquid, Gas
Property: Mole fraction of cyclohexane (Liquid); method: Gravimetric method + Mass balance
Property: Mole fraction of cyclohexane (Gas); method: Gravimetric method + Mass balance
Property: Mole fraction of toluene (Gas); method: Gravimetric method + Mass balance
Temperature, K	Pressure, kPa	Mole fraction of toluene	Mole fraction of cyclohexane	uncertainty	Mole fraction of cyclohexane	uncertainty	Mole fraction of toluene	uncertainty
323.2	2.32	0.01882	0.00088	0.0008	0.5488	0.0047	0.4512	
343.2	3.59	0.01761	0.00079	0.00079	0.3971	0.0041	0.6029	
363.2	5.81	0.01776	0.00084	0.0008	0.299	0.0033	0.701	

System: toluene + 2,3-dimethylpentane + 1-ethyl-3-methylimidazolium dicyanamide; phases: Liquid, Gas
Property: Mole fraction of 2,3-dimethylpentane (Liquid); method: Gravimetric method + Mass balance
Property: Mole fraction of 2,3-dimethylpentane (Gas); method: Gravimetric method + Mass balance
Property: Mole fraction of toluene (Gas); method: Gravimetric method + Mass balance
Temperature, K	Pressure, kPa	Mole fraction of toluene	Mole fraction of 2,3-dimethylpentane	uncertainty	Mole fraction of 2,3-dimethylpentane	uncertainty	Mole fraction of toluene	uncertainty
323.2	2.45	0.01859	0.00031	0.00031	0.5777	0.0049	0.4223	
343.2	3.59	0.0174	0.0003	0.0003	0.4171	0.0044	0.5829	
363.2	5.73	0.01718	0.00032	0.00032	0.311	0.0034	0.689	

System: benzene + heptane + 1-ethyl-4-methylpyridinium bis((trifluoromethyl)sulfonyl)amide; phases: Liquid, Gas
Property: Mole fraction of heptane (Liquid); method: Gravimetric method + Mass balance
Property: Mole fraction of heptane (Gas); method: Gravimetric method + Mass balance
Property: Mole fraction of benzene (Gas); method: Gravimetric method + Mass balance
Temperature, K	Pressure, kPa	Mole fraction of benzene	Mole fraction of heptane	uncertainty	Mole fraction of heptane	uncertainty	Mole fraction of benzene	uncertainty
323.2	1.69	0.01588	0.00072	0.00072	0.48	0.0047	0.52	
343.2	2.54	0.0137	0.0005	0.0005	0.3869	0.0039	0.6131	
363.2	4.15	0.01343	0.00047	0.00047	0.2924	0.0032	0.7076	

System: 1,4-dimethylbenzene + heptane + 1-ethyl-4-methylpyridinium bis((trifluoromethyl)sulfonyl)amide; phases: Liquid, Gas
Property: Mole fraction of heptane (Liquid); method: Gravimetric method + Mass balance
Property: Mole fraction of heptane (Gas); method: Gravimetric method + Mass balance
Property: Mole fraction of 1,4-dimethylbenzene (Gas); method: Gravimetric method + Mass balance
Temperature, K	Pressure, kPa	Mole fraction of 1,4-dimethylbenzene	Mole fraction of heptane	uncertainty	Mole fraction of heptane	uncertainty	Mole fraction of 1,4-dimethylbenzene	uncertainty
323.2	1.27	0.01521	0.00089	0.0008	0.8009	0.0028	0.1991	
343.2	1.77	0.01288	0.00062	0.00062	0.6467	0.004	0.3533	
363.2	2.67	0.01309	0.00061	0.00061	0.4946	0.0052	0.5054	

System: ethylbenzene + heptane + 1-ethyl-4-methylpyridinium bis((trifluoromethyl)sulfonyl)amide; phases: Liquid, Gas
Property: Mole fraction of heptane (Liquid); method: Gravimetric method + Mass balance
Property: Mole fraction of heptane (Gas); method: Gravimetric method + Mass balance
Property: Mole fraction of ethylbenzene (Gas); method: Gravimetric method + Mass balance
Temperature, K	Pressure, kPa	Mole fraction of ethylbenzene	Mole fraction of heptane	uncertainty	Mole fraction of heptane	uncertainty	Mole fraction of ethylbenzene	uncertainty
323.2	1.22	0.01454	0.00086	0.0008	0.7822	0.0028	0.2178	
343.2	1.95	0.01457	0.00073	0.00073	0.6318	0.0038	0.3682	
363.2	2.84	0.01349	0.00061	0.00061	0.4705	0.0045	0.5295	

System: benzene + heptane + 1-ethyl-3-methylimidazolium dicyanamide; phases: Liquid, Gas
Property: Mole fraction of heptane (Liquid); method: Gravimetric method + Mass balance
Property: Mole fraction of heptane (Gas); method: Gravimetric method + Mass balance
Property: Mole fraction of benzene (Gas); method: Gravimetric method + Mass balance
Temperature, K	Pressure, kPa	Mole fraction of benzene	Mole fraction of heptane	uncertainty	Mole fraction of heptane	uncertainty	Mole fraction of benzene	uncertainty
323.2	2.93	0.0211	0.0004	0.0004	0.4691	0.0046	0.5309	
343.2	3.92	0.01718	0.00032	0.00032	0.3419	0.0036	0.6581	
363.2	5.38	0.01461	0.00029	0.00029	0.2543	0.003	0.7457	

System: 1,4-dimethylbenzene + heptane + 1-ethyl-3-methylimidazolium dicyanamide; phases: Liquid, Gas
Property: Mole fraction of heptane (Liquid); method: Gravimetric method + Mass balance
Property: Mole fraction of heptane (Gas); method: Gravimetric method + Mass balance
Property: Mole fraction of 1,4-dimethylbenzene (Gas); method: Gravimetric method + Mass balance
Temperature, K	Pressure, kPa	Mole fraction of 1,4-dimethylbenzene	Mole fraction of heptane	uncertainty	Mole fraction of heptane	uncertainty	Mole fraction of 1,4-dimethylbenzene	uncertainty
323.2	2.05	0.01843	0.00047	0.00047	0.7481	0.0032	0.2519	
343.2	3.11	0.0183	0.0004	0.0004	0.5747	0.0046	0.4253	
363.2	5.16	0.0184	0.0004	0.0004	0.3963	0.0042	0.6037	

System: ethylbenzene + heptane + 1-ethyl-3-methylimidazolium dicyanamide; phases: Liquid, Gas
Property: Mole fraction of heptane (Liquid); method: Gravimetric method + Mass balance
Property: Mole fraction of heptane (Gas); method: Gravimetric method + Mass balance
Property: Mole fraction of ethylbenzene (Gas); method: Gravimetric method + Mass balance
Temperature, K	Pressure, kPa	Mole fraction of ethylbenzene	Mole fraction of heptane	uncertainty	Mole fraction of heptane	uncertainty	Mole fraction of ethylbenzene	uncertainty
323.2	2.41	0.02052	0.00048	0.00048	0.7285	0.0031	0.2715	
343.2	3.06	0.01694	0.00036	0.00036	0.5273	0.0046	0.4727	
363.2	5.22	0.01812	0.00038	0.00038	0.3698	0.0037	0.6302	
