Measured thermophysical data. Structural, energetic and reactivity properties of phenoxazine and phenothiazine
Source: J. Chem. Thermodyn., 2014, 10.1016/j.jct.2013.11.013
Compound 1: carbon dioxide, CO2, InChI=1S/CO2/c2-1-3
Compound 2: nitrogen, N2, InChI=1S/N2/c1-2
Compound 3: water, H2O, InChI=1S/H2O/h1H2
Compound 4: oxygen, O2, InChI=1S/O2/c1-2
Compound 5: sulfuric acid, H2O4S, InChI=1S/H2O4S/c1-5(2,3)4/h(H2,1,2,3,4)
Compound 6: phenoxazine, C12H9NO, InChI=1S/C12H9NO/c1-3-7-11-9(5-1)13-10-6-2-4-8-12(10)14-11/h1-8,13H, purity 98.9%
Compound 7: 10H-phenothiazine, C12H9NS, InChI=1S/C12H9NS/c1-3-7-11-9(5-1)13-10-6-2-4-8-12(10)14-11/h1-8,13H, purity 99.9%

System: phenoxazine; phases: Crystal, Liquid, Air at 1 atmosphere
Property: Normal melting temperature, K (Crystal); method: DTA
Normal melting temperature, K	uncertainty
430.73	0.39

System: phenoxazine; phases: Crystal, Liquid, Air at 1 atmosphere
Property: Molar enthalpy of transition or fusion, kJ/mol (Crystal); method: DSC
Molar enthalpy of transition or fusion, kJ/mol	uncertainty
21.49	0.49

System: phenoxazine; phases: Crystal, Gas
Property: Molar enthalpy of vaporization or sublimation, kJ/mol (Crystal); method: Static calorimetry
Temperature, K	Molar enthalpy of vaporization or sublimation, kJ/mol	uncertainty
298.15	101.5	0.8

System: phenoxazine; phases: Crystal, Gas
Property: Vapor or sublimation pressure, kPa (Crystal); method: Calculated from knudsen effusion weight loss
Temperature, K	Vapor or sublimation pressure, kPa	uncertainty
333.18	9.52e-05	1.01e-05
335.2	0.000118	1.25e-05
337.1	0.0001421	1.51e-05
339.17	0.0001819	1.93e-05
341.24	0.0002236	2.37e-05
343.14	0.0002629	2.79e-05
345.17	0.0003308	3.51e-05
347.19	0.0004049	4.3e-05
349.11	0.0004776	5.07e-05
351.17	0.0006233	6.61e-05
353.17	0.0007525	7.98e-05
355.1	0.0008813	9.35e-05
357.1	0.0010693	0.0001316
333.18	9.41e-05	1e-05
335.2	0.0001178	1.25e-05
337.1	0.0001463	1.55e-05
339.17	0.0001789	1.9e-05
341.24	0.0002193	2.33e-05
343.14	0.0002773	2.94e-05
345.17	0.0003274	3.47e-05
347.19	0.0004072	4.32e-05
349.11	0.000488	5.18e-05
351.17	0.000606	6.43e-05
353.17	0.000734	7.79e-05
355.1	0.0008967	9.51e-05
357.1	0.0010754	0.0001324
333.18	9.09e-05	9.6e-06
335.2	0.0001119	1.19e-05
337.1	0.000143	1.52e-05
339.17	0.0001744	1.85e-05
341.24	0.0002141	2.27e-05
343.14	0.0002712	2.88e-05
345.17	0.0003216	3.41e-05
347.19	0.0003893	4.13e-05
349.11	0.0004919	5.22e-05
351.17	0.0005906	6.27e-05
353.17	0.0007159	7.59e-05
355.1	0.0008889	9.43e-05
357.1	0.0010772	0.0001327

System: phenoxazine; phases: Ideal gas
Fixed: Pressure, kPa = 101.325
Property: Molar heat capacity at constant pressure, J/K/mol (Ideal gas); method: Statistical thermodynamics
Temperature, K	Molar heat capacity at constant pressure, J/K/mol	uncertainty
200	125.32	6.27
250	158.86	7.94
298.15	190.9	9.55
300	192.1	9.61
350	223.64	11.18
400	252.63	12.63
450	278.77	13.94
500	302.07	15.1
550	322.76	16.14
600	341.12	17.06

System: 10H-phenothiazine; phases: Crystal, Liquid, Air at 1 atmosphere
Property: Normal melting temperature, K (Crystal); method: DTA
Normal melting temperature, K	uncertainty
458.85	0.39

System: 10H-phenothiazine; phases: Crystal, Liquid, Air at 1 atmosphere
Property: Molar enthalpy of transition or fusion, kJ/mol (Crystal); method: DSC
Molar enthalpy of transition or fusion, kJ/mol	uncertainty
26.91	0.6

System: 10H-phenothiazine; phases: Crystal, Gas
Property: Molar enthalpy of vaporization or sublimation, kJ/mol (Crystal); method: Static calorimetry
Temperature, K	Molar enthalpy of vaporization or sublimation, kJ/mol	uncertainty
298.15	103.3	0.6

System: 10H-phenothiazine; phases: Crystal, Gas
Property: Vapor or sublimation pressure, kPa (Crystal); method: Calculated from knudsen effusion weight loss
Temperature, K	Vapor or sublimation pressure, kPa	uncertainty
357.16	0.0001222	1.3e-05
359.11	0.0001593	1.69e-05
361.09	0.0001894	2.01e-05
363.16	0.0002278	2.42e-05
365.1	0.0002851	3.02e-05
367.08	0.0003279	3.48e-05
369.16	0.0004168	4.42e-05
371.1	0.000513	5.44e-05
375.14	0.0007525	7.98e-05
377.11	0.0008994	9.54e-05
379.1	0.0009984	0.0001059
357.16	0.000127	1.35e-05
359.11	0.000157	1.67e-05
363.16	0.0002302	2.44e-05
365.1	0.0002854	3.03e-05
367.08	0.0003408	3.62e-05
369.16	0.0004206	4.46e-05
371.1	0.0005122	5.43e-05
373.09	0.0006118	6.49e-05
375.14	0.0007352	7.8e-05
377.11	0.0008924	9.47e-05
379.1	0.0009874	0.0001047
357.16	0.0001245	1.32e-05
359.11	0.000151	1.6e-05
361.09	0.0001862	1.98e-05
363.16	0.0002289	2.43e-05
365.1	0.0002713	2.88e-05
367.08	0.0003366	3.57e-05
369.16	0.0004159	4.41e-05
371.1	0.000496	5.26e-05
373.09	0.0005996	6.36e-05
375.14	0.0007169	7.61e-05
377.11	0.0008545	9.06e-05
379.1	0.0010529	0.0001294

System: 10H-phenothiazine; phases: Ideal gas
Fixed: Pressure, kPa = 101.325
Property: Molar heat capacity at constant pressure, J/K/mol (Ideal gas); method: Statistical thermodynamics
Temperature, K	Molar heat capacity at constant pressure, J/K/mol	uncertainty
200	129.7	6.49
250	163.3	8.17
298.15	195.29	9.76
300	196.49	9.82
350	227.9	11.4
400	256.71	12.84
450	282.62	14.13
500	305.68	15.28
550	326.12	16.31
600	344.24	17.21

Reaction: -1 phenoxazine + 12 carbon dioxide + .5 nitrogen + 4.5 water + -13.75 oxygen
Property: Specific internal energy of reaction at constant volume, J/g
-32770.1

Reaction: -1 10H-phenothiazine + 1 sulfuric acid + 12 carbon dioxide + .5 nitrogen + 3.5 water + -15.75 oxygen
Property: Specific internal energy of reaction at constant volume, J/g
-33941.3
