Measured thermophysical data. Thermodynamic study of (anthracene + phenanthrene) solid state mixtures
Source: J. Chem. Thermodyn., 2015, 10.1016/j.jct.2015.06.021
Compound 1: anthracene, C14H10, InChI=1S/C14H10/c1-2-6-12-10-14-8-4-3-7-13(14)9-11(12)5-1/h1-10H, purity 99%
Compound 2: phenanthrene, C14H10, InChI=1S/C14H10/c1-3-7-13-11(5-1)9-10-12-6-2-4-8-14(12)13/h1-10H, purity 97%

System: anthracene; phases: Crystal, Liquid, Air at 1 atmosphere
Property: Molar enthalpy of transition or fusion, kJ/mol (Crystal); method: DSC
Molar enthalpy of transition or fusion, kJ/mol	uncertainty
27.39382804	3.86757364

System: anthracene; phases: Crystal, Liquid, Air at 1 atmosphere
Property: Normal melting temperature, K (Crystal); method: DTA
Normal melting temperature, K	uncertainty
490	2

System: anthracene; phases: Crystal, Gas
Property: Vapor or sublimation pressure, kPa (Crystal); method: Calculated from knudsen effusion weight loss
Temperature, K	Vapor or sublimation pressure, kPa	uncertainty
301.3	1.3e-06	1e-07
303.3	1.8e-06	2e-07
303.6	1.7e-06	2e-07
305.7	2.5e-06	3e-07
305.9	2.2e-06	2e-07
307.8	3.2e-06	6e-07
308.1	3.9e-06	6e-07
308.2	3.3e-06	3e-07
310	4.3e-06	4e-07
310.2	4.2e-06	5e-07
310.5	4.5e-06	5e-07
313.3	6.5e-06	6e-07
314.5	7.3e-06	7e-07
314.7	7.4e-06	7e-07
314.9	7.6e-06	8e-07
317.6	1.05e-05	1e-06
318.8	1.1e-05	1.1e-06
319.2	1.28e-05	1.5e-06
322.3	1.81e-05	1.8e-06
323.1	2.05e-05	2e-06
323.1	1.74e-05	1.7e-06
323.2	2.12e-05	2.1e-06
323.8	2.09e-05	2e-06
326.6	2.96e-05	2.9e-06
328	3.16e-05	3.1e-06
328.6	3.48e-05	3.5e-06
331.5	4.92e-05	4.9e-06
333.1	6.27e-05	6.2e-06
333.3	6.36e-05	6.2e-06
333.7	6.31e-05	6.1e-06
336.3	8.09e-05	7.9e-06
338.2	8.49e-05	8.3e-06
338.8	0.0001028	1.16e-05
338.8	9.99e-05	1.09e-05
343.1	0.000173	1.76e-05
343.1	0.0001738	1.79e-05
343.4	0.0001646	1.69e-05
343.4	0.0001599	1.78e-05
348.1	0.0002492	2.47e-05
348.2	0.0002587	2.56e-05
353.2	0.0004347	4.33e-05
363.2	0.0010178	0.0001179
373.2	0.0021575	0.0002644

System: phenanthrene; phases: Crystal, Liquid, Air at 1 atmosphere
Property: Molar enthalpy of transition or fusion, kJ/mol (Crystal); method: DSC
Molar enthalpy of transition or fusion, kJ/mol	uncertainty
15.149482	2.15657332

System: phenanthrene; phases: Crystal, Liquid, Air at 1 atmosphere
Property: Normal melting temperature, K (Crystal); method: DTA
Normal melting temperature, K	uncertainty
372	2

System: phenanthrene; phases: Crystal, Gas
Property: Vapor or sublimation pressure, kPa (Crystal); method: Calculated from knudsen effusion weight loss
Temperature, K	Vapor or sublimation pressure, kPa	uncertainty
296.2	1.61e-05	1.6e-06
297.2	1.86e-05	1.9e-06
298.2	2.1e-05	2.1e-06
299.2	2.43e-05	2.4e-06
300.2	2.7e-05	2.7e-06
301.2	3e-05	3e-06
302.2	3.43e-05	3.4e-06
303.2	3.83e-05	3.8e-06
304.2	4.3e-05	4.3e-06
305.2	4.88e-05	4.9e-06
306.2	5.4e-05	5.4e-06
307.2	6.08e-05	6e-06
308.2	6.73e-05	6.7e-06
309.2	7.49e-05	7.4e-06
310.2	8.41e-05	8.3e-06
311.2	9.35e-05	9.3e-06
312.2	0.0001041	1.03e-05
313.2	0.0001151	1.14e-05

System: phenanthrene + anthracene; phases: Liquid, Crystal
Fixed: Pressure, kPa = 101
Property: Solid-liquid equilibrium temperature, K (Liquid); method: VISOBS
Mole fraction of anthracene	Solid-liquid equilibrium temperature, K	uncertainty
1	490	2
0.9	486	2
0.8	481	3
0.7	473	3
0.6	467	3
0.5	460	3
0.4	448	3
0.3	435	4
0.2	416	5
0.1	388	5
0	372	3

System: phenanthrene + anthracene; phases: Crystal, Gas
Fixed: Mole fraction of phenanthrene = 0.9
Property: Vapor or sublimation pressure, kPa (Crystal); method: Knudsen effusion method
Temperature, K	Vapor or sublimation pressure, kPa	uncertainty
308.2	5.5e-05	6.5e-06
313.2	9.07e-05	1.06e-05
318.2	0.0001653	1.92e-05

System: phenanthrene + anthracene; phases: Crystal, Liquid
Fixed: Pressure, kPa = 101
Property: Solid-liquid equilibrium temperature, K (Crystal); method: DTA
Mole fraction of anthracene	Solid-liquid equilibrium temperature, K	uncertainty
0.9	373	2
0.8	373	2
0.7	373	2
0.6	373	2
0.5	372	2
0.4	373	2
0.3	372	2
0.2	372	2
0.1	372	3
