Measured thermophysical data. (Liquid + liquid) equilibrium of (imidazolium ionic liquids + organic salts) aqueous two-phase systems at T = 298.15 K and the influence of salts and ionic liquids on the phase separation
Source: J. Chem. Thermodyn., 2012, 10.1016/j.jct.2011.09.004
Compound 1: sodium 2-hydroxypropane-1,2,3-tricarboxylate dihydrate, C6H9Na3O9, InChI=1S/C6H8O7.3Na.2H2O/c7-3(8)1-6(13,5(11)12)2-4(9)10;;;;;/h13H,1-2H2,(H,7,8)(H,9,10)(H,11,12);;;;2*1H2/q;3*+1;;/p-3, purity 99%
Compound 2: water, H2O, InChI=1S/H2O/h1H2, purity 99.8%
Compound 3: 1-ethyl-3-methylimidazolium tetrafluoroborate, C6H11BF4N2, InChI=1S/C6H11N2.BF4/c1-3-8-5-4-7(2)6-8;2-1(3,4)5/h4-6H,3H2,1-2H3;/q+1;-1, purity 99%
Compound 4: ammonium 2-hydroxypropane-1,2,3-tricarboxylate, C6H17N3O7, InChI=1S/C6H8O7.3H3N/c7-3(8)1-6(13,5(11)12)2-4(9)10;;;/h13H,1-2H2,(H,7,8)(H,9,10)(H,11,12);3*1H3, purity 99%
Compound 5: disodium L-tartrate dihydrate, C4H8Na2O8, InChI=1S/C4H6O6.2Na.2H2O/c5-1(3(7)8)2(6)4(9)10;;;;/h1-2,5-6H,(H,7,8)(H,9,10);;;2*1H2/q;2*+1;;/p-2/t1-,2-;;;;/m1..../s1, purity 99%
Compound 6: disodium succinate, C4H4Na2O4, InChI=1S/C4H6O4.2Na/c5-3(6)1-2-4(7)8;;/h1-2H2,(H,5,6)(H,7,8);;/q;2*+1/p-2, purity 99%
Compound 7: 1-propyl-3-methylimidazolium tetrafluoroborate, C7H13BF4N2, InChI=1S/C7H13N2.BF4/c1-3-4-9-6-5-8(2)7-9;2-1(3,4)5/h5-7H,3-4H2,1-2H3;/q+1;-1, purity 99%

System: sodium 2-hydroxypropane-1,2,3-tricarboxylate dihydrate + water + 1-ethyl-3-methylimidazolium tetrafluoroborate; phases: Liquid mixture 1, Liquid mixture 2
Fixed: Temperature, K = 298.15
Fixed: Pressure, kPa = 101
Property: Mass fraction of sodium 2-hydroxypropane-1,2,3-tricarboxylate dihydrate (Liquid mixture 1); method: Titration method
Property: Mass fraction of sodium 2-hydroxypropane-1,2,3-tricarboxylate dihydrate (Liquid mixture 2); method: Titration method
Property: Mass fraction of 1-ethyl-3-methylimidazolium tetrafluoroborate (Liquid mixture 2); method: Titration method
Mass fraction of 1-ethyl-3-methylimidazolium tetrafluoroborate	Mass fraction of sodium 2-hydroxypropane-1,2,3-tricarboxylate dihydrate	uncertainty	Mass fraction of sodium 2-hydroxypropane-1,2,3-tricarboxylate dihydrate	uncertainty	Mass fraction of 1-ethyl-3-methylimidazolium tetrafluoroborate	uncertainty
0.6717	0.0104	0.0005	0.1353	0.0042	0.2187	
0.5318	0.0337	0.001	0.0956	0.003	0.3118	
0.587	0.0231	0.0008	0.1106	0.0034	0.2734	
0.6215	0.0174	0.0006	0.1225	0.0038	0.2456	

System: sodium 2-hydroxypropane-1,2,3-tricarboxylate dihydrate + water + 1-ethyl-3-methylimidazolium tetrafluoroborate; phases: Liquid mixture 1, Liquid mixture 2
Fixed: Temperature, K = 298.15
Fixed: Pressure, kPa = 101
Property: Mass fraction of sodium 2-hydroxypropane-1,2,3-tricarboxylate dihydrate (Liquid mixture 1); method: Titration method
Mass fraction of 1-ethyl-3-methylimidazolium tetrafluoroborate	Mass fraction of sodium 2-hydroxypropane-1,2,3-tricarboxylate dihydrate	uncertainty
0.116	0.2061	0.0067
0.128	0.1931	0.0063
0.1389	0.1842	0.006
0.1524	0.1726	0.0056
0.1658	0.1624	0.0052
0.1772	0.1554	0.0049
0.1937	0.1479	0.0048
0.2018	0.142	0.0046
0.2198	0.1348	0.0044
0.2258	0.1305	0.0044
0.2369	0.1248	0.0041
0.2563	0.1188	0.004
0.2633	0.1131	0.0039
0.2796	0.1087	0.0037
0.2981	0.1021	0.0036
0.3172	0.0945	0.0034
0.3385	0.0859	0.0032
0.3593	0.0799	0.0031
0.3823	0.0712	0.0029
0.4154	0.0616	0.0027
0.4318	0.0573	0.0026
0.451	0.0532	0.0025
0.47	0.0483	0.0025
0.471	0.0478	0.0025
0.4909	0.0434	0.0024
0.5133	0.0379	0.0023
0.5455	0.0318	0.0022
0.5735	0.0253	0.0022
0.5945	0.022	0.0021
0.628	0.0151	0.0021
0.6436	0.0133	0.0021
0.6695	0.0101	0.002
0.7014	0.0076	0.002
0.7159	0.0061	0.002

System: ammonium 2-hydroxypropane-1,2,3-tricarboxylate + water + 1-ethyl-3-methylimidazolium tetrafluoroborate; phases: Liquid mixture 1, Liquid mixture 2
Fixed: Temperature, K = 298.15
Fixed: Pressure, kPa = 101
Property: Mass fraction of ammonium 2-hydroxypropane-1,2,3-tricarboxylate (Liquid mixture 1); method: Titration method
Mass fraction of 1-ethyl-3-methylimidazolium tetrafluoroborate	Mass fraction of ammonium 2-hydroxypropane-1,2,3-tricarboxylate	uncertainty
0.0536	0.389	0.0135
0.0581	0.3752	0.0138
0.065	0.3467	0.0129
0.0707	0.3307	0.0122
0.0769	0.3077	0.0108
0.0859	0.2913	0.0097
0.0962	0.2724	0.0091
0.1069	0.2542	0.0084
0.1319	0.2202	0.0072
0.1576	0.1963	0.0063
0.1702	0.1856	0.006
0.1991	0.1631	0.0052
0.2228	0.1489	0.0048
0.2326	0.1443	0.0047
0.2601	0.1292	0.0043
0.2767	0.1217	0.0041
0.2966	0.1142	0.0039
0.3222	0.104	0.0036
0.3411	0.0961	0.0035
0.366	0.087	0.0033
0.3869	0.0796	0.0031
0.4255	0.0684	0.0029
0.4443	0.061	0.003
0.4657	0.0552	0.0026
0.4859	0.0503	0.0025
0.5082	0.0455	0.0024
0.5349	0.0371	0.0023
0.5544	0.0334	0.0022
0.5777	0.0295	0.0022
0.6142	0.0222	0.0021
0.6487	0.0175	0.0021
0.6828	0.0114	0.002
0.7091	0.0092	0.002
0.7436	0.0048	0.002
0.7691	0.0028	0.002

System: ammonium 2-hydroxypropane-1,2,3-tricarboxylate + water + 1-ethyl-3-methylimidazolium tetrafluoroborate; phases: Liquid mixture 1, Liquid mixture 2
Fixed: Temperature, K = 298.15
Fixed: Pressure, kPa = 101
Property: Mass fraction of ammonium 2-hydroxypropane-1,2,3-tricarboxylate (Liquid mixture 1); method: Titration method
Property: Mass fraction of ammonium 2-hydroxypropane-1,2,3-tricarboxylate (Liquid mixture 2); method: Titration method
Property: Mass fraction of 1-ethyl-3-methylimidazolium tetrafluoroborate (Liquid mixture 2); method: Titration method
Mass fraction of 1-ethyl-3-methylimidazolium tetrafluoroborate	Mass fraction of ammonium 2-hydroxypropane-1,2,3-tricarboxylate	uncertainty	Mass fraction of ammonium 2-hydroxypropane-1,2,3-tricarboxylate	uncertainty	Mass fraction of 1-ethyl-3-methylimidazolium tetrafluoroborate	uncertainty
0.7811	0.0014	0.0004	0.1943	0.006	0.1649	
0.6977	0.0103	0.0005	0.1592	0.0049	0.211	
0.7435	0.0048	0.0004	0.1764	0.0055	0.1868	
0.7206	0.0074	0.0005	0.1684	0.0052	0.1976	

System: disodium L-tartrate dihydrate + water + 1-ethyl-3-methylimidazolium tetrafluoroborate; phases: Liquid mixture 1, Liquid mixture 2
Fixed: Temperature, K = 298.15
Fixed: Pressure, kPa = 101
Property: Mass fraction of disodium L-tartrate dihydrate (Liquid mixture 1); method: Titration method
Mass fraction of 1-ethyl-3-methylimidazolium tetrafluoroborate	Mass fraction of disodium L-tartrate dihydrate	uncertainty
0.1292	0.2082	0.0067
0.1402	0.1979	0.0064
0.1485	0.1911	0.0061
0.1558	0.1855	0.0059
0.1658	0.1795	0.0057
0.1851	0.1677	0.0053
0.1955	0.1626	0.0051
0.2068	0.157	0.005
0.2189	0.1511	0.0048
0.2325	0.1451	0.0047
0.2442	0.1388	0.0045
0.2638	0.1335	0.0043
0.2797	0.1264	0.0042
0.2998	0.1174	0.004
0.3143	0.1125	0.0038
0.3582	0.0982	0.0035
0.3794	0.091	0.003
0.3999	0.0841	0.0032
0.4219	0.0762	0.003
0.4428	0.0706	0.0029
0.4654	0.0638	0.0028
0.4913	0.0569	0.0026
0.5198	0.049	0.003
0.5457	0.0413	0.0024
0.5717	0.0361	0.0023
0.602	0.0283	0.0022
0.6261	0.0249	0.0021
0.6565	0.0195	0.0021
0.6844	0.0153	0.0021
0.7139	0.0114	0.002
0.7469	0.0072	0.002
0.7673	0.0046	0.002
0.7979	0.0026	0.002

System: disodium L-tartrate dihydrate + water + 1-ethyl-3-methylimidazolium tetrafluoroborate; phases: Liquid mixture 2, Liquid mixture 1
Fixed: Temperature, K = 298.15
Fixed: Pressure, kPa = 101
Property: Mass fraction of disodium L-tartrate dihydrate (Liquid mixture 2); method: Titration method
Property: Mass fraction of disodium L-tartrate dihydrate (Liquid mixture 1); method: Titration method
Property: Mass fraction of 1-ethyl-3-methylimidazolium tetrafluoroborate (Liquid mixture 1); method: Titration method
Mass fraction of 1-ethyl-3-methylimidazolium tetrafluoroborate	Mass fraction of disodium L-tartrate dihydrate	uncertainty	Mass fraction of disodium L-tartrate dihydrate	uncertainty	Mass fraction of 1-ethyl-3-methylimidazolium tetrafluoroborate	uncertainty
0.2306	0.147	0.005	0.03	0.01	0.6011	
0.1967	0.1634	0.0051	0.0216	0.0007	0.6443	
0.1738	0.1756	0.0054	0.016	0.001	0.6775	
0.1531	0.1876	0.0058	0.0126	0.0005	0.7004	

System: disodium succinate + water + 1-ethyl-3-methylimidazolium tetrafluoroborate; phases: Liquid mixture 1, Liquid mixture 2
Fixed: Temperature, K = 298.15
Fixed: Pressure, kPa = 101
Property: Mass fraction of disodium succinate (Liquid mixture 1); method: Titration method
Mass fraction of 1-ethyl-3-methylimidazolium tetrafluoroborate	Mass fraction of disodium succinate	uncertainty
0.1902	0.1456	0.0048
0.1995	0.1389	0.0045
0.2358	0.1223	0.0041
0.2596	0.1135	0.0039
0.2886	0.1027	0.0036
0.3131	0.0942	0.0034
0.3334	0.0873	0.0032
0.3563	0.0802	0.003
0.3601	0.0801	0.0031
0.3742	0.0767	0.003
0.3937	0.0705	0.0029
0.4244	0.0631	0.0027
0.4329	0.061	0.0027
0.4423	0.0589	0.0026
0.4611	0.0551	0.0026
0.4716	0.0525	0.0025
0.4799	0.0507	0.0025
0.5021	0.0456	0.0024
0.5181	0.042	0.0024
0.5542	0.0358	0.0023
0.5609	0.0336	0.0023
0.594	0.0292	0.0022
0.6023	0.0274	0.0022
0.6361	0.0232	0.0021
0.6552	0.0211	0.0021
0.6843	0.0177	0.0021
0.7254	0.0151	0.002

System: disodium succinate + water + 1-ethyl-3-methylimidazolium tetrafluoroborate; phases: Liquid mixture 2, Liquid mixture 1
Fixed: Temperature, K = 298.15
Fixed: Pressure, kPa = 101
Property: Mass fraction of disodium succinate (Liquid mixture 2); method: Titration method
Property: Mass fraction of disodium succinate (Liquid mixture 1); method: Titration method
Property: Mass fraction of 1-ethyl-3-methylimidazolium tetrafluoroborate (Liquid mixture 1); method: Titration method
Mass fraction of 1-ethyl-3-methylimidazolium tetrafluoroborate	Mass fraction of disodium succinate	uncertainty	Mass fraction of disodium succinate	uncertainty	Mass fraction of 1-ethyl-3-methylimidazolium tetrafluoroborate	uncertainty
0.2946	0.1013	0.0031	0.0122	0.0005	0.7525	
0.2666	0.1113	0.0035	0.0101	0.0005	0.7827	
0.329	0.0899	0.0028	0.0157	0.0006	0.71	
0.2542	0.116	0.004	0.0087	0.0005	0.8056	

System: sodium 2-hydroxypropane-1,2,3-tricarboxylate dihydrate + water + 1-propyl-3-methylimidazolium tetrafluoroborate; phases: Liquid mixture 1, Liquid mixture 2
Fixed: Temperature, K = 298.15
Fixed: Pressure, kPa = 101
Property: Mass fraction of sodium 2-hydroxypropane-1,2,3-tricarboxylate dihydrate (Liquid mixture 1); method: Titration method
Mass fraction of 1-propyl-3-methylimidazolium tetrafluoroborate	Mass fraction of sodium 2-hydroxypropane-1,2,3-tricarboxylate dihydrate	uncertainty
0.0944	0.2046	0.0069
0.1102	0.184	0.006
0.1223	0.1701	0.0057
0.1313	0.1614	0.0054
0.1413	0.1519	0.0051
0.1496	0.145	0.005
0.1585	0.1384	0.0046
0.1672	0.132	0.004
0.1682	0.1313	0.0044
0.1782	0.1249	0.0042
0.1876	0.1192	0.0041
0.1974	0.1142	0.0039
0.2076	0.1091	0.0038
0.217	0.1055	0.0037
0.2244	0.1015	0.0036
0.2352	0.0968	0.0035
0.2549	0.0913	0.0033
0.2675	0.0868	0.0032
0.2893	0.0803	0.0031
0.3077	0.0755	0.003
0.328	0.071	0.003
0.3488	0.0671	0.0028
0.3697	0.0627	0.0027
0.3808	0.0607	0.0027
0.4026	0.0573	0.0026
0.4161	0.0555	0.0026
0.4325	0.0521	0.0025
0.4482	0.0492	0.0025
0.4735	0.0455	0.0024
0.5176	0.0387	0.0023
0.5486	0.0342	0.0022
0.5806	0.0299	0.0022
0.6157	0.0251	0.0021

System: sodium 2-hydroxypropane-1,2,3-tricarboxylate dihydrate + water + 1-propyl-3-methylimidazolium tetrafluoroborate; phases: Liquid mixture 2, Liquid mixture 1
Fixed: Temperature, K = 298.15
Fixed: Pressure, kPa = 101
Property: Mass fraction of sodium 2-hydroxypropane-1,2,3-tricarboxylate dihydrate (Liquid mixture 2); method: Titration method
Property: Mass fraction of sodium 2-hydroxypropane-1,2,3-tricarboxylate dihydrate (Liquid mixture 1); method: Titration method
Property: Mass fraction of 1-propyl-3-methylimidazolium tetrafluoroborate (Liquid mixture 1); method: Titration method
Mass fraction of 1-propyl-3-methylimidazolium tetrafluoroborate	Mass fraction of sodium 2-hydroxypropane-1,2,3-tricarboxylate dihydrate	uncertainty	Mass fraction of sodium 2-hydroxypropane-1,2,3-tricarboxylate dihydrate	uncertainty	Mass fraction of 1-propyl-3-methylimidazolium tetrafluoroborate	uncertainty
0.1767	0.1245	0.0039	0.0333	0.001	0.5557	
0.1657	0.1311	0.0041	0.0298	0.0009	0.582	
0.1612	0.134	0.0042	0.0283	0.0009	0.5934	
0.1935	0.1157	0.0036	0.0371	0.0012	0.528	

System: ammonium 2-hydroxypropane-1,2,3-tricarboxylate + water + 1-propyl-3-methylimidazolium tetrafluoroborate; phases: Liquid mixture 1, Liquid mixture 2
Fixed: Temperature, K = 298.15
Fixed: Pressure, kPa = 101
Property: Mass fraction of ammonium 2-hydroxypropane-1,2,3-tricarboxylate (Liquid mixture 1); method: Titration method
Mass fraction of 1-propyl-3-methylimidazolium tetrafluoroborate	Mass fraction of ammonium 2-hydroxypropane-1,2,3-tricarboxylate	uncertainty
0.0647	0.3467	0.0126
0.0685	0.3342	0.012
0.0722	0.3237	0.0127
0.0791	0.294	0.012
0.0831	0.2807	0.0104
0.0892	0.2646	0.0094
0.1018	0.2366	0.0084
0.1145	0.2139	0.0074
0.1253	0.199	0.007
0.135	0.1861	0.0062
0.1501	0.1716	0.0056
0.1669	0.1584	0.0051
0.1832	0.1459	0.0048
0.1967	0.1365	0.0045
0.2136	0.1277	0.0043
0.246	0.1082	0.0038
0.2668	0.1004	0.0035
0.2861	0.0949	0.0034
0.297	0.0909	0.0033
0.3214	0.0847	0.0032
0.3452	0.0798	0.003
0.3608	0.076	0.003
0.3808	0.0708	0.0029
0.4203	0.0621	0.0027
0.4602	0.0539	0.0025
0.4947	0.0507	0.0025
0.5205	0.0475	0.0024
0.5459	0.043	0.002
0.5684	0.0392	0.0023
0.5793	0.0376	0.0023
0.6028	0.0351	0.0022
0.6462	0.0308	0.0022
0.6694	0.0277	0.0022
0.7327	0.0205	0.0021
0.7834	0.017	0.002

System: ammonium 2-hydroxypropane-1,2,3-tricarboxylate + water + 1-propyl-3-methylimidazolium tetrafluoroborate; phases: Liquid mixture 2, Liquid mixture 1
Fixed: Temperature, K = 298.15
Fixed: Pressure, kPa = 101
Property: Mass fraction of ammonium 2-hydroxypropane-1,2,3-tricarboxylate (Liquid mixture 2); method: Titration method
Property: Mass fraction of ammonium 2-hydroxypropane-1,2,3-tricarboxylate (Liquid mixture 1); method: Titration method
Property: Mass fraction of 1-propyl-3-methylimidazolium tetrafluoroborate (Liquid mixture 1); method: Titration method
Mass fraction of 1-propyl-3-methylimidazolium tetrafluoroborate	Mass fraction of ammonium 2-hydroxypropane-1,2,3-tricarboxylate	uncertainty	Mass fraction of ammonium 2-hydroxypropane-1,2,3-tricarboxylate	uncertainty	Mass fraction of 1-propyl-3-methylimidazolium tetrafluoroborate	uncertainty
0.1336	0.1842	0.0057	0.0336	0.001	0.6139	
0.1206	0.1966	0.0061	0.0294	0.0009	0.6513	
0.1403	0.1773	0.0055	0.0374	0.0012	0.5825	
0.1163	0.2053	0.0064	0.026	0.001	0.6841	

System: disodium L-tartrate dihydrate + water + 1-propyl-3-methylimidazolium tetrafluoroborate; phases: Liquid mixture 1, Liquid mixture 2
Fixed: Temperature, K = 298.15
Fixed: Pressure, kPa = 101
Property: Mass fraction of disodium L-tartrate dihydrate (Liquid mixture 1); method: Titration method
Mass fraction of 1-propyl-3-methylimidazolium tetrafluoroborate	Mass fraction of disodium L-tartrate dihydrate	uncertainty
0.1231	0.1881	0.0061
0.1382	0.1739	0.0057
0.1532	0.1613	0.0053
0.1631	0.1533	0.005
0.176	0.1436	0.0048
0.181	0.1397	0.0046
0.1963	0.1312	0.0044
0.2116	0.1226	0.0041
0.223	0.1178	0.004
0.235	0.1127	0.0039
0.2485	0.1072	0.0037
0.2621	0.1025	0.0036
0.2755	0.0977	0.0035
0.2984	0.0919	0.0033
0.3151	0.0874	0.0032
0.3282	0.0843	0.0032
0.3384	0.0809	0.0031
0.3589	0.0766	0.003
0.3671	0.0752	0.0029
0.3794	0.0729	0.0029
0.3871	0.0717	0.0029
0.3913	0.0708	0.0029
0.4093	0.0667	0.0028
0.4093	0.0675	0.0028
0.4427	0.0612	0.0027
0.5077	0.0507	0.0025

System: disodium L-tartrate dihydrate + water + 1-propyl-3-methylimidazolium tetrafluoroborate; phases: Liquid mixture 2, Liquid mixture 1
Fixed: Temperature, K = 298.15
Fixed: Pressure, kPa = 101
Property: Mass fraction of disodium L-tartrate dihydrate (Liquid mixture 2); method: Titration method
Property: Mass fraction of disodium L-tartrate dihydrate (Liquid mixture 1); method: Titration method
Property: Mass fraction of 1-propyl-3-methylimidazolium tetrafluoroborate (Liquid mixture 1); method: Titration method
Mass fraction of 1-propyl-3-methylimidazolium tetrafluoroborate	Mass fraction of disodium L-tartrate dihydrate	uncertainty	Mass fraction of disodium L-tartrate dihydrate	uncertainty	Mass fraction of 1-propyl-3-methylimidazolium tetrafluoroborate	uncertainty
0.1539	0.1587	0.0049	0.0527	0.0016	0.4959	
0.1453	0.1665	0.0052	0.0486	0.0015	0.5246	
0.1602	0.1532	0.0048	0.0567	0.0018	0.4695	
0.1633	0.1512	0.0047	0.0585	0.0018	0.4582	

System: disodium succinate + water + 1-propyl-3-methylimidazolium tetrafluoroborate; phases: Liquid mixture 1, Liquid mixture 2
Fixed: Temperature, K = 298.15
Fixed: Pressure, kPa = 101
Property: Mass fraction of disodium succinate (Liquid mixture 1); method: Titration method
Mass fraction of 1-propyl-3-methylimidazolium tetrafluoroborate	Mass fraction of disodium succinate	uncertainty
0.1825	0.1218	0.0041
0.2009	0.1112	0.0039
0.2122	0.106	0.004
0.2418	0.0924	0.0034
0.2512	0.0886	0.0033
0.2651	0.0842	0.0032
0.2719	0.0821	0.0031
0.2892	0.0773	0.003
0.2972	0.0751	0.003
0.3068	0.0727	0.0029
0.3177	0.0716	0.0029
0.3218	0.0696	0.0028
0.337	0.0666	0.0028
0.3411	0.0651	0.0028
0.3537	0.0629	0.0027
0.3765	0.0592	0.0026
0.3935	0.0551	0.0026
0.4102	0.0527	0.0025
0.4309	0.0496	0.0025
0.4546	0.0464	0.0024
0.4785	0.0438	0.0024
0.5095	0.0396	0.0023
0.5587	0.0341	0.0022
0.5859	0.0311	0.0022
0.6235	0.026	0.002
0.6501	0.0236	0.0021
0.6984	0.0177	0.0021

System: disodium succinate + water + 1-propyl-3-methylimidazolium tetrafluoroborate; phases: Liquid mixture 1, Liquid mixture 2
Fixed: Temperature, K = 298.15
Fixed: Pressure, kPa = 101
Property: Mass fraction of disodium succinate (Liquid mixture 1); method: Titration method
Property: Mass fraction of disodium succinate (Liquid mixture 2); method: Titration method
Property: Mass fraction of 1-propyl-3-methylimidazolium tetrafluoroborate (Liquid mixture 2); method: Titration method
Mass fraction of 1-propyl-3-methylimidazolium tetrafluoroborate	Mass fraction of disodium succinate	uncertainty	Mass fraction of disodium succinate	uncertainty	Mass fraction of 1-propyl-3-methylimidazolium tetrafluoroborate	uncertainty
0.5449	0.0353	0.0011	0.1015	0.0032	0.2188	
0.5932	0.0298	0.0009	0.1093	0.0034	0.2038	
0.5666	0.0328	0.001	0.1066	0.0033	0.2086	
0.5099	0.0395	0.0012	0.0923	0.0029	0.2409	
