Measured thermophysical data. Isobaric VLE data for 1-methyl-3-ethylbenzene or 1-methyl-4-ethylbenzene + 1,2,4-trimethylbenzene at 20 kPa
Source: J. Chem. Thermodyn., 2013, 10.1016/j.jct.2013.01.016
Compound 1: 1-ethyl-3-methylbenzene, C9H12, InChI=1S/C9H12/c1-3-9-6-4-5-8(2)7-9/h4-7H,3H2,1-2H3, purity 99.1%
Compound 2: 1-ethyl-4-methylbenzene, C9H12, InChI=1S/C9H12/c1-3-9-6-4-8(2)5-7-9/h4-7H,3H2,1-2H3, purity 99.9%
Compound 3: 1,2,4-trimethylbenzene, C9H12, InChI=1S/C9H12/c1-7-4-5-8(2)9(3)6-7/h4-6H,1-3H3, purity 99.9%

System: 1-ethyl-3-methylbenzene; phases: Liquid
Property: Mass density, kg/m3 (Liquid); method: Vibrating tube method
Temperature, K	Pressure, kPa	Mass density, kg/m3	uncertainty
293.15	101.325	864.44	0.21

System: 1-ethyl-3-methylbenzene; phases: Liquid
Property: Refractive index (Na D-line) (Liquid); method: Standard Abbe refractometry
Temperature, K	Pressure, kPa	Refractive index (Na D-line)	uncertainty
293.15	101.325	1.4964	0.0007

System: 1-ethyl-3-methylbenzene; phases: Liquid, Gas
Property: Vapor or sublimation pressure, kPa (Liquid); method: Ebulliometric method (Recirculating still)
Temperature, K	Vapor or sublimation pressure, kPa	uncertainty
380.65	20	0.12

System: 1-ethyl-4-methylbenzene; phases: Liquid
Property: Mass density, kg/m3 (Liquid); method: Vibrating tube method
Temperature, K	Pressure, kPa	Mass density, kg/m3	uncertainty
293.15	101.325	861.07	0.1

System: 1-ethyl-4-methylbenzene; phases: Liquid
Property: Refractive index (Na D-line) (Liquid); method: Standard Abbe refractometry
Temperature, K	Pressure, kPa	Refractive index (Na D-line)	uncertainty
293.15	101.325	1.4948	0.0007

System: 1-ethyl-4-methylbenzene; phases: Liquid, Gas
Property: Vapor or sublimation pressure, kPa (Liquid); method: Ebulliometric method (Recirculating still)
Temperature, K	Vapor or sublimation pressure, kPa	uncertainty
380.74	20	0.12

System: 1,2,4-trimethylbenzene; phases: Liquid
Property: Mass density, kg/m3 (Liquid); method: Vibrating tube method
Temperature, K	Pressure, kPa	Mass density, kg/m3	uncertainty
293.15	101.325	875.78	0.1

System: 1,2,4-trimethylbenzene; phases: Liquid
Property: Refractive index (Na D-line) (Liquid); method: Standard Abbe refractometry
Temperature, K	Pressure, kPa	Refractive index (Na D-line)	uncertainty
293.15	101.325	1.5047	0.0007

System: 1,2,4-trimethylbenzene; phases: Liquid, Gas
Property: Vapor or sublimation pressure, kPa (Liquid); method: Ebulliometric method (Recirculating still)
Temperature, K	Vapor or sublimation pressure, kPa	uncertainty
387.87	20	0.12

System: 1,2,4-trimethylbenzene + 1-ethyl-3-methylbenzene; phases: Liquid, Gas
Fixed: Pressure, kPa = 20
Property: Boiling temperature at pressure P, K (Liquid); method: Ebulliometric method (Recirculating still)
Mole fraction of 1-ethyl-3-methylbenzene	Boiling temperature at pressure P, K	uncertainty
0	387.87	0.12
0.043	387.52	0.12
0.102	387.05	0.12
0.172	386.49	0.12
0.25	385.89	0.12
0.317	385.38	0.12
0.386	384.87	0.12
0.455	384.37	0.12
0.512	383.96	0.12
0.594	383.38	0.12
0.678	382.79	0.12
0.741	382.36	0.12
0.811	381.89	0.12
0.878	381.45	0.12
0.957	380.93	0.12
1	380.65	0.12

System: 1,2,4-trimethylbenzene + 1-ethyl-3-methylbenzene; phases: Gas, Liquid
Fixed: Pressure, kPa = 20
Property: Mole fraction of 1-ethyl-3-methylbenzene (Gas); method: Chromatography
Mole fraction of 1-ethyl-3-methylbenzene	Mole fraction of 1-ethyl-3-methylbenzene	uncertainty
0	0	
0.043	0.055	0.002
0.102	0.128	0.002
0.172	0.211	0.002
0.25	0.3	0.003
0.317	0.373	0.004
0.386	0.446	0.005
0.455	0.516	0.005
0.512	0.573	0.005
0.594	0.651	0.004
0.678	0.728	0.003
0.741	0.785	0.003
0.811	0.845	0.002
0.878	0.902	0.002
0.957	0.966	0.001
1	1	

System: 1,2,4-trimethylbenzene + 1-ethyl-4-methylbenzene; phases: Liquid, Gas
Fixed: Pressure, kPa = 20
Property: Boiling temperature at pressure P, K (Liquid); method: Ebulliometric method (Recirculating still)
Mole fraction of 1-ethyl-4-methylbenzene	Boiling temperature at pressure P, K	uncertainty
0	387.87	0.12
0.039	387.58	0.12
0.101	387.12	0.12
0.182	386.53	0.12
0.255	386	0.12
0.319	385.54	0.12
0.403	384.93	0.12
0.482	384.36	0.12
0.554	383.85	0.12
0.632	383.29	0.12
0.711	382.74	0.12
0.789	382.19	0.12
0.857	381.72	0.12
0.928	381.23	0.12
1	380.74	0.12

System: 1,2,4-trimethylbenzene + 1-ethyl-4-methylbenzene; phases: Gas, Liquid
Fixed: Pressure, kPa = 20
Property: Mole fraction of 1-ethyl-4-methylbenzene (Gas); method: Chromatography
Mole fraction of 1-ethyl-4-methylbenzene	Mole fraction of 1-ethyl-4-methylbenzene	uncertainty
0	0	
0.039	0.048	0.002
0.101	0.124	0.002
0.182	0.219	0.002
0.255	0.302	0.003
0.319	0.372	0.004
0.403	0.462	0.004
0.482	0.543	0.004
0.554	0.614	0.004
0.632	0.688	0.003
0.711	0.76	0.003
0.789	0.829	0.002
0.857	0.886	0.002
0.928	0.944	0.001
1	1	
