Measured thermophysical data. Densities, speeds of sound and viscosities of binary mixtures of tetrahydrofuran with 1-hexanol, 1-octanol and 1-decanol at T = (298.15 to 313.15) K
Source: J. Chem. Thermodyn., 2014, 10.1016/j.jct.2013.10.025
Compound 1: tetrahydrofuran, C4H8O, InChI=1S/C4H8O/c1-2-4-5-3-1/h1-4H2, purity 99%
Compound 2: hexan-1-ol, C6H14O, InChI=1S/C6H14O/c1-2-3-4-5-6-7/h7H,2-6H2,1H3, purity 99%
Compound 3: octan-1-ol, C8H18O, InChI=1S/C8H18O/c1-2-3-4-5-6-7-8-9/h9H,2-8H2,1H3, purity 99%
Compound 4: decan-1-ol, C10H22O, InChI=1S/C10H22O/c1-2-3-4-5-6-7-8-9-10-11/h11H,2-10H2,1H3, purity 99%

System: tetrahydrofuran; phases: Liquid
Property: Mass density, kg/m3 (Liquid); method: Vibrating tube method
Temperature, K	Pressure, kPa	Mass density, kg/m3	uncertainty
298.15	101.325	882.15	0.234

System: tetrahydrofuran; phases: Liquid
Property: Viscosity, Pa*s (Liquid); method: Capillary tube (Ostwald; Ubbelohde) method
Temperature, K	Pressure, kPa	Viscosity, Pa*s	uncertainty
298.15	101.325	0.000474	0.00036

System: tetrahydrofuran; phases: Liquid
Property: Speed of sound, m/s (Liquid); method: Sing-around technique in a fixed-path interferometer
Temperature, K	Pressure, kPa	Speed of sound, m/s	uncertainty
298.15	101.325	1280.1	1.5

System: hexan-1-ol; phases: Liquid
Property: Mass density, kg/m3 (Liquid); method: Vibrating tube method
Temperature, K	Pressure, kPa	Mass density, kg/m3	uncertainty
298.15	101.325	815.295	0.237

System: hexan-1-ol; phases: Liquid
Property: Viscosity, Pa*s (Liquid); method: Capillary tube (Ostwald; Ubbelohde) method
Temperature, K	Pressure, kPa	Viscosity, Pa*s	uncertainty
298.15	101.325	0.004436	0.000361

System: hexan-1-ol; phases: Liquid
Property: Speed of sound, m/s (Liquid); method: Sing-around technique in a fixed-path interferometer
Temperature, K	Pressure, kPa	Speed of sound, m/s	uncertainty
298.15	101.325	1303.5	1.5

System: octan-1-ol; phases: Liquid
Property: Mass density, kg/m3 (Liquid); method: Vibrating tube method
Temperature, K	Pressure, kPa	Mass density, kg/m3	uncertainty
298.15	101.325	821.837	0.237

System: octan-1-ol; phases: Liquid
Property: Viscosity, Pa*s (Liquid); method: Capillary tube (Ostwald; Ubbelohde) method
Temperature, K	Pressure, kPa	Viscosity, Pa*s	uncertainty
298.15	101.325	0.007446	0.000364

System: octan-1-ol; phases: Liquid
Property: Speed of sound, m/s (Liquid); method: Sing-around technique in a fixed-path interferometer
Temperature, K	Pressure, kPa	Speed of sound, m/s	uncertainty
298.15	101.325	1347.9	1.5

System: decan-1-ol; phases: Liquid
Property: Mass density, kg/m3 (Liquid); method: Vibrating tube method
Temperature, K	Pressure, kPa	Mass density, kg/m3	uncertainty
298.15	101.325	826.407	0.237

System: decan-1-ol; phases: Liquid
Property: Viscosity, Pa*s (Liquid); method: Capillary tube (Ostwald; Ubbelohde) method
Temperature, K	Pressure, kPa	Viscosity, Pa*s	uncertainty
298.15	101.325	0.010614	0.000367

System: decan-1-ol; phases: Liquid
Property: Speed of sound, m/s (Liquid); method: Sing-around technique in a fixed-path interferometer
Temperature, K	Pressure, kPa	Speed of sound, m/s	uncertainty
298.15	101.325	1379.3	1.6

System: tetrahydrofuran + hexan-1-ol; phases: Liquid
Fixed: Pressure, kPa = 101
Property: Mass density, kg/m3 (Liquid); method: Vibrating tube method
Temperature, K	Mole fraction of tetrahydrofuran	Mass density, kg/m3	uncertainty
298.15	0.0538	817.624	0.237
298.15	0.1144	820.377	0.237
298.15	0.1511	822.105	0.237
298.15	0.2009	824.537	0.237
298.15	0.256	827.327	0.236
298.15	0.3156	830.492	0.236
298.15	0.4199	836.41	0.236
298.15	0.5013	841.407	0.236
298.15	0.6029	848.183	0.236
298.15	0.7071	855.823	0.236
298.15	0.8042	863.667	0.236
298.15	0.9057	872.745	0.235
303.15	0.0538	813.958	0.237
303.15	0.1144	816.633	0.237
303.15	0.1511	818.311	0.237
303.15	0.2009	820.671	0.237
303.15	0.256	823.388	0.237
303.15	0.3156	826.467	0.237
303.15	0.4199	832.217	0.236
303.15	0.5013	837.071	0.236
303.15	0.6029	843.655	0.236
303.15	0.7071	851.067	0.236
303.15	0.8042	858.694	0.236
303.15	0.9057	867.506	0.235
308.15	0.0538	810.268	0.237
308.15	0.1144	812.863	0.237
308.15	0.1511	814.495	0.237
308.15	0.2009	816.788	0.237
308.15	0.256	819.426	0.237
308.15	0.3156	822.411	0.237
308.15	0.4199	827.995	0.237
308.15	0.5013	832.704	0.236
308.15	0.6029	839.095	0.236
308.15	0.7071	846.295	0.236
308.15	0.8042	853.69	0.236
308.15	0.9057	862.242	0.236
313.15	0.0538	806.544	0.237
313.15	0.1144	809.062	0.237
313.15	0.1511	810.645	0.237
313.15	0.2009	812.872	0.237
313.15	0.256	815.429	0.237
313.15	0.3156	818.321	0.237
313.15	0.4199	823.739	0.237
313.15	0.5013	828.306	0.237
313.15	0.6029	834.502	0.236
313.15	0.7071	841.483	0.236
313.15	0.8042	848.648	0.236
313.15	0.9057	856.935	0.236

System: tetrahydrofuran + hexan-1-ol; phases: Liquid
Fixed: Pressure, kPa = 101
Property: Speed of sound, m/s (Liquid); method: Sing-around technique in a fixed-path interferometer
Temperature, K	Mole fraction of tetrahydrofuran	Speed of sound, m/s	uncertainty
298.15	0.0538	1301.1	1.5
298.15	0.1144	1298.8	1.5
298.15	0.1511	1297	1.5
298.15	0.2009	1295	1.5
298.15	0.256	1292.7	1.5
298.15	0.3156	1291	1.5
298.15	0.4199	1287.7	1.5
298.15	0.5013	1285.1	1.5
298.15	0.6029	1282.2	1.5
298.15	0.7071	1279.3	1.5
298.15	0.8042	1277.1	1.5
298.15	0.9057	1276.4	1.5
303.15	0.0538	1284.1	1.5
303.15	0.1144	1281.5	1.5
303.15	0.1511	1279.5	1.5
303.15	0.2009	1277.3	1.5
303.15	0.256	1275.1	1.5
303.15	0.3156	1272.8	1.5
303.15	0.4199	1269	1.5
303.15	0.5013	1265.9	1.5
303.15	0.6029	1262.2	1.5
303.15	0.7071	1258.5	1.5
303.15	0.8042	1255.6	1.5
303.15	0.9057	1254	1.5
308.15	0.0538	1267.1	1.5
308.15	0.1144	1264	1.5
308.15	0.1511	1261.9	1.5
308.15	0.2009	1259.4	1.5
308.15	0.256	1257.1	1.5
308.15	0.3156	1254.3	1.5
308.15	0.4199	1249.8	1.5
308.15	0.5013	1246	1.5
308.15	0.6029	1241.4	1.5
308.15	0.7071	1236.7	1.5
308.15	0.8042	1232.5	1.5
308.15	0.9057	1230	1.5
313.15	0.0538	1250.3	1.5
313.15	0.1144	1246.9	1.5
313.15	0.1511	1244.7	1.5
313.15	0.2009	1242.7	1.5
313.15	0.256	1239.8	1.5
313.15	0.3156	1236.7	1.5
313.15	0.4199	1231.7	1.5
313.15	0.5013	1227.5	1.5
313.15	0.6029	1222.5	1.5
313.15	0.7071	1217	1.5
313.15	0.8042	1212.4	1.5
313.15	0.9057	1209	1.5

System: tetrahydrofuran + hexan-1-ol; phases: Liquid
Fixed: Pressure, kPa = 101
Property: Viscosity, Pa*s (Liquid); method: Capillary tube (Ostwald; Ubbelohde) method
Temperature, K	Mole fraction of tetrahydrofuran	Viscosity, Pa*s	uncertainty
298.15	0.0538	0.003778	0.000361
298.15	0.1144	0.00316	0.000361
298.15	0.1511	0.002887	0.000361
298.15	0.2009	0.002477	0.00036
298.15	0.256	0.002133	0.00036
298.15	0.3156	0.001855	0.00036
298.15	0.4199	0.001453	0.00036
298.15	0.5013	0.001199	0.00036
298.15	0.6029	0.000986	0.00036
298.15	0.7071	0.000786	0.00036
298.15	0.8042	0.000661	0.00036
298.15	0.9057	0.000559	0.00036
303.15	0.0538	0.00322	0.000361
303.15	0.1144	0.002737	0.000361
303.15	0.1511	0.002516	0.00036
303.15	0.2009	0.002148	0.00036
303.15	0.256	0.001901	0.00036
303.15	0.3156	0.001633	0.00036
303.15	0.4199	0.001325	0.00036
303.15	0.5013	0.001107	0.00036
303.15	0.6029	0.000904	0.00036
303.15	0.7071	0.000719	0.00036
303.15	0.8042	0.000619	0.00036
303.15	0.9057	0.000536	0.00036
308.15	0.0538	0.002728	0.000361
308.15	0.1144	0.002373	0.00036
308.15	0.1511	0.00213	0.00036
308.15	0.2009	0.001886	0.00036
308.15	0.256	0.001598	0.00036
308.15	0.3156	0.001422	0.00036
308.15	0.4199	0.001127	0.00036
308.15	0.5013	0.00095	0.00036
308.15	0.6029	0.000796	0.00036
308.15	0.7071	0.00064	0.00036
308.15	0.8042	0.000566	0.00036
308.15	0.9057	0.00047	0.00036

System: tetrahydrofuran + octan-1-ol; phases: Liquid
Fixed: Pressure, kPa = 101
Property: Mass density, kg/m3 (Liquid); method: Vibrating tube method
Temperature, K	Mole fraction of tetrahydrofuran	Mass density, kg/m3	uncertainty
298.15	0.0541	823.522	0.236
298.15	0.1044	825.135	0.236
298.15	0.1535	826.78	0.236
298.15	0.205	828.609	0.236
298.15	0.2574	830.564	0.236
298.15	0.3054	832.449	0.236
298.15	0.4003	836.541	0.236
298.15	0.5004	841.464	0.236
298.15	0.6111	847.802	0.236
298.15	0.7032	853.984	0.236
298.15	0.8116	862.541	0.236
298.15	0.9048	871.362	0.235
303.15	0.0541	819.992	0.237
303.15	0.1044	821.552	0.237
303.15	0.1535	823.145	0.236
303.15	0.205	824.915	0.236
303.15	0.2574	826.809	0.236
303.15	0.3054	828.634	0.236
303.15	0.4003	832.585	0.236
303.15	0.5004	837.343	0.236
303.15	0.6111	843.471	0.236
303.15	0.7032	849.444	0.236
303.15	0.8116	857.718	0.236
303.15	0.9048	866.235	0.235
308.15	0.0541	816.44	0.237
308.15	0.1044	817.948	0.237
308.15	0.1535	819.488	0.237
308.15	0.205	821.202	0.237
308.15	0.2574	823.029	0.237
308.15	0.3054	824.796	0.236
308.15	0.4003	828.614	0.236
308.15	0.5004	833.216	0.236
308.15	0.6111	839.116	0.236
308.15	0.7032	844.874	0.236
308.15	0.8116	852.874	0.236
308.15	0.9048	861.083	0.236
313.15	0.0541	812.862	0.237
313.15	0.1044	814.315	0.237
313.15	0.1535	815.803	0.237
313.15	0.205	817.465	0.237
313.15	0.2574	819.222	0.237
313.15	0.3054	820.932	0.237
313.15	0.4003	824.625	0.236
313.15	0.5004	829.064	0.236
313.15	0.6111	834.743	0.236
313.15	0.7032	840.294	0.236
313.15	0.8116	848	0.236
313.15	0.9048	855.903	0.236

System: tetrahydrofuran + octan-1-ol; phases: Liquid
Fixed: Pressure, kPa = 101
Property: Speed of sound, m/s (Liquid); method: Sing-around technique in a fixed-path interferometer
Temperature, K	Mole fraction of tetrahydrofuran	Speed of sound, m/s	uncertainty
298.15	0.0541	1344.5	1.5
298.15	0.1044	1341.3	1.5
298.15	0.1535	1337.5	1.5
298.15	0.205	1333.5	1.5
298.15	0.2574	1329.8	1.5
298.15	0.3054	1326.5	1.5
298.15	0.4003	1319.6	1.5
298.15	0.5004	1312.2	1.5
298.15	0.6111	1302.9	1.5
298.15	0.7032	1295.5	1.5
298.15	0.8116	1287.9	1.5
298.15	0.9048	1281.7	1.5
303.15	0.0541	1327.7	1.5
303.15	0.1044	1324.3	1.5
303.15	0.1535	1320.4	1.5
303.15	0.205	1316	1.5
303.15	0.2574	1312.4	1.5
303.15	0.3054	1308.7	1.5
303.15	0.4003	1301.4	1.5
303.15	0.5004	1293.4	1.5
303.15	0.6111	1283.4	1.5
303.15	0.7032	1275.5	1.5
303.15	0.8116	1266.9	1.5
303.15	0.9048	1259.7	1.5
308.15	0.0541	1310.7	1.5
308.15	0.1044	1307.3	1.5
308.15	0.1535	1303	1.5
308.15	0.205	1298.8	1.5
308.15	0.2574	1294.7	1.5
308.15	0.3054	1290.9	1.5
308.15	0.4003	1283.1	1.5
308.15	0.5004	1274.6	1.5
308.15	0.6111	1264.1	1.5
308.15	0.7032	1255.2	1.5
308.15	0.8116	1244.9	1.5
308.15	0.9048	1237	1.5
313.15	0.0541	1294.2	1.5
313.15	0.1044	1290.6	1.5
313.15	0.1535	1286.2	1.5
313.15	0.205	1282	1.5
313.15	0.2574	1277.6	1.5
313.15	0.3054	1273.8	1.5
313.15	0.4003	1265.5	1.5
313.15	0.5004	1256.5	1.5
313.15	0.6111	1245.4	1.5
313.15	0.7032	1236.1	1.5
313.15	0.8116	1225	1.5
313.15	0.9048	1216.3	1.5

System: tetrahydrofuran + octan-1-ol; phases: Liquid
Fixed: Pressure, kPa = 101
Property: Viscosity, Pa*s (Liquid); method: Capillary tube (Ostwald; Ubbelohde) method
Temperature, K	Mole fraction of tetrahydrofuran	Viscosity, Pa*s	uncertainty
298.15	0.0541	0.006305	0.000363
298.15	0.1044	0.005403	0.000362
298.15	0.1535	0.004698	0.000362
298.15	0.205	0.004025	0.000361
298.15	0.2574	0.003477	0.000361
298.15	0.3054	0.002996	0.000361
298.15	0.4003	0.002307	0.00036
298.15	0.5004	0.001747	0.00036
298.15	0.6111	0.001271	0.00036
298.15	0.7032	0.000996	0.00036
298.15	0.8116	0.000747	0.00036
298.15	0.9048	0.000589	0.00036
303.15	0.0541	0.005227	0.000362
303.15	0.1044	0.004562	0.000361
303.15	0.1535	0.003988	0.000361
303.15	0.205	0.003395	0.000361
303.15	0.2574	0.003014	0.000361
303.15	0.3054	0.002602	0.00036
303.15	0.4003	0.002089	0.00036
303.15	0.5004	0.001566	0.00036
303.15	0.6111	0.001173	0.00036
303.15	0.7032	0.000931	0.00036
303.15	0.8116	0.000715	0.00036
303.15	0.9048	0.000566	0.00036
308.15	0.0541	0.004208	0.000361
308.15	0.1044	0.003709	0.000361
308.15	0.1535	0.003217	0.000361
308.15	0.205	0.002779	0.000361
308.15	0.2574	0.00246	0.00036
308.15	0.3054	0.002176	0.00036
308.15	0.4003	0.001748	0.00036
308.15	0.5004	0.001348	0.00036
308.15	0.6111	0.001014	0.00036
308.15	0.7032	0.000819	0.00036
308.15	0.8116	0.000632	0.00036
308.15	0.9048	0.000514	0.00036

System: tetrahydrofuran + decan-1-ol; phases: Liquid
Fixed: Pressure, kPa = 101
Property: Mass density, kg/m3 (Liquid); method: Vibrating tube method
Temperature, K	Mole fraction of tetrahydrofuran	Mass density, kg/m3	uncertainty
298.15	0.0503	827.6	0.236
298.15	0.1046	828.949	0.236
298.15	0.157	830.327	0.236
298.15	0.2022	831.593	0.236
298.15	0.253	833.093	0.236
298.15	0.3057	834.766	0.236
298.15	0.4094	838.49	0.236
298.15	0.5018	842.347	0.236
298.15	0.6038	847.354	0.236
298.15	0.7003	853.111	0.236
298.15	0.8004	860.53	0.236
298.15	0.9043	870.265	0.235
303.15	0.0503	824.137	0.236
303.15	0.1046	825.438	0.236
303.15	0.157	826.766	0.236
303.15	0.2022	827.998	0.236
303.15	0.253	829.453	0.236
303.15	0.3057	831.076	0.236
303.15	0.4094	834.656	0.236
303.15	0.5018	838.365	0.236
303.15	0.6038	843.203	0.236
303.15	0.7003	848.748	0.236
303.15	0.8004	855.869	0.236
303.15	0.9043	865.235	0.235
308.15	0.0503	820.661	0.236
308.15	0.1046	821.913	0.236
308.15	0.157	823.195	0.236
308.15	0.2022	824.389	0.236
308.15	0.253	825.796	0.236
308.15	0.3057	827.357	0.236
308.15	0.4094	830.825	0.236
308.15	0.5018	834.401	0.236
308.15	0.6038	839.036	0.236
308.15	0.7003	844.365	0.236
308.15	0.8004	851.199	0.236
308.15	0.9043	860.184	0.236
313.15	0.0503	817.16	0.237
313.15	0.1046	818.367	0.237
313.15	0.157	819.603	0.237
313.15	0.2022	820.753	0.237
313.15	0.253	822.116	0.236
313.15	0.3057	823.62	0.236
313.15	0.4094	826.953	0.236
313.15	0.5018	830.393	0.236
313.15	0.6038	834.849	0.236
313.15	0.7003	839.96	0.236
313.15	0.8004	846.506	0.236
313.15	0.9043	855.097	0.236

System: tetrahydrofuran + decan-1-ol; phases: Liquid
Fixed: Pressure, kPa = 101
Property: Speed of sound, m/s (Liquid); method: Sing-around technique in a fixed-path interferometer
Temperature, K	Mole fraction of tetrahydrofuran	Speed of sound, m/s	uncertainty
298.15	0.0503	1372.7	1.5
298.15	0.1046	1368.8	1.5
298.15	0.157	1365.1	1.5
298.15	0.2022	1361.8	1.5
298.15	0.253	1357.5	1.5
298.15	0.3057	1352.6	1.5
298.15	0.4094	1343.7	1.5
298.15	0.5018	1334	1.5
298.15	0.6038	1323.4	1.5
298.15	0.7003	1312.4	1.5
298.15	0.8004	1299.3	1.5
298.15	0.9043	1286.4	1.5
303.15	0.0503	1355.9	1.5
303.15	0.1046	1351.7	1.5
303.15	0.157	1348.3	1.5
303.15	0.2022	1344.4	1.5
303.15	0.253	1339.9	1.5
303.15	0.3057	1335	1.5
303.15	0.4094	1325.7	1.5
303.15	0.5018	1315.6	1.5
303.15	0.6038	1304.3	1.5
303.15	0.7003	1292.6	1.5
303.15	0.8004	1278.9	1.5
303.15	0.9043	1264.9	1.5
308.15	0.0503	1339.1	1.5
308.15	0.1046	1335	1.5
308.15	0.157	1331.1	1.5
308.15	0.2022	1327	1.5
308.15	0.253	1322.2	1.5
308.15	0.3057	1317.2	1.5
308.15	0.4094	1307.1	1.5
308.15	0.5018	1296.8	1.5
308.15	0.6038	1284.4	1.5
308.15	0.7003	1271.8	1.5
308.15	0.8004	1257.6	1.5
308.15	0.9043	1241.5	1.5
313.15	0.0503	1322.7	1.5
313.15	0.1046	1318.3	1.5
313.15	0.157	1314.4	1.5
313.15	0.2022	1310.1	1.5
313.15	0.253	1305.7	1.5
313.15	0.3057	1300.1	1.5
313.15	0.4094	1289.6	1.5
313.15	0.5018	1278.9	1.5
313.15	0.6038	1266.3	1.5
313.15	0.7003	1253.2	1.5
313.15	0.8004	1238.4	1.5
313.15	0.9043	1221.6	1.5

System: tetrahydrofuran + decan-1-ol; phases: Liquid
Fixed: Pressure, kPa = 101
Property: Viscosity, Pa*s (Liquid); method: Capillary tube (Ostwald; Ubbelohde) method
Temperature, K	Mole fraction of tetrahydrofuran	Viscosity, Pa*s	uncertainty
298.15	0.0503	0.009806	0.000366
298.15	0.1046	0.00847	0.000364
298.15	0.157	0.007201	0.000363
298.15	0.2022	0.006345	0.000363
298.15	0.253	0.005428	0.000362
298.15	0.3057	0.004609	0.000361
298.15	0.4094	0.003343	0.000361
298.15	0.5018	0.002503	0.00036
298.15	0.6038	0.001842	0.00036
298.15	0.7003	0.001366	0.00036
298.15	0.8004	0.00098	0.00036
298.15	0.9043	0.000691	0.00036
303.15	0.0503	0.008074	0.000364
303.15	0.1046	0.007037	0.000363
303.15	0.157	0.00617	0.000363
303.15	0.2022	0.005262	0.000362
303.15	0.253	0.004527	0.000361
303.15	0.3057	0.003958	0.000361
303.15	0.4094	0.002908	0.000361
303.15	0.5018	0.002095	0.00036
303.15	0.6038	0.001635	0.00036
303.15	0.7003	0.001224	0.00036
303.15	0.8004	0.000907	0.00036
303.15	0.9043	0.000649	0.00036
308.15	0.0503	0.006379	0.000363
308.15	0.1046	0.00567	0.000362
308.15	0.157	0.004969	0.000362
308.15	0.2022	0.004236	0.000361
308.15	0.253	0.003663	0.000361
308.15	0.3057	0.003249	0.000361
308.15	0.4094	0.002385	0.00036
308.15	0.5018	0.001738	0.00036
308.15	0.6038	0.001408	0.00036
308.15	0.7003	0.00104	0.00036
308.15	0.8004	0.000807	0.00036
308.15	0.9043	0.00058	0.00036
