Measured thermophysical data. Liquid + liquid equilibrium in mixtures of lithium fluoride with potassium  and rubidium halides
Source: J. Chem. Thermodyn., 2012, 10.1016/j.jct.2012.02.015
Compound 1: lithium fluoride, FLi, InChI=1S/FH.Li/h1H;/q;+1/p-1, purity 99.5%
Compound 2: potassium bromide, BrK, InChI=1S/BrH.K/h1H;/q;+1/p-1, purity 99.5%
Compound 3: rubidium bromide, BrRb, InChI=1S/BrH.Rb/h1H;/q;+1/p-1, purity 99.5%
Compound 4: potassium iodide, IK, InChI=1S/HI.K/h1H;/q;+1/p-1, purity 99.5%
Compound 5: rubidium iodide (RbI), IRb, InChI=1S/HI.Rb/h1H;/q;+1/p-1, purity 99.5%

System: lithium fluoride; phases: Liquid
Fixed: Pressure, kPa = 101.325
Property: Electrical conductivity, S/m (Liquid); method: Alternating current cell with electrodes
Temperature, K	Electrical conductivity, S/m	uncertainty
1131	855	9
1136	858	9
1151	868	9
1169	877	9
1173	880	9
1184	886	9
1190	888	9
1194	890	9
1198	892	9
1206	896	9
1210	897	9
1217	900	9
1221	899	9
1229	905	9
1232	907	9
1233	907	9
1237	908	9
1244	911	9
1245	911	9
1258	916	9
1267	918	9
1269	918	9
1283	923	9

System: potassium bromide; phases: Liquid
Fixed: Pressure, kPa = 101.325
Property: Electrical conductivity, S/m (Liquid); method: Alternating current cell with electrodes
Temperature, K	Electrical conductivity, S/m	uncertainty
1131	190	2
1136	191	2
1151	194	2
1169	196	2
1190	200	2
1198	201	2
1210	202	2
1221	203	2
1229	204	2
1233	204	2
1237	205	2
1245	205	2

System: rubidium bromide; phases: Liquid
Fixed: Pressure, kPa = 101.325
Property: Electrical conductivity, S/m (Liquid); method: Alternating current cell with electrodes
Temperature, K	Electrical conductivity, S/m	uncertainty
1173	151	2
1184	152	2
1194	153	2
1206	154	2
1217	154	2
1232	155	2
1244	156	2
1258	157	2
1269	157	2

System: potassium iodide; phases: Liquid
Fixed: Pressure, kPa = 101.325
Property: Electrical conductivity, S/m (Liquid); method: Alternating current cell with electrodes
Temperature, K	Electrical conductivity, S/m	uncertainty
1109	158	2
1126	160	2
1143	161	2
1152	163	2
1160	164	2
1170	165	2
1176	165	2
1186	166	2
1203	166	2
1225	167	2
1236	167	2
1246	168	2
1252	167	2
1269	167	2

System: rubidium iodide (RbI); phases: Liquid
Fixed: Pressure, kPa = 101.325
Property: Electrical conductivity, S/m (Liquid); method: Alternating current cell with electrodes
Temperature, K	Electrical conductivity, S/m	uncertainty
1126	120	1
1154	122	1
1166	124	1
1188	126	1
1198	127	1
1210	128	1
1216	128	1
1233	130	1
1248	132	1
1260	133	1
1266	133	1
1297	135	1
1309	136	1

System: potassium bromide + lithium fluoride; phases: Liquid mixture 1, Liquid mixture 2
Fixed: Pressure, kPa = 101
Property: Electrical conductivity, S/m (Liquid mixture 1); method: Alternating current cell with electrodes
Temperature, K	Electrical conductivity, S/m	uncertainty
1131	373	4
1136	371	4
1151	360	4
1169	348	4
1190	326	3
1198	316	3
1210	295	3
1221	279	3
1229	266	3
1233	261	3
1237	256	3
1245	255	3
1267	259	3
1283	270	3

System: potassium bromide + lithium fluoride; phases: Liquid mixture 2, Liquid mixture 1
Fixed: Pressure, kPa = 101
Property: Electrical conductivity, S/m (Liquid mixture 2); method: Alternating current cell with electrodes
Temperature, K	Electrical conductivity, S/m	uncertainty
1131	233	2
1136	234	2
1151	230	2
1169	232	2
1190	237	2
1198	240	2
1210	243	2
1221	246	3
1229	248	3
1233	250	3
1237	252	3
1245	255	3
1267	255	3
1283	270	3

System: lithium fluoride + rubidium bromide; phases: Liquid mixture 2, Liquid mixture 1
Fixed: Pressure, kPa = 101
Property: Electrical conductivity, S/m (Liquid mixture 2); method: Alternating current cell with electrodes
Temperature, K	Electrical conductivity, S/m	uncertainty
1173	189	2
1184	193	2
1194	200	2
1206	211	2
1217	234	2
1232	250	3
1244	260	3
1258	276	3
1269	290	3

System: lithium fluoride + rubidium bromide; phases: Liquid mixture 1, Liquid mixture 2
Fixed: Pressure, kPa = 101
Property: Electrical conductivity, S/m (Liquid mixture 1); method: Alternating current cell with electrodes
Temperature, K	Electrical conductivity, S/m	uncertainty
1173	345	3
1184	345	3
1194	345	3
1206	348	4
1217	346	4
1232	346	4
1244	346	4
1258	346	4
1269	346	4

System: potassium iodide + lithium fluoride; phases: Liquid mixture 1, Liquid mixture 2
Fixed: Pressure, kPa = 101
Property: Electrical conductivity, S/m (Liquid mixture 1); method: Alternating current cell with electrodes
Temperature, K	Electrical conductivity, S/m	uncertainty
1109	393	4
1126	398	4
1143	402	4
1152	400	4
1160	401	4
1170	402	4
1176	402	4
1186	407	4
1203	408	4
1225	410	4
1236	414	4
1246	415	4
1252	419	4
1269	420	4

System: potassium iodide + lithium fluoride; phases: Liquid mixture 2, Liquid mixture 1
Fixed: Pressure, kPa = 101
Property: Electrical conductivity, S/m (Liquid mixture 2); method: Alternating current cell with electrodes
Temperature, K	Electrical conductivity, S/m	uncertainty
1109	190	2
1126	192	2
1143	200	2
1152	198	2
1160	196	2
1170	207	2
1176	212	2
1186	217	2
1203	219	2
1225	221	2
1236	219	2
1246	228	2
1252	233	2
1269	254	3

System: lithium fluoride + rubidium iodide (RbI); phases: Liquid mixture 2, Liquid mixture 1
Fixed: Pressure, kPa = 101
Property: Electrical conductivity, S/m (Liquid mixture 2); method: Alternating current cell with electrodes
Temperature, K	Electrical conductivity, S/m	uncertainty
1126	182	2
1154	184	2
1166	178	2
1188	190	2
1198	190	2
1210	196	2
1216	188	2
1233	191	2
1248	199	2
1260	191	2
1266	197	2
1297	202	2
1309	203	2

System: lithium fluoride + rubidium iodide (RbI); phases: Liquid mixture 1, Liquid mixture 2
Fixed: Pressure, kPa = 101
Property: Electrical conductivity, S/m (Liquid mixture 1); method: Alternating current cell with electrodes
Temperature, K	Electrical conductivity, S/m	uncertainty
1126	415	4
1154	417	4
1166	423	4
1188	423	4
1198	423	4
1210	424	4
1216	425	4
1233	423	4
1248	432	4
1260	435	4
1266	444	4
1297	444	4
1309	447	5
