Measured thermophysical data. Volumetric and refractive properties of 1,3,5,7-tetravinyl-1,3,5,7-tetramethylcyclotetrasiloxane with methoxybenzene, chlorobenzene, tert-butylbenzene and nitrobenzene at T = (298.15-318.15) K
Source: J. Chem. Thermodyn., 2019, 10.1016/j.jct.2018.09.021
Compound 1: 2,4,6,8-tetramethyl-2,4,6,8-tetravinylcycloterasiloxane, C12H24O4Si4, InChI=1S/C12H24O4Si4/c1-9-17(5)13-18(6,10-2)15-20(8,12-4)16-19(7,11-3)14-17/h9-12H,1-4H2,5-8H3, purity 99.5%
Compound 2: anisole, C7H8O, InChI=1S/C7H8O/c1-8-7-5-3-2-4-6-7/h2-6H,1H3, purity 99.9%
Compound 3: chlorobenzene, C6H5Cl, InChI=1S/C6H5Cl/c7-6-4-2-1-3-5-6/h1-5H, purity 99.9%
Compound 4: (1,1-dimethylethyl)benzene, C10H14, InChI=1S/C10H14/c1-10(2,3)9-7-5-4-6-8-9/h4-8H,1-3H3, purity 99.9%
Compound 5: nitrobenzene, C6H5NO2, InChI=1S/C6H5NO2/c8-7(9)6-4-2-1-3-5-6/h1-5H, purity 99.9%

System: 2,4,6,8-tetramethyl-2,4,6,8-tetravinylcycloterasiloxane; phases: Liquid
Fixed: Pressure, kPa = 101.325
Property: Refractive index (Na D-line) (Liquid); method: Standard Abbe refractometry
Temperature, K	Refractive index (Na D-line)	uncertainty
293.15	1.43415	0.00049
298.15	1.43231	0.00049
303.15	1.42994	0.00049
308.15	1.42756	0.00049
313.15	1.42521	0.00049
318.15	1.42284	0.00049

System: 2,4,6,8-tetramethyl-2,4,6,8-tetravinylcycloterasiloxane; phases: Liquid
Fixed: Pressure, kPa = 103
Property: Mass density, kg/m3 (Liquid); method: Vibrating tube method
Temperature, K	Mass density, kg/m3	uncertainty
298.15	982.92	0.5
303.15	977.83	0.5
308.15	972.72	0.5
313.15	967.57	0.5
318.15	962.45	0.5
298.15	982.94	0.5
303.15	977.82	0.5
308.15	972.7	0.5
293.15	987.65	0.5

System: anisole; phases: Liquid
Fixed: Pressure, kPa = 101.325
Property: Refractive index (Na D-line) (Liquid); method: Standard Abbe refractometry
Temperature, K	Refractive index (Na D-line)	uncertainty
298.15	1.5146	0.00049
308.15	1.50865	0.00049
303.15	1.51191	0.00049
313.15	1.50604	0.00049
318.15	1.50341	0.00049

System: anisole; phases: Liquid
Fixed: Pressure, kPa = 103
Property: Mass density, kg/m3 (Liquid); method: Vibrating tube method
Temperature, K	Mass density, kg/m3	uncertainty
303.15	984.59	0.5
313.15	975.25	0.5
318.15	970.52	0.5
298.15	989.32	0.5
308.15	980.04	0.5

System: chlorobenzene; phases: Liquid
Fixed: Pressure, kPa = 101.325
Property: Refractive index (Na D-line) (Liquid); method: Standard Abbe refractometry
Temperature, K	Refractive index (Na D-line)	uncertainty
298.15	1.52168	0.00049
303.15	1.51893	0.00049
308.15	1.51629	0.00049
313.15	1.51348	0.00049
318.15	1.51072	0.00049

System: chlorobenzene; phases: Liquid
Fixed: Pressure, kPa = 103
Property: Mass density, kg/m3 (Liquid); method: Vibrating tube method
Temperature, K	Mass density, kg/m3	uncertainty
318.15	1079.36	0.5
298.15	1101.16	0.5
303.15	1095.79	0.5
308.15	1090.19	0.5
313.15	1084.77	0.5

System: (1,1-dimethylethyl)benzene; phases: Liquid
Fixed: Pressure, kPa = 101.325
Property: Refractive index (Na D-line) (Liquid); method: Standard Abbe refractometry
Temperature, K	Refractive index (Na D-line)	uncertainty
298.15	1.49009	0.00049
298.15	1.49018	0.00049
303.15	1.48763	0.00049
308.15	1.48509	0.00049
313.15	1.48256	0.00049
318.15	1.48007	0.00049

System: (1,1-dimethylethyl)benzene; phases: Liquid
Fixed: Pressure, kPa = 103
Property: Mass density, kg/m3 (Liquid); method: Vibrating tube method
Temperature, K	Mass density, kg/m3	uncertainty
298.15	862.31	0.51
303.15	858.28	0.51
308.15	854.12	0.51
313.15	849.98	0.51
318.15	845.87	0.51
298.15	862.28	0.51
323.15	841.72	0.51

System: nitrobenzene; phases: Liquid
Fixed: Pressure, kPa = 101.325
Property: Refractive index (Na D-line) (Liquid); method: Standard Abbe refractometry
Temperature, K	Refractive index (Na D-line)	uncertainty
298.15	1.54992	0.00049
303.15	1.54746	0.00049
308.15	1.545	0.00049
313.15	1.5425	0.00049
318.15	1.54005	0.00049

System: nitrobenzene; phases: Liquid
Fixed: Pressure, kPa = 103
Property: Mass density, kg/m3 (Liquid); method: Vibrating tube method
Temperature, K	Mass density, kg/m3	uncertainty
308.15	1188.17	0.51
313.15	1183.21	0.51
318.15	1178.24	0.51
298.15	1198.2	0.51
303.15	1193.25	0.51

System: 2,4,6,8-tetramethyl-2,4,6,8-tetravinylcycloterasiloxane + anisole; phases: Liquid
Fixed: Pressure, kPa = 103
Property: Mass density, kg/m3 (Liquid); method: Vibrating tube method
Temperature, K	Mole fraction of 2,4,6,8-tetramethyl-2,4,6,8-tetravinylcycloterasiloxane	Mass density, kg/m3	uncertainty
298.15	0	989.32	0.5
298.15	0.05	989.85	0.5
298.15	0.1	990.03	0.5
298.15	0.15	989.95	0.5
298.15	0.2	989.68	0.5
298.15	0.25	989.31	0.5
298.15	0.3	988.9	0.5
298.15	0.35	988.45	0.5
298.15	0.4	987.98	0.5
298.15	0.45	987.5	0.5
298.15	0.4999	987.02	0.5
298.15	0.55	986.45	0.5
298.15	0.5999	986.04	0.5
298.15	0.65	985.62	0.5
298.15	0.6997	985.22	0.5
298.15	0.7498	984.77	0.5
298.15	0.7997	984.41	0.5
298.15	0.85	984.01	0.5
298.15	0.8999	983.64	0.5
298.15	0.9498	983.3	0.5
298.15	1	982.92	0.5
303.15	0	984.59	0.5
303.15	0.05	985.11	0.5
303.15	0.1	985.25	0.5
303.15	0.15	985.11	0.5
303.15	0.2	984.81	0.5
303.15	0.25	984.42	0.5
303.15	0.3	983.95	0.5
303.15	0.35	983.49	0.5
303.15	0.4	983	0.5
303.15	0.45	982.51	0.5
303.15	0.4999	982.02	0.5
303.15	0.55	981.42	0.5
303.15	0.5999	981.01	0.5
303.15	0.65	980.6	0.5
303.15	0.6997	980.17	0.5
303.15	0.7498	979.75	0.5
303.15	0.7997	979.34	0.5
303.15	0.85	978.93	0.5
303.15	0.8999	978.57	0.5
303.15	0.9498	978.21	0.5
303.15	1	977.83	0.5
308.15	0	980.04	0.5
308.15	0.05	980.37	0.5
308.15	0.1	980.44	0.5
308.15	0.15	980.26	0.5
308.15	0.2	979.94	0.5
308.15	0.25	979.51	0.5
308.15	0.3	979.02	0.5
308.15	0.35	978.53	0.5
308.15	0.4	978.02	0.5
308.15	0.45	977.51	0.5
308.15	0.4999	977.01	0.5
308.15	0.55	976.38	0.5
308.15	0.5999	976.02	0.5
308.15	0.65	975.56	0.5
308.15	0.6997	975.12	0.5
308.15	0.7498	974.66	0.5
308.15	0.7997	974.25	0.5
308.15	0.85	973.87	0.5
308.15	0.8999	973.49	0.5
308.15	0.9498	973.09	0.5
308.15	1	972.72	0.5
313.15	0	975.25	0.5
313.15	0.05	975.56	0.5
313.15	0.1	975.61	0.5
313.15	0.15	975.41	0.5
313.15	0.2	975.03	0.5
313.15	0.25	974.6	0.5
313.15	0.3	974.06	0.5
313.15	0.35	973.54	0.5
313.15	0.4	973.02	0.5
313.15	0.45	972.47	0.5
313.15	0.4999	971.99	0.5
313.15	0.55	971.35	0.5
313.15	0.5999	970.97	0.5
313.15	0.65	970.51	0.5
313.15	0.6997	970.02	0.5
313.15	0.7498	969.6	0.5
313.15	0.7997	969.14	0.5
313.15	0.85	968.77	0.5
313.15	0.8999	968.39	0.5
313.15	0.9498	968.05	0.5
313.15	1	967.57	0.5
318.15	0	970.52	0.5
318.15	0.05	970.77	0.5
318.15	0.1	970.75	0.5
318.15	0.15	970.53	0.5
318.15	0.2	970.12	0.5
318.15	0.25	969.66	0.5
318.15	0.3	969.1	0.5
318.15	0.35	968.56	0.5
318.15	0.4	968.03	0.5
318.15	0.45	967.49	0.5
318.15	0.4999	966.96	0.5
318.15	0.55	966.31	0.5
318.15	0.5999	965.91	0.5
318.15	0.65	965.43	0.5
318.15	0.6997	965	0.5
318.15	0.7498	964.53	0.5
318.15	0.7997	964.1	0.5
318.15	0.85	963.7	0.5
318.15	0.8999	963.29	0.5
318.15	0.9498	962.92	0.5
318.15	1	962.45	0.5

System: 2,4,6,8-tetramethyl-2,4,6,8-tetravinylcycloterasiloxane + anisole; phases: Liquid
Fixed: Pressure, kPa = 103
Property: Refractive index (Na D-line) (Liquid); method: Standard Abbe refractometry
Temperature, K	Mole fraction of 2,4,6,8-tetramethyl-2,4,6,8-tetravinylcycloterasiloxane	Refractive index (Na D-line)	uncertainty
298.15	0	1.5146	0.00049
298.15	0.05	1.50323	0.00049
298.15	0.1	1.49394	0.00049
298.15	0.15	1.4861	0.00049
298.15	0.2	1.4793	0.00049
298.15	0.25	1.4734	0.00049
298.15	0.3	1.46826	0.00049
298.15	0.35	1.46375	0.00049
298.15	0.4	1.45968	0.00049
298.15	0.45	1.45609	0.00049
298.15	0.4999	1.45285	0.00049
298.15	0.55	1.44988	0.00049
298.15	0.5999	1.44719	0.00049
298.15	0.65	1.44477	0.00049
298.15	0.6997	1.44256	0.00049
298.15	0.7498	1.44047	0.00049
298.15	0.7997	1.43859	0.00049
298.15	0.85	1.43681	0.00049
298.15	0.8999	1.43518	0.00049
298.15	0.9498	1.43366	0.00049
298.15	1	1.43231	0.00049
303.15	0	1.51191	0.00049
303.15	0.05	1.50073	0.00049
303.15	0.1	1.49142	0.00049
303.15	0.15	1.48352	0.00049
303.15	0.2	1.47676	0.00049
303.15	0.25	1.47091	0.00049
303.15	0.3	1.46577	0.00049
303.15	0.35	1.46124	0.00049
303.15	0.4	1.45721	0.00049
303.15	0.45	1.45363	0.00049
303.15	0.4999	1.45039	0.00049
303.15	0.55	1.4474	0.00049
303.15	0.5999	1.44476	0.00049
303.15	0.65	1.44235	0.00049
303.15	0.6997	1.44013	0.00049
303.15	0.7498	1.43808	0.00049
303.15	0.7997	1.43619	0.00049
303.15	0.85	1.43442	0.00049
303.15	0.8999	1.4328	0.00049
303.15	0.9498	1.43129	0.00049
303.15	1	1.42994	0.00049
308.15	0	1.50865	0.00049
308.15	0.05	1.49816	0.00049
308.15	0.1	1.48882	0.00049
308.15	0.15	1.48092	0.00049
308.15	0.2	1.47428	0.00049
308.15	0.25	1.4684	0.00049
308.15	0.3	1.46327	0.00049
308.15	0.35	1.45875	0.00049
308.15	0.4	1.45474	0.00049
308.15	0.45	1.45117	0.00049
308.15	0.4999	1.44791	0.00049
308.15	0.55	1.44497	0.00049
308.15	0.5999	1.44237	0.00049
308.15	0.65	1.43991	0.00049
308.15	0.6997	1.43773	0.00049
308.15	0.7498	1.43569	0.00049
308.15	0.7997	1.4338	0.00049
308.15	0.85	1.43204	0.00049
308.15	0.8999	1.43043	0.00049
308.15	0.9498	1.42893	0.00049
308.15	1	1.42756	0.00049
313.15	0	1.50604	0.00049
313.15	0.05	1.49547	0.00049
313.15	0.1	1.4863	0.00049
313.15	0.15	1.47838	0.00049
313.15	0.2	1.47173	0.00049
313.15	0.25	1.46589	0.00049
313.15	0.3	1.46076	0.00049
313.15	0.35	1.45625	0.00049
313.15	0.4	1.45226	0.00049
313.15	0.45	1.44868	0.00049
313.15	0.4999	1.44548	0.00049
313.15	0.55	1.44255	0.00049
313.15	0.5999	1.43992	0.00049
313.15	0.65	1.43751	0.00049
313.15	0.6997	1.43528	0.00049
313.15	0.7498	1.43329	0.00049
313.15	0.7997	1.43139	0.00049
313.15	0.85	1.42966	0.00049
313.15	0.8999	1.42806	0.00049
313.15	0.9498	1.42657	0.00049
313.15	1	1.42521	0.00049
318.15	0	1.50341	0.00049
318.15	0.05	1.49293	0.00049
318.15	0.1	1.48362	0.00049
318.15	0.15	1.47579	0.00049
318.15	0.2	1.46912	0.00049
318.15	0.25	1.46334	0.00049
318.15	0.3	1.45823	0.00049
318.15	0.35	1.45375	0.00049
318.15	0.4	1.4498	0.00049
318.15	0.45	1.44623	0.00049
318.15	0.4999	1.44301	0.00049
318.15	0.55	1.44007	0.00049
318.15	0.5999	1.4375	0.00049
318.15	0.65	1.43507	0.00049
318.15	0.6997	1.43291	0.00049
318.15	0.7498	1.43087	0.00049
318.15	0.7997	1.42903	0.00049
318.15	0.85	1.42728	0.00049
318.15	0.8999	1.42569	0.00049
318.15	0.9498	1.42418	0.00049
318.15	1	1.42284	0.00049

System: 2,4,6,8-tetramethyl-2,4,6,8-tetravinylcycloterasiloxane + chlorobenzene; phases: Liquid
Fixed: Pressure, kPa = 103
Property: Mass density, kg/m3 (Liquid); method: Vibrating tube method
Temperature, K	Mole fraction of 2,4,6,8-tetramethyl-2,4,6,8-tetravinylcycloterasiloxane	Mass density, kg/m3	uncertainty
298.15	0	1101.16	0.5
298.15	0.05	1085.09	0.51
298.15	0.1	1071.8	0.51
298.15	0.15	1060.51	0.51
298.15	0.2	1050.83	0.5
298.15	0.25	1042.43	0.5
298.15	0.3	1035.04	0.5
298.15	0.35	1028.52	0.5
298.15	0.4	1022.71	0.5
298.15	0.4501	1017.52	0.5
298.15	0.4999	1012.82	0.5
298.15	0.5498	1008.58	0.5
298.15	0.6	1004.69	0.5
298.15	0.6499	1001.17	0.5
298.15	0.6999	997.92	0.5
298.15	0.7498	994.92	0.5
298.15	0.8	992.17	0.5
298.15	0.8498	989.62	0.5
298.15	0.9	987.24	0.5
298.15	0.95	985.03	0.5
298.15	1	982.92	0.5
303.15	0	1095.79	0.5
303.15	0.05	1079.68	0.51
303.15	0.1	1066.37	0.51
303.15	0.15	1055.15	0.5
303.15	0.2	1045.48	0.5
303.15	0.25	1037.1	0.5
303.15	0.3	1029.73	0.5
303.15	0.35	1023.22	0.5
303.15	0.4	1017.44	0.5
303.15	0.4501	1012.24	0.5
303.15	0.4999	1007.57	0.5
303.15	0.5498	1003.33	0.5
303.15	0.6	999.49	0.5
303.15	0.6499	995.96	0.5
303.15	0.6999	992.74	0.5
303.15	0.7498	989.75	0.5
303.15	0.8	987.01	0.5
303.15	0.8498	984.46	0.5
303.15	0.9	982.1	0.5
303.15	0.95	979.89	0.5
303.15	1	977.83	0.5
308.15	0	1090.19	0.5
308.15	0.05	1074.29	0.51
308.15	0.1	1061.02	0.51
308.15	0.15	1049.78	0.5
308.15	0.2	1040.14	0.5
308.15	0.25	1031.77	0.5
308.15	0.3	1024.43	0.5
308.15	0.35	1017.93	0.5
308.15	0.4	1012.17	0.5
308.15	0.4501	1006.98	0.5
308.15	0.4999	1002.35	0.5
308.15	0.5498	998.13	0.5
308.15	0.6	994.28	0.5
308.15	0.6499	990.77	0.5
308.15	0.6999	987.54	0.5
308.15	0.7498	984.59	0.5
308.15	0.8	981.86	0.5
308.15	0.8498	979.32	0.5
308.15	0.9	976.96	0.5
308.15	0.95	974.73	0.5
308.15	1	972.72	0.5
313.15	0	1084.77	0.5
313.15	0.05	1068.83	0.51
313.15	0.1	1055.57	0.51
313.15	0.15	1044.35	0.5
313.15	0.2	1034.76	0.5
313.15	0.25	1026.41	0.5
313.15	0.3	1019.07	0.5
313.15	0.35	1012.57	0.5
313.15	0.4	1006.86	0.5
313.15	0.4501	1001.66	0.5
313.15	0.4999	997.07	0.5
313.15	0.5498	992.86	0.5
313.15	0.6	989.08	0.5
313.15	0.6499	985.55	0.5
313.15	0.6999	982.34	0.5
313.15	0.7498	979.41	0.5
313.15	0.8	976.7	0.5
313.15	0.8498	974.14	0.5
313.15	0.9	971.83	0.5
313.15	0.95	969.65	0.5
313.15	1	967.57	0.5
318.15	0	1079.36	0.5
318.15	0.05	1063.39	0.51
318.15	0.1	1050.15	0.51
318.15	0.15	1038.95	0.5
318.15	0.2	1029.37	0.5
318.15	0.25	1021.06	0.5
318.15	0.3	1013.73	0.5
318.15	0.35	1007.25	0.5
318.15	0.4	1001.56	0.5
318.15	0.4501	996.39	0.5
318.15	0.4999	991.78	0.5
318.15	0.5498	987.63	0.5
318.15	0.6	983.86	0.5
318.15	0.6499	980.36	0.5
318.15	0.6999	977.12	0.5
318.15	0.7498	974.22	0.5
318.15	0.8	971.54	0.5
318.15	0.8498	968.99	0.5
318.15	0.9	966.68	0.5
318.15	0.95	964.5	0.5
318.15	1	962.45	0.5

System: 2,4,6,8-tetramethyl-2,4,6,8-tetravinylcycloterasiloxane + chlorobenzene; phases: Liquid
Fixed: Pressure, kPa = 103
Property: Refractive index (Na D-line) (Liquid); method: Standard Abbe refractometry
Temperature, K	Mole fraction of 2,4,6,8-tetramethyl-2,4,6,8-tetravinylcycloterasiloxane	Refractive index (Na D-line)	uncertainty
298.15	0	1.52168	0.00049
298.15	0.05	1.50899	0.00049
298.15	0.1	1.4985	0.00049
298.15	0.15	1.48973	0.00049
298.15	0.2	1.48228	0.00049
298.15	0.25	1.47588	0.00049
298.15	0.3	1.4703	0.00049
298.15	0.35	1.46544	0.00049
298.15	0.4	1.46112	0.00049
298.15	0.4501	1.45728	0.00049
298.15	0.4999	1.45383	0.00049
298.15	0.5498	1.45074	0.00049
298.15	0.6	1.44791	0.00049
298.15	0.6499	1.44536	0.00049
298.15	0.6999	1.44301	0.00049
298.15	0.7498	1.44087	0.00049
298.15	0.8	1.43888	0.00049
298.15	0.8498	1.43706	0.00049
298.15	0.9	1.43535	0.00049
298.15	0.95	1.43378	0.00049
298.15	1	1.43231	0.00049
303.15	0	1.51893	0.00049
303.15	0.05	1.50627	0.00049
303.15	0.1	1.49578	0.00049
303.15	0.15	1.48705	0.00049
303.15	0.2	1.47962	0.00049
303.15	0.25	1.47326	0.00049
303.15	0.3	1.46772	0.00049
303.15	0.35	1.46285	0.00049
303.15	0.4	1.45858	0.00049
303.15	0.4501	1.45473	0.00049
303.15	0.4999	1.4513	0.00049
303.15	0.5498	1.44821	0.00049
303.15	0.6	1.44542	0.00049
303.15	0.6499	1.44287	0.00049
303.15	0.6999	1.44055	0.00049
303.15	0.7498	1.43842	0.00049
303.15	0.8	1.43646	0.00049
303.15	0.8498	1.43464	0.00049
303.15	0.9	1.43295	0.00049
303.15	0.95	1.4314	0.00049
303.15	1	1.42994	0.00049
308.15	0	1.51629	0.00049
308.15	0.05	1.50354	0.00049
308.15	0.1	1.49309	0.00049
308.15	0.15	1.48435	0.00049
308.15	0.2	1.47696	0.00049
308.15	0.25	1.47061	0.00049
308.15	0.3	1.46513	0.00049
308.15	0.35	1.46027	0.00049
308.15	0.4	1.45601	0.00049
308.15	0.4501	1.4522	0.00049
308.15	0.4999	1.44879	0.00049
308.15	0.5498	1.44574	0.00049
308.15	0.6	1.44295	0.00049
308.15	0.6499	1.44042	0.00049
308.15	0.6999	1.43813	0.00049
308.15	0.7498	1.436	0.00049
308.15	0.8	1.43407	0.00049
308.15	0.8498	1.43227	0.00049
308.15	0.9	1.43058	0.00049
308.15	0.95	1.42902	0.00049
308.15	1	1.42756	0.00049
313.15	0	1.51348	0.00049
313.15	0.05	1.50081	0.00049
313.15	0.1	1.49041	0.00049
313.15	0.15	1.48169	0.00049
313.15	0.2	1.47435	0.00049
313.15	0.25	1.46801	0.00049
313.15	0.3	1.46252	0.00049
313.15	0.35	1.4577	0.00049
313.15	0.4	1.45349	0.00049
313.15	0.4501	1.44967	0.00049
313.15	0.4999	1.44628	0.00049
313.15	0.5498	1.44326	0.00049
313.15	0.6	1.44049	0.00049
313.15	0.6499	1.43797	0.00049
313.15	0.6999	1.4357	0.00049
313.15	0.7498	1.43358	0.00049
313.15	0.8	1.43167	0.00049
313.15	0.8498	1.42987	0.00049
313.15	0.9	1.4282	0.00049
313.15	0.95	1.42666	0.00049
313.15	1	1.42521	0.00049
318.15	0	1.51072	0.00049
318.15	0.05	1.49807	0.00049
318.15	0.1	1.48767	0.00049
318.15	0.15	1.47903	0.00049
318.15	0.2	1.47169	0.00049
318.15	0.25	1.4654	0.00049
318.15	0.3	1.45993	0.00049
318.15	0.35	1.4551	0.00049
318.15	0.4	1.45093	0.00049
318.15	0.4501	1.44715	0.00049
318.15	0.4999	1.44375	0.00049
318.15	0.5498	1.44078	0.00049
318.15	0.6	1.43804	0.00049
318.15	0.6499	1.43553	0.00049
318.15	0.6999	1.43325	0.00049
318.15	0.7498	1.43116	0.00049
318.15	0.8	1.42926	0.00049
318.15	0.8498	1.42746	0.00049
318.15	0.9	1.42583	0.00049
318.15	0.95	1.42429	0.00049
318.15	1	1.42284	0.00049

System: 2,4,6,8-tetramethyl-2,4,6,8-tetravinylcycloterasiloxane + (1,1-dimethylethyl)benzene; phases: Liquid
Fixed: Pressure, kPa = 103
Property: Mass density, kg/m3 (Liquid); method: Vibrating tube method
Temperature, K	Mole fraction of 2,4,6,8-tetramethyl-2,4,6,8-tetravinylcycloterasiloxane	Mass density, kg/m3	uncertainty
298.15	0	862.31	0.51
298.15	0.05	875.35	0.51
298.15	0.1	886.9	0.51
298.15	0.15	897.21	0.51
298.15	0.2	906.41	0.51
298.15	0.25	914.75	0.51
298.15	0.3	922.3	0.5
298.15	0.3499	929.15	0.5
298.15	0.4	935.42	0.5
298.15	0.45	941.18	0.5
298.15	0.5	946.49	0.5
298.15	0.55	951.39	0.5
298.15	0.6	955.93	0.5
298.15	0.6498	960.13	0.5
298.15	0.6997	964.06	0.5
298.15	0.75	967.73	0.5
298.15	0.7997	971.16	0.5
298.15	0.8499	974.36	0.5
298.15	0.8999	977.41	0.5
298.15	0.9498	980.26	0.5
298.15	1	982.94	0.5
303.15	0	858.28	0.51
303.15	0.05	871.16	0.51
303.15	0.1	882.62	0.51
303.15	0.15	892.82	0.51
303.15	0.2	901.97	0.51
303.15	0.25	910.25	0.51
303.15	0.3	917.73	0.5
303.15	0.3499	924.51	0.5
303.15	0.4	930.75	0.5
303.15	0.45	936.46	0.5
303.15	0.5	941.72	0.5
303.15	0.55	946.55	0.5
303.15	0.6	951.06	0.5
303.15	0.6498	955.21	0.5
303.15	0.6997	959.11	0.5
303.15	0.75	962.77	0.5
303.15	0.7997	966.15	0.5
303.15	0.8499	969.35	0.5
303.15	0.8999	972.32	0.5
303.15	0.9498	975.15	0.5
303.15	1	977.82	0.5
308.15	0	854.12	0.51
308.15	0.05	866.94	0.51
308.15	0.1	878.3	0.51
308.15	0.15	888.44	0.51
308.15	0.2	897.52	0.51
308.15	0.25	905.72	0.51
308.15	0.3	913.15	0.51
308.15	0.3499	919.86	0.5
308.15	0.4	926.06	0.5
308.15	0.45	931.71	0.5
308.15	0.5	936.94	0.5
308.15	0.55	941.73	0.5
308.15	0.6	946.18	0.5
308.15	0.6498	950.29	0.5
308.15	0.6997	954.17	0.5
308.15	0.75	957.79	0.5
308.15	0.7997	961.14	0.5
308.15	0.8499	964.32	0.5
308.15	0.8999	967.24	0.5
308.15	0.9498	970.03	0.5
308.15	1	972.7	0.5
313.15	0	849.98	0.51
313.15	0.05	862.71	0.51
313.15	0.1	873.99	0.51
313.15	0.15	884.04	0.51
313.15	0.2	893.06	0.51
313.15	0.25	901.2	0.51
313.15	0.3	908.57	0.51
313.15	0.3499	915.21	0.5
313.15	0.4	921.33	0.5
313.15	0.45	926.95	0.5
313.15	0.5	932.16	0.5
313.15	0.55	936.89	0.5
313.15	0.6	941.31	0.5
313.15	0.6498	945.36	0.5
313.15	0.6997	949.25	0.5
313.15	0.75	952.81	0.5
313.15	0.7997	956.14	0.5
313.15	0.8499	959.28	0.5
313.15	0.8999	962.15	0.5
313.15	0.9498	964.96	0.5
313.15	1	967.57	0.5
318.15	0	845.87	0.51
318.15	0.05	858.49	0.51
318.15	0.1	869.69	0.51
318.15	0.15	879.66	0.51
318.15	0.2	888.59	0.51
318.15	0.25	896.67	0.51
318.15	0.3	903.98	0.51
318.15	0.3499	910.55	0.51
318.15	0.4	916.64	0.5
318.15	0.45	922.2	0.5
318.15	0.5	927.38	0.5
318.15	0.55	932.05	0.5
318.15	0.6	936.42	0.5
318.15	0.6498	940.45	0.5
318.15	0.6997	944.3	0.5
318.15	0.75	947.83	0.5
318.15	0.7997	951.12	0.5
318.15	0.8499	954.24	0.5
318.15	0.8999	957.06	0.5
318.15	0.9498	959.86	0.5
318.15	1	962.45	0.5

System: 2,4,6,8-tetramethyl-2,4,6,8-tetravinylcycloterasiloxane + (1,1-dimethylethyl)benzene; phases: Liquid
Fixed: Pressure, kPa = 103
Property: Refractive index (Na D-line) (Liquid); method: Standard Abbe refractometry
Temperature, K	Mole fraction of 2,4,6,8-tetramethyl-2,4,6,8-tetravinylcycloterasiloxane	Refractive index (Na D-line)	uncertainty
298.15	0	1.49018	0.00049
298.15	0.05	1.48411	0.00049
298.15	0.1	1.4787	0.00049
298.15	0.15	1.47387	0.00049
298.15	0.2	1.4695	0.00049
298.15	0.25	1.46554	0.00049
298.15	0.3	1.46194	0.00049
298.15	0.3499	1.45864	0.00049
298.15	0.4	1.45559	0.00049
298.15	0.45	1.45282	0.00049
298.15	0.5	1.45025	0.00049
298.15	0.55	1.44788	0.00049
298.15	0.6	1.44565	0.00049
298.15	0.6498	1.4436	0.00049
298.15	0.6997	1.44167	0.00049
298.15	0.75	1.43984	0.00049
298.15	0.7997	1.43816	0.00049
298.15	0.8499	1.43655	0.00049
298.15	0.8999	1.43506	0.00049
298.15	0.9498	1.43363	0.00049
298.15	1	1.43231	0.00049
303.15	0	1.48763	0.00049
303.15	0.05	1.48162	0.00049
303.15	0.1	1.47622	0.00049
303.15	0.15	1.47138	0.00049
303.15	0.2	1.46702	0.00049
303.15	0.25	1.46306	0.00049
303.15	0.3	1.45946	0.00049
303.15	0.3499	1.45619	0.00049
303.15	0.4	1.45316	0.00049
303.15	0.45	1.4504	0.00049
303.15	0.5	1.44781	0.00049
303.15	0.55	1.44544	0.00049
303.15	0.6	1.44324	0.00049
303.15	0.6498	1.44119	0.00049
303.15	0.6997	1.43926	0.00049
303.15	0.75	1.43745	0.00049
303.15	0.7997	1.43577	0.00049
303.15	0.8499	1.43417	0.00049
303.15	0.8999	1.43269	0.00049
303.15	0.9498	1.43126	0.00049
303.15	1	1.42994	0.00049
308.15	0	1.48509	0.00049
308.15	0.05	1.47914	0.00049
308.15	0.1	1.47374	0.00049
308.15	0.15	1.46893	0.00049
308.15	0.2	1.46458	0.00049
308.15	0.25	1.46062	0.00049
308.15	0.3	1.45704	0.00049
308.15	0.3499	1.45377	0.00049
308.15	0.4	1.45075	0.00049
308.15	0.45	1.44796	0.00049
308.15	0.5	1.4454	0.00049
308.15	0.55	1.44304	0.00049
308.15	0.6	1.44085	0.00049
308.15	0.6498	1.43879	0.00049
308.15	0.6997	1.43685	0.00049
308.15	0.75	1.43506	0.00049
308.15	0.7997	1.43338	0.00049
308.15	0.8499	1.43179	0.00049
308.15	0.8999	1.43031	0.00049
308.15	0.9498	1.42889	0.00049
308.15	1	1.42756	0.00049
313.15	0	1.48256	0.00049
313.15	0.05	1.47659	0.00049
313.15	0.1	1.47123	0.00049
313.15	0.15	1.46643	0.00049
313.15	0.2	1.46211	0.00049
313.15	0.25	1.45816	0.00049
313.15	0.3	1.45458	0.00049
313.15	0.3499	1.45134	0.00049
313.15	0.4	1.4483	0.00049
313.15	0.45	1.44556	0.00049
313.15	0.5	1.44299	0.00049
313.15	0.55	1.44064	0.00049
313.15	0.6	1.43846	0.00049
313.15	0.6498	1.4364	0.00049
313.15	0.6997	1.43446	0.00049
313.15	0.75	1.43267	0.00049
313.15	0.7997	1.43099	0.00049
313.15	0.8499	1.42942	0.00049
313.15	0.8999	1.42795	0.00049
313.15	0.9498	1.42654	0.00049
313.15	1	1.42521	0.00049
318.15	0	1.48007	0.00049
318.15	0.05	1.47416	0.00049
318.15	0.1	1.46878	0.00049
318.15	0.15	1.46398	0.00049
318.15	0.2	1.45965	0.00049
318.15	0.25	1.45572	0.00049
318.15	0.3	1.45214	0.00049
318.15	0.3499	1.4489	0.00049
318.15	0.4	1.4459	0.00049
318.15	0.45	1.44313	0.00049
318.15	0.5	1.44058	0.00049
318.15	0.55	1.43825	0.00049
318.15	0.6	1.43604	0.00049
318.15	0.6498	1.43402	0.00049
318.15	0.6997	1.43206	0.00049
318.15	0.75	1.43029	0.00049
318.15	0.7997	1.42861	0.00049
318.15	0.8499	1.42705	0.00049
318.15	0.8999	1.42562	0.00049
318.15	0.9498	1.42417	0.00049
318.15	1	1.42284	0.00049

System: 2,4,6,8-tetramethyl-2,4,6,8-tetravinylcycloterasiloxane + nitrobenzene; phases: Liquid
Fixed: Pressure, kPa = 103
Property: Mass density, kg/m3 (Liquid); method: Vibrating tube method
Temperature, K	Mole fraction of 2,4,6,8-tetramethyl-2,4,6,8-tetravinylcycloterasiloxane	Mass density, kg/m3	uncertainty
298.15	0	1198.2	0.51
298.15	0.05	1169.25	0.52
298.15	0.1	1144.98	0.52
298.15	0.15	1124.42	0.51
298.15	0.2	1106.77	0.51
298.15	0.25	1091.53	0.51
298.15	0.3	1078.14	0.51
298.15	0.35	1066.32	0.51
298.15	0.4	1055.82	0.51
298.15	0.45	1046.4	0.5
298.15	0.5	1037.83	0.5
298.15	0.5499	1030.13	0.5
298.15	0.6	1023.05	0.5
298.15	0.6499	1016.6	0.5
298.15	0.6998	1010.68	0.5
298.15	0.75	1005.13	0.5
298.15	0.7998	1000.04	0.5
298.15	0.8498	995.3	0.5
298.15	0.8999	990.85	0.5
298.15	0.9496	986.77	0.5
298.15	1	982.92	0.5
303.15	0	1193.25	0.51
303.15	0.05	1164.22	0.52
303.15	0.1	1140.07	0.51
303.15	0.15	1119.52	0.51
303.15	0.2	1101.84	0.51
303.15	0.25	1086.56	0.51
303.15	0.3	1073.15	0.51
303.15	0.35	1061.33	0.51
303.15	0.4	1050.79	0.5
303.15	0.45	1041.37	0.5
303.15	0.5	1032.83	0.5
303.15	0.5499	1025.04	0.5
303.15	0.6	1018.01	0.5
303.15	0.6499	1011.54	0.5
303.15	0.6998	1005.62	0.5
303.15	0.75	1000.07	0.5
303.15	0.7998	994.98	0.5
303.15	0.8498	990.23	0.5
303.15	0.8999	985.78	0.5
303.15	0.9496	981.67	0.5
303.15	1	977.83	0.5
308.15	0	1188.17	0.51
308.15	0.05	1159.35	0.52
308.15	0.1	1135.02	0.51
308.15	0.15	1114.53	0.51
308.15	0.2	1096.83	0.51
308.15	0.25	1081.57	0.51
308.15	0.3	1068.16	0.51
308.15	0.35	1056.29	0.51
308.15	0.4	1045.78	0.5
308.15	0.45	1036.22	0.5
308.15	0.5	1027.76	0.5
308.15	0.5499	1019.99	0.5
308.15	0.6	1012.91	0.5
308.15	0.6499	1006.45	0.5
308.15	0.6998	1000.46	0.5
308.15	0.75	994.97	0.5
308.15	0.7998	989.86	0.5
308.15	0.8498	985.14	0.5
308.15	0.8999	980.7	0.5
308.15	0.9496	976.57	0.5
308.15	1	972.72	0.5
313.15	0	1183.21	0.51
313.15	0.05	1154.48	0.52
313.15	0.1	1129.97	0.51
313.15	0.15	1109.54	0.51
313.15	0.2	1091.82	0.51
313.15	0.25	1076.58	0.51
313.15	0.3	1063.17	0.51
313.15	0.35	1051.25	0.51
313.15	0.4	1040.77	0.5
313.15	0.45	1031.19	0.5
313.15	0.5	1022.69	0.5
313.15	0.5499	1014.94	0.5
313.15	0.6	1007.81	0.5
313.15	0.6499	1001.36	0.5
313.15	0.6998	995.3	0.5
313.15	0.75	989.87	0.5
313.15	0.7998	984.74	0.5
313.15	0.8498	980.05	0.5
313.15	0.8999	975.62	0.5
313.15	0.9496	971.47	0.5
313.15	1	967.57	0.5
318.15	0	1178.24	0.51
318.15	0.05	1149.61	0.52
318.15	0.1	1124.92	0.51
318.15	0.15	1104.55	0.51
318.15	0.2	1086.81	0.51
318.15	0.25	1071.59	0.51
318.15	0.3	1058.18	0.51
318.15	0.35	1046.21	0.5
318.15	0.4	1035.76	0.5
318.15	0.45	1026.16	0.5
318.15	0.5	1017.62	0.5
318.15	0.5499	1009.89	0.5
318.15	0.6	1002.71	0.5
318.15	0.6499	996.27	0.5
318.15	0.6998	990.14	0.5
318.15	0.75	984.77	0.5
318.15	0.7998	979.62	0.5
318.15	0.8498	974.96	0.5
318.15	0.8999	970.54	0.5
318.15	0.9496	966.37	0.5
318.15	1	962.45	0.5

System: 2,4,6,8-tetramethyl-2,4,6,8-tetravinylcycloterasiloxane + nitrobenzene; phases: Liquid
Fixed: Pressure, kPa = 103
Property: Refractive index (Na D-line) (Liquid); method: Standard Abbe refractometry
Temperature, K	Mole fraction of 2,4,6,8-tetramethyl-2,4,6,8-tetravinylcycloterasiloxane	Refractive index (Na D-line)	uncertainty
298.15	0	1.54992	0.00049
298.15	0.05	1.53368	0.00049
298.15	0.1	1.52009	0.00049
298.15	0.15	1.50865	0.00049
298.15	0.2	1.49887	0.00049
298.15	0.25	1.49047	0.00049
298.15	0.3	1.48313	0.00049
298.15	0.35	1.47669	0.00049
298.15	0.4	1.47098	0.00049
298.15	0.45	1.46589	0.00049
298.15	0.5	1.46127	0.00049
298.15	0.5499	1.45711	0.00049
298.15	0.6	1.45337	0.00049
298.15	0.6499	1.44993	0.00049
298.15	0.6998	1.44678	0.00049
298.15	0.75	1.44385	0.00049
298.15	0.7998	1.44116	0.00049
298.15	0.8498	1.43868	0.00049
298.15	0.8999	1.43638	0.00049
298.15	0.9496	1.43424	0.00049
298.15	1	1.43231	0.00049
303.15	0	1.54746	0.00049
303.15	0.05	1.53119	0.00049
303.15	0.1	1.51767	0.00049
303.15	0.15	1.50625	0.00049
303.15	0.2	1.49646	0.00049
303.15	0.25	1.48806	0.00049
303.15	0.3	1.48074	0.00049
303.15	0.35	1.4743	0.00049
303.15	0.4	1.46858	0.00049
303.15	0.45	1.46349	0.00049
303.15	0.5	1.4589	0.00049
303.15	0.5499	1.45475	0.00049
303.15	0.6	1.45101	0.00049
303.15	0.6499	1.44754	0.00049
303.15	0.6998	1.44442	0.00049
303.15	0.75	1.44148	0.00049
303.15	0.7998	1.4388	0.00049
303.15	0.8498	1.43633	0.00049
303.15	0.8999	1.43401	0.00049
303.15	0.9496	1.43186	0.00049
303.15	1	1.42994	0.00049
308.15	0	1.545	0.00049
308.15	0.05	1.52879	0.00049
308.15	0.1	1.51525	0.00049
308.15	0.15	1.50385	0.00049
308.15	0.2	1.49405	0.00049
308.15	0.25	1.48565	0.00049
308.15	0.3	1.47835	0.00049
308.15	0.35	1.47191	0.00049
308.15	0.4	1.46618	0.00049
308.15	0.45	1.46109	0.00049
308.15	0.5	1.45653	0.00049
308.15	0.5499	1.45239	0.00049
308.15	0.6	1.44865	0.00049
308.15	0.6499	1.44519	0.00049
308.15	0.6998	1.44206	0.00049
308.15	0.75	1.43911	0.00049
308.15	0.7998	1.43644	0.00049
308.15	0.8498	1.43398	0.00049
308.15	0.8999	1.43164	0.00049
308.15	0.9496	1.42948	0.00049
308.15	1	1.42756	0.00049
313.15	0	1.5425	0.00049
313.15	0.05	1.52639	0.00049
313.15	0.1	1.51283	0.00049
313.15	0.15	1.50145	0.00049
313.15	0.2	1.49164	0.00049
313.15	0.25	1.48324	0.00049
313.15	0.3	1.47596	0.00049
313.15	0.35	1.46952	0.00049
313.15	0.4	1.46378	0.00049
313.15	0.45	1.45869	0.00049
313.15	0.5	1.45416	0.00049
313.15	0.5499	1.45003	0.00049
313.15	0.6	1.44629	0.00049
313.15	0.6499	1.44281	0.00049
313.15	0.6998	1.4397	0.00049
313.15	0.75	1.43674	0.00049
313.15	0.7998	1.43408	0.00049
313.15	0.8498	1.43163	0.00049
313.15	0.8999	1.42927	0.00049
313.15	0.9496	1.4271	0.00049
313.15	1	1.42521	0.00049
318.15	0	1.54005	0.00049
318.15	0.05	1.52399	0.00049
318.15	0.1	1.51041	0.00049
318.15	0.15	1.49905	0.00049
318.15	0.2	1.48923	0.00049
318.15	0.25	1.48083	0.00049
318.15	0.3	1.47357	0.00049
318.15	0.35	1.46713	0.00049
318.15	0.4	1.46138	0.00049
318.15	0.45	1.45629	0.00049
318.15	0.5	1.45179	0.00049
318.15	0.5499	1.44767	0.00049
318.15	0.6	1.44393	0.00049
318.15	0.6499	1.44045	0.00049
318.15	0.6998	1.43734	0.00049
318.15	0.75	1.43437	0.00049
318.15	0.7998	1.43172	0.00049
318.15	0.8498	1.42928	0.00049
318.15	0.8999	1.4269	0.00049
318.15	0.9496	1.42472	0.00049
318.15	1	1.42284	0.00049
