Measured thermophysical data. Study on the enthalpy of solution and enthalpy of dilution for the ionic liquid  [C3mim][Val] (1-propyl-3-methylimidazolium valine)
Source: J. Chem. Thermodyn., 2012, 10.1016/j.jct.2011.10.015
Compound 1: water, H2O, InChI=1S/H2O/h1H2
Compound 2: 1-methyl-3-propylimidazolium L-valinate, C12H23N3O2, InChI=1S/C7H13N2.C5H11NO2/c1-3-4-9-6-5-8(2)7-9;1-3(2)4(6)5(7)8/h5-7H,3-4H2,1-2H3;3-4H,6H2,1-2H3,(H,7,8)/q+1;/p-1/t;4-/m.0/s1

System: water + 1-methyl-3-propylimidazolium L-valinate; phases: Liquid
Fixed: Temperature, K = 298.15
Fixed: Pressure, kPa = 101.3
Property: Molar enthalpy of dilution, kJ/mol (Liquid); method: Calvet calorimetry
Initial mass fraction of solute	Final molality of solute, mol/kg	Molar enthalpy of dilution, kJ/mol	uncertainty
0.99179	0.01458	-54.63	0.55
0.99179	0.02012	-54.55	0.55
0.99179	0.02844	-54.38	0.54
0.99179	0.04131	-54.16	0.54
0.99179	0.04975	-53.97	0.54
0.988	0.01504	-54.21	0.54
0.988	0.01992	-54.13	0.54
0.988	0.03057	-53.94	0.54
0.988	0.03799	-53.76	0.54
0.988	0.05115	-53.53	0.54
0.9857	0.01526	-53.98	0.54
0.9857	0.02085	-53.87	0.54
0.9857	0.02844	-53.71	0.54
0.9857	0.04007	-53.48	0.54
0.9857	0.05315	-53.23	0.53
0.9838	0.01489	-53.77	0.54
0.9838	0.02038	-53.68	0.54
0.9838	0.03001	-53.49	0.54
0.9838	0.04008	-53.31	0.53
0.9838	0.05225	-53.08	0.53
0.9795	0.01562	-53.38	0.53
0.9795	0.02075	-53.29	0.53
0.9795	0.02914	-53.12	0.53
0.9795	0.04088	-52.91	0.53
0.9795	0.05026	-52.73	0.53

System: water + 1-methyl-3-propylimidazolium L-valinate; phases: Liquid
Fixed: Temperature, K = 298.15
Fixed: Pressure, kPa = 101.3
Property: Molar enthalpy of dilution, kJ/mol (Liquid); method: Calvet calorimetry
Initial molality of solute, mol/kg	Final molality of solute, mol/kg	Molar enthalpy of dilution, kJ/mol	uncertainty
1.295	0.0678	-4.824	0.049
1.112	0.0599	-4.172	0.043
1.582	0.0773	-5.91	0.06
1.703	0.0835	-6.377	0.065
1.422	0.0735	-5.308	0.054
1.868	0.0881	-7.016	0.071
2.004	0.0934	-7.568	0.077
2.168	0.0997	-8.239	0.083
2.324	0.1032	-8.898	0.09
2.458	0.107	-9.472	0.096
2.928	0.1237	-11.46	0.12
2.614	0.1084	-10.15	0.1
2.771	0.1204	-10.76	0.11
3.067	0.1274	-12.11	0.12
3.206	0.1296	-12.71	0.13
3.388	0.1311	-13.51	0.14
3.527	0.1346	-14.21	0.14
3.659	0.1407	-14.78	0.15
3.968	0.1461	-16.26	0.16
3.824	0.1429	-15.55	0.16
4.065	0.1476	-16.8	0.17
4.281	0.1488	-17.88	0.18
4.424	0.1553	-18.6	0.19
