Measured thermophysical data. Activity coefficients of NaF in (glucose + water) and (sucrose + water) mixtures at 298.15 K
Source: J. Chem. Thermodyn., 2004, 10.1016/j.jct.2004.07.002
Compound 1: D-glucose, C6H12O6, InChI=1S/C6H12O6/c7-1-3(9)5(11)6(12)4(10)2-8/h1,3-6,8-12H,2H2/t3-,4+,5+,6+/m0/s1
Compound 2: sodium fluoride, FNa, InChI=1S/FH.Na/h1H;/q;+1/p-1
Compound 3: water, H2O, InChI=1S/H2O/h1H2
Compound 4: D-sucrose, C12H22O11, InChI=1S/C12H22O11/c13-1-4-6(16)8(18)9(19)11(21-4)23-12(3-15)10(20)7(17)5(2-14)22-12/h4-11,13-20H,1-3H2/t4-,5-,6-,7-,8+,9-,10+,11-,12+/m1/s1

System: D-glucose + sodium fluoride + water; phases: Liquid
Fixed: Temperature, K = 298.15
Fixed: Pressure, kPa = 101
Property: Mean ionic activity coefficient of sodium fluoride (Liquid); method: Calculated from EMF cell potential
Mass fraction of D-glucose	Molality, mol/kg of sodium fluoride	Mean ionic activity coefficient of sodium fluoride	uncertainty
0	0.0271	0.85	0.026
0	0.0538	0.808	0.025
0	0.06928	0.793	0.025
0	0.08685	0.781	0.025
0	0.1248	0.752	0.025
0	0.1677	0.727	0.025
0	0.2315	0.699	0.025
0	0.2806	0.682	0.025
0	0.3506	0.663	0.025
0	0.4188	0.647	0.025
0	0.5047	0.634	0.025
0	0.6012	0.618	0.025
0	0.6683	0.61	0.025
0	0.7315	0.603	0.025
0	0.8183	0.595	0.025
0	0.878	0.589	0.025
0	0.9492	0.576	0.025
0	0.983	0.569	0.025
0.1	0.02858	0.84	0.026
0.1	0.05608	0.804	0.025
0.1	0.08176	0.777	0.025
0.1	0.1337	0.739	0.025
0.1	0.1656	0.723	0.025
0.1	0.2452	0.688	0.025
0.1	0.2875	0.675	0.025
0.1	0.324	0.663	0.025
0.1	0.4096	0.644	0.025
0.1	0.4875	0.629	0.025
0.1	0.5799	0.611	0.025
0.1	0.673	0.584	0.025
0.1	0.7692	0.58	0.025
0.1	0.8274	0.572	0.025
0.1	0.8467	0.573	0.025
0.2	0.02815	0.813	0.026
0.2	0.07149	0.767	0.025
0.2	0.1121	0.726	0.025
0.2	0.1573	0.694	0.025
0.2	0.2075	0.667	0.025
0.2	0.2791	0.638	0.025
0.2	0.3342	0.619	0.025
0.2	0.3817	0.608	0.025
0.2	0.4538	0.596	0.025
0.2	0.5493	0.58	0.025
0.2	0.6152	0.572	0.025
0.2	0.701	0.564	0.025
0.3	0.00804	0.879	0.026
0.3	0.02128	0.846	0.026
0.3	0.05062	0.787	0.025
0.3	0.1115	0.722	0.025
0.3	0.1724	0.689	0.025
0.3	0.2213	0.667	0.025
0.3	0.2917	0.647	0.025
0.3	0.3329	0.638	0.025
0.3	0.3917	0.627	0.025
0.3	0.4428	0.618	0.025
0.3	0.5052	0.609	0.025
0.3	0.536	0.605	0.025
0.3	0.5691	0.602	0.025
0.3	0.6075	0.598	0.025
0.4	0.05557	0.747	0.025
0.4	0.07516	0.727	0.025
0.4	0.0898	0.716	0.025
0.4	0.1171	0.693	0.025
0.4	0.1597	0.667	0.025
0.4	0.1957	0.643	0.025
0.4	0.2237	0.634	0.025
0.4	0.2573	0.624	0.025
0.4	0.2832	0.616	0.025
0.4	0.3216	0.605	0.025
0.4	0.361	0.596	0.025
0.4	0.4056	0.587	0.025
0.4	0.4525	0.58	0.025
0.4	0.4859	0.575	0.025

System: D-sucrose + sodium fluoride + water; phases: Liquid
Fixed: Temperature, K = 298.15
Fixed: Pressure, kPa = 101
Property: Mean ionic activity coefficient of sodium fluoride (Liquid); method: Calculated from EMF cell potential
Mass fraction of D-sucrose	Molality, mol/kg of sodium fluoride	Mean ionic activity coefficient of sodium fluoride	uncertainty
0.1	0.07745	0.771	0.025
0.1	0.1113	0.748	0.025
0.1	0.1836	0.709	0.025
0.1	0.257	0.68	0.025
0.1	0.33	0.657	0.025
0.1	0.4085	0.638	0.025
0.1	0.4859	0.625	0.025
0.1	0.5679	0.614	0.025
0.1	0.6571	0.603	0.025
0.1	0.737	0.594	0.025
0.1	0.799	0.582	0.025
0.2	0.02187	0.839	0.026
0.2	0.04784	0.804	0.025
0.2	0.07369	0.771	0.025
0.2	0.1112	0.734	0.025
0.2	0.1408	0.715	0.025
0.2	0.1974	0.687	0.025
0.2	0.2656	0.663	0.025
0.2	0.34	0.644	0.025
0.2	0.3972	0.632	0.025
0.2	0.4618	0.62	0.025
0.2	0.563	0.606	0.025
0.2	0.6289	0.599	0.025
0.2	0.6746	0.594	0.025
0.2	0.7207	0.586	0.025
0.2	0.7353	0.582	0.025
0.3	0.03707	0.801	0.025
0.3	0.05509	0.781	0.025
0.3	0.08452	0.746	0.025
0.3	0.1097	0.727	0.025
0.3	0.1562	0.701	0.025
0.3	0.1968	0.683	0.025
0.3	0.2413	0.667	0.025
0.3	0.2692	0.659	0.025
0.3	0.3022	0.65	0.025
0.3	0.3341	0.634	0.025
0.3	0.3672	0.63	0.025
0.3	0.4448	0.613	0.025
0.3	0.5295	0.607	0.025
0.3	0.5909	0.599	0.025
0.3	0.6086	0.597	0.025
0.4	0.03342	0.807	0.025
0.4	0.06648	0.771	0.025
0.4	0.09785	0.744	0.025
0.4	0.1366	0.718	0.025
0.4	0.1647	0.704	0.025
0.4	0.2261	0.68	0.025
0.4	0.2683	0.666	0.025
0.4	0.337	0.649	0.025
0.4	0.3967	0.638	0.025
0.4	0.4804	0.623	0.025

System: sodium fluoride + water; phases: Liquid
Fixed: Temperature, K = 298.15
Fixed: Pressure, kPa = 101
Property: Mean ionic activity coefficient of sodium fluoride (Liquid); method: Calculated from EMF cell potential
Molality, mol/kg of sodium fluoride	Mean ionic activity coefficient of sodium fluoride	uncertainty
0.0271	0.85	0.026
0.0538	0.808	0.025
0.06928	0.793	0.025
0.08685	0.781	0.025
0.1248	0.752	0.025
0.1677	0.727	0.025
0.2315	0.699	0.025
0.2806	0.682	0.025
0.3506	0.663	0.025
0.4188	0.647	0.025
0.5047	0.634	0.025
0.6012	0.618	0.025
0.6683	0.61	0.025
0.7315	0.603	0.025
0.8183	0.595	0.025
0.878	0.589	0.025
0.9492	0.576	0.025
0.983	0.569	0.025
