Measured thermophysical data. Thermodynamic and transport properties of L-serine and L-threonine in aqueous sodium acetate and magnesium acetate solutions at T = 298.15 K
Source: J. Chem. Thermodyn., 2007, 10.1016/j.jct.2006.08.003
Compound 1: water, H2O, InChI=1S/H2O/h1H2
Compound 2: sodium ethanoate, C2H3NaO2, InChI=1S/C2H4O2.Na/c1-2(3)4;/h1H3,(H,3,4);/q;+1/p-1
Compound 3: L-threonine, C4H9NO3, InChI=1S/C4H9NO3/c1-2(6)3(5)4(7)8/h2-3,6H,5H2,1H3,(H,7,8)/t2-,3+/m1/s1
Compound 4: magnesium acetate, C4H6MgO4, InChI=1S/2C2H4O2.Mg/c2*1-2(3)4;/h2*1H3,(H,3,4);/q;;+2/p-2
Compound 5: L-serine, C3H7NO3, InChI=1S/C3H7NO3/c4-2(1-5)3(6)7/h2,5H,1,4H2,(H,6,7)/t2-/m0/s1

System: water; phases: Liquid
Property: Speed of sound, m/s (Liquid); method: Sing-around technique in a fixed-path interferometer
Pressure, kPa	Temperature, K	Speed of sound, m/s	uncertainty
101	298.15	1496.74	1.32

System: sodium ethanoate + water; phases: Liquid
Fixed: Pressure, kPa = 101
Fixed: Temperature, K = 298.15
Property: Speed of sound, m/s (Liquid); method: Sing-around technique in a fixed-path interferometer
Molality, mol/kg of sodium ethanoate	Speed of sound, m/s	uncertainty
0.5	1547.63	1.33
1	1590.43	1.34
2	1658.02	1.35
4	1761.81	1.38

System: L-threonine + water; phases: Liquid
Fixed: Pressure, kPa = 101
Fixed: Temperature, K = 298.15
Property: Viscosity, Pa*s (Liquid); method: Capillary tube (Ostwald; Ubbelohde) method
Amount concentration (molarity), mol/dm3 of L-threonine	Viscosity, Pa*s	uncertainty
0.04869	1.0175	0.006
0.10041	1.0357	0.0061
0.14404	1.0489	0.0062
0.17077	1.057	0.0062
0.21302	1.0727	0.0063
0.27179	1.0931	0.0064

System: L-threonine + water; phases: Liquid
Fixed: Pressure, kPa = 101
Fixed: Temperature, K = 298.15
Property: Speed of sound, m/s (Liquid); method: Sing-around technique in a fixed-path interferometer
Molality, mol/kg of L-threonine	Speed of sound, m/s	uncertainty
0.10125	1504.67	1.49
0.1405	1507.74	1.49
0.1798	1510.94	1.49
0.22271	1514.34	1.49
0.25243	1516.64	1.49
0.27546	1518.66	1.49

System: L-threonine + water; phases: Liquid
Fixed: Pressure, kPa = 101
Fixed: Temperature, K = 298.15
Property: Mass density, kg/m3 (Liquid); method: VIBTUB:UFactor:6
Molality, mol/kg of L-threonine	Mass density, kg/m3	uncertainty
0.04618	998.993	0.439
0.10125	1001.288	0.441
0.1405	1002.908	0.446
0.1798	1004.508	0.451
0.22271	1006.261	0.457
0.25243	1007.454	0.461
0.27546	1008.376	0.465

System: magnesium acetate + water; phases: Liquid
Fixed: Pressure, kPa = 101
Fixed: Temperature, K = 298.15
Property: Speed of sound, m/s (Liquid); method: Sing-around technique in a fixed-path interferometer
Molality, mol/kg of magnesium acetate	Speed of sound, m/s	uncertainty
0.5	1571.73	1.41
1	1630.42	1.42
1.5	1680.22	1.43
2	1724.41	1.44

System: L-serine + water; phases: Liquid
Fixed: Pressure, kPa = 101
Fixed: Temperature, K = 298.15
Property: Viscosity, Pa*s (Liquid); method: Capillary tube (Ostwald; Ubbelohde) method
Amount concentration (molarity), mol/dm3 of L-serine	Viscosity, Pa*s	uncertainty
0.05259	1.0093	0.0049
0.10056	1.0234	0.005
0.14901	1.036	0.005
0.19298	1.0461	0.005
0.25174	1.0599	0.0051

System: L-serine + water; phases: Liquid
Fixed: Pressure, kPa = 101
Fixed: Temperature, K = 298.15
Property: Speed of sound, m/s (Liquid); method: Sing-around technique in a fixed-path interferometer
Molality, mol/kg of L-serine	Speed of sound, m/s	uncertainty
0.10147	1503.02	1.32
0.15082	1506.08	1.32
0.19585	1509	1.32
0.25642	1512.74	1.32
0.28883	1514.94	1.32
0.36551	1519.79	1.33

System: L-serine + water; phases: Liquid
Fixed: Pressure, kPa = 101
Fixed: Temperature, K = 298.15
Property: Mass density, kg/m3 (Liquid); method: VIBTUB:UFactor:4
Molality, mol/kg of L-serine	Mass density, kg/m3	uncertainty
0.10147	1001.525	0.245
0.15082	1003.674	0.249
0.19585	1005.618	0.253
0.25642	1008.21	0.259
0.28883	1009.586	0.262
0.36551	1012.802	0.268

System: L-serine + sodium ethanoate + water; phases: Liquid
Fixed: Pressure, kPa = 101
Fixed: Temperature, K = 298.15
Property: Viscosity, Pa*s (Liquid); method: Capillary tube (Ostwald; Ubbelohde) method
Solvent: Molality, mol/kg of sodium ethanoate	Amount concentration (molarity), mol/dm3 of L-serine	Viscosity, Pa*s	uncertainty
0	0.05259	1.0093	0.0049
0	0.10056	1.0234	0.005
0	0.14901	1.036	0.005
0	0.19298	1.0461	0.005
0	0.25174	1.0599	0.0051
0.5	0.07409	1.0194	0.0049
0.5	0.12347	1.0325	0.005
0.5	0.1741	1.0441	0.005
0.5	0.22777	1.0584	0.0051
0.5	0.32394	1.0812	0.0052
0.5	0.37423	1.0971	0.0053
1	0.0744	1.0195	0.0049
1	0.12583	1.033	0.005
1	0.18062	1.0479	0.0051
1	0.32168	1.0861	0.0052
1	0.37281	1.0966	0.0053
2	0.11244	1.0296	0.005
2	0.14827	1.0406	0.005
2	0.19864	1.0554	0.0051
2	0.24813	1.068	0.0051
2	0.30344	1.0825	0.0052
4	0.10523	1.0294	0.005
4	0.15001	1.0423	0.005
4	0.19983	1.0561	0.0051
4	0.24713	1.0701	0.0051
4	0.29582	1.0817	0.0052
4	0.34019	1.0971	0.0053

System: L-serine + sodium ethanoate + water; phases: Liquid
Fixed: Pressure, kPa = 101
Fixed: Temperature, K = 298.15
Property: Speed of sound, m/s (Liquid); method: Sing-around technique in a fixed-path interferometer
Solvent: Molality, mol/kg of sodium ethanoate	Molality, mol/kg of L-serine	Speed of sound, m/s	uncertainty
0	0	1496.74	1.32
0	0.10147	1503.02	1.32
0	0.15082	1506.08	1.32
0	0.19585	1509	1.32
0	0.25642	1512.74	1.32
0	0.28883	1514.94	1.32
0	0.36551	1519.79	1.33
0.5	0	1547.63	1.33
0.5	0.1216	1553.63	1.33
0.5	0.17201	1556.11	1.33
0.5	0.2258	1558.95	1.33
0.5	0.27412	1561.39	1.33
0.5	0.32311	1563.79	1.33
1	0	1590.43	1.34
1	0.07136	1593.85	1.34
1	0.12109	1596.33	1.34
1	0.17442	1598.87	1.34
1	0.22321	1601.17	1.34
1	0.3135	1605.63	1.34
1	0.36454	1608.19	1.34
2	0	1658.02	1.35
2	0.05645	1660.62	1.35
2	0.15776	1664.42	1.35
2	0.18518	1666.54	1.35
2	0.23207	1668.7	1.35
2	0.28485	1671.16	1.35
4	0	1761.81	1.38
4	0.09435	1765.31	1.38
4	0.18034	1768.87	1.38
4	0.22374	1770.29	1.38
4	0.26872	1771.91	1.38
4	0.30997	1773.77	1.38

System: L-serine + sodium ethanoate + water; phases: Liquid
Fixed: Pressure, kPa = 101
Fixed: Temperature, K = 298.15
Property: Mass density, kg/m3 (Liquid); method: VIBTUB:UFactor:4
Solvent: Molality, mol/kg of sodium ethanoate	Molality, mol/kg of L-serine	Mass density, kg/m3	uncertainty
0	0.10147	1001.525	0.245
0	0.15082	1003.674	0.249
0	0.19585	1005.618	0.253
0	0.25642	1008.21	0.259
0	0.28883	1009.586	0.262
0	0.36551	1012.802	0.268
0.5	0.07274	1026.349	0.297
0.5	0.1216	1028.389	0.301
0.5	0.17201	1030.472	0.306
0.5	0.2258	1032.672	0.31
0.5	0.27412	1034.636	0.314
0.5	0.32311	1036.607	0.318
0.5	0.37448	1038.469	0.322
1	0.12019	1052.402	0.352
1	0.17442	1054.505	0.356
1	0.22321	1056.413	0.36
1	0.26006	1057.846	0.363
1	0.3135	1059.9	0.368
1	0.36454	1061.85	0.372
2	0.05645	1088.891	0.494
2	0.10422	1090.645	0.433
2	0.13776	1091.879	0.437
2	0.18518	1093.588	0.442
2	0.23207	1095.288	0.445
2	0.28485	1097.186	0.451
2	0.33458	1098.946	0.452
4	0.0586	1125.175	0.508
4	0.10011	1126.521	0.511
4	0.18972	1129.433	0.518
4	0.24949	1131.343	0.522
4	0.30146	1132.95	0.525
4	0.36531	1134.996	0.53

System: L-threonine + sodium ethanoate + water; phases: Liquid
Fixed: Pressure, kPa = 101
Fixed: Temperature, K = 298.15
Property: Viscosity, Pa*s (Liquid); method: Capillary tube (Ostwald; Ubbelohde) method
Solvent: Molality, mol/kg of sodium ethanoate	Amount concentration (molarity), mol/dm3 of L-threonine	Viscosity, Pa*s	uncertainty
0	0.04869	1.0175	0.006
0	0.10041	1.0357	0.0061
0	0.14404	1.0489	0.0062
0	0.17077	1.057	0.0062
0	0.21302	1.0727	0.0063
0	0.27179	1.0931	0.0064
0.5	0.05464	1.0209	0.006
0.5	0.1026	1.0381	0.0061
0.5	0.14697	1.0545	0.0062
0.5	0.18149	1.0666	0.0063
0.5	0.2071	1.078	0.0064
0.5	0.24638	1.0924	0.0064
1	0.05588	1.0214	0.0061
1	0.10557	1.0403	0.0062
1	0.14708	1.0558	0.0062
1	0.18055	1.0697	0.0063
1	0.24819	1.0944	0.0064
2	0.11506	1.0447	0.0062
2	0.15452	1.0591	0.0063
2	0.19861	1.0783	0.0064
2	0.22592	1.0891	0.0064
2	0.27328	1.1062	0.0065
4	0.06014	1.0239	0.0061
4	0.11883	1.0468	0.0062
4	0.19714	1.0791	0.0064
4	0.22114	1.0879	0.0064
4	0.25602	1.102	0.0065

System: L-threonine + sodium ethanoate + water; phases: Liquid
Fixed: Pressure, kPa = 101
Fixed: Temperature, K = 298.15
Property: Speed of sound, m/s (Liquid); method: Sing-around technique in a fixed-path interferometer
Solvent: Molality, mol/kg of sodium ethanoate	Molality, mol/kg of L-threonine	Speed of sound, m/s	uncertainty
0	0	1496.74	1.49
0	0.10125	1504.67	1.49
0	0.1405	1507.74	1.49
0	0.1798	1510.94	1.49
0	0.22271	1514.34	1.49
0	0.25243	1516.64	1.49
0	0.27546	1518.66	1.49
0.5	0	1547.63	1.5
0.5	0.05363	1551.03	1.5
0.5	0.10108	1553.99	1.5
0.5	0.14529	1556.83	1.5
0.5	0.24551	1563.19	1.5
0.5	0.26597	1564.77	1.5
1	0	1590.43	1.5
1	0.05359	1593.72	1.5
1	0.10163	1596.73	1.5
1	0.14205	1599.23	1.5
1	0.17486	1601.31	1.5
1	0.19345	1602.57	1.5
1	0.24167	1605.43	1.5
2	0	1658.02	1.51
2	0.05569	1661.32	1.52
2	0.14398	1666.62	1.52
2	0.18572	1668.92	1.52
2	0.21173	1670.52	1.52
2	0.25712	1673.4	1.52
4	0	1761.81	1.54
4	0.10684	1767.11	1.54
4	0.14418	1768.91	1.54
4	0.1784	1770.61	1.54
4	0.20053	1771.63	1.54
4	0.23284	1772.93	1.54

System: L-threonine + sodium ethanoate + water; phases: Liquid
Fixed: Pressure, kPa = 101
Fixed: Temperature, K = 298.15
Property: Mass density, kg/m3 (Liquid); method: VIBTUB:UFactor:6
Solvent: Molality, mol/kg of sodium ethanoate	Molality, mol/kg of L-threonine	Mass density, kg/m3	uncertainty
0	0.04618	998.993	0.439
0	0.10125	1001.288	0.441
0	0.1405	1002.908	0.446
0	0.1798	1004.508	0.451
0	0.22271	1006.261	0.457
0	0.25243	1007.454	0.461
0	0.27546	1008.376	0.465
0.5	0.10159	1027.316	0.53
0.5	0.14173	1028.883	0.534
0.5	0.17036	1029.995	0.538
0.5	0.20277	1031.244	0.542
0.5	0.2329	1032.395	0.546
0.5	0.26076	1033.458	0.55
1	0.10365	1051.448	0.617
1	0.13947	1052.768	0.614
1	0.15771	1053.461	0.618
1	0.19933	1054.987	0.623
1	0.22344	1055.854	0.626
1	0.26281	1057.301	0.63
2	0.10406	1090.335	0.787
2	0.14443	1091.691	0.751
2	0.22244	1094.251	0.757
2	0.25709	1095.391	0.765
2	0.274	1095.944	0.822
4	0.10243	1126.279	0.868
4	0.13954	1127.364	0.871
4	0.18172	1128.579	0.876
4	0.21816	1129.634	0.879
4	0.23575	1130.141	0.881
4	0.2614	1130.867	0.883

System: L-serine + magnesium acetate + water; phases: Liquid
Fixed: Pressure, kPa = 101
Fixed: Temperature, K = 298.15
Property: Viscosity, Pa*s (Liquid); method: Capillary tube (Ostwald; Ubbelohde) method
Solvent: Molality, mol/kg of magnesium acetate	Amount concentration (molarity), mol/dm3 of L-serine	Viscosity, Pa*s	uncertainty
0.5	0.1064	1.0287	0.0055
0.5	0.14647	1.0391	0.0055
0.5	0.19194	1.0497	0.0056
0.5	0.24088	1.064	0.0057
0.5	0.28066	1.0744	0.0057
0.5	0.35447	1.0937	0.0058
1	0.11137	1.0318	0.0055
1	0.15496	1.0429	0.0056
1	0.1899	1.0521	0.0056
1	0.24294	1.0659	0.0057
1	0.32196	1.0878	0.0058
1.5	0.06103	1.0171	0.0054
1.5	0.10894	1.0303	0.0055
1.5	0.16945	1.0473	0.0056
1.5	0.22713	1.0637	0.0057
1.5	0.29202	1.0825	0.0057
1.5	0.34558	1.0965	0.0058
2	0.10738	1.0295	0.0055
2	0.18124	1.0514	0.0056
2	0.24289	1.07	0.0057
2	0.2845	1.0825	0.0057
2	0.32612	1.0935	0.0058
2	0.38408	1.1095	0.0059

System: L-serine + magnesium acetate + water; phases: Liquid
Fixed: Pressure, kPa = 101
Fixed: Temperature, K = 298.15
Property: Speed of sound, m/s (Liquid); method: Sing-around technique in a fixed-path interferometer
Solvent: Molality, mol/kg of magnesium acetate	Molality, mol/kg of L-serine	Speed of sound, m/s	uncertainty
0.5	0	1571.73	1.41
0.5	0.05264	1574.31	1.41
0.5	0.14307	1578.83	1.41
0.5	0.18804	1580.86	1.41
0.5	0.23673	1583.47	1.41
0.5	0.35092	1589.09	1.41
1	0	1630.42	1.42
1	0.10547	1635.42	1.42
1	0.14717	1637.54	1.42
1	0.18077	1639.2	1.42
1	0.23207	1641.66	1.42
1	0.30917	1645.26	1.42
1	0.33432	1646.62	1.43
1.5	0	1680.22	1.43
1.5	0.05622	1682.86	1.43
1.5	0.10067	1684.98	1.43
1.5	0.15723	1687.52	1.43
1.5	0.21157	1690.02	1.43
1.5	0.2732	1693.06	1.43
1.5	0.32449	1695.76	1.43
2	0	1724.41	1.44
2	0.14433	1730.57	1.44
2	0.19971	1732.77	1.44
2	0.24605	1734.81	1.44
2	0.28944	1736.57	1.44
2	0.32396	1738.17	1.44

System: L-serine + magnesium acetate + water; phases: Liquid
Fixed: Pressure, kPa = 101
Fixed: Temperature, K = 298.15
Property: Mass density, kg/m3 (Liquid); method: VIBTUB:UFactor:4
Solvent: Molality, mol/kg of magnesium acetate	Molality, mol/kg of L-serine	Mass density, kg/m3	uncertainty
0.5	0.05264	1035.492	0.371
0.5	0.10366	1037.556	0.376
0.5	0.14307	1039.136	0.379
0.5	0.18804	1040.933	0.383
0.5	0.23673	1042.867	0.388
0.5	0.27653	1044.431	0.391
0.5	0.35092	1047.365	0.398
1	0.04567	1065.389	0.438
1	0.10626	1067.688	0.444
1	0.24224	1072.76	0.455
1	0.28504	1074.327	0.459
1	0.3251	1075.79	0.462
1.5	0.11523	1094.045	0.506
1.5	0.16408	1095.777	0.508
1.5	0.23203	1098.159	0.512
1.5	0.27672	1099.709	0.516
1.5	0.32824	1101.471	0.519
2	0.10141	1115.92	0.553
2	0.14433	1117.367	0.556
2	0.19971	1119.193	0.561
2	0.24605	1120.733	0.564
2	0.28944	1122.183	0.567
2	0.32396	1123.306	0.57

System: L-threonine + magnesium acetate + water; phases: Liquid
Fixed: Pressure, kPa = 101
Fixed: Temperature, K = 298.15
Property: Viscosity, Pa*s (Liquid); method: Capillary tube (Ostwald; Ubbelohde) method
Solvent: Molality, mol/kg of magnesium acetate	Amount concentration (molarity), mol/dm3 of L-threonine	Viscosity, Pa*s	uncertainty
0.5	0.10684	1.0408	0.0068
0.5	0.14317	1.0542	0.0069
0.5	0.18436	1.0682	0.007
0.5	0.21832	1.0841	0.0071
0.5	0.25304	1.0974	0.0072
0.5	0.27313	1.1045	0.0072
1	0.05266	1.0209	0.0067
1	0.11071	1.0424	0.0068
1	0.14849	1.0585	0.0069
1	0.21147	1.0829	0.0071
1	0.2419	1.0944	0.0071
1.5	0.053	1.0207	0.0067
1.5	0.11555	1.0457	0.0068
1.5	0.1512	1.0591	0.0069
1.5	0.19159	1.0764	0.007
1.5	0.22858	1.091	0.0071
2	0.05749	1.0231	0.0067
2	0.11368	1.0454	0.0068
2	0.15323	1.0615	0.0069
2	0.19001	1.0771	0.007
2	0.2532	1.101	0.0072
2	0.28512	1.1148	0.0073

System: L-threonine + magnesium acetate + water; phases: Liquid
Fixed: Pressure, kPa = 101
Fixed: Temperature, K = 298.15
Property: Speed of sound, m/s (Liquid); method: Sing-around technique in a fixed-path interferometer
Solvent: Molality, mol/kg of magnesium acetate	Molality, mol/kg of L-threonine	Speed of sound, m/s	uncertainty
0.5	0	1571.73	1.6
0.5	0.10428	1577.89	1.6
0.5	0.14014	1580.11	1.6
0.5	0.18105	1582.47	1.6
0.5	0.215	1584.53	1.6
0.5	0.24988	1586.83	1.6
0.5	0.27016	1587.89	1.6
1	0	1630.42	1.61
1	0.10502	1636.48	1.61
1	0.14129	1638.62	1.61
1	0.17831	1640.7	1.61
1	0.20225	1642.02	1.61
1	0.23192	1643.72	1.61
1.5	0	1680.22	1.62
1.5	0.04885	1683.24	1.62
1.5	0.10702	1686.18	1.62
1.5	0.14045	1687.94	1.62
1.5	0.17856	1690.08	1.62
1.5	0.21369	1692.21	1.62
1.5	0.24357	1693.82	1.62
2	0	1724.41	1.63
2	0.05192	1727.13	1.63
2	0.10315	1729.71	1.63
2	0.1735	1733.28	1.63
2	0.23242	1736.41	1.63
2	0.26244	1738.05	1.63

System: L-threonine + magnesium acetate + water; phases: Liquid
Fixed: Pressure, kPa = 101
Fixed: Temperature, K = 298.15
Property: Mass density, kg/m3 (Liquid); method: VIBTUB:UFactor:6
Solvent: Molality, mol/kg of magnesium acetate	Molality, mol/kg of L-threonine	Mass density, kg/m3	uncertainty
0.5	0.05275	1035.382	0.643
0.5	0.09853	1037.125	0.649
0.5	0.18612	1040.419	0.661
0.5	0.21132	1041.353	0.664
0.5	0.26796	1043.442	0.672
1	0.14304	1068.726	0.762
1	0.18236	1070.109	0.767
1	0.21256	1071.165	0.771
1	0.23466	1071.929	0.774
1	0.26807	1073.072	0.777
1.5	0.10584	1093.425	0.852
1.5	0.13982	1094.549	0.856
1.5	0.17653	1095.739	0.86
1.5	0.23362	1097.584	0.866
1.5	0.2611	1098.477	0.869
2	0.05192	1114.081	0.926
2	0.10315	1115.649	0.932
2	0.13949	1116.761	0.936
2	0.1735	1117.786	0.94
2	0.23242	1119.554	0.946
2	0.26243	1120.423	0.949
