Measured thermophysical data. Experimental measurement and modelling of solubility of inosine-5'-monophosphate disodium in pure and mixed solvents
Source: J. Chem. Thermodyn., 2014, 10.1016/j.jct.2014.04.023
Compound 1: inosine 5'-monophosphate disodium, C10H11N4Na2O8P, InChI=1S/C10H13N4O8P.2Na/c15-6-4(1-21-23(18,19)20)22-10(7(6)16)14-3-13-5-8(14)11-2-12-9(5)17;;/h2-4,6-7,10,15-16H,1H2,(H,11,12,17)(H2,18,19,20);;/q;2*+1/p-2/t4-,6-,7-,10-;;/m1../s1
Compound 2: methanol, CH4O, InChI=1S/CH4O/c1-2/h2H,1H3, purity 99.5%
Compound 3: ethanol, C2H6O, InChI=1S/C2H6O/c1-2-3/h3H,2H2,1H3, purity 99.7%
Compound 4: acetone, C3H6O, InChI=1S/C3H6O/c1-3(2)4/h1-2H3, purity 99.5%
Compound 5: water, H2O, InChI=1S/H2O/h1H2, purity 99%

System: inosine 5'-monophosphate disodium; phases: Crystal, Liquid, Air at 1 atmosphere
Property: Triple point temperature, K (Crystal); method: DTA
Triple point temperature, K	uncertainty
472.23	0.53

System: inosine 5'-monophosphate disodium; phases: Crystal, Liquid, Air at 1 atmosphere
Property: Molar enthalpy of transition or fusion, kJ/mol (Crystal); method: DSC
Molar enthalpy of transition or fusion, kJ/mol	uncertainty
17.39	0.79

System: inosine 5'-monophosphate disodium + water; phases: Liquid, Crystal
Fixed: Pressure, kPa = 100
Property: Mole fraction of inosine 5'-monophosphate disodium (Liquid); method: Chromatography
Temperature, K	Mole fraction of inosine 5'-monophosphate disodium	uncertainty
293.15	0.01334	0.00027
298.15	0.01552	0.00032
303.15	0.01759	0.00036
308.15	0.02034	0.00041
313.15	0.02347	0.00048

System: methanol + inosine 5'-monophosphate disodium; phases: Liquid, Crystal
Fixed: Pressure, kPa = 100
Property: Mole fraction of inosine 5'-monophosphate disodium (Liquid); method: Chromatography
Temperature, K	Mole fraction of inosine 5'-monophosphate disodium	uncertainty
293.15	0.002196	4.8e-05
298.15	0.003118	6.6e-05
303.15	0.004174	8.7e-05
308.15	0.005256	0.000109
313.15	0.006659	0.000137

System: ethanol + inosine 5'-monophosphate disodium; phases: Liquid, Crystal
Fixed: Pressure, kPa = 100
Property: Mole fraction of inosine 5'-monophosphate disodium (Liquid); method: Chromatography
Temperature, K	Mole fraction of inosine 5'-monophosphate disodium	uncertainty
293.15	0.000951	1.94e-05
298.15	0.001112	2.3e-05
303.15	0.001224	2.5e-05
308.15	0.001482	3e-05
313.15	0.00165	3.3e-05

System: acetone + inosine 5'-monophosphate disodium; phases: Liquid, Crystal
Fixed: Pressure, kPa = 100
Property: Mole fraction of inosine 5'-monophosphate disodium (Liquid); method: Chromatography
Temperature, K	Mole fraction of inosine 5'-monophosphate disodium	uncertainty
293.15	0.0001275	2.6e-06
298.15	0.0001452	3e-06
303.15	0.0001764	3.6e-06
308.15	0.0002117	4.3e-06
313.15	0.0002364	4.8e-06

System: methanol + inosine 5'-monophosphate disodium + water; phases: Liquid, Crystal
Fixed: Pressure, kPa = 100
Property: Mole fraction of inosine 5'-monophosphate disodium (Liquid); method: Chromatography
Solvent: Mole fraction of water	Temperature, K	Mole fraction of inosine 5'-monophosphate disodium	uncertainty
0.5099	293.15	0.00765	0.00016
0.6082	293.15	0.008179	0.000171
0.7044	293.15	0.008631	0.000182
0.8017	293.15	0.009332	0.000195
0.9049	293.15	0.009989	0.000204
0.5099	298.15	0.009869	0.000204
0.6082	298.15	0.01048	0.00022
0.7044	298.15	0.01142	0.00024
0.8017	298.15	0.01197	0.00025
0.9049	298.15	0.01273	0.00026
0.5099	303.15	0.01239	0.00026
0.6082	303.15	0.01319	0.00027
0.7044	303.15	0.01439	0.00029
0.8017	303.15	0.01516	0.00031
0.9049	303.15	0.01602	0.00033
0.5099	308.15	0.0154	0.00032
0.6082	308.15	0.01637	0.00033
0.7044	308.15	0.0171	0.00035
0.8017	308.15	0.01788	0.00036
0.9049	308.15	0.01951	0.0004
0.5099	313.15	0.01835	0.00037
0.6082	313.15	0.0193	0.00039
0.7044	313.15	0.02013	0.00041
0.8017	313.15	0.02084	0.00042
0.9049	313.15	0.02277	0.00046
1	293.15	0.01334	0.00027
1	298.15	0.01552	0.00032
1	303.15	0.01759	0.00036
1	308.15	0.02034	0.00041
1	313.15	0.02347	0.00048
0	293.15	0.002196	4.8e-05
0	298.15	0.003118	6.6e-05
0	303.15	0.004174	8.7e-05
0	308.15	0.005256	0.000109
0	313.15	0.006659	0.000137

System: ethanol + inosine 5'-monophosphate disodium + water; phases: Liquid, Crystal
Fixed: Pressure, kPa = 100
Property: Mole fraction of inosine 5'-monophosphate disodium (Liquid); method: Chromatography
Solvent: Mole fraction of water	Temperature, K	Mole fraction of inosine 5'-monophosphate disodium	uncertainty
0.4999	293.15	0.006719	0.000137
0.599	293.15	0.007276	0.00015
0.6984	293.15	0.007703	0.000159
0.7984	293.15	0.008805	0.000182
0.8985	293.15	0.009731	0.000198
0.4999	298.15	0.007929	0.000163
0.599	298.15	0.00898	0.000184
0.6984	298.15	0.009617	0.000197
0.7984	298.15	0.01078	0.00022
0.8985	298.15	0.01218	0.00025
0.4999	303.15	0.01001	0.00021
0.599	303.15	0.01087	0.00022
0.6984	303.15	0.01169	0.00024
0.7984	303.15	0.01301	0.00027
0.8985	303.15	0.01533	0.00031
0.4999	308.15	0.01196	0.00024
0.599	308.15	0.01307	0.00027
0.6984	308.15	0.01414	0.00029
0.7984	308.15	0.0154	0.00031
0.8985	308.15	0.01788	0.00036
0.4999	313.15	0.01415	0.00029
0.599	313.15	0.01571	0.00032
0.6984	313.15	0.01664	0.00034
0.7984	313.15	0.01815	0.00037
0.8985	313.15	0.0209	0.00042
1	293.15	0.01334	0.00027
1	298.15	0.01552	0.00032
1	303.15	0.01759	0.00036
1	308.15	0.02034	0.00041
1	313.15	0.02347	0.00048
0	293.15	0.000951	1.94e-05
0	298.15	0.001112	2.3e-05
0	303.15	0.001224	2.5e-05
0	308.15	0.001482	3e-05
0	313.15	0.00165	3.3e-05

System: acetone + inosine 5'-monophosphate disodium + water; phases: Liquid, Crystal
Fixed: Pressure, kPa = 100
Property: Mole fraction of inosine 5'-monophosphate disodium (Liquid); method: Chromatography
Solvent: Mole fraction of water	Temperature, K	Mole fraction of inosine 5'-monophosphate disodium	uncertainty
0.5046	293.15	0.006073	0.000128
0.6038	293.15	0.006792	0.000142
0.703	293.15	0.007134	0.000147
0.8028	293.15	0.007506	0.000156
0.9006	293.15	0.008233	0.000167
0.5046	298.15	0.007926	0.000164
0.6038	298.15	0.008555	0.000176
0.703	298.15	0.008844	0.000182
0.8028	298.15	0.00958	0.000197
0.9006	298.15	0.01064	0.00022
0.5046	303.15	0.009788	0.000201
0.6038	303.15	0.01037	0.00021
0.703	303.15	0.0108	0.00022
0.8028	303.15	0.01181	0.00024
0.9006	303.15	0.01345	0.00028
0.5046	308.15	0.01186	0.00024
0.6038	308.15	0.01254	0.00026
0.703	308.15	0.01298	0.00027
0.8028	308.15	0.01381	0.00028
0.9006	308.15	0.01641	0.00034
0.5046	313.15	0.01394	0.00028
0.6038	313.15	0.01471	0.0003
0.703	313.15	0.01538	0.00031
0.8028	313.15	0.01602	0.00033
0.9006	313.15	0.01926	0.00039
1	293.15	0.01334	0.00027
1	298.15	0.01552	0.00032
1	303.15	0.01759	0.00036
1	308.15	0.02034	0.00041
1	313.15	0.02347	0.00048
0	293.15	0.0001275	2.6e-06
0	298.15	0.0001452	3e-06
0	303.15	0.0001764	3.6e-06
0	308.15	0.0002117	4.3e-06
0	313.15	0.0002364	4.8e-06
