Measured thermophysical data. Thermodynamic studies of (RbF + RbCl + H2O) and (CsF + CsCl + H2O) ternary systems from potentiometric measurements at T = 298.2 K
Source: J. Chem. Thermodyn., 2016, 10.1016/j.jct.2016.08.014
Compound 1: water, H2O, InChI=1S/H2O/h1H2
Compound 2: rubidium chloride, ClRb, InChI=1S/ClH.Rb/h1H;/q;+1/p-1, purity 99%
Compound 3: rubidium fluoride (RbF), FRb, InChI=1S/FH.Rb/h1H;/q;+1/p-1, purity 99%
Compound 4: cesium chloride, ClCs, InChI=1S/ClH.Cs/h1H;/q;+1/p-1, purity 99%
Compound 5: cesium fluoride (CsF), CsF, InChI=1S/Cs.FH/h;1H/q+1;/p-1, purity 99%

System: water + rubidium chloride + rubidium fluoride (RbF); phases: Liquid
Fixed: Pressure, kPa = 100
Fixed: Temperature, K = 298.2
Property: Mean ionic activity coefficient of rubidium fluoride (RbF) (Liquid); method: Calculated from EMF cell potential
Molality, mol/kg of rubidium fluoride (RbF)	Molality, mol/kg of rubidium chloride	Mean ionic activity coefficient of rubidium fluoride (RbF)	uncertainty
0.0017	0	0.953	0.0272
0.0035	0	0.9323	0.0272
0.0054	0	0.9227	0.0273
0.0095	0	0.9074	0.0274
0.0149	0	0.884	0.0275
0.021	0	0.8716	0.0276
0.0297	0	0.8569	0.0277
0.0402	0	0.8428	0.0278
0.0593	0	0.8199	0.028
0.1197	0	0.7769	0.0283
0.1992	0	0.7469	0.0285
0.2994	0	0.7262	0.0287
0.3995	0	0.713	0.0288
0.5	0	0.705	0.0289
0.6003	0	0.6975	0.0289
0.7001	0	0.694	0.0289
0.0067	0.0029	0.9001	0.0274
0.0212	0.0091	0.852	0.0278
0.0422	0.0181	0.8134	0.028
0.0846	0.0363	0.7697	0.0284
0.1401	0.06	0.7364	0.0286
0.2095	0.0898	0.7113	0.0288
0.2806	0.1202	0.6944	0.0289
0.3501	0.15	0.682	0.029
0.4196	0.1798	0.672	0.0291
0.49	0.21	0.6664	0.0292
0.004	0.006	0.8956	0.0275
0.0117	0.0176	0.8441	0.0278
0.0238	0.0357	0.8039	0.0281
0.0479	0.0719	0.7599	0.0284
0.0797	0.1196	0.7237	0.0287
0.12	0.18	0.6974	0.0289
0.1599	0.2398	0.679	0.0291
0.2001	0.3001	0.6635	0.0292
0.2398	0.3597	0.6525	0.0293
0.2802	0.4203	0.6441	0.0293
0.001	0.0087	0.8916	0.0275
0.003	0.0273	0.8386	0.0279
0.006	0.0544	0.796	0.0282
0.0119	0.1075	0.7512	0.0285
0.02	0.1798	0.7143	0.0288
0.03	0.2703	0.6849	0.029
0.04	0.3601	0.6617	0.0292
0.0499	0.4495	0.6445	0.0293
0.06	0.5401	0.6321	0.0294
0.07	0.63	0.6227	0.0295

System: cesium chloride + water + cesium fluoride (CsF); phases: Liquid
Fixed: Pressure, kPa = 100
Fixed: Temperature, K = 298.2
Property: Mean ionic activity coefficient of cesium fluoride (CsF) (Liquid); method: Calculated from EMF cell potential
Molality, mol/kg of cesium fluoride (CsF)	Molality, mol/kg of cesium chloride	Mean ionic activity coefficient of cesium fluoride (CsF)	uncertainty
0.002	0	0.9403	0.0272
0.0042	0	0.9252	0.0273
0.0063	0	0.9135	0.0273
0.0106	0	0.9001	0.0274
0.0151	0	0.8865	0.0275
0.0219	0	0.8737	0.0276
0.0311	0	0.8562	0.0277
0.0403	0	0.8435	0.0278
0.0616	0	0.8182	0.028
0.1011	0	0.7907	0.0282
0.1523	0	0.7674	0.0284
0.2036	0	0.7499	0.0285
0.2517	0	0.7378	0.0286
0.3016	0	0.7285	0.0287
0.351	0	0.7217	0.0287
0.4018	0	0.717	0.0288
0.4517	0	0.7111	0.0288
0.5013	0	0.7074	0.0288
0.553	0	0.7037	0.0289
0.6028	0	0.7015	0.0289
0.0077	0.0033	0.8933	0.0275
0.0206	0.0088	0.8456	0.0278
0.043	0.0185	0.8075	0.0281
0.0701	0.03	0.7755	0.0283
0.1048	0.0449	0.7508	0.0285
0.1401	0.0601	0.7332	0.0286
0.1747	0.0749	0.7195	0.0287
0.2098	0.0899	0.7076	0.0288
0.2454	0.1052	0.699	0.0289
0.28	0.1201	0.6924	0.029
0.3171	0.136	0.6857	0.029
0.3499	0.15	0.6793	0.0291
0.385	0.1651	0.6763	0.0291
0.4204	0.1802	0.673	0.0291
0.0039	0.0057	0.8871	0.0275
0.0117	0.0174	0.8391	0.0279
0.0242	0.036	0.7968	0.0282
0.0399	0.0594	0.7647	0.0284
0.0603	0.0897	0.7359	0.0286
0.0801	0.1192	0.7179	0.0288
0.1004	0.1493	0.7037	0.0289
0.1205	0.1791	0.6915	0.029
0.1407	0.2093	0.6825	0.029
0.161	0.2394	0.6744	0.0291
0.1811	0.2693	0.6683	0.0291
0.2013	0.2994	0.6611	0.0292
0.2213	0.3291	0.6575	0.0292
0.2412	0.3587	0.6529	0.0293
0.0011	0.0096	0.8823	0.0276
0.003	0.027	0.8337	0.0279
0.006	0.0539	0.7884	0.0282
0.01	0.0897	0.7558	0.0285
0.0151	0.1355	0.7242	0.0287
0.02	0.1804	0.7035	0.0289
0.025	0.2251	0.6886	0.029
0.03	0.2697	0.6774	0.0291
0.035	0.3149	0.6676	0.0291
0.04	0.36	0.6588	0.0292
0.045	0.405	0.6504	0.0293
0.05	0.4496	0.6442	0.0293
0.055	0.4954	0.6379	0.0294
0.0599	0.5395	0.6326	0.0294

System: water + rubidium fluoride (RbF); phases: Liquid
Fixed: Pressure, kPa = 100
Fixed: Temperature, K = 298.2
Property: Mean ionic activity coefficient of rubidium fluoride (RbF) (Liquid); method: Calculated from EMF cell potential
Molality, mol/kg of rubidium fluoride (RbF)	Mean ionic activity coefficient of rubidium fluoride (RbF)	uncertainty
0.0017	0.953	0.027
0.0035	0.9323	0.0272
0.0054	0.9227	0.0273
0.0095	0.9074	0.0274
0.0149	0.884	0.0275
0.021	0.8716	0.0276
0.0297	0.8569	0.0277
0.0402	0.8428	0.0278
0.0593	0.8199	0.028
0.1197	0.7769	0.0283
0.1992	0.7469	0.0285
0.2994	0.7262	0.0287
0.3995	0.713	0.0288
0.5	0.705	0.0289
0.6003	0.6975	0.0289
0.7001	0.694	0.0289

System: water + cesium fluoride (CsF); phases: Liquid
Fixed: Pressure, kPa = 100
Fixed: Temperature, K = 298.2
Property: Mean ionic activity coefficient of cesium fluoride (CsF) (Liquid); method: Calculated from EMF cell potential
Molality, mol/kg of cesium fluoride (CsF)	Mean ionic activity coefficient of cesium fluoride (CsF)	uncertainty
0.002	0.9403	0.0271
0.0042	0.9252	0.0273
0.0063	0.9135	0.0273
0.0106	0.9001	0.0274
0.0151	0.8865	0.0275
0.0219	0.8737	0.0276
0.0311	0.8562	0.0277
0.0403	0.8435	0.0278
0.0616	0.8182	0.028
0.1011	0.7907	0.0282
0.1523	0.7674	0.0284
0.2036	0.7499	0.0285
0.2517	0.7378	0.0286
0.3016	0.7285	0.0287
0.351	0.7217	0.0287
0.4018	0.717	0.0288
0.4517	0.7111	0.0288
0.5013	0.7074	0.0288
0.553	0.7037	0.0289
0.6028	0.7015	0.0289
