Measured thermophysical data. Heat capacities and densities of the binary mixtures containing ethanol,  cyclohexane or 1-hexene at high pressures
Source: J. Chem. Thermodyn., 2013, 10.1016/j.jct.2012.07.018
Compound 1: ethanol, C2H6O, InChI=1S/C2H6O/c1-2-3/h3H,2H2,1H3, purity 99.5%
Compound 2: hex-1-ene, C6H12, InChI=1S/C6H12/c1-3-5-6-4-2/h3H,1,4-6H2,2H3, purity 99.5%
Compound 3: cyclohexane, C6H12, InChI=1S/C6H12/c1-2-4-6-5-3-1/h1-6H2, purity 99.5%

System: ethanol; phases: Liquid
Property: Mass density, kg/m3 (Liquid); method: by calculation
Temperature, K	Pressure, kPa	Mass density, kg/m3	uncertainty
273.15	100	806.6	1.4
273.15	1000	807.3	1.4
273.15	2000	808.1	1.4
273.15	5000	810.4	1.4
273.15	10000	814.1	1.4
273.15	15000	817.6	1.4
273.15	20000	821	1.4
273.15	30000	827.4	1.4
273.15	40000	833.4	1.4
273.15	50000	839.1	1.4
273.15	60000	844.4	1.4
273.15	70000	849.6	1.4
293.15	100	789.5	1.4
293.15	1000	790.4	1.4
293.15	2000	791.3	1.4
293.15	5000	793.8	1.4
293.15	10000	797.9	1.4
293.15	15000	801.8	1.4
293.15	20000	805.5	1.4
293.15	30000	812.5	1.4
293.15	40000	818.9	1.4
293.15	50000	825	1.4
293.15	60000	830.9	1.4
293.15	70000	836.2	1.4
313.15	100	772.2	1.4
313.15	1000	773	1.4
313.15	2000	774	1.4
313.15	5000	776.9	1.4
313.15	10000	781.4	1.4
313.15	15000	785.7	1.4
313.15	20000	789.7	1.4
313.15	30000	797.4	1.4
313.15	40000	804.4	1.4
313.15	50000	810.9	1.4
313.15	60000	817.1	1.4
313.15	70000	822.8	1.4
333.15	100	754.3	1.4
333.15	1000	755.3	1.4
333.15	2000	756.4	1.4
333.15	5000	759.7	1.4
333.15	10000	764.7	1.4
333.15	15000	769.4	1.4
333.15	20000	773.9	1.4
333.15	30000	782.3	1.4
333.15	40000	789.9	1.4
333.15	50000	797	1.4
333.15	60000	803.6	1.4
333.15	70000	809.7	1.4

System: ethanol; phases: Liquid
Fixed: Temperature, K = 313.15
Property: Molar heat capacity at constant pressure, J/K/mol (Liquid); method: Flow calorimetry
Pressure, kPa	Molar heat capacity at constant pressure, J/K/mol	uncertainty
100	119.2	1.2
5000	118	1.2
10000	116.8	1.2
15000	115.5	1.2
20000	114.9	1.2

System: hex-1-ene; phases: Liquid
Property: Mass density, kg/m3 (Liquid); method: by calculation
Temperature, K	Pressure, kPa	Mass density, kg/m3	uncertainty
273.15	100	691.9	1.4
273.15	1000	692.7	1.4
273.15	2000	693.6	1.4
273.15	5000	696.4	1.4
273.15	10000	700.6	1.4
273.15	15000	704.6	1.4
273.15	20000	708.5	1.4
273.15	30000	715.6	1.4
273.15	40000	722.2	1.4
273.15	50000	728.2	1.4
273.15	60000	733.9	1.4
273.15	70000	739.4	1.4
293.15	100	673.3	1.4
293.15	1000	674.3	1.4
293.15	2000	675.4	1.4
293.15	5000	678.6	1.4
293.15	10000	683.5	1.4
293.15	15000	688.1	1.4
293.15	20000	692.4	1.4
293.15	30000	700.4	1.4
293.15	40000	707.6	1.4
293.15	50000	714.3	1.4
293.15	60000	720.5	1.4
293.15	70000	726.4	1.4
313.15	100	654.2	1.4
313.15	1000	655.3	1.4
313.15	2000	656.6	1.4
313.15	5000	660.3	1.4
313.15	10000	666	1.4
313.15	15000	671.2	1.4
313.15	20000	676.1	1.4
313.15	30000	685.1	1.4
313.15	40000	693.1	1.4
313.15	50000	700.4	1.4
313.15	60000	707.4	1.4
313.15	70000	713.5	1.4
333.15	100	634.7	1.4
333.15	1000	636	1.4
333.15	2000	637.5	1.4
333.15	5000	641.9	1.4
333.15	10000	648.5	1.4
333.15	15000	654.5	1.4
333.15	20000	660.1	1.4
333.15	30000	670.1	1.4
333.15	40000	679	1.4
333.15	50000	687	1.4
333.15	60000	694.4	1.4
333.15	70000	701.2	1.4

System: hex-1-ene; phases: Liquid
Property: Molar heat capacity at constant pressure, J/K/mol (Liquid); method: Flow calorimetry
Pressure, kPa	Temperature, K	Molar heat capacity at constant pressure, J/K/mol	uncertainty
100	273.15	177.2	1.8
100	293.15	184.8	1.9
100	313.15	190.7	1.9
5000	273.15	170.8	1.7
5000	293.15	178.6	1.8
5000	313.15	186.6	1.9
10000	273.15	168.3	1.7
10000	293.15	175.1	1.8
10000	313.15	182.9	1.8
15000	273.15	166.3	1.7
15000	293.15	172.6	1.7
15000	313.15	180.4	1.8
20000	273.15	165.3	1.7
20000	293.15	172.1	1.7
20000	313.15	178.2	1.8

System: cyclohexane; phases: Liquid
Property: Mass density, kg/m3 (Liquid); method: by calculation
Temperature, K	Pressure, kPa	Mass density, kg/m3	uncertainty
283.15	100	788	1.4
283.15	1000	788.7	1.4
283.15	2000	789.5	1.4
283.15	5000	791.8	1.4
293.15	100	778.8	1.4
293.15	1000	779.5	1.4
293.15	2000	780.4	1.4
293.15	5000	782.8	1.4
293.15	10000	786.6	1.4
293.15	15000	790.4	1.4
293.15	20000	793.9	1.4
313.15	100	759.8	1.4
313.15	1000	760.6	1.4
313.15	2000	761.5	1.4
313.15	5000	764.4	1.4
313.15	10000	768.7	1.4
313.15	15000	772.9	1.4
313.15	20000	776.9	1.4
333.15	100	740.5	1.4
333.15	1000	741.5	1.4
333.15	2000	742.6	1.4
333.15	5000	745.8	1.4
333.15	10000	750.9	1.4
333.15	15000	755.6	1.4
333.15	20000	760.1	1.4

System: cyclohexane; phases: Liquid
Property: Molar heat capacity at constant pressure, J/K/mol (Liquid); method: Flow calorimetry
Pressure, kPa	Temperature, K	Molar heat capacity at constant pressure, J/K/mol	uncertainty
100	293.15	154.1	1.6
100	313.15	162.7	1.6
100	333.15	171	1.7
5000	293.15	152	1.5
5000	313.15	160.7	1.6
5000	333.15	169.1	1.7
10000	293.15	151.1	1.5
10000	313.15	158.8	1.6
10000	333.15	166.8	1.7
15000	293.15	149.9	1.5
15000	313.15	157.3	1.6
15000	333.15	164.9	1.7
20000	293.15	148.7	1.5
20000	313.15	155.9	1.6
20000	333.15	163.4	1.7

System: ethanol + hex-1-ene; phases: Liquid
Property: Mass density, kg/m3 (Liquid); method: by calculation
Temperature, K	Pressure, kPa	Mole fraction of hex-1-ene	Mass density, kg/m3	uncertainty
273.15	0	0.1	784.5	1.4
273.15	1000	0.1	785.2	1.4
273.15	2000	0.1	786	1.4
273.15	5000	0.1	788.4	1.4
273.15	10000	0.1	792.3	1.4
273.15	15000	0.1	795.9	1.4
273.15	20000	0.1	799.4	1.4
273.15	30000	0.1	806	1.4
273.15	40000	0.1	812.1	1.4
273.15	50000	0.1	817.9	1.4
273.15	60000	0.1	823.3	1.4
273.15	70000	0.1	828.6	1.4
293.15	0	0.1	767.1	1.4
293.15	1000	0.1	768	1.4
293.15	2000	0.1	768.9	1.4
293.15	5000	0.1	771.6	1.4
293.15	10000	0.1	775.8	1.4
293.15	15000	0.1	779.9	1.4
293.15	20000	0.1	783.8	1.4
293.15	30000	0.1	791	1.4
293.15	40000	0.1	797.7	1.4
293.15	50000	0.1	803.9	1.4
293.15	60000	0.1	809.9	1.4
293.15	70000	0.1	815.4	1.4
313.15	0	0.1	749.3	1.4
313.15	1000	0.1	750.2	1.4
313.15	2000	0.1	751.2	1.4
313.15	5000	0.1	754.3	1.4
313.15	10000	0.1	759	1.4
313.15	15000	0.1	763.5	1.4
313.15	20000	0.1	767.8	1.4
313.15	30000	0.1	775.7	1.4
313.15	40000	0.1	783	1.4
313.15	50000	0.1	789.7	1.4
313.15	60000	0.1	796.1	1.4
313.15	70000	0.1	802	1.4
333.15	0	0.1	730.8	1.4
333.15	1000	0.1	731.8	1.4
333.15	2000	0.1	733	1.4
333.15	5000	0.1	736.5	1.4
333.15	10000	0.1	741.9	1.4
333.15	15000	0.1	746.9	1.4
333.15	20000	0.1	751.7	1.4
333.15	30000	0.1	760.4	1.4
333.15	40000	0.1	768.3	1.4
333.15	50000	0.1	775.6	1.4
333.15	60000	0.1	782.6	1.4
333.15	70000	0.1	788.8	1.4
273.15	0	0.2	766.6	1.4
273.15	1000	0.2	767.3	1.4
273.15	2000	0.2	768.1	1.4
273.15	5000	0.2	770.6	1.4
273.15	10000	0.2	774.6	1.4
273.15	15000	0.2	778.3	1.4
273.15	20000	0.2	781.9	1.4
273.15	30000	0.2	788.6	1.4
273.15	40000	0.2	794.9	1.4
273.15	50000	0.2	800.7	1.4
273.15	60000	0.2	806.3	1.4
273.15	70000	0.2	811.4	1.4
293.15	0	0.2	748.9	1.4
293.15	1000	0.2	749.8	1.4
293.15	2000	0.2	750.7	1.4
293.15	5000	0.2	753.5	1.4
293.15	10000	0.2	757.9	1.4
293.15	15000	0.2	762.1	1.4
293.15	20000	0.2	766.1	1.4
293.15	30000	0.2	773.5	1.4
293.15	40000	0.2	780.3	1.4
293.15	50000	0.2	786.7	1.4
293.15	60000	0.2	792.5	1.4
293.15	70000	0.2	798.3	1.4
313.15	0	0.2	730.6	1.4
313.15	1000	0.2	731.5	1.4
313.15	2000	0.2	732.6	1.4
313.15	5000	0.2	735.8	1.4
313.15	10000	0.2	740.7	1.4
313.15	15000	0.2	745.4	1.4
313.15	20000	0.2	749.9	1.4
313.15	30000	0.2	758	1.4
313.15	40000	0.2	765.5	1.4
313.15	50000	0.2	772.4	1.4
313.15	60000	0.2	778.8	1.4
313.15	70000	0.2	784.8	1.4
333.15	0	0.2	711.5	1.4
333.15	1000	0.2	712.6	1.4
333.15	2000	0.2	713.9	1.4
333.15	5000	0.2	717.6	1.4
333.15	10000	0.2	723.2	1.4
333.15	15000	0.2	728.5	1.4
333.15	20000	0.2	733.5	1.4
333.15	30000	0.2	742.6	1.4
333.15	40000	0.2	750.7	1.4
333.15	50000	0.2	758.2	1.4
333.15	60000	0.2	765.3	1.4
333.15	70000	0.2	771.7	1.4
273.15	0	0.3	751.6	1.4
273.15	1000	0.3	752.4	1.4
273.15	2000	0.3	753.2	1.4
273.15	5000	0.3	755.7	1.4
273.15	10000	0.3	759.8	1.4
273.15	15000	0.3	763.6	1.4
273.15	20000	0.3	767.2	1.4
273.15	30000	0.3	774.1	1.4
273.15	40000	0.3	780.4	1.4
273.15	50000	0.3	786.3	1.4
273.15	60000	0.3	791.9	1.4
273.15	70000	0.3	797.2	1.4
293.15	0	0.3	733.6	1.4
293.15	1000	0.3	734.5	1.4
293.15	2000	0.3	735.5	1.4
293.15	5000	0.3	738.4	1.4
293.15	10000	0.3	742.9	1.4
293.15	15000	0.3	747.2	1.4
293.15	20000	0.3	751.3	1.4
293.15	30000	0.3	758.8	1.4
293.15	40000	0.3	765.8	1.4
293.15	50000	0.3	772.2	1.4
293.15	60000	0.3	778.2	1.4
293.15	70000	0.3	783.9	1.4
313.15	0	0.3	714.9	1.4
313.15	1000	0.3	715.9	1.4
313.15	2000	0.3	717.1	1.4
313.15	5000	0.3	720.4	1.4
313.15	10000	0.3	725.5	1.4
313.15	15000	0.3	730.3	1.4
313.15	20000	0.3	734.9	1.4
313.15	30000	0.3	743.3	1.4
313.15	40000	0.3	750.9	1.4
313.15	50000	0.3	757.9	1.4
313.15	60000	0.3	764.4	1.4
313.15	70000	0.3	770.4	1.4
333.15	0	0.3	695.4	1.4
333.15	1000	0.3	696.6	1.4
333.15	2000	0.3	697.9	1.4
333.15	5000	0.3	701.8	1.4
333.15	10000	0.3	707.7	1.4
333.15	15000	0.3	713.2	1.4
333.15	20000	0.3	718.3	1.4
333.15	30000	0.3	727.6	1.4
333.15	40000	0.3	736	1.4
333.15	50000	0.3	743.7	1.4
333.15	60000	0.3	750.8	1.4
333.15	70000	0.3	757.3	1.4
273.15	0	0.6	719	1.4
273.15	1000	0.6	719.9	1.4
273.15	2000	0.6	720.8	1.4
273.15	5000	0.6	723.4	1.4
273.15	10000	0.6	727.6	1.4
273.15	15000	0.6	731.6	1.4
273.15	20000	0.6	735.4	1.4
273.15	30000	0.6	742.4	1.4
273.15	40000	0.6	748.9	1.4
273.15	50000	0.6	754.9	1.4
273.15	60000	0.6	760.6	1.4
273.15	70000	0.6	765.9	1.4
293.15	0	0.6	700.5	1.4
293.15	1000	0.6	701.5	1.4
293.15	2000	0.6	702.5	1.4
293.15	5000	0.6	705.6	1.4
293.15	10000	0.6	710.4	1.4
293.15	15000	0.6	714.9	1.4
293.15	20000	0.6	719.1	1.4
293.15	30000	0.6	727	1.4
293.15	40000	0.6	734.1	1.4
293.15	50000	0.6	740.8	1.4
293.15	60000	0.6	747	1.4
293.15	70000	0.6	752.7	1.4
313.15	0	0.6	681.1	1.4
313.15	1000	0.6	682.2	1.4
313.15	2000	0.6	683.4	1.4
313.15	5000	0.6	687	1.4
313.15	10000	0.6	692.4	1.4
313.15	15000	0.6	697.6	1.4
313.15	20000	0.6	702.4	1.4
313.15	30000	0.6	711.2	1.4
313.15	40000	0.6	719.1	1.4
313.15	50000	0.6	726.4	1.4
313.15	60000	0.6	733.1	1.4
313.15	70000	0.6	739.3	1.4
333.15	0	0.6	660.8	1.4
333.15	1000	0.6	662.2	1.4
333.15	2000	0.6	663.6	1.4
333.15	5000	0.6	667.8	1.4
333.15	10000	0.6	674.2	1.4
333.15	15000	0.6	680.1	1.4
333.15	20000	0.6	685.6	1.4
333.15	30000	0.6	695.5	1.4
333.15	40000	0.6	704.3	1.4
333.15	50000	0.6	712.2	1.4
333.15	60000	0.6	719.6	1.4
333.15	70000	0.6	726.3	1.4
273.15	0	0.6997	711.1	1.4
273.15	1000	0.6997	711.9	1.4
273.15	2000	0.6997	712.8	1.4
273.15	5000	0.6997	715.5	1.4
273.15	10000	0.6997	719.7	1.4
273.15	15000	0.6997	723.7	1.4
273.15	20000	0.6997	727.5	1.4
273.15	30000	0.6997	734.6	1.4
273.15	40000	0.6997	741.1	1.4
273.15	50000	0.6997	747.2	1.4
273.15	60000	0.6997	752.9	1.4
273.15	70000	0.6997	758.2	1.4
293.15	0	0.6997	692.4	1.4
293.15	1000	0.6997	693.4	1.4
293.15	2000	0.6997	694.4	1.4
293.15	5000	0.6997	697.5	1.4
293.15	10000	0.6997	702.3	1.4
293.15	15000	0.6997	706.9	1.4
293.15	20000	0.6997	711.2	1.4
293.15	30000	0.6997	719.1	1.4
293.15	40000	0.6997	726.3	1.4
293.15	50000	0.6997	733	1.4
293.15	60000	0.6997	739.1	1.4
293.15	70000	0.6997	745	1.4
313.15	0	0.6997	672.9	1.4
313.15	1000	0.6997	674	1.4
313.15	2000	0.6997	675.2	1.4
313.15	5000	0.6997	678.8	1.4
313.15	10000	0.6997	684.4	1.4
313.15	15000	0.6997	689.6	1.4
313.15	20000	0.6997	694.5	1.4
313.15	30000	0.6997	703.3	1.4
313.15	40000	0.6997	711.3	1.4
313.15	50000	0.6997	718.6	1.4
313.15	60000	0.6997	725.5	1.4
313.15	70000	0.6997	731.7	1.4
333.15	0	0.6997	652.5	1.4
333.15	1000	0.6997	653.9	1.4
333.15	2000	0.6997	655.4	1.4
333.15	5000	0.6997	659.7	1.4
333.15	10000	0.6997	666.2	1.4
333.15	15000	0.6997	672.2	1.4
333.15	20000	0.6997	677.7	1.4
333.15	30000	0.6997	687.7	1.4
333.15	40000	0.6997	696.6	1.4
333.15	50000	0.6997	704.6	1.4
333.15	60000	0.6997	712.1	1.4
333.15	70000	0.6997	718.9	1.4
273.15	0	0.8002	704.1	1.4
273.15	1000	0.8002	705	1.4
273.15	2000	0.8002	705.9	1.4
273.15	5000	0.8002	708.6	1.4
273.15	10000	0.8002	712.8	1.4
273.15	15000	0.8002	716.8	1.4
273.15	20000	0.8002	720.6	1.4
273.15	30000	0.8002	727.8	1.4
273.15	40000	0.8002	734.3	1.4
273.15	50000	0.8002	740.4	1.4
273.15	60000	0.8002	746.2	1.4
273.15	70000	0.8002	751.5	1.4
293.15	0	0.8002	685.4	1.4
293.15	1000	0.8002	686.4	1.4
293.15	2000	0.8002	687.5	1.4
293.15	5000	0.8002	690.6	1.4
293.15	10000	0.8002	695.5	1.4
293.15	15000	0.8002	700.1	1.4
293.15	20000	0.8002	704.4	1.4
293.15	30000	0.8002	712.3	1.4
293.15	40000	0.8002	719.6	1.4
293.15	50000	0.8002	726.3	1.4
293.15	60000	0.8002	732.5	1.4
293.15	70000	0.8002	738.3	1.4
313.15	0	0.8002	665.9	1.4
313.15	1000	0.8002	667	1.4
313.15	2000	0.8002	668.3	1.4
313.15	5000	0.8002	672	1.4
313.15	10000	0.8002	677.6	1.4
313.15	15000	0.8002	682.8	1.4
313.15	20000	0.8002	687.7	1.4
313.15	30000	0.8002	696.6	1.4
313.15	40000	0.8002	704.7	1.4
313.15	50000	0.8002	712	1.4
313.15	60000	0.8002	718.8	1.4
313.15	70000	0.8002	725.2	1.4
333.15	0	0.8002	645.6	1.4
333.15	1000	0.8002	647	1.4
333.15	2000	0.8002	648.5	1.4
333.15	5000	0.8002	652.9	1.4
333.15	10000	0.8002	659.4	1.4
333.15	15000	0.8002	665.5	1.4
333.15	20000	0.8002	671	1.4
333.15	30000	0.8002	681.1	1.4
333.15	40000	0.8002	690	1.4
333.15	50000	0.8002	698.1	1.4
333.15	60000	0.8002	705.5	1.4
333.15	70000	0.8002	712.3	1.4
273.15	0	0.9	698	1.4
273.15	1000	0.9	698.9	1.4
273.15	2000	0.9	699.8	1.4
273.15	5000	0.9	702.5	1.4
273.15	10000	0.9	706.8	1.4
273.15	15000	0.9	710.8	1.4
273.15	20000	0.9	714.6	1.4
273.15	30000	0.9	721.7	1.4
273.15	40000	0.9	728.3	1.4
273.15	50000	0.9	734.4	1.4
273.15	60000	0.9	740.1	1.4
273.15	70000	0.9	745.4	1.4
293.15	0	0.9	679.3	1.4
293.15	1000	0.9	680.3	1.4
293.15	2000	0.9	681.4	1.4
293.15	5000	0.9	684.6	1.4
293.15	10000	0.9	689.5	1.4
293.15	15000	0.9	694.1	1.4
293.15	20000	0.9	698.4	1.4
293.15	30000	0.9	706.4	1.4
293.15	40000	0.9	713.6	1.4
293.15	50000	0.9	720.3	1.4
293.15	60000	0.9	726.7	1.4
293.15	70000	0.9	732.4	1.4
313.15	0	0.9	660	1.4
313.15	1000	0.9	661.1	1.4
313.15	2000	0.9	662.3	1.4
313.15	5000	0.9	666	1.4
313.15	10000	0.9	671.6	1.4
313.15	15000	0.9	676.9	1.4
313.15	20000	0.9	681.8	1.4
313.15	30000	0.9	690.8	1.4
313.15	40000	0.9	698.8	1.4
313.15	50000	0.9	706.1	1.4
313.15	60000	0.9	713	1.4
313.15	70000	0.9	719.3	1.4
333.15	0	0.9	639.8	1.4
333.15	1000	0.9	641.2	1.4
333.15	2000	0.9	642.7	1.4
333.15	5000	0.9	647.1	1.4
333.15	10000	0.9	653.7	1.4
333.15	15000	0.9	659.8	1.4
333.15	20000	0.9	665.4	1.4
333.15	30000	0.9	675.4	1.4
333.15	40000	0.9	684.3	1.4
333.15	50000	0.9	692.4	1.4
333.15	60000	0.9	699.9	1.4
333.15	70000	0.9	706.6	1.4

System: ethanol + hex-1-ene; phases: Liquid
Fixed: Temperature, K = 313.15
Property: Molar heat capacity at constant pressure, J/K/mol (Liquid); method: Flow calorimetry
Pressure, kPa	Mole fraction of hex-1-ene	Molar heat capacity at constant pressure, J/K/mol	uncertainty
100	0	119.2	1.2
100	0.0999	130.7	1.3
100	0.2	142	1.4
100	0.3	152	1.5
100	0.3998	161.5	1.6
100	0.4998	171.8	1.7
100	0.7001	186.4	1.9
100	0.8003	192.3	1.9
100	0.9003	197	2
100	1	190.7	1.9
5000	0	118	1.2
5000	0.0999	129	1.3
5000	0.2	139.8	1.4
5000	0.3	149.7	1.5
5000	0.3998	158.9	1.6
5000	0.4998	167.9	1.7
5000	0.6	175.4	1.8
5000	0.7001	182.2	1.8
5000	0.8003	188.7	1.9
5000	0.9003	191.2	1.9
5000	1	186.6	1.9
10000	0	116.8	1.2
10000	0.0999	127.3	1.3
10000	0.2	138	1.4
10000	0.3	147.2	1.5
10000	0.3998	156.2	1.6
10000	0.4998	165.1	1.7
10000	0.6	172.6	1.7
10000	0.7001	179	1.8
10000	0.8003	184.7	1.9
10000	0.9003	188.5	1.9
10000	1	182.9	1.8
15000	0	115.5	1.2
15000	0.0999	126	1.3
15000	0.2	136.6	1.4
15000	0.3	145.7	1.5
15000	0.3998	153.7	1.6
15000	0.4998	163.1	1.6
15000	0.6	170.2	1.7
15000	0.7001	176.3	1.8
15000	0.8003	181.6	1.8
15000	0.9003	185.1	1.9
15000	1	180.4	1.8
20000	0	114.9	1.2
20000	0.0999	125	1.3
20000	0.2	135.4	1.4
20000	0.3	144.3	1.5
20000	0.3998	152.9	1.5
20000	0.4998	161.4	1.6
20000	0.6	168.4	1.7
20000	0.7001	174.7	1.8
20000	0.8003	178.5	1.8
20000	0.9003	183.4	1.9
20000	1	178.2	1.8

System: ethanol + cyclohexane; phases: Liquid
Property: Mass density, kg/m3 (Liquid); method: by calculation
Temperature, K	Pressure, kPa	Mole fraction of cyclohexane	Mass density, kg/m3	uncertainty
283.15	100	0.2999	788.5	1.4
283.15	1000	0.2999	789.2	1.4
283.15	2000	0.2999	790	1.4
283.15	5000	0.2999	792.5	1.4
283.15	10000	0.2999	796.4	1.4
283.15	15000	0.2999	800	1.4
283.15	20000	0.2999	803.5	1.4
293.15	100	0.2999	779.6	1.4
293.15	1000	0.2999	780.4	1.4
293.15	2000	0.2999	781.3	1.4
293.15	5000	0.2999	783.9	1.4
293.15	10000	0.2999	788	1.4
293.15	15000	0.2999	791.9	1.4
293.15	20000	0.2999	795.6	1.4
313.15	100	0.2999	761.2	1.4
313.15	1000	0.2999	762	1.4
313.15	2000	0.2999	763	1.4
313.15	5000	0.2999	766	1.4
313.15	10000	0.2999	770.5	1.4
313.15	15000	0.2999	774.9	1.4
313.15	20000	0.2999	779.1	1.4
333.15	100	0.2999	742	1.4
333.15	1000	0.2999	743	1.4
333.15	2000	0.2999	744.1	1.4
333.15	5000	0.2999	747.5	1.4
333.15	10000	0.2999	752.8	1.4
333.15	15000	0.2999	757.6	1.4
333.15	20000	0.2999	762.3	1.4
283.15	100	0.5002	786.7	1.4
283.15	1000	0.5002	787.5	1.4
283.15	2000	0.5002	788.3	1.4
283.15	5000	0.5002	790.7	1.4
283.15	10000	0.5002	794.5	1.4
283.15	15000	0.5002	798.1	1.4
283.15	20000	0.5002	801.6	1.4
293.15	100	0.5002	777.6	1.4
293.15	1000	0.5002	778.4	1.4
293.15	2000	0.5002	779.2	1.4
293.15	5000	0.5002	781.8	1.4
293.15	10000	0.5002	785.8	1.4
293.15	15000	0.5002	789.7	1.4
293.15	20000	0.5002	793.4	1.4
313.15	100	0.5002	758.5	1.4
313.15	1000	0.5002	759.4	1.4
313.15	2000	0.5002	760.4	1.4
313.15	5000	0.5002	763.3	1.4
313.15	10000	0.5002	767.9	1.4
313.15	15000	0.5002	772.2	1.4
313.15	20000	0.5002	776.4	1.4
333.15	100	0.5002	738.7	1.4
333.15	1000	0.5002	739.7	1.4
333.15	2000	0.5002	740.9	1.4
333.15	5000	0.5002	744.3	1.4
333.15	10000	0.5002	749.6	1.4
333.15	15000	0.5002	754.5	1.4
333.15	20000	0.5002	759.2	1.4
283.15	100	0.7002	786.3	1.4
283.15	1000	0.7002	787.1	1.4
283.15	2000	0.7002	787.8	1.4
283.15	5000	0.7002	790.2	1.4
283.15	10000	0.7002	794	1.4
283.15	15000	0.7002	797.5	1.4
283.15	20000	0.7002	801	1.4
293.15	100	0.7002	777	1.4
293.15	1000	0.7002	777.8	1.4
293.15	2000	0.7002	778.6	1.4
293.15	5000	0.7002	781.1	1.4
293.15	10000	0.7002	785.1	1.4
293.15	15000	0.7002	788.9	1.4
293.15	20000	0.7002	792.6	1.4
313.15	100	0.7002	757.6	1.4
313.15	1000	0.7002	758.4	1.4
313.15	2000	0.7002	759.4	1.4
313.15	5000	0.7002	762.3	1.4
313.15	10000	0.7002	766.9	1.4
313.15	15000	0.7002	771.2	1.4
313.15	20000	0.7002	775.3	1.4
333.15	100	0.7002	737.5	1.4
333.15	1000	0.7002	738.5	1.4
333.15	2000	0.7002	739.7	1.4
333.15	5000	0.7002	743.1	1.4
333.15	10000	0.7002	748.3	1.4
333.15	15000	0.7002	753.2	1.4
333.15	20000	0.7002	757.9	1.4

System: ethanol + cyclohexane; phases: Liquid
Fixed: Temperature, K = 313.15
Property: Molar heat capacity at constant pressure, J/K/mol (Liquid); method: Flow calorimetry
Pressure, kPa	Mole fraction of cyclohexane	Molar heat capacity at constant pressure, J/K/mol	uncertainty
100	0	119.2	1.2
100	0.1	127.8	1.3
100	0.1999	134.2	1.4
100	0.2999	140.2	1.4
100	0.4	146.9	1.5
100	0.5002	152.7	1.5
100	0.6	158.2	1.6
100	0.7002	163.3	1.7
100	0.8	167.6	1.7
100	0.8999	169.9	1.7
100	1	162.7	1.6
5000	0	118	1.2
5000	0.1	126.5	1.3
5000	0.1999	132.9	1.3
5000	0.2999	138.8	1.4
5000	0.4	145.2	1.5
5000	0.5002	151	1.5
5000	0.6	155.9	1.6
5000	0.7002	161	1.6
5000	0.8	165.2	1.7
5000	0.8999	167.3	1.7
5000	1	160.7	1.6
10000	0	116.8	1.2
10000	0.1	125	1.3
10000	0.1999	131	1.3
10000	0.2999	137.1	1.4
10000	0.4	143.1	1.4
10000	0.5002	149	1.5
10000	0.6	154	1.6
10000	0.7002	159	1.6
10000	0.8	163.1	1.6
10000	0.8999	165.5	1.7
10000	1	158.8	1.6
15000	0	115.5	1.2
15000	0.1	123.7	1.3
15000	0.1999	130.2	1.3
15000	0.2999	135.7	1.4
15000	0.4	141.3	1.4
15000	0.5002	147	1.5
15000	0.6	152.9	1.5
15000	0.7002	157.6	1.6
15000	0.8	161.3	1.6
15000	0.8999	163.3	1.7
15000	1	157.3	1.6
20000	0	114.9	1.2
20000	0.1	122.8	1.2
20000	0.1999	129.5	1.3
20000	0.2999	134.9	1.4
20000	0.4	140.7	1.4
20000	0.5002	146.6	1.5
20000	0.6	149	1.5
20000	0.7002	156.3	1.6
20000	0.8	160.5	1.6
20000	0.8999	162.5	1.6
20000	1	155.9	1.6

System: cyclohexane + hex-1-ene; phases: Liquid
Property: Mass density, kg/m3 (Liquid); method: by calculation
Temperature, K	Pressure, kPa	Mole fraction of cyclohexane	Mass density, kg/m3	uncertainty
283.15	100	0.0999	691.6	1.4
283.15	1000	0.0999	692.5	1.4
283.15	2000	0.0999	693.5	1.4
283.15	5000	0.0999	696.3	1.4
283.15	10000	0.0999	700.8	1.4
283.15	15000	0.0999	705	1.4
283.15	20000	0.0999	709	1.4
293.15	100	0.0999	682.5	1.4
293.15	1000	0.0999	683.4	1.4
293.15	2000	0.0999	684.5	1.4
293.15	5000	0.0999	687.6	1.4
293.15	10000	0.0999	692.3	1.4
293.15	15000	0.0999	696.9	1.4
293.15	20000	0.0999	701.1	1.4
313.15	100	0.0999	663.4	1.4
313.15	1000	0.0999	664.5	1.4
313.15	2000	0.0999	665.8	1.4
313.15	5000	0.0999	669.3	1.4
313.15	10000	0.0999	674.8	1.4
313.15	15000	0.0999	680	1.4
313.15	20000	0.0999	684.8	1.4
333.15	100	0.0999	643.9	1.4
333.15	1000	0.0999	645.3	1.4
333.15	2000	0.0999	646.7	1.4
333.15	5000	0.0999	650.9	1.4
333.15	10000	0.0999	657.4	1.4
333.15	15000	0.0999	663.3	1.4
333.15	20000	0.0999	668.8	1.4
283.15	100	0.3001	711.4	1.4
283.15	1000	0.3001	712.2	1.4
283.15	2000	0.3001	713.2	1.4
283.15	5000	0.3001	715.9	1.4
283.15	10000	0.3001	720.2	1.4
283.15	15000	0.3001	724.2	1.4
283.15	20000	0.3001	728.1	1.4
293.15	100	0.3001	702.2	1.4
293.15	1000	0.3001	703.1	1.4
293.15	2000	0.3001	704.1	1.4
293.15	5000	0.3001	707.1	1.4
293.15	10000	0.3001	711.6	1.4
293.15	15000	0.3001	716	1.4
293.15	20000	0.3001	720.1	1.4
313.15	100	0.3001	683.3	1.4
313.15	1000	0.3001	684.3	1.4
313.15	2000	0.3001	685.5	1.4
313.15	5000	0.3001	688.9	1.4
313.15	10000	0.3001	694.2	1.4
313.15	15000	0.3001	699.1	1.4
313.15	20000	0.3001	703.7	1.4
333.15	100	0.3001	664	1.4
333.15	1000	0.3001	665.2	1.4
333.15	2000	0.3001	666.6	1.4
333.15	5000	0.3001	670.6	1.4
333.15	10000	0.3001	676.7	1.4
333.15	15000	0.3001	682.3	1.4
333.15	20000	0.3001	687.6	1.4
283.15	100	0.4999	730.6	1.4
283.15	1000	0.4999	731.4	1.4
283.15	2000	0.4999	732.3	1.4
283.15	5000	0.4999	734.9	1.4
283.15	10000	0.4999	739	1.4
283.15	15000	0.4999	742.9	1.4
283.15	20000	0.4999	746.6	1.4
293.15	100	0.4999	721.4	1.4
293.15	1000	0.4999	722.3	1.4
293.15	2000	0.4999	723.3	1.4
293.15	5000	0.4999	726.1	1.4
293.15	10000	0.4999	730.4	1.4
293.15	15000	0.4999	734.6	1.4
293.15	20000	0.4999	738.6	1.4
313.15	100	0.4999	702.6	1.4
313.15	1000	0.4999	703.6	1.4
313.15	2000	0.4999	704.7	1.4
313.15	5000	0.4999	708	1.4
313.15	10000	0.4999	712.9	1.4
313.15	15000	0.4999	717.7	1.4
313.15	20000	0.4999	722.1	1.4
333.15	100	0.4999	683.4	1.4
333.15	1000	0.4999	684.6	1.4
333.15	2000	0.4999	685.9	1.4
333.15	5000	0.4999	689.6	1.4
333.15	10000	0.4999	695.5	1.4
333.15	15000	0.4999	700.9	1.4
333.15	20000	0.4999	705.9	1.4
283.15	100	0.6999	752.5	1.4
283.15	1000	0.6999	753.2	1.4
283.15	2000	0.6999	754.1	1.4
283.15	5000	0.6999	756.6	1.4
283.15	10000	0.6999	760.5	1.4
283.15	15000	0.6999	764.2	1.4
283.15	20000	0.6999	767.8	1.4
293.15	100	0.6999	743.3	1.4
293.15	1000	0.6999	744.1	1.4
293.15	2000	0.6999	745	1.4
293.15	5000	0.6999	747.7	1.4
293.15	10000	0.6999	751.9	1.4
293.15	15000	0.6999	755.8	1.4
293.15	20000	0.6999	759.6	1.4
313.15	100	0.6999	724.5	1.4
313.15	1000	0.6999	725.4	1.4
313.15	2000	0.6999	726.4	1.4
313.15	5000	0.6999	729.5	1.4
313.15	10000	0.6999	734.3	1.4
313.15	15000	0.6999	738.8	1.4
313.15	20000	0.6999	743.1	1.4
333.15	100	0.6999	705.4	1.4
333.15	1000	0.6999	706.4	1.4
333.15	2000	0.6999	707.7	1.4
333.15	5000	0.6999	711.3	1.4
333.15	10000	0.6999	716.7	1.4
333.15	15000	0.6999	721.8	1.4
333.15	20000	0.6999	726.7	1.4
283.15	100	0.8999	775.6	1.4
283.15	1000	0.8999	776.3	1.4
283.15	2000	0.8999	777.1	1.4
283.15	5000	0.8999	779.5	1.4
283.15	10000	0.8999	783.3	1.4
283.15	15000	0.8999	786.9	1.4
283.15	20000	0.8999	790.3	1.4
293.15	100	0.8999	766.4	1.4
293.15	1000	0.8999	767.2	1.4
293.15	2000	0.8999	768.1	1.4
293.15	5000	0.8999	770.6	1.4
293.15	10000	0.8999	774.6	1.4
293.15	15000	0.8999	778.4	1.4
293.15	20000	0.8999	782.1	1.4
313.15	100	0.8999	747.4	1.4
313.15	1000	0.8999	748.3	1.4
313.15	2000	0.8999	749.3	1.4
313.15	5000	0.8999	752.2	1.4
313.15	10000	0.8999	756.7	1.4
313.15	15000	0.8999	761.1	1.4
313.15	20000	0.8999	765.2	1.4
333.15	100	0.8999	728.2	1.4
333.15	1000	0.8999	729.2	1.4
333.15	2000	0.8999	730.4	1.4
333.15	5000	0.8999	733.7	1.4
333.15	10000	0.8999	739	1.4
333.15	15000	0.8999	743.9	1.4
333.15	20000	0.8999	748.5	1.4

System: cyclohexane + hex-1-ene; phases: Liquid
Fixed: Temperature, K = 313.15
Property: Molar heat capacity at constant pressure, J/K/mol (Liquid); method: Flow calorimetry
Pressure, kPa	Mole fraction of cyclohexane	Molar heat capacity at constant pressure, J/K/mol	uncertainty
100	0	190.7	1.9
100	0.1	187.6	1.9
100	0.2	184.3	1.9
100	0.2999	181.3	1.8
100	0.4001	178	1.8
100	0.5	175.2	1.8
100	0.6001	172.5	1.7
100	0.7	169.7	1.7
100	0.8	167.2	1.7
100	0.9	165.1	1.7
100	1	162.7	1.6
5000	0	186.6	1.9
5000	0.1	181.3	1.8
5000	0.2	180.5	1.8
5000	0.2999	176.8	1.8
5000	0.4001	174.2	1.8
5000	0.5	171.6	1.7
5000	0.6001	169.6	1.7
5000	0.7	167.3	1.7
5000	0.8	163.8	1.7
5000	0.9	162.2	1.6
5000	1	160.7	1.6
10000	0	182.9	1.8
10000	0.1	179.7	1.8
10000	0.2	176.9	1.8
10000	0.2999	173.9	1.8
10000	0.4001	172.2	1.7
10000	0.5	169.1	1.7
10000	0.6001	167	1.7
10000	0.7	164.9	1.7
10000	0.8	162.3	1.6
10000	0.9	160	1.6
10000	1	158.8	1.6
15000	0	180.4	1.8
15000	0.1	177.2	1.8
15000	0.2	174.8	1.8
15000	0.2999	171.7	1.7
15000	0.4001	169.9	1.7
15000	0.5	167.6	1.7
15000	0.6001	165.4	1.7
15000	0.7	163.3	1.7
15000	0.8	160.2	1.6
15000	0.9	158.1	1.6
15000	1	157.3	1.6
20000	0	178.2	1.8
20000	0.1	175.4	1.8
20000	0.2	173.5	1.8
20000	0.2999	170.8	1.7
20000	0.4001	168.6	1.7
20000	0.5	166.2	1.7
20000	0.6001	163.9	1.7
20000	0.7	162.1	1.6
20000	0.8	159.6	1.6
20000	0.9	157.9	1.6
20000	1	155.9	1.6
