Measured thermophysical data. Partial molar volumes of organic solutes in water. XI. Phenylmethanol and 2-phenylethanol at T=(298 to 573) K and at pressures up to 30 MPa
Source: J. Chem. Thermodyn., 2004, 10.1016/j.jct.2004.02.003
Compound 1: benzenemethanol, C7H8O, InChI=1S/C7H8O/c8-6-7-4-2-1-3-5-7/h1-5,8H,6H2
Compound 2: 2-phenylethanol, C8H10O, InChI=1S/C8H10O/c9-7-6-8-4-2-1-3-5-8/h1-5,9H,6-7H2
Compound 3: water, H2O, InChI=1S/H2O/h1H2

System: benzenemethanol + water; phases: Liquid
Fixed: Mole fraction of benzenemethanol = 0
Property: Partial molar volume, m3/mol of benzenemethanol (Liquid); method: OTHER
Temperature, K	Pressure, kPa	Partial molar volume, m3/mol of benzenemethanol	uncertainty
298.15	30050	0.00010136	2e-07
298.18	490	0.00010148	2e-07
298.21	16010	0.00010147	2e-07
318.14	400	0.00010365	2e-07
318.15	15300	0.00010333	2e-07
318.15	29980	0.0001029	2e-07
338.15	470	0.000106	2e-07
338.15	14830	0.00010545	2e-07
338.15	29990	0.00010493	2e-07
373.17	1940	0.00011036	2e-07
373.17	14860	0.00010958	2e-07
373.17	30150	0.00010876	2e-07
408.15	2020	0.00011568	2e-07
408.15	15010	0.00011444	2e-07
408.16	30050	0.00011336	2e-07
443.16	1880	0.00012191	2e-07
443.16	14980	0.00012021	2e-07
443.16	30330	0.00011828	2e-07
473.16	2840	0.00012819	2e-07
473.16	15000	0.0001259	2e-07
473.16	30050	0.0001235	2e-07
498.15	3820	0.00013474	2e-07
498.15	15020	0.00013174	2e-07
498.16	30160	0.00012859	2e-07
523.14	5850	0.00014228	2e-07
523.14	15640	0.00013871	2e-07
523.14	30060	0.00013461	2e-07
548.16	8010	0.00015224	2e-07
548.16	15940	0.00014762	2e-07
548.16	30040	0.00014157	2e-07
573.15	10110	0.00016655	2e-07
573.15	18040	0.0001585	2e-07
573.15	30070	0.00015047	2e-07

System: 2-phenylethanol + water; phases: Liquid
Fixed: Mole fraction of 2-phenylethanol = 0
Property: Partial molar volume, m3/mol of 2-phenylethanol (Liquid); method: OTHER
Temperature, K	Pressure, kPa	Partial molar volume, m3/mol of 2-phenylethanol	uncertainty
298.14	450	0.0001174	2e-07
298.15	16010	0.00011736	2e-07
298.16	30020	0.00011733	2e-07
318.14	490	0.00011978	2e-07
318.14	15360	0.00011939	2e-07
318.15	29970	0.00011901	2e-07
338.16	510	0.00012242	2e-07
338.16	15060	0.00012182	2e-07
338.16	30090	0.00012125	2e-07
373.15	14970	0.00012689	2e-07
373.15	30250	0.00012575	2e-07
373.16	1950	0.00012763	2e-07
408.15	2300	0.00013381	2e-07
408.15	14940	0.00013256	2e-07
408.15	30400	0.00013103	2e-07
443.16	2040	0.00014116	2e-07
443.17	15130	0.00013925	2e-07
443.17	30390	0.00013724	2e-07
473.16	2170	0.00014871	2e-07
473.16	16080	0.00014572	2e-07
473.16	30250	0.00014326	2e-07
498.62	3830	0.00015614	2e-07
498.62	16120	0.00015254	2e-07
498.68	30260	0.00014916	2e-07
523.15	7080	0.00016429	2e-07
523.15	18170	0.00015975	2e-07
523.15	30310	0.00015571	2e-07
548.18	10410	0.00017463	2e-07
548.18	19250	0.00016934	2e-07
548.18	30330	0.00016404	2e-07
573.15	10410	0.00019287	2e-07
573.15	30760	0.00017387	2e-07
573.16	13390	0.00018883	2e-07
573.16	21250	0.00018088	2e-07
573.17	25080	0.00017769	2e-07
