Measured thermophysical data. Apparent molar heat capacities and apparent molar volumes of Pr(ClO4)3(aq), Gd(ClO4)3(aq), Ho(ClO4)3(aq), and Tm(ClO4)3(aq) at T=(288.15, 298.15, 313.15, and 328.15) K and p=0.1 MPa
Source: J. Chem. Thermodyn., 2004, 10.1016/j.jct.2004.02.004
Compound 1: perchloric acid, ClHO4, InChI=1S/ClHO4/c2-1(3,4)5/h(H,2,3,4,5)
Compound 2: water, H2O, InChI=1S/H2O/h1H2
Compound 3: praseodymium perchlorate, Cl3O12Pr, InChI=1S/3ClHO4.Pr/c3*2-1(3,4)5;/h3*(H,2,3,4,5);/q;;;+3/p-3, purity 99.9%
Compound 4: gadolinium perchlorate, Cl3GdO12, InChI=1S/3ClHO4.Gd/c3*2-1(3,4)5;/h3*(H,2,3,4,5);/q;;;+3/p-3, purity 99.9%
Compound 5: holmium perchlorate, Cl3HoO12, InChI=1S/3ClHO4.Ho/c3*2-1(3,4)5;/h3*(H,2,3,4,5);/q;;;+3/p-3, purity 99.9%
Compound 6: thulium perchlorate, Cl3O12Tm, InChI=1S/3ClHO4.Tm/c3*2-1(3,4)5;/h3*(H,2,3,4,5);/q;;;+3/p-3, purity 99.9%

System: perchloric acid + water + praseodymium perchlorate; phases: Liquid
Fixed: Pressure, kPa = 101.3
Property: Specific heat capacity at constant pressure, J/K/kg (Liquid); method: Flow calorimetry
Temperature, K	Molality, mol/kg of praseodymium perchlorate	Molality, mol/kg of perchloric acid	Specific heat capacity at constant pressure, J/K/kg	uncertainty
288.15	0.01012	2e-05	-20.83	0.44
288.15	0.01015	2e-05	-20.87	0.44
288.15	0.01998	5e-05	-40.48	0.86
288.15	0.03033	7e-05	-61.06	1.3
288.15	0.03849	9e-05	-77.05	1.63
288.15	0.05075	0.00011	-100.36	2.13
288.15	0.06108	0.00014	-120.11	2.55
288.15	0.07143	0.00016	-139.53	2.96
288.15	0.081	0.00018	-157.29	3.34
288.15	0.0929	0.00021	-179.28	3.8
288.15	0.10386	0.00023	-199.37	4.23
298.15	0.01008	2e-05	-20.03	0.42
298.15	0.02066	5e-05	-40.42	0.86
298.15	0.03039	7e-05	-58.98	1.25
298.15	0.03997	9e-05	-76.88	1.63
298.15	0.05131	0.00012	-97.94	2.08
298.15	0.06133	0.00014	-116.51	2.47
298.15	0.07313	0.00016	-137.7	2.92
298.15	0.08264	0.00019	-154.47	3.28
298.15	0.09204	0.00021	-171.32	3.63
298.15	0.10386	0.00023	-192.65	4.09
313.15	0.01002	2e-05	-19.17	0.41
313.15	0.02045	5e-05	-38.69	0.83
313.15	0.03043	7e-05	-57.18	1.23
313.15	0.0402	9e-05	-75.13	1.61
313.15	0.051	0.00011	-94.74	2.03
313.15	0.06126	0.00014	-113.14	2.42
313.15	0.07195	0.00016	-131.96	2.83
313.15	0.0863	0.00019	-157.01	3.37
313.15	0.09225	0.00021	-167.26	3.58
313.15	0.10386	0.00023	-187.2	4.01
328.15	0.01001	2e-05	-18.86	0.41
328.15	0.02003	5e-05	-37.48	0.81
328.15	0.03032	7e-05	-56.39	1.22
328.15	0.04058	9e-05	-74.92	1.63
328.15	0.05067	0.00011	-93.04	2.02
328.15	0.06096	0.00014	-111.4	2.42
328.15	0.07152	0.00016	-129.76	2.82
328.15	0.08254	0.00019	-149.01	3.24
328.15	0.093	0.00021	-167.04	3.63
328.15	0.10386	0.00023	-185.24	4.02

System: perchloric acid + water + praseodymium perchlorate; phases: Liquid
Fixed: Pressure, kPa = 101.3
Property: Mass density, kg/m3 (Liquid); method: VIBTUB:UFactor:16
Temperature, K	Molality, mol/kg of praseodymium perchlorate	Molality, mol/kg of perchloric acid	Mass density, kg/m3	uncertainty
288.15	0.01012	2e-05	3.551	0.543
288.15	0.01015	2e-05	3.571	0.543
288.15	0.01998	5e-05	7.013	0.587
288.15	0.02001	5e-05	7.012	0.587
288.15	0.02994	7e-05	10.518	0.631
288.15	0.03033	7e-05	10.636	0.632
288.15	0.03849	9e-05	13.49	0.668
288.15	0.04035	9e-05	14.103	0.676
288.15	0.05075	0.00011	17.7	0.721
288.15	0.05357	0.00012	18.69	0.734
288.15	0.06108	0.00014	21.283	0.767
288.15	0.07143	0.00016	24.848	0.812
288.15	0.081	0.00018	28.138	0.853
288.15	0.0929	0.00021	32.223	0.905
288.15	0.10386	0.00023	35.981	0.952
298.15	0.01008	2e-05	3.486	0.542
298.15	0.02066	5e-05	7.13	0.588
298.15	0.03039	7e-05	10.472	0.63
298.15	0.03997	9e-05	13.752	0.672
298.15	0.05131	0.00012	17.613	0.72
298.15	0.06133	0.00014	21.025	0.763
298.15	0.07313	0.00016	25.046	0.814
298.15	0.08264	0.00019	28.243	0.855
298.15	0.09204	0.00021	31.417	0.895
298.15	0.10386	0.00023	35.413	0.945
313.15	0.01002	2e-05	3.398	0.542
313.15	0.02045	5e-05	6.919	0.586
313.15	0.03043	7e-05	10.287	0.628
313.15	0.0402	9e-05	13.559	0.67
313.15	0.051	0.00011	17.17	0.715
313.15	0.06126	0.00014	20.602	0.758
313.15	0.07195	0.00016	24.158	0.803
313.15	0.0863	0.00019	28.93	0.863
313.15	0.09225	0.00021	30.852	0.888
313.15	0.10386	0.00023	34.726	0.937
328.15	0.01001	2e-05	3.342	0.541
328.15	0.02003	5e-05	6.68	0.583
328.15	0.03032	7e-05	10.103	0.626
328.15	0.04058	9e-05	13.483	0.669
328.15	0.05067	0.00011	16.805	0.711
328.15	0.06096	0.00014	20.192	0.754
328.15	0.07152	0.00016	23.647	0.797
328.15	0.08254	0.00019	27.256	0.843
328.15	0.093	0.00021	30.669	0.886
328.15	0.10386	0.00023	34.214	0.93

System: perchloric acid + water + gadolinium perchlorate; phases: Liquid
Fixed: Pressure, kPa = 101.3
Property: Specific heat capacity at constant pressure, J/K/kg (Liquid); method: Flow calorimetry
Temperature, K	Molality, mol/kg of gadolinium perchlorate	Molality, mol/kg of perchloric acid	Specific heat capacity at constant pressure, J/K/kg	uncertainty
288.15	0.01811	3e-05	-37.31	0.79
288.15	0.03617	6e-05	-73.27	1.55
288.15	0.05518	0.0001	-110.23	2.34
288.15	0.07406	0.00013	-146.13	3.1
288.15	0.09322	0.00016	-181.74	3.86
288.15	0.11303	0.0002	-217.77	4.62
288.15	0.13345	0.00023	-254.1	5.39
288.15	0.15293	0.00027	-288.04	6.11
288.15	0.17399	0.0003	-323.98	6.87
288.15	0.1954	0.00034	-359.84	7.63
298.15	0.03655	6e-05	-71.61	1.52
298.15	0.05445	9e-05	-105.5	2.24
298.15	0.07389	0.00013	-141.55	3
298.15	0.09297	0.00016	-176.1	3.74
298.15	0.11345	0.0002	-212.5	4.51
298.15	0.13243	0.00023	-245.17	5.2
298.15	0.14872	0.00026	-272.96	5.79
298.15	0.17386	0.0003	-315.14	6.69
298.15	0.1954	0.00034	-350.11	7.43
313.15	0.01836	3e-05	-35.7	0.77
313.15	0.0362	6e-05	-69.45	1.49
313.15	0.05449	9e-05	-103.29	2.21
313.15	0.07324	0.00013	-137.14	2.94
313.15	0.0931	0.00016	-172.43	3.7
313.15	0.11343	0.0002	-207.57	4.45
313.15	0.133	0.00023	-240.94	5.16
313.15	0.15316	0.00027	-274.5	5.88
313.15	0.17341	0.0003	-307.47	6.59
313.15	0.1954	0.00034	-342.63	7.34
328.15	0.01865	3e-05	-35.89	0.78
328.15	0.03696	6e-05	-70.43	1.53
328.15	0.05575	0.0001	-105.15	2.28
328.15	0.07357	0.00013	-137.13	2.98
328.15	0.09393	0.00016	-173.01	3.76
328.15	0.11315	0.0002	-206.32	4.48
328.15	0.13179	0.00023	-237.55	5.16
328.15	0.14532	0.00025	-259.81	5.64
328.15	0.1954	0.00034	-340.56	7.4

System: perchloric acid + water + gadolinium perchlorate; phases: Liquid
Fixed: Pressure, kPa = 101.3
Property: Mass density, kg/m3 (Liquid); method: VIBTUB:UFactor:16
Temperature, K	Molality, mol/kg of gadolinium perchlorate	Molality, mol/kg of perchloric acid	Mass density, kg/m3	uncertainty
288.15	0.01811	3e-05	6.59	0.581
288.15	0.03617	6e-05	13.136	0.664
288.15	0.05518	0.0001	19.986	0.75
288.15	0.07406	0.00013	26.761	0.836
288.15	0.09322	0.00016	33.6	0.922
288.15	0.11303	0.0002	40.654	1.011
288.15	0.13345	0.00023	47.865	1.102
288.15	0.15293	0.00027	54.715	1.189
288.15	0.17399	0.0003	62.093	1.282
288.15	0.1954	0.00034	69.567	1.376
298.15	0.03655	6e-05	13.09	0.663
298.15	0.05445	9e-05	19.449	0.744
298.15	0.07389	0.00013	26.318	0.83
298.15	0.09297	0.00016	33.021	0.915
298.15	0.11345	0.0002	40.187	1.005
298.15	0.13243	0.00023	46.802	1.089
298.15	0.14872	0.00026	52.446	1.16
298.15	0.17386	0.0003	61.158	1.27
298.15	0.1954	0.00034	68.565	1.364
313.15	0.01836	3e-05	6.483	0.58
313.15	0.0362	6e-05	12.737	0.659
313.15	0.05449	9e-05	19.125	0.74
313.15	0.07324	0.00013	25.627	0.822
313.15	0.0931	0.00016	32.483	0.908
313.15	0.11343	0.0002	39.469	0.996
313.15	0.133	0.00023	46.164	1.081
313.15	0.15316	0.00027	53.025	1.168
313.15	0.17341	0.0003	59.9	1.254
313.15	0.1954	0.00034	67.355	1.349
328.15	0.01865	3e-05	6.491	0.581
328.15	0.03696	6e-05	12.827	0.661
328.15	0.05575	0.0001	19.289	0.742
328.15	0.07357	0.00013	25.39	0.819
328.15	0.09393	0.00016	32.339	0.907
328.15	0.11315	0.0002	38.841	0.989
328.15	0.13179	0.00023	45.142	1.068
328.15	0.14532	0.00025	49.682	1.126
328.15	0.1954	0.00034	66.394	1.337

System: perchloric acid + water + holmium perchlorate; phases: Liquid
Fixed: Pressure, kPa = 101.3
Property: Specific heat capacity at constant pressure, J/K/kg (Liquid); method: Flow calorimetry
Temperature, K	Molality, mol/kg of holmium perchlorate	Molality, mol/kg of perchloric acid	Specific heat capacity at constant pressure, J/K/kg	uncertainty
288.15	0.01809	0.0005	-37.69	0.8
288.15	0.0273	0.00076	-56.55	1.2
288.15	0.03686	0.00103	-75.94	1.61
288.15	0.04682	0.00131	-95.85	2.03
288.15	0.0558	0.00156	-113.46	2.41
288.15	0.06507	0.00181	-131.57	2.79
288.15	0.07561	0.00211	-151.82	3.22
288.15	0.08387	0.00234	-167.52	3.55
288.15	0.0952	0.00265	-188.95	4.01
298.15	0.00908	0.00025	-18.5	0.39
298.15	0.01835	0.00051	-37.08	0.79
298.15	0.03751	0.00105	-74.92	1.59
298.15	0.04641	0.00129	-92.13	1.95
298.15	0.05591	0.00156	-110.31	2.34
298.15	0.06546	0.00183	-128.39	2.72
298.15	0.07581	0.00211	-147.64	3.13
298.15	0.08558	0.00239	-165.81	3.52
298.15	0.0952	0.00265	-183.38	3.89
313.15	0.01022	0.00028	-20.34	0.44
313.15	0.01882	0.00052	-37.26	0.8
313.15	0.0283	0.00079	-55.65	1.19
313.15	0.03734	0.00104	-72.96	1.56
313.15	0.04644	0.00129	-90.31	1.94
313.15	0.05586	0.00156	-107.83	2.31
313.15	0.06557	0.00183	-125.8	2.7
313.15	0.07552	0.00211	-143.97	3.09
313.15	0.08549	0.00238	-161.99	3.47
313.15	0.0952	0.00265	-179.24	3.84
328.15	0.00973	0.00027	-20.51	0.45
328.15	0.0273	0.00076	-56.55	1.23
328.15	0.03686	0.00103	-75.94	1.65
328.15	0.04682	0.00131	-95.85	2.08
328.15	0.0558	0.00156	-113.46	2.46
328.15	0.06507	0.00181	-131.57	2.86
328.15	0.07561	0.00211	-151.82	3.3
328.15	0.08387	0.00234	-167.52	3.64
328.15	0.0952	0.00265	-188.95	4.1

System: perchloric acid + water + holmium perchlorate; phases: Liquid
Fixed: Pressure, kPa = 101.3
Property: Mass density, kg/m3 (Liquid); method: VIBTUB:UFactor:16
Temperature, K	Molality, mol/kg of holmium perchlorate	Molality, mol/kg of perchloric acid	Mass density, kg/m3	uncertainty
288.15	0.00973	0.00027	3.673	0.545
288.15	0.01809	0.0005	6.816	0.584
288.15	0.0273	0.00076	10.265	0.628
288.15	0.03686	0.00103	13.843	0.673
288.15	0.04682	0.00131	17.565	0.72
288.15	0.0558	0.00156	20.904	0.762
288.15	0.06507	0.00181	24.329	0.805
288.15	0.07561	0.00211	28.242	0.854
288.15	0.08387	0.00234	31.291	0.893
288.15	0.0952	0.00265	35.476	0.946
298.15	0.00908	0.00025	3.374	0.541
298.15	0.01835	0.00051	6.816	0.584
298.15	0.03751	0.00105	13.888	0.673
298.15	0.04641	0.00129	17.16	0.715
298.15	0.05591	0.00156	20.65	0.759
298.15	0.06546	0.00183	24.138	0.803
298.15	0.07581	0.00211	27.918	0.85
298.15	0.08558	0.00239	31.479	0.895
298.15	0.0952	0.00265	34.999	0.94
313.15	0.01022	0.00028	3.717	0.546
313.15	0.01882	0.00052	6.865	0.585
313.15	0.0283	0.00079	10.316	0.629
313.15	0.03734	0.00104	13.591	0.67
313.15	0.04644	0.00129	16.871	0.711
313.15	0.05586	0.00156	20.267	0.754
313.15	0.06557	0.00183	23.753	0.798
313.15	0.07552	0.00211	27.317	0.843
313.15	0.08549	0.00238	30.883	0.888
313.15	0.0952	0.00265	34.356	0.932
328.15	0.00973	0.00027	3.673	0.546
328.15	0.01809	0.0005	6.816	0.585
328.15	0.0273	0.00076	10.265	0.628
328.15	0.03686	0.00103	13.843	0.674
328.15	0.04682	0.00131	17.565	0.72
328.15	0.0558	0.00156	20.904	0.763
328.15	0.06507	0.00181	24.329	0.806
328.15	0.07561	0.00211	28.242	0.855
328.15	0.08387	0.00234	31.291	0.894
328.15	0.0952	0.00265	35.476	0.946

System: perchloric acid + water + thulium perchlorate; phases: Liquid
Fixed: Pressure, kPa = 101.3
Property: Specific heat capacity at constant pressure, J/K/kg (Liquid); method: Flow calorimetry
Temperature, K	Molality, mol/kg of thulium perchlorate	Molality, mol/kg of perchloric acid	Specific heat capacity at constant pressure, J/K/kg	uncertainty
288.15	0.01443	0.00071	-30.38	0.64
288.15	0.02223	0.0011	-46.53	0.99
288.15	0.02942	0.00145	-61.32	1.3
288.15	0.03684	0.00182	-76.36	1.62
288.15	0.04406	0.00217	-91.04	1.93
288.15	0.05186	0.00256	-106.64	2.26
288.15	0.05978	0.00295	-122.26	2.59
288.15	0.06719	0.00331	-136.77	2.9
288.15	0.07509	0.0037	-152.04	3.23
298.15	0.01445	0.00071	-29.59	0.63
298.15	0.02135	0.00105	-43.39	0.92
298.15	0.02941	0.00145	-59.46	1.26
298.15	0.03689	0.00182	-74.15	1.57
298.15	0.04438	0.00219	-88.67	1.88
298.15	0.05163	0.00255	-102.73	2.18
298.15	0.06785	0.00334	-133.76	2.84
298.15	0.07509	0.0037	-147.61	3.13
313.15	0.00735	0.00036	-14.84	0.32
313.15	0.01457	0.00072	-29.1	0.62
313.15	0.02196	0.00108	-43.67	0.94
313.15	0.02939	0.00145	-58.02	1.24
313.15	0.03684	0.00182	-72.37	1.55
313.15	0.04448	0.00219	-86.97	1.86
313.15	0.05206	0.00257	-101.09	2.17
313.15	0.05955	0.00294	-114.95	2.46
313.15	0.0674	0.00332	-129.65	2.78
313.15	0.07509	0.0037	-143.36	3.07
328.15	0.01463	0.00072	-29.12	0.63
328.15	0.02191	0.00108	-43.38	0.94
328.15	0.02922	0.00144	-57.61	1.25
328.15	0.03684	0.00182	-72.4	1.57
328.15	0.04438	0.00219	-86.6	1.88
328.15	0.05171	0.00255	-100.37	2.18
328.15	0.05964	0.00294	-114.95	2.5
328.15	0.0669	0.0033	-128.36	2.79
328.15	0.07509	0.0037	-142.77	3.1

System: perchloric acid + water + thulium perchlorate; phases: Liquid
Fixed: Pressure, kPa = 101.3
Property: Mass density, kg/m3 (Liquid); method: VIBTUB:UFactor:16
Temperature, K	Molality, mol/kg of thulium perchlorate	Molality, mol/kg of perchloric acid	Mass density, kg/m3	uncertainty
288.15	0.01443	0.00071	5.514	0.568
288.15	0.02223	0.0011	8.482	0.605
288.15	0.02942	0.00145	11.217	0.64
288.15	0.03684	0.00182	14.025	0.675
288.15	0.04406	0.00217	16.752	0.709
288.15	0.05186	0.00256	19.705	0.747
288.15	0.05978	0.00295	22.686	0.784
288.15	0.06719	0.00331	25.479	0.82
288.15	0.07509	0.0037	28.444	0.857
298.15	0.01445	0.00071	5.447	0.567
298.15	0.02135	0.00105	8.028	0.6
298.15	0.02941	0.00145	11.042	0.638
298.15	0.03689	0.00182	13.841	0.673
298.15	0.04438	0.00219	16.616	0.708
298.15	0.05163	0.00255	19.329	0.742
298.15	0.06785	0.00334	25.346	0.818
298.15	0.07509	0.0037	28.036	0.852
313.15	0.00735	0.00036	2.719	0.533
313.15	0.01457	0.00072	5.388	0.567
313.15	0.02196	0.00108	8.113	0.601
313.15	0.02939	0.00145	10.841	0.635
313.15	0.03684	0.00182	13.57	0.67
313.15	0.04448	0.00219	16.365	0.705
313.15	0.05206	0.00257	19.138	0.74
313.15	0.05955	0.00294	21.863	0.774
313.15	0.0674	0.00332	24.727	0.81
313.15	0.07509	0.0037	27.531	0.846
328.15	0.00735	0.00036	2.682	0.533
328.15	0.01463	0.00072	5.35	0.567
328.15	0.02191	0.00108	7.982	0.6
328.15	0.02922	0.00144	10.641	0.633
328.15	0.03684	0.00182	13.394	0.668
328.15	0.04438	0.00219	16.111	0.702
328.15	0.05171	0.00255	18.754	0.735
328.15	0.05964	0.00294	21.607	0.771
328.15	0.0669	0.0033	24.212	0.804
328.15	0.07509	0.0037	27.146	0.841
