Measured thermophysical data. Thermochemistry of 2,2,5,7,8-pentamethylchroman-6-ol (PMC) and 6-hydroxy-2,5,7,8-tetramethylchroman-2-carboxylic acid (trolox)
Source: J. Chem. Thermodyn., 2014, 10.1016/j.jct.2013.11.032
Compound 1: carbon dioxide, CO2, InChI=1S/CO2/c2-1-3
Compound 2: water, H2O, InChI=1S/H2O/h1H2
Compound 3: oxygen, O2, InChI=1S/O2/c1-2
Compound 4: 2,2,5,7,8-pentamethylchroman-6-ol, C14H20O2, InChI=1S/C14H20O2/c1-8-9(2)13-11(10(3)12(8)15)6-7-14(4,5)16-13/h15H,6-7H2,1-5H3, purity 98%
Compound 5: 6-hydroxy-2,5,7,8-tetramethylchroman-2-carboxylic acid, C14H18O4, InChI=1S/C14H18O4/c1-7-8(2)12-10(9(3)11(7)15)5-6-14(4,18-12)13(16)17/h15H,5-6H2,1-4H3,(H,16,17), purity 97%

System: 2,2,5,7,8-pentamethylchroman-6-ol; phases: Crystal, Liquid, Air at 1 atmosphere
Property: Normal melting temperature, K (Crystal); method: DTA
Normal melting temperature, K	uncertainty
365.3	1.2

System: 2,2,5,7,8-pentamethylchroman-6-ol; phases: Crystal, Liquid, Air at 1 atmosphere
Property: Molar enthalpy of transition or fusion, kJ/mol (Crystal); method: DSC
Molar enthalpy of transition or fusion, kJ/mol	uncertainty
27.03171798	0.6609222

System: 2,2,5,7,8-pentamethylchroman-6-ol; phases: Crystal, Gas
Property: Molar enthalpy of vaporization or sublimation, kJ/mol (Crystal); method: Static calorimetry
Temperature, K	Molar enthalpy of vaporization or sublimation, kJ/mol	uncertainty
341.45	105.9	1

System: 2,2,5,7,8-pentamethylchroman-6-ol; phases: Crystal
Fixed: Pressure, kPa = 101.325
Property: Molar heat capacity at constant pressure, J/K/mol (Crystal); method: Small sample (50 mg) DSC
Temperature, K	Molar heat capacity at constant pressure, J/K/mol	uncertainty
298.15	315.3	19.7
303.15	322.1	18.4
308.15	330.2	17.2
313.15	335.7	26.2
318.15	336.7	19.6
323.15	357.3	23.2
328.15	358.9	21.4
333.15	367.3	14.6
338.15	368.5	20.9
343.15	377.7	23.2
348.15	385.2	17.3

System: 2,2,5,7,8-pentamethylchroman-6-ol; phases: Crystal, Gas
Property: Vapor or sublimation pressure, kPa (Crystal); method: Calculated from knudsen effusion weight loss
Temperature, K	Vapor or sublimation pressure, kPa	uncertainty
330.75	0.0003175	1.81e-05
332.87	0.0004093	2.28e-05
335.12	0.0005367	3e-05
337.38	0.0007099	3.87e-05
339.24	0.0008561	4.69e-05
342.23	0.0011684	0.0001228
343.64	0.0013527	0.0001475
345.79	0.0017168	0.000196
349.16	0.0024475	0.0002968
352.18	0.0033594	0.0004286

System: 6-hydroxy-2,5,7,8-tetramethylchroman-2-carboxylic acid; phases: Crystal, Liquid, Air at 1 atmosphere
Property: Molar enthalpy of transition or fusion, kJ/mol (Crystal); method: DSC
Molar enthalpy of transition or fusion, kJ/mol	uncertainty
38.66985444	1.401625792

System: 6-hydroxy-2,5,7,8-tetramethylchroman-2-carboxylic acid; phases: Crystal, Liquid, Air at 1 atmosphere
Property: Normal melting temperature, K (Crystal); method: DTA
Normal melting temperature, K	uncertainty
463	0.7

System: 6-hydroxy-2,5,7,8-tetramethylchroman-2-carboxylic acid; phases: Crystal, Gas
Property: Molar enthalpy of vaporization or sublimation, kJ/mol (Crystal); method: Static calorimetry
Temperature, K	Molar enthalpy of vaporization or sublimation, kJ/mol	uncertainty
398.41	133.8	2.6

System: 6-hydroxy-2,5,7,8-tetramethylchroman-2-carboxylic acid; phases: Crystal
Fixed: Pressure, kPa = 101.325
Property: Molar heat capacity at constant pressure, J/K/mol (Crystal); method: Small sample (50 mg) DSC
Temperature, K	Molar heat capacity at constant pressure, J/K/mol	uncertainty
298.15	332	19.4
303.15	335.1	21.5
308.15	338.4	19.4
313.15	342	19.6
318.15	349.8	21.2
323.15	353.5	28
328.15	363	8
338.15	368.9	17.8
343.15	372.1	23.4
348.15	375.1	25.2
353.15	382.6	22.5
358.15	387.9	25.4
368.15	403	28
373.15	408.4	23.9
378.15	418.4	19.7
388.15	427.7	13.4
393.15	437.4	9.8
398.15	448.3	17.4
403.15	453.3	11
408.15	458.3	9.5

Reaction: -1 2,2,5,7,8-pentamethylchroman-6-ol + 14 carbon dioxide + 10 water + -18 oxygen
Property: Specific internal energy of reaction at constant volume, J/g
-35603.69

Reaction: -1 6-hydroxy-2,5,7,8-tetramethylchroman-2-carboxylic acid + 14 carbon dioxide + 9 water + -16.5 oxygen
Property: Specific internal energy of reaction at constant volume, J/g
-28698.08
