Measured thermophysical data. Synthesis, characterization and standard molar enthalpies of formation of two zinc borates: 2ZnO*2B2O3*3H2O and ZnB4O7
Source: J. Chem. Thermodyn., 2019, 10.1016/j.jct.2019.07.010
Compound 1: boron, B, InChI=1S/B
Compound 2: zinc, Zn, InChI=1S/Zn
Compound 3: oxygen, O2, InChI=1S/O2/c1-2
Compound 4: hydrogen, H2, InChI=1S/H2/h1H
Compound 5: zinc tetraborate (ZnB4O7), B4O7Zn, InChI=1S/4B.7O.Zn/q4*+3;7*-2;+2
Compound 6: zinc(II) metaborate trihydrate (2ZnO*2B2O3*3H2O), B4H6O11Zn2, InChI=1S/4BO2.3H2O.2Zn/c4*2-1-3;;;;;/h;;;;3*1H2;;/q4*-1;;;;2*+2

Reaction: -4 boron + -1 zinc + 1 zinc tetraborate (ZnB4O7) + -3.5 oxygen
Property: Molar enthalpy of reaction, kJ/mol
-2971.1

Reaction: -4 boron + -2 zinc + 1 zinc(II) metaborate trihydrate (2ZnO*2B2O3*3H2O) + -3 hydrogen + -5.5 oxygen
Property: Molar enthalpy of reaction, kJ/mol
-4177.02
