Measured thermophysical data. Interfacial tensions of the (CO2 + N2 + H2O) system at temperatures of (298 to 448) K and pressures up to 40 MPa
Source: J. Chem. Thermodyn., 2016, 10.1016/j.jct.2015.08.006
Compound 1: water, H2O, InChI=1S/H2O/h1H2, purity 99.9%
Compound 2: nitrogen, N2, InChI=1S/N2/c1-2, purity 99.998%
Compound 3: carbon dioxide, CO2, InChI=1S/CO2/c2-1-3, purity 99.998%

System: water; phases: Liquid, Air at 1 atmosphere
Property: Surface tension liquid-gas, N/m (Liquid); method: Pendant drop shape
Temperature, K	Surface tension liquid-gas, N/m	uncertainty
298.44	0.0719	0.0006

System: nitrogen + water; phases: Liquid, Gas
Property: Surface tension liquid-gas, N/m (Liquid); method: Pendant drop shape
Temperature, K	Pressure, kPa	Surface tension liquid-gas, N/m	uncertainty
298.24	2000	0.0711	0.0014
298.19	5000	0.0693	0.0014
298.15	10000	0.0669	0.0013
298.25	20000	0.0632	0.0013
298.17	30000	0.0608	0.0012
298.2	40000	0.0592	0.0012
323.22	2000	0.0671	0.0013
323.22	5000	0.0657	0.0013
323.21	10000	0.0635	0.0013
323.21	20000	0.0604	0.0012
323.13	30000	0.0582	0.0012
323.13	40000	0.0565	0.0011
373.25	2000	0.0582	0.0012
373.23	5000	0.0572	0.0011
373.15	10000	0.0556	0.0011
373.15	20000	0.0533	0.0011
373.13	30000	0.0512	0.001
373.13	40000	0.0504	0.001
448.02	2000	0.0433	0.0009
447.98	5000	0.0428	0.0009
448.05	10000	0.0419	0.0008
448.02	20000	0.0405	0.0008
448.03	30000	0.0395	0.0008
448	40000	0.0389	0.0008

System: carbon dioxide + nitrogen + water; phases: Liquid, Gas
Fixed: Solvent: Mole fraction of carbon dioxide = 0.512
Property: Surface tension liquid-gas, N/m (Liquid); method: Pendant drop shape
Temperature, K	Pressure, kPa	Surface tension liquid-gas, N/m	uncertainty
298.18	2000	0.064	0.0021
298.17	5000	0.0559	0.0019
298.17	10000	0.0466	0.0015
298.16	20000	0.0396	0.0013
298.17	30000	0.0383	0.0013
298.15	40000	0.0377	0.0013
323.12	2000	0.063	0.0021
323.11	5000	0.0562	0.0019
323.12	10000	0.0464	0.0015
323.1	20000	0.0404	0.0013
323.1	30000	0.0391	0.0013
323.1	40000	0.0381	0.0013
373.25	2000	0.0552	0.0018
373.25	5000	0.0501	0.0017
373.25	10000	0.0459	0.0015
373.23	20000	0.0406	0.0013
373.25	30000	0.0377	0.0013
373.22	40000	0.0358	0.0012
448.03	2000	0.0431	0.0014
448.02	5000	0.0406	0.0013
448.02	10000	0.0377	0.0013
447.98	20000	0.033	0.0011
448.02	30000	0.0302	0.001
448.03	40000	0.0281	0.0009
