Measured thermophysical data. Energetics of melting of Yb2O3 and Lu2O3 from drop and catch calorimetry and first principles computations
Source: J. Chem. Thermodyn., 2019, 10.1016/j.jct.2019.01.008
Compound 1: ytterbium oxide (Yb2O3), O3Yb2, InChI=1S/3O.2Yb/q3*-2;2*+3, purity 99.99%
Compound 2: lutetium oxide (Lu2O3), Lu2O3, InChI=1S/2Lu.3O/q2*+3;3*-2, purity 99.99%

System: ytterbium oxide (Yb2O3); phases: Crystal, Liquid, Air at 1 atmosphere
Property: Molar enthalpy of transition or fusion, kJ/mol (Crystal); method: Drop calorimetry
Molar enthalpy of transition or fusion, kJ/mol	uncertainty
102	20

System: ytterbium oxide (Yb2O3); phases: Crystal
Fixed: Pressure, kPa = 101.325
Property: Molar enthalpy, kJ/mol (Crystal); method: Drop calorimetry
Temperature, K	Molar enthalpy, kJ/mol	uncertainty
2682	223	11
2806	214	10
2921	232	11
2984	239	16
2993	245	12
3028	252	12

System: ytterbium oxide (Yb2O3); phases: Liquid
Fixed: Pressure, kPa = 101.325
Property: Molar enthalpy, kJ/mol (Liquid); method: Drop calorimetry
Temperature, K	Molar enthalpy, kJ/mol	uncertainty
3046	280	13
3050	266	12
3056	333	15
3066	264	12
3067	327	15
3081	288	13
3093	271	12
3107	320	14
3248	343	16
3249	340	15
3279	341	15

System: lutetium oxide (Lu2O3); phases: Crystal, Liquid, Air at 1 atmosphere
Property: Molar enthalpy of transition or fusion, kJ/mol (Crystal); method: Drop calorimetry
Molar enthalpy of transition or fusion, kJ/mol	uncertainty
125	20

System: lutetium oxide (Lu2O3); phases: Crystal
Fixed: Pressure, kPa = 101.325
Property: Molar enthalpy, kJ/mol (Crystal); method: Drop calorimetry
Temperature, K	Molar enthalpy, kJ/mol	uncertainty
2715	213	10
2790	211	10
2887	226	10
3024	229	10
3200	234	11

System: lutetium oxide (Lu2O3); phases: Liquid
Fixed: Pressure, kPa = 101.325
Property: Molar enthalpy, kJ/mol (Liquid); method: Drop calorimetry
Temperature, K	Molar enthalpy, kJ/mol	uncertainty
3243	313	14
3246	297	13
3250	359	16
3292	381	17
3326	390	18
3452	443	20
