Measured thermophysical data. Mutual diffusion coefficients of L-lysine in aqueous solutions
Source: J. Chem. Thermodyn., 2014, 10.1016/j.jct.2014.02.008
Compound 1: L-lysine, C6H14N2O2, InChI=1S/C6H14N2O2/c7-4-2-1-3-5(8)6(9)10/h5H,1-4,7-8H2,(H,9,10)/t5-/m0/s1, purity 99%
Compound 2: water, H2O, InChI=1S/H2O/h1H2, purity 99.8%

System: L-lysine + water; phases: Liquid
Fixed: Pressure, kPa = 101
Fixed: Temperature, K = 298.15
Property: Binary diffusion coefficient, m2/s (Liquid); method: Taylor dispersion method
Amount concentration (molarity), mol/dm3 of L-lysine	Binary diffusion coefficient, m2/s	uncertainty
0.001	6.66e-10	0.02
0.005	6.62e-10	0.049
0.01	6.61e-10	0.028
0.02	6.59e-10	0.028
0.03	6.52e-10	0.028
0.05	6.46e-10	0.022
0.1	6.26e-10	0.024
