Measured thermophysical data. Excess heat capacities of (binary + ternary) mixtures containing [emim][BF4] and organic liquids
Source: J. Chem. Thermodyn., 2014, 10.1016/j.jct.2014.07.014
Compound 1: 1-ethyl-3-methylimidazolium tetrafluoroborate, C6H11BF4N2, InChI=1S/C6H11N2.BF4/c1-3-8-5-4-7(2)6-8;2-1(3,4)5/h4-6H,3H2,1-2H3;/q+1;-1, purity 98%
Compound 2: 2-pyrrolidinone, C4H7NO, InChI=1S/C4H7NO/c6-4-2-1-3-5-4/h1-3H2,(H,5,6)
Compound 3: N-methylpyrrolidone, C5H9NO, InChI=1S/C5H9NO/c1-6-4-2-3-5(6)7/h2-4H2,1H3
Compound 4: pyridine, C5H5N, InChI=1S/C5H5N/c1-2-4-6-5-3-1/h1-5H

System: 1-ethyl-3-methylimidazolium tetrafluoroborate; phases: Liquid
Fixed: Pressure, kPa = 100
Property: Molar heat capacity at constant pressure, J/K/mol (Liquid); method: Small sample (50 mg) DSC
Temperature, K	Molar heat capacity at constant pressure, J/K/mol	uncertainty
293.15	303.41	12.87
298.15	305.12	12.95
303.15	306.81	13.02
308.15	308.58	13.09

System: 2-pyrrolidinone; phases: Liquid
Fixed: Pressure, kPa = 100
Property: Molar heat capacity at constant pressure, J/K/mol (Liquid); method: Small sample (50 mg) DSC
Temperature, K	Molar heat capacity at constant pressure, J/K/mol	uncertainty
293.15	168.36	7.14
298.15	169.55	7.19
303.15	171.18	7.26
308.15	172.37	7.31

System: N-methylpyrrolidone; phases: Liquid
Fixed: Pressure, kPa = 100
Property: Molar heat capacity at constant pressure, J/K/mol (Liquid); method: Small sample (50 mg) DSC
Temperature, K	Molar heat capacity at constant pressure, J/K/mol	uncertainty
293.15	165.44	7.02
298.15	166.22	7.05
303.15	166.92	7.08
308.15	167.21	7.09

System: pyridine; phases: Liquid
Fixed: Pressure, kPa = 100
Property: Molar heat capacity at constant pressure, J/K/mol (Liquid); method: Small sample (50 mg) DSC
Temperature, K	Molar heat capacity at constant pressure, J/K/mol	uncertainty
293.15	130.49	5.54
298.15	131.74	5.59
303.15	132.71	5.63
308.15	133.82	5.68

System: 2-pyrrolidinone + 1-ethyl-3-methylimidazolium tetrafluoroborate; phases: Liquid
Fixed: Pressure, kPa = 100
Property: Molar heat capacity at constant pressure, J/K/mol (Liquid); method: Small sample (50 mg) DSC
Temperature, K	Mole fraction of 1-ethyl-3-methylimidazolium tetrafluoroborate	Molar heat capacity at constant pressure, J/K/mol	uncertainty
293.15	0	168.36	7.14
293.15	0.1031	183.49	7.78
293.15	0.1614	191.53	8.13
293.15	0.2251	199.96	8.48
293.15	0.2719	205.97	8.74
293.15	0.3245	212.58	9.02
293.15	0.3696	218.15	9.26
293.15	0.4371	226.4	9.61
293.15	0.4719	230.63	9.78
293.15	0.5301	237.73	10.09
298.15	0	169.55	7.19
298.15	0.1031	184.76	7.84
298.15	0.1614	192.84	8.18
298.15	0.2251	201.33	8.54
298.15	0.2719	207.37	8.8
298.15	0.3245	214.02	9.08
298.15	0.3696	219.63	9.32
298.15	0.4371	227.93	9.67
298.15	0.4719	232.19	9.85
298.15	0.5301	239.33	10.15
303.15	0	171.18	7.26
303.15	0.1031	186.49	7.91
303.15	0.1614	194.59	8.26
303.15	0.2251	203.08	8.62
303.15	0.2719	209.13	8.87
303.15	0.3245	215.77	9.15
303.15	0.3696	221.38	9.39
303.15	0.4371	229.68	9.74
303.15	0.4719	233.94	9.93
303.15	0.5301	241.09	10.23
308.15	0	172.37	7.31
308.15	0.1031	187.79	7.97
308.15	0.1614	195.94	8.31
308.15	0.2251	204.47	8.67
308.15	0.2719	210.55	8.93
308.15	0.3245	217.23	9.22
308.15	0.3696	222.86	9.46
308.15	0.4371	231.2	9.81
308.15	0.4719	235.49	9.99
308.15	0.5301	242.68	10.3
293.15	0.5639	241.89	10.26
293.15	0.6315	250.32	10.62
293.15	0.6713	255.4	10.84
293.15	0.7214	261.95	11.11
293.15	0.7812	270.05	11.46
293.15	0.8304	276.99	11.75
293.15	0.8615	281.52	11.94
293.15	0.9051	288.1	12.22
293.15	0.9312	292.17	12.4
293.15	1	303.41	12.87
298.15	0.5639	243.51	10.33
298.15	0.6315	251.99	10.69
298.15	0.6713	257.09	10.91
298.15	0.7214	263.67	11.19
298.15	0.7812	271.78	11.53
298.15	0.8304	278.73	11.83
298.15	0.8615	283.27	12.02
298.15	0.9051	289.84	12.3
298.15	0.9312	293.91	12.47
298.15	1	305.12	12.95
303.15	0.5639	245.28	10.41
303.15	0.6315	253.77	10.77
303.15	0.6713	258.89	10.98
303.15	0.7214	265.48	11.26
303.15	0.7812	273.61	11.61
303.15	0.8304	280.56	11.9
303.15	0.8615	285.09	12.1
303.15	0.9051	291.64	12.37
303.15	0.9312	295.68	12.54
303.15	1	306.81	13.02
308.15	0.5639	246.89	10.47
308.15	0.6315	255.44	10.84
308.15	0.6713	260.58	11.06
308.15	0.7214	267.21	11.34
308.15	0.7812	275.37	11.68
308.15	0.8304	282.34	11.98
308.15	0.8615	286.88	12.17
308.15	0.9051	293.44	12.45
308.15	0.9312	297.48	12.62
308.15	1	308.58	13.09

System: N-methylpyrrolidone + 1-ethyl-3-methylimidazolium tetrafluoroborate; phases: Liquid
Fixed: Pressure, kPa = 100
Property: Molar heat capacity at constant pressure, J/K/mol (Liquid); method: Small sample (50 mg) DSC
Temperature, K	Mole fraction of 1-ethyl-3-methylimidazolium tetrafluoroborate	Molar heat capacity at constant pressure, J/K/mol	uncertainty
293.15	0	165.44	7.02
293.15	0.1157	180.84	7.67
293.15	0.1711	188.25	7.99
293.15	0.2314	196.36	8.33
293.15	0.2801	202.93	8.61
293.15	0.3354	210.42	8.93
293.15	0.3611	213.92	9.08
293.15	0.4179	221.66	9.4
293.15	0.4581	227.16	9.64
293.15	0.5354	237.8	10.09
298.15	0	166.22	7.05
298.15	0.1157	181.67	7.71
298.15	0.1711	189.1	8.02
298.15	0.2314	197.23	8.37
298.15	0.2801	203.82	8.65
298.15	0.3354	211.34	8.97
298.15	0.3611	214.84	9.11
298.15	0.4179	222.62	9.45
298.15	0.4581	228.15	9.68
298.15	0.5354	238.85	10.13
303.15	0	166.92	7.08
303.15	0.1157	182.42	7.74
303.15	0.1711	189.88	8.06
303.15	0.2314	198.04	8.4
303.15	0.2801	204.66	8.68
303.15	0.3354	212.21	9
303.15	0.3611	215.74	9.15
303.15	0.4179	223.56	9.48
303.15	0.4581	229.13	9.72
303.15	0.5354	239.91	10.18
308.15	0	167.21	7.09
308.15	0.1157	182.83	7.76
308.15	0.1711	190.33	8.08
308.15	0.2314	198.54	8.42
308.15	0.2801	205.2	8.71
308.15	0.3354	212.81	9.03
308.15	0.3611	216.36	9.18
308.15	0.4179	224.26	9.51
308.15	0.4581	229.89	9.75
308.15	0.5354	240.79	10.22
293.15	0.5716	242.81	10.3
293.15	0.6324	251.25	10.66
293.15	0.6791	257.77	10.94
293.15	0.7301	264.92	11.24
293.15	0.7779	271.66	11.53
293.15	0.8281	278.77	11.83
293.15	0.8703	284.77	12.08
293.15	0.9143	291.07	12.35
293.15	0.9303	293.36	12.45
293.15	1	303.41	12.87
298.15	0.5716	243.89	10.35
298.15	0.6324	252.41	10.71
298.15	0.6791	258.98	10.99
298.15	0.7301	266.21	11.29
298.15	0.7779	273.01	11.58
298.15	0.8281	280.2	11.89
298.15	0.8703	286.28	12.15
298.15	0.9143	292.64	12.42
298.15	0.9303	294.96	12.51
298.15	1	305.12	12.95
303.15	0.5716	245	10.39
303.15	0.6324	253.58	10.76
303.15	0.6791	260.22	11.04
303.15	0.7301	267.51	11.35
303.15	0.7779	274.39	11.64
303.15	0.8281	281.65	11.95
303.15	0.8703	287.78	12.21
303.15	0.9143	294.21	12.48
303.15	0.9303	296.56	12.58
303.15	1	306.81	13.02
308.15	0.5716	245.94	10.43
308.15	0.6324	254.65	10.8
308.15	0.6791	261.39	11.09
308.15	0.7301	268.79	11.4
308.15	0.7779	275.77	11.7
308.15	0.8281	283.13	12.01
308.15	0.8703	289.35	12.28
308.15	0.9143	295.86	12.55
308.15	0.9303	298.23	12.65
308.15	1	308.58	13.09

System: pyridine + 1-ethyl-3-methylimidazolium tetrafluoroborate; phases: Liquid
Fixed: Pressure, kPa = 100
Property: Molar heat capacity at constant pressure, J/K/mol (Liquid); method: Small sample (50 mg) DSC
Temperature, K	Mole fraction of 1-ethyl-3-methylimidazolium tetrafluoroborate	Molar heat capacity at constant pressure, J/K/mol	uncertainty
293.15	0	130.49	5.54
293.15	0.1004	146.57	6.22
293.15	0.1717	158.57	6.73
293.15	0.2341	169.43	7.19
293.15	0.2771	177.09	7.51
293.15	0.3321	187.07	7.94
293.15	0.3745	194.88	8.27
293.15	0.4293	205.07	8.7
293.15	0.4759	213.81	9.07
293.15	0.5343	224.79	9.54
298.15	0	131.74	5.59
298.15	0.1004	147.8	6.27
298.15	0.1717	159.82	6.78
298.15	0.2341	170.71	7.24
298.15	0.2771	178.4	7.57
298.15	0.3321	188.41	7.99
298.15	0.3745	196.23	8.33
298.15	0.4293	206.46	8.76
298.15	0.4759	215.22	9.13
298.15	0.5343	226.23	9.6
303.15	0	132.71	5.63
303.15	0.1004	148.78	6.31
303.15	0.1717	160.83	6.82
303.15	0.2341	171.77	7.29
303.15	0.2771	179.49	7.62
303.15	0.3321	189.54	8.04
303.15	0.3745	197.41	8.38
303.15	0.4293	207.68	8.81
303.15	0.4759	216.48	9.18
303.15	0.5343	227.53	9.65
308.15	0	133.82	5.68
308.15	0.1004	149.89	6.36
308.15	0.1717	161.98	6.87
308.15	0.2341	172.95	7.34
308.15	0.2771	180.7	7.67
308.15	0.3321	190.8	8.1
308.15	0.3745	198.7	8.43
308.15	0.4293	209.01	8.87
308.15	0.4759	217.84	9.24
308.15	0.5343	228.93	9.71
293.15	0.5813	233.61	9.91
293.15	0.6309	242.84	10.3
293.15	0.6745	250.86	10.64
293.15	0.7317	261.16	11.08
293.15	0.7714	268.12	11.38
293.15	0.8311	278.23	11.8
293.15	0.8718	284.81	12.08
293.15	0.9001	289.22	12.27
293.15	0.9302	293.73	12.46
293.15	1	303.41	12.87
298.15	0.5813	235.06	9.97
298.15	0.6309	244.3	10.36
298.15	0.6745	252.33	10.71
298.15	0.7317	262.65	11.14
298.15	0.7714	269.63	11.44
298.15	0.8311	279.76	11.87
298.15	0.8718	286.37	12.15
298.15	0.9001	290.8	12.34
298.15	0.9302	295.34	12.53
298.15	1	305.12	12.95
303.15	0.5813	236.39	10.03
303.15	0.6309	245.67	10.42
303.15	0.6745	253.73	10.76
303.15	0.7317	264.09	11.2
303.15	0.7714	271.09	11.5
303.15	0.8311	281.27	11.93
303.15	0.8718	287.91	12.22
303.15	0.9001	292.37	12.4
303.15	0.9302	296.94	12.6
303.15	1	306.81	13.02
308.15	0.5813	237.83	10.09
308.15	0.6309	247.14	10.49
308.15	0.6745	255.23	10.83
308.15	0.7317	265.62	11.27
308.15	0.7714	272.65	11.57
308.15	0.8311	282.87	12
308.15	0.8718	289.55	12.28
308.15	0.9001	294.03	12.47
308.15	0.9302	298.63	12.67
308.15	1	308.58	13.09

System: pyridine + 2-pyrrolidinone; phases: Liquid
Fixed: Pressure, kPa = 100
Property: Molar heat capacity at constant pressure, J/K/mol (Liquid); method: Small sample (50 mg) DSC
Temperature, K	Mole fraction of 2-pyrrolidinone	Molar heat capacity at constant pressure, J/K/mol	uncertainty
293.15	0.0996	134.96	5.73
293.15	0.1643	137.78	5.85
293.15	0.2259	140.4	5.96
293.15	0.2619	141.91	6.02
293.15	0.3198	144.28	6.12
293.15	0.3656	146.12	6.2
293.15	0.4312	148.69	6.31
293.15	0.4667	150.05	6.37
293.15	0.5245	152.23	6.46
293.15	0.5711	153.94	6.53
293.15	0.6279	155.98	6.62
293.15	0.6679	157.39	6.68
293.15	0.7216	159.25	6.76
293.15	0.7648	160.72	6.82
293.15	0.8214	162.6	6.9
293.15	0.8619	163.93	6.95
293.15	0.8976	165.09	7
293.15	0.9291	166.11	7.05
298.15	0.0996	136.23	5.78
298.15	0.1643	139.05	5.9
298.15	0.2259	141.67	6.01
298.15	0.2619	143.17	6.07
298.15	0.3198	145.54	6.17
298.15	0.3656	147.37	6.25
298.15	0.4312	149.94	6.36
298.15	0.4667	151.3	6.42
298.15	0.5245	153.47	6.51
298.15	0.5711	155.19	6.58
298.15	0.6279	157.23	6.67
298.15	0.6679	158.65	6.73
298.15	0.7216	160.51	6.81
298.15	0.7648	161.97	6.87
298.15	0.8214	163.86	6.95
298.15	0.8619	165.19	7.01
298.15	0.8976	166.34	7.06
298.15	0.9291	167.34	7.1
303.15	0.0996	137.29	5.82
303.15	0.1643	140.16	5.95
303.15	0.2259	142.82	6.06
303.15	0.2619	144.34	6.12
303.15	0.3198	146.74	6.23
303.15	0.3656	148.6	6.3
303.15	0.4312	151.21	6.42
303.15	0.4667	152.6	6.47
303.15	0.5245	154.81	6.57
303.15	0.5711	156.56	6.64
303.15	0.6279	158.65	6.73
303.15	0.6679	160.1	6.79
303.15	0.7216	162	6.87
303.15	0.7648	163.5	6.94
303.15	0.8214	165.43	7.02
303.15	0.8619	166.78	7.08
303.15	0.8976	167.95	7.13
303.15	0.9291	168.96	7.17
308.15	0.0996	138.43	5.87
308.15	0.1643	141.31	6
308.15	0.2259	143.97	6.11
308.15	0.2619	145.5	6.17
308.15	0.3198	147.91	6.28
308.15	0.3656	149.77	6.35
308.15	0.4312	152.38	6.46
308.15	0.4667	153.77	6.52
308.15	0.5245	155.99	6.62
308.15	0.5711	157.75	6.69
308.15	0.6279	159.85	6.78
308.15	0.6679	161.3	6.84
308.15	0.7216	163.21	6.92
308.15	0.7648	164.71	6.99
308.15	0.8214	166.64	7.07
308.15	0.8619	167.99	7.13
308.15	0.8976	169.16	7.18
308.15	0.9291	170.17	7.22

System: pyridine + 2-pyrrolidinone + 1-ethyl-3-methylimidazolium tetrafluoroborate; phases: Liquid
Fixed: Pressure, kPa = 100
Property: Molar heat capacity at constant pressure, J/K/mol (Liquid); method: Small sample (50 mg) DSC
Temperature, K	Mole fraction of 1-ethyl-3-methylimidazolium tetrafluoroborate	Mole fraction of 2-pyrrolidinone	Molar heat capacity at constant pressure, J/K/mol	uncertainty
293.15	0.1551	0.7591	190.56	8.08
293.15	0.1691	0.7481	192.73	8.18
293.15	0.1785	0.7351	194.15	8.24
293.15	0.1959	0.7042	196.74	8.35
293.15	0.2041	0.6875	197.95	8.4
293.15	0.2235	0.6542	200.8	8.52
293.15	0.2455	0.6169	203.97	8.65
293.15	0.2665	0.5859	206.97	8.78
293.15	0.2811	0.5685	209.07	8.87
293.15	0.3024	0.5449	212.1	9
293.15	0.3261	0.5107	215.22	9.13
293.15	0.3413	0.4842	217.04	9.21
293.15	0.3629	0.4678	220.25	9.34
293.15	0.3851	0.4256	222.71	9.45
293.15	0.4044	0.4042	224.71	9.53
293.15	0.4234	0.3963	227.43	9.65
293.15	0.4325	0.3771	228.18	9.68
293.15	0.4447	0.3661	229.69	9.74
293.15	0.4544	0.3581	230.91	9.8
293.15	0.4724	0.3473	233.3	9.9
293.15	0.4869	0.3353	235.09	9.97
293.15	0.5052	0.3179	237.24	10.07
293.15	0.5284	0.2991	240.06	10.18
293.15	0.5451	0.2863	242.11	10.27
293.15	0.5543	0.2789	243.22	10.32
293.15	0.5785	0.2601	246.16	10.44
293.15	0.5801	0.2557	246.24	10.45
293.15	0.5949	0.2457	248.1	10.53
293.15	0.6141	0.2293	250.39	10.62
293.15	0.6313	0.2081	252.23	10.7
293.15	0.6485	0.1919	254.26	10.79
293.15	0.6536	0.1861	254.83	10.81
293.15	0.6662	0.1801	256.53	10.88
293.15	0.6771	0.1698	257.85	10.94
293.15	0.6918	0.1589	259.74	11.02
293.15	0.7223	0.1469	264	11.2
298.15	0.1551	0.7591	192.13	8.15
298.15	0.1691	0.7481	194.34	8.25
298.15	0.1785	0.7351	195.8	8.31
298.15	0.1959	0.7042	198.47	8.42
298.15	0.2041	0.6875	199.72	8.47
298.15	0.2235	0.6542	202.67	8.6
298.15	0.2455	0.6169	205.92	8.74
298.15	0.2665	0.5859	208.99	8.87
298.15	0.2811	0.5685	211.12	8.96
298.15	0.3024	0.5449	214.19	9.09
298.15	0.3261	0.5107	217.36	9.22
298.15	0.3413	0.4842	219.18	9.3
298.15	0.3629	0.4678	222.23	9.43
298.15	0.3851	0.4256	224.48	9.52
298.15	0.4044	0.4042	226.83	9.62
298.15	0.4234	0.3963	229.57	9.74
298.15	0.4325	0.3771	230.29	9.77
298.15	0.4447	0.3661	231.78	9.83
298.15	0.4544	0.3581	232.99	9.88
298.15	0.4724	0.3473	235.39	9.99
298.15	0.4869	0.3353	237.17	10.06
298.15	0.5052	0.3179	239.28	10.15
298.15	0.5284	0.2991	242.08	10.27
298.15	0.5451	0.2863	244.1	10.36
298.15	0.5543	0.2789	245.21	10.4
298.15	0.5785	0.2601	248.12	10.53
298.15	0.5801	0.2557	248.19	10.53
298.15	0.5949	0.2457	250.03	10.61
298.15	0.6141	0.2293	252.29	10.7
298.15	0.6313	0.2081	254.07	10.78
298.15	0.6485	0.1919	256.07	10.86
298.15	0.6536	0.1861	256.64	10.89
298.15	0.6662	0.1801	258.35	10.96
298.15	0.6771	0.1698	259.65	11.02
298.15	0.6918	0.1589	261.52	11.1
298.15	0.7223	0.1469	265.77	11.28
303.15	0.1551	0.7591	194.12	8.24
303.15	0.1691	0.7481	196.37	8.33
303.15	0.1785	0.7351	197.87	8.4
303.15	0.1959	0.7042	200.62	8.51
303.15	0.2041	0.6875	201.9	8.57
303.15	0.2235	0.6542	204.93	8.69
303.15	0.2455	0.6169	208.26	8.84
303.15	0.2665	0.5859	211.38	8.97
303.15	0.2811	0.5685	213.55	9.06
303.15	0.3024	0.5449	216.66	9.19
303.15	0.3261	0.5107	219.84	9.33
303.15	0.3413	0.4842	221.65	9.4
303.15	0.3629	0.4678	224.71	9.53
303.15	0.3851	0.4256	226.87	9.63
303.15	0.4044	0.4042	229.18	9.72
303.15	0.4234	0.3963	231.95	9.84
303.15	0.4325	0.3771	232.6	9.87
303.15	0.4447	0.3661	234.08	9.93
303.15	0.4544	0.3581	235.27	9.98
303.15	0.4724	0.3473	237.67	10.08
303.15	0.4869	0.3353	239.41	10.16
303.15	0.5052	0.3179	241.48	10.25
303.15	0.5284	0.2991	244.24	10.36
303.15	0.5451	0.2863	246.24	10.45
303.15	0.5543	0.2789	247.32	10.49
303.15	0.5785	0.2601	250.19	10.61
303.15	0.5801	0.2557	250.23	10.62
303.15	0.5949	0.2457	252.05	10.69
303.15	0.6141	0.2293	254.28	10.79
303.15	0.6313	0.2081	255.99	10.86
303.15	0.6485	0.1919	257.97	10.94
303.15	0.6536	0.1861	258.51	10.97
303.15	0.6662	0.1801	260.21	11.04
303.15	0.6771	0.1698	261.49	11.09
303.15	0.6918	0.1589	263.35	11.17
303.15	0.7223	0.1469	267.59	11.35
308.15	0.1551	0.7591	195.68	8.3
308.15	0.1691	0.7481	197.97	8.4
308.15	0.1785	0.7351	199.5	8.46
308.15	0.1959	0.7042	202.33	8.58
308.15	0.2041	0.6875	203.66	8.64
308.15	0.2235	0.6542	206.76	8.77
308.15	0.2455	0.6169	210.18	8.92
308.15	0.2665	0.5859	213.36	9.05
308.15	0.2811	0.5685	215.56	9.15
308.15	0.3024	0.5449	218.72	9.28
308.15	0.3261	0.5107	221.94	9.42
308.15	0.3413	0.4842	223.73	9.49
308.15	0.3629	0.4678	226.82	9.62
308.15	0.3851	0.4256	228.94	9.71
308.15	0.4044	0.4042	231.22	9.81
308.15	0.4234	0.3963	234.03	9.93
308.15	0.4325	0.3771	234.62	9.95
308.15	0.4447	0.3661	236.1	10.02
308.15	0.4544	0.3581	237.29	10.07
308.15	0.4724	0.3473	239.69	10.17
308.15	0.4869	0.3353	241.42	10.24
308.15	0.5052	0.3179	243.46	10.33
308.15	0.5284	0.2991	246.19	10.44
308.15	0.5451	0.2863	248.19	10.53
308.15	0.5543	0.2789	249.25	10.57
308.15	0.5785	0.2601	252.1	10.7
308.15	0.5801	0.2557	252.14	10.7
308.15	0.5949	0.2457	253.95	10.77
308.15	0.6141	0.2293	256.14	10.87
308.15	0.6313	0.2081	257.83	10.94
308.15	0.6485	0.1919	259.77	11.02
308.15	0.6536	0.1861	260.31	11.04
308.15	0.6662	0.1801	262.01	11.12
308.15	0.6771	0.1698	263.28	11.17
308.15	0.6918	0.1589	265.12	11.25
308.15	0.7223	0.1469	269.36	11.43

System: pyridine + N-methylpyrrolidone + 1-ethyl-3-methylimidazolium tetrafluoroborate; phases: Liquid
Fixed: Pressure, kPa = 100
Property: Molar heat capacity at constant pressure, J/K/mol (Liquid); method: Small sample (50 mg) DSC
Temperature, K	Mole fraction of 1-ethyl-3-methylimidazolium tetrafluoroborate	Mole fraction of N-methylpyrrolidone	Molar heat capacity at constant pressure, J/K/mol	uncertainty
293.15	0.1574	0.7684	189.9	8.06
293.15	0.1706	0.7488	192.18	8.15
293.15	0.1806	0.7348	193.9	8.23
293.15	0.1941	0.7079	196.42	8.33
293.15	0.2035	0.6879	198.18	8.41
293.15	0.2223	0.6539	201.47	8.55
293.15	0.2449	0.6157	205.24	8.71
293.15	0.2607	0.5854	207.69	8.81
293.15	0.2825	0.5492	210.86	8.95
293.15	0.3011	0.5248	213.53	9.06
293.15	0.3263	0.4907	216.88	9.2
293.15	0.3445	0.4644	219.06	9.29
293.15	0.3624	0.4469	221.47	9.4
293.15	0.3889	0.4215	224.91	9.54
293.15	0.4047	0.4063	226.89	9.63
293.15	0.4138	0.3984	228.06	9.68
293.15	0.4312	0.3762	229.84	9.75
293.15	0.4472	0.3665	232.07	9.85
293.15	0.4573	0.3584	233.33	9.9
293.15	0.4712	0.3468	235.04	9.97
293.15	0.4852	0.3341	236.68	10.04
293.15	0.5033	0.3187	238.82	10.13
293.15	0.5294	0.2985	242.01	10.27
293.15	0.5469	0.2849	244.12	10.36
293.15	0.5574	0.2751	245.28	10.41
293.15	0.5772	0.2613	247.75	10.51
293.15	0.5815	0.2547	248.08	10.53
293.15	0.5954	0.2452	249.83	10.6
293.15	0.6174	0.2282	252.49	10.71
293.15	0.6344	0.2092	254.26	10.79
293.15	0.6464	0.1924	255.38	10.83
293.15	0.6555	0.1874	256.61	10.89
293.15	0.6632	0.1801	257.51	10.93
293.15	0.6786	0.1692	259.49	11.01
293.15	0.6916	0.1585	261.11	11.08
293.15	0.7215	0.1475	265.38	11.26
298.15	0.1574	0.7684	191.61	8.13
298.15	0.1706	0.7488	193.32	8.2
298.15	0.1806	0.7348	195.07	8.28
298.15	0.1941	0.7079	197.65	8.39
298.15	0.2035	0.6879	199.44	8.46
298.15	0.2223	0.6539	202.8	8.6
298.15	0.2449	0.6157	206.63	8.77
298.15	0.2607	0.5854	209.11	8.87
298.15	0.2825	0.5492	212.32	9.01
298.15	0.3011	0.5248	214.99	9.12
298.15	0.3263	0.4907	218.36	9.26
298.15	0.3445	0.4644	220.53	9.36
298.15	0.3624	0.4469	222.93	9.46
298.15	0.3889	0.4215	226.38	9.6
298.15	0.4047	0.4063	228.37	9.69
298.15	0.4138	0.3984	229.53	9.74
298.15	0.4312	0.3762	231.3	9.81
298.15	0.4472	0.3665	233.52	9.91
298.15	0.4573	0.3584	234.79	9.96
298.15	0.4712	0.3468	236.49	10.03
298.15	0.4852	0.3341	238.12	10.1
298.15	0.5033	0.3187	240.27	10.19
298.15	0.5294	0.2985	243.44	10.33
298.15	0.5469	0.2849	245.55	10.42
298.15	0.5574	0.2751	246.72	10.47
298.15	0.5772	0.2613	249.19	10.57
298.15	0.5815	0.2547	249.52	10.59
298.15	0.5954	0.2452	251.26	10.66
298.15	0.6174	0.2282	253.93	10.77
298.15	0.6344	0.2092	255.73	10.85
298.15	0.6464	0.1924	256.87	10.9
298.15	0.6555	0.1874	258.1	10.95
298.15	0.6632	0.1801	259.02	10.99
298.15	0.6786	0.1692	261.01	11.07
298.15	0.6916	0.1585	262.64	11.14
298.15	0.7215	0.1475	266.89	11.32
303.15	0.1574	0.7684	192.62	8.17
303.15	0.1706	0.7488	194.33	8.24
303.15	0.1806	0.7348	196.1	8.32
303.15	0.1941	0.7079	198.71	8.43
303.15	0.2035	0.6879	200.52	8.51
303.15	0.2223	0.6539	203.91	8.65
303.15	0.2449	0.6157	207.76	8.81
303.15	0.2607	0.5854	210.26	8.92
303.15	0.2825	0.5492	213.47	9.06
303.15	0.3011	0.5248	216.16	9.17
303.15	0.3263	0.4907	219.54	9.31
303.15	0.3445	0.4644	221.71	9.41
303.15	0.3624	0.4469	224.12	9.51
303.15	0.3889	0.4215	227.58	9.66
303.15	0.4047	0.4063	229.56	9.74
303.15	0.4138	0.3984	230.73	9.79
303.15	0.4312	0.3762	232.51	9.86
303.15	0.4472	0.3665	234.75	9.96
303.15	0.4573	0.3584	236.02	10.01
303.15	0.4712	0.3468	237.72	10.09
303.15	0.4852	0.3341	239.36	10.16
303.15	0.5033	0.3187	241.52	10.25
303.15	0.5294	0.2985	244.71	10.38
303.15	0.5469	0.2849	246.83	10.47
303.15	0.5574	0.2751	248.01	10.52
303.15	0.5772	0.2613	250.5	10.63
303.15	0.5815	0.2547	250.84	10.64
303.15	0.5954	0.2452	252.6	10.72
303.15	0.6174	0.2282	255.29	10.83
303.15	0.6344	0.2092	257.12	10.91
303.15	0.6464	0.1924	258.31	10.96
303.15	0.6555	0.1874	259.54	11.01
303.15	0.6632	0.1801	260.47	11.05
303.15	0.6786	0.1692	262.48	11.14
303.15	0.6916	0.1585	264.15	11.21
303.15	0.7215	0.1475	268.38	11.39
308.15	0.1574	0.7684	193.33	8.2
308.15	0.1706	0.7488	195.06	8.28
308.15	0.1806	0.7348	196.85	8.35
308.15	0.1941	0.7079	199.53	8.47
308.15	0.2035	0.6879	201.37	8.54
308.15	0.2223	0.6539	204.83	8.69
308.15	0.2449	0.6157	208.76	8.86
308.15	0.2607	0.5854	211.32	8.97
308.15	0.2825	0.5492	214.59	9.1
308.15	0.3011	0.5248	217.31	9.22
308.15	0.3263	0.4907	220.73	9.36
308.15	0.3445	0.4644	222.95	9.46
308.15	0.3624	0.4469	225.38	9.56
308.15	0.3889	0.4215	228.87	9.71
308.15	0.4047	0.4063	230.87	9.8
308.15	0.4138	0.3984	232.05	9.85
308.15	0.4312	0.3762	233.87	9.92
308.15	0.4472	0.3665	236.1	10.02
308.15	0.4573	0.3584	237.38	10.07
308.15	0.4712	0.3468	239.11	10.14
308.15	0.4852	0.3341	240.76	10.21
308.15	0.5033	0.3187	242.94	10.31
308.15	0.5294	0.2985	246.15	10.44
308.15	0.5469	0.2849	248.3	10.53
308.15	0.5574	0.2751	249.49	10.59
308.15	0.5772	0.2613	251.99	10.69
308.15	0.5815	0.2547	252.35	10.71
308.15	0.5954	0.2452	254.12	10.78
308.15	0.6174	0.2282	256.83	10.9
308.15	0.6344	0.2092	258.71	10.98
308.15	0.6464	0.1924	259.96	11.03
308.15	0.6555	0.1874	261.19	11.08
308.15	0.6632	0.1801	262.14	11.12
308.15	0.6786	0.1692	264.16	11.21
308.15	0.6916	0.1585	265.85	11.28
308.15	0.7215	0.1475	270.04	11.46
