Measured thermophysical data. Studies on the interactions of diglycine and triglycine with polyethylene glycol 400 in aqueous solutions by density and ultrasound speed measurements
Source: J. Chem. Thermodyn., 2013, 10.1016/j.jct.2012.10.018
Compound 1: glycylglycine, C4H8N2O3, InChI=1S/C4H8N2O3/c5-1-3(7)6-2-4(8)9/h1-2,5H2,(H,6,7)(H,8,9), purity 99%
Compound 2: glycylglycylglycine, C6H11N3O4, InChI=1S/C6H11N3O4/c7-1-4(10)8-2-5(11)9-3-6(12)13/h1-3,7H2,(H,8,10)(H,9,11)(H,12,13), purity 99.1%
Compound 3: water, H2O, InChI=1S/H2O/h1H2

System: glycylglycine + water; phases: Liquid
Fixed: Pressure, kPa = 101
Property: Mass density, kg/m3 (Liquid); method: Vibrating tube method
Temperature, K	Molality, mol/kg of glycylglycine	Mass density, kg/m3	uncertainty
293.15	0	998.226	0.119
293.15	0.0467	1000.841	0.118
293.15	0.103	1003.952	0.118
293.15	0.1479	1006.401	0.118
293.15	0.1998	1009.201	0.119
293.15	0.251	1011.921	0.119
293.15	0.2973	1014.351	0.119
293.15	0.347	1016.929	0.119
293.15	0.402	1019.728	0.119
293.15	0.4499	1022.142	0.119
298.15	0	997.068	0.119
298.15	0.0467	999.656	0.118
298.15	0.103	1002.74	0.118
298.15	0.1479	1005.168	0.118
298.15	0.1998	1007.933	0.118
298.15	0.251	1010.631	0.118
298.15	0.2973	1013.039	0.118
298.15	0.347	1015.586	0.118
298.15	0.402	1018.383	0.119
298.15	0.4499	1020.778	0.118
303.15	0	995.67	0.114
303.15	0.0467	998.24	0.118
303.15	0.103	1001.301	0.118
303.15	0.1479	1003.709	0.118
303.15	0.1998	1006.453	0.118
303.15	0.251	1009.135	0.118
303.15	0.2973	1011.524	0.118
303.15	0.347	1014.073	0.118
303.15	0.402	1016.832	0.118
303.15	0.4499	1019.208	0.123
308.15	0	995.67	0.118
308.15	0.0467	998.24	0.118
308.15	0.103	1001.301	0.118
308.15	0.1479	1003.709	0.118
308.15	0.1998	1006.453	0.118
308.15	0.251	1009.135	0.118
308.15	0.2973	1011.524	0.118
308.15	0.347	1014.073	0.118
308.15	0.402	1016.832	0.118
308.15	0.4499	1019.208	0.118

System: glycylglycine + water; phases: Liquid
Fixed: Pressure, kPa = 101
Property: Speed of sound, m/s (Liquid); method: Sing-around technique in a fixed-path interferometer
Temperature, K	Molality, mol/kg of glycylglycine	Speed of sound, m/s	uncertainty
293.15	0	1482.44	1.21
293.15	0.0467	1486.43	1.21
293.15	0.103	1491.21	1.21
293.15	0.1479	1494.98	1.21
293.15	0.1998	1499.28	1.21
293.15	0.251	1503.48	1.21
293.15	0.2973	1507.28	1.21
293.15	0.347	1511.3	1.22
293.15	0.402	1515.66	1.22
293.15	0.4499	1519.35	1.22
298.15	0	1496.65	1.21
298.15	0.0467	1500.53	1.21
298.15	0.103	1505.15	1.21
298.15	0.1479	1508.78	1.21
298.15	0.1998	1512.95	1.21
298.15	0.251	1516.99	1.22
298.15	0.2973	1520.58	1.22
298.15	0.347	1524.42	1.22
298.15	0.402	1528.68	1.22
298.15	0.4499	1532.28	1.22
303.15	0	1509.07	1.21
303.15	0.0467	1512.8	1.21
303.15	0.103	1517.23	1.21
303.15	0.1479	1520.73	1.21
303.15	0.1998	1524.82	1.22
303.15	0.251	1528.72	1.22
303.15	0.2973	1532.25	1.22
303.15	0.347	1536.02	1.22
303.15	0.402	1540.19	1.22
303.15	0.4499	1543.61	1.22
308.15	0	1509.07	1.21
308.15	0.0467	1512.8	1.21
308.15	0.103	1517.23	1.21
308.15	0.1479	1520.73	1.21
308.15	0.1998	1524.82	1.22
308.15	0.251	1528.72	1.22
308.15	0.2973	1532.25	1.22
308.15	0.347	1536.02	1.22
308.15	0.402	1540.19	1.22
308.15	0.4499	1543.61	1.22

System: glycylglycylglycine + water; phases: Liquid
Fixed: Pressure, kPa = 101
Property: Mass density, kg/m3 (Liquid); method: Vibrating tube method
Temperature, K	Molality, mol/kg of glycylglycylglycine	Mass density, kg/m3	uncertainty
293.15	0	998.247	0.13
293.15	0.025	1000.176	0.13
293.15	0.05	1002.097	0.13
293.15	0.075	1003.999	0.13
293.15	0.0999	1005.882	0.13
293.15	0.1248	1007.76	0.129
293.15	0.15	1009.64	0.129
293.15	0.175	1011.495	0.129
293.15	0.1926	1012.791	0.129
293.15	0.2706	1018.469	0.13
298.15	0	997.09	0.132
298.15	0.025	999.002	0.129
298.15	0.05	1000.906	0.129
298.15	0.075	1002.791	0.129
298.15	0.0999	1004.657	0.129
298.15	0.1248	1006.519	0.129
298.15	0.15	1008.381	0.129
298.15	0.175	1010.219	0.129
298.15	0.1926	1011.503	0.126
298.15	0.2706	1017.129	0.129
303.15	0	995.694	0.131
303.15	0.025	997.591	0.129
303.15	0.05	999.479	0.129
303.15	0.075	1001.349	0.129
303.15	0.0999	1003.2	0.129
303.15	0.1248	1005.048	0.128
303.15	0.15	1006.896	0.128
303.15	0.175	1008.722	0.128
303.15	0.1926	1009.998	0.126
303.15	0.2706	1015.579	0.128
308.15	0	994.08	0.129
308.15	0.025	995.964	0.129
308.15	0.05	997.839	0.129
308.15	0.075	999.696	0.128
308.15	0.0999	1001.536	0.128
308.15	0.1248	1003.372	0.128
308.15	0.15	1005.207	0.128
308.15	0.175	1007.021	0.128
308.15	0.1926	1008.289	0.128
308.15	0.2706	1013.843	0.128

System: glycylglycylglycine + water; phases: Liquid
Fixed: Pressure, kPa = 101
Property: Speed of sound, m/s (Liquid); method: Sing-around technique in a fixed-path interferometer
Temperature, K	Molality, mol/kg of glycylglycylglycine	Speed of sound, m/s	uncertainty
293.15	0	1482.57	1.21
293.15	0.025	1485.23	1.21
293.15	0.05	1487.88	1.21
293.15	0.075	1490.47	1.21
293.15	0.0999	1493.06	1.21
293.15	0.1248	1495.6	1.21
293.15	0.15	1498.1	1.21
293.15	0.175	1500.56	1.21
293.15	0.1926	1502.31	1.21
293.15	0.2706	1509.71	1.22
298.15	0	1496.7	1.21
298.15	0.025	1499.33	1.21
298.15	0.05	1501.89	1.21
298.15	0.075	1504.42	1.21
298.15	0.0999	1506.96	1.21
298.15	0.1248	1509.45	1.21
298.15	0.15	1511.79	1.21
298.15	0.175	1514.2	1.22
298.15	0.1926	1515.91	1.22
298.15	0.2706	1522.88	1.22
303.15	0	1509.09	1.21
303.15	0.025	1511.61	1.21
303.15	0.05	1514.07	1.21
303.15	0.075	1516.5	1.21
303.15	0.0999	1518.92	1.21
303.15	0.1248	1521.33	1.22
303.15	0.15	1523.66	1.22
303.15	0.175	1525.97	1.22
303.15	0.1926	1527.65	1.22
303.15	0.2706	1534.41	1.22
308.15	0	1519.76	1.21
308.15	0.025	1522.21	1.21
308.15	0.05	1524.58	1.22
308.15	0.075	1526.95	1.22
308.15	0.0999	1529.28	1.22
308.15	0.1248	1531.61	1.22
308.15	0.15	1533.92	1.22
308.15	0.175	1536.1	1.22
308.15	0.1926	1537.68	1.22
308.15	0.2706	1544.3	1.22
