Measured thermophysical data. Partial molar volumes of organic solutes in water. XV. Butanediols(aq) at temperatures from (298 K to 573 K) and at pressures up to 30 MPa
Source: J. Chem. Thermodyn., 2006, 10.1016/j.jct.2005.12.001
Compound 1: 1,3-butanediol, C4H10O2, InChI=1S/C4H10O2/c1-4(6)2-3-5/h4-6H,2-3H2,1H3, purity 99%
Compound 2: water, H2O, InChI=1S/H2O/h1H2
Compound 3: 2,3-butanediol, C4H10O2, InChI=1S/C4H10O2/c1-3(5)4(2)6/h3-6H,1-2H3, purity 99%
Compound 4: 1,4-butanediol, C4H10O2, InChI=1S/C4H10O2/c5-3-1-2-4-6/h5-6H,1-4H2, purity 99%

System: 1,3-butanediol + water; phases: Liquid
Property: Mass density, kg/m3 (Liquid); method: VIBTUB:UFactor:0.5
Temperature, K	Pressure, kPa	Molality, mol/kg of 1,3-butanediol	Mass density, kg/m3	uncertainty
298.2	640	0.07802	0.1638	0.01
298.2	640	0.17831	0.3838	0.01
298.2	640	0.25888	0.5669	0.01
298.2	640	0.35934	0.8027	0.01
298.2	640	0.45258	1.0396	0.01
298.2	640	0.07802	0.1636	0.01
298.2	640	0.17831	0.3832	0.01
298.2	640	0.25888	0.5675	0.01
298.2	640	0.35934	0.803	0.01
298.2	640	0.45258	1.0395	0.01
298.2	640	0.07802	0.1629	0.01
298.2	640	0.17831	0.3834	0.01
298.2	640	0.25888	0.5678	0.01
298.2	640	0.35934	0.8039	0.01
298.2	640	0.45258	1.0394	0.01
298.22	29780	0.07802	0.0949	0.01
298.22	29780	0.17831	0.2314	0.01
298.22	29780	0.25888	0.3516	0.01
298.22	29780	0.35934	0.5097	0.01
298.22	29780	0.45258	0.6718	0.01
298.22	29780	0.07802	0.0944	0.01
298.22	29780	0.17831	0.2292	0.01
298.22	29780	0.25888	0.3523	0.01
298.22	29780	0.35934	0.5094	0.01
298.22	29780	0.45258	0.6711	0.01
298.22	29780	0.07802	0.094	0.01
298.22	29780	0.17831	0.2293	0.01
298.22	29780	0.25888	0.3523	0.01
298.22	29780	0.35934	0.5094	0.01
298.22	29780	0.45258	0.6738	0.01
298.34	15140	0.07802	0.1242	0.01
298.34	15140	0.17831	0.2997	0.01
298.34	15140	0.25888	0.4541	0.01
298.34	15140	0.35934	0.6497	0.01
298.34	15140	0.45258	0.8482	0.01
298.34	15140	0.07802	0.1256	0.01
298.34	15140	0.17831	0.3014	0.01
298.34	15140	0.25888	0.4538	0.01
298.34	15140	0.35934	0.6492	0.01
318.17	500	0.08736	0.1493	0.01
318.17	500	0.18184	0.3304	0.01
318.17	500	0.25178	0.4707	0.01
318.17	500	0.34161	0.6384	0.01
318.17	500	0.46361	0.8964	0.01
318.17	30170	0.08736	0.1093	0.01
318.17	30170	0.18184	0.2324	0.01
318.17	30170	0.25378	0.337	0.01
318.17	30170	0.34161	0.4649	0.01
318.17	30170	0.46361	0.6594	0.01
318.17	500	0.08736	0.1547	0.01
318.17	500	0.18184	0.3386	0.01
318.17	500	0.25178	0.4723	0.01
318.17	500	0.34161	0.6486	0.01
318.17	500	0.46361	0.8924	0.01
318.17	30170	0.08736	0.1095	0.01
318.17	30170	0.18184	0.231	0.01
318.17	30170	0.25378	0.3386	0.01
318.17	30170	0.34161	0.4653	0.01
318.17	30170	0.46361	0.6621	0.01
318.17	500	0.08736	0.1596	0.01
318.17	500	0.18184	0.3315	0.01
318.17	500	0.34161	0.6496	0.01
318.17	500	0.46361	0.9041	0.01
318.17	30170	0.08736	0.1097	0.01
318.17	30170	0.18184	0.23	0.01
318.17	30170	0.34161	0.4648	0.01
318.17	30170	0.46361	0.6582	0.01
318.17	500	0.08736	0.1577	0.01
318.17	500	0.46361	0.905	0.01
318.77	14770	0.08736	0.1375	0.01
318.77	14770	0.18184	0.2819	0.01
318.77	14770	0.25378	0.4092	0.01
318.77	14770	0.34161	0.5641	0.01
318.77	14770	0.46361	0.7887	0.01
318.77	14770	0.08736	0.1365	0.01
318.77	14770	0.18184	0.2821	0.01
318.77	14770	0.25378	0.408	0.01
318.77	14770	0.34161	0.5634	0.01
318.77	14770	0.46361	0.7891	0.01
318.77	14770	0.08736	0.1356	0.01
318.77	14770	0.18184	0.2828	0.01
318.77	14770	0.25378	0.4109	0.01
318.77	14770	0.34161	0.5635	0.01
318.77	14770	0.46361	0.7911	0.01
338.16	450	0.08736	0.1272	0.01
338.16	450	0.18184	0.2731	0.01
338.16	450	0.25378	0.3851	0.01
338.16	450	0.34161	0.5282	0.01
338.16	450	0.46361	0.7293	0.01
338.16	15160	0.08736	0.1148	0.01
338.16	15160	0.18184	0.2417	0.01
338.16	15160	0.25378	0.3491	0.01
338.16	15160	0.34161	0.4695	0.01
338.16	15160	0.46361	0.6556	0.01
338.16	30330	0.08736	0.1019	0.01
338.16	30330	0.18184	0.2117	0.01
338.16	30330	0.25378	0.3047	0.01
338.16	30330	0.34161	0.4135	0.01
338.16	30330	0.46361	0.5727	0.01
338.16	450	0.08736	0.1321	0.01
338.16	450	0.18184	0.2727	0.01
338.16	450	0.25378	0.3828	0.01
338.16	450	0.34161	0.5283	0.01
338.16	450	0.46361	0.73	0.01
338.16	15160	0.08736	0.1167	0.01
338.16	15160	0.18184	0.2433	0.01
338.16	15160	0.25378	0.3489	0.01
338.16	15160	0.34161	0.4732	0.01
338.16	15160	0.46361	0.6565	0.01
338.16	30330	0.08736	0.1024	0.01
338.16	30330	0.18184	0.209	0.01
338.16	30330	0.25378	0.3045	0.01
338.16	30330	0.34161	0.412	0.01
338.16	30330	0.46361	0.5773	0.01
338.16	15160	0.08736	0.115	0.01
338.16	15160	0.18184	0.2406	0.01
338.16	15160	0.34161	0.4733	0.01
338.16	15160	0.46361	0.6565	0.01
338.16	30330	0.08736	0.1038	0.01
338.16	30330	0.18184	0.2139	0.01
338.16	30330	0.25378	0.3023	0.01
338.16	30330	0.34161	0.4124	0.01
338.16	30330	0.46361	0.5766	0.01
373.13	15140	0.08736	0.0712	0.01
373.13	15140	0.18184	0.1505	0.01
373.13	15140	0.25378	0.2116	0.01
373.13	15140	0.34161	0.2803	0.01
373.13	15140	0.46361	0.3957	0.01
373.13	30120	0.08736	0.0691	0.01
373.13	30120	0.18184	0.145	0.01
373.13	30120	0.25378	0.1994	0.01
373.13	30120	0.34161	0.2696	0.01
373.13	30120	0.46361	0.377	0.01
373.13	15140	0.08736	0.0731	0.01
373.13	15140	0.18184	0.15	0.01
373.13	15140	0.25378	0.2124	0.01
373.13	15140	0.34161	0.2817	0.01
373.13	15140	0.46361	0.3967	0.01
373.13	30120	0.08736	0.0681	0.01
373.13	30120	0.18184	0.1439	0.01
373.13	30120	0.25378	0.2027	0.01
373.13	30120	0.34161	0.2684	0.01
373.13	30120	0.46361	0.3755	0.01
373.13	15140	0.08736	0.0722	0.01
373.13	15140	0.18184	0.1528	0.01
373.13	15140	0.25378	0.2138	0.01
373.13	15140	0.46361	0.3967	0.01
373.13	30120	0.08736	0.0696	0.01
373.13	30120	0.18184	0.1422	0.01
373.13	30120	0.25378	0.2012	0.01
373.13	30120	0.34161	0.2695	0.01
373.13	30120	0.46361	0.3761	0.01
373.15	2010	0.08736	0.0796	0.01
373.15	2010	0.18184	0.1603	0.01
373.15	2010	0.25378	0.2245	0.01
373.15	2010	0.34161	0.2981	0.01
373.15	2010	0.46361	0.4129	0.01
373.15	2010	0.08736	0.0789	0.01
373.15	2010	0.18184	0.1597	0.01
373.15	2010	0.25378	0.2259	0.01
373.15	2010	0.34161	0.299	0.01
373.15	2010	0.46361	0.4132	0.01
373.15	2010	0.08736	0.0785	0.01
373.15	2010	0.18184	0.1595	0.01
373.15	2010	0.25378	0.2244	0.01
373.15	2010	0.34161	0.2995	0.01
373.15	2010	0.46361	0.4128	0.01
408.15	29980	0.08232	0.0248	0.01
408.15	29980	0.17755	0.0521	0.01
408.15	29980	0.2407	0.0736	0.01
408.15	29980	0.33163	0.1005	0.01
408.15	29980	0.4252	0.1259	0.01
408.15	29980	0.08232	0.023	0.01
408.15	29980	0.17755	0.0524	0.01
408.15	29980	0.2407	0.0737	0.01
408.15	29980	0.33163	0.1015	0.01
408.15	29980	0.4252	0.1272	0.01
408.15	29980	0.08232	0.0251	0.01
408.15	29980	0.17755	0.0533	0.01
408.15	29980	0.2407	0.0717	0.01
408.15	29980	0.33163	0.1003	0.01
408.15	29980	0.4252	0.1275	0.01
408.16	1860	0.08232	0.0136	0.01
408.16	1860	0.17755	0.0284	0.01
408.16	1860	0.2407	0.0423	0.01
408.16	1860	0.33163	0.0567	0.01
408.16	1860	0.4252	0.0712	0.01
408.16	14990	0.08232	0.0189	0.01
408.16	14990	0.17755	0.0369	0.01
408.16	14990	0.2407	0.0659	0.01
408.16	14990	0.33163	0.0865	0.01
408.16	14990	0.4252	0.1004	0.01
408.16	1860	0.08232	0.0093	0.01
408.16	1860	0.17755	0.028	0.01
408.16	1860	0.2407	0.042	0.01
408.16	1860	0.33163	0.0566	0.01
408.16	1860	0.4252	0.0679	0.01
408.16	14990	0.08232	0.0183	0.01
408.16	14990	0.17755	0.0387	0.01
408.16	14990	0.2407	0.0611	0.01
408.16	14990	0.33163	0.084	0.01
408.16	14990	0.4252	0.1022	0.01
408.16	1860	0.08232	0.0091	0.01
408.16	1860	0.17755	0.0265	0.01
408.16	1860	0.2407	0.0441	0.01
408.16	1860	0.33163	0.0568	0.01
408.16	1860	0.4252	0.0722	0.01
408.16	14990	0.08232	0.02	0.01
408.16	14990	0.17755	0.0422	0.01
408.16	14990	0.2407	0.0629	0.01
408.16	14990	0.33163	0.0846	0.01
408.16	14990	0.4252	0.1009	0.01
442.04	1860	0.08232	-0.0385	0.01
442.04	1860	0.17755	-0.0826	0.01
442.04	1860	0.2407	-0.1086	0.01
442.04	1860	0.33163	-0.1502	0.01
442.04	1860	0.4252	-0.1952	0.01
442.04	15700	0.08232	-0.0187	0.01
442.04	15700	0.17755	-0.0448	0.01
442.04	15700	0.2407	-0.061	0.01
442.04	15700	0.33163	-0.0833	0.01
442.04	15700	0.4252	-0.1108	0.01
442.04	1860	0.08232	-0.0372	0.01
442.04	1860	0.17755	-0.0819	0.01
442.04	1860	0.2407	-0.1084	0.01
442.04	1860	0.33163	-0.1502	0.01
442.04	1860	0.4252	-0.1948	0.01
442.04	15700	0.08232	-0.0205	0.01
442.04	15700	0.17755	-0.0453	0.01
442.04	15700	0.2407	-0.0617	0.01
442.04	15700	0.33163	-0.0825	0.01
442.04	15700	0.4252	-0.1101	0.01
442.04	1860	0.08232	-0.0355	0.01
442.04	1860	0.17755	-0.0817	0.01
442.04	1860	0.2407	-0.1089	0.01
442.04	1860	0.33163	-0.1494	0.01
442.04	1860	0.4252	-0.196	0.01
442.04	15700	0.08232	-0.0196	0.01
442.04	15700	0.17755	-0.0464	0.01
442.04	15700	0.2407	-0.0601	0.01
442.04	15700	0.33163	-0.0848	0.01
442.04	15700	0.4252	-0.1105	0.01
442.13	29830	0.08232	-0.0114	0.01
442.13	29830	0.17755	-0.022	0.01
442.13	29830	0.2407	-0.0283	0.01
442.13	29830	0.33163	-0.0397	0.01
442.13	29830	0.4252	-0.0497	0.01
442.13	29830	0.08232	-0.0135	0.01
442.13	29830	0.17755	-0.0222	0.01
442.13	29830	0.33163	-0.041	0.01
442.13	29830	0.4252	-0.0521	0.01
442.13	29830	0.08232	-0.0125	0.01
442.13	29830	0.33163	-0.0404	0.01
442.13	29830	0.4252	-0.0495	0.01
442.13	29830	0.08232	-0.0133	0.01
473.15	1960	0.08232	-0.0868	0.01
473.15	1960	0.17755	-0.1826	0.01
473.15	1960	0.33163	-0.3365	0.01
473.15	1960	0.4252	-0.4229	0.01
473.15	15740	0.08232	-0.0591	0.01
473.15	15740	0.17755	-0.1241	0.01
473.15	15740	0.2407	-0.1635	0.01
473.15	15740	0.33163	-0.2257	0.01
473.15	15740	0.4252	-0.2839	0.01
473.15	1960	0.08232	-0.0856	0.01
473.15	1960	0.17755	-0.1872	0.01
473.15	1960	0.33163	-0.3356	0.01
473.15	1960	0.4252	-0.4245	0.01
473.15	15740	0.17755	-0.1248	0.01
473.15	15740	0.2407	-0.1639	0.01
473.15	15740	0.33163	-0.2313	0.01
473.15	15740	0.4252	-0.289	0.01
473.15	1960	0.08232	-0.0874	0.01
473.15	1960	0.17755	-0.1811	0.01
473.15	1960	0.33163	-0.3356	0.01
473.15	1960	0.4252	-0.423	0.01
473.15	15740	0.17755	-0.1212	0.01
473.15	15740	0.2407	-0.165	0.01
473.15	15740	0.33163	-0.2246	0.01
473.15	15740	0.4252	-0.2852	0.01
473.16	30300	0.08163	-0.0337	0.01
473.16	30300	0.13696	-0.0592	0.01
473.16	30300	0.30165	-0.1242	0.01
473.16	30300	0.37839	-0.1574	0.01
473.16	30300	0.08163	-0.0351	0.01
473.16	30300	0.13696	-0.0578	0.01
473.16	30300	0.30165	-0.1261	0.01
473.16	30300	0.37839	-0.1548	0.01
473.16	30300	0.08163	-0.0339	0.01
473.16	30300	0.13696	-0.0606	0.01
473.16	30300	0.30165	-0.1257	0.01
473.16	30300	0.37839	-0.1557	0.01
495.15	30170	0.08163	-0.0476	0.01
495.15	30170	0.13696	-0.0859	0.01
495.15	30170	0.22408	-0.1342	0.01
495.15	30170	0.30165	-0.177	0.01
495.15	30170	0.37839	-0.2207	0.01
495.15	30170	0.08163	-0.0484	0.01
495.15	30170	0.13696	-0.0865	0.01
495.15	30170	0.22408	-0.1315	0.01
495.15	30170	0.30165	-0.1799	0.01
495.15	30170	0.37839	-0.2146	0.01
495.15	30170	0.08163	-0.0484	0.01
495.15	30170	0.13696	-0.0846	0.01
495.15	30170	0.22408	-0.1354	0.01
495.15	30170	0.30165	-0.1785	0.01
495.15	30170	0.37839	-0.2231	0.01
498.16	2990	0.08163	-0.1202	0.01
498.16	2990	0.13696	-0.202	0.01
498.16	2990	0.22408	-0.3149	0.01
498.16	2990	0.30165	-0.4234	0.01
498.16	2990	0.37839	-0.5253	0.01
498.16	15930	0.08163	-0.0796	0.01
498.16	15930	0.13696	-0.1368	0.01
498.16	15930	0.22408	-0.2136	0.01
498.16	15930	0.30165	-0.2854	0.01
498.16	15930	0.37839	-0.3553	0.01
498.16	2990	0.08163	-0.1201	0.01
498.16	2990	0.13696	-0.1994	0.01
498.16	2990	0.22408	-0.3145	0.01
498.16	2990	0.30165	-0.4232	0.01
498.16	2990	0.37839	-0.5239	0.01
498.16	15930	0.08163	-0.0794	0.01
498.16	15930	0.13696	-0.1356	0.01
498.16	15930	0.22408	-0.213	0.01
498.16	15930	0.30165	-0.2867	0.01
498.16	15930	0.37839	-0.3547	0.01
498.16	2990	0.08163	-0.1192	0.01
498.16	2990	0.13696	-0.1969	0.01
498.16	2990	0.22408	-0.3166	0.01
498.16	2990	0.30165	-0.4228	0.01
498.16	2990	0.37839	-0.5245	0.01
498.16	15930	0.08163	-0.0784	0.01
498.16	15930	0.13696	-0.1339	0.01
498.16	15930	0.22408	-0.2127	0.01
498.16	15930	0.30165	-0.2865	0.01
498.16	15930	0.37839	-0.3552	0.01
523.16	5010	0.08163	-0.1485	0.01
523.16	5010	0.13696	-0.2529	0.01
523.16	5010	0.22408	-0.3919	0.01
523.16	5010	0.30165	-0.5228	0.01
523.16	5010	0.37839	-0.648	0.01
523.16	16190	0.08163	-0.1	0.01
523.16	16190	0.13696	-0.1719	0.01
523.16	16190	0.22408	-0.266	0.01
523.16	16190	0.30165	-0.3543	0.01
523.16	16190	0.37839	-0.4392	0.01
523.16	5010	0.08163	-0.1483	0.01
523.16	5010	0.13696	-0.2508	0.01
523.16	5010	0.30165	-0.5223	0.01
523.16	5010	0.37839	-0.6464	0.01
523.16	16190	0.08163	-0.0979	0.01
523.16	16190	0.13696	-0.1715	0.01
523.16	16190	0.22408	-0.2654	0.01
523.16	16190	0.30165	-0.3551	0.01
523.16	16190	0.37839	-0.4393	0.01
523.16	5010	0.30165	-0.5226	0.01
523.16	5010	0.37839	-0.6467	0.01
523.17	30240	0.08163	-0.0594	0.01
523.17	30240	0.13696	-0.101	0.01
523.17	30240	0.22408	-0.1609	0.01
523.17	30240	0.30165	-0.2098	0.01
523.17	30240	0.37839	-0.2579	0.01
523.17	30240	0.08163	-0.061	0.01
523.17	30240	0.13696	-0.1008	0.01
523.17	30240	0.22408	-0.1614	0.01
523.17	30240	0.30165	-0.2079	0.01
523.17	30240	0.37839	-0.2577	0.01
523.17	30240	0.08163	-0.059	0.01
523.17	30240	0.13696	-0.0993	0.01
523.17	30240	0.30165	-0.208	0.01
523.17	30240	0.37839	-0.2549	0.01
548.15	7370	0.08163	-0.1754	0.01
548.15	7370	0.13696	-0.2894	0.01
548.15	7370	0.22408	-0.4631	0.01
548.15	7370	0.30165	-0.6152	0.01
548.15	7370	0.37839	-0.7588	0.01
548.15	7370	0.08163	-0.1731	0.01
548.15	7370	0.13696	-0.2915	0.01
548.15	7370	0.22408	-0.4619	0.01
548.15	7370	0.30165	-0.614	0.01
548.15	7370	0.37839	-0.7577	0.01
548.15	7370	0.08163	-0.1745	0.01
548.15	7370	0.13696	-0.2914	0.01
548.15	7370	0.22408	-0.4623	0.01
548.15	7370	0.30165	-0.614	0.01
548.15	7370	0.37839	-0.7577	0.01
548.15	7370	0.08163	-0.1762	0.01
548.15	7370	0.08163	-0.1745	0.01
548.15	7370	0.08163	-0.1748	0.01
548.18	18060	0.08163	-0.1123	0.01
548.18	18060	0.13696	-0.1887	0.01
548.18	18060	0.22408	-0.2953	0.01
548.18	18060	0.30165	-0.396	0.01
548.18	18060	0.37839	-0.4813	0.01
548.18	30440	0.08163	-0.0621	0.01
548.18	30440	0.13696	-0.108	0.01
548.18	30440	0.22408	-0.1687	0.01
548.18	30440	0.30165	-0.2215	0.01
548.18	30440	0.37839	-0.2657	0.01
548.18	18060	0.08163	-0.1093	0.01
548.18	18060	0.13696	-0.1883	0.01
548.18	18060	0.22408	-0.2972	0.01
548.18	18060	0.30165	-0.393	0.01
548.18	18060	0.37839	-0.4815	0.01
548.18	30440	0.08163	-0.063	0.01
548.18	30440	0.13696	-0.109	0.01
548.18	30440	0.22408	-0.1698	0.01
548.18	30440	0.30165	-0.2229	0.01
548.18	30440	0.37839	-0.2644	0.01
548.18	18060	0.37839	-0.4919	0.01
548.18	30440	0.13696	-0.1082	0.01
548.18	30440	0.22408	-0.1682	0.01
548.18	30440	0.30165	-0.2228	0.01
548.18	30440	0.37839	-0.2667	0.01
573.14	30410	0.07802	-0.0653	0.02
573.14	30410	0.17831	-0.1446	0.02
573.14	30410	0.25888	-0.2176	0.02
573.14	30410	0.35934	-0.2993	0.02
573.14	30410	0.45258	-0.3534	0.02
573.14	30410	0.07802	-0.0619	0.02
573.14	30410	0.17831	-0.1466	0.02
573.14	30410	0.25888	-0.2102	0.02
573.14	30410	0.35934	-0.2989	0.02
573.14	30410	0.45258	-0.3574	0.02
573.14	30410	0.07802	-0.0624	0.02
573.14	30410	0.17831	-0.1452	0.02
573.14	30410	0.35934	-0.2992	0.02
573.14	30410	0.45258	-0.3557	0.02
573.18	10110	0.08163	-0.2053	0.02
573.18	10110	0.13696	-0.3382	0.02
573.18	10110	0.22408	-0.5441	0.02
573.18	10110	0.30165	-0.7292	0.02
573.18	10110	0.37839	-0.8874	0.02
573.18	10110	0.08163	-0.2018	0.02
573.18	10110	0.13696	-0.3347	0.02
573.18	10110	0.22408	-0.5484	0.02
573.18	10110	0.30165	-0.7359	0.02
573.18	10110	0.08163	-0.2055	0.02
573.18	10110	0.13696	-0.3411	0.02
573.18	10110	0.22408	-0.5324	0.02
573.18	10110	0.30165	-0.714	0.02
573.19	19980	0.07802	-0.1135	0.02
573.19	19980	0.17831	-0.2573	0.02
573.19	19980	0.25888	-0.3763	0.02
573.19	19980	0.35934	-0.5202	0.02
573.19	19980	0.45258	-0.6409	0.02
573.19	19980	0.07802	-0.1172	0.02
573.19	19980	0.17831	-0.2587	0.02
573.19	19980	0.25888	-0.3793	0.02
573.19	19980	0.35934	-0.5192	0.02
573.19	19980	0.45258	-0.6409	0.02

System: 2,3-butanediol + water; phases: Liquid
Property: Mass density, kg/m3 (Liquid); method: VIBTUB:UFactor:0.5
Temperature, K	Pressure, kPa	Molality, mol/kg of 2,3-butanediol	Mass density, kg/m3	uncertainty
298.2	640	0.08371	0.318	0.01
298.2	640	0.16757	0.6386	0.01
298.2	640	0.24456	0.9484	0.01
298.2	640	0.33221	1.3058	0.01
298.2	640	0.43398	1.7236	0.01
298.2	640	0.08371	0.3178	0.01
298.2	640	0.16757	0.6387	0.01
298.2	640	0.24456	0.9481	0.01
298.2	640	0.33221	1.307	0.01
298.2	640	0.43398	1.7229	0.01
298.2	640	0.08371	0.3176	0.01
298.2	640	0.16757	0.6392	0.01
298.2	640	0.24456	0.9522	0.01
298.2	640	0.33221	1.3068	0.01
298.2	640	0.43398	1.7229	0.01
298.27	15140	0.08371	0.2705	0.01
298.27	15140	0.16757	0.5617	0.01
298.27	15140	0.24456	0.8246	0.01
298.27	15140	0.33221	1.1403	0.01
298.27	15140	0.43398	1.5147	0.01
298.27	15140	0.08371	0.2706	0.01
298.27	15140	0.16757	0.562	0.01
298.27	15140	0.24456	0.8243	0.01
298.27	15140	0.33221	1.1405	0.01
298.27	15140	0.43398	1.5156	0.01
298.27	15140	0.08371	0.2711	0.01
298.27	15140	0.16757	0.5609	0.01
298.27	15140	0.24456	0.8254	0.01
298.27	15140	0.33221	1.1401	0.01
298.27	15140	0.43398	1.5149	0.01
298.28	29730	0.08371	0.2323	0.01
298.28	29730	0.16757	0.4793	0.01
298.28	29730	0.24456	0.7062	0.01
298.28	29730	0.33221	0.9825	0.01
298.28	29730	0.43398	1.3107	0.01
298.28	29730	0.08371	0.2319	0.01
298.28	29730	0.16757	0.4799	0.01
298.28	29730	0.24456	0.7084	0.01
298.28	29730	0.33221	0.9825	0.01
298.28	29730	0.43398	1.3083	0.01
298.28	29730	0.08371	0.2306	0.01
298.28	29730	0.16757	0.48	0.01
298.28	29730	0.24456	0.7086	0.01
298.28	29730	0.33221	0.9827	0.01
298.28	29730	0.43398	1.3061	0.01
318.17	490	0.08257	0.27	0.01
318.17	490	0.16772	0.5581	0.01
318.17	490	0.25394	0.852	0.01
318.17	490	0.37586	1.2664	0.01
318.17	14780	0.08257	0.248	0.01
318.17	14780	0.16772	0.5029	0.01
318.17	14780	0.25394	0.7738	0.01
318.17	14780	0.37586	1.1522	0.01
318.17	14780	0.49313	1.5308	0.01
318.17	30170	0.08257	0.2183	0.01
318.17	30170	0.16772	0.4518	0.01
318.17	30170	0.25394	0.6976	0.01
318.17	30170	0.37586	1.0308	0.01
318.17	30170	0.49313	1.3682	0.01
318.17	490	0.08257	0.2698	0.01
318.17	490	0.16772	0.5591	0.01
318.17	490	0.25394	0.8502	0.01
318.17	490	0.37586	1.2694	0.01
318.17	14780	0.08257	0.2467	0.01
318.17	14780	0.16772	0.5029	0.01
318.17	14780	0.25394	0.7741	0.01
318.17	14780	0.37586	1.1524	0.01
318.17	14780	0.49313	1.532	0.01
318.17	30170	0.08257	0.2194	0.01
318.17	30170	0.25394	0.7017	0.01
318.17	30170	0.37586	1.0335	0.01
318.17	30170	0.49313	1.3714	0.01
318.17	490	0.08257	0.2728	0.01
318.17	490	0.16772	0.5587	0.01
318.17	490	0.25394	0.8536	0.01
318.17	490	0.37586	1.2745	0.01
318.17	14780	0.08257	0.2467	0.01
318.17	14780	0.16772	0.5025	0.01
318.17	14780	0.25394	0.7746	0.01
318.17	14780	0.37586	1.1529	0.01
318.17	14780	0.49313	1.5324	0.01
318.17	490	0.08257	0.2721	0.01
318.17	490	0.16772	0.5618	0.01
318.17	490	0.25394	0.8524	0.01
318.17	490	0.37586	1.2672	0.01
318.17	490	0.08257	0.2754	0.01
318.17	490	0.16772	0.5597	0.01
318.17	490	0.25394	0.8523	0.01
318.17	490	0.37586	1.2678	0.01
318.17	490	0.08257	0.2711	0.01
338.16	440	0.08257	0.2293	0.01
338.16	440	0.16772	0.4541	0.01
338.16	440	0.25394	0.7058	0.01
338.16	440	0.37586	1.0376	0.01
338.16	440	0.49313	1.3735	0.01
338.16	15120	0.08257	0.2094	0.01
338.16	15120	0.16772	0.4291	0.01
338.16	15120	0.25394	0.661	0.01
338.16	15120	0.37586	0.9737	0.01
338.16	15120	0.49313	1.2772	0.01
338.16	30300	0.08257	0.1941	0.01
338.16	30300	0.16772	0.3611	0.01
338.16	30300	0.25394	0.6128	0.01
338.16	30300	0.37586	0.8891	0.01
338.16	30300	0.47897	1.1783	0.01
338.16	440	0.08257	0.2253	0.01
338.16	440	0.16772	0.4574	0.01
338.16	440	0.25394	0.7121	0.01
338.16	440	0.37586	1.0367	0.01
338.16	440	0.49313	1.3737	0.01
338.16	15120	0.08257	0.2117	0.01
338.16	15120	0.16772	0.4304	0.01
338.16	15120	0.25394	0.6693	0.01
338.16	15120	0.37586	0.9751	0.01
338.16	15120	0.49313	1.277	0.01
338.16	30300	0.08257	0.1931	0.01
338.16	30300	0.16772	0.3694	0.01
338.16	30300	0.25394	0.6113	0.01
338.16	30300	0.37586	0.8878	0.01
338.16	30300	0.47897	1.179	0.01
338.16	15120	0.08257	0.2127	0.01
338.16	30300	0.08257	0.1943	0.01
373.13	15160	0.08524	0.1338	0.01
373.13	15160	0.16772	0.274	0.01
373.13	15160	0.25394	0.4221	0.01
373.13	15160	0.37586	0.612	0.01
373.13	15160	0.49313	0.8035	0.01
373.13	29990	0.07872	0.1258	0.01
373.13	29990	0.17829	0.2864	0.01
373.13	29990	0.25919	0.4155	0.01
373.13	29990	0.34971	0.5553	0.01
373.13	29990	0.44496	0.6881	0.01
373.13	15160	0.08524	0.1388	0.01
373.13	15160	0.25394	0.4211	0.01
373.13	15160	0.37586	0.6117	0.01
373.13	15160	0.49313	0.8037	0.01
373.13	29990	0.07872	0.1264	0.01
373.13	29990	0.17829	0.2876	0.01
373.13	29990	0.25919	0.4139	0.01
373.13	29990	0.34971	0.556	0.01
373.13	29990	0.44496	0.6846	0.01
373.13	15160	0.08524	0.1392	0.01
373.13	15160	0.25394	0.4232	0.01
373.13	15160	0.49313	0.8035	0.01
373.13	29990	0.07872	0.1284	0.01
373.13	29990	0.17829	0.289	0.01
373.13	29990	0.25919	0.4171	0.01
373.13	29990	0.34971	0.5566	0.01
373.13	29990	0.44496	0.6851	0.01
373.15	1880	0.08257	0.1459	0.01
373.15	1880	0.16772	0.2907	0.01
373.15	1880	0.25394	0.4426	0.01
373.15	1880	0.37586	0.6318	0.01
373.15	1880	0.49313	0.819	0.01
373.15	1880	0.08257	0.1459	0.01
373.15	1880	0.16772	0.2908	0.01
373.15	1880	0.25394	0.4425	0.01
373.15	1880	0.37586	0.6311	0.01
373.15	1880	0.49313	0.8192	0.01
373.15	1880	0.08257	0.146	0.01
373.15	1880	0.16772	0.2894	0.01
373.15	1880	0.25394	0.4415	0.01
373.15	1880	0.37586	0.6295	0.01
373.15	1880	0.49313	0.8189	0.01
408.15	14940	0.07872	0.0585	0.01
408.15	14940	0.17829	0.1135	0.01
408.15	14940	0.25919	0.1751	0.01
408.15	14940	0.34971	0.2366	0.01
408.15	14940	0.44496	0.2919	0.01
408.15	30010	0.07872	0.0623	0.01
408.15	30010	0.17829	0.136	0.01
408.15	30010	0.25919	0.1951	0.01
408.15	30010	0.34971	0.2627	0.01
408.15	30010	0.44496	0.3281	0.01
408.15	14940	0.07872	0.0531	0.01
408.15	14940	0.17829	0.125	0.01
408.15	14940	0.25919	0.166	0.01
408.15	14940	0.34971	0.2367	0.01
408.15	14940	0.44496	0.2947	0.01
408.15	30010	0.07872	0.063	0.01
408.15	30010	0.17829	0.1366	0.01
408.15	30010	0.25919	0.1955	0.01
408.15	30010	0.34971	0.262	0.01
408.15	30010	0.44496	0.3265	0.01
408.15	14940	0.07872	0.0535	0.01
408.15	14940	0.17829	0.125	0.01
408.15	14940	0.25919	0.1719	0.01
408.15	14940	0.34971	0.2345	0.01
408.15	14940	0.44496	0.2939	0.01
408.15	30010	0.07872	0.0621	0.01
408.15	30010	0.17829	0.1359	0.01
408.15	30010	0.25919	0.1949	0.01
408.15	30010	0.34971	0.2622	0.01
408.15	30010	0.44496	0.3257	0.01
408.16	1830	0.07872	0.0463	0.01
408.16	1830	0.17829	0.1057	0.01
408.16	1830	0.25919	0.146	0.01
408.16	1830	0.34971	0.1962	0.01
408.16	1830	0.44496	0.2454	0.01
408.16	1830	0.07872	0.0474	0.01
408.16	1830	0.17829	0.1054	0.01
408.16	1830	0.25919	0.1451	0.01
408.16	1830	0.34971	0.1956	0.01
408.16	1830	0.44496	0.2423	0.01
408.16	1830	0.07872	0.0472	0.01
408.16	1830	0.17829	0.1055	0.01
408.16	1830	0.25919	0.1459	0.01
408.16	1830	0.34971	0.1951	0.01
442.04	1880	0.07872	-0.0358	0.01
442.04	1880	0.17829	-0.0847	0.01
442.04	1880	0.25919	-0.1215	0.01
442.04	1880	0.34971	-0.1706	0.01
442.04	1880	0.44496	-0.218	0.01
442.04	15690	0.07872	-0.0147	0.01
442.04	15690	0.17829	-0.0378	0.01
442.04	15690	0.25919	-0.054	0.01
442.04	15690	0.34971	-0.0809	0.01
442.04	15690	0.44496	-0.1026	0.01
442.04	1880	0.07872	-0.0358	0.01
442.04	1880	0.17829	-0.0861	0.01
442.04	1880	0.25919	-0.121	0.01
442.04	1880	0.34971	-0.1708	0.01
442.04	1880	0.44496	-0.2168	0.01
442.04	15690	0.07872	-0.0127	0.01
442.04	15690	0.17829	-0.0383	0.01
442.04	15690	0.25919	-0.0538	0.01
442.04	15690	0.34971	-0.0818	0.01
442.04	15690	0.44496	-0.1031	0.01
442.04	1880	0.07872	-0.0366	0.01
442.04	1880	0.17829	-0.0858	0.01
442.04	1880	0.25919	-0.1198	0.01
442.04	1880	0.34971	-0.1716	0.01
442.04	1880	0.44496	-0.2176	0.01
442.04	15690	0.07872	-0.014	0.01
442.04	15690	0.17829	-0.0383	0.01
442.04	15690	0.25919	-0.0526	0.01
442.04	15690	0.34971	-0.0802	0.01
442.04	15690	0.44496	-0.1044	0.01
442.09	29800	0.07872	-0.0019	0.01
442.09	29800	0.17829	0.0031	0.01
442.09	29800	0.25919	-0.006	0.01
442.09	29800	0.34971	-0.0139	0.01
442.09	29800	0.44496	-0.0168	0.01
442.09	29800	0.07872	-0.0011	0.01
442.09	29800	0.17829	-0.0056	0.01
442.09	29800	0.25919	-0.0059	0.01
442.09	29800	0.34971	-0.0144	0.01
442.09	29800	0.44496	-0.0174	0.01
442.09	29800	0.17829	-0.0025	0.01
442.09	29800	0.25919	-0.0063	0.01
442.09	29800	0.34971	-0.0135	0.01
442.09	29800	0.44496	-0.0167	0.01
473.15	1940	0.09457	-0.1362	0.01
473.15	1940	0.1767	-0.2512	0.01
473.15	1940	0.28439	-0.4313	0.01
473.15	1940	0.4246	-0.6134	0.01
473.15	1940	0.50717	-0.7343	0.01
473.15	30280	0.09457	-0.0615	0.01
473.15	30280	0.1767	-0.1184	0.01
473.15	30280	0.28439	-0.1909	0.01
473.15	30280	0.4246	-0.2824	0.01
473.15	30280	0.50717	-0.3374	0.01
473.15	1940	0.09457	-0.1389	0.01
473.15	1940	0.1767	-0.2511	0.01
473.15	1940	0.28439	-0.4322	0.01
473.15	1940	0.4246	-0.6157	0.01
473.15	1940	0.50717	-0.7365	0.01
473.15	30280	0.09457	-0.0578	0.01
473.15	30280	0.1767	-0.1181	0.01
473.15	30280	0.28439	-0.1881	0.01
473.15	30280	0.4246	-0.283	0.01
473.15	30280	0.50717	-0.3362	0.01
473.15	1940	0.09457	-0.1364	0.01
473.15	1940	0.1767	-0.2515	0.01
473.15	1940	0.4246	-0.6153	0.01
473.15	30280	0.09457	-0.06	0.01
473.15	30280	0.1767	-0.1161	0.01
473.15	30280	0.4246	-0.2833	0.01
473.15	30280	0.50717	-0.3384	0.01
473.16	15710	0.09457	-0.0961	0.01
473.16	15710	0.1767	-0.177	0.01
473.16	15710	0.28439	-0.3014	0.01
473.16	15710	0.4246	-0.4324	0.01
473.16	15710	0.50717	-0.5154	0.01
473.16	15710	0.09457	-0.0957	0.01
473.16	15710	0.1767	-0.1751	0.01
473.16	15710	0.28439	-0.2973	0.01
473.16	15710	0.4246	-0.4334	0.01
473.16	15710	0.50717	-0.5174	0.01
473.16	15710	0.09457	-0.0944	0.01
473.16	15710	0.1767	-0.1778	0.01
473.16	15710	0.4246	-0.4306	0.01
473.16	15710	0.50717	-0.516	0.01
498.15	30140	0.09457	-0.1074	0.01
498.15	30140	0.1767	-0.2008	0.01
498.15	30140	0.28439	-0.3213	0.01
498.15	30140	0.4246	-0.4796	0.01
498.15	30140	0.50717	-0.5701	0.01
498.15	30140	0.09457	-0.1049	0.01
498.15	30140	0.1767	-0.1978	0.01
498.15	30140	0.28439	-0.3208	0.01
498.15	30140	0.4246	-0.479	0.01
498.15	30140	0.50717	-0.572	0.01
498.15	30140	0.09457	-0.1024	0.01
498.15	30140	0.1767	-0.198	0.01
498.15	30140	0.28439	-0.3207	0.01
498.15	30140	0.4246	-0.48	0.01
498.15	30140	0.50717	-0.5706	0.01
498.16	2970	0.09457	-0.2109	0.01
498.16	2970	0.1767	-0.3904	0.01
498.16	2970	0.4246	-0.9327	0.01
498.16	2970	0.50717	-1.1129	0.01
498.16	16010	0.09457	-0.1517	0.01
498.16	16010	0.1767	-0.2847	0.01
498.16	16010	0.28439	-0.4584	0.01
498.16	16010	0.4246	-0.6801	0.01
498.16	16010	0.50717	-0.8118	0.01
498.16	2970	0.09457	-0.2092	0.01
498.16	2970	0.1767	-0.3907	0.01
498.16	2970	0.4246	-0.9324	0.01
498.16	2970	0.50717	-1.1123	0.01
498.16	16010	0.09457	-0.1506	0.01
498.16	16010	0.1767	-0.284	0.01
498.16	16010	0.28439	-0.4588	0.01
498.16	16010	0.4246	-0.68	0.01
498.16	16010	0.50717	-0.8106	0.01
498.16	2970	0.09457	-0.21	0.01
498.16	2970	0.1767	-0.3905	0.01
498.16	2970	0.4246	-0.9329	0.01
498.16	2970	0.50717	-1.1128	0.01
498.16	16010	0.09457	-0.1509	0.01
498.16	16010	0.1767	-0.2823	0.01
498.16	16010	0.28439	-0.4574	0.01
498.16	16010	0.4246	-0.6782	0.01
498.16	16010	0.50717	-0.8132	0.01
523.16	5010	0.1767	-0.5357	0.01
523.16	5010	0.28439	-0.8505	0.01
523.16	5010	0.4246	-1.2649	0.01
523.16	5010	0.50717	-1.4983	0.01
523.16	16170	0.09457	-0.2149	0.01
523.16	16170	0.1767	-0.3984	0.01
523.16	16170	0.28439	-0.6375	0.01
523.16	16170	0.4246	-0.9469	0.01
523.16	16170	0.50717	-1.1235	0.01
523.16	30320	0.09457	-0.1516	0.01
523.16	30320	0.1767	-0.2827	0.01
523.16	30320	0.28439	-0.4481	0.01
523.16	30320	0.4246	-0.6651	0.01
523.16	30320	0.50717	-0.7864	0.01
523.16	5010	0.1767	-0.5361	0.01
523.16	5010	0.28439	-0.8512	0.01
523.16	5010	0.4246	-1.263	0.01
523.16	5010	0.50717	-1.4966	0.01
523.16	16170	0.09457	-0.2146	0.01
523.16	16170	0.1767	-0.3986	0.01
523.16	16170	0.28439	-0.6369	0.01
523.16	16170	0.4246	-0.946	0.01
523.16	16170	0.50717	-1.1217	0.01
523.16	30320	0.09457	-0.1483	0.01
523.16	30320	0.1767	-0.2828	0.01
523.16	30320	0.28439	-0.446	0.01
523.16	30320	0.4246	-0.6673	0.01
523.16	30320	0.50717	-0.7841	0.01
523.16	5010	0.1767	-0.535	0.01
523.16	5010	0.4246	-1.2625	0.01
523.16	5010	0.50717	-1.4967	0.01
523.16	16170	0.09457	-0.2153	0.01
523.16	30320	0.1767	-0.2798	0.01
523.16	30320	0.28439	-0.447	0.01
523.16	30320	0.4246	-0.6663	0.01
523.16	30320	0.50717	-0.7859	0.01
548.18	7070	0.08623	-0.3558	0.01
548.18	7070	0.17302	-0.7014	0.01
548.18	7070	0.24456	-0.9715	0.01
548.18	7070	0.33221	-1.3138	0.01
548.18	7070	0.43398	-1.7108	0.01
548.18	18050	0.08371	-0.2497	0.01
548.18	18050	0.08623	-0.2628	0.01
548.18	18050	0.16757	-0.4972	0.01
548.18	18050	0.17302	-0.5167	0.01
548.18	18050	0.24456	-0.7097	0.01
548.18	18050	0.33221	-0.959	0.01
548.18	18050	0.43398	-1.2475	0.01
548.18	30090	0.08371	-0.1851	0.01
548.18	30090	0.16757	-0.3668	0.01
548.18	30090	0.24456	-0.5198	0.01
548.18	30090	0.33221	-0.7009	0.01
548.18	30090	0.43398	-0.9106	0.01
548.18	7070	0.08623	-0.3562	0.01
548.18	7070	0.17302	-0.6993	0.01
548.18	7070	0.24456	-0.9728	0.01
548.18	7070	0.33221	-1.315	0.01
548.18	7070	0.43398	-1.71	0.01
548.18	18050	0.08371	-0.2496	0.01
548.18	18050	0.08623	-0.2625	0.01
548.18	18050	0.16757	-0.4971	0.01
548.18	18050	0.17302	-0.5142	0.01
548.18	18050	0.24456	-0.709	0.01
548.18	18050	0.33221	-0.9572	0.01
548.18	18050	0.43398	-1.2439	0.01
548.18	30090	0.08371	-0.185	0.01
548.18	30090	0.16757	-0.3625	0.01
548.18	30090	0.24456	-0.5194	0.01
548.18	30090	0.33221	-0.6985	0.01
548.18	30090	0.43398	-0.9104	0.01
548.18	7070	0.08623	-0.355	0.01
548.18	7070	0.17302	-0.7	0.01
548.18	7070	0.24456	-0.9676	0.01
548.18	7070	0.33221	-1.3132	0.01
548.18	7070	0.43398	-1.7092	0.01
548.18	18050	0.08371	-0.252	0.01
548.18	18050	0.08623	-0.2625	0.01
548.18	18050	0.16757	-0.4955	0.01
548.18	18050	0.17302	-0.5138	0.01
548.18	18050	0.24456	-0.706	0.01
548.18	18050	0.33221	-0.9563	0.01
548.18	18050	0.43398	-1.2429	0.01
573.14	30420	0.08371	-0.2336	0.01
573.14	30420	0.16757	-0.4601	0.01
573.14	30420	0.24456	-0.6549	0.01
573.14	30420	0.33221	-0.8876	0.01
573.14	30420	0.43398	-1.153	0.01
573.14	30420	0.08371	-0.2319	0.01
573.14	30420	0.16757	-0.4651	0.01
573.14	30420	0.24456	-0.6526	0.01
573.14	30420	0.33221	-0.8886	0.01
573.14	30420	0.43398	-1.1543	0.01
573.14	30420	0.08371	-0.2313	0.01
573.14	30420	0.16757	-0.4602	0.01
573.14	30420	0.24456	-0.6528	0.01
573.14	30420	0.33221	-0.8842	0.01
573.14	30420	0.43398	-1.1526	0.01
573.18	10090	0.08371	-0.4532	0.01
573.18	10090	0.16757	-0.8959	0.01
573.18	10090	0.24456	-1.2927	0.01
573.18	10090	0.33221	-1.7461	0.01
573.18	10090	0.43398	-2.2547	0.01
573.18	10090	0.08371	-0.452	0.01
573.18	10090	0.16757	-0.8929	0.01
573.18	10090	0.24456	-1.2929	0.01
573.18	10090	0.33221	-1.7431	0.01
573.18	10090	0.43398	-2.2526	0.01
573.18	10090	0.08371	-0.4491	0.01
573.18	10090	0.16757	-0.8925	0.01
573.18	10090	0.24456	-1.2881	0.01
573.18	10090	0.33221	-1.742	0.01
573.18	10090	0.43398	-2.2476	0.01
573.19	20010	0.08371	-0.3175	0.01
573.19	20010	0.16757	-0.6315	0.01
573.19	20010	0.24456	-0.9111	0.01
573.19	20010	0.33221	-1.2269	0.01
573.19	20010	0.43398	-1.5823	0.01
573.19	20010	0.08371	-0.3138	0.01
573.19	20010	0.16757	-0.6266	0.01
573.19	20010	0.24456	-0.9093	0.01
573.19	20010	0.33221	-1.223	0.01
573.19	20010	0.43398	-1.5786	0.01
573.19	20010	0.08371	-0.3116	0.01
573.19	20010	0.16757	-0.6265	0.01
573.19	20010	0.24456	-0.9081	0.01
573.19	20010	0.33221	-1.2243	0.01
573.19	20010	0.43398	-1.581	0.01

System: 1,4-butanediol + water; phases: Liquid
Property: Mass density, kg/m3 (Liquid); method: VIBTUB:UFactor:0.5
Temperature, K	Pressure, kPa	Molality, mol/kg of 1,4-butanediol	Mass density, kg/m3	uncertainty
298.21	630	0.07443	0.1535	0.01
298.21	630	0.16061	0.3361	0.01
298.21	630	0.25053	0.535	0.01
298.21	630	0.33744	0.7317	0.01
298.21	630	0.43318	0.9617	0.01
298.21	630	0.07443	0.1541	0.01
298.21	630	0.16061	0.3365	0.01
298.21	630	0.25053	0.5358	0.01
298.21	630	0.33744	0.7321	0.01
298.21	630	0.43318	0.9624	0.01
298.21	630	0.07443	0.1538	0.01
298.21	630	0.16061	0.3362	0.01
298.21	630	0.25053	0.5361	0.01
298.21	630	0.33744	0.7314	0.01
298.21	630	0.43318	0.9618	0.01
298.26	15140	0.07443	0.1197	0.01
298.26	15140	0.16061	0.2678	0.01
298.26	15140	0.25053	0.4328	0.01
298.26	15140	0.40255	0.7249	0.01
298.26	15140	0.43318	0.7926	0.01
298.26	15140	0.07443	0.1184	0.01
298.26	15140	0.16061	0.2684	0.01
298.26	15140	0.25053	0.4315	0.01
298.26	15140	0.40255	0.7241	0.01
298.26	15140	0.43318	0.7921	0.01
298.26	15140	0.07443	0.1197	0.01
298.26	15140	0.16061	0.2673	0.01
298.26	15140	0.25053	0.4326	0.01
298.26	15140	0.40255	0.7243	0.01
298.26	15140	0.43318	0.7921	0.01
298.3	29730	0.07443	0.0928	0.01
298.3	29730	0.16061	0.2087	0.01
298.3	29730	0.25053	0.3404	0.01
298.3	29730	0.40255	0.5793	0.01
298.3	29730	0.43318	0.6347	0.01
298.3	29730	0.07443	0.0916	0.01
298.3	29730	0.16061	0.2079	0.01
298.3	29730	0.25053	0.3405	0.01
298.3	29730	0.40255	0.5791	0.01
298.3	29730	0.43318	0.6366	0.01
298.3	29730	0.07443	0.0912	0.01
298.3	29730	0.16061	0.2077	0.01
298.3	29730	0.25053	0.3398	0.01
298.3	29730	0.40255	0.5776	0.01
298.3	29730	0.43318	0.6338	0.01
318.17	490	0.07677	0.1327	0.01
318.17	490	0.17319	0.3083	0.01
318.17	490	0.25145	0.4534	0.01
318.17	490	0.39164	0.7208	0.01
318.17	490	0.489	0.9121	0.01
318.17	14780	0.07677	0.1172	0.01
318.17	14780	0.17319	0.2678	0.01
318.17	14780	0.25145	0.395	0.01
318.17	14780	0.39164	0.6275	0.01
318.17	14780	0.489	0.8006	0.01
318.17	30160	0.07677	0.0921	0.01
318.17	30160	0.17319	0.2198	0.01
318.17	30160	0.25145	0.3275	0.01
318.17	30160	0.39164	0.5262	0.01
318.17	30160	0.489	0.6754	0.01
318.17	490	0.07677	0.1356	0.01
318.17	490	0.17319	0.3075	0.01
318.17	490	0.25145	0.4528	0.01
318.17	490	0.39164	0.7233	0.01
318.17	490	0.489	0.9148	0.01
318.17	14780	0.07677	0.1175	0.01
318.17	14780	0.17319	0.2678	0.01
318.17	14780	0.25145	0.3953	0.01
318.17	14780	0.39164	0.6276	0.01
318.17	14780	0.489	0.801	0.01
318.17	30160	0.07677	0.0923	0.01
318.17	30160	0.17319	0.2205	0.01
318.17	30160	0.25145	0.3275	0.01
318.17	30160	0.39164	0.5284	0.01
318.17	30160	0.489	0.6771	0.01
318.17	490	0.07677	0.133	0.01
318.17	490	0.17319	0.3072	0.01
318.17	490	0.39164	0.7211	0.01
318.17	490	0.489	0.9141	0.01
318.17	14780	0.07677	0.118	0.01
318.17	14780	0.17319	0.268	0.01
318.17	14780	0.25145	0.3951	0.01
318.17	14780	0.39164	0.6281	0.01
318.17	14780	0.489	0.801	0.01
318.17	30160	0.07677	0.0941	0.01
318.17	30160	0.17319	0.2198	0.01
318.17	30160	0.25145	0.326	0.01
318.17	30160	0.39164	0.5252	0.01
318.17	30160	0.489	0.6766	0.01
318.17	490	0.07677	0.1331	0.01
318.17	490	0.17319	0.3073	0.01
318.17	490	0.39164	0.7212	0.01
318.17	490	0.489	0.9133	0.01
318.17	490	0.39164	0.7249	0.01
318.17	490	0.489	0.9116	0.01
318.17	490	0.39164	0.7244	0.01
338.16	450	0.07677	0.1168	0.01
338.16	450	0.17319	0.2564	0.01
338.16	450	0.25145	0.3735	0.01
338.16	450	0.39164	0.5972	0.01
338.16	450	0.489	0.7489	0.01
338.16	15130	0.07677	0.0927	0.01
338.16	15130	0.08524	0.1089	0.01
338.16	15130	0.17319	0.2289	0.01
338.16	15130	0.25145	0.3358	0.01
338.16	15130	0.39164	0.5401	0.01
338.16	15130	0.489	0.6748	0.01
338.16	30300	0.08524	0.091	0.01
338.16	30300	0.17319	0.1983	0.01
338.16	30300	0.25145	0.2926	0.01
338.16	30300	0.39164	0.4745	0.01
338.16	30300	0.489	0.5962	0.01
338.16	450	0.07677	0.1124	0.01
338.16	450	0.17319	0.2582	0.01
338.16	450	0.25145	0.3794	0.01
338.16	450	0.39164	0.598	0.01
338.16	450	0.489	0.7528	0.01
338.16	15130	0.07677	0.0939	0.01
338.16	15130	0.08524	0.1098	0.01
338.16	15130	0.17319	0.2338	0.01
338.16	15130	0.25145	0.3365	0.01
338.16	15130	0.39164	0.5402	0.01
338.16	15130	0.489	0.6753	0.01
338.16	30300	0.08524	0.0893	0.01
338.16	30300	0.17319	0.2013	0.01
338.16	30300	0.25145	0.2932	0.01
338.16	30300	0.39164	0.4741	0.01
338.16	30300	0.489	0.5941	0.01
338.16	450	0.07677	0.109	0.01
338.16	15130	0.07677	0.0935	0.01
338.16	15130	0.17319	0.2302	0.01
338.16	15130	0.25145	0.3364	0.01
338.16	15130	0.39164	0.5403	0.01
338.16	15130	0.489	0.6764	0.01
338.16	30300	0.08524	0.0909	0.01
338.16	30300	0.17319	0.2021	0.01
338.16	30300	0.25145	0.2954	0.01
338.16	30300	0.39164	0.4752	0.01
338.16	30300	0.489	0.5957	0.01
338.16	450	0.07677	0.1043	0.01
338.16	30300	0.08524	0.0909	0.01
338.16	450	0.07677	0.1111	0.01
338.16	30300	0.08524	0.0922	0.01
338.16	450	0.07677	0.105	0.01
373.13	15150	0.08524	0.0791	0.01
373.13	15150	0.1694	0.1594	0.01
373.13	15150	0.248	0.2344	0.01
373.13	15150	0.3701	0.3489	0.01
373.13	15150	0.4554	0.4314	0.01
373.13	30120	0.08524	0.075	0.01
373.13	30120	0.1694	0.1502	0.01
373.13	30120	0.248	0.2206	0.01
373.13	30120	0.3701	0.331	0.01
373.13	30120	0.4554	0.4092	0.01
373.13	15150	0.08524	0.0794	0.01
373.13	15150	0.1694	0.1595	0.01
373.13	15150	0.248	0.2344	0.01
373.13	15150	0.3701	0.3482	0.01
373.13	15150	0.4554	0.4308	0.01
373.13	30120	0.08524	0.0784	0.01
373.13	30120	0.1694	0.1526	0.01
373.13	30120	0.248	0.22	0.01
373.13	30120	0.3701	0.3322	0.01
373.13	30120	0.4554	0.4079	0.01
373.13	15150	0.08524	0.079	0.01
373.13	15150	0.1694	0.1598	0.01
373.13	15150	0.248	0.2338	0.01
373.13	15150	0.3701	0.3488	0.01
373.13	15150	0.4554	0.4315	0.01
373.13	30120	0.08524	0.0766	0.01
373.13	30120	0.1694	0.1508	0.01
373.13	30120	0.248	0.2207	0.01
373.13	30120	0.3701	0.3277	0.01
373.13	30120	0.4554	0.4078	0.01
373.15	1870	0.08524	0.084	0.01
373.15	1870	0.17319	0.1692	0.01
373.15	1870	0.25145	0.2457	0.01
373.15	1870	0.39164	0.3898	0.01
373.15	1870	0.489	0.4816	0.01
373.15	1870	0.08524	0.0795	0.01
373.15	1870	0.17319	0.1698	0.01
373.15	1870	0.25145	0.2464	0.01
373.15	1870	0.39164	0.3902	0.01
373.15	1870	0.489	0.4818	0.01
373.15	1870	0.08524	0.0845	0.01
373.15	1870	0.17319	0.1692	0.01
373.15	1870	0.25145	0.2461	0.01
373.15	1870	0.39164	0.3887	0.01
373.15	1870	0.489	0.4808	0.01
408.16	1830	0.08524	0.0396	0.01
408.16	1830	0.1694	0.0806	0.01
408.16	1830	0.248	0.1214	0.01
408.16	1830	0.33163	0.1814	0.01
408.16	1830	0.4252	0.2246	0.01
408.16	14990	0.08524	0.0475	0.01
408.16	14990	0.1694	0.0911	0.01
408.16	14990	0.248	0.136	0.01
408.16	14990	0.3701	0.201	0.01
408.16	14990	0.4554	0.2485	0.01
408.16	30070	0.09303	0.049	0.01
408.16	30070	0.1694	0.0966	0.01
408.16	30070	0.248	0.1439	0.01
408.16	30070	0.3701	0.2147	0.01
408.16	30070	0.4554	0.265	0.01
408.16	1830	0.08524	0.0395	0.01
408.16	1830	0.1694	0.0816	0.01
408.16	1830	0.248	0.1212	0.01
408.16	1830	0.33163	0.1813	0.01
408.16	1830	0.4252	0.2249	0.01
408.16	14990	0.08524	0.0445	0.01
408.16	14990	0.1694	0.0904	0.01
408.16	14990	0.248	0.1388	0.01
408.16	14990	0.3701	0.2015	0.01
408.16	14990	0.4554	0.2503	0.01
408.16	30070	0.09303	0.0505	0.01
408.16	30070	0.1694	0.0958	0.01
408.16	30070	0.248	0.143	0.01
408.16	30070	0.3701	0.214	0.01
408.16	30070	0.4554	0.2643	0.01
408.16	1830	0.08524	0.041	0.01
408.16	1830	0.1694	0.0817	0.01
408.16	1830	0.33163	0.1822	0.01
408.16	1830	0.4252	0.2243	0.01
408.16	14990	0.08524	0.0458	0.01
408.16	14990	0.1694	0.0909	0.01
408.16	14990	0.248	0.1363	0.01
408.16	14990	0.3701	0.21	0.01
408.16	14990	0.4554	0.2479	0.01
408.16	30070	0.09303	0.0487	0.01
408.16	30070	0.1694	0.0951	0.01
408.16	30070	0.248	0.1425	0.01
408.16	30070	0.3701	0.2145	0.01
408.16	30070	0.4554	0.283	0.01
441.98	1950	0.09303	0.0079	0.01
441.98	1950	0.1694	0.0179	0.01
441.98	1950	0.248	0.0291	0.01
441.98	1950	0.3701	0.045	0.01
441.98	1950	0.4554	0.0579	0.01
441.98	1950	0.09303	0.009	0.01
441.98	1950	0.1694	0.0184	0.01
441.98	1950	0.248	0.0291	0.01
441.98	1950	0.3701	0.0464	0.01
441.98	1950	0.4554	0.0569	0.01
441.98	1950	0.09303	0.0094	0.01
441.98	1950	0.1694	0.019	0.01
441.98	1950	0.248	0.0297	0.01
441.98	1950	0.3701	0.0473	0.01
441.98	1950	0.4554	0.0601	0.01
442.03	15670	0.09303	0.0236	0.01
442.03	15670	0.1694	0.0443	0.01
442.03	15670	0.248	0.0652	0.01
442.03	15670	0.3701	0.1011	0.01
442.03	15670	0.4554	0.122	0.01
442.03	15670	0.09303	0.0251	0.01
442.03	15670	0.1694	0.0424	0.01
442.03	15670	0.248	0.0549	0.01
442.03	15670	0.3701	0.0965	0.01
442.03	15670	0.4554	0.1233	0.01
442.03	15670	0.09303	0.0235	0.01
442.03	15670	0.1694	0.0437	0.01
442.03	15670	0.248	0.0659	0.01
442.03	15670	0.4554	0.1245	0.01
442.04	29810	0.09303	0.0348	0.01
442.04	29810	0.1694	0.0617	0.01
442.04	29810	0.248	0.0897	0.01
442.04	29810	0.3701	0.1389	0.01
442.04	29810	0.4554	0.1727	0.01
442.04	29810	0.09303	0.0363	0.01
442.04	29810	0.1694	0.0639	0.01
442.04	29810	0.3701	0.1404	0.01
442.04	29810	0.4554	0.172	0.01
442.04	29810	0.09303	0.0352	0.01
442.04	29810	0.1694	0.0636	0.01
442.04	29810	0.3701	0.1388	0.01
442.04	29810	0.4554	0.1735	0.01
473.15	1910	0.09303	-0.0145	0.01
473.15	1910	0.1694	-0.0261	0.01
473.15	1910	0.248	-0.0334	0.01
473.15	1910	0.3701	-0.0452	0.01
473.15	1910	0.4554	-0.0513	0.01
473.15	15760	0.07494	0.0047	0.01
473.15	15760	0.15417	0.0114	0.01
473.15	15760	0.23365	0.0235	0.01
473.15	15760	0.32656	0.0365	0.01
473.15	15760	0.45987	0.055	0.01
473.15	1910	0.09303	-0.0161	0.01
473.15	1910	0.1694	-0.0257	0.01
473.15	1910	0.248	-0.0337	0.01
473.15	1910	0.3701	-0.0454	0.01
473.15	1910	0.4554	-0.0507	0.01
473.15	15760	0.07494	0.0049	0.01
473.15	15760	0.15417	0.0087	0.01
473.15	15760	0.23365	0.0194	0.01
473.15	15760	0.32656	0.0298	0.01
473.15	15760	0.45987	0.0492	0.01
473.15	1910	0.09303	-0.0142	0.01
473.15	1910	0.1694	-0.0264	0.01
473.15	1910	0.248	-0.0335	0.01
473.15	1910	0.3701	-0.0445	0.01
473.15	1910	0.4554	-0.0497	0.01
473.15	15760	0.07494	0.0014	0.01
473.15	15760	0.15417	0.0068	0.01
473.15	15760	0.23365	0.0181	0.01
473.15	15760	0.32656	0.0346	0.01
473.15	15760	0.45987	0.0529	0.01
473.16	30220	0.07494	0.0201	0.01
473.16	30220	0.15417	0.0413	0.01
473.16	30220	0.23365	0.0633	0.01
473.16	30220	0.32656	0.0943	0.01
473.16	30220	0.45987	0.1374	0.01
473.16	30220	0.07494	0.0189	0.01
473.16	30220	0.15417	0.0406	0.01
473.16	30220	0.23365	0.0651	0.01
473.16	30220	0.32656	0.0937	0.01
473.16	30220	0.45987	0.1395	0.01
473.16	30220	0.07494	0.0216	0.01
473.16	30220	0.15417	0.0416	0.01
473.16	30220	0.23365	0.0668	0.01
473.16	30220	0.32656	0.0911	0.01
473.16	30220	0.45987	0.138	0.01
498.15	30150	0.07494	0.0227	0.01
498.15	30150	0.15417	0.046	0.01
498.15	30150	0.23365	0.0723	0.01
498.15	30150	0.32656	0.1029	0.01
498.15	30150	0.45987	0.1521	0.01
498.15	30150	0.07494	0.0224	0.01
498.15	30150	0.15417	0.0456	0.01
498.15	30150	0.23365	0.0715	0.01
498.15	30150	0.32656	0.1038	0.01
498.15	30150	0.45987	0.1533	0.01
498.15	30150	0.07494	0.0226	0.01
498.15	30150	0.15417	0.0453	0.01
498.15	30150	0.23365	0.0696	0.01
498.15	30150	0.32656	0.1024	0.01
498.15	30150	0.45987	0.1519	0.01
498.16	2980	0.07494	-0.0235	0.01
498.16	2980	0.15417	-0.043	0.01
498.16	2980	0.23365	-0.0607	0.01
498.16	2980	0.32656	-0.0785	0.01
498.16	2980	0.45987	-0.0956	0.01
498.16	16010	0.07494	0.0031	0.01
498.16	16010	0.15417	0.0039	0.01
498.16	16010	0.23365	0.0144	0.01
498.16	16010	0.32656	0.0258	0.01
498.16	16010	0.45987	0.0452	0.01
498.16	2980	0.07494	-0.0238	0.01
498.16	2980	0.15417	-0.0426	0.01
498.16	2980	0.23365	-0.0608	0.01
498.16	2980	0.32656	-0.0779	0.01
498.16	2980	0.45987	-0.096	0.01
498.16	16010	0.07494	0.0031	0.01
498.16	16010	0.15417	0.0079	0.01
498.16	16010	0.23365	0.0142	0.01
498.16	16010	0.32656	0.0245	0.01
498.16	16010	0.45987	0.0449	0.01
498.16	16010	0.07494	0.004	0.01
498.16	16010	0.15417	0.0076	0.01
498.16	16010	0.23365	0.0143	0.01
498.16	16010	0.32656	0.0242	0.01
498.16	16010	0.45987	0.0454	0.01
523.16	5020	0.07494	-0.0195	0.01
523.16	5020	0.15417	-0.0448	0.01
523.16	5020	0.23365	-0.0617	0.01
523.16	5020	0.32656	-0.0766	0.01
523.16	5020	0.45987	-0.0906	0.01
523.16	16130	0.07494	0.0044	0.01
523.16	16130	0.15417	0.0126	0.01
523.16	16130	0.23365	0.0236	0.01
523.16	16130	0.32656	0.0412	0.01
523.16	16130	0.45987	0.0739	0.01
523.16	30250	0.07494	0.0299	0.01
523.16	30250	0.15417	0.0639	0.01
523.16	30250	0.23365	0.0979	0.01
523.16	30250	0.32656	0.1441	0.01
523.16	30250	0.45987	0.2148	0.01
523.16	5020	0.07494	-0.0259	0.01
523.16	5020	0.15417	-0.0445	0.01
523.16	5020	0.23365	-0.0604	0.01
523.16	5020	0.32656	-0.0753	0.01
523.16	5020	0.45987	-0.0875	0.01
523.16	16130	0.07494	0.0046	0.01
523.16	16130	0.15417	0.0122	0.01
523.16	16130	0.23365	0.025	0.01
523.16	16130	0.32656	0.0387	0.01
523.16	16130	0.45987	0.0712	0.01
523.16	30250	0.07494	0.0315	0.01
523.16	30250	0.15417	0.0625	0.01
523.16	30250	0.23365	0.0986	0.01
523.16	30250	0.32656	0.1434	0.01
523.16	30250	0.45987	0.2093	0.01
523.16	5020	0.15417	-0.0445	0.01
523.16	5020	0.23365	-0.0608	0.01
523.16	5020	0.32656	-0.0755	0.01
523.16	5020	0.45987	-0.0872	0.01
523.16	16130	0.07494	0.005	0.01
523.16	16130	0.15417	0.0154	0.01
523.16	16130	0.23365	0.0248	0.01
523.16	16130	0.32656	0.0428	0.01
523.16	16130	0.45987	0.0724	0.01
523.16	30250	0.07494	0.0298	0.01
523.16	30250	0.15417	0.065	0.01
523.16	30250	0.23365	0.101	0.01
523.16	30250	0.32656	0.1419	0.01
523.16	30250	0.45987	0.211	0.01
523.16	30250	0.23365	0.0982	0.01
548.15	7390	0.07494	-0.0146	0.01
548.15	7390	0.15417	-0.0205	0.01
548.15	7390	0.23365	-0.0317	0.01
548.15	7390	0.32656	-0.0403	0.01
548.15	7390	0.45987	-0.0359	0.01
548.15	7390	0.07494	-0.0162	0.01
548.15	7390	0.15417	-0.0259	0.01
548.15	7390	0.23365	-0.0307	0.01
548.15	7390	0.32656	-0.0394	0.01
548.15	7390	0.45987	-0.0352	0.01
548.15	7390	0.07494	-0.0164	0.01
548.15	7390	0.15417	-0.026	0.01
548.15	7390	0.32656	-0.0405	0.01
548.15	7390	0.45987	-0.0341	0.01
548.18	18090	0.07494	0.0228	0.01
548.18	18090	0.15417	0.0452	0.01
548.18	18090	0.23365	0.0702	0.01
548.18	18090	0.32656	0.1043	0.01
548.18	18090	0.45987	0.1589	0.01
548.18	30140	0.07494	0.0442	0.01
548.18	30140	0.15417	0.0957	0.01
548.18	30140	0.23365	0.147	0.01
548.18	30140	0.32656	0.204	0.01
548.18	30140	0.45987	0.2994	0.01
548.18	18090	0.07494	0.0224	0.01
548.18	18090	0.15417	0.0485	0.01
548.18	18090	0.32656	0.1042	0.01
548.18	18090	0.45987	0.1593	0.01
548.18	30140	0.07494	0.0447	0.01
548.18	30140	0.15417	0.0972	0.01
548.18	30140	0.23365	0.1459	0.01
548.18	30140	0.32656	0.2042	0.01
548.18	30140	0.45987	0.3001	0.01
548.18	18090	0.07494	0.0222	0.01
548.18	18090	0.45987	0.1562	0.01
573.13	29800	0.07443	0.0744	0.02
573.13	29800	0.16061	0.1497	0.02
573.13	29800	0.25053	0.2249	0.02
573.13	29800	0.43318	0.3762	0.02
573.13	29800	0.07443	0.07	0.02
573.13	29800	0.16061	0.1499	0.02
573.13	29800	0.25053	0.2261	0.02
573.13	29800	0.43318	0.3812	0.02
573.18	10150	0.07443	0.0039	0.02
573.18	10150	0.16061	0.0101	0.02
573.18	10150	0.25053	0.0235	0.02
573.18	10150	0.33744	0.0235	0.02
573.18	10150	0.43318	0.0358	0.02
573.18	10150	0.07443	0.003	0.02
573.18	10150	0.16061	0.0119	0.02
573.18	10150	0.25053	0.0231	0.02
573.18	10150	0.33744	0.0286	0.02
573.18	10150	0.43318	0.0376	0.02
573.18	10150	0.07443	0.0054	0.02
573.18	10150	0.16061	0.013	0.02
573.18	10150	0.25053	0.022	0.02
573.18	10150	0.33744	0.0345	0.02
573.18	10150	0.43318	0.0387	0.02
573.19	19980	0.07443	0.0441	0.02
573.19	19980	0.16061	0.0963	0.02
573.19	19980	0.25053	0.1534	0.02
573.19	19980	0.33744	0.1906	0.02
573.19	19980	0.43318	0.2505	0.02
573.19	19980	0.07443	0.0451	0.02
573.19	19980	0.16061	0.095	0.02
573.19	19980	0.25053	0.1547	0.02
573.19	19980	0.33744	0.1928	0.02
573.19	19980	0.43318	0.2505	0.02
573.19	19980	0.07443	0.0455	0.02
573.19	19980	0.16061	0.0976	0.02
573.19	19980	0.25053	0.1577	0.02
573.19	19980	0.33744	0.1948	0.02
573.19	19980	0.43318	0.2499	0.02
