Measured thermophysical data. Surface tension and critical point measurements of methane + propane mixtures
Source: J. Chem. Thermodyn., 2017, 10.1016/j.jct.2017.03.002
Compound 1: ethane, C2H6, InChI=1S/C2H6/c1-2/h1-2H3, purity 99.99%
Compound 2: methane, CH4, InChI=1S/CH4/h1H4, purity 99.995%
Compound 3: propane, C3H8, InChI=1S/C3H8/c1-3-2/h3H2,1-2H3, purity 99.99%

System: ethane; phases: Liquid, Gas
Property: Critical temperature, K (Liquid); method: Visual observation in a stirred cell
Critical temperature, K	uncertainty
305.39	0.16

System: ethane; phases: Liquid, Gas
Property: Critical temperature, K (Liquid); method: Estimation from suface tension
Critical temperature, K	uncertainty
305.49	0.44

System: ethane; phases: Liquid, Gas
Property: Critical pressure, kPa (Liquid); method: Direct measurement
Critical pressure, kPa	uncertainty
4870	23

System: ethane; phases: Liquid, Gas
Property: Critical pressure, kPa (Liquid); method: estimation from surface tension
Critical pressure, kPa	uncertainty
4890	42

System: ethane; phases: Liquid, Gas
Property: Vapor or sublimation pressure, kPa (Liquid); method: Closed cell (Static) method
Temperature, K	Vapor or sublimation pressure, kPa	uncertainty
274.62	2472.5	10.6
279.17	2753.2	11.2
283.79	3060.9	12.5
291.25	3615.2	13.3
293.15	3764.3	14.1
294.16	3848	14.5
295.04	3919.9	15
297.18	4105.5	15.4
299.13	4277.5	15.9
301.25	4471.9	16.6
303.1	4650.3	17.3
304.95	4832.5	17.5

System: ethane; phases: Liquid, Gas
Property: Surface tension liquid-gas, N/m (Liquid); method: Capillary rise
Temperature, K	Surface tension liquid-gas, N/m	uncertainty
274.62	0.00295	0.00068
279.17	0.0024	0.00068
283.79	0.00185	0.00068
291.25	0.00105	0.00068
293.15	0.00095	0.00068
294.16	0.00091	0.00068
295.04	0.00081	0.00068
297.18	0.00062	0.00068
299.13	0.00043	0.00068
301.25	0.00027	0.00068
303.1	0.00013	0.00068
304.95	2e-05	0.00068

System: propane; phases: Liquid, Gas
Property: Vapor or sublimation pressure, kPa (Liquid); method: Closed cell (Static) method
Temperature, K	Vapor or sublimation pressure, kPa	uncertainty
270.51	437.5	2.5
280.13	583.7	2.8
287.35	715.4	3.2
289.65	762.1	3.5
291.75	806.2	3.8
297.98	948.2	4
300.92	1021.2	4.3
314.06	1398	5.2
271.77	456	2.5
285.35	680.6	3.1
303.37	1083.1	4.4

System: propane; phases: Liquid, Gas
Property: Surface tension liquid-gas, N/m (Liquid); method: Capillary rise
Temperature, K	Surface tension liquid-gas, N/m	uncertainty
270.51	0.0104	0.00068
280.13	0.00928	0.00068
287.35	0.00837	0.00068
289.65	0.00809	0.00068
291.75	0.00778	0.00068
297.98	0.00712	0.00068
300.92	0.00657	0.00068
314.06	0.00499	0.00068
271.77	0.0103	0.00068
285.35	0.00837	0.00068
303.37	0.00648	0.00068

System: methane + propane; phases: Liquid, Gas
Property: Surface tension liquid-gas, N/m (Liquid); method: Capillary rise
Pressure, kPa	Temperature, K	Surface tension liquid-gas, N/m	uncertainty
456	271.77	0.0103	0.00068
1168	272.14	0.00938	0.00068
1934.5	272.24	0.00799	0.00068
2416	272.08	0.00706	0.00068
3399.6	272.34	0.00599	0.00068
4264.5	272.29	0.00485	0.00068
5076.2	272.25	0.00354	0.00068
6136.6	272.33	0.00263	0.00068
6986	272.1	0.00171	0.00068
7606.3	272.28	0.00136	0.00068
8427.5	272.35	0.00051	0.00068
680.6	285.35	0.00837	0.00068
1012.6	285.35	0.00789	0.00068
1612.1	285.37	0.00713	0.00068
2567.9	285.76	0.0061	0.00068
3233.9	285.65	0.00502	0.00068
5041.5	285.55	0.0031	0.00068
5742.5	285.5	0.00235	0.00068
6902.5	285.39	0.00157	0.00068
8036.3	285.55	0.00076	0.00068
8724.2	285.5	0.00034	0.00068
1083.1	303.37	0.00648	0.00068
3076	303.15	0.00412	0.00068
4510.1	303.45	0.00299	0.00068
6454.1	303.35	0.00127	0.00068
7542	303.37	0.00062	0.00068
8171.3	303.37	0.00027	0.00068

System: methane + propane; phases: Liquid, Gas
Property: Surface tension liquid-gas, N/m (Liquid); method: Capillary rise
Mole fraction of methane	Temperature, K	Surface tension liquid-gas, N/m	uncertainty
0	271.77	0.0103	0.00068
0.0508	272.14	0.00938	0.00068
0.105	272.24	0.00799	0.00068
0.139	272.08	0.00706	0.00068
0.206	272.34	0.00599	0.00068
0.265	272.29	0.00485	0.00068
0.32	272.25	0.00354	0.00068
0.391	272.33	0.00263	0.00068
0.45	272.1	0.00171	0.00068
0.493	272.28	0.00136	0.00068
0.554	272.35	0.00051	0.00068
0	285.35	0.00837	0.00068
0.0217	285.35	0.00789	0.00068
0.0609	285.37	0.00713	0.00068
0.122	285.76	0.0061	0.00068
0.165	285.65	0.00502	0.00068
0.279	285.55	0.0031	0.00068
0.323	285.5	0.00235	0.00068
0.398	285.39	0.00157	0.00068
0.474	285.55	0.00076	0.00068
0.525	285.5	0.00034	0.00068
0	303.37	0.00648	0.00068
0.117	303.15	0.00412	0.00068
0.201	303.45	0.00299	0.00068
0.318	303.35	0.00127	0.00068
0.389	303.37	0.00062	0.00068
0.433	303.37	0.00027	0.00068

System: methane + propane; phases: Liquid, Gas
Property: Critical temperature, K (Liquid); method: Visual observation in a stirred cell
Mole fraction of methane	Critical temperature, K	uncertainty
0.8344	272.35	1.05
0.724	285.68	0.98
0.5762	303.51	0.84

System: methane + propane; phases: Liquid, Gas
Property: Critical pressure, kPa (Liquid); method: Direct measurement
Mole fraction of methane	Critical pressure, kPa	uncertainty
0.8344	9163	35
0.724	9599	10
0.5762	9098	25
