Measured thermophysical data. Investigation in the variation of Gibbs energy of formation of RE6UO12 (RE = La, Nd, Sm, Eu, Gd, Tb, Dy, Ho, Tm, Yb, Lu) along the 4f series
Source: J. Chem. Thermodyn., 2019, 10.1016/j.jct.2019.06.030
Compound 1: lanthanum, La, InChI=1S/La
Compound 2: uranium, U, InChI=1S/U
Compound 3: oxygen, O2, InChI=1S/O2/c1-2
Compound 4: neodymium, Nd, InChI=1S/Nd
Compound 5: samarium, Sm, InChI=1S/Sm
Compound 6: europium, Eu, InChI=1S/Eu
Compound 7: gadolinium, Gd, InChI=1S/Gd
Compound 8: terbium, Tb, InChI=1S/Tb
Compound 9: dysprosium, Dy, InChI=1S/Dy
Compound 10: holmium, Ho, InChI=1S/Ho
Compound 11: thulium, Tm, InChI=1S/Tm
Compound 12: ytterbium, Yb, InChI=1S/Yb
Compound 13: lutetium, Lu, InChI=1S/Lu
Compound 14: lanthanum uranium oxide, La6O12U, InChI=1S/6La.12O.U/q6*+3;12*-2;+6, purity 93%
Compound 15: neodymium uranium oxide (Nd6UO12), Nd6O12U, InChI=1S/6Nd.12O.U/q6*+3;12*-2;+6, purity 95%
Compound 16: samarium uranium oxide, O12Sm6U, InChI=1S/12O.6Sm.U/q12*-2;6*+3;+6, purity 98%
Compound 17: europium uranium oxide, Eu6O12U, InChI=1S/6Eu.12O.U/q6*+3;12*-2;+6, purity 97%
Compound 18: gadolinium uranium oxide (Gd6UO12), Gd6O12U, InChI=1S/6Gd.12O.U/q6*+3;12*-2;+6, purity 97%
Compound 19: terbium uranium oxide (Tb6UO12), O12Tb6U, InChI=1S/12O.6Tb.U/q12*-2;6*+3;+6, purity 98%
Compound 20: dysprosium uranium oxide (Dy6UO12), Dy6O12U, InChI=1S/6Dy.12O.U/q6*+3;12*-2;+6, purity 96%
Compound 21: holmium uranium oxide (Ho6UO12), Ho6O12U, InChI=1S/6Ho.12O.U/q6*+3;12*-2;+6, purity 97%
Compound 22: thulium uranium oxide (Tm6UO12), O12Tm6U, InChI=1S/12O.6Tm.U/q12*-2;6*+3;+6, purity 99%
Compound 23: uranium ytterbium oxide (Yb6UO12), O12UYb6, InChI=1S/12O.U.6Yb/q12*-2;+6;6*+3, purity 98%
Compound 24: lutetium uranium oxide (Lu6UO12), Lu6O12U, InChI=1S/6Lu.12O.U/q6*+3;12*-2;+6, purity 98%

System: samarium uranium oxide; phases: Crystal 2, Crystal 1, Air at 1 atmosphere
Property: Triple point temperature, K (Crystal 2); method: Combination of emf and XRD measurements
Triple point temperature, K	uncertainty
1125	1

System: uranium ytterbium oxide (Yb6UO12); phases: Crystal 2, Crystal 1, Air at 1 atmosphere
Property: Triple point temperature, K (Crystal 2); method: Combination of emf and XRD measurements
Triple point temperature, K	uncertainty
1065	1

Reaction: -6 lanthanum + -1 uranium + 1 lanthanum uranium oxide + -6 oxygen
Property: Molar Gibbs energy of reaction, kJ/mol
-5703
-5681
-5659
-5637
-5615
-5593
-5571
-5549
-5527
-5505
-5483
-5461
-5439
-5417
-5395
-5373

Reaction: -6 neodymium + -1 uranium + 1 neodymium uranium oxide (Nd6UO12) + -6 oxygen
Property: Molar Gibbs energy of reaction, kJ/mol
-5696
-5675
-5654
-5633
-5612
-5590
-5569
-5548
-5527
-5506
-5485
-5463
-5442
-5421
-5400
-5379

Reaction: -6 samarium + -1 uranium + 1 samarium uranium oxide + -6 oxygen
Property: Molar Gibbs energy of reaction, kJ/mol
-5698
-5676
-5653
-5631
-5608
-5586
-5564
-5541
-5519
-5496
-5474
-5458

Reaction: -6 europium + -1 uranium + 1 europium uranium oxide + -6 oxygen
Property: Molar Gibbs energy of reaction, kJ/mol
-5135
-5113
-5091
-5069
-5046
-5024
-5002
-4980
-4958
-4935
-4913
-4891
-4869
-4850

Reaction: -6 gadolinium + -1 uranium + 1 gadolinium uranium oxide (Gd6UO12) + -6 oxygen
Property: Molar Gibbs energy of reaction, kJ/mol
-5661
-5639
-5617
-5596
-5574
-5553
-5531
-5509
-5488
-5466
-5444
-5423

Reaction: -6 terbium + -1 uranium + 1 terbium uranium oxide (Tb6UO12) + -6 oxygen
Property: Molar Gibbs energy of reaction, kJ/mol
-5806
-5785
-5764
-5743
-5722
-5701
-5680
-5659
-5638
-5617
-5596
-5575
-5554
-5535

Reaction: -6 dysprosium + -1 uranium + 1 dysprosium uranium oxide (Dy6UO12) + -6 oxygen
Property: Molar Gibbs energy of reaction, kJ/mol
-5791
-5770
-5748
-5727
-5705
-5684
-5662
-5641
-5618

Reaction: -6 holmium + -1 uranium + 1 holmium uranium oxide (Ho6UO12) + -6 oxygen
Property: Molar Gibbs energy of reaction, kJ/mol
-5899
-5878
-5856
-5834
-5813
-5791
-5770
-5748
-5727
-5705
-5684
-5662
-5640
-5619
-5591

Reaction: -6 thulium + -1 uranium + 1 thulium uranium oxide (Tm6UO12) + -6 oxygen
Property: Molar Gibbs energy of reaction, kJ/mol
-5842
-5820
-5798
-5776
-5754
-5732
-5709
-5687
-5665
-5643
-5621
-5599
-5577
-5559

Reaction: -1 uranium + -6 ytterbium + 1 uranium ytterbium oxide (Yb6UO12) + -6 oxygen
Property: Molar Gibbs energy of reaction, kJ/mol
-5717
-5695
-5673
-5652
-5630
-5597

Reaction: -6 lutetium + -1 uranium + 1 lutetium uranium oxide (Lu6UO12) + -6 oxygen
Property: Molar Gibbs energy of reaction, kJ/mol
-5913
-5891
-5869
-5848
-5826
-5804
-5782
-5760
-5738
-5716
-5694
-5672
-5650
-5628
-5606
-5584
-5562
-5543
