Measured thermophysical data. (Vapour + liquid) equilibria of the {1,1,1-trifluoroethane (HFC-143a) + isobutene} system
Source: J. Chem. Thermodyn., 2008, 10.1016/j.jct.2008.01.014
Compound 1: 1,1,1-trifluoroethane, C2H3F3, InChI=1S/C2H3F3/c1-2(3,4)5/h1H3
Compound 2: 2-methylpropene, C4H8, InChI=1S/C4H8/c1-4(2)3/h1H2,2-3H3

System: 1,1,1-trifluoroethane; phases: Liquid, Gas
Property: Vapor or sublimation pressure, kPa (Liquid); method: Ebulliometric method (Recirculating still)
Temperature, K	Vapor or sublimation pressure, kPa	uncertainty
273.15	626	3
288.15	972	4
303.15	1442	6
318.15	2063	9
333.15	2875	12

System: 2-methylpropene; phases: Liquid, Gas
Property: Vapor or sublimation pressure, kPa (Liquid); method: Ebulliometric method (Recirculating still)
Temperature, K	Vapor or sublimation pressure, kPa	uncertainty
273.15	133	2
288.15	224	2
303.15	353	2
318.15	538	3
333.15	787	4
348.15	1110	5

System: 2-methylpropene + 1,1,1-trifluoroethane; phases: Liquid, Gas
Property: Vapor or sublimation pressure, kPa (Liquid); method: Ebulliometric method (Recirculating still)
Mole fraction of 1,1,1-trifluoroethane	Temperature, K	Vapor or sublimation pressure, kPa	uncertainty
0	273.15	133	2
0	288.15	224	2
0	303.15	353	2
0	318.15	538	3
0	333.15	787	4
0	348.15	1110	5
0.0298	273.15	172	3
0.036	303.15	441	4
0.0417	348.15	1301	9
0.0451	333.15	948	7
0.0454	273.15	194	3
0.0469	288.15	304	3
0.0604	318.15	711	5
0.087	273.15	237	3
0.1039	348.15	1555	9
0.1077	333.15	1150	7
0.1092	303.15	584	4
0.1112	318.15	838	5
0.1163	288.15	400	3
0.1546	273.15	294	3
0.1669	348.15	1774	9
0.1818	318.15	989	5
0.1906	333.15	1390	7
0.213	288.15	505	3
0.2141	303.15	745	4
0.2185	273.15	337	3
0.2616	318.15	1134	6
0.2617	348.15	2075	10
0.2939	333.15	1634	8
0.3071	273.15	383	3
0.3078	288.15	588	3
0.3347	303.15	890	4
0.3413	318.15	1263	6
0.3565	348.15	2355	11
0.3743	333.15	1794	8
0.3768	273.15	413	3
0.4476	288.15	680	4
0.448	348.15	2598	11
0.4795	303.15	1027	5
0.4883	318.15	1463	6
0.5138	333.15	2057	9
0.5199	273.15	468	3
0.5618	348.15	2873	12
0.573	288.15	753	4
0.5903	303.15	1121	5
0.6471	318.15	1656	7
0.661	333.15	2322	10
0.6766	348.15	3155	13
0.6889	273.15	525	3
0.7096	288.15	819	4
0.7253	303.15	1227	5
0.7712	333.15	2489	11
0.8179	303.15	1298	6
0.8238	348.15	3508	15
0.8427	288.15	888	4
0.844	273.15	571	3
0.8737	348.15	3617	15
0.9073	333.15	2709	11
0.9234	318.15	1963	8
0.9265	303.15	1376	6
1	273.15	626	3
1	288.15	972	4
1	303.15	1442	6
1	318.15	2063	9
1	333.15	2875	12

System: 2-methylpropene + 1,1,1-trifluoroethane; phases: Gas, Liquid
Property: Mole fraction of 1,1,1-trifluoroethane (Gas); method: Chromatography
Mole fraction of 1,1,1-trifluoroethane	Temperature, K	Mole fraction of 1,1,1-trifluoroethane	uncertainty
0	273.15	0	0.0001
0	288.15	0	0.0001
0	303.15	0	0.0001
0	318.15	0	0.0001
0	333.15	0	0.0001
0	348.15	0	0.0001
0.0298	273.15	0.2578	0.0128
0.036	303.15	0.2065	0.0066
0.0417	348.15	0.1535	0.005
0.0451	333.15	0.1685	0.0054
0.0454	273.15	0.3477	0.0059
0.0469	288.15	0.2724	0.0067
0.0604	318.15	0.2583	0.006
0.087	273.15	0.4415	0.0055
0.1039	348.15	0.2971	0.0044
0.1077	333.15	0.3384	0.0047
0.1092	303.15	0.4287	0.0054
0.1112	318.15	0.3813	0.0048
0.1163	288.15	0.4721	0.0056
0.1546	273.15	0.5741	0.005
0.1669	348.15	0.3983	0.0044
0.1818	318.15	0.4961	0.0054
0.1906	333.15	0.4683	0.0051
0.213	288.15	0.6089	0.0045
0.2141	303.15	0.5848	0.0046
0.2185	273.15	0.646	0.004
0.2616	318.15	0.579	0.0046
0.2617	348.15	0.5005	0.0053
0.2939	333.15	0.5688	0.0046
0.3071	273.15	0.7073	0.0034
0.3078	288.15	0.6866	0.0036
0.3347	303.15	0.6818	0.0036
0.3413	318.15	0.642	0.0039
0.3565	348.15	0.5769	0.0045
0.3743	333.15	0.6288	0.004
0.3768	273.15	0.7335	0.0032
0.4476	288.15	0.7594	0.003
0.448	348.15	0.6376	0.004
0.4795	303.15	0.7591	0.003
0.4883	318.15	0.7264	0.0033
0.5138	333.15	0.704	0.0034
0.5199	273.15	0.7918	0.0027
0.5618	348.15	0.7003	0.0035
0.573	288.15	0.8146	0.0026
0.5903	303.15	0.8069	0.0026
0.6471	318.15	0.8029	0.0027
0.661	333.15	0.7887	0.0028
0.6766	348.15	0.7645	0.003
0.6889	273.15	0.8521	0.0023
0.7096	288.15	0.8703	0.0022
0.7253	303.15	0.862	0.0023
0.7712	333.15	0.844	0.0024
0.8179	303.15	0.9036	0.0021
0.8238	348.15	0.8551	0.0024
0.8427	288.15	0.9238	0.0019
0.844	273.15	0.9254	0.0019
0.8737	348.15	0.8883	0.0023
0.9073	333.15	0.9242	0.0021
0.9234	318.15	0.9444	0.0019
0.9265	303.15	0.9588	0.0019
1	273.15	1	0.0001
1	288.15	1	0.0001
1	303.15	1	0.0001
1	318.15	1	0.0001
1	333.15	1	0.0001
