Measured thermophysical data. Heat capacity of copper on the ITS-90 temperature scale using adiabatic calorimetry
Source: J. Chem. Thermodyn., 2004, 10.1016/j.jct.2004.06.008
Compound 1: copper, Cu, InChI=1S/Cu, purity 99.999%

System: copper; phases: Crystal
Fixed: Pressure, kPa = 101.325
Property: Molar heat capacity at constant pressure, J/K/mol (Crystal); method: Vacuum adiabatic calorimetry
Temperature, K	Molar heat capacity at constant pressure, J/K/mol	uncertainty
6.56	0.0232	0.0002
7.16	0.0255	0.0002
7.85	0.0323	0.0002
8.64	0.04	0.0002
9.55	0.0534	0.0003
10.51	0.0663	0.0004
11.42	0.0839	0.0005
12.43	0.1121	0.0005
13.56	0.137	0.0007
14.81	0.1926	0.0008
16.17	0.2314	0.0009
17.69	0.304	0.0013
19.34	0.4106	0.0016
20.19	0.4727	0.0019
21.13	0.5555	0.0021
21.94	0.6242	0.0022
23.08	0.7448	0.0026
23.76	0.8181	0.0028
25.79	1.0579	0.0034
28.01	1.3702	0.0041
30.46	1.7612	0.0049
33.17	2.2593	0.006
36.05	2.8525	0.0071
37.57	3.1732	0.0077
39.01	3.497	0.0084
40.74	3.8984	0.0091
44.1	4.7081	0.0106
45.89	5.1458	0.0114
47.52	5.5489	0.0122
49.38	6.0253	0.0131
52.99	6.9332	0.0147
54.47	7.2807	0.0154
56.65	7.8371	0.0164
56.87	7.8818	0.0165
59.76	8.5815	0.0178
62.64	9.2716	0.0191
66.47	10.136	0.021
71.22	11.164	0.023
75.97	12.131	0.025
80.79	13.04	0.026
85.65	13.887	0.028
90.55	14.676	0.03
95.49	15.408	0.031
100.46	16.084	0.032
105.45	16.706	0.034
110.46	17.282	0.035
115.49	17.81	0.036
120.54	18.295	0.037
125.61	18.746	0.038
130.68	19.157	0.038
134.74	19.466	0.039
135.77	19.542	0.039
139.84	19.823	0.04
140.87	19.889	0.04
144.94	20.156	0.04
150.05	20.465	0.041
155.17	20.75	0.042
160.3	21.019	0.042
165.43	21.267	0.043
170.57	21.5	0.043
175.7	21.718	0.043
180.85	21.92	0.044
186	22.107	0.044
191.15	22.281	0.045
193.33	22.353	0.045
196.3	22.446	0.045
198.48	22.512	0.045
201.46	22.598	0.045
203.64	22.656	0.045
206.62	22.739	0.045
208.8	22.789	0.046
213.96	22.928	0.046
219.13	23.064	0.046
224.29	23.194	0.046
229.45	23.309	0.047
232.56	23.38	0.047
234.62	23.411	0.047
237.73	23.486	0.047
239.79	23.527	0.047
242.89	23.592	0.047
248.06	23.683	0.047
253.24	23.766	0.048
258.41	23.858	0.048
263.59	23.951	0.048
268.77	24.024	0.048
273.95	24.089	0.048
279.13	24.16	0.048
284.31	24.234	0.048
289.49	24.307	0.049
294.67	24.377	0.049
297.38	24.412	0.049
299.85	24.444	0.049
302.55	24.489	0.049
307.73	24.553	0.049
312.92	24.612	0.049
318.1	24.674	0.049
323.28	24.726	0.049
325.89	24.75	0.05
328.47	24.782	0.05
331.06	24.795	0.05
336.25	24.853	0.05
341.44	24.911	0.05
346.62	24.947	0.05
351.8	24.992	0.05
356.99	25.031	0.05
363.06	25.066	0.05
368.04	25.115	0.05
373.02	25.171	0.05
378	25.254	0.051
382.98	25.247	0.05
387.96	25.302	0.051
392.94	25.351	0.051
397.62	25.408	0.051
