Measured thermophysical data. Investigation of surface tension and viscosity for aqueous solutions of MEA-MeOH and DEA-MeOH
Source: J. Chem. Thermodyn., 2018, 10.1016/j.jct.2017.08.024
Compound 1: methanol, CH4O, InChI=1S/CH4O/c1-2/h2H,1H3, purity 99.5%
Compound 2: 2-aminoethan-1-ol, C2H7NO, InChI=1S/C2H7NO/c3-1-2-4/h4H,1-3H2, purity 99.5%
Compound 3: diethanolamine, C4H11NO2, InChI=1S/C4H11NO2/c6-3-1-5-2-4-7/h5-7H,1-4H2, purity 99.5%
Compound 4: water, H2O, InChI=1S/H2O/h1H2, purity 99.9%

System: methanol; phases: Liquid, Air at 1 atmosphere
Property: Surface tension liquid-gas, N/m (Liquid); method: wilhelmy plate
Temperature, K	Surface tension liquid-gas, N/m	uncertainty
303.2	0.0217	0.0006
313.2	0.0209	0.0006
323.2	0.02	0.0006

System: methanol; phases: Liquid
Fixed: Pressure, kPa = 101.325
Property: Viscosity, Pa*s (Liquid); method: Concentric cylinders viscometry
Temperature, K	Viscosity, Pa*s	uncertainty
303.2	0.00051	0.00012
313.2	0.00044	0.00012
323.2	0.00039	0.00012

System: 2-aminoethan-1-ol; phases: Liquid, Air at 1 atmosphere
Property: Surface tension liquid-gas, N/m (Liquid); method: wilhelmy plate
Temperature, K	Surface tension liquid-gas, N/m	uncertainty
303.2	0.0477	0.0006
313.2	0.0459	0.0006
323.2	0.0442	0.0006

System: 2-aminoethan-1-ol; phases: Liquid
Fixed: Pressure, kPa = 101.325
Property: Viscosity, Pa*s (Liquid); method: Concentric cylinders viscometry
Temperature, K	Viscosity, Pa*s	uncertainty
303.2	0.01447	0.00045
313.2	0.00987	0.00015
323.2	0.00679	0.00014

System: diethanolamine; phases: Liquid, Air at 1 atmosphere
Property: Surface tension liquid-gas, N/m (Liquid); method: wilhelmy plate
Temperature, K	Surface tension liquid-gas, N/m	uncertainty
303.2	0.046	0.0006
313.2	0.0441	0.0006
323.2	0.0428	0.0006

System: diethanolamine; phases: Liquid
Fixed: Pressure, kPa = 101.325
Property: Viscosity, Pa*s (Liquid); method: Concentric cylinders viscometry
Temperature, K	Viscosity, Pa*s	uncertainty
303.2	0.38121	0.02
313.2	0.18864	0.00663
323.2	0.10598	0.00551

System: water; phases: Liquid, Air at 1 atmosphere
Property: Surface tension liquid-gas, N/m (Liquid); method: wilhelmy plate
Temperature, K	Surface tension liquid-gas, N/m	uncertainty
303.2	0.0711	0.0006
313.2	0.0694	0.0006
323.2	0.0677	0.0006

System: water; phases: Liquid
Fixed: Pressure, kPa = 101.325
Property: Viscosity, Pa*s (Liquid); method: Concentric cylinders viscometry
Temperature, K	Viscosity, Pa*s	uncertainty
303.2	0.0008	0.00012
313.2	0.00065	0.00012
323.2	0.00055	0.00012

System: 2-aminoethan-1-ol + methanol + water; phases: Liquid, Air at 1 atmosphere
Property: Surface tension liquid-gas, N/m (Liquid); method: wilhelmy plate
Temperature, K	Mass fraction of 2-aminoethan-1-ol	Mass fraction of methanol	Surface tension liquid-gas, N/m	uncertainty
303.2	0.2	0	0.0621	0.0006
303.2	0.2	0.025	0.0601	0.0006
303.2	0.2	0.05	0.0583	0.0006
303.2	0.2	0.075	0.0563	0.0006
303.2	0.3	0	0.0597	0.0006
303.2	0.3	0.025	0.0575	0.0006
303.2	0.3	0.05	0.0553	0.0006
303.2	0.3	0.075	0.0533	0.0006
303.2	0.4	0	0.0578	0.0006
303.2	0.4	0.025	0.0565	0.0006
303.2	0.4	0.05	0.0546	0.0006
303.2	0.4	0.075	0.0524	0.0006
313.2	0.2	0	0.0604	0.0006
313.2	0.2	0.025	0.0585	0.0006
313.2	0.2	0.05	0.0561	0.0006
313.2	0.2	0.075	0.0542	0.0006
313.2	0.3	0	0.0584	0.0006
313.2	0.3	0.025	0.0562	0.0006
313.2	0.3	0.05	0.0543	0.0006
313.2	0.3	0.075	0.0521	0.0006
313.2	0.4	0	0.0563	0.0006
313.2	0.4	0.025	0.0553	0.0006
313.2	0.4	0.05	0.0533	0.0006
313.2	0.4	0.075	0.0512	0.0006
323.2	0.2	0	0.0589	0.0006
323.2	0.2	0.025	0.0564	0.0006
323.2	0.2	0.05	0.054	0.0006
323.2	0.2	0.075	0.0523	0.0006
323.2	0.3	0	0.0564	0.0006
323.2	0.3	0.025	0.0551	0.0006
323.2	0.3	0.05	0.0535	0.0006
323.2	0.3	0.075	0.0516	0.0006
323.2	0.4	0	0.0546	0.0006
323.2	0.4	0.025	0.0531	0.0006
323.2	0.4	0.05	0.0513	0.0006
323.2	0.4	0.075	0.0499	0.0006
303.2	0	0	0.0711	0.0006
313.2	0	0	0.0694	0.0006
323.2	0	0	0.0677	0.0006

System: 2-aminoethan-1-ol + methanol + water; phases: Liquid
Fixed: Pressure, kPa = 101
Property: Viscosity, Pa*s (Liquid); method: Concentric cylinders viscometry
Temperature, K	Mass fraction of 2-aminoethan-1-ol	Mass fraction of methanol	Viscosity, Pa*s	uncertainty
303.2	0.2	0	0.00151	0.00012
303.2	0.2	0.025	0.00159	0.00012
303.2	0.2	0.05	0.00171	0.00012
303.2	0.2	0.075	0.00183	0.00012
303.2	0.3	0	0.00211	0.00012
303.2	0.3	0.025	0.00221	0.00012
303.2	0.3	0.05	0.00235	0.00012
303.2	0.3	0.075	0.00251	0.00012
303.2	0.4	0	0.00312	0.00012
303.2	0.4	0.025	0.00327	0.00012
303.2	0.4	0.05	0.00344	0.00012
303.2	0.4	0.075	0.00363	0.00012
313.2	0.2	0	0.00118	0.00012
313.2	0.2	0.025	0.00129	0.00012
313.2	0.2	0.05	0.00141	0.00012
313.2	0.2	0.075	0.00154	0.00012
313.2	0.3	0	0.00163	0.00012
313.2	0.3	0.025	0.00172	0.00012
313.2	0.3	0.05	0.00186	0.00012
313.2	0.3	0.075	0.00201	0.00012
313.2	0.4	0	0.00229	0.00012
313.2	0.4	0.025	0.00243	0.00012
313.2	0.4	0.05	0.00259	0.00012
313.2	0.4	0.075	0.0028	0.0001
323.2	0.2	0	0.00097	0.00012
323.2	0.2	0.025	0.00107	0.00012
323.2	0.2	0.05	0.00119	0.00012
323.2	0.2	0.075	0.00133	0.00012
323.2	0.3	0	0.00131	0.00012
323.2	0.3	0.025	0.00139	0.00012
323.2	0.3	0.05	0.00152	0.00012
323.2	0.3	0.075	0.00166	0.00012
323.2	0.4	0	0.00179	0.00012
323.2	0.4	0.025	0.00191	0.00012
323.2	0.4	0.05	0.00205	0.00012
323.2	0.4	0.075	0.00222	0.00012

System: diethanolamine + methanol + water; phases: Liquid, Air at 1 atmosphere
Property: Surface tension liquid-gas, N/m (Liquid); method: wilhelmy plate
Temperature, K	Mass fraction of diethanolamine	Mass fraction of methanol	Surface tension liquid-gas, N/m	uncertainty
303.2	0.2	0	0.0633	0.0006
303.2	0.2	0.025	0.0602	0.0006
303.2	0.2	0.05	0.0576	0.0006
303.2	0.2	0.075	0.0557	0.0006
303.2	0.3	0	0.0605	0.0006
303.2	0.3	0.025	0.0576	0.0006
303.2	0.3	0.05	0.0558	0.0006
303.2	0.3	0.075	0.0539	0.0006
303.2	0.4	0	0.0583	0.0006
303.2	0.4	0.025	0.0553	0.0006
303.2	0.4	0.05	0.0537	0.0006
303.2	0.4	0.075	0.0517	0.0006
313.2	0.2	0	0.0621	0.0006
313.2	0.2	0.025	0.0585	0.0006
313.2	0.2	0.05	0.0561	0.0006
313.2	0.2	0.075	0.0538	0.0006
313.2	0.3	0	0.0588	0.0006
313.2	0.3	0.025	0.0561	0.0006
313.2	0.3	0.05	0.0542	0.0006
313.2	0.3	0.075	0.0523	0.0006
313.2	0.4	0	0.0566	0.0006
313.2	0.4	0.025	0.0538	0.0006
313.2	0.4	0.05	0.0516	0.0006
313.2	0.4	0.075	0.0496	0.0006
323.2	0.2	0	0.0599	0.0006
323.2	0.2	0.025	0.0562	0.0006
323.2	0.2	0.05	0.0541	0.0006
323.2	0.2	0.075	0.0522	0.0006
323.2	0.3	0	0.0574	0.0006
323.2	0.3	0.025	0.054	0.0006
323.2	0.3	0.05	0.0523	0.0006
323.2	0.3	0.075	0.0512	0.0006
323.2	0.4	0	0.0547	0.0006
323.2	0.4	0.025	0.0515	0.0006
323.2	0.4	0.05	0.0491	0.0006
323.2	0.4	0.075	0.0477	0.0006
303.2	0	0	0.0711	0.0006
313.2	0	0	0.0694	0.0006
323.2	0	0	0.0677	0.0006

System: diethanolamine + methanol + water; phases: Liquid
Fixed: Pressure, kPa = 101
Property: Viscosity, Pa*s (Liquid); method: Concentric cylinders viscometry
Temperature, K	Mass fraction of diethanolamine	Mass fraction of methanol	Viscosity, Pa*s	uncertainty
303.2	0.2	0	0.00164	0.00016
303.2	0.2	0.025	0.00175	0.00016
303.2	0.2	0.05	0.00187	0.00016
303.2	0.2	0.075	0.00203	0.00016
303.2	0.3	0	0.00257	0.00016
303.2	0.3	0.025	0.00272	0.00016
303.2	0.3	0.05	0.00285	0.00016
303.2	0.3	0.075	0.00302	0.00016
303.2	0.4	0	0.00427	0.00016
303.2	0.4	0.025	0.00451	0.00016
303.2	0.4	0.05	0.00485	0.00016
303.2	0.4	0.075	0.00551	0.00017
313.2	0.2	0	0.00129	0.00016
313.2	0.2	0.025	0.00142	0.00016
313.2	0.2	0.05	0.00153	0.00016
313.2	0.2	0.075	0.00165	0.00016
313.2	0.3	0	0.00198	0.00016
313.2	0.3	0.025	0.00214	0.00016
313.2	0.3	0.05	0.00231	0.00016
313.2	0.3	0.075	0.00249	0.00016
313.2	0.4	0	0.00301	0.00016
313.2	0.4	0.025	0.00328	0.00016
313.2	0.4	0.05	0.00362	0.00016
313.2	0.4	0.075	0.00406	0.00016
323.2	0.2	0	0.00103	0.00016
323.2	0.2	0.025	0.00118	0.00016
323.2	0.2	0.05	0.00133	0.00016
323.2	0.2	0.075	0.00144	0.00016
323.2	0.3	0	0.00142	0.00016
323.2	0.3	0.025	0.00161	0.00016
323.2	0.3	0.05	0.00183	0.00016
323.2	0.3	0.075	0.00208	0.00016
323.2	0.4	0	0.00227	0.00016
323.2	0.4	0.025	0.00247	0.00016
323.2	0.4	0.05	0.00272	0.00016
323.2	0.4	0.075	0.00307	0.00016

System: 2-aminoethan-1-ol + water; phases: Liquid, Air at 1 atmosphere
Property: Surface tension liquid-gas, N/m (Liquid); method: wilhelmy plate
Temperature, K	Mass fraction of 2-aminoethan-1-ol	Surface tension liquid-gas, N/m	uncertainty
303.2	0.2	0.0621	0.0006
303.2	0.3	0.0597	0.0006
303.2	0.4	0.0578	0.0006
313.2	0.2	0.0604	0.0006
313.2	0.3	0.0584	0.0006
313.2	0.4	0.0563	0.0006
323.2	0.2	0.0589	0.0006
323.2	0.3	0.0564	0.0006
323.2	0.4	0.0546	0.0006
303.2	0	0.0711	0.0006
313.2	0	0.0694	0.0006
323.2	0	0.0677	0.0006
303.2	1	0.0477	0.0006
313.2	1	0.0459	0.0006
323.2	1	0.0442	0.0006

System: 2-aminoethan-1-ol + water; phases: Liquid
Fixed: Pressure, kPa = 101
Property: Viscosity, Pa*s (Liquid); method: Concentric cylinders viscometry
Temperature, K	Mass fraction of 2-aminoethan-1-ol	Viscosity, Pa*s	uncertainty
303.2	0.2	0.00151	0.00012
303.2	0.3	0.00211	0.00013
303.2	0.4	0.00312	0.00013
313.2	0.2	0.00118	0.00012
313.2	0.3	0.00163	0.00012
313.2	0.4	0.00229	0.00013
323.2	0.2	0.00097	0.00012
323.2	0.3	0.00131	0.00012
323.2	0.4	0.00179	0.00012
303.2	0	0.0008	0.00012
313.2	0	0.00065	0.00012
323.2	0	0.00055	0.00012
303.2	1	0.01447	0.00045
313.2	1	0.00987	0.00015
323.2	1	0.00679	0.00014

System: diethanolamine + water; phases: Liquid, Air at 1 atmosphere
Property: Surface tension liquid-gas, N/m (Liquid); method: wilhelmy plate
Temperature, K	Mass fraction of diethanolamine	Surface tension liquid-gas, N/m	uncertainty
303.2	0.2	0.0633	0.0006
303.2	0.3	0.0605	0.0006
303.2	0.4	0.0583	0.0006
313.2	0.2	0.0621	0.0006
313.2	0.3	0.0588	0.0006
313.2	0.4	0.0566	0.0006
323.2	0.2	0.0599	0.0006
323.2	0.3	0.0574	0.0006
323.2	0.4	0.0547	0.0006
303.2	0	0.0711	0.0006
313.2	0	0.0694	0.0006
323.2	0	0.0677	0.0006
303.2	1	0.046	0.0006
313.2	1	0.0441	0.0006
323.2	1	0.0428	0.0006

System: diethanolamine + water; phases: Liquid
Fixed: Pressure, kPa = 101
Property: Viscosity, Pa*s (Liquid); method: Concentric cylinders viscometry
Temperature, K	Mass fraction of diethanolamine	Viscosity, Pa*s	uncertainty
303.2	0.2	0.00164	0.00012
303.2	0.3	0.00257	0.00013
303.2	0.4	0.00427	0.00014
313.2	0.2	0.00129	0.00012
313.2	0.3	0.00198	0.00013
313.2	0.4	0.00301	0.00013
323.2	0.2	0.00103	0.00012
323.2	0.3	0.00142	0.00012
323.2	0.4	0.00227	0.00013
303.2	0	0.0008	0.00012
313.2	0	0.00065	0.00012
323.2	0	0.00055	0.00012
303.2	1	0.38121	0.02
313.2	1	0.18864	0.00663
323.2	1	0.10598	0.00551
