Measured thermophysical data. Thermochemistry of inosine
Source: J. Chem. Thermodyn., 2005, 10.1016/j.jct.2005.03.001
Compound 1: carbon dioxide, CO2, InChI=1S/CO2/c2-1-3
Compound 2: nitrogen, N2, InChI=1S/N2/c1-2
Compound 3: water, H2O, InChI=1S/H2O/h1H2
Compound 4: oxygen, O2, InChI=1S/O2/c1-2
Compound 5: inosine, C10H12N4O5, InChI=1S/C10H12N4O5/c15-1-4-6(16)7(17)10(19-4)14-3-13-5-8(14)11-2-12-9(5)18/h2-4,6-7,10,15-17H,1H2,(H,11,12,18)/t4-,6?,7?,10-/m1/s1, purity 99.5%

System: inosine; phases: Crystal
Fixed: Pressure, kPa = 101.325
Property: Molar heat capacity at constant pressure, J/K/mol (Crystal); method: VADIAC:UFactor:4
Temperature, K	Molar heat capacity at constant pressure, J/K/mol	uncertainty
11.37	2.6	0.13
12.4	5.24	0.19
13.27	5.34	0.19
14.37	8	0.26
15.72	8.66	0.27
17.23	10.48	0.3
18.81	12.67	0.34
20.54	15.53	0.38
22.47	18.02	0.41
27.18	24.456	0.434
29.58	27.826	0.43
29.75	28.215	0.431
32.27	31.55	0.414
32.59	32.203	0.42
35.1	35.868	0.448
38.23	40.225	0.482
41.7	44.306	0.515
45.53	49.686	0.558
50	55.9	0.608
56.53	63.867	0.671
59.44	67.115	0.697
62.82	71.101	0.729
67.13	75.879	0.767
71.89	81.043	0.809
76.69	86.11	0.849
81.53	91.048	0.889
83.7	93.275	0.906
88.48	98.01	0.944
93.41	102.753	1.211
98.36	107.57	1.23
103.34	112.182	1.249
108.27	116.725	1.267
113.23	121.214	1.285
118.26	125.644	1.303
123.3	130.084	1.32
125.51	131.847	1.328
128.35	134.426	1.338
130.57	136.305	1.345
133.41	138.854	1.356
135.64	140.698	1.363
140.71	144.923	1.38
145.78	148.448	1.394
145.8	149.327	1.397
149.37	152.253	1.409
150.89	153.607	1.415
154.48	156.348	1.425
159.58	160.919	1.444
164.68	165.034	1.46
169.79	169.617	1.479
174.9	173.934	1.496
180.02	178.355	1.514
185.14	182.521	1.53
190.27	187.12	1.549
192.5	188.8	1.555
195.39	191.387	1.566
197.62	192.663	1.571
200.52	195.814	1.583
202.76	197.617	1.591
207.88	202.12	1.609
213.02	206.523	1.626
218.15	211.068	1.644
223.29	215.772	1.663
228.42	220.195	1.681
233.56	224.728	1.699
238.7	229.467	1.718
243.85	234.111	1.737
246.24	236.414	1.746
248.99	238.67	1.755
251.38	240.948	1.764
253.05	242.166	1.769
256.52	245.437	1.782
261.67	250.119	1.801
263.31	250.426	1.802
266.82	254.818	1.819
268.46	256.413	1.826
271.97	259.523	1.838
273.61	260.392	1.842
277.12	263.801	1.855
278.76	265.314	1.861
282.28	269.015	1.876
283.92	269.968	1.88
287.43	272.959	1.892
289.07	274.75	1.899
292.59	278.262	1.913
294.53	279.915	1.92
297.74	282.799	1.931
299.68	284.124	1.937
304.84	289.532	1.958
309.99	294.466	1.978
315.15	298.885	1.996
320.31	303.996	2.016
325.47	308.164	2.033

System: inosine; phases: Crystal
Fixed: Pressure, kPa = 101.325
Property: Molar heat capacity at constant pressure, J/K/mol (Crystal); method: VADIAC:UFactor:2
Temperature, K	Molar heat capacity at constant pressure, J/K/mol	uncertainty
20	14.48	0.183
30	28.51	0.2
40	42.37	0.249
50	56.03	0.308
60	67.97	0.349
70	78.94	0.399
80	89.48	0.441
90	99.541	0.599
100	109.12	0.615
110	118.28	0.64
120	127.14	0.657
130	135.78	0.673
140	144.3	0.69
150	152.74	0.707
160	161.18	0.723
170	169.63	0.74
180	178.13	0.757
190	186.69	0.773
200	195.29	0.79
210	203.97	0.807
220	212.73	0.823
230	221.6	0.8398
240	230.55	0.8647
250	239.55	0.8813
260	248.54	0.898
270	257.49	0.9146
273.15	260.31	0.9229
280	266.45	0.9312
290	275.57	0.9478
298.15	283.17	0.9645
300	284.92	0.9728
310	294.36	0.9894
320	303.45	1.0061

System: inosine; phases: Crystal
Fixed: Pressure, kPa = 101.325
Property: Molar enthalpy function {Hm(T)-Hm(0)}/T, J/K/mol (Crystal); method: VADIAC:UFactor:2
Temperature, K	Molar enthalpy function {Hm(T)-Hm(0)}/T, J/K/mol	uncertainty
20	4.32	0.07
30	10.04	0.125
40	16.4	0.15
50	22.96	0.175
60	29.49	0.2
70	35.78	0.224
80	41.84	0.249
90	47.69	0.499
100	53.36	0.507
110	58.85	0.515
120	64.17	0.532
130	69.35	0.54
140	74.4	0.549
150	79.34	0.557
160	84.192	0.565
170	88.973	0.582
180	93.687	0.59
190	98.36	0.599
200	102.98	0.607
210	107.59	0.615
220	112.17	0.624
230	116.74	0.632
240	121.29	0.64
250	125.84	0.649
260	130.39	0.657
270	134.93	0.673
273.15	136.36	0.673
280	139.47	0.682
290	144	0.69
298.15	147.7	0.698
300	148.54	0.698
310	153.09	0.707
320	157.65	0.715

System: inosine; phases: Crystal
Fixed: Pressure, kPa = 101.325
Property: Molar entropy, J/K/mol (Crystal); method: VADIAC:UFactor:2
Temperature, K	Molar entropy, J/K/mol	uncertainty
20	5.91	0.133
30	14.43	0.208
40	24.54	0.266
50	35.46	0.333
60	46.76	0.399
70	58.07	0.466
80	69.3	0.54
90	80.43	0.8398
100	91.409	0.873
110	102.24	0.9063
120	112.92	0.9395
130	123.44	0.9728
140	133.81	0.9977
150	144.05	1.031
160	154.18	1.0643
170	164.21	1.0892
180	174.14	1.1225
190	184	1.1557
200	193.8	1.1807
210	203.53	1.2139
220	213.22	1.2389
230	222.88	1.2721
240	232.5	1.2971
250	242.09	1.3303
260	251.66	1.3553
270	261.21	1.3802
273.15	264.21	1.3968
280	270.73	1.4135
290	280.24	1.4384
298.15	287.99	1.4633
300	289.74	1.4717
310	299.24	1.4966
320	308.73	1.5299

Reaction: -1 inosine + 10 carbon dioxide + 2 nitrogen + 6 water + -10.5 oxygen
Property: Specific internal energy of reaction at constant volume, J/g
-17917.1
