Measured thermophysical data. Thermochemistry of methoxythiophenes: Measurement of their enthalpies of vaporization and estimation of their enthalpies of formation in the condensed phase
Source: J. Chem. Thermodyn., 2014, 10.1016/j.jct.2013.11.003
Compound 1: 2-methoxythiophene, C5H6OS, InChI=1S/C5H6OS/c1-6-5-3-2-4-7-5/h2-4H,1H3, purity 99%
Compound 2: 3-methoxythiophene, C5H6OS, InChI=1S/C5H6OS/c1-6-5-2-3-7-4-5/h2-4H,1H3, purity 99%

System: 2-methoxythiophene; phases: Liquid, Gas
Property: Vapor or sublimation pressure, kPa (Liquid); method: Transpiration method
Temperature, K	Vapor or sublimation pressure, kPa	uncertainty
278.1	0.1302	0.0068
281	0.1585	0.0082
283	0.1804	0.0095
285.9	0.2284	0.012
287.8	0.2708	0.0141
290.7	0.3244	0.017
292.7	0.3939	0.0204
295.7	0.4587	0.0237
297.6	0.5406	0.028
300.6	0.6383	0.0325
302.6	0.6976	0.0361
305.6	0.8682	0.045
307.6	0.9894	0.0507
310.6	1.1468	0.0589
312.6	1.3362	0.0685
312.7	1.2987	0.0666
313.6	1.3656	0.0707
315.6	1.5593	0.0801
318.6	1.8297	0.0939
321.7	2.1962	0.1126
323.7	2.4709	0.1266

System: 3-methoxythiophene; phases: Liquid, Gas
Property: Vapor or sublimation pressure, kPa (Liquid); method: Transpiration method
Temperature, K	Vapor or sublimation pressure, kPa	uncertainty
278.1	0.089	0.0047
281	0.1105	0.0058
283.9	0.1366	0.0071
286.8	0.1662	0.0087
289.7	0.2094	0.011
292.6	0.2646	0.0137
295.7	0.32	0.0164
297.6	0.3561	0.0183
300.6	0.4274	0.0221
303.6	0.5203	0.0269
306.6	0.6282	0.0325
309.6	0.7649	0.0394
312.6	0.9169	0.047
315.7	1.0778	0.0554
318.7	1.3128	0.0674
321.7	1.5363	0.0783
324.7	1.7647	0.0895
