Measured thermophysical data. High pressure viscosity behaviour of tris(2-ethylhexyl) trimellitate up to 150 MPa
Source: J. Chem. Thermodyn., 2019, 10.1016/j.jct.2019.06.016
Compound 1: tris(2-ethylhexyl) trimellitate, C33H54O6, InChI=1S/C33H54O6/c1-7-13-16-25(10-4)22-37-31(34)28-19-20-29(32(35)38-23-26(11-5)17-14-8-2)30(21-28)33(36)39-24-27(12-6)18-15-9-3/h19-21,25-27H,7-18,22-24H2,1-6H3, purity 99%
Compound 2: 2,6,10,15,19,23-hexamethyltetracosane, C30H62, InChI=1S/C30H62/c1-25(2)15-11-19-29(7)23-13-21-27(5)17-9-10-18-28(6)22-14-24-30(8)20-12-16-26(3)4/h25-30H,9-24H2,1-8H3, purity 99%

System: tris(2-ethylhexyl) trimellitate; phases: Liquid
Fixed: Pressure, kPa = 101.325
Property: Mass density, kg/m3 (Liquid); method: Vibrating tube method
Temperature, K	Mass density, kg/m3	uncertainty
278.15	998.9	0.5
283.15	995.6	0.5
288.15	991.9	0.5
293.15	988.4	0.5
298.15	984.8	0.5
303.15	981.2	0.5
308.15	977.7	0.5
313.15	974.2	0.5
318.15	970.7	0.5
323.15	967.1	0.5
328.15	963.5	0.5
333.15	960	0.5
338.15	956.4	0.5
343.15	952.8	0.5
348.15	949.2	0.5
353.15	945.6	0.5
358.15	941.9	0.5
363.15	938.3	0.5
368.15	934.7	0.5
373.15	931.2	0.5

System: tris(2-ethylhexyl) trimellitate; phases: Liquid
Fixed: Pressure, kPa = 101.325
Property: Viscosity, Pa*s (Liquid); method: Concentric cylinders viscometry
Temperature, K	Viscosity, Pa*s	uncertainty
278.15	0.976	0.0394
283.15	0.6366	0.0221
288.15	0.429	0.0126
293.15	0.2969	0.0073
298.15	0.2106	0.0044
303.15	0.1529	0.0027
308.15	0.1134	0.0017
313.15	0.08576	0.00112
318.15	0.06605	0.00078
323.15	0.05174	0.00058
328.15	0.04118	0.00048
333.15	0.03326	0.00039
338.15	0.02721	0.00032
343.15	0.02253	0.00026
348.15	0.01886	0.00022
353.15	0.01596	0.00019
358.15	0.01362	0.00016
363.15	0.01174	0.00014
368.15	0.01019	0.00012
373.15	0.00892	0.0001

System: tris(2-ethylhexyl) trimellitate; phases: Liquid
Property: Viscosity, Pa*s (Liquid); method: Falling or rolling sphere viscometry
Temperature, K	Pressure, kPa	Viscosity, Pa*s	uncertainty
303.15	10000	0.1883	0.0102
303.15	15000	0.2116	0.0121
303.15	25000	0.2632	0.0164
303.15	50000	0.434	0.0328
303.15	75000	0.6929	0.0616
303.15	100000	1.085	0.113
303.15	125000	1.678	0.2
303.15	150000	2.57	0.341
313.15	10000	0.1008	0.0042
313.15	15000	0.1126	0.0049
313.15	25000	0.139	0.0067
313.15	50000	0.2259	0.0133
313.15	75000	0.3539	0.0248
313.15	100000	0.542	0.0443
313.15	125000	0.8191	0.0775
313.15	150000	1.227	0.133
323.15	10000	0.0622	0.0023
323.15	15000	0.0689	0.0026
323.15	25000	0.0838	0.0033
323.15	50000	0.1318	0.0062
323.15	75000	0.2002	0.0112
323.15	100000	0.2978	0.0195
323.15	125000	0.4371	0.0331
323.15	150000	0.6362	0.0548
333.15	10000	0.0411	0.0015
333.15	15000	0.0453	0.0017
333.15	25000	0.0543	0.002
333.15	50000	0.0823	0.0032
333.15	75000	0.1213	0.0055
333.15	100000	0.1762	0.0093
333.15	125000	0.2531	0.0155
333.15	150000	0.3605	0.0254
343.15	10000	0.0263	0.001
343.15	15000	0.0289	0.0011
343.15	25000	0.0344	0.0013
343.15	50000	0.0516	0.0018
343.15	75000	0.0754	0.0029
343.15	100000	0.1084	0.0047
343.15	125000	0.1542	0.0077
343.15	150000	0.2178	0.0126
353.15	10000	0.0181	0.0007
353.15	15000	0.0197	0.0007
353.15	25000	0.0233	0.0009
353.15	50000	0.0346	0.0013
353.15	75000	0.05	0.0018
353.15	100000	0.0712	0.0027
353.15	125000	0.1001	0.0042
353.15	150000	0.1399	0.0067

System: 2,6,10,15,19,23-hexamethyltetracosane; phases: Liquid
Property: Viscosity, Pa*s (Liquid); method: Falling or rolling sphere viscometry
Temperature, K	Pressure, kPa	Viscosity, Pa*s	uncertainty
303.15	10000	0.0281	0.001
303.15	15000	0.0314	0.0011
303.15	25000	0.0387	0.0014
303.15	50000	0.0623	0.0023
303.15	75000	0.0975	0.004
303.15	100000	0.1497	0.0074
303.15	125000	0.227	0.0133
303.15	150000	0.341	0.0235
313.15	10000	0.0182	0.0007
313.15	15000	0.0203	0.0007
313.15	25000	0.0249	0.0009
313.15	50000	0.0398	0.0014
313.15	75000	0.061	0.0022
313.15	100000	0.0913	0.0037
313.15	125000	0.1346	0.0063
313.15	150000	0.1964	0.0108
343.15	10000	0.0073	0.00027
343.15	15000	0.00794	0.00029
343.15	25000	0.00932	0.00034
343.15	50000	0.0136	0.0005
343.15	75000	0.0193	0.0007
343.15	100000	0.027	0.001
343.15	125000	0.0372	0.0014
343.15	150000	0.051	0.0019
353.15	10000	0.00556	0.0002
353.15	15000	0.00604	0.00022
353.15	25000	0.00705	0.00026
353.15	50000	0.0101	0.0004
353.15	75000	0.014	0.0005
353.15	100000	0.0193	0.0007
353.15	125000	0.0263	0.001
353.15	150000	0.0356	0.0013
