Measured thermophysical data. Isobaric VLE of the mixture {(+-)-linalool + ethanol}: A case study for the distillation of absolute and volatile oils
Source: J. Chem. Thermodyn., 2013, 10.1016/j.jct.2013.05.022
Compound 1: 3,7-dimethyl-1,6-octadien-3-ol, C10H18O, InChI=1S/C10H18O/c1-5-10(4,11)8-6-7-9(2)3/h5,7,11H,1,6,8H2,2-4H3
Compound 2: ethanol, C2H6O, InChI=1S/C2H6O/c1-2-3/h3H,2H2,1H3

System: 3,7-dimethyl-1,6-octadien-3-ol; phases: Liquid, Gas
Property: Boiling temperature at pressure P, K (Liquid); method: Ebulliometric method (Recirculating still)
Pressure, kPa	Boiling temperature at pressure P, K	uncertainty
13.33	406.4	0.9
20	416.8	0.9
26.66	425.2	0.9
33.33	432	0.8
40	437.8	0.8
53.33	447.2	0.8
66.66	455	0.8
79.99	461.6	0.8

System: ethanol; phases: Liquid, Gas
Property: Boiling temperature at pressure P, K (Liquid); method: Ebulliometric method (Recirculating still)
Pressure, kPa	Boiling temperature at pressure P, K	uncertainty
13.33	308.8	0.9
20	316.2	0.8
26.66	321.6	0.8
33.33	326	0.8
40	330	0.8
53.33	336.2	0.8
66.66	341.4	0.8
79.99	345.6	0.8
93.33	349.4	0.8
98.12	350.8	0.8
101.33	351.4	0.8

System: ethanol + 3,7-dimethyl-1,6-octadien-3-ol; phases: Gas, Liquid
Property: Mole fraction of 3,7-dimethyl-1,6-octadien-3-ol (Gas); method: Density calibration data
Mole fraction of 3,7-dimethyl-1,6-octadien-3-ol	Pressure, kPa	Mole fraction of 3,7-dimethyl-1,6-octadien-3-ol	uncertainty
0.1678	26.66	0.0013	0.001
0.2285	26.66	0.0019	0.001
0.289	26.66	0.0026	0.001
0.3708	26.66	0.0038	0.001
0.4472	26.66	0.005	0.001
0.5321	26.66	0.0071	0.001
0.6614	26.66	0.0129	0.001
0.1137	40	0.0011	0.001
0.1849	40	0.0019	0.001
0.3015	40	0.0036	0.001
0.4075	40	0.0057	0.001
0.5087	40	0.0085	0.001
0.6309	40	0.0134	0.001
0.1953	53.33	0.0024	0.001
0.2249	53.33	0.0029	0.001
0.2686	53.33	0.0035	0.001
0.3382	53.33	0.0046	0.001
0.4264	53.33	0.0065	0.001
0.5208	53.33	0.0099	0.001
0.6181	53.33	0.0141	0.001
0.7953	26.66	0.027	0.001
0.8802	26.66	0.055	0.0012
0.9302	26.66	0.1117	0.0021
0.9605	26.66	0.2125	0.0045
0.9729	26.66	0.308	0.0095
0.9806	26.66	0.4041	0.0127
0.7135	40	0.0194	0.001
0.7791	40	0.0285	0.0011
0.8806	40	0.0705	0.0013
0.9425	40	0.1751	0.0024
0.9603	40	0.2575	0.0082
0.9812	40	0.4728	0.0102
0.6785	53.33	0.0187	0.001
0.8077	53.33	0.0433	0.0011
0.9059	53.33	0.1063	0.0015
0.94	53.33	0.1822	0.0028
0.9504	53.33	0.2238	0.0078
0.98	53.33	0.4807	0.0093

System: ethanol + 3,7-dimethyl-1,6-octadien-3-ol; phases: Liquid, Gas
Property: Boiling temperature at pressure P, K (Liquid); method: Ebulliometric method (Recirculating still)
Mole fraction of 3,7-dimethyl-1,6-octadien-3-ol	Pressure, kPa	Boiling temperature at pressure P, K	uncertainty
0.1678	26.66	324.5	0.8
0.2285	26.66	326.1	0.8
0.289	26.66	327.6	0.8
0.3708	26.66	329.8	0.8
0.4472	26.66	331.9	0.8
0.5321	26.66	334.8	0.8
0.6614	26.66	340.8	0.8
0.1137	40	331.7	0.8
0.1849	40	333.5	0.8
0.3015	40	336.7	0.8
0.4075	40	340	0.8
0.5087	40	343.6	0.8
0.6309	40	348.4	0.8
0.1953	53.33	340.5	0.8
0.2249	53.33	341.4	0.8
0.2686	53.33	342.4	0.8
0.3382	53.33	344	0.8
0.4264	53.33	346.6	0.8
0.5208	53.33	350.6	0.8
0.6181	53.33	354.5	0.8
0.7953	26.66	350.1	0.8
0.8802	26.66	361	0.9
0.9302	26.66	373.4	0.9
0.9605	26.66	386.3	1
0.9729	26.66	394.6	1.1
0.9806	26.66	401.1	1.2
0.7135	40	352.9	0.8
0.7791	40	358.3	0.8
0.8806	40	373.3	0.9
0.9425	40	391.5	0.9
0.9603	40	400.3	1.1
0.9812	40	415.7	1.1
0.6785	53.33	358.1	0.9
0.8077	53.33	370.7	0.9
0.9059	53.33	387.4	0.9
0.94	53.33	399.2	0.9
0.9504	53.33	404.1	1.1
0.98	53.33	424.3	1.1
