Measured thermophysical data. Apparatus based on a compact single-sinker densimeter and measurements of the (p,.rho.,T) relation of difluoromethane
Source: J. Chem. Thermodyn., 2014, 10.1016/j.jct.2014.06.023
Compound 1: ethane, C2H6, InChI=1S/C2H6/c1-2/h1-2H3, purity 99.95%
Compound 2: difluoromethane, CH2F2, InChI=1S/CH2F2/c2-1-3/h1H2

System: ethane; phases: Gas
Property: Mass density, kg/m3 (Gas); method: Buoyancy - hydrostatic balance with magnetic suspension - one sinker
Temperature, K	Pressure, kPa	Mass density, kg/m3	uncertainty
265.068	1811.51	32.6652	0.0171
265.081	1612.28	27.8016	0.0159
265.085	1404.49	23.2391	0.0142
265.096	1199.36	19.1462	0.0129
265.096	1004.37	15.548	0.0118
265.096	816.83	12.3046	0.0108
265.021	505.8	7.3166	0.0102
265.065	279.98	3.9405	0.0095
265.062	116.65	1.6114	0.0092
259.632	1548.63	27.5129	0.0158
259.633	1351.6	23.0046	0.0148
259.628	1351.53	23.0156	0.0148
259.622	1174.87	19.3302	0.0132
259.617	933.39	14.7341	0.012
259.628	726.92	11.1161	0.011
259.63	550.88	8.2159	0.0106
259.628	358.5	5.211	0.01
259.631	152.52	2.1615	0.0095
254.742	1474.67	26.843	0.0161
254.756	1280.41	22.2529	0.0147
254.761	1280.46	22.2533	0.0147
254.764	1040.1	17.2189	0.0131
254.761	825.19	13.1528	0.0118
254.758	634.94	9.817	0.0113
254.773	423.98	6.354	0.0103
254.729	225.89	3.2988	0.0098
254.725	114.93	1.6547	0.0096
249.8	1281.64	23.1579	0.017
249.805	1281.26	23.1411	0.017
249.81	1067.47	18.3574	0.0153
249.814	1067.48	18.3577	0.0153
249.795	863.82	14.2661	0.0133
249.796	863.8	14.2677	0.0133
249.807	633.6	10.0488	0.0117
249.814	360.58	5.4802	0.0106
249.823	147.6	2.1773	0.0099
244.948	1111.38	20.0202	0.0143
244.929	904.97	15.5558	0.0134
244.908	1111.57	20.0182	0.0143
244.905	880.77	15.0548	0.0134
244.917	877.28	14.9812	0.0134
244.923	628.26	10.2258	0.012
244.925	350.79	5.4481	0.0109
244.929	350.8	5.4496	0.0109
244.926	138.73	2.0893	0.0101
240.01	954.18	17.1448	0.0136
239.988	717.05	12.2167	0.0126
240.043	502.79	8.2138	0.0117
240.04	323.6	5.1239	0.0107
240.045	105.82	1.619	0.0103
235.028	694.56	12.1431	0.0126
235.015	592.34	10.1286	0.0127
235.011	499.46	8.3818	0.0119
235.005	391.54	6.4356	0.0113
235.015	305.16	4.9382	0.0109
235.017	197.5	3.137	0.0106
230.356	615.49	10.8842	0.0124
230.354	493.22	8.4852	0.0124
230.354	391.01	6.5852	0.0116
230.343	306.85	5.0853	0.0112
230.346	197.35	3.2054	0.0109
225.47	499.44	8.8558	0.0125
225.437	403.34	6.9981	0.0121
225.415	310.68	5.2843	0.0116
225.416	212.66	3.5454	0.0113

System: ethane; phases: Liquid
Property: Mass density, kg/m3 (Liquid); method: Buoyancy - hydrostatic balance with magnetic suspension - one sinker
Temperature, K	Pressure, kPa	Mass density, kg/m3	uncertainty
265.087	3539.35	425.459	0.1
265.058	3532.57	425.483	0.1
265.083	3090.47	423.579	0.099
265.082	3081.3	423.536	0.099
265.075	2962.79	423.046	0.099
265.078	2963.1	423.044	0.099
265.101	2730.83	421.962	0.099
265.086	2565.28	421.145	0.099
265.077	2073	418.96	0.099
265.082	2322.69	420.14	0.099
265.075	2278.55	419.942	0.099
259.63	3076.17	434.902	0.102
259.62	2698.88	433.539	0.101
259.627	2412.89	432.441	0.101
259.629	2097.27	431.21	0.101
259.62	1700.9	429.637	0.101
254.775	3457.78	445.504	0.104
254.754	3109.94	444.464	0.103
254.759	2860.95	443.666	0.103
254.813	2648.74	442.883	0.103
254.701	2492.44	442.576	0.103
254.697	2493.32	442.588	0.103
254.686	2265.9	441.863	0.103
254.721	2013.54	440.937	0.103
254.688	1692.1	439.901	0.103
249.872	2510.92	451.681	0.105
249.862	2510.34	451.694	0.105
249.86	2510.45	451.694	0.105
249.844	2352.9	451.272	0.105
249.851	2081.5	450.462	0.105
249.901	1805.49	449.546	0.104
249.927	1591.58	448.847	0.104
249.932	1354.2	448.104	0.104
249.929	1301.05	447.948	0.104
244.929	1659.61	458.185	0.106
244.929	1659.05	458.187	0.106
244.919	1442.72	457.624	0.106
244.921	1224.95	457.081	0.106
244.924	1123.2	456.739	0.106
240.095	2936.25	469.524	0.109
240.079	2591.91	468.767	0.109
240.052	2196.29	467.899	0.108
240.037	1755.69	466.891	0.108
240.058	1457.16	466.142	0.108
240.062	1092.23	465.243	0.108
230.352	2447.94	483.853	0.112
230.339	2111.24	483.236	0.112
230.345	1666.7	482.366	0.114
230.356	1671.62	482.356	0.114
230.368	1281.02	481.577	0.111
230.383	886.51	480.769	0.111
225.423	2133.23	490.717	0.113
225.413	1642.19	489.85	0.113
225.424	1086.8	488.834	0.113
225.425	709.57	488.151	0.113

System: difluoromethane; phases: Gas
Property: Mass density, kg/m3 (Gas); method: Buoyancy - hydrostatic balance with magnetic suspension - one sinker
Temperature, K	Pressure, kPa	Mass density, kg/m3	uncertainty
254.084	382.25	10.3656	0.0185
254.088	313.9	8.3508	0.0178
254.093	214.16	5.5491	0.0169
254.096	104.12	2.6275	0.0163
263.88	571.82	15.4369	0.019
263.876	506.07	13.4247	0.0184
263.875	401.96	10.3885	0.0179
263.877	306.27	7.74	0.0168
263.877	204.78	5.0609	0.016
263.877	107.72	2.6075	0.0155
263.893	71.43	1.7159	0.0152
273.737	824.1	22.3391	0.0205
273.732	817.04	22.1108	0.0205
273.737	771.81	20.6433	0.0201
273.734	711.85	18.7582	0.0192
273.739	614.63	15.8288	0.0183
273.731	513.88	12.9426	0.0174
273.739	416.77	10.2856	0.0169
273.732	312.85	7.5636	0.016
273.735	224.38	5.3352	0.0153
273.732	101.73	2.3681	0.015
283.541	1013.18	26.9253	0.0207
283.544	1013.16	26.9235	0.0207
283.545	911.64	23.6652	0.02
283.533	812.63	20.6499	0.0188
283.521	710.61	17.6856	0.0179
283.519	614.51	15.0118	0.017
283.544	502.33	12.0197	0.0163
283.525	412.99	9.7269	0.0159
283.528	312.42	7.2368	0.0152
283.532	213.32	4.8632	0.0146
283.532	101.75	2.2806	0.0144
293.332	1397.32	37.8678	0.0232
293.335	1265.09	33.2531	0.0223
293.339	1161.47	29.864	0.0208
293.336	1066.35	26.9025	0.0198
293.34	968.81	23.9856	0.0188
293.338	866.25	21.0499	0.0179
293.339	760.28	18.1362	0.0171
293.323	656.65	15.3945	0.0163
293.323	546.17	12.5808	0.0156
293.316	432.29	9.7863	0.0153
293.372	323.39	7.2059	0.0146
293.382	219.26	4.8156	0.0141
293.316	107.46	2.3235	0.0139

System: difluoromethane; phases: Liquid
Property: Mass density, kg/m3 (Liquid); method: Buoyancy - hydrostatic balance with magnetic suspension - one sinker
Temperature, K	Pressure, kPa	Mass density, kg/m3	uncertainty
215.363	1697.93	1231.2	0.28
215.357	1538.73	1230.95	0.28
215.35	1325.76	1230.63	0.28
215.386	1294.97	1230.49	0.28
215.352	1103.8	1230.26	0.28
215.373	703.99	1229.57	0.28
215.373	297.95	1228.9	0.28
215.365	103.26	1228.62	0.28
224.905	1506.31	1204.87	0.28
224.884	1061.9	1204.12	0.28
224.892	1060.09	1204.1	0.28
224.87	584.91	1203.31	0.27
224.872	174.37	1202.55	0.27
234.455	1590.04	1178.28	0.27
234.563	1164.81	1177.09	0.27
234.51	797.4	1176.49	0.27
234.519	405.74	1175.67	0.27
234.547	274.67	1175.3	0.27
235.139	1742.14	1176.61	0.27
235.123	1629.09	1176.43	0.27
235.129	1583.23	1176.31	0.27
235.123	1119.56	1175.37	0.27
235.115	648.42	1174.42	0.27
235.117	647.72	1174.42	0.27
235.13	296.36	1173.65	0.27
235.125	296.35	1173.64	0.27
244.298	1507.82	1149.6	0.26
244.286	1506.2	1149.63	0.26
244.284	1218.77	1148.97	0.26
244.277	721.81	1147.83	0.26
244.287	432.84	1147.12	0.26
244.908	1786.08	1148.39	0.26
244.903	1785.04	1148.39	0.26
244.89	1636.57	1148.09	0.26
244.898	1266.47	1147.19	0.26
244.889	745.03	1145.98	0.26
244.902	364.35	1145.04	0.26
254.659	1795.25	1119	0.26
254.65	1794.68	1119.02	0.26
254.665	1451.02	1118.05	0.26
254.673	1449.08	1118.02	0.26
254.668	1113.78	1117.12	0.26
254.648	1111.62	1117.17	0.26
254.654	795.59	1116.29	0.26
254.665	487.53	1115.4	0.26
264.472	1799.41	1087.82	0.41
264.471	1797.34	1087.79	0.41
264.461	1771.48	1087.75	0.25
264.476	1561.73	1087.04	0.25
264.474	1555.9	1087.04	0.25
264.46	1262.57	1086.13	0.25
264.471	883.24	1084.88	0.25
264.476	882.25	1084.85	0.25
264.487	616.31	1083.92	0.25
273.765	1582.15	1055.81	0.24
273.751	1351.52	1054.99	0.24
273.744	1101.14	1054.06	0.24
273.742	876.3	1053.21	0.24
283.545	1562.46	1020.09	0.24
283.56	1382.84	1019.19	0.23
283.56	1155.95	1018.14	0.23
293.333	2143.91	984.45	0.23
293.341	1757.25	982.24	0.23
293.345	1537.89	980.97	0.23
