Measured thermophysical data. An experimental calorimetric and a DFT + U study of the thermodynamic properties of Cs4[(UO2)4(WO5)(W2O8)O2] and Cs4[(UO2)7(WO5)3O3]
Source: J. Chem. Thermodyn., 2019, 10.1016/j.jct.2019.07.015
Compound 1: tungsten, W, InChI=1S/W
Compound 2: cesium, Cs, InChI=1S/Cs
Compound 3: uranium, U, InChI=1S/U
Compound 4: oxygen, O2, InChI=1S/O2/c1-2
Compound 5: cesium tungsten uranium oxide (Cs4W3U4O23), Cs4O23U4W3, InChI=1S/4Cs.23O.4U.3W/q4*+1;;;;;;;;;;;;12*-1;4*+2;;;, purity 98%
Compound 6: cesium tungsten uranium oxide (Cs4W3U7O32), Cs4O32U7W3, InChI=1S/4Cs.32O.7U.3W/q4*+1;;;;;;;;;;;;;;;;;;3*-2;12*-1;7*+2;;;, purity 98%

System: cesium tungsten uranium oxide (Cs4W3U4O23); phases: Crystal
Fixed: Pressure, kPa = 101.325
Property: Molar heat capacity at constant pressure, J/K/mol (Crystal); method: Vacuum adiabatic calorimetry
Temperature, K	Molar heat capacity at constant pressure, J/K/mol	uncertainty
5	1.98	0.24
10	13.6	0.5
15	35.9	1.2
20	64.4	0.8
25	95.1	1
30	121.7	1.1
35	145.1	1.3
40	166.9	1.4
45	187.9	1.6
50	208.5	1.7
60	248.1	2.1
70	284.5	1.3
80	318.1	1.4
90	348	1.5
100	375.6	1.6
110	401.9	1.7
120	426.8	1.8
130	450.3	1.9
140	472.2	2
150	492.5	2
160	511.3	2.1
170	528.8	2.2
180	545.1	2.2
190	560.4	2.3
200	574.8	2.4
210	588.6	2.4
220	601.7	2.5
230	614.3	2.5
240	626.5	2.6
250	638.2	2.6
260	649.5	2.7
270	660.5	2.7
273.15	663.8	2.7
280	671	2.8
290	681	2.8
298.15	688.8	2.8
300	690.5	2.8
310	699.3	2.9
320	707.5	2.9

System: cesium tungsten uranium oxide (Cs4W3U4O23); phases: Crystal
Fixed: Pressure, kPa = 101.325
Property: Molar enthalpy, kJ/mol (Crystal); method: Vacuum adiabatic calorimetry
Temperature, K	Molar enthalpy, kJ/mol	uncertainty
5	0.0026	0.0007
10	0.036	0.002
15	0.157	0.006
20	0.406	0.007
25	0.805	0.012
30	1.35	0.02
35	2.02	0.02
40	2.8	0.03
45	3.68	0.04
50	4.68	0.04
60	6.96	0.06
70	9.63	0.05
80	12.6	0.1
90	16	0.1
100	19.6	0.1
110	23.5	0.1
120	27.6	0.1
130	32	0.2
140	36.6	0.2
150	41.5	0.2
160	46.5	0.2
170	51.7	0.2
180	57	0.2
190	62.6	0.3
200	68.2	0.3
210	74.1	0.3
220	80	0.3
230	86.1	0.4
240	92.3	0.4
250	98.6	0.4
260	105.1	0.4
270	111.6	0.5
273.15	113.7	0.5
280	118.3	0.5
290	125	0.5
298.15	130.6	0.5
300	131.9	0.6
310	138.8	0.6
320	145.9	0.6

System: cesium tungsten uranium oxide (Cs4W3U4O23); phases: Crystal
Fixed: Pressure, kPa = 101.325
Property: Molar entropy, J/K/mol (Crystal); method: Vacuum adiabatic calorimetry
Temperature, K	Molar entropy, J/K/mol	uncertainty
5	0.709	0.091
10	4.9	0.26
15	14.4	0.7
20	28.5	0.5
25	46.2	0.7
30	66	0.9
35	86.5	1.1
40	107.3	1.4
45	128.2	1.6
50	149.1	1.9
60	190.6	2.4
70	231.7	1.5
80	271.9	1.8
90	311.1	2
100	349.2	2.2
110	386.2	2.4
120	422.3	2.6
130	457.4	2.9
140	491.6	3.1
150	524.8	3.3
160	557.2	3.5
170	588.8	3.6
180	619.4	3.8
190	649.3	4
200	678.4	4.2
210	706.8	4.4
220	734.5	4.5
230	761.5	4.7
240	787.9	4.8
250	813.7	5
260	839	5.2
270	863.7	5.3
273.15	871.4	5.4
280	887.9	5.5
290	911.7	5.6
298.15	930.6	5.7
300	934.9	5.7
310	957.7	5.9
320	980	6

System: cesium tungsten uranium oxide (Cs4W3U4O23); phases: Crystal
Fixed: Pressure, kPa = 101.325
Property: Molar heat capacity at constant pressure, J/K/mol (Crystal); method: Vacuum adiabatic calorimetry
Temperature, K	Molar heat capacity at constant pressure, J/K/mol	uncertainty
5.51	2.54	0.17
5.75	2.86	0.18
5.85	3.06	0.18
6.01	3.29	0.18
6.15	3.51	0.19
6.24	3.66	0.19
6.33	3.85	0.19
6.42	4.04	0.2
6.52	4.17	0.2
6.62	4.38	0.21
6.72	4.5	0.22
6.81	4.72	0.22
6.91	4.91	0.23
7.02	5.03	0.23
7.13	5.29	0.24
7.23	5.48	0.25
7.29	5.6	0.25
7.4	5.85	0.26
7.52	6.11	0.27
7.63	6.45	0.28
7.74	6.72	0.29
7.86	7.02	0.29
7.98	7.34	0.3
8.1	7.67	0.31
8.23	7.97	0.32
8.35	8.38	0.33
8.48	8.74	0.35
8.62	9.15	0.35
8.75	9.44	0.36
8.89	9.82	0.37
9.02	10.15	0.38
9.16	10.56	0.39
9.26	10.81	0.4
9.4	11.33	0.41
9.54	11.93	0.42
9.69	12.44	0.45
9.83	13	0.46
9.98	13.52	0.47
10.22	14.37	0.5
10.53	15.6	0.52
10.85	16.89	0.55
11.17	18.16	0.58
11.5	19.69	0.6
11.84	21.15	0.64
12.19	22.64	0.67
12.54	24.15	0.69
12.9	26.05	0.72
13.27	27.73	0.76
13.62	29.2	0.79
14	30.77	0.81
14.37	32.66	0.85
14.76	34.61	0.9
15.15	36.54	0.94
15.54	38.53	0.98
15.93	40.73	1.03
16.33	42.86	1.07
16.73	45.13	1.13
17.14	47.47	1.17
17.55	50.06	1.22
17.96	52.23	1.27
18.38	54.54	1.31
18.8	57.35	1.37
19.22	60.01	1.42
19.64	62.44	1.46
20.07	64.94	0.71
20.82	69.26	0.74
21.88	75.83	0.8
22.96	82.96	0.82
23.84	88.48	0.81
24.93	94.96	0.79
26.04	100.6	0.8
27.16	106.9	0.8
28.28	112.7	0.8
29.42	118.7	0.8
30.55	124.6	0.8
31.7	130.3	0.8
32.85	135.5	0.8
34	140.4	0.9
35.16	146	0.9
36.32	150.8	0.9
37.49	156.8	0.9
38.66	161.7	0.9
39.84	166.2	1
41.02	170.8	1
42.23	175.9	1
43.42	180.1	1
44.61	185.1	1.1
45.8	190.6	1.1
47	196.1	1.1
48.19	202	1.2
49.39	207.2	1.2
50.59	211.8	1.2
51.69	215.8	1.2
53.08	222.3	1.2
54.44	227.1	1.2
55.65	231.3	1.3
56.87	234.7	1.3
58.08	239.9	1.3
59.3	245	1.3
60.52	249.2	0.9
61.74	253.9	0.9
62.96	259	1
64.18	263.6	1
65.41	268.8	1
66.63	273.3	1
67.85	277.8	1
69.08	281.6	1
70.31	285.1	1
71.93	291	1
73.57	297.2	1.1
74.57	300.2	1
76.45	305.5	1.1
78.81	313.5	1.1
81.16	321.6	1.1
83.17	328.4	1.2
85.17	334.8	1.2
87.18	339.7	1.2
89.18	345.9	1.2
91.18	352.2	1.2
93.18	357.7	1.2
95.17	363	1.2
99.17	372.1	1.2
102.02	380.2	1.2
104.99	387.6	1.3
107.98	395.2	1.3
110.97	403.8	1.3
113.97	412.3	1.3
116.97	420.4	1.4
119.98	427.3	1.4
122.99	434.6	1.4
126.01	440.5	1.4
129.03	447.9	1.4
132.06	454.5	1.5
135.08	462.2	1.5
138.11	469.6	1.5
141.15	475.1	1.5
144.19	481.1	1.5
147.26	487.2	1.6
150.31	493.3	1.6
153.35	498.9	1.6
156.4	504.2	1.6
159.46	510.3	1.6
162.51	515.8	1.6
165.57	521.4	1.7
168.62	525.4	1.7
171.68	532.2	1.7
174.74	537.1	1.7
177.81	542.2	1.7
180.87	546.4	1.7
183.94	551	1.7
187	555.3	1.8
190.07	559.9	1.8
193.14	565	1.8
196.26	569.1	1.8
199.33	574.1	1.8
202.41	577.4	1.8
205.49	581	1.8
209.06	587.2	1.9
213.16	592.4	1.9
217.26	597.7	1.9
221.36	603.3	1.9
225.46	608.7	1.9
229.56	613.8	1.9
233.66	619.4	2
237.77	624.2	2
241.87	630.4	2
245.98	634.2	2
250.08	638.7	2
254.19	643.7	2
258.37	648.6	2
262.47	652.7	2.1
266.57	656.5	2.1
270.68	662.1	2.1
274.78	665.6	2.1
278.88	669.2	2.1
282.98	673.2	2.1
287.08	676.3	2.1
291.17	680.3	2.1
295.25	684.9	2.2
299.33	690	2.2
304.12	695.9	2.2
310.17	700.4	2.2
316.9	704.9	2.2
323.6	710.5	2.2

System: cesium tungsten uranium oxide (Cs4W3U7O32); phases: Crystal
Fixed: Pressure, kPa = 101.325
Property: Molar heat capacity at constant pressure, J/K/mol (Crystal); method: Vacuum adiabatic calorimetry
Temperature, K	Molar heat capacity at constant pressure, J/K/mol	uncertainty
5	4.2	0.43
10	24.5	1
15	52.5	2
20	86.1	1.2
25	121.3	1.6
30	154.9	1.8
35	187	2.2
40	216.4	2.5
45	243.9	2.8
50	270.1	3
60	321.8	3.6
70	372.4	2.4
80	418.2	2.6
90	467.7	2.9
100	508.1	3.1
110	544.1	3.3
120	577.6	3.5
130	609.7	3.7
140	640.5	3.9
150	670.2	4.1
160	698.6	4.2
170	725.5	4.4
180	750.8	4.6
190	774.5	4.7
200	796.4	4.8
210	816.6	5
220	835.2	5.1
230	852.3	5.2
240	868.1	5.3
250	882.8	5.4
260	896.7	5.4
270	910	5.5
273.15	914.1	5.5
280	923.1	5.6
290	936.3	5.7
298.15	947.5	5.7
300	950.1	5.8
310	964.7	5.8
320	980.6	5.9

System: cesium tungsten uranium oxide (Cs4W3U7O32); phases: Crystal
Fixed: Pressure, kPa = 101.325
Property: Molar enthalpy, kJ/mol (Crystal); method: Vacuum adiabatic calorimetry
Temperature, K	Molar enthalpy, kJ/mol	uncertainty
5	0.0062	0.0014
10	0.073	0.004
15	0.26	0.01
20	0.61	0.01
25	1.13	0.02
30	1.82	0.03
35	2.68	0.04
40	3.68	0.05
45	4.84	0.06
50	6.12	0.07
60	9.08	0.11
70	12.6	0.1
80	16.5	0.1
90	20.9	0.1
100	25.8	0.2
110	31.1	0.2
120	36.7	0.2
130	42.6	0.3
140	48.9	0.3
150	55.5	0.3
160	62.3	0.4
170	69.4	0.4
180	76.8	0.5
190	84.4	0.5
200	92.3	0.6
210	100.4	0.6
220	108.6	0.7
230	117	0.7
240	125.7	0.8
250	134.4	0.8
260	143.3	0.9
270	152.3	0.9
273.15	155.2	0.9
280	161.5	1
290	170.8	1
298.15	178.5	1.1
300	180.2	1.1
310	189.8	1.2
320	199.5	1.2

System: cesium tungsten uranium oxide (Cs4W3U7O32); phases: Crystal
Fixed: Pressure, kPa = 101.325
Property: Molar entropy, J/K/mol (Crystal); method: Vacuum adiabatic calorimetry
Temperature, K	Molar entropy, J/K/mol	uncertainty
5	1.71	0.19
10	10.2	0.6
15	25.2	1.4
20	44.8	0.9
25	67.9	1.3
30	93	1.6
35	119.3	2.1
40	146.2	2.5
45	173.3	2.9
50	200.4	3.4
60	254.2	4.3
70	307.6	2.9
80	360.4	3.4
90	412.6	3.8
100	464	4.3
110	514.2	4.7
120	563	5.2
130	610.5	5.6
140	656.8	6
150	702	6.4
160	746.2	6.8
170	789.3	7.2
180	831.5	7.6
190	872.8	7.9
200	913.1	8.3
210	952.4	8.7
220	990.8	9
230	1028.4	9.4
240	1065	9.7
250	1100.7	10
260	1135.6	10.3
270	1169.7	10.6
273.15	1180.3	10.7
280	1203	10.9
290	1235.6	11.2
298.15	1261.8	11.5
300	1267.6	11.5
310	1299	11.8
320	1329.9	12.1

System: cesium tungsten uranium oxide (Cs4W3U7O32); phases: Crystal
Fixed: Pressure, kPa = 101.325
Property: Molar heat capacity at constant pressure, J/K/mol (Crystal); method: Vacuum adiabatic calorimetry
Temperature, K	Molar heat capacity at constant pressure, J/K/mol	uncertainty
4.81	3.69	0.31
4.9	3.99	0.3
5.03	4.3	0.32
5.11	4.5	0.33
5.23	4.83	0.33
5.36	5.22	0.34
5.51	5.67	0.34
5.68	6.19	0.35
5.86	6.78	0.36
6.05	7.45	0.38
6.25	8.15	0.39
6.42	8.8	0.4
6.61	9.48	0.42
6.79	10.17	0.44
6.98	10.88	0.45
7.17	11.59	0.48
7.35	12.28	0.49
7.54	12.98	0.5
7.73	13.84	0.51
7.92	14.58	0.54
8.12	15.68	0.55
8.31	16.59	0.58
8.52	17.23	0.59
8.72	18.09	0.61
8.92	19.22	0.64
9.13	20	0.64
9.33	21.11	0.66
9.54	22.13	0.69
9.75	23.28	0.71
9.97	24.41	0.73
10.27	25.75	0.77
10.66	27.67	0.8
11.05	29.84	0.84
11.44	32.33	0.9
11.84	34.41	0.93
12.24	36.62	0.97
12.65	39.02	1.01
13.05	41	1.04
13.46	43.47	1.1
13.88	45.66	1.14
14.29	48.26	1.19
14.7	50.53	1.25
15.12	52.99	1.29
15.53	55.68	1.35
15.95	58.27	1.4
16.37	60.83	1.45
16.79	63.55	1.52
17.21	66.32	1.58
17.63	69.42	1.65
18.05	72.24	1.7
18.47	75.31	1.76
18.9	78.25	1.81
19.32	81.28	1.88
19.75	83.97	1.94
20.17	87.58	0.93
20.92	93.24	0.96
21.98	100.9	1
23.05	108.4	1
24.14	115.8	1
25.23	123.1	1
26.34	129.8	1
27.45	137.3	1.1
28.57	145.2	1.1
29.7	152.7	1.1
30.83	160.4	1.1
31.74	167.1	1.1
32.97	175.3	1.1
34.12	182.9	1.1
35.28	189.2	1.1
36.44	195.7	1.2
37.6	201.8	1.2
38.77	208.3	1.2
39.94	214.7	1.2
41.12	220.7	1.3
42.31	228.6	1.3
44.03	238.8	1.4
45.38	246.1	1.4
46.58	253.1	1.5
47.78	260.7	1.5
48.98	267.1	1.5
50.18	272.9	1.5
51.39	277.8	1.5
52.59	283.5	1.6
53.8	289.9	1.6
55.01	294.9	1.6
56.22	301.3	1.6
57.43	306.1	1.7
58.65	313.4	1.7
59.86	319.9	1.8
61.08	326.5	1.2
62.3	334.3	1.2
63.55	340	1.3
64.92	347.8	1.3
66.37	355.9	1.3
67.59	362.1	1.3
68.82	367.4	1.3
70.05	373.6	1.3
71.67	380.1	1.3
73.69	388.1	1.4
75.71	397.4	1.4
77.73	408	1.5
78.87	413.1	1.5
81.28	425.8	1.5
83.28	437.3	1.5
85.29	445.9	1.6
87.29	454.3	1.6
89.29	462.8	1.6
91.29	471.6	1.6
93.29	480.8	1.6
95.29	490	1.6
97.28	498.8	1.6
99.27	505.3	1.6
101.75	515.9	1.7
104.73	526.7	1.7
107.72	536.6	1.7
110.72	547.2	1.8
113.71	558.6	1.8
116.73	565.9	1.8
119.74	575.6	1.8
122.75	586.5	1.9
125.76	596.5	1.9
128.78	606.1	1.9
131.8	615.9	2
134.82	624.5	2
137.85	634.2	2
140.88	643.3	2
143.91	651.6	2.1
146.94	660.7	2.1
149.98	669.7	2.1
153.02	678.2	2.1
156.06	686.2	2.2
159.11	694.4	2.2
162.16	702.9	2.2
165.24	711.9	2.2
168.28	720.3	2.3
171.33	728.7	2.3
174.38	737.4	2.3
177.43	744.7	2.3
180.48	752.6	2.4
183.53	761.6	2.4
186.58	768.2	2.4
189.63	775.4	2.4
192.68	781.9	2.5
195.74	789.1	2.5
198.79	796.3	2.5
201.84	801.2	2.5
204.89	806.3	2.5
208.44	813.8	2.6
212.5	820.3	2.6
216.61	828.9	2.6
220.67	834.8	2.6
224.73	840.9	2.6
228.78	850.8	2.7
232.83	857.5	2.7
236.88	862.9	2.7
240.94	870.5	2.7
244.98	874.1	2.7
249.03	879.4	2.8
253.06	885.4	2.8
257.09	892.8	2.8
261.12	898.2	2.8
265.14	903.2	2.8
269.15	907.8	2.8
273.16	914	2.9
277.16	919.6	2.9
281.14	926.7	2.9
285.12	931.9	2.9
289.09	935.4	2.9
293.04	941.1	2.9
296.98	946.5	3
300.91	951.6	3
305.42	957.5	3
310.46	965.8	3
315.14	972.8	4.9
319.92	980.2	3.1
324.69	987.7	3.1

Reaction: -3 tungsten + -4 cesium + -4 uranium + 1 cesium tungsten uranium oxide (Cs4W3U4O23) + -11.5 oxygen
Property: Molar enthalpy of reaction, kJ/mol
-9239

Reaction: -3 tungsten + -4 cesium + -7 uranium + 1 cesium tungsten uranium oxide (Cs4W3U7O32) + -16 oxygen
Property: Molar enthalpy of reaction, kJ/mol
-13008
