Measured thermophysical data. The thermodynamic properties of AOT/Dynol-604 mixed surfactant solutions
Source: J. Chem. Thermodyn., 2013, 10.1016/j.jct.2013.05.021
Compound 1: sodium bis(2-ethylhexyl) sulfosuccinate, C20H37NaO7S, InChI=1S/C20H38O7S.Na/c1-5-9-11-16(7-3)14-26-19(21)13-18(28(23,24)25)20(22)27-15-17(8-4)12-10-6-2;/h16-18H,5-15H2,1-4H3,(H,23,24,25);/q;+1/p-1, purity 99%
Compound 2: water, H2O, InChI=1S/H2O/h1H2, purity 99.8%

System: water; phases: Liquid
Property: Mass density, kg/m3 (Liquid); method: Vibrating tube method
Pressure, kPa	Temperature, K	Mass density, kg/m3	uncertainty
101	298.15	997.056	0.117

System: sodium bis(2-ethylhexyl) sulfosuccinate + water; phases: Liquid
Fixed: Pressure, kPa = 101
Fixed: Temperature, K = 298.15
Property: Mass density, kg/m3 (Liquid); method: Vibrating tube method
Molality, mol/kg of sodium bis(2-ethylhexyl) sulfosuccinate	Mass density, kg/m3	uncertainty
0	997.056	0.117
0.0010384	997.137	0.117
0.0012629	997.155	0.117
0.0013979	997.165	0.117
0.0015624	997.178	0.117
0.0017401	997.192	0.117
0.0019625	997.209	0.117
0.0021971	997.227	0.117
0.0024057	997.243	0.117
0.0026746	997.26	0.117
0.0029762	997.277	0.117
0.0032617	997.296	0.117
0.0036921	997.326	0.117
0.0040722	997.349	0.117
0.0044255	997.371	0.117
0.0048897	997.398	0.117
