Measured thermophysical data. Thermophysical study of 1,4-dioxane with cycloalkane mixtures
Source: J. Chem. Thermodyn., 2006, 10.1016/j.jct.2005.09.004
Compound 1: 1,4-dioxane, C4H8O2, InChI=1S/C4H8O2/c1-2-6-4-3-5-1/h1-4H2, purity 99.9%
Compound 2: cyclopentane, C5H10, InChI=1S/C5H10/c1-2-4-5-3-1/h1-5H2, purity 99%
Compound 3: cyclohexane, C6H12, InChI=1S/C6H12/c1-2-4-6-5-3-1/h1-6H2, purity 99.9%

System: 1,4-dioxane; phases: Liquid, Air at 1 atmosphere
Property: Surface tension liquid-gas, N/m (Liquid); method: Drop volume
Temperature, K	Surface tension liquid-gas, N/m	uncertainty
283.15	0.03509	0.00039
298.15	0.03323	0.00037
313.15	0.03123	0.00035

System: 1,4-dioxane; phases: Liquid
Fixed: Pressure, kPa = 101.325
Property: Refractive index (Na D-line) (Liquid); method: Standard Abbe refractometry
Temperature, K	Refractive index (Na D-line)	uncertainty
283.15	1.427212	0.000311
298.15	1.419924	0.000311
313.15	1.412559	0.000311

System: 1,4-dioxane; phases: Liquid
Fixed: Pressure, kPa = 101.325
Property: Mass density, kg/m3 (Liquid); method: VIBTUB:UFactor:2
Temperature, K	Mass density, kg/m3	uncertainty
283.15	1045.16	0.14
298.15	1027.85	0.12
313.15	1010.99	0.11

System: cyclopentane; phases: Liquid, Air at 1 atmosphere
Property: Surface tension liquid-gas, N/m (Liquid); method: Drop volume
Temperature, K	Surface tension liquid-gas, N/m	uncertainty
283.15	0.02414	0.0003
298.15	0.02206	0.00028
313.15	0.01976	0.00025

System: cyclopentane; phases: Liquid
Fixed: Pressure, kPa = 101.325
Property: Refractive index (Na D-line) (Liquid); method: Standard Abbe refractometry
Temperature, K	Refractive index (Na D-line)	uncertainty
283.15	1.411975	0.000369
298.15	1.403355	0.000369
313.15	1.394514	0.000369

System: cyclopentane; phases: Liquid
Fixed: Pressure, kPa = 101.325
Property: Mass density, kg/m3 (Liquid); method: VIBTUB:UFactor:4
Temperature, K	Mass density, kg/m3	uncertainty
283.15	754.85	0.77
298.15	739.74	0.79
313.15	724.71	0.81

System: cyclohexane; phases: Liquid, Air at 1 atmosphere
Property: Surface tension liquid-gas, N/m (Liquid); method: Drop volume
Temperature, K	Surface tension liquid-gas, N/m	uncertainty
283.15	0.02628	0.0003
298.15	0.02473	0.00028
313.15	0.02293	0.00026

System: cyclohexane; phases: Liquid
Fixed: Pressure, kPa = 101.325
Property: Refractive index (Na D-line) (Liquid); method: Standard Abbe refractometry
Temperature, K	Refractive index (Na D-line)	uncertainty
283.15	1.431821	0.000311
298.15	1.423477	0.000311
313.15	1.41498	0.000311

System: cyclohexane; phases: Liquid
Fixed: Pressure, kPa = 101.325
Property: Mass density, kg/m3 (Liquid); method: VIBTUB:UFactor:2
Temperature, K	Mass density, kg/m3	uncertainty
283.15	787.97	0.3
298.15	773.65	0.32
313.15	759.59	0.33

System: 1,4-dioxane + cyclopentane; phases: Liquid, Air at 1 atmosphere
Property: Surface tension liquid-gas, N/m (Liquid); method: Drop volume
Temperature, K	Mole fraction of 1,4-dioxane	Surface tension liquid-gas, N/m	uncertainty
283.15	0.0615	0.0244	0.0003
283.15	0.121	0.02458	0.0003
283.15	0.1824	0.02476	0.0003
283.15	0.2656	0.02504	0.0003
283.15	0.4058	0.02563	0.0003
283.15	0.5313	0.0264	0.0003
283.15	0.6376	0.02735	0.00031
283.15	0.7264	0.02844	0.00032
283.15	0.806	0.02974	0.00033
283.15	0.902	0.03192	0.00035
283.15	0.9642	0.03379	0.00037
298.15	0.0615	0.02237	0.00028
298.15	0.121	0.02256	0.00028
298.15	0.1824	0.02274	0.00028
298.15	0.2656	0.02301	0.00028
298.15	0.4058	0.02366	0.00028
298.15	0.5313	0.02456	0.00029
298.15	0.6376	0.02557	0.00029
298.15	0.7264	0.02668	0.0003
298.15	0.806	0.02793	0.00031
298.15	0.902	0.03003	0.00033
298.15	0.9642	0.0319	0.00035
313.15	0.0615	0.02014	0.00025
313.15	0.121	0.02045	0.00025
313.15	0.1824	0.02077	0.00026
313.15	0.2656	0.02115	0.00026
313.15	0.4058	0.02183	0.00026
313.15	0.5313	0.02262	0.00027
313.15	0.6376	0.02359	0.00027
313.15	0.7264	0.02472	0.00028
313.15	0.806	0.02605	0.0003
313.15	0.902	0.02824	0.00032
313.15	0.9642	0.03003	0.00033

System: 1,4-dioxane + cyclopentane; phases: Liquid
Fixed: Pressure, kPa = 101
Property: Refractive index (Na D-line) (Liquid); method: Standard Abbe refractometry
Temperature, K	Volume fraction of 1,4-dioxane	Refractive index (Na D-line)	uncertainty
283.15	0.0438	1.41192	0.000365
283.15	0.087	1.412011	0.000361
283.15	0.1787	1.412661	0.000353
283.15	0.2781	1.413809	0.000344
283.15	0.3694	1.415108	0.000338
283.15	0.4754	1.416863	0.00033
283.15	0.5928	1.418539	0.000324
283.15	0.7068	1.420796	0.000318
283.15	0.7975	1.422712	0.000315
283.15	0.9083	1.425171	0.000312
283.15	0.9568	1.426208	0.000311
298.15	0.0401	1.403317	0.000365
298.15	0.0979	1.403581	0.00036
298.15	0.1873	1.404295	0.000352
298.15	0.2827	1.405564	0.000344
298.15	0.3727	1.406976	0.000337
298.15	0.4709	1.408735	0.000331
298.15	0.5703	1.410643	0.000325
298.15	0.6847	1.413034	0.000319
298.15	0.785	1.415171	0.000316
298.15	0.8986	1.417719	0.000312
298.15	0.9436	1.418672	0.000311
313.15	0.0434	1.394546	0.000365
313.15	0.0858	1.394766	0.000361
313.15	0.181	1.395596	0.000352
313.15	0.2747	1.396906	0.000345
313.15	0.3702	1.398504	0.000338
313.15	0.472	1.400516	0.000331
313.15	0.5688	1.402587	0.000325
313.15	0.6767	1.405018	0.00032
313.15	0.7759	1.407287	0.000316
313.15	0.8977	1.410183	0.000312
313.15	0.933	1.411049	0.000312

System: 1,4-dioxane + cyclopentane; phases: Liquid
Fixed: Pressure, kPa = 101
Property: Mass density, kg/m3 (Liquid); method: VIBTUB:UFactor:4
Temperature, K	Mole fraction of 1,4-dioxane	Mass density, kg/m3	uncertainty
283.15	0.0516	766.94	0.61
283.15	0.095	777.38	0.6
283.15	0.1944	802.55	0.55
283.15	0.2987	830.28	0.5
283.15	0.3973	857.59	0.45
283.15	0.499	886.71	0.39
283.15	0.6003	916.64	0.34
283.15	0.7063	949.05	0.28
283.15	0.8072	980.93	0.22
283.15	0.9076	1013.82	0.19
283.15	0.9528	1029.04	0.2
298.15	0.0488	751.07	0.63
298.15	0.0945	762.02	0.61
298.15	0.1818	783.72	0.57
298.15	0.2983	814.38	0.51
298.15	0.3959	841.12	0.47
298.15	0.4962	869.6	0.41
298.15	0.6067	902	0.35
298.15	0.7034	931.45	0.3
298.15	0.811	965.2	0.23
298.15	0.9025	995.13	0.18
298.15	0.9506	1011.12	0.17
313.15	0.0449	734.98	0.65
313.15	0.094	746.73	0.63
313.15	0.195	771.73	0.58
313.15	0.2962	798.13	0.53
313.15	0.3969	825.52	0.48
313.15	0.4983	854.12	0.43
313.15	0.5994	883.66	0.37
313.15	0.6987	913.64	0.32
313.15	0.8026	946.08	0.26
313.15	0.9066	979.72	0.19
313.15	0.9482	993.49	0.17

System: cyclohexane + 1,4-dioxane; phases: Liquid, Air at 1 atmosphere
Property: Surface tension liquid-gas, N/m (Liquid); method: Drop volume
Temperature, K	Mole fraction of 1,4-dioxane	Surface tension liquid-gas, N/m	uncertainty
283.15	0.0684	0.0261	0.00029
283.15	0.1484	0.02594	0.00029
283.15	0.2267	0.02585	0.00029
283.15	0.2974	0.02597	0.00029
283.15	0.4402	0.0262	0.0003
283.15	0.5509	0.02651	0.0003
283.15	0.6578	0.02708	0.0003
283.15	0.7394	0.02797	0.00031
283.15	0.8115	0.0293	0.00033
283.15	0.9186	0.032	0.00035
283.15	0.9738	0.03393	0.00037
298.15	0.0684	0.0251	0.00028
298.15	0.1484	0.02524	0.00029
298.15	0.2267	0.02529	0.00029
298.15	0.2974	0.02538	0.00029
298.15	0.4402	0.02572	0.00029
298.15	0.5509	0.02607	0.00029
298.15	0.6578	0.02662	0.0003
298.15	0.7394	0.0271	0.0003
298.15	0.8115	0.028	0.00031
298.15	0.9186	0.03026	0.00034
298.15	0.9738	0.03199	0.00035
313.15	0.0684	0.0238	0.00027
313.15	0.1484	0.02423	0.00028
313.15	0.2267	0.02446	0.00028
313.15	0.2974	0.02471	0.00028
313.15	0.4402	0.02523	0.00029
313.15	0.5509	0.0257	0.00029
313.15	0.6578	0.0262	0.0003
313.15	0.7394	0.02662	0.0003
313.15	0.8115	0.02713	0.0003
313.15	0.9186	0.02862	0.00032
313.15	0.9738	0.03017	0.00034

System: cyclohexane + 1,4-dioxane; phases: Liquid
Fixed: Pressure, kPa = 101
Property: Refractive index (Na D-line) (Liquid); method: Standard Abbe refractometry
Temperature, K	Volume fraction of 1,4-dioxane	Refractive index (Na D-line)	uncertainty
283.15	0.0478	1.430496	0.000311
283.15	0.075	1.429867	0.000311
283.15	0.1601	1.42827	0.000311
283.15	0.251	1.427097	0.000311
283.15	0.3438	1.42629	0.000311
283.15	0.4452	1.425768	0.000311
283.15	0.5448	1.425567	0.000311
283.15	0.649	1.42556	0.000311
283.15	0.756	1.425845	0.000311
283.15	0.8802	1.426428	0.000311
283.15	0.9414	1.426804	0.000311
298.15	0.0319	1.4226	0.000311
298.15	0.0849	1.42144	0.000311
298.15	0.1562	1.420117	0.000311
298.15	0.2528	1.418932	0.000311
298.15	0.3465	1.41821	0.000311
298.15	0.4415	1.417803	0.000311
298.15	0.5389	1.417697	0.000311
298.15	0.651	1.417858	0.000311
298.15	0.7604	1.418275	0.000311
298.15	0.8701	1.418928	0.000311
298.15	0.9439	1.419486	0.000311
313.15	0.0381	1.414044	0.000311
313.15	0.0816	1.413078	0.000311
313.15	0.1625	1.411678	0.000311
313.15	0.268	1.410546	0.000311
313.15	0.3476	1.410023	0.000311
313.15	0.4399	1.409726	0.000311
313.15	0.5368	1.409714	0.000311
313.15	0.6463	1.410035	0.000311
313.15	0.7626	1.410686	0.000311
313.15	0.8682	1.411428	0.000311
313.15	0.9462	1.412099	0.000311

System: cyclohexane + 1,4-dioxane; phases: Liquid
Fixed: Pressure, kPa = 101
Property: Mass density, kg/m3 (Liquid); method: VIBTUB:UFactor:2
Temperature, K	Mole fraction of 1,4-dioxane	Mass density, kg/m3	uncertainty
283.15	0.0502	796.53	0.23
283.15	0.0999	805.45	0.22
283.15	0.1953	823.9	0.21
283.15	0.2899	843.69	0.2
283.15	0.3996	868.5	0.18
283.15	0.5017	893.36	0.16
283.15	0.6007	919.28	0.15
283.15	0.699	946.87	0.13
283.15	0.7956	976.06	0.12
283.15	0.8994	1009.7	0.11
283.15	0.9446	1025.26	0.12
298.15	0.0535	782.54	0.24
298.15	0.1053	791.71	0.23
298.15	0.1998	809.79	0.22
298.15	0.3003	830.58	0.2
298.15	0.4026	853.43	0.19
298.15	0.5006	876.98	0.17
298.15	0.5971	901.85	0.16
298.15	0.7028	931.22	0.14
298.15	0.8089	963.35	0.12
298.15	0.9038	994.24	0.11
298.15	0.9485	1009.6	0.11
313.15	0.0497	767.71	0.25
313.15	0.102	776.79	0.24
313.15	0.1944	794	0.23
313.15	0.2926	813.99	0.22
313.15	0.3973	837	0.2
313.15	0.4969	860.64	0.18
313.15	0.5992	886.73	0.17
313.15	0.6988	914.22	0.15
313.15	0.7966	943.29	0.13
313.15	0.8972	975.49	0.12
313.15	0.9505	993.41	0.11
