Measured thermophysical data. Solubility of clopidogrel hydrogen sulfate polymorphs in ethyl acetate + 2-butanol mixtures at 283.15-313.15 K
Source: J. Chem. Thermodyn., 2019, 10.1016/j.jct.2019.06.021
Compound 1: (S)-(+)-Clopidogrel hydrogen sulfate, C16H18ClNO6S2, InChI=1S/C16H16ClNO2S.H2O4S/c1-20-16(19)15(12-4-2-3-5-13(12)17)18-8-6-14-11(10-18)7-9-21-14;1-5(2,3)4/h2-5,7,9,15H,6,8,10H2,1H3;(H2,1,2,3,4)/t15-;/m0./s1, purity 99%
Compound 2: butan-2-ol, C4H10O, InChI=1S/C4H10O/c1-3-4(2)5/h4-5H,3H2,1-2H3, purity 99.7%
Compound 3: ethyl acetate, C4H8O2, InChI=1S/C4H8O2/c1-3-6-4(2)5/h3H2,1-2H3, purity 99.7%

System: (S)-(+)-Clopidogrel hydrogen sulfate; phases: Crystal 2, Liquid, Air at 1 atmosphere
Property: Triple point temperature, K (Crystal 2); method: DSC
Triple point temperature, K	uncertainty
451.05	0.81

System: (S)-(+)-Clopidogrel hydrogen sulfate; phases: Crystal 2, Liquid, Air at 1 atmosphere
Property: Molar enthalpy of transition or fusion, kJ/mol (Crystal 2); method: DSC
Molar enthalpy of transition or fusion, kJ/mol	uncertainty
35.18	1.67

System: (S)-(+)-Clopidogrel hydrogen sulfate; phases: Crystal 1, Liquid, Air at 1 atmosphere
Property: Triple point temperature, K (Crystal 1); method: DSC
Triple point temperature, K	uncertainty
454.52	0.81

System: (S)-(+)-Clopidogrel hydrogen sulfate; phases: Crystal 1, Liquid, Air at 1 atmosphere
Property: Molar enthalpy of transition or fusion, kJ/mol (Crystal 1); method: DSC
Molar enthalpy of transition or fusion, kJ/mol	uncertainty
30.9	1.73

System: (S)-(+)-Clopidogrel hydrogen sulfate + butan-2-ol + ethyl acetate; phases: Liquid, Crystal 1
Fixed: Pressure, kPa = 100
Property: Mole fraction of (S)-(+)-Clopidogrel hydrogen sulfate (Liquid); method: gravimetric method
Temperature, K	Solvent: Mole fraction of butan-2-ol	Mole fraction of (S)-(+)-Clopidogrel hydrogen sulfate	uncertainty
283.15	0	3.12e-05	8.6e-06
283.15	0.1	0.0001353	2.66e-05
283.15	0.2	0.0002595	5.09e-05
283.15	0.3	0.0003743	7.34e-05
283.15	0.4	0.0005087	9.97e-05
283.15	0.5	0.0006633	0.00013
283.15	0.6	0.0007067	0.0001386
283.15	0.7	0.0007062	0.0001385
283.15	0.8	0.0006267	0.0001229
283.15	0.9	0.0005029	9.86e-05
283.15	1	0.0004646	9.11e-05
293.15	0	7.45e-05	2.06e-05
293.15	0.1	0.0002275	4.46e-05
293.15	0.2	0.0003947	7.74e-05
293.15	0.3	0.0006466	0.0001268
293.15	0.4	0.0007495	0.0001469
293.15	0.5	0.000894	0.0001753
293.15	0.6	0.001105	0.000217
293.15	0.7	0.001087	0.000213
293.15	0.8	0.0008988	0.0001762
293.15	0.9	0.0008287	0.0001625
293.15	1	0.0006458	0.0001266
298.15	0	0.0001213	3.35e-05
298.15	0.1	0.0003128	6.14e-05
298.15	0.2	0.0005495	0.0001078
298.15	0.3	0.0007844	0.0001538
298.15	0.4	0.000948	0.0001859
298.15	0.5	0.001222	0.00024
298.15	0.6	0.00125	0.000245
298.15	0.7	0.001273	0.00025
298.15	0.8	0.001098	0.000215
298.15	0.9	0.00102	0.0002
298.15	1	0.0007982	0.0001565
303.15	0	0.0001682	4.65e-05
303.15	0.1	0.0004045	7.94e-05
303.15	0.2	0.0007087	0.000139
303.15	0.3	0.0008784	0.0001723
303.15	0.4	0.001176	0.000231
303.15	0.5	0.001465	0.000287
303.15	0.6	0.001498	0.000294
303.15	0.7	0.001543	0.000303
303.15	0.8	0.001265	0.000248
303.15	0.9	0.0012	0.000235
303.15	1	0.00104	0.000204
313.15	0	0.0003823	0.0001055
313.15	0.1	0.0006849	0.0001343
313.15	0.2	0.0009973	0.0001955
313.15	0.3	0.00145	0.000284
313.15	0.4	0.001826	0.000358
313.15	0.5	0.002384	0.000467
313.15	0.6	0.002452	0.000481
313.15	0.7	0.002427	0.000476
313.15	0.8	0.001887	0.00037
313.15	0.9	0.00178	0.000349
313.15	1	0.00166	0.000325

System: (S)-(+)-Clopidogrel hydrogen sulfate + butan-2-ol + ethyl acetate; phases: Liquid, Crystal 2
Fixed: Pressure, kPa = 100
Property: Mole fraction of (S)-(+)-Clopidogrel hydrogen sulfate (Liquid); method: gravimetric method
Temperature, K	Solvent: Mole fraction of butan-2-ol	Mole fraction of (S)-(+)-Clopidogrel hydrogen sulfate	uncertainty
283.15	0	2.63e-05	6.1e-06
283.15	0.1	0.0001208	1.96e-05
283.15	0.2	0.0002499	4.05e-05
283.15	0.3	0.0003204	5.19e-05
283.15	0.4	0.0003511	5.69e-05
283.15	0.5	0.00041	6.65e-05
283.15	0.6	0.0004732	7.67e-05
283.15	0.7	0.0005313	8.61e-05
283.15	0.8	0.0004733	7.67e-05
283.15	0.9	0.0004445	7.2e-05
283.15	1	0.0003642	5.9e-05
293.15	0	5.44e-05	1.25e-05
293.15	0.1	0.0001994	3.24e-05
293.15	0.2	0.0003748	6.07e-05
293.15	0.3	0.0004397	7.13e-05
293.15	0.4	0.0005438	8.81e-05
293.15	0.5	0.0006481	0.000105
293.15	0.6	0.0007012	0.0001136
293.15	0.7	0.0007673	0.0001243
293.15	0.8	0.0007112	0.0001152
293.15	0.9	0.0006162	9.99e-05
293.15	1	0.0005278	8.55e-05
298.15	0	9.51e-05	2.19e-05
298.15	0.1	0.0002315	3.76e-05
298.15	0.2	0.0004185	6.78e-05
298.15	0.3	0.0005262	8.53e-05
298.15	0.4	0.0006826	0.0001106
298.15	0.5	0.0007733	0.0001253
298.15	0.6	0.0008541	0.0001384
298.15	0.7	0.0009632	0.0001561
298.15	0.8	0.0008177	0.0001325
298.15	0.9	0.00071	0.0001151
298.15	1	0.0006119	9.92e-05
303.15	0	0.0001258	2.9e-05
303.15	0.1	0.0003011	4.89e-05
303.15	0.2	0.0005114	8.29e-05
303.15	0.3	0.000789	0.0001279
303.15	0.4	0.0008005	0.0001298
303.15	0.5	0.0009087	0.0001473
303.15	0.6	0.00105	0.00017
303.15	0.7	0.001112	0.00018
303.15	0.8	0.001015	0.000165
303.15	0.9	0.0009145	0.0001482
303.15	1	0.0007525	0.000122
313.15	0	0.0002392	5.5e-05
313.15	0.1	0.000533	8.64e-05
313.15	0.2	0.0007601	0.0001232
313.15	0.3	0.001099	0.000178
313.15	0.4	0.00133	0.000216
313.15	0.5	0.001341	0.000217
313.15	0.6	0.001482	0.00024
313.15	0.7	0.00161	0.000261
313.15	0.8	0.001543	0.00025
313.15	0.9	0.001341	0.000217
313.15	1	0.001187	0.000192

System: (S)-(+)-Clopidogrel hydrogen sulfate + ethyl acetate; phases: Liquid, Crystal 1
Fixed: Pressure, kPa = 100
Property: Mole fraction of (S)-(+)-Clopidogrel hydrogen sulfate (Liquid); method: gravimetric method
Temperature, K	Mole fraction of (S)-(+)-Clopidogrel hydrogen sulfate	uncertainty
283.15	3.12e-05	8.6e-06
293.15	7.45e-05	2.06e-05
298.15	0.0001213	3.35e-05
303.15	0.0001682	4.65e-05
313.15	0.0003823	0.0001055

System: (S)-(+)-Clopidogrel hydrogen sulfate + ethyl acetate; phases: Liquid, Crystal 2
Fixed: Pressure, kPa = 100
Property: Mole fraction of (S)-(+)-Clopidogrel hydrogen sulfate (Liquid); method: gravimetric method
Temperature, K	Mole fraction of (S)-(+)-Clopidogrel hydrogen sulfate	uncertainty
283.15	2.63e-05	6.1e-06
293.15	5.44e-05	1.25e-05
298.15	9.51e-05	2.19e-05
303.15	0.0001258	2.9e-05
313.15	0.0002392	5.5e-05

System: (S)-(+)-Clopidogrel hydrogen sulfate + butan-2-ol; phases: Liquid, Crystal 1
Fixed: Pressure, kPa = 100
Property: Mole fraction of (S)-(+)-Clopidogrel hydrogen sulfate (Liquid); method: gravimetric method
Temperature, K	Mole fraction of (S)-(+)-Clopidogrel hydrogen sulfate	uncertainty
283.15	0.0004646	9.11e-05
293.15	0.0006458	0.0001266
298.15	0.0007982	0.0001565
303.15	0.00104	0.000204
313.15	0.00166	0.000325

System: (S)-(+)-Clopidogrel hydrogen sulfate + butan-2-ol; phases: Liquid, Crystal 2
Fixed: Pressure, kPa = 100
Property: Mole fraction of (S)-(+)-Clopidogrel hydrogen sulfate (Liquid); method: gravimetric method
Temperature, K	Mole fraction of (S)-(+)-Clopidogrel hydrogen sulfate	uncertainty
283.15	0.0003642	5.9e-05
293.15	0.0005278	8.55e-05
298.15	0.0006119	9.92e-05
303.15	0.0007525	0.000122
313.15	0.001187	0.000192
