Measured thermophysical data. Temperature dependence measurements and molecular interactions for ammonium ionic liquid with N-methyl-2-pyrrolidone
Source: J. Chem. Thermodyn., 2012, 10.1016/j.jct.2012.03.034
Compound 1: diethylammonium acetate, C6H15NO2, InChI=1S/C4H11N.C2H4O2/c1-3-5-4-2;1-2(3)4/h5H,3-4H2,1-2H3;1H3,(H,3,4)
Compound 2: N-methylpyrrolidone, C5H9NO, InChI=1S/C5H9NO/c1-6-4-2-3-5(6)7/h2-4H2,1H3, purity 99%
Compound 3: triethylammonium acetate, C8H19NO2, InChI=1S/C6H15N.C2H4O2/c1-4-7(5-2)6-3;1-2(3)4/h4-6H2,1-3H3;1H3,(H,3,4)
Compound 4: diethylammonium hydrogen sulfate, C4H13NO4S, InChI=1S/C4H11N.H2O4S/c1-3-5-4-2;1-5(2,3)4/h5H,3-4H2,1-2H3;(H2,1,2,3,4)
Compound 5: triethylammonium hydrogen sulfate, C6H17NO4S, InChI=1S/C6H15N.H2O4S/c1-4-7(5-2)6-3;1-5(2,3)4/h4-6H2,1-3H3;(H2,1,2,3,4)

System: diethylammonium acetate; phases: Liquid
Property: Mass density, kg/m3 (Liquid); method: Vibrating tube method
Temperature, K	Pressure, kPa	Mass density, kg/m3	uncertainty
298.15	101.325	1021.41	0.32

System: diethylammonium acetate; phases: Liquid
Property: Viscosity, Pa*s (Liquid); method: dual vibrating plate viscometer, AandD Co. Ltd Model SV-10
Temperature, K	Pressure, kPa	Viscosity, Pa*s	uncertainty
298.15	101.325	0.01636	0.00023

System: diethylammonium acetate; phases: Liquid
Property: Speed of sound, m/s (Liquid); method: Linear variable-path acoustic interferometer
Temperature, K	Pressure, kPa	Speed of sound, m/s	uncertainty
298.15	101.325	1608	2

System: N-methylpyrrolidone; phases: Liquid
Property: Mass density, kg/m3 (Liquid); method: Vibrating tube method
Temperature, K	Pressure, kPa	Mass density, kg/m3	uncertainty
298.15	101.325	1025.9	0.31

System: N-methylpyrrolidone; phases: Liquid
Property: Viscosity, Pa*s (Liquid); method: dual vibrating plate viscometer, AandD Co. Ltd Model SV-10
Temperature, K	Pressure, kPa	Viscosity, Pa*s	uncertainty
298.15	101.325	0.00166	3e-05

System: N-methylpyrrolidone; phases: Liquid
Property: Speed of sound, m/s (Liquid); method: Linear variable-path acoustic interferometer
Temperature, K	Pressure, kPa	Speed of sound, m/s	uncertainty
298.15	101.325	1552	2

System: triethylammonium acetate; phases: Liquid
Property: Mass density, kg/m3 (Liquid); method: Vibrating tube method
Temperature, K	Pressure, kPa	Mass density, kg/m3	uncertainty
298.15	101.325	1015.86	0.32

System: triethylammonium acetate; phases: Liquid
Property: Viscosity, Pa*s (Liquid); method: dual vibrating plate viscometer, AandD Co. Ltd Model SV-10
Temperature, K	Pressure, kPa	Viscosity, Pa*s	uncertainty
298.15	101.325	0.02414	0.00039

System: triethylammonium acetate; phases: Liquid
Property: Speed of sound, m/s (Liquid); method: Linear variable-path acoustic interferometer
Temperature, K	Pressure, kPa	Speed of sound, m/s	uncertainty
298.15	101.325	1840	2

System: diethylammonium hydrogen sulfate; phases: Liquid
Property: Mass density, kg/m3 (Liquid); method: Vibrating tube method
Temperature, K	Pressure, kPa	Mass density, kg/m3	uncertainty
298.15	101.325	1283.95	0.61

System: diethylammonium hydrogen sulfate; phases: Liquid
Property: Viscosity, Pa*s (Liquid); method: dual vibrating plate viscometer, AandD Co. Ltd Model SV-10
Temperature, K	Pressure, kPa	Viscosity, Pa*s	uncertainty
298.15	101.325	0.0341	0.00063

System: diethylammonium hydrogen sulfate; phases: Liquid
Property: Speed of sound, m/s (Liquid); method: Linear variable-path acoustic interferometer
Temperature, K	Pressure, kPa	Speed of sound, m/s	uncertainty
298.15	101.325	1432	2

System: triethylammonium hydrogen sulfate; phases: Liquid
Property: Mass density, kg/m3 (Liquid); method: Vibrating tube method
Temperature, K	Pressure, kPa	Mass density, kg/m3	uncertainty
298.15	101.325	1142.89	0.45

System: triethylammonium hydrogen sulfate; phases: Liquid
Property: Viscosity, Pa*s (Liquid); method: dual vibrating plate viscometer, AandD Co. Ltd Model SV-10
Temperature, K	Pressure, kPa	Viscosity, Pa*s	uncertainty
298.15	101.325	0.235	0.01322

System: triethylammonium hydrogen sulfate; phases: Liquid
Property: Speed of sound, m/s (Liquid); method: Linear variable-path acoustic interferometer
Temperature, K	Pressure, kPa	Speed of sound, m/s	uncertainty
298.15	101.325	1874	2

System: N-methylpyrrolidone + diethylammonium acetate; phases: Liquid
Fixed: Pressure, kPa = 101
Property: Viscosity, Pa*s (Liquid); method: dual vibrating plate viscometer, AandD Co. Ltd Model SV-10
Temperature, K	Mole fraction of diethylammonium acetate	Viscosity, Pa*s	uncertainty
298.15	0	0.00166	3e-05
298.15	0.0234	0.00183	4e-05
298.15	0.0473	0.00182	4e-05
298.15	0.1188	0.00226	5e-05
298.15	0.1668	0.00267	6e-05
298.15	0.2393	0.00357	8e-05
298.15	0.3616	0.00562	0.00012
298.15	0.411	0.00649	0.00014
298.15	0.4856	0.00794	0.00017
298.15	0.6115	0.01053	0.00022
298.15	0.7391	0.01314	0.00027
298.15	0.8686	0.01533	0.00032
298.15	0.9493	0.01626	0.00034
298.15	0.9758	0.01641	0.00034
298.15	1	0.01636	0.00034
303.15	0	0.00149	3e-05
303.15	0.0234	0.0016	3e-05
303.15	0.0473	0.00166	3e-05
303.15	0.1188	0.00203	4e-05
303.15	0.1668	0.00234	5e-05
303.15	0.2393	0.00309	7e-05
303.15	0.3616	0.00489	0.0001
303.15	0.411	0.0056	0.00012
303.15	0.4856	0.00688	0.00014
303.15	0.6115	0.00913	0.00019
303.15	0.7391	0.0113	0.00023
303.15	0.8686	0.01305	0.00027
303.15	0.9493	0.01374	0.00028
303.15	0.9758	0.01382	0.00029
303.15	1	0.01364	0.00028
308.15	0	0.00139	3e-05
308.15	0.0234	0.00148	3e-05
308.15	0.0473	0.00167	4e-05
308.15	0.1188	0.00187	4e-05
308.15	0.1668	0.00215	5e-05
308.15	0.2393	0.00284	6e-05
308.15	0.3616	0.00445	9e-05
308.15	0.411	0.0051	0.00011
308.15	0.4856	0.00624	0.00013
308.15	0.6115	0.00823	0.00017
308.15	0.7391	0.01018	0.00021
308.15	0.8686	0.01158	0.00024
308.15	0.9493	0.0121	0.00025
308.15	0.9758	0.01216	0.00025
308.15	1	0.01183	0.00024
313.15	0	0.00131	3e-05
313.15	0.0234	0.00137	3e-05
313.15	0.0473	0.00144	3e-05
313.15	0.1188	0.00175	4e-05
313.15	0.1668	0.00198	4e-05
313.15	0.2393	0.00261	6e-05
313.15	0.3616	0.00405	8e-05
313.15	0.411	0.00466	0.0001
313.15	0.4856	0.00567	0.00012
313.15	0.6115	0.00742	0.00015
313.15	0.7391	0.00906	0.00019
313.15	0.8686	0.01026	0.00021
313.15	0.9493	0.01062	0.00022
313.15	0.9758	0.01057	0.00022
313.15	1	0.01002	0.00021

System: N-methylpyrrolidone + diethylammonium acetate; phases: Liquid
Fixed: Pressure, kPa = 101
Property: Speed of sound, m/s (Liquid); method: Linear variable-path acoustic interferometer
Temperature, K	Mole fraction of diethylammonium acetate	Speed of sound, m/s	uncertainty
298.15	0	1572	2
298.15	0.0234	1570	2
298.15	0.0473	1570	2
298.15	0.1188	1576	2
298.15	0.1668	1575	2
298.15	0.2393	1563	2
298.15	0.3616	1527	2
298.15	0.411	1510	2
298.15	0.4856	1487	2
298.15	0.6115	1458	2
298.15	0.7391	1454	2
298.15	0.8686	1486	2
298.15	0.9493	1539	2
298.15	0.9758	1562	3
298.15	1	1608	2
303.15	0	1552	2
303.15	0.0234	1555	2
303.15	0.0473	1557	2
303.15	0.1188	1563	2
303.15	0.1668	1565	2
303.15	0.2393	1556	2
303.15	0.3616	1523	2
303.15	0.411	1508	2
303.15	0.4856	1488	2
303.15	0.6115	1460	2
303.15	0.7391	1458	2
303.15	0.8686	1494	2
303.15	0.9493	1552	2
303.15	0.9758	1574	2
303.15	1	1612	2
308.15	0	1528	2
308.15	0.0234	1531	2
308.15	0.0473	1536	2
308.15	0.1188	1546	2
308.15	0.1668	1548	2
308.15	0.2393	1542	2
308.15	0.3616	1514	2
308.15	0.411	1502	2
308.15	0.4856	1484	2
308.15	0.6115	1462	2
308.15	0.7391	1463	2
308.15	0.8686	1501	2
308.15	0.9493	1555	2
308.15	0.9758	1580	2
308.15	1	1616	2
313.15	0	1520	2
313.15	0.0234	1527	2
313.15	0.0473	1532	2
313.15	0.1188	1544	2
313.15	0.1668	1547	2
313.15	0.2393	1543	2
313.15	0.3616	1520	2
313.15	0.411	1509	2
313.15	0.4856	1494	2
313.15	0.6115	1473	2
313.15	0.7391	1477	2
313.15	0.8686	1515	2
313.15	0.9493	1567	2
313.15	0.9758	1592	2
313.15	1	1617	2

System: N-methylpyrrolidone + diethylammonium acetate; phases: Liquid
Fixed: Pressure, kPa = 101
Property: Mass density, kg/m3 (Liquid); method: Vibrating tube method
Temperature, K	Mole fraction of diethylammonium acetate	Mass density, kg/m3	uncertainty
298.15	0	1025.9	0.3
298.15	0.0234	1026.53	0.31
298.15	0.0473	1027.19	0.31
298.15	0.1188	1028.41	0.31
298.15	0.1668	1029.09	0.31
298.15	0.2393	1029.73	0.31
298.15	0.3616	1030.18	0.31
298.15	0.411	1030.19	0.31
298.15	0.4856	1029.95	0.31
298.15	0.6115	1028.88	0.31
298.15	0.7391	1027.18	0.31
298.15	0.8686	1024.96	0.31
298.15	0.9493	1023.14	0.31
298.15	0.9758	1022.3	0.31
298.15	1	1021.41	0.31
303.15	0	1023.74	0.3
303.15	0.0234	1024.14	0.3
303.15	0.0473	1024.34	0.31
303.15	0.1188	1025.34	0.31
303.15	0.1668	1025.85	0.31
303.15	0.2393	1026.2	0.31
303.15	0.3616	1026.29	0.31
303.15	0.411	1026.22	0.31
303.15	0.4856	1025.78	0.31
303.15	0.6115	1024.47	0.31
303.15	0.7391	1022.47	0.31
303.15	0.8686	1019.99	0.31
303.15	0.9493	1018.04	0.31
303.15	0.9758	1017.29	0.31
303.15	1	1016.52	0.3
308.15	0	1019.25	0.3
308.15	0.0234	1019.65	0.3
308.15	0.0473	1019.91	0.3
308.15	0.1188	1020.3	0.31
308.15	0.1668	1020.67	0.31
308.15	0.2393	1020.89	0.31
308.15	0.3616	1020.97	0.31
308.15	0.411	1020.77	0.31
308.15	0.4856	1020.41	0.31
308.15	0.6115	1019.23	0.3
308.15	0.7391	1017.4	0.3
308.15	0.8686	1015.03	0.3
308.15	0.9493	1013.14	0.3
308.15	0.9758	1012.47	0.3
308.15	1	1011.87	0.3
313.15	0	1014.74	0.3
313.15	0.0234	1014.97	0.3
313.15	0.0473	1015.32	0.3
313.15	0.1188	1015.77	0.3
313.15	0.1668	1016.03	0.3
313.15	0.2393	1016.53	0.3
313.15	0.3616	1016.79	0.3
313.15	0.411	1016.77	0.3
313.15	0.4856	1016.52	0.3
313.15	0.6115	1015.76	0.3
313.15	0.7391	1014.43	0.3
313.15	0.8686	1012.59	0.3
313.15	0.9493	1010.98	0.3
313.15	0.9758	1010.43	0.3
313.15	1	1010.08	0.3

System: N-methylpyrrolidone + triethylammonium acetate; phases: Liquid
Fixed: Pressure, kPa = 101
Property: Viscosity, Pa*s (Liquid); method: dual vibrating plate viscometer, AandD Co. Ltd Model SV-10
Temperature, K	Mole fraction of triethylammonium acetate	Viscosity, Pa*s	uncertainty
298.15	0	0.00166	3e-05
298.15	0.0138	0.00161	3e-05
298.15	0.0302	0.00176	4e-05
298.15	0.0813	0.00279	6e-05
298.15	0.117	0.00321	7e-05
298.15	0.1733	0.00379	8e-05
298.15	0.2751	0.00402	8e-05
298.15	0.3189	0.00383	8e-05
298.15	0.3865	0.00358	7e-05
298.15	0.5133	0.0034	7e-05
298.15	0.6561	0.00471	0.0001
298.15	0.8181	0.01014	0.00022
298.15	0.926	0.01725	0.00036
298.15	0.9642	0.02016	0.00043
298.15	1	0.02412	0.0005
303.15	0	0.00149	3e-05
303.15	0.0138	0.00152	3e-05
303.15	0.0302	0.00184	4e-05
303.15	0.0813	0.00267	6e-05
303.15	0.117	0.0031	6e-05
303.15	0.1733	0.00342	7e-05
303.15	0.2751	0.00362	7e-05
303.15	0.3189	0.00355	7e-05
303.15	0.3865	0.00318	7e-05
303.15	0.5133	0.0027	6e-05
303.15	0.6561	0.00342	7e-05
303.15	0.8181	0.00821	0.00017
303.15	0.926	0.0142	0.0003
303.15	0.9642	0.017	0.00036
303.15	1	0.0196	0.00041
308.15	0	0.00139	3e-05
308.15	0.0138	0.0015	3e-05
308.15	0.0302	0.00181	4e-05
308.15	0.0813	0.00261	6e-05
308.15	0.117	0.00303	6e-05
308.15	0.1733	0.00336	7e-05
308.15	0.2751	0.00328	7e-05
308.15	0.3189	0.00314	7e-05
308.15	0.3865	0.00259	5e-05
308.15	0.5133	0.00251	5e-05
308.15	0.6561	0.0031	7e-05
308.15	0.8181	0.00776	0.00016
308.15	0.926	0.0131	0.00027
308.15	0.9642	0.01498	0.00031
308.15	1	0.01613	0.00033
313.15	0	0.00131	3e-05
313.15	0.0138	0.00147	3e-05
313.15	0.0302	0.00172	4e-05
313.15	0.0813	0.0023	5e-05
313.15	0.117	0.00278	6e-05
313.15	0.1733	0.00304	6e-05
313.15	0.2751	0.00298	6e-05
313.15	0.3189	0.00283	6e-05
313.15	0.3865	0.00238	5e-05
313.15	0.5133	0.00234	5e-05
313.15	0.6561	0.00301	6e-05
313.15	0.8181	0.00708	0.00015
313.15	0.926	0.01165	0.00024
313.15	0.9642	0.01339	0.00028
313.15	1	0.01481	0.00031

System: N-methylpyrrolidone + triethylammonium acetate; phases: Liquid
Fixed: Pressure, kPa = 101
Property: Speed of sound, m/s (Liquid); method: Linear variable-path acoustic interferometer
Temperature, K	Mole fraction of triethylammonium acetate	Speed of sound, m/s	uncertainty
298.15	0	1572	2
298.15	0.0138	1564	2
298.15	0.0302	1559	2
298.15	0.0813	1556	2
298.15	0.117	1554	2
298.15	0.1733	1555	2
298.15	0.2751	1560	2
298.15	0.3189	1566	2
298.15	0.3865	1578	2
298.15	0.5133	1603	2
298.15	0.6561	1648	2
298.15	0.8181	1714	2
298.15	0.926	1776	2
298.15	0.9642	1799	2
298.15	1	1840	2
303.15	0	1552	2
303.15	0.0138	1555	2
303.15	0.0302	1555	2
303.15	0.0813	1553	2
303.15	0.117	1554	2
303.15	0.1733	1555	2
303.15	0.2751	1561	2
303.15	0.3189	1566	2
303.15	0.3865	1579	2
303.15	0.5133	1602	2
303.15	0.6561	1645	2
303.15	0.8181	1713	2
303.15	0.926	1769	2
303.15	0.9642	1797	2
303.15	1	1824	2
308.15	0	1528	2
308.15	0.0138	1530	2
308.15	0.0302	1533	2
308.15	0.0813	1536	2
308.15	0.117	1539	2
308.15	0.1733	1544	2
308.15	0.2751	1553	2
308.15	0.3189	1559	2
308.15	0.3865	1572	2
308.15	0.5133	1593	2
308.15	0.6561	1632	2
308.15	0.8181	1698	2
308.15	0.926	1753	2
308.15	0.9642	1776	2
308.15	1	1798	2
313.15	0	1520	2
313.15	0.0138	1525	2
313.15	0.0302	1527	2
313.15	0.0813	1529	2
313.15	0.117	1530	2
313.15	0.1733	1535	2
313.15	0.2751	1543	2
313.15	0.3189	1548	2
313.15	0.3865	1561	2
313.15	0.5133	1582	2
313.15	0.6561	1616	2
313.15	0.8181	1669	2
313.15	0.926	1716	2
313.15	0.9642	1735	2
313.15	1	1752	2

System: N-methylpyrrolidone + triethylammonium acetate; phases: Liquid
Fixed: Pressure, kPa = 101
Property: Mass density, kg/m3 (Liquid); method: Vibrating tube method
Temperature, K	Mole fraction of triethylammonium acetate	Mass density, kg/m3	uncertainty
298.15	0	1025.9	0.3
298.15	0.0138	1026.09	0.3
298.15	0.0302	1026.34	0.3
298.15	0.0813	1026.88	0.3
298.15	0.117	1026.93	0.3
298.15	0.1733	1026.39	0.31
298.15	0.2751	1023.97	0.3
298.15	0.3189	1022.57	0.31
298.15	0.3865	1019.96	0.3
298.15	0.5133	1015.18	0.3
298.15	0.6561	1010.89	0.3
298.15	0.8181	1009.29	0.3
298.15	0.926	1011.5	0.3
298.15	0.9642	1012.97	0.31
298.15	1	1015.86	0.31
303.15	0	1023.74	0.3
303.15	0.0138	1024.21	0.31
303.15	0.0302	1024.48	0.3
303.15	0.0813	1024.64	0.3
303.15	0.117	1024.37	0.31
303.15	0.1733	1023.53	0.31
303.15	0.2751	1020.86	0.31
303.15	0.3189	1019.42	0.31
303.15	0.3865	1016.89	0.3
303.15	0.5133	1012.16	0.3
303.15	0.6561	1007.69	0.3
303.15	0.8181	1005.54	0.3
303.15	0.926	1006.58	0.3
303.15	0.9642	1007.74	0.3
303.15	1	1009.58	0.3
308.15	0	1019.25	0.3
308.15	0.0138	1020.18	0.31
308.15	0.0302	1020.47	0.3
308.15	0.0813	1020.35	0.3
308.15	0.117	1019.88	0.3
308.15	0.1733	1018.8	0.3
308.15	0.2751	1015.91	0.3
308.15	0.3189	1014.49	0.3
308.15	0.3865	1011.99	0.3
308.15	0.5133	1007.46	0.3
308.15	0.6561	1003.25	0.29
308.15	0.8181	1000.89	0.29
308.15	0.926	1001.01	0.29
308.15	0.9642	1001.75	0.29
308.15	1	1002.61	0.29
313.15	0	1014.74	0.3
313.15	0.0138	1015.8	0.31
313.15	0.0302	1016.2	0.3
313.15	0.0813	1016.66	0.3
313.15	0.117	1016.4	0.3
313.15	0.1733	1015.69	0.3
313.15	0.2751	1013.39	0.3
313.15	0.3189	1012.13	0.3
313.15	0.3865	1010.15	0.3
313.15	0.5133	1006.1	0.29
313.15	0.6561	1002.5	0.29
313.15	0.8181	1000.41	0.29
313.15	0.926	1000.32	0.29
313.15	0.9642	1000.61	0.29
313.15	1	1000.97	0.29

System: N-methylpyrrolidone + diethylammonium hydrogen sulfate; phases: Liquid
Fixed: Pressure, kPa = 101
Property: Viscosity, Pa*s (Liquid); method: dual vibrating plate viscometer, AandD Co. Ltd Model SV-10
Temperature, K	Mole fraction of diethylammonium hydrogen sulfate	Viscosity, Pa*s	uncertainty
298.15	0	0.00166	3e-05
298.15	0.016	0.00245	7e-05
298.15	0.0347	0.00333	0.00013
298.15	0.092	0.00994	0.00024
298.15	0.1316	0.01578	0.00037
298.15	0.1916	0.0272	0.0006
298.15	0.2992	0.04904	0.00104
298.15	0.3455	0.05935	0.00124
298.15	0.4175	0.07304	0.00152
298.15	0.5442	0.09275	0.00192
298.15	0.6829	0.1014	0.00209
298.15	0.8359	0.08714	0.00181
298.15	0.9342	0.0587	0.00125
298.15	0.9684	0.04645	0.00103
298.15	1	0.0341	0.0007
303.15	0	0.00149	3e-05
303.15	0.016	0.00061	2e-05
303.15	0.0347	0.00095	9e-05
303.15	0.092	0.00728	0.00019
303.15	0.1316	0.01227	0.00029
303.15	0.1916	0.0216	0.00047
303.15	0.2992	0.03785	0.0008
303.15	0.3455	0.04588	0.00096
303.15	0.4175	0.05662	0.00118
303.15	0.5442	0.07249	0.0015
303.15	0.6829	0.07975	0.00165
303.15	0.8359	0.06913	0.00144
303.15	0.9342	0.04837	0.00103
303.15	0.9684	0.03595	0.0008
303.15	1	0.0289	0.0006
308.15	0	0.00139	3e-05
308.15	0.016	0.00034	2e-05
308.15	0.0347	0.00067	6e-05
308.15	0.092	0.00442	0.00013
308.15	0.1316	0.00953	0.00024
308.15	0.1916	0.0173	0.00038
308.15	0.2992	0.0307	0.00065
308.15	0.3455	0.03684	0.00077
308.15	0.4175	0.04589	0.00095
308.15	0.5442	0.05751	0.00119
308.15	0.6829	0.06311	0.00131
308.15	0.8359	0.05529	0.00115
308.15	0.9342	0.03786	0.00081
308.15	0.9684	0.02769	0.00061
308.15	1	0.0246	0.00051
313.15	0	0.00131	3e-05
313.15	0.016	0.00028	2e-05
313.15	0.0346	0.00048	3e-05
313.15	0.092	0.00206	7e-05
313.15	0.1316	0.00597	0.00017
313.15	0.1916	0.01315	0.0003
313.15	0.2992	0.02474	0.00052
313.15	0.3455	0.03042	0.00064
313.15	0.4175	0.03687	0.00077
313.15	0.5442	0.04682	0.00097
313.15	0.6829	0.05239	0.00109
313.15	0.8359	0.04621	0.00096
313.15	0.9342	0.0309	0.00066
313.15	0.9684	0.02303	0.00049
313.15	1	0.0219	0.00045

System: N-methylpyrrolidone + diethylammonium hydrogen sulfate; phases: Liquid
Fixed: Pressure, kPa = 101
Property: Speed of sound, m/s (Liquid); method: Linear variable-path acoustic interferometer
Temperature, K	Mole fraction of diethylammonium hydrogen sulfate	Speed of sound, m/s	uncertainty
298.15	0	1572	2
298.15	0.016	1559	2
298.15	0.0347	1555	2
298.15	0.092	1539	2
298.15	0.1316	1534	2
298.15	0.1916	1529	2
298.15	0.2992	1518	2
298.15	0.3455	1513	2
298.15	0.4175	1508	2
298.15	0.5442	1495	2
298.15	0.6829	1481	2
298.15	0.8359	1458	2
298.15	0.9342	1440	2
298.15	0.9684	1434	2
298.15	1	1432	2
303.15	0	1552	2
303.15	0.016	1551	2
303.15	0.0347	1547	2
303.15	0.092	1536	2
303.15	0.1316	1529	2
303.15	0.1916	1523	2
303.15	0.2992	1515	2
303.15	0.3455	1510	2
303.15	0.4175	1505	2
303.15	0.5442	1491	2
303.15	0.6829	1474	2
303.15	0.8359	1446	2
303.15	0.9342	1423	2
303.15	0.9684	1415	2
303.15	1	1408	2
308.15	0	1528	2
308.15	0.016	1533	2
308.15	0.0347	1530	2
308.15	0.092	1521	2
308.15	0.1316	1518	2
308.15	0.1916	1511	2
308.15	0.2992	1503	2
308.15	0.3455	1500	2
308.15	0.4175	1496	2
308.15	0.5442	1485	2
308.15	0.6829	1468	2
308.15	0.8359	1437	2
308.15	0.9342	1414	2
308.15	0.9684	1404	2
308.15	1	1392	2
313.15	0	1520	2
313.15	0.016	1529	2
313.15	0.0346	1529	2
313.15	0.092	1521	2
313.15	0.1316	1516	2
313.15	0.1916	1511	2
313.15	0.2992	1502	2
313.15	0.3455	1498	2
313.15	0.4175	1491	2
313.15	0.5442	1474	2
313.15	0.6829	1450	2
313.15	0.8359	1411	2
313.15	0.9342	1382	2
313.15	0.9684	1370	2
313.15	1	1356	2

System: N-methylpyrrolidone + diethylammonium hydrogen sulfate; phases: Liquid
Fixed: Pressure, kPa = 101
Property: Mass density, kg/m3 (Liquid); method: Vibrating tube method
Temperature, K	Mole fraction of diethylammonium hydrogen sulfate	Mass density, kg/m3	uncertainty
298.15	0	1025.9	0.3
298.15	0.016	1050.6	1.25
298.15	0.0347	1067.85	0.9
298.15	0.092	1113.77	0.86
298.15	0.1316	1140.71	0.75
298.15	0.1916	1176.12	0.65
298.15	0.2992	1222.46	0.65
298.15	0.3455	1237.11	0.61
298.15	0.4175	1253.31	0.6
298.15	0.5442	1269.42	0.65
298.15	0.6829	1275.63	0.71
298.15	0.8359	1277.72	0.73
298.15	0.9342	1282.39	0.73
298.15	0.9684	1281.99	0.72
298.15	1	1283.95	0.71
303.15	0	1023.74	0.3
303.15	0.016	1037.47	0.94
303.15	0.0347	1054.26	0.82
303.15	0.092	1095.4	0.81
303.15	0.1316	1122.07	0.73
303.15	0.1916	1155.56	0.63
303.15	0.2992	1196	0.62
303.15	0.3455	1207.13	0.57
303.15	0.4175	1219.69	0.58
303.15	0.5442	1228.51	0.61
303.15	0.6829	1229.8	0.63
303.15	0.8359	1232.02	0.64
303.15	0.9342	1235.49	0.66
303.15	0.9684	1237.36	0.65
303.15	1	1239.74	0.64
308.15	0	1019.25	0.3
308.15	0.016	1030.03	0.78
308.15	0.0347	1043.78	0.75
308.15	0.092	1080.92	0.73
308.15	0.1316	1103.13	0.68
308.15	0.1916	1133.63	0.63
308.15	0.2992	1169.38	0.65
308.15	0.3455	1179.79	0.64
308.15	0.4175	1190.23	0.66
308.15	0.5442	1198.01	0.7
308.15	0.6829	1198.27	0.73
308.15	0.8359	1198.28	0.77
308.15	0.9342	1200.49	0.79
308.15	0.9684	1202.65	0.8
308.15	1	1205.43	0.79
313.15	0	1014.74	0.3
313.15	0.016	1020.1	0.58
313.15	0.0346	1031.41	0.63
313.15	0.092	1060.41	0.64
313.15	0.1316	1079.57	0.6
313.15	0.1916	1100.33	0.62
313.15	0.2992	1123.81	0.7
313.15	0.3455	1129.72	0.72
313.15	0.4175	1134.34	0.78
313.15	0.5442	1134.82	0.87
313.15	0.6829	1128.95	0.9
313.15	0.8359	1123.69	0.95
313.15	0.9342	1123.28	0.99
313.15	0.9684	1124.6	1
313.15	1	1126.81	1.01

System: N-methylpyrrolidone + triethylammonium hydrogen sulfate; phases: Liquid
Fixed: Pressure, kPa = 101
Property: Viscosity, Pa*s (Liquid); method: dual vibrating plate viscometer, AandD Co. Ltd Model SV-10
Temperature, K	Mole fraction of triethylammonium hydrogen sulfate	Viscosity, Pa*s	uncertainty
298.15	0	0.00268	6e-05
298.15	0.0115	0.00339	0.00011
298.15	0.0234	0.00463	0.0001
298.15	0.0632	0.00446	9e-05
298.15	0.0927	0.00481	0.0001
298.15	0.1387	0.00499	0.00011
298.15	0.2259	0.00889	0.00022
298.15	0.2631	0.01946	0.00052
298.15	0.3261	0.04098	0.00096
298.15	0.4478	0.09622	0.00205
298.15	0.5947	0.16318	0.0034
298.15	0.7717	0.22932	0.00475
298.15	0.9017	0.24582	0.0051
298.15	0.9497	0.24286	0.00504
298.15	1	0.235	0.005
303.15	0	0.00251	5e-05
303.15	0.0115	0.00109	6e-05
303.15	0.0234	0.00126	3e-05
303.15	0.0632	0.00197	4e-05
303.15	0.0927	0.00109	3e-05
303.15	0.1387	0.00215	5e-05
303.15	0.2259	0.00428	0.00011
303.15	0.2631	0.00871	0.00027
303.15	0.3261	0.02433	0.00059
303.15	0.4478	0.06628	0.00142
303.15	0.5947	0.11965	0.00249
303.15	0.7717	0.16861	0.00349
303.15	0.9017	0.17533	0.00363
303.15	0.9497	0.16886	0.00351
303.15	1	0.153	0.003
308.15	0	0.00139	3e-05
308.15	0.0115	0.00108	4e-05
308.15	0.0234	0.00073	2e-05
308.15	0.0632	0.00055	1e-05
308.15	0.0927	0.00038	1e-05
308.15	0.1387	0.0002	1e-05
308.15	0.2259	4e-05	5e-05
308.15	0.2631	0.00775	0.00029
308.15	0.3261	0.02371	0.00059
308.15	0.4478	0.06653	0.00141
308.15	0.5947	0.1166	0.00242
308.15	0.7717	0.16159	0.00334
308.15	0.9017	0.16514	0.00341
308.15	0.9497	0.15695	0.00325
308.15	1	0.138	0.003
313.15	0	0.00131	3e-05
313.15	0.0115	0.00197	5e-05
313.15	0.0234	0.00071	2e-05
313.15	0.0632	0.00073	2e-05
313.15	0.0927	0.0002	1e-05
313.15	0.1387	0.00055	2e-05
313.15	0.2259	0.00197	7e-05
313.15	0.2631	0.0078	0.00026
313.15	0.3261	0.0221	0.00054
313.15	0.4478	0.06067	0.00129
313.15	0.5947	0.1049	0.00218
313.15	0.7717	0.14204	0.00294
313.15	0.9017	0.14104	0.00292
313.15	0.9497	0.13102	0.00273
313.15	1	0.108	0.002

System: N-methylpyrrolidone + triethylammonium hydrogen sulfate; phases: Liquid
Fixed: Pressure, kPa = 101
Property: Speed of sound, m/s (Liquid); method: Linear variable-path acoustic interferometer
Temperature, K	Mole fraction of triethylammonium hydrogen sulfate	Speed of sound, m/s	uncertainty
298.15	0	1572	2
298.15	0.0115	1575	2
298.15	0.0234	1585	2
298.15	0.0632	1610	2
298.15	0.0927	1627	2
298.15	0.1387	1658	2
298.15	0.2259	1710	2
298.15	0.2631	1734	2
298.15	0.3261	1770	2
298.15	0.4478	1823	2
298.15	0.5947	1871	2
298.15	0.7717	1893	2
298.15	0.9017	1885	2
298.15	0.9497	1879	2
298.15	1	1874	2
303.15	0	1552	2
303.15	0.0115	1559	2
303.15	0.0234	1569	2
303.15	0.0632	1594	2
303.15	0.0927	1613	2
303.15	0.1387	1646	2
303.15	0.2259	1699	2
303.15	0.2631	1724	2
303.15	0.3261	1761	2
303.15	0.4478	1818	2
303.15	0.5947	1867	2
303.15	0.7717	1891	2
303.15	0.9017	1886	2
303.15	0.9497	1881	2
303.15	1	1871	2
308.15	0	1528	2
308.15	0.0115	1541	2
308.15	0.0234	1552	2
308.15	0.0632	1574	2
308.15	0.0927	1595	2
308.15	0.1387	1628	2
308.15	0.2259	1682	2
308.15	0.2631	1707	2
308.15	0.3261	1746	2
308.15	0.4478	1806	2
308.15	0.5947	1862	2
308.15	0.7717	1892	2
308.15	0.9017	1887	2
308.15	0.9497	1880	2
308.15	1	1866	2
313.15	0	1520	2
313.15	0.0115	1535	2
313.15	0.0234	1547	2
313.15	0.0632	1573	2
313.15	0.0927	1592	2
313.15	0.1387	1624	2
313.15	0.2259	1681	2
313.15	0.2631	1706	2
313.15	0.3261	1748	2
313.15	0.4478	1809	2
313.15	0.5947	1865	2
313.15	0.7717	1894	2
313.15	0.9017	1884	2
313.15	0.9497	1878	2
313.15	1	1859	2

System: N-methylpyrrolidone + triethylammonium hydrogen sulfate; phases: Liquid
Fixed: Pressure, kPa = 101
Property: Mass density, kg/m3 (Liquid); method: Vibrating tube method
Temperature, K	Mole fraction of triethylammonium hydrogen sulfate	Mass density, kg/m3	uncertainty
298.15	0	1025.9	0.3
298.15	0.0115	1032.8	0.61
298.15	0.0234	1038.22	0.45
298.15	0.0632	1050.09	0.44
298.15	0.0927	1059.1	0.43
298.15	0.1387	1070.98	0.4
298.15	0.2259	1088.61	0.39
298.15	0.2631	1094.64	0.38
298.15	0.3261	1103.78	0.37
298.15	0.4478	1116.87	0.37
298.15	0.5947	1127.01	0.37
298.15	0.7717	1135	0.37
298.15	0.9017	1139.74	0.37
298.15	0.9497	1141.23	0.37
298.15	1	1142.89	0.37
303.15	0	1023.74	0.3
303.15	0.0115	1029.6	0.54
303.15	0.0234	1033.96	0.45
303.15	0.0632	1046.49	0.44
303.15	0.0927	1054.51	0.42
303.15	0.1387	1066.39	0.4
303.15	0.2259	1084.19	0.39
303.15	0.2631	1090.49	0.38
303.15	0.3261	1099.54	0.37
303.15	0.4478	1112.6	0.37
303.15	0.5947	1123.51	0.37
303.15	0.7717	1132.09	0.37
303.15	0.9017	1137.34	0.37
303.15	0.9497	1139.47	0.37
303.15	1	1141.83	0.37
308.15	0	1019.25	0.3
308.15	0.0115	1024.16	0.5
308.15	0.0234	1028.44	0.44
308.15	0.0632	1040.72	0.43
308.15	0.0927	1048.71	0.42
308.15	0.1387	1060.66	0.4
308.15	0.2259	1078.74	0.39
308.15	0.2631	1085.15	0.38
308.15	0.3261	1094.3	0.37
308.15	0.4478	1107.95	0.37
308.15	0.5947	1119.05	0.37
308.15	0.7717	1128.8	0.37
308.15	0.9017	1135.26	0.37
308.15	0.9497	1137.73	0.37
308.15	1	1140.72	0.37
313.15	0	1014.74	0.3
313.15	0.0115	1019.77	0.47
313.15	0.0234	1023.04	0.42
313.15	0.0632	1034.66	0.43
313.15	0.0927	1043.09	0.42
313.15	0.1387	1055.07	0.4
313.15	0.2259	1072.51	0.39
313.15	0.2631	1079.29	0.38
313.15	0.3261	1088.65	0.37
313.15	0.4478	1102.48	0.37
313.15	0.5947	1114.67	0.37
313.15	0.7717	1125.81	0.37
313.15	0.9017	1133.51	0.37
313.15	0.9497	1136.49	0.38
313.15	1	1140.02	0.37
