Measured thermophysical data. Heat capacities and derived thermodynamic properties of lithium, sodium, and potassium disilicates from T=(5 to 350)K in both vitreous and crystalline states
Source: J. Chem. Thermodyn., 2007, 10.1016/j.jct.2007.01.001
Compound 1: lithium disilicate, Li2O5Si2, InChI=1S/2Li.O5Si2/c;;1-6(2)5-7(3)4/q2*+1;-2
Compound 2: sodium disilicate, Na2O5Si2, InChI=1S/2Na.O5Si2/c;;1-6(2)5-7(3)4/q2*+1;-2
Compound 3: potassium disilicate, K2O5Si2, InChI=1S/2K.O5Si2/c;;1-6(2)5-7(3)4/q2*+1;-2

System: lithium disilicate; phases: Glass
Fixed: Pressure, kPa = 101.325
Property: Molar heat capacity at constant pressure, J/K/mol (Glass); method: Vacuum adiabatic calorimetry
Temperature, K	Molar heat capacity at constant pressure, J/K/mol	uncertainty
93.95	47.273	0.248
99.6	51.164	0.252
105.55	55.479	0.256
112.55	60.035	0.26
119.39	64.891	0.265
126.54	69.746	0.27
134.09	74.768	0.275
142.24	80.039	0.28
151.05	85.518	0.286
160.42	91.205	0.291
169.76	96.642	0.297
179.15	101.83	0.302
186.14	105.596	0.306
196.75	111.125	0.311
206.55	115.93	0.316
215.79	120.329	0.32
224.74	124.386	0.325
233.42	128.194	0.328
242.2	132.001	0.332
251.19	135.676	0.336
260.3	139.235	0.339
269.36	142.668	0.343
278.01	145.927	0.346
287.19	149.319	0.349
296.76	152.495	0.353
306.64	155.763	0.356
316.69	158.98	0.417
326.93	161.998	0.362
317.28	165.257	0.423
347.67	168.234	0.368
6.55	0.042	0.01
7.83	0.083	0.011
8.97	0.158	0.011
9.94	0.224	0.012
10.9	0.316	0.013
11.91	0.441	0.014
12.99	0.59	0.015
14.1	0.782	0.016
15.31	1.014	0.017
16.61	1.314	0.019
18.02	1.671	0.021
19.61	2.137	0.023
21.4	2.719	0.025
23.46	3.475	0.028
25.86	4.44	0.03
28.71	5.695	0.032
32.48	7.499	0.056
35.24	8.938	0.059
38.59	10.742	0.062
42.72	13.086	0.067
47.34	15.822	0.073
52.39	18.914	0.079
31.65	7.084	0.055
35.09	8.854	0.059
38.77	10.841	0.063
42.83	13.136	0.067
47.63	16.004	0.073
52.87	19.23	0.08
58.45	22.822	0.087
64.9	27.129	0.095
71.55	31.552	0.104
77.99	36.033	0.113
84.89	40.955	0.123
92.37	46.193	0.247
100.41	51.879	0.252

System: lithium disilicate; phases: Crystal
Fixed: Pressure, kPa = 101.325
Property: Molar heat capacity at constant pressure, J/K/mol (Crystal); method: Vacuum adiabatic calorimetry
Temperature, K	Molar heat capacity at constant pressure, J/K/mol	uncertainty
175.01	89.558	0.29
185.27	94.272	0.294
194.43	98.986	0.299
203.21	103.459	0.304
212.06	107.724	0.308
220.94	111.732	0.312
229.79	115.639	0.32
238.67	119.489	0.322
247.51	123.23	0.323
256.47	126.606	0.327
265.49	130.122	0.33
274.63	133.623	0.334
238.88	136.757	0.34
293.15	139.933	0.34
302.48	142.926	0.343
311.75	145.911	0.346
6.82	0.017	0.01
8.22	0.033	0.01
9.43	0.067	0.011
10.34	0.091	0.011
11.21	0.108	0.011
12.24	0.133	0.011
13.48	0.191	0.011
14.98	0.299	0.012
16.75	0.457	0.013
18.65	0.707	0.014
20.6	1.023	0.016
22.62	1.447	0.018
24.74	1.987	0.02
27.1	2.677	0.022
29.69	3.55	0.023
32.61	4.639	0.05
33.78	5.105	0.051
35.95	6.011	0.053
36.94	6.427	0.054
40.72	8.106	0.057
44.99	10.11	0.061
49.54	12.338	0.065
54.56	14.89	0.071
60.22	17.908	0.077
66.35	21.309	0.083
73.12	25.25	0.091
80.51	29.739	0.1
88.02	34.47	0.11
95.68	39.267	0.24
103.85	44.521	0.245
112.51	50.183	0.251
121.48	56.086	0.256
130.7	62.097	0.262
135.85	65.381	0.266
144.54	70.86	0.271
153.68	76.431	0.277
162.99	82.001	0.282
172.61	87.488	0.288
182.46	92.926	0.293
296.99	141.13	0.341
306.13	144.082	0.344
315.4	146.942	0.347
325.02	149.752	0.35
335.01	152.662	0.353
345.11	155.53	0.356

System: lithium disilicate; phases: Glass
Fixed: Pressure, kPa = 101.325
Property: Molar heat capacity at constant pressure, J/K/mol (Glass); method: Vacuum adiabatic calorimetry
Temperature, K	Molar heat capacity at constant pressure, J/K/mol	uncertainty
0	0	0.01
5	0.017	0.01
10	0.224	0.012
15	0.906	0.017
20	2.17	0.023
25	3.933	0.029
30	6.078	0.053
35	8.522	0.058
40	11.174	0.063
45	13.984	0.069
50	16.936	0.075
60	23.163	0.087
70	29.731	0.1
80	36.482	0.114
90	43.324	0.244
100	50.175	0.251
120	63.685	0.264
140	76.605	0.277
160	88.694	0.289
180	99.818	0.3
200	110.476	0.311
220	119.264	0.319
240	127.786	0.328
260	135.768	0.336
280	143.084	0.343
298.15	149.236	0.349
300	149.818	0.35
325	157.467	0.358
350	164.617	0.365

System: lithium disilicate; phases: Glass
Fixed: Pressure, kPa = 101.325
Property: Molar entropy, J/K/mol (Glass); method: Vacuum adiabatic calorimetry
Temperature, K	Molar entropy, J/K/mol	uncertainty
0	0	0.015
5	0.008	0.015
10	0.042	0.016
15	0.249	0.018
20	0.665	0.021
25	1.33	0.024
30	2.236	0.067
35	3.351	0.07
40	4.664	0.074
45	6.136	0.079
50	7.765	0.084
60	11.39	0.094
70	15.456	0.107
80	19.862	0.12
90	24.551	0.337
100	29.473	0.344
120	39.824	0.36
140	50.624	0.376
160	61.648	0.393
180	72.748	0.409
200	83.797	0.426
220	94.721	0.442
240	105.471	0.458
260	116.014	0.474
280	126.373	0.49
298.15	135.518	0.503
300	136.433	0.505
325	148.737	0.523
350	160.71	0.541

System: lithium disilicate; phases: Glass
Fixed: Pressure, kPa = 101.325
Property: Molar enthalpy function {Hm(T)-Hm(0)}/T, J/K/mol (Glass); method: Vacuum adiabatic calorimetry
Temperature, K	Molar enthalpy function {Hm(T)-Hm(0)}/T, J/K/mol	uncertainty
5	0.003	0.01
10	0.036	0.01
15	0.198	0.011
20	0.521	0.013
25	1.02	0.015
30	1.68	0.043
35	2.48	0.045
40	3.399	0.047
45	4.418	0.049
50	5.521	0.051
60	7.936	0.056
70	10.578	0.061
80	13.392	0.067
90	16.338	0.216
100	19.379	0.219
120	25.644	0.226
140	32.009	0.232
160	38.348	0.238
180	44.572	0.245
200	50.611	0.251
220	56.437	0.257
240	62.033	0.262
260	67.401	0.267
280	72.546	0.273
298.15	77.03	0.277
300	77.475	0.278
325	83.34	0.283
350	88.898	0.289

System: lithium disilicate; phases: Crystal
Fixed: Pressure, kPa = 101.325
Property: Molar heat capacity at constant pressure, J/K/mol (Crystal); method: Vacuum adiabatic calorimetry
Temperature, K	Molar heat capacity at constant pressure, J/K/mol	uncertainty
0	0	0.01
5	0.025	0.01
10	0.083	0.011
15	0.324	0.012
20	0.981	0.016
25	2.162	0.021
30	3.808	0.048
35	5.803	0.052
40	8.031	0.057
45	10.417	0.062
50	12.92	0.067
60	18.249	0.077
70	24.011	0.089
80	30.113	0.101
90	36.465	0.237
100	42.992	0.243
120	56.261	0.257
140	69.364	0.27
160	81.793	0.282
180	93.275	0.293
200	103.775	0.304
220	113.403	0.314
240	122.282	0.322
260	130.447	0.331
280	137.929	0.338
298.15	144.165	0.344
300	144.83	0.345
325	152.562	0.353
350	159.961	0.36

System: lithium disilicate; phases: Crystal
Fixed: Pressure, kPa = 101.325
Property: Molar entropy, J/K/mol (Crystal); method: Vacuum adiabatic calorimetry
Temperature, K	Molar entropy, J/K/mol	uncertainty
0	0	0.015
5	0.008	0.015
10	0.042	0.016
15	0.108	0.016
20	0.283	0.017
25	0.615	0.019
30	1.147	0.063
35	1.887	0.066
40	2.802	0.069
45	3.883	0.072
50	5.113	0.076
60	7.932	0.084
70	11.174	0.094
80	14.774	0.105
90	18.682	0.328
100	22.864	0.334
120	31.868	0.348
140	41.537	0.362
160	51.613	0.378
180	61.923	0.393
200	72.307	0.409
220	82.649	0.424
240	92.909	0.439
260	103.019	0.455
280	112.962	0.47
298.15	121.825	0.483
300	122.723	0.484
325	134.604	0.502
350	146.16	0.519

System: lithium disilicate; phases: Crystal
Fixed: Pressure, kPa = 101.325
Property: Molar enthalpy function {Hm(T)-Hm(0)}/T, J/K/mol (Crystal); method: Vacuum adiabatic calorimetry
Temperature, K	Molar enthalpy function {Hm(T)-Hm(0)}/T, J/K/mol	uncertainty
5	0.005	0.01
10	0.028	0.01
15	0.078	0.011
20	0.212	0.011
25	0.475	0.012
30	0.888	0.042
35	1.444	0.043
40	2.126	0.044
45	2.913	0.046
50	3.788	0.048
60	5.747	0.052
70	7.94	0.056
80	10.327	0.061
90	12.877	0.213
100	15.56	0.216
120	21.237	0.221
140	27.181	0.227
160	33.24	0.233
180	39.284	0.239
200	45.216	0.245
220	50.984	0.251
240	56.559	0.257
260	61.933	0.262
280	67.1	0.267
298.15	71.604	0.272
300	72.055	0.272
325	77.955	0.278
350	83.544	0.284

System: sodium disilicate; phases: Glass
Fixed: Pressure, kPa = 101.325
Property: Molar heat capacity at constant pressure, J/K/mol (Glass); method: Vacuum adiabatic calorimetry
Temperature, K	Molar heat capacity at constant pressure, J/K/mol	uncertainty
5.52	0.075	0.011
6.4	0.108	0.011
7.35	0.166	0.012
8.35	0.283	0.013
9.37	0.449	0.014
10.47	0.648	0.016
11.63	0.906	0.017
12.83	1.239	0.02
14.09	1.646	0.022
15.45	2.153	0.026
17	2.818	0.029
18.84	3.7	0.033
20.92	4.83	0.038
23.14	6.177	0.042
25.54	7.757	0.046
28.2	9.653	0.049
31.08	11.881	0.066
34.18	14.383	0.071
37.56	17.252	0.076
41.27	20.477	0.083
45.48	24.26	0.09
49.83	28.243	0.098
50.44	28.783	0.099
55.34	33.256	0.108
60.97	38.444	0.118
66.73	43.64	0.128
72.87	48.886	0.139
79.39	54.64	0.15
86.15	60.326	0.161
93.24	65.897	0.266
100.86	71.584	0.272
109	77.445	0.278
117.62	83.423	0.284
126.59	89.367	0.29
135.82	95.096	0.295
145.25	100.624	0.301
155.05	106.062	0.306
165.26	111.416	0.312
175.81	116.604	0.317
186.33	121.542	0.322
192.81	124.344	0.324
202.7	128.568	0.329
212.56	132.542	0.333
222.48	136.35	0.336
232.47	140.074	0.34
242.47	143.674	0.344
252.44	147.1	0.347
262.4	150.325	0.35
272.48	153.585	0.354
282.67	156.686	0.357
292.91	159.778	0.36
303.19	162.622	0.363
313.48	165.341	0.365
323.7	168.101	0.368
333.92	170.695	0.371
344.19	173.247	0.373

System: sodium disilicate; phases: Crystal
Fixed: Pressure, kPa = 101.325
Property: Molar heat capacity at constant pressure, J/K/mol (Crystal); method: Vacuum adiabatic calorimetry
Temperature, K	Molar heat capacity at constant pressure, J/K/mol	uncertainty
184.87	117.269	0.317
195.03	121.792	0.322
204.92	125.982	0.326
214.59	129.848	0.33
224.3	133.623	0.334
232.52	136.566	0.337
234.22	137.231	0.337
242.23	140.141	0.34
252.17	143.525	0.344
262.2	146.775	0.347
272.46	149.935	0.35
282.92	153.219	0.353
293.48	156.395	0.356
303.95	159.421	0.359
314.27	161.965	0.362
324.46	164.484	0.365
334.59	167.012	0.367
344.89	169.739	0.37
5.5	0.033	0.01
6.35	0.05	0.01
7.56	0.083	0.011
8.66	0.15	0.011
9.65	0.258	0.012
10.7	0.358	0.013
11.93	0.491	0.014
5.65	0.042	0.01
6.59	0.05	0.01
7.62	0.083	0.011
8.64	0.158	0.011
9.71	0.258	0.012
10.81	0.366	0.013
12.06	0.499	0.014
13.5	0.748	0.016
15.28	1.164	0.018
16.96	1.63	0.021
18.3	2.07	0.023
19.63	2.577	0.026
21.19	3.218	0.029
23.15	4.132	0.032
25.13	5.138	0.035
27.07	6.194	0.037
29.42	7.591	0.039
35.63	11.731	0.065
39.64	14.691	0.071
43.97	18.083	0.078
48.31	21.683	0.085
52.93	25.624	0.093
58.4	30.446	0.102
64.63	36.025	0.113
71.01	41.553	0.124
73.27	43.657	0.129
79.69	49.335	0.14
86.35	55.105	0.151
93.68	61.025	0.262
101.61	67.127	0.268
110.04	73.429	0.274
128.77	86.441	0.287
138.5	92.593	0.293
148.24	98.371	0.299
158.1	103.9	0.304
168.31	109.254	0.309
174.06	112.081	0.312
184.22	116.928	0.317
192.56	120.669	0.321
199.3	123.563	0.324

System: sodium disilicate; phases: Glass
Fixed: Pressure, kPa = 101.325
Property: Molar heat capacity at constant pressure, J/K/mol (Glass); method: Vacuum adiabatic calorimetry
Temperature, K	Molar heat capacity at constant pressure, J/K/mol	uncertainty
0	0	0.01
5	0.083	0.011
10	0.549	0.015
15	1.962	0.024
20	4.282	0.036
25	7.333	0.045
30	10.941	0.064
35	14.957	0.072
40	19.23	0.08
45	23.645	0.089
50	28.193	0.098
60	37.263	0.116
70	46.201	0.134
80	54.764	0.15
90	62.854	0.263
100	70.461	0.271
120	84.387	0.285
140	96.783	0.297
160	107.816	0.308
180	117.61	0.318
200	126.373	0.326
220	134.271	0.334
240	141.504	0.342
260	148.239	0.348
280	154.474	0.355
298.15	159.712	0.36
300	160.211	0.36
325	166.862	0.367
350	173.014	0.373

System: sodium disilicate; phases: Glass
Fixed: Pressure, kPa = 101.325
Property: Molar entropy, J/K/mol (Glass); method: Vacuum adiabatic calorimetry
Temperature, K	Molar entropy, J/K/mol	uncertainty
0	0	0.015
5	0.025	0.015
10	0.166	0.017
15	0.624	0.021
20	1.488	0.028
25	2.76	0.034
30	4.406	0.074
35	6.393	0.08
40	8.663	0.087
45	11.182	0.094
50	13.909	0.102
60	19.854	0.12
70	26.272	0.139
80	33.007	0.16
90	39.924	0.36
100	46.949	0.371
120	61.05	0.392
140	75.009	0.413
160	88.66	0.433
180	101.938	0.453
200	114.791	0.472
220	127.204	0.491
240	139.176	0.509
260	150.816	0.526
280	162.04	0.543
298.15	171.85	0.558
300	172.848	0.559
325	185.984	0.579
350	198.538	0.598

System: sodium disilicate; phases: Glass
Fixed: Pressure, kPa = 101.325
Property: Molar enthalpy function {Hm(T)-Hm(0)}/T, J/K/mol (Glass); method: Vacuum adiabatic calorimetry
Temperature, K	Molar enthalpy function {Hm(T)-Hm(0)}/T, J/K/mol	uncertainty
5	0.022	0.01
10	0.125	0.011
15	0.475	0.013
20	1.119	0.017
25	2.046	0.02
30	3.221	0.047
35	4.607	0.05
40	6.166	0.053
45	7.862	0.056
50	9.666	0.06
60	13.509	0.067
70	17.545	0.076
80	21.666	0.084
90	25.797	0.226
100	29.887	0.23
120	37.836	0.238
140	45.389	0.245
160	52.513	0.253
180	59.214	0.259
200	65.498	0.266
220	71.395	0.271
240	76.939	0.277
260	82.168	0.282
280	87.113	0.287
298.15	91.375	0.291
300	91.798	0.292
325	97.32	0.297
350	102.507	0.303

System: sodium disilicate; phases: Crystal
Fixed: Pressure, kPa = 101.325
Property: Molar heat capacity at constant pressure, J/K/mol (Crystal); method: Vacuum adiabatic calorimetry
Temperature, K	Molar heat capacity at constant pressure, J/K/mol	uncertainty
0	0	0.01
5	0.042	0.01
10	0.274	0.012
15	1.089	0.018
20	2.735	0.027
25	5.08	0.034
30	7.973	0.057
35	11.315	0.064
40	15.007	0.072
45	18.973	0.08
50	23.179	0.088
60	31.934	0.105
70	40.888	0.123
80	49.693	0.14
90	58.14	0.259
100	66.138	0.267
120	80.762	0.281
140	93.724	0.294
160	105.197	0.305
180	115.299	0.315
200	124.253	0.324
220	132.359	0.332
240	139.675	0.34
260	146.493	0.347
280	152.811	0.353
298.15	158.132	0.358
300	158.714	0.359
325	165.199	0.365
350	173.097	0.373

System: sodium disilicate; phases: Crystal
Fixed: Pressure, kPa = 101.325
Property: Molar entropy, J/K/mol (Crystal); method: Vacuum adiabatic calorimetry
Temperature, K	Molar entropy, J/K/mol	uncertainty
0	0	0.015
5	0.017	0.015
10	0.091	0.016
15	0.324	0.018
20	0.848	0.022
25	1.696	0.027
30	2.868	0.069
35	4.348	0.073
40	6.094	0.079
45	8.09	0.085
50	10.301	0.091
60	15.298	0.106
70	20.893	0.123
80	26.929	0.141
90	33.273	0.35
100	39.816	0.36
120	53.201	0.38
140	66.637	0.4
160	79.922	0.42
180	92.909	0.44
200	105.53	0.458
220	117.751	0.477
240	129.615	0.495
260	141.005	0.512
280	152.146	0.528
298.15	161.874	0.543
300	162.871	0.544
325	175.841	0.564
350	188.063	0.582

System: sodium disilicate; phases: Crystal
Fixed: Pressure, kPa = 101.325
Property: Molar enthalpy function {Hm(T)-Hm(0)}/T, J/K/mol (Crystal); method: Vacuum adiabatic calorimetry
Temperature, K	Molar enthalpy function {Hm(T)-Hm(0)}/T, J/K/mol	uncertainty
5	0.01	0.01
10	0.067	0.011
15	0.248	0.012
20	0.647	0.014
25	1.289	0.016
30	2.156	0.044
35	3.22	0.047
40	4.46	0.049
45	5.85	0.052
50	7.371	0.055
60	10.729	0.062
70	14.397	0.069
80	18.263	0.077
90	22.229	0.222
100	26.224	0.226
120	34.119	0.234
140	41.724	0.242
160	48.959	0.249
180	55.778	0.256
200	62.189	0.262
220	68.201	0.268
240	73.859	0.274
260	79.188	0.279
280	84.227	0.284
298.15	88.566	0.289
300	88.996	0.289
325	94.616	0.295
350	99.882	0.3

System: potassium disilicate; phases: Glass
Fixed: Pressure, kPa = 101.325
Property: Molar heat capacity at constant pressure, J/K/mol (Glass); method: Vacuum adiabatic calorimetry
Temperature, K	Molar heat capacity at constant pressure, J/K/mol	uncertainty
192.47	131.577	0.332
201.21	135.053	0.335
211.61	138.985	0.339
211.9	142.71	0.343
232.23	146.559	0.347
242.51	149.943	0.35
252.61	153.136	0.353
262.62	156.178	0.356
272.63	159.321	0.359
282.7	162.123	0.362
292.99	165.091	0.365
303.46	167.893	0.368
313.89	170.653	0.371
324.19	173.164	0.373
334.48	175.633	0.376
344.82	178.144	0.378
5.29	0.141	0.011
5.89	0.191	0.012
6.67	0.274	0.013
7.52	0.457	0.014
8.43	0.648	0.016
9.41	0.964	0.019
10.47	1.38	0.022
11.64	1.879	0.026
12.9	2.503	0.03
14.25	3.276	0.035
15.72	4.24	0.04
17.28	5.346	0.046
19.06	6.759	0.052
21.04	8.464	0.058
23.26	10.542	0.064
25.76	13.028	0.07
28.5	15.938	0.073
31.45	19.147	0.081
34.67	22.797	0.088
38.52	27.07	0.097
43.01	31.801	0.106
47.88	37.13	0.116
53.05	42.676	0.127
54.27	43.848	0.129
59.78	49.369	0.14
65.59	54.889	0.151
71.58	60.16	0.161
77.85	65.556	0.172
84.56	71.126	0.183
91.8	76.564	0.277
99.77	82.167	0.283
108.26	87.904	0.288
116.8	93.258	0.294
125.52	98.737	0.299
134.39	103.842	0.304
143.46	108.78	0.309
152.85	113.627	0.314
162.62	118.483	0.319
172.73	123.172	0.323
182.94	127.645	0.328
192.99	131.577	0.332

System: potassium disilicate; phases: Crystal
Fixed: Pressure, kPa = 101.325
Property: Molar heat capacity at constant pressure, J/K/mol (Crystal); method: Vacuum adiabatic calorimetry
Temperature, K	Molar heat capacity at constant pressure, J/K/mol	uncertainty
96.6	78.609	0.279
102.82	82.691	0.283
109.6	87.156	0.287
117.06	91.712	0.292
124.76	96.301	0.297
132.59	100.782	0.301
138.16	103.759	0.304
146.1	107.833	0.308
154.37	111.94	0.312
162.97	116.147	0.316
171.77	119.996	0.32
180.51	123.729	0.324
189.15	127.462	0.328
197.73	130.987	0.331
206.4	134.072	0.334
215.11	137.339	0.337
224	140.482	0.341
232.96	143.591	0.344
241.86	146.584	0.347
251.05	149.344	0.349
260.54	152.155	0.352
270.17	155.247	0.355
274.11	156.17	0.356
279.73	158.074	0.358
283.55	158.814	0.359
293.01	161.408	0.361
302.55	163.894	0.364
305.76	164.675	0.365
315	167.195	0.367
324.28	169.215	0.369
333.65	171.692	0.372
342.97	173.746	0.374
349.6	174.436	0.374
5.2	0.075	0.011
6.47	0.125	0.011
7.44	0.216	0.012
8.88	0.482	0.015
10.27	0.881	0.018
11.72	1.339	0.021
11.9	1.388	0.022
13.35	2.012	0.026
14.65	2.71	0.031
15.94	3.484	0.035
17.51	4.556	0.041
19.33	5.853	0.046
19.65	6.211	0.048
21.73	7.89	0.054
24.06	10.077	0.061
26.45	12.463	0.065
29.08	15.223	0.068
32.11	18.524	0.08
35.59	22.514	0.088
39.06	26.397	0.095
42.43	30.122	0.103
47.77	35.95	0.114
52.62	41.021	0.124
58.28	46.708	0.135
64.49	52.669	0.146
71.6	58.88	0.159
79.22	65.306	0.171
86.65	71.259	0.183
93.86	76.406	0.277

System: potassium disilicate; phases: Glass
Fixed: Pressure, kPa = 101.325
Property: Molar heat capacity at constant pressure, J/K/mol (Glass); method: Vacuum adiabatic calorimetry
Temperature, K	Molar heat capacity at constant pressure, J/K/mol	uncertainty
0	0	0.01
5	0.15	0.012
10	1.164	0.02
15	3.7	0.037
20	7.458	0.054
25	12.08	0.067
30	17.318	0.078
35	22.98	0.089
40	28.218	0.099
45	33.456	0.109
50	38.843	0.119
60	48.803	0.139
70	57.89	0.157
80	66.204	0.173
90	73.82	0.274
100	80.829	0.281
120	93.433	0.294
140	104.623	0.305
160	114.608	0.315
180	123.463	0.324
200	131.361	0.331
220	138.594	0.339
240	145.329	0.345
260	151.481	0.352
280	157.218	0.357
298.15	162.04	0.362
300	162.539	0.363
325	168.774	0.369
350	175.01	0.375

System: potassium disilicate; phases: Glass
Fixed: Pressure, kPa = 101.325
Property: Molar entropy, J/K/mol (Glass); method: Vacuum adiabatic calorimetry
Temperature, K	Molar entropy, J/K/mol	uncertainty
0	0	0.015
5	0.05	0.016
10	0.366	0.019
15	1.272	0.028
20	2.827	0.039
25	4.972	0.05
30	7.632	0.084
35	10.717	0.093
40	14.117	0.103
45	17.742	0.114
50	21.542	0.126
60	29.523	0.149
70	37.737	0.174
80	46.018	0.199
90	54.257	0.382
100	62.405	0.394
120	78.285	0.418
140	93.541	0.441
160	108.173	0.462
180	122.199	0.483
200	135.601	0.504
220	148.488	0.523
240	160.876	0.541
260	172.682	0.559
280	184.155	0.576
298.15	194.215	0.591
300	195.213	0.593
325	208.432	0.613
350	221.152	0.632

System: potassium disilicate; phases: Glass
Fixed: Pressure, kPa = 101.325
Property: Molar enthalpy function {Hm(T)-Hm(0)}/T, J/K/mol (Glass); method: Vacuum adiabatic calorimetry
Temperature, K	Molar enthalpy function {Hm(T)-Hm(0)}/T, J/K/mol	uncertainty
5	0.038	0.01
10	0.274	0.012
15	0.956	0.017
20	2.09	0.022
25	3.613	0.027
30	5.454	0.052
35	7.542	0.056
40	9.792	0.06
45	12.129	0.065
50	14.531	0.07
60	19.426	0.079
70	24.282	0.089
80	29.01	0.098
90	33.572	0.234
100	37.951	0.238
120	46.17	0.246
140	53.738	0.254
160	60.734	0.261
180	67.223	0.267
200	73.246	0.273
220	78.866	0.279
240	84.127	0.284
260	89.078	0.289
280	93.743	0.294
298.15	97.755	0.298
300	98.152	0.298
325	103.349	0.303
350	108.227	0.308

System: potassium disilicate; phases: Crystal
Fixed: Pressure, kPa = 101.325
Property: Molar heat capacity at constant pressure, J/K/mol (Crystal); method: Vacuum adiabatic calorimetry
Temperature, K	Molar heat capacity at constant pressure, J/K/mol	uncertainty
0	0	0.01
5	0.083	0.011
10	0.765	0.017
15	2.885	0.031
20	6.385	0.048
25	10.916	0.062
30	16.129	0.075
35	21.691	0.086
40	27.287	0.097
45	32.757	0.108
50	38.095	0.118
60	48.088	0.138
70	57.225	0.155
80	65.539	0.172
90	73.172	0.274
100	80.205	0.281
120	92.834	0.293
140	103.875	0.304
160	113.686	0.314
180	122.523	0.323
200	130.53	0.331
220	137.846	0.338
240	144.497	0.345
260	150.65	0.351
280	156.386	0.356
298.15	161.125	0.361
300	161.624	0.362
325	167.86	0.368
350	172.682	0.373

System: potassium disilicate; phases: Crystal
Fixed: Pressure, kPa = 101.325
Property: Molar entropy, J/K/mol (Crystal); method: Vacuum adiabatic calorimetry
Temperature, K	Molar entropy, J/K/mol	uncertainty
0	0	0.015
5	0.025	0.015
10	0.224	0.018
15	0.881	0.024
20	2.162	0.034
25	4.057	0.043
30	6.502	0.08
35	9.403	0.089
40	12.671	0.099
45	16.196	0.11
50	19.929	0.121
60	27.769	0.144
70	35.883	0.168
80	44.073	0.193
90	52.237	0.379
100	60.318	0.391
120	76.081	0.414
140	91.238	0.437
160	105.762	0.459
180	119.672	0.48
200	133.024	0.5
220	145.828	0.519
240	158.049	0.537
260	169.855	0.555
280	181.245	0.572
298.15	191.222	0.587
300	192.22	0.588
325	205.439	0.608
350	209.762	0.615

System: potassium disilicate; phases: Crystal
Fixed: Pressure, kPa = 101.325
Property: Molar enthalpy function {Hm(T)-Hm(0)}/T, J/K/mol (Crystal); method: Vacuum adiabatic calorimetry
Temperature, K	Molar enthalpy function {Hm(T)-Hm(0)}/T, J/K/mol	uncertainty
5	0.022	0.01
10	0.169	0.011
15	0.679	0.015
20	1.643	0.02
25	3.031	0.024
30	4.773	0.05
35	6.79	0.054
40	9.004	0.059
45	11.34	0.063
50	13.75	0.068
60	18.652	0.078
70	23.52	0.088
80	28.26	0.097
90	32.833	0.233
100	37.223	0.237
120	45.464	0.246
140	53.037	0.253
160	60.017	0.26
180	66.475	0.267
200	72.49	0.273
220	78.102	0.278
240	83.358	0.283
260	88.301	0.288
280	92.962	0.293
298.15	96.971	0.297
300	97.368	0.297
325	102.549	0.303
350	107.415	0.307
