Measured thermophysical data. The melting behaviour of uranium/neptunium mixed oxides
Source: J. Chem. Thermodyn., 2015, 10.1016/j.jct.2015.04.031
Compound 1: uranium dioxide, O2U, InChI=1S/2O.U/q2*-2;+4, purity 99.95%
Compound 2: neptunium(IV) oxide, NpO2, InChI=1S/Np.2O/q+4;2*-2, purity 99.87%

System: uranium dioxide; phases: Crystal, Liquid
Property: Solid-liquid equilibrium temperature, K (Crystal); method: laser heating method
Pressure, kPa	Solid-liquid equilibrium temperature, K	uncertainty
350	3130	25

System: neptunium(IV) oxide; phases: Crystal, Liquid
Property: Solid-liquid equilibrium temperature, K (Crystal); method: laser heating method
Pressure, kPa	Solid-liquid equilibrium temperature, K	uncertainty
350	3070	25

System: uranium dioxide + neptunium(IV) oxide; phases: Liquid, Crystal of unknown type
Fixed: Pressure, kPa = 350
Property: Solid-liquid equilibrium temperature, K (Liquid); method: laser heating method
Mole fraction of neptunium(IV) oxide	Solid-liquid equilibrium temperature, K	uncertainty
0.1	3124	26
0.2	3112	25
0.3	3100	25
0.7	3087	32

System: uranium dioxide + neptunium(IV) oxide; phases: Liquid, Crystal of unknown type
Fixed: Pressure, kPa = 350
Property: Solid-liquid equilibrium temperature, K (Liquid); method: laser heating method
Mole fraction of neptunium(IV) oxide	Solid-liquid equilibrium temperature, K	uncertainty
0	3130	25
0.02	3094	30
0.05	3129	83
0.5	3125	27
0.75	3091	32
0.85	3067	30
1	3070	25
