Measured thermophysical data. Vapor pressure and enthalpy of vaporization of aliphatic propanediamines
Source: J. Chem. Thermodyn., 2012, 10.1016/j.jct.2011.11.004
Compound 1: N-methyl-1,3-diaminopropane, C4H12N2, InChI=1S/C4H12N2/c1-6-4-2-3-5/h6H,2-5H2,1H3, purity 99%
Compound 2: N,N-dimethyl-1,3-propanediamine, C5H14N2, InChI=1S/C5H14N2/c1-7(2)5-3-4-6/h3-6H2,1-2H3, purity 99%
Compound 3: N,N-diethylpropane-1,3-diamine, C7H18N2, InChI=1S/C7H18N2/c1-3-9(4-2)7-5-6-8/h3-8H2,1-2H3, purity 99%
Compound 4: N,N,N',N'-tetramethyl-1,3-propanediamine, C7H18N2, InChI=1S/C7H18N2/c1-8(2)6-5-7-9(3)4/h5-7H2,1-4H3, purity 99%

System: N-methyl-1,3-diaminopropane; phases: Liquid, Gas
Property: Molar enthalpy of vaporization or sublimation, kJ/mol (Liquid); method: Derived by Second law
Temperature, K	Molar enthalpy of vaporization or sublimation, kJ/mol	uncertainty
298.15	53.1	1.3

System: N-methyl-1,3-diaminopropane; phases: Liquid, Gas
Property: Vapor or sublimation pressure, kPa (Liquid); method: Transpiration method
Temperature, K	Vapor or sublimation pressure, kPa	uncertainty
276.2	0.09113	0.00388
279.3	0.11625	0.00487
282.3	0.14807	0.0062
285.2	0.18552	0.00769
288.2	0.22869	0.00961
291.2	0.29728	0.01241
292.7	0.33279	0.01375
294.1	0.36669	0.01542
297.1	0.46343	0.01922
298.8	0.52981	0.02205
300.2	0.5889	0.02444
303.2	0.72234	0.02936

System: N,N-dimethyl-1,3-propanediamine; phases: Liquid, Gas
Property: Molar enthalpy of vaporization or sublimation, kJ/mol (Liquid); method: Derived by Second law
Temperature, K	Molar enthalpy of vaporization or sublimation, kJ/mol	uncertainty
298.15	46	1.1

System: N,N-dimethyl-1,3-propanediamine; phases: Liquid, Gas
Property: Vapor or sublimation pressure, kPa (Liquid); method: Transpiration method
Temperature, K	Vapor or sublimation pressure, kPa	uncertainty
273.5	0.17532	0.00754
273.8	0.18024	0.0078
274.2	0.18746	0.00811
275.8	0.20757	0.00849
275.9	0.20287	0.00826
276.4	0.21806	0.00927
277.8	0.24065	0.01057
278.1	0.24812	0.01057
278.4	0.25387	0.01055
281.1	0.29619	0.01508
281.4	0.31088	0.01552
283.4	0.35937	0.01474
283.4	0.35578	0.01461
283.4	0.36184	0.01483
285.8	0.41758	0.02133
286.2	0.44539	0.02216
288.1	0.50125	0.02025
288.1	0.49365	0.01991
288.7	0.51665	0.02095
288.8	0.50863	0.02053
289.2	0.53556	0.02473
289.2	0.53796	0.02548
291.7	0.62804	0.02461
292.1	0.63551	0.02706
292.1	0.65394	0.02744
293	0.69769	0.02882
294.9	0.77945	0.03553
295.2	0.80755	0.03646
296.9	0.88213	0.03544
297.8	0.93134	0.03887
298.2	0.98099	0.04043
298.9	1.01106	0.04051
299.7	1.0585	0.04268

System: N,N-diethylpropane-1,3-diamine; phases: Liquid, Gas
Property: Molar enthalpy of vaporization or sublimation, kJ/mol (Liquid); method: Derived by Second law
Temperature, K	Molar enthalpy of vaporization or sublimation, kJ/mol	uncertainty
298.15	52.4	1.5

System: N,N-diethylpropane-1,3-diamine; phases: Liquid, Gas
Property: Vapor or sublimation pressure, kPa (Liquid); method: Transpiration method
Temperature, K	Vapor or sublimation pressure, kPa	uncertainty
277.2	0.03765	0.00163
279.1	0.04448	0.00185
280.2	0.04785	0.00204
283.2	0.06153	0.00256
286.2	0.07622	0.00312
287.7	0.08442	0.00364
288.2	0.09379	0.0039
289.2	0.09614	0.00387
291.1	0.10867	0.00449
291.1	0.11734	0.00485
292.1	0.11946	0.00512
293.2	0.13165	0.00544
295.2	0.14936	0.00609
295.2	0.15908	0.00645
297.2	0.17004	0.00929
297.3	0.18348	0.00771
297.3	0.18114	0.00761
297.4	0.18719	0.00787
297.5	0.17987	0.00833
298.2	0.19354	0.00782
299.4	0.20211	0.00844
299.5	0.21317	0.00881
301.2	0.23968	0.00988
303.1	0.27398	0.01127
303.1	0.25275	0.01051
303.3	0.2637	0.01088
305.1	0.31383	0.01337

System: N,N,N',N'-tetramethyl-1,3-propanediamine; phases: Liquid, Gas
Property: Molar enthalpy of vaporization or sublimation, kJ/mol (Liquid); method: Derived by Second law
Temperature, K	Molar enthalpy of vaporization or sublimation, kJ/mol	uncertainty
298.15	45.3	1.1

System: N,N,N',N'-tetramethyl-1,3-propanediamine; phases: Liquid, Gas
Property: Vapor or sublimation pressure, kPa (Liquid); method: Transpiration method
Temperature, K	Vapor or sublimation pressure, kPa	uncertainty
273.5	0.15094	0.00591
273.5	0.1509	0.00591
273.5	0.14172	0.00653
274.2	0.15407	0.0062
275	0.16335	0.00679
275.6	0.17136	0.00699
276.1	0.17537	0.00723
276.6	0.18374	0.00777
277.1	0.19102	0.00778
278.4	0.20562	0.00833
279.2	0.21681	0.00917
281.1	0.2546	0.01041
283.4	0.28728	0.01189
283.4	0.30035	0.01236
285.8	0.35284	0.0147
287.6	0.40116	0.01678
289	0.45495	0.01891
294.3	0.6329	0.02541
295.7	0.67834	0.02731
299.2	0.81364	0.033
299.2	0.8194	0.03323
300.8	0.93865	0.03851
304.3	1.1431	0.0458
305.8	1.2272	0.0491
305.8	1.2263	0.049
309.1	1.4346	0.0579
310.8	1.6537	0.0673
310.9	1.6634	0.0677
315.6	2.1167	0.0859
315.6	2.0694	0.0842
315.6	2.116	0.0859
323.1	3.2144	0.1279
