Measured thermophysical data. Solid-liquid equilibrium and phase diagram for the ternary (2-naphthaldehyde + o-phthalic anhydride + 1,4-dioxane) system
Source: J. Chem. Thermodyn., 2016, 10.1016/j.jct.2016.06.011
Compound 1: .beta.-naphthaldehyde, C11H8O, InChI=1S/C11H8O/c12-8-9-5-6-10-3-1-2-4-11(10)7-9/h1-8H, purity 99.8%
Compound 2: isobenzofuran-1,3-dione, C8H4O3, InChI=1S/C8H4O3/c9-7-5-3-1-2-4-6(5)8(10)11-7/h1-4H, purity 99.7%
Compound 3: 1,4-dioxane, C4H8O2, InChI=1S/C4H8O2/c1-2-6-4-3-5-1/h1-4H2, purity 99.7%
Compound 4: water, H2O, InChI=1S/H2O/h1H2, purity 99.8%
Compound 5: benzoic acid, C7H6O2, InChI=1S/C7H6O2/c8-7(9)6-4-2-1-3-5-6/h1-5H,(H,8,9), purity 99.5%

System: .beta.-naphthaldehyde + isobenzofuran-1,3-dione + 1,4-dioxane; phases: Liquid, Crystal
Fixed: Pressure, kPa = 101.3
Property: Mass fraction of isobenzofuran-1,3-dione (Liquid); method: Chromatography
Temperature, K	Mass fraction of .beta.-naphthaldehyde	Mass fraction of isobenzofuran-1,3-dione	uncertainty
283.15	0	0.08506	0.00341
283.15	0.06746	0.08695	0.00348
283.15	0.1267	0.08953	0.00359
283.15	0.1709	0.09073	0.00363
283.15	0.2287	0.09164	0.00367
283.15	0.2759	0.09238	0.0037
283.15	0.3084	0.09164	0.00367
293.15	0	0.1354	0.0054
293.15	0.05891	0.1386	0.0056
293.15	0.115	0.1406	0.0056
293.15	0.1775	0.1415	0.0057
293.15	0.2348	0.1441	0.0058
293.15	0.31	0.1476	0.0059
293.15	0.3946	0.1514	0.0061
303.15	0	0.21	0.0084
303.15	0.07288	0.2128	0.0085
303.15	0.138	0.2142	0.0086
303.15	0.2081	0.2127	0.0085
303.15	0.282	0.2151	0.0086
303.15	0.3852	0.2165	0.0087
303.15	0.4885	0.2186	0.0088

System: .beta.-naphthaldehyde + isobenzofuran-1,3-dione + 1,4-dioxane; phases: Liquid, Crystal
Fixed: Pressure, kPa = 101.3
Property: Mass fraction of isobenzofuran-1,3-dione (Liquid); method: Chromatography
Temperature, K	Mass fraction of .beta.-naphthaldehyde	Mass fraction of isobenzofuran-1,3-dione	uncertainty
283.15	0.3084	0.09164	0.00367
283.15	0.3114	0.0741	0.00297
283.15	0.3159	0.06052	0.00242
283.15	0.3173	0.0436	0.00175
283.15	0.3203	0.02717	0.00109
283.15	0.3218	0.01544	0.00062
283.15	0.3211	0	
293.15	0.3946	0.1514	0.0061
293.15	0.4016	0.1221	0.0049
293.15	0.4075	0.101	0.004
293.15	0.4155	0.07299	0.00292
293.15	0.4237	0.03891	0.00156
293.15	0.4259	0.02305	0.00092
293.15	0.4232	0	
303.15	0.4885	0.2186	0.0088
303.15	0.4924	0.196	0.0079
303.15	0.5007	0.1573	0.0063
303.15	0.508	0.1187	0.0048
303.15	0.5139	0.08349	0.00334
303.15	0.5214	0.04249	0.0017
303.15	0.5289	0	

System: .beta.-naphthaldehyde + isobenzofuran-1,3-dione + 1,4-dioxane; phases: Liquid, Crystal, Crystal
Fixed: Pressure, kPa = 101.3
Property: Mass fraction of isobenzofuran-1,3-dione (Liquid); method: Chromatography
Temperature, K	Mass fraction of isobenzofuran-1,3-dione	uncertainty
283.15	0.09164	0.00367
293.15	0.1514	0.0061
303.15	0.2186	0.0088

System: .beta.-naphthaldehyde + isobenzofuran-1,3-dione + 1,4-dioxane; phases: Liquid, Crystal, Crystal
Fixed: Pressure, kPa = 101.3
Property: Mass fraction of .beta.-naphthaldehyde (Liquid); method: Chromatography
Temperature, K	Mass fraction of .beta.-naphthaldehyde	uncertainty
283.15	0.3084	0.0124
293.15	0.3946	0.0158
303.15	0.4885	0.0196

System: .beta.-naphthaldehyde + isobenzofuran-1,3-dione + 1,4-dioxane; phases: Liquid
Fixed: Pressure, kPa = 101.3
Property: Mass density, kg/m3 (Liquid); method: Pycnometric method
Temperature, K	Mass fraction of .beta.-naphthaldehyde	Mass fraction of isobenzofuran-1,3-dione	Mass density, kg/m3	uncertainty
283.15	0	0.08506	1034	14
283.15	0.06746	0.08695	1041	14
283.15	0.1267	0.08953	1051	14
283.15	0.1709	0.09073	1063	14
283.15	0.2287	0.09164	1071	14
283.15	0.2759	0.09238	1077	14
283.15	0.3084	0.09164	1081	14
283.15	0.3114	0.0741	1077	14
283.15	0.3159	0.06052	1068	14
283.15	0.3173	0.0436	1063	14
283.15	0.3203	0.02717	1062	14
283.15	0.3218	0.01544	1058	14
283.15	0.3211	0	1049	14
293.15	0	0.1354	1051	14
293.15	0.05891	0.1386	1062	14
293.15	0.115	0.1406	1072	14
293.15	0.1775	0.1415	1081	14
293.15	0.2348	0.1441	1084	14
293.15	0.31	0.1476	1090	14
293.15	0.3946	0.1514	1099	14
293.15	0.4016	0.1221	1089	14
293.15	0.4075	0.101	1079	14
293.15	0.4155	0.07299	1072	14
293.15	0.4237	0.03891	1065	14
293.15	0.4259	0.02305	1060	14
293.15	0.4232	0	1056	14
303.15	0	0.21	1061	14
303.15	0.07288	0.2128	1072	14
303.15	0.138	0.2142	1084	14
303.15	0.2081	0.2127	1089	14
303.15	0.282	0.2151	1094	14
303.15	0.3852	0.2165	1101	14
303.15	0.4885	0.2186	1109	14
303.15	0.4924	0.196	1093	14
303.15	0.5007	0.1573	1089	14
303.15	0.508	0.1187	1083	14
303.15	0.5139	0.08349	1077	14
303.15	0.5214	0.04249	1065	14
303.15	0.5289	0	1063	14

System: .beta.-naphthaldehyde + 1,4-dioxane; phases: Liquid, Crystal
Fixed: Pressure, kPa = 101.3
Property: Mole fraction of .beta.-naphthaldehyde (Liquid); method: Chromatography
Temperature, K	Mole fraction of .beta.-naphthaldehyde	uncertainty
283.15	0.2106	0.0084
288.15	0.2507	0.01
293.15	0.2929	0.0117
298.15	0.3398	0.0136
303.15	0.3879	0.0155
308.15	0.4442	0.0178

System: .beta.-naphthaldehyde + 1,4-dioxane; phases: Liquid, Crystal
Fixed: Pressure, kPa = 101.3
Property: Mass fraction of .beta.-naphthaldehyde (Liquid); method: Chromatography
Temperature, K	Mass fraction of .beta.-naphthaldehyde	uncertainty
283.15	0.3211	0.0129
293.15	0.4232	0.017
303.15	0.5289	0.0212

System: .beta.-naphthaldehyde + 1,4-dioxane; phases: Liquid
Fixed: Pressure, kPa = 101.3
Property: Mass density, kg/m3 (Liquid); method: Pycnometric method
Temperature, K	Mass fraction of .beta.-naphthaldehyde	Mass density, kg/m3	uncertainty
283.15	0.3211	1049	14
293.15	0.4232	1056	14
303.15	0.5289	1063	14

System: isobenzofuran-1,3-dione + 1,4-dioxane; phases: Liquid, Crystal
Fixed: Pressure, kPa = 101.3
Property: Mole fraction of isobenzofuran-1,3-dione (Liquid); method: Chromatography
Temperature, K	Mole fraction of isobenzofuran-1,3-dione	uncertainty
283.15	0.05241	0.0021
288.15	0.06754	0.00271
293.15	0.0852	0.00341
298.15	0.107	0.0043
303.15	0.1366	0.0055
308.15	0.1735	0.007

System: isobenzofuran-1,3-dione + 1,4-dioxane; phases: Liquid, Crystal
Fixed: Pressure, kPa = 101.3
Property: Mass fraction of isobenzofuran-1,3-dione (Liquid); method: Chromatography
Temperature, K	Mass fraction of isobenzofuran-1,3-dione	uncertainty
283.15	0.08506	0.00341
293.15	0.1354	0.0054
303.15	0.21	0.0084

System: isobenzofuran-1,3-dione + 1,4-dioxane; phases: Liquid
Fixed: Pressure, kPa = 101.3
Property: Mass density, kg/m3 (Liquid); method: Pycnometric method
Temperature, K	Mass fraction of isobenzofuran-1,3-dione	Mass density, kg/m3	uncertainty
283.15	0.08506	1034	14
293.15	0.1354	1051	14
303.15	0.21	1061	14

System: benzoic acid + water; phases: Liquid, Crystal
Fixed: Pressure, kPa = 101.3
Property: Mole fraction of benzoic acid (Liquid); method: Chromatography
Temperature, K	Mole fraction of benzoic acid	uncertainty
273.15	0.0002673	1.07e-05
283.15	0.0002963	1.19e-05
293.15	0.0004161	1.67e-05
298.15	0.0004997	2e-05
303.15	0.0006187	2.48e-05
313.15	0.0008295	3.32e-05
323.15	0.001165	4.7e-05
333.15	0.001687	6.8e-05
