Measured thermophysical data. Crystal-liquid interfacial free energy and thermophysical properties of pure liquid Ti using electrostatic levitation: Hypercooling limit, specific heat, total hemispherical emissivity, density, and interfacial free energy
Source: J. Chem. Thermodyn., 2013, 10.1016/j.jct.2013.03.012
Compound 1: titanium, Ti, InChI=1S/Ti, purity 99.995%

System: titanium; phases: Crystal, Liquid, Air at 1 atmosphere
Property: Normal melting temperature, K (Crystal); method: Heating curve in electrostatic levitation apparatus
Normal melting temperature, K	uncertainty
1941.15	2

System: titanium; phases: Liquid
Fixed: Pressure, kPa = 101.325
Property: Mass density, kg/m3 (Liquid); method: Levitation methods
Temperature, K	Mass density, kg/m3	uncertainty
1350	4235	40
1400	4223	40
1450	4211	40
1500	4200	40
1550	4188	40
1600	4176	40
1650	4164	40
1668	4160	40
1700	4152	40
