Measured thermophysical data. Investigation of the isothermal (vapour + liquid) equilibria of aqueous 2-amino-2-methyl-1-propanol (AMP), N-benzylethanolamine, or 3-dimethylamino-1-propanol solutions at several temperatures
Source: J. Chem. Thermodyn., 2010, 10.1016/j.jct.2010.04.015
Compound 1: 2-amino-2-methylpropan-1-ol, C4H11NO, InChI=1S/C4H11NO/c1-4(2,5)3-6/h6H,3,5H2,1-2H3
Compound 2: 2-benzylaminoethanol, C9H13NO, InChI=1S/C9H13NO/c11-7-6-10-8-9-4-2-1-3-5-9/h1-5,10-11H,6-8H2
Compound 3: 3-dimethylamino-1-propanol, C5H13NO, InChI=1S/C5H13NO/c1-6(2)4-3-5-7/h7H,3-5H2,1-2H3
Compound 4: water, H2O, InChI=1S/H2O/h1H2, purity 99.9%

System: 2-amino-2-methylpropan-1-ol; phases: Liquid, Gas
Property: Vapor or sublimation pressure, kPa (Liquid); method: Closed cell (Static) method
Temperature, K	Vapor or sublimation pressure, kPa	uncertainty
293.29	0.0415	0.001
303.35	0.0975	0.0019
313.24	0.2191	0.0028
323.25	0.4556	0.0048
332.57	0.8745	0.0082
343.18	1.6586	0.0112
353.17	2.9335	0.0143
363.1	4.9875	0.0194
373	8.1418	0.0254

System: 3-dimethylamino-1-propanol; phases: Liquid, Gas
Property: Vapor or sublimation pressure, kPa (Liquid); method: Closed cell (Static) method
Temperature, K	Vapor or sublimation pressure, kPa	uncertainty
283.15	0.007	0.0003
293.14	0.016	0.0006
303.09	0.0346	0.0009
313.08	0.0707	0.0014
323.28	0.1418	0.0021
333.12	0.2604	0.0031
343.12	0.4742	0.005
363.17	1.4194	0.0103
373.1	2.3146	0.0121

System: 2-amino-2-methylpropan-1-ol + water; phases: Liquid, Gas
Property: Vapor or sublimation pressure, kPa (Liquid); method: Closed cell (Static) method
Temperature, K	Mole fraction of 2-amino-2-methylpropan-1-ol	Vapor or sublimation pressure, kPa	uncertainty
293.15	0	2.2838	0.0229
293.15	0.0498	2.1703	0.0225
293.15	0.1001	2.0305	0.0221
293.15	0.18	1.9769	0.0219
293.15	0.2603	1.6698	0.0209
293.15	0.3598	1.4464	0.0202
293.15	0.5408	1.0027	0.0177
293.15	0.6692	0.6915	0.0136
293.15	0.8203	0.3627	0.0079
293.15	1	0.0405	0.0044
303.15	0	4.1478	0.0311
303.15	0.0498	3.9584	0.0303
303.15	0.1001	3.7225	0.0292
303.15	0.18	3.5283	0.0284
303.15	0.2603	3.0389	0.0262
303.15	0.3598	2.6179	0.0243
303.15	0.5408	1.7898	0.0213
303.15	0.6692	1.2269	0.0212
303.15	0.8203	0.7081	0.014
303.15	1	0.0976	0.0103
313.15	0	7.2219	0.0458
313.15	0.0498	6.912	0.0444
313.15	0.1001	6.53	0.0426
313.15	0.18	6.0803	0.0405
313.15	0.2603	5.3265	0.037
313.15	0.3598	4.5642	0.0334
313.15	0.5408	3.0872	0.0266
313.15	0.6692	2.1074	0.0225
313.15	0.8203	1.2963	0.0224
313.15	1	0.2176	0.0054
323.15	0	12.1071	0.0696
323.15	0.0498	11.6081	0.0673
323.15	0.1001	11.012	0.0645
323.15	0.18	10.1488	0.0604
323.15	0.2603	9.0231	0.0551
323.15	0.3598	7.6914	0.0487
323.15	0.5408	5.1605	0.0367
323.15	0.6692	3.5138	0.0288
323.15	0.8203	2.2446	0.0232
323.15	1	0.4531	0.0095
333.15	0	19.6156	0.1066
333.15	0.0498	18.8235	0.103
333.15	0.1001	17.9239	0.0988
333.15	0.18	16.4517	0.0916
333.15	0.2603	14.8171	0.0839
333.15	0.3598	12.5658	0.0731
333.15	0.5408	8.3817	0.0529
333.15	0.6692	5.7009	0.0397
333.15	0.8203	3.7036	0.0302
333.15	1	0.8889	0.0171
343.15	0	30.8154	0.162
343.15	0.0498	29.5745	0.1563
343.15	0.1001	28.2571	0.1501
343.15	0.18	25.9642	0.139
343.15	0.2603	23.6497	0.1282
343.15	0.3598	19.9565	0.1105
343.15	0.5408	13.2592	0.0779
343.15	0.6692	9.019	0.0567
343.15	0.8203	5.8587	0.0412
343.15	1	1.6544	0.021
353.15	0	47.0737	0.2424
353.15	0.0498	45.1559	0.2336
353.15	0.1001	43.2785	0.2248
353.15	0.18	39.9802	0.2089
353.15	0.2603	36.7767	0.1941
353.15	0.3598	30.8832	0.1659
353.15	0.5408	20.4713	0.1151
353.15	0.6692	13.9399	0.0823
353.15	0.8203	8.9306	0.0573
353.15	1	2.9386	0.0262
363.15	0	70.1022	0.3551
363.15	0.0498	67.1789	0.3416
363.15	0.1001	64.5689	0.3291
363.15	0.18	60.1821	0.3083
363.15	0.2603	55.8377	0.2883
363.15	0.3598	46.6687	0.2451
363.15	0.5408	30.9057	0.1688
363.15	0.6692	21.0863	0.1198
363.15	0.8203	13.1748	0.0798
363.15	1	5.0068	0.0363

System: 2-benzylaminoethanol + water; phases: Liquid, Gas
Property: Vapor or sublimation pressure, kPa (Liquid); method: Closed cell (Static) method
Temperature, K	Mole fraction of 2-benzylaminoethanol	Vapor or sublimation pressure, kPa	uncertainty
283.15	0	1.1995	0.0207
283.15	0.0746	1.1797	0.0204
283.15	0.1798	1.16	0.0201
283.15	0.2599	1.1242	0.0195
283.15	0.3589	0.9828	0.0174
283.15	0.4879	0.6833	0.0127
283.15	0.6368	0.3759	0.0079
283.15	0.7546	0.2192	0.0055
283.15	0.8358	0.1087	0.004
283.15	1	0.0003	0.0001
293.15	0	2.2838	0.0227
293.15	0.0746	2.2513	0.0226
293.15	0.1798	2.1784	0.0224
293.15	0.2599	2.0655	0.0221
293.15	0.3589	1.8102	0.0213
293.15	0.4879	1.3596	0.0199
293.15	0.6368	0.7557	0.0139
293.15	0.7546	0.4434	0.009
293.15	0.8358	0.2183	0.0055
293.15	1	0.0008	0.0002
298.15	0	3.095	0.0263
298.15	0.0746	3.0538	0.0261
298.15	0.1798	2.9377	0.0256
298.15	0.2599	2.7628	0.0249
298.15	0.3589	2.4174	0.0234
298.15	0.4879	1.8667	0.0216
298.15	0.6368	1.0465	0.0184
298.15	0.7546	0.6167	0.0117
298.15	0.8358	0.304	0.0068
298.15	1	0.0013	0.0002
303.15	0	4.1478	0.0313
303.15	0.0746	4.0959	0.0311
303.15	0.1798	3.9223	0.0303
303.15	0.2599	3.6646	0.0291
303.15	0.3589	3.1963	0.027
303.15	0.4879	2.5217	0.0241
303.15	0.6368	1.4287	0.0203
303.15	0.7546	0.8464	0.0154
303.15	0.8358	0.4187	0.0087
303.15	1	0.0022	0.0003
313.15	0	7.2219	0.0458
313.15	0.0746	7.1404	0.0454
313.15	0.1798	6.7991	0.0439
313.15	0.2599	6.2965	0.0416
313.15	0.3589	5.4334	0.0375
313.15	0.4879	4.4051	0.0329
313.15	0.6368	2.5597	0.0245
313.15	0.7546	1.5359	0.0208
313.15	0.8358	0.7708	0.0143
313.15	1	0.0053	0.0007
323.15	0	12.1071	0.0696
323.15	0.0746	11.98	0.0691
323.15	0.1798	11.3869	0.0664
323.15	0.2599	10.5045	0.0623
323.15	0.3589	8.9249	0.0547
323.15	0.4879	7.3076	0.0472
323.15	0.6368	4.3745	0.0334
323.15	0.7546	2.6642	0.0254
323.15	0.8358	1.3666	0.0204
323.15	1	0.0125	0.0015
333.15	0	19.6156	0.1066
333.15	0.0746	19.419	0.1058
333.15	0.1798	18.4827	0.1015
333.15	0.2599	17.0558	0.0951
333.15	0.3589	14.2113	0.0812
333.15	0.4879	11.5917	0.0687
333.15	0.6368	7.1709	0.0476
333.15	0.7546	4.4397	0.0344
333.15	0.8358	2.3414	0.0243
333.15	1	0.0276	0.0031
343.15	0	30.8154	0.162
343.15	0.0746	30.5123	0.1608
343.15	0.1798	29.1565	0.1546
343.15	0.2599	27.009	0.1452
343.15	0.3589	21.9986	0.1206
343.15	0.4879	17.6823	0.0997
343.15	0.6368	11.3275	0.0691
343.15	0.7546	7.1376	0.0488
343.15	0.8358	3.8885	0.0325
343.15	1	0.0578	0.0062
353.15	0	47.0737	0.2424
353.15	0.0746	46.609	0.2405
353.15	0.1798	44.8102	0.2325
353.15	0.2599	41.7925	0.2198
353.15	0.3589	33.1874	0.1776
353.15	0.4879	26.0629	0.1424
353.15	0.6368	17.3127	0.1001
353.15	0.7546	11.1108	0.0701
353.15	0.8358	6.2757	0.0458
353.15	1	0.1159	0.0042
363.15	0	70.1022	0.3551
363.15	0.0746	69.3943	0.352
363.15	0.1798	67.2411	0.3426
363.15	0.2599	63.2972	0.3261
363.15	0.3589	48.902	0.2579
363.15	0.4879	37.2688	0.1995
363.15	0.6368	25.6896	0.1433
363.15	0.7546	16.8003	0.1006
363.15	0.8358	9.8664	0.0663
363.15	1	0.2227	0.0055

System: 3-dimethylamino-1-propanol + water; phases: Liquid, Gas
Property: Vapor or sublimation pressure, kPa (Liquid); method: Closed cell (Static) method
Temperature, K	Mole fraction of 3-dimethylamino-1-propanol	Vapor or sublimation pressure, kPa	uncertainty
283.15	0	1.1995	0.0207
283.15	0.0501	1.1288	0.0196
283.15	0.1005	1.0745	0.0188
283.15	0.2599	0.8687	0.0167
283.15	0.3602	0.7398	0.0144
283.15	0.4998	0.5619	0.0114
283.15	0.7189	0.3322	0.0074
283.15	0.8119	0.231	0.0057
283.15	1	0.007	0.001
293.15	0	2.2838	0.0228
293.15	0.0501	2.1704	0.0224
293.15	0.1005	2.0696	0.0221
293.15	0.2599	1.6884	0.0209
293.15	0.3602	1.4182	0.02
293.15	0.4998	1.1314	0.0197
293.15	0.7189	0.651	0.0129
293.15	0.8119	0.5163	0.0106
293.15	1	0.016	0.0019
303.15	0	4.1478	0.0311
303.15	0.0501	3.9719	0.0304
303.15	0.1005	3.798	0.0296
303.15	0.2599	3.1272	0.0266
303.15	0.3602	2.6069	0.0243
303.15	0.4998	2.1465	0.0225
303.15	0.7189	1.2137	0.021
303.15	0.8119	1.0206	0.018
303.15	1	0.0346	0.0038
313.15	0	7.2219	0.0458
313.15	0.0501	6.9561	0.0446
313.15	0.1005	6.6752	0.0433
313.15	0.2599	5.5479	0.038
313.15	0.3602	4.613	0.0336
313.15	0.4998	3.8649	0.0302
313.15	0.7189	2.1637	0.0227
313.15	0.8119	1.8315	0.0217
313.15	1	0.0712	0.0076
323.15	0	12.107	0.0696
323.15	0.0501	11.7119	0.0678
323.15	0.1005	11.2862	0.0659
323.15	0.2599	9.4688	0.0572
323.15	0.3602	7.8849	0.0496
323.15	0.4998	6.6449	0.0438
323.15	0.7189	3.7059	0.0299
323.15	0.8119	3.0416	0.027
323.15	1	0.1396	0.0145
333.15	0	19.6156	0.1066
333.15	0.0501	19.0343	0.1039
333.15	0.1005	18.4285	0.1013
333.15	0.2599	15.6059	0.0877
333.15	0.3602	13.0589	0.0755
333.15	0.4998	10.9668	0.0655
333.15	0.7189	6.1227	0.0421
333.15	0.8119	4.7426	0.0357
333.15	1	0.2627	0.0062
343.15	0	30.8153	0.162
343.15	0.0501	29.9641	0.1581
343.15	0.1005	29.1571	0.1546
343.15	0.2599	24.9205	0.1343
343.15	0.3602	21.013	0.1155
343.15	0.4998	17.4516	0.0985
343.15	0.7189	9.7921	0.0613
343.15	0.8119	7.0204	0.0479
343.15	1	0.476	0.0099
353.15	0	47.0737	0.2424
353.15	0.0501	45.8291	0.2366
353.15	0.1005	44.8321	0.2325
353.15	0.2599	38.6685	0.2031
353.15	0.3602	32.9293	0.1758
353.15	0.4998	26.8798	0.1466
353.15	0.7189	15.206	0.09
353.15	0.8119	9.9512	0.064
353.15	1	0.8328	0.0161
363.15	0	70.1021	0.3551
363.15	0.0501	68.2833	0.3466
363.15	0.1005	67.166	0.3417
363.15	0.2599	58.4529	0.3008
363.15	0.3602	50.3645	0.2629
363.15	0.4998	40.2065	0.214
363.15	0.7189	22.9894	0.1312
363.15	0.8119	13.5994	0.0851
363.15	1	1.4116	0.0201
