Measured thermophysical data. Measurements of the critical parameters for {xNH3 + (1 x)H2O} with x = (0.9098, 0.7757,0.6808)
Source: J. Chem. Thermodyn., 2008, 10.1016/j.jct.2008.05.017
Compound 1: ammonia, H3N, InChI=1S/H3N/h1H3
Compound 2: water, H2O, InChI=1S/H2O/h1H2

System: ammonia + water; phases: Liquid, Gas
Property: Critical pressure, kPa (Liquid); method: metal-bellows variable volumeter
Mole fraction of ammonia	Critical pressure, kPa	uncertainty
0.6808	18693	23
0.7757	17307	32
0.9098	14182	48

System: ammonia + water; phases: Liquid, Gas
Property: Critical temperature, K (Liquid); method: metal-bellows variable volumeter
Mole fraction of ammonia	Critical temperature, K	uncertainty
0.6808	503.06	0.31
0.7757	478.58	0.41
0.9098	436.56	0.56

System: ammonia + water; phases: Liquid, Gas
Property: Critical density, kg/m3 (Liquid); method: bellows voluometer
Mole fraction of ammonia	Critical density, kg/m3	uncertainty
0.6808	294.6	1
0.7757	284	1.2
0.9098	262.9	1.8

System: ammonia + water; phases: Liquid
Property: Mass density, kg/m3 (Liquid); method: Bellows volumetry
Temperature, K	Pressure, kPa	Mole fraction of ammonia	Mass density, kg/m3	uncertainty
436.56	14191	0.9098	263.5	0.5
436.56	14208	0.9098	264.8	0.5
436.56	14217	0.9098	265.4	0.5
436.56	14225	0.9098	265.9	0.5
478.58	17311	0.7757	284.3	0.5
478.58	17320	0.7757	284.7	0.5
478.58	17329	0.7757	285.1	0.5
478.58	17347	0.7757	285.8	0.4
503.06	18697	0.6808	294.8	0.5
503.06	18706	0.6808	295.2	0.5
503.06	18715	0.6808	295.6	0.5
503.06	18724	0.6808	296	0.5
503.06	18733	0.6808	296.3	0.5
503.06	18743	0.6808	296.6	0.5
503.06	18751	0.6808	297	0.5
