Measured thermophysical data. Experimental study on the thermochemistry of 1-(2H)-phthalazinone and phthalhydrazide
Source: J. Chem. Thermodyn., 2008, 10.1016/j.jct.2008.01.010
Compound 1: carbon dioxide, CO2, InChI=1S/CO2/c2-1-3
Compound 2: nitrogen, N2, InChI=1S/N2/c1-2
Compound 3: water, H2O, InChI=1S/H2O/h1H2
Compound 4: oxygen, O2, InChI=1S/O2/c1-2
Compound 5: 1(2H)-phthalazinone, C8H6N2O, InChI=1S/C8H6N2O/c11-8-7-4-2-1-3-6(7)5-9-10-8/h1-5H,(H,10,11)
Compound 6: 2,3-dihydro-1,4-phthalazinedione, C8H6N2O2, InChI=1S/C8H6N2O2/c11-7-5-3-1-2-4-6(5)8(12)10-9-7/h1-4H,(H,9,11)(H,10,12)

System: 1(2H)-phthalazinone; phases: Crystal
Property: Mass density, kg/m3 (Crystal); method: Pycnometric method
Temperature, K	Pressure, kPa	Mass density, kg/m3	uncertainty
298.15	101.325	1290	20

System: 1(2H)-phthalazinone; phases: Crystal, Gas
Property: Vapor or sublimation pressure, kPa (Crystal); method: Calculated from knudsen effusion weight loss
Temperature, K	Vapor or sublimation pressure, kPa	uncertainty
348.12	0.0001427	7.2e-06
348.12	0.0001428	7.2e-06
348.12	0.0001398	7e-06
350.14	0.0001731	8.7e-06
350.14	0.0001683	8.4e-06
350.14	0.0001668	8.4e-06
352.15	0.0002116	1.06e-05
352.15	0.0002116	1.06e-05
352.15	0.0002079	1.04e-05
354.18	0.0002582	1.29e-05
354.18	0.0002587	1.3e-05
354.18	0.0002577	1.29e-05
356.2	0.0003206	1.61e-05
356.2	0.0003187	1.6e-05
356.2	0.0003134	1.57e-05
358.15	0.0003799	1.9e-05
358.15	0.0003853	1.93e-05
358.15	0.0003771	1.89e-05
360.2	0.0004783	2.39e-05
360.2	0.0004761	2.38e-05
360.2	0.0004538	2.27e-05
362.14	0.0005802	2.9e-05
362.14	0.0005665	2.84e-05
362.14	0.0005564	2.79e-05
364.18	0.0006992	3.5e-05
364.18	0.0006815	3.41e-05
364.18	0.000676	3.38e-05
366.14	0.0008356	4.18e-05
366.14	0.0008316	4.16e-05
366.14	0.000817	4.09e-05
368.13	0.0009681	4.84e-05
368.13	0.0010041	0.0001005
368.13	0.0009903	4.95e-05

System: 2,3-dihydro-1,4-phthalazinedione; phases: Crystal
Property: Mass density, kg/m3 (Crystal); method: Pycnometric method
Temperature, K	Pressure, kPa	Mass density, kg/m3	uncertainty
298.15	101.325	1390	20

System: 2,3-dihydro-1,4-phthalazinedione; phases: Crystal, Gas
Property: Vapor or sublimation pressure, kPa (Crystal); method: Calculated from knudsen effusion weight loss
Temperature, K	Vapor or sublimation pressure, kPa	uncertainty
428.18	0.0001501	7.5e-06
428.18	0.00015	7.5e-06
428.18	0.0001468	7.4e-06
430.16	0.0001786	8.9e-06
430.16	0.0001816	9.1e-06
430.16	0.0001711	8.6e-06
432.24	0.0002109	1.06e-05
432.24	0.000215	1.08e-05
432.24	0.0002114	1.06e-05
434.18	0.0002441	1.22e-05
434.18	0.0002433	1.22e-05
436.19	0.0002898	1.45e-05
436.19	0.000293	1.47e-05
436.19	0.0002878	1.44e-05
438.26	0.0003477	1.74e-05
438.26	0.0003523	1.76e-05
438.26	0.0003443	1.72e-05
440.19	0.0004064	2.03e-05
440.19	0.0003929	1.97e-05
442.17	0.000473	2.37e-05
442.17	0.000486	2.43e-05
442.17	0.000473	2.37e-05
444.26	0.0005785	2.9e-05
444.26	0.0005761	2.88e-05
444.26	0.0005785	2.9e-05
446.19	0.0006629	3.32e-05
446.19	0.0006749	3.38e-05
446.19	0.0006616	3.31e-05
448.22	0.0007985	4e-05
448.22	0.0007997	4e-05
448.22	0.0007669	3.84e-05
450.28	0.0009283	4.64e-05
450.28	0.0009382	4.69e-05

Reaction: -1 1(2H)-phthalazinone + 8 carbon dioxide + 1 nitrogen + 3 water + -9 oxygen
Property: Specific internal energy of reaction at constant volume, J/g
-27214.5

Reaction: -1 2,3-dihydro-1,4-phthalazinedione + 8 carbon dioxide + 1 nitrogen + 3 water + -8.5 oxygen
Property: Specific internal energy of reaction at constant volume, J/g
-23186.3
