Measured thermophysical data. Ternary (liquid + liquid) equilibria of the azeotrope (ethyl acetate + 2-propanol) with different ionic liquids at T = 298.15 K
Source: J. Chem. Thermodyn., 2007, 10.1016/j.jct.2007.04.010
Compound 1: ethyl acetate, C4H8O2, InChI=1S/C4H8O2/c1-3-6-4(2)5/h3H2,1-2H3, purity 99.8%
Compound 2: propan-2-ol, C3H8O, InChI=1S/C3H8O/c1-3(2)4/h3-4H,1-2H3, purity 99.7%
Compound 3: 1,3-dimethylimidazolium methylsulfate, C6H12N2O4S, InChI=1S/C5H9N2.CH4O4S/c1-6-3-4-7(2)5-6;1-5-6(2,3)4/h3-5H,1-2H3;1H3,(H,2,3,4)/q+1;/p-1, purity 98%
Compound 4: 1-butyl-3-methylimidazolium hexafluorophosphate, C8H15F6N2P, InChI=1S/C8H15N2.F6P/c1-3-4-5-10-7-6-9(2)8-10;1-7(2,3,4,5)6/h6-8H,3-5H2,1-2H3;/q+1;-1, purity 98%
Compound 5: 1-hexyl-3-methylimidazolium hexafluorophosphate, C10H19F6N2P, InChI=1S/C10H19N2.F6P/c1-3-4-5-6-7-12-9-8-11(2)10-12;1-7(2,3,4,5)6/h8-10H,3-7H2,1-2H3;/q+1;-1, purity 98%
Compound 6: 1-octyl-3-methylimidazolium hexafluorophosphate, C12H23F6N2P, InChI=1S/C12H23N2.F6P/c1-3-4-5-6-7-8-9-14-11-10-13(2)12-14;1-7(2,3,4,5)6/h10-12H,3-9H2,1-2H3;/q+1;-1, purity 98%

System: ethyl acetate; phases: Liquid
Property: Refractive index (Na D-line) (Liquid); method: Standard Abbe refractometry
Temperature, K	Pressure, kPa	Refractive index (Na D-line)	uncertainty
298.15	101.325	1.36977	0.00068

System: ethyl acetate; phases: Liquid
Property: Mass density, kg/m3 (Liquid); method: VIBTUB:UFactor:2
Temperature, K	Pressure, kPa	Mass density, kg/m3	uncertainty
298.15	101.325	894.4	0.4

System: propan-2-ol; phases: Liquid
Property: Refractive index (Na D-line) (Liquid); method: Standard Abbe refractometry
Temperature, K	Pressure, kPa	Refractive index (Na D-line)	uncertainty
298.15	101.325	1.37496	0.00068

System: propan-2-ol; phases: Liquid
Property: Mass density, kg/m3 (Liquid); method: VIBTUB:UFactor:3
Temperature, K	Pressure, kPa	Mass density, kg/m3	uncertainty
298.15	101.325	781	0.5

System: 1,3-dimethylimidazolium methylsulfate; phases: Liquid
Property: Refractive index (Na D-line) (Liquid); method: ABBE:UFactor:2
Temperature, K	Pressure, kPa	Refractive index (Na D-line)	uncertainty
298.15	101.325	1.4827	0.00095

System: 1,3-dimethylimidazolium methylsulfate; phases: Liquid
Property: Mass density, kg/m3 (Liquid); method: VIBTUB:UFactor:16
Temperature, K	Pressure, kPa	Mass density, kg/m3	uncertainty
298.15	101.325	1327.2	4

System: 1-butyl-3-methylimidazolium hexafluorophosphate; phases: Liquid
Property: Refractive index (Na D-line) (Liquid); method: ABBE:UFactor:2
Temperature, K	Pressure, kPa	Refractive index (Na D-line)	uncertainty
298.15	101.325	1.40937	0.00095

System: 1-butyl-3-methylimidazolium hexafluorophosphate; phases: Liquid
Property: Mass density, kg/m3 (Liquid); method: VIBTUB:UFactor:16
Temperature, K	Pressure, kPa	Mass density, kg/m3	uncertainty
298.15	101.325	1367.3	4.3

System: 1-hexyl-3-methylimidazolium hexafluorophosphate; phases: Liquid
Property: Refractive index (Na D-line) (Liquid); method: ABBE:UFactor:2
Temperature, K	Pressure, kPa	Refractive index (Na D-line)	uncertainty
298.15	101.325	1.41787	0.00095

System: 1-hexyl-3-methylimidazolium hexafluorophosphate; phases: Liquid
Property: Mass density, kg/m3 (Liquid); method: VIBTUB:UFactor:16
Temperature, K	Pressure, kPa	Mass density, kg/m3	uncertainty
298.15	101.325	1293.7	3.7

System: 1-octyl-3-methylimidazolium hexafluorophosphate; phases: Liquid
Property: Refractive index (Na D-line) (Liquid); method: ABBE:UFactor:2
Temperature, K	Pressure, kPa	Refractive index (Na D-line)	uncertainty
298.15	101.325	1.42302	0.00095

System: 1-octyl-3-methylimidazolium hexafluorophosphate; phases: Liquid
Property: Mass density, kg/m3 (Liquid); method: VIBTUB:UFactor:16
Temperature, K	Pressure, kPa	Mass density, kg/m3	uncertainty
298.15	101.325	1235.7	3.2

System: propan-2-ol + ethyl acetate + 1,3-dimethylimidazolium methylsulfate; phases: Liquid mixture 1, Liquid mixture 2
Fixed: Pressure, kPa = 101
Fixed: Temperature, K = 298.15
Property: Mole fraction of propan-2-ol (Liquid mixture 1); method: Density calibration data
Property: Mole fraction of propan-2-ol (Liquid mixture 2); method: Density calibration data
Property: Mole fraction of ethyl acetate (Liquid mixture 2); method: Density calibration data
Mole fraction of ethyl acetate	Mole fraction of propan-2-ol	uncertainty	Mole fraction of propan-2-ol	uncertainty	Mole fraction of ethyl acetate	uncertainty
0.981	0.019	0.014	0.033	0.033	0.183	
0.958	0.041	0.014	0.055	0.055	0.188	
0.933	0.067	0.014	0.081	0.061	0.193	
0.911	0.089	0.014	0.121	0.041	0.198	
0.89	0.11	0.014	0.171	0.04	0.206	
0.872	0.127	0.014	0.24	0.019	0.232	
0.86	0.139	0.014	0.288	0.014	0.276	
0.839	0.159	0.013	0.327	0.011	0.324	
0.819	0.175	0.013	0.346	0.01	0.378	
0.781	0.203	0.013	0.347	0.01	0.419	
0.715	0.255	0.013	0.336	0.01	0.507	

System: propan-2-ol + ethyl acetate + 1-butyl-3-methylimidazolium hexafluorophosphate; phases: Liquid mixture 2, Liquid mixture 1
Fixed: Temperature, K = 298.15
Fixed: Pressure, kPa = 101
Property: Mole fraction of propan-2-ol (Liquid mixture 2); method: Density calibration data
Property: Mole fraction of ethyl acetate (Liquid mixture 1); method: Density calibration data
Property: Mole fraction of propan-2-ol (Liquid mixture 1); method: Density calibration data
Mole fraction of ethyl acetate	Mole fraction of propan-2-ol	uncertainty	Mole fraction of ethyl acetate	uncertainty	Mole fraction of propan-2-ol	uncertainty
0.081	0.348	0.011	0.045	0.014	0.954	
0.112	0.363	0.011	0.073	0.014	0.926	
0.139	0.375	0.011	0.101	0.014	0.897	
0.172	0.385	0.01	0.132	0.014	0.864	
0.194	0.389	0.01	0.142	0.014	0.853	
0.21	0.394	0.01	0.159	0.014	0.836	
0.242	0.404	0.011	0.183	0.014	0.809	
0.276	0.416	0.011	0.209	0.013	0.781	
0.297	0.43	0.014	0.222	0.012	0.764	
0.315	0.452	0.018	0.247	0.012	0.73	
0.33	0.479	0.017	0.267	0.012	0.701	
0.346	0.493	0.013	0.29	0.012	0.669	

System: propan-2-ol + ethyl acetate + 1-hexyl-3-methylimidazolium hexafluorophosphate; phases: Liquid mixture 1, Liquid mixture 2
Fixed: Pressure, kPa = 101
Fixed: Temperature, K = 298.15
Property: Mole fraction of ethyl acetate (Liquid mixture 1); method: Density calibration data
Property: Mole fraction of ethyl acetate (Liquid mixture 2); method: Density calibration data
Property: Mole fraction of propan-2-ol (Liquid mixture 2); method: Density calibration data
Mole fraction of propan-2-ol	Mole fraction of ethyl acetate	uncertainty	Mole fraction of ethyl acetate	uncertainty	Mole fraction of propan-2-ol	uncertainty
0.988	0.01	0.01	0.008	0.008	0.516	
0.987	0.01	0.01	0.012	0.012	0.52	
0.984	0.012	0.012	0.035	0.035	0.527	
0.979	0.015	0.014	0.065	0.042	0.528	
0.975	0.019	0.013	0.084	0.034	0.532	
0.955	0.038	0.014	0.106	0.026	0.54	
0.927	0.065	0.014	0.132	0.018	0.555	
0.895	0.093	0.013	0.158	0.016	0.574	
0.882	0.104	0.012	0.171	0.013	0.585	
0.845	0.129	0.012	0.188	0.011	0.609	
0.804	0.158	0.012	0.2	0.01	0.65	
