Measured thermophysical data. Excess molar enthalpies of R-fenchone + butan-1-ol or + pentan-1-ol. Modeling with COSMO-RS and UNIFAC
Source: J. Chem. Thermodyn., 2018, 10.1016/j.jct.2018.01.005
Compound 1: (-)-fenchone, C10H16O, InChI=1S/C10H16O/c1-9(2)7-4-5-10(3,6-7)8(9)11/h7H,4-6H2,1-3H3/t7-,10+/m0/s1, purity 99.5%
Compound 2: butan-1-ol, C4H10O, InChI=1S/C4H10O/c1-2-3-4-5/h5H,2-4H2,1H3, purity 99.9%
Compound 3: pentan-1-ol, C5H12O, InChI=1S/C5H12O/c1-2-3-4-5-6/h6H,2-5H2,1H3, purity 99.6%

System: butan-1-ol; phases: Liquid
Fixed: Pressure, kPa = 101.325
Property: Mass density, kg/m3 (Liquid); method: Vibrating tube method
Temperature, K	Mass density, kg/m3	uncertainty
283.15	817.11	0.41
298.15	805.72	0.41
313.15	794.4	0.41
328.15	782.11	0.41

System: pentan-1-ol; phases: Liquid
Fixed: Pressure, kPa = 101.325
Property: Mass density, kg/m3 (Liquid); method: Vibrating tube method
Temperature, K	Mass density, kg/m3	uncertainty
283.15	821.79	0.42
298.15	810.9	0.42
313.15	799.8	0.42
328.15	788.82	0.42

System: (-)-fenchone + butan-1-ol; phases: Liquid
Fixed: Pressure, kPa = 100
Property: Excess molar enthalpy (molar enthalpy of mixing), kJ/mol (Liquid); method: Flow calorimetry
Temperature, K	Mole fraction of (-)-fenchone	Excess molar enthalpy (molar enthalpy of mixing), kJ/mol	uncertainty
283.15	0.05	0.213	0.008
283.15	0.1	0.404	0.013
283.15	0.203	0.731	0.023
283.15	0.3	0.929	0.029
283.15	0.396	1.065	0.033
283.15	0.499	1.119	0.035
283.15	0.603	1.093	0.034
283.15	0.692	0.99	0.031
283.15	0.805	0.768	0.024
283.15	0.898	0.441	0.014
283.15	0.95	0.225	0.008
298.15	0.05	0.238	0.009
298.15	0.1	0.455	0.015
298.15	0.203	0.813	0.025
298.15	0.3	1.044	0.032
298.15	0.396	1.209	0.037
298.15	0.499	1.278	0.04
298.15	0.603	1.252	0.039
298.15	0.692	1.13	0.035
298.15	0.805	0.869	0.027
298.15	0.898	0.51	0.016
298.15	0.95	0.258	0.01
313.15	0.05	0.255	0.009
313.15	0.1	0.489	0.016
313.15	0.203	0.87	0.027
313.15	0.3	1.125	0.035
313.15	0.396	1.309	0.041
313.15	0.499	1.386	0.043
313.15	0.603	1.358	0.042
313.15	0.692	1.223	0.038
313.15	0.805	0.929	0.029
313.15	0.898	0.553	0.018
313.15	0.95	0.278	0.01
328.15	0.05	0.266	0.01
328.15	0.1	0.51	0.016
328.15	0.203	0.907	0.028
328.15	0.3	1.179	0.037
328.15	0.396	1.374	0.043
328.15	0.499	1.457	0.045
328.15	0.603	1.426	0.044
328.15	0.692	1.276	0.04
328.15	0.805	0.962	0.03
328.15	0.898	0.573	0.018
328.15	0.95	0.287	0.011

System: (-)-fenchone + pentan-1-ol; phases: Liquid
Fixed: Pressure, kPa = 100
Property: Excess molar enthalpy (molar enthalpy of mixing), kJ/mol (Liquid); method: Flow calorimetry
Temperature, K	Mole fraction of (-)-fenchone	Excess molar enthalpy (molar enthalpy of mixing), kJ/mol	uncertainty
283.15	0.049	0.212	0.008
283.15	0.099	0.404	0.013
283.15	0.199	0.747	0.023
283.15	0.3	0.966	0.03
283.15	0.397	1.106	0.034
283.15	0.498	1.154	0.036
283.15	0.596	1.125	0.035
283.15	0.702	1.01	0.031
283.15	0.803	0.804	0.025
283.15	0.898	0.456	0.015
283.15	0.949	0.24	0.009
298.15	0.049	0.234	0.009
298.15	0.099	0.451	0.015
298.15	0.199	0.823	0.026
298.15	0.3	1.083	0.034
298.15	0.397	1.251	0.039
298.15	0.498	1.312	0.041
298.15	0.596	1.281	0.04
298.15	0.702	1.148	0.036
298.15	0.803	0.902	0.028
298.15	0.898	0.522	0.017
298.15	0.949	0.27	0.01
313.15	0.049	0.246	0.009
313.15	0.099	0.482	0.016
313.15	0.199	0.868	0.027
313.15	0.3	1.155	0.036
313.15	0.397	1.341	0.042
313.15	0.498	1.411	0.044
313.15	0.596	1.378	0.043
313.15	0.702	1.229	0.038
313.15	0.803	0.959	0.03
313.15	0.898	0.563	0.018
313.15	0.949	0.29	0.011
328.15	0.049	0.254	0.009
328.15	0.099	0.492	0.016
328.15	0.199	0.889	0.028
328.15	0.3	1.186	0.037
328.15	0.397	1.384	0.043
328.15	0.498	1.459	0.045
328.15	0.596	1.428	0.044
328.15	0.702	1.271	0.039
328.15	0.803	0.987	0.031
328.15	0.898	0.583	0.019
328.15	0.949	0.301	0.011
