Measured thermophysical data. Thermodynamic investigation of the ATPSs composed of some  (aliphatic alcohol + sodium carbonate + water) ternary systems
Source: J. Chem. Thermodyn., 2013, 10.1016/j.jct.2012.07.021
Compound 1: propan-1-ol, C3H8O, InChI=1S/C3H8O/c1-2-3-4/h4H,2-3H2,1H3, purity 99.5%
Compound 2: propan-2-ol, C3H8O, InChI=1S/C3H8O/c1-3(2)4/h3-4H,1-2H3, purity 99.7%
Compound 3: butan-2-ol, C4H10O, InChI=1S/C4H10O/c1-3-4(2)5/h4-5H,3H2,1-2H3, purity 99%
Compound 4: 2-methylpropan-2-ol, C4H10O, InChI=1S/C4H10O/c1-4(2,3)5/h5H,1-3H3, purity 99%
Compound 5: sodium carbonate, CNa2O3, InChI=1S/CH2O3.2Na/c2-1(3)4;;/h(H2,2,3,4);;/q;2*+1/p-2, purity 99.5%
Compound 6: ethanol, C2H6O, InChI=1S/C2H6O/c1-2-3/h3H,2H2,1H3, purity 99.5%
Compound 7: water, H2O, InChI=1S/H2O/h1H2, purity 99.9%

System: propan-1-ol + sodium carbonate + water; phases: Liquid mixture 2, Liquid mixture 1
Fixed: Solvent: Amount ratio of component to other component of binary solvent of sodium carbonate = 0.00892
Fixed: Pressure, kPa = 101
Property: Mole fraction of propan-1-ol (Liquid mixture 2); method: Titration method
Temperature, K	Mole fraction of propan-1-ol	uncertainty
293.15	0.096	0.004
298.15	0.091	0.004
303.15	0.087	0.004
308.15	0.084	0.003
313.15	0.082	0.003
318.15	0.082	0.003
323.15	0.082	0.003
328.15	0.082	0.003

System: propan-1-ol + sodium carbonate + water; phases: Liquid mixture 2, Liquid mixture 1
Fixed: Temperature, K = 298.15
Fixed: Pressure, kPa = 101
Property: Mass fraction of sodium carbonate (Liquid mixture 2); method: OTHER
Property: Mass fraction of sodium carbonate (Liquid mixture 1); method: OTHER
Property: Mass fraction of propan-1-ol (Liquid mixture 1); method: OTHER
Mass fraction of propan-1-ol	Mass fraction of sodium carbonate	uncertainty	Mass fraction of sodium carbonate	uncertainty	Mass fraction of propan-1-ol	uncertainty
0.0621	0.1158	0.001	0.0029	0.001	0.629	
0.0767	0.1037	0.0034	0.0032	0.001	0.5983	
0.0925	0.0913	0.0031	0.0042	0.001	0.5706	
0.1066	0.0816	0.003	0.0053	0.001	0.5431	
0.1325	0.0635	0.001	0.0068	0.001	0.5096	

System: propan-1-ol + sodium carbonate + water; phases: Liquid mixture 2, Liquid mixture 1
Fixed: Temperature, K = 298.15
Fixed: Pressure, kPa = 101
Property: Mass fraction of propan-1-ol (Liquid mixture 2); method: Titration method
Mass fraction of sodium carbonate	Mass fraction of propan-1-ol	uncertainty
0.0202	0.3676	0.0114
0.0255	0.3199	0.0099
0.0299	0.2835	0.009
0.0411	0.2141	0.0073
0.0499	0.179	0.0065
0.0548	0.1616	0.0061
0.0648	0.1316	0.0055
0.0785	0.1056	0.005
0.1084	0.0661	0.0044
0.1137	0.0607	0.0044
0.1203	0.0553	0.0043
0.1389	0.0426	0.0042

System: propan-2-ol + sodium carbonate + water; phases: Liquid mixture 2, Liquid mixture 1
Fixed: Solvent: Amount ratio of component to other component of binary solvent of sodium carbonate = 0.00892
Fixed: Pressure, kPa = 101
Property: Mole fraction of propan-2-ol (Liquid mixture 2); method: Titration method
Temperature, K	Mole fraction of propan-2-ol	uncertainty
293.15	0.115	0.005
298.15	0.119	0.005
303.15	0.126	0.005
308.15	0.138	0.006
313.15	0.156	0.006
318.15	0.169	0.007
323.15	0.177	0.007
328.15	0.182	0.007

System: propan-2-ol + sodium carbonate + water; phases: Liquid mixture 2, Liquid mixture 1
Fixed: Temperature, K = 298
Fixed: Pressure, kPa = 101
Property: Mass fraction of propan-2-ol (Liquid mixture 2); method: flame photometry
Property: Mass fraction of sodium carbonate (Liquid mixture 1); method: flame photometry
Property: Mass fraction of propan-2-ol (Liquid mixture 1); method: flame photometry
Mass fraction of sodium carbonate	Mass fraction of propan-2-ol	uncertainty	Mass fraction of sodium carbonate	uncertainty	Mass fraction of propan-2-ol	uncertainty
0.2203	0.0211	0.004	0.0047	0.004	0.5639	
0.2056	0.0312	0.004	0.007	0.004	0.5169	
0.1783	0.0401	0.004	0.0103	0.004	0.4511	
0.1423	0.0648	0.004	0.0159	0.004	0.3876	

System: propan-2-ol + sodium carbonate + water; phases: Liquid mixture 2, Liquid mixture 1
Fixed: Pressure, kPa = 101
Fixed: Temperature, K = 298.15
Property: Mass fraction of propan-2-ol (Liquid mixture 2); method: Titration method
Mass fraction of sodium carbonate	Mass fraction of propan-2-ol	uncertainty
0.0276	0.3263	0.0101
0.0338	0.3037	0.0095
0.044	0.2644	0.0085
0.061	0.2176	0.0073
0.0689	0.1967	0.0069
0.083	0.1685	0.0062
0.0878	0.1556	0.0059
0.1164	0.1065	0.005
0.1256	0.0937	0.0048
0.1408	0.074	0.0045
0.1553	0.0578	0.0043
0.1724	0.0419	0.0042
0.1837	0.0358	0.0041
0.2036	0.0255	0.0041
0.2292	0.0145	0.004
0.2484	0.0104	0.004

System: 2-methylpropan-2-ol + sodium carbonate + water; phases: Liquid mixture 2, Liquid mixture 1
Fixed: Solvent: Amount ratio of component to other component of binary solvent of sodium carbonate = 0.00892
Fixed: Pressure, kPa = 101
Property: Mole fraction of 2-methylpropan-2-ol (Liquid mixture 2); method: Titration method
Temperature, K	Mole fraction of 2-methylpropan-2-ol	uncertainty
293.15	0.068	0.003
298.15	0.061	0.003
303.15	0.053	0.002
308.15	0.047	0.002
313.15	0.044	0.002
318.15	0.042	0.002
323.15	0.04	0.002
328.15	0.036	0.002

System: 2-methylpropan-2-ol + sodium carbonate + water; phases: Liquid mixture 2, Liquid mixture 1
Fixed: Temperature, K = 298.15
Fixed: Pressure, kPa = 101
Property: Mass fraction of sodium carbonate (Liquid mixture 2); method: OTHER
Property: Mass fraction of sodium carbonate (Liquid mixture 1); method: OTHER
Property: Mass fraction of 2-methylpropan-2-ol (Liquid mixture 1); method: OTHER
Mass fraction of 2-methylpropan-2-ol	Mass fraction of sodium carbonate	uncertainty	Mass fraction of sodium carbonate	uncertainty	Mass fraction of 2-methylpropan-2-ol	uncertainty
0.0337	0.1365	0.001	0.0008	0.0008	0.7103	
0.0615	0.0971	0.0041	0.0013	0.001	0.6214	
0.0848	0.0858	0.0031	0.0017	0.001	0.6006	
0.0979	0.0693	0.001	0.0032	0.001	0.5485	

System: 2-methylpropan-2-ol + sodium carbonate + water; phases: Liquid mixture 2, Liquid mixture 1
Fixed: Temperature, K = 298.15
Fixed: Pressure, kPa = 101
Property: Mass fraction of 2-methylpropan-2-ol (Liquid mixture 2); method: Titration method
Mass fraction of sodium carbonate	Mass fraction of 2-methylpropan-2-ol	uncertainty
0.0119	0.4189	0.013
0.0142	0.3896	0.0121
0.0191	0.3402	0.0105
0.0247	0.2855	0.009
0.0356	0.2098	0.0072
0.0464	0.1629	0.0061
0.0535	0.1414	0.0057
0.0655	0.1096	0.0051
0.0728	0.0965	0.0048
0.0924	0.0693	0.0045
0.112	0.0475	0.0042
0.1273	0.0409	0.0042
0.1476	0.0272	0.0041

System: butan-2-ol + sodium carbonate + water; phases: Liquid mixture 2, Liquid mixture 1
Fixed: Solvent: Amount ratio of component to other component of binary solvent of sodium carbonate = 0.00892
Fixed: Pressure, kPa = 101
Property: Mole fraction of butan-2-ol (Liquid mixture 2); method: Titration method
Temperature, K	Mole fraction of butan-2-ol	uncertainty
293.15	0.024	0.001
298.15	0.023	0.001
303.15	0.022	0.001
308.15	0.021	0.001
313.15	0.021	0.001
318.15	0.021	0.001
323.15	0.021	0.001
328.15	0.021	0.001

System: butan-2-ol + sodium carbonate + water; phases: Liquid mixture 2, Liquid mixture 1
Fixed: Temperature, K = 298
Fixed: Pressure, kPa = 101
Property: Mass fraction of butan-2-ol (Liquid mixture 2); method: OTHER
Property: Mass fraction of sodium carbonate (Liquid mixture 1); method: OTHER
Property: Mass fraction of butan-2-ol (Liquid mixture 1); method: OTHER
Mass fraction of sodium carbonate	Mass fraction of butan-2-ol	uncertainty	Mass fraction of sodium carbonate	uncertainty	Mass fraction of butan-2-ol	uncertainty
0.1643	0.0149	0.004	0.0008	0.0008	0.8146	
0.1117	0.027	0.004	0.0009	0.0009	0.7839	
0.0802	0.0494	0.0041	0.0011	0.0011	0.7657	
0.0628	0.0715	0.004	0.0012	0.0012	0.7306	

System: butan-2-ol + sodium carbonate + water; phases: Liquid mixture 2, Liquid mixture 1
Fixed: Pressure, kPa = 101
Fixed: Temperature, K = 298.15
Property: Mass fraction of butan-2-ol (Liquid mixture 2); method: Titration method
Mass fraction of sodium carbonate	Mass fraction of butan-2-ol	uncertainty
0.0151	0.1214	0.0053
0.0191	0.1134	0.0051
0.0247	0.1062	0.005
0.0327	0.0966	0.0048
0.0392	0.089	0.0047
0.0527	0.0742	0.0045
0.0659	0.0611	0.0044
0.095	0.0402	0.0042
0.1007	0.0363	0.0041

System: ethanol + sodium carbonate + water; phases: Liquid mixture 2, Liquid mixture 1
Fixed: Solvent: Amount ratio of component to other component of binary solvent of sodium carbonate = 0.00892
Fixed: Pressure, kPa = 101
Property: Mole fraction of ethanol (Liquid mixture 2); method: Titration method
Temperature, K	Mole fraction of ethanol	uncertainty
293.15	0.164	0.007
298.15	0.171	0.007
303.15	0.178	0.007
308.15	0.185	0.007
313.15	0.193	0.008
318.15	0.197	0.008
323.15	0.203	0.008
328.15	0.207	0.008

System: ethanol + sodium carbonate + water; phases: Liquid mixture 2, Liquid mixture 1
Fixed: Temperature, K = 298.15
Fixed: Pressure, kPa = 101
Property: Mass fraction of ethanol (Liquid mixture 2); method: Titration method
Mass fraction of sodium carbonate	Mass fraction of ethanol	uncertainty
0.0337	0.33	0.0102
0.0461	0.2873	0.0091
0.0551	0.2665	0.0085
0.0726	0.233	0.0077
0.0826	0.2162	0.0073
0.1007	0.1835	0.0066
0.1179	0.1564	0.006
0.1433	0.1208	0.0053
0.1901	0.0711	0.0045
0.214	0.0504	0.0042
0.2372	0.0381	0.0041
0.2662	0.0251	0.0041
0.2874	0.0179	0.004

System: ethanol + sodium carbonate + water; phases: Liquid mixture 1, Liquid mixture 2
Fixed: Temperature, K = 298
Fixed: Pressure, kPa = 101
Property: Mass fraction of sodium carbonate (Liquid mixture 1); method: OTHER
Property: Mass fraction of ethanol (Liquid mixture 2); method: OTHER
Property: Mass fraction of sodium carbonate (Liquid mixture 2); method: OTHER
Mass fraction of ethanol	Mass fraction of sodium carbonate	uncertainty	Mass fraction of ethanol	uncertainty	Mass fraction of sodium carbonate	uncertainty
0.2911	0.0438	0.004	0.0473	0.004	0.2195	
0.3706	0.0307	0.004	0.0268	0.004	0.2569	
0.4595	0.0176	0.004	0.0108	0.004	0.2873	
