Measured thermophysical data. Volumetric properties of room temperature ionic liquid 1. The system of {1-methyl-3-ethylimidazolium ethyl sulfate + water} at temperature in the range (278.15 to 333.15) K
Source: J. Chem. Thermodyn., 2005, 10.1016/j.jct.2004.07.018
Compound 1: 1-ethyl-3-methylimidazolium ethyl sulfate, C8H16N2O4S, InChI=1S/C6H11N2.C2H6O4S/c1-3-8-5-4-7(2)6-8;1-2-6-7(3,4)5/h4-6H,3H2,1-2H3;2H2,1H3,(H,3,4,5)/q+1;/p-1
Compound 2: water, H2O, InChI=1S/H2O/h1H2

System: water + 1-ethyl-3-methylimidazolium ethyl sulfate; phases: Liquid
Fixed: Pressure, kPa = 101.3
Property: Mass density, kg/m3 (Liquid); method: BUOYAN
Temperature, K	Molality, mol/kg of 1-ethyl-3-methylimidazolium ethyl sulfate	Mass density, kg/m3	uncertainty
278.15	0.2224	1010	5.7
278.15	0.4472	1019.6	5.8
278.15	0.6739	1028.5	5.8
278.15	0.903	1037.1	5.9
278.15	1.132	1045.3	5.9
278.15	1.364	1053.1	6
278.15	1.598	1060.5	6
278.15	1.835	1067.6	6
278.15	2.072	1074.2	6.1
278.15	2.313	1080.5	6.1
278.15	2.554	1086.4	6.1
278.15	2.798	1092.2	6.2
278.15	3.044	1098.2	6.2
283.15	0.2224	1009.6	5.7
283.15	0.4472	1018.9	5.8
283.15	0.6739	1027.7	5.8
283.15	0.903	1036.1	5.9
283.15	1.132	1044	5.9
283.15	1.364	1051.5	5.9
283.15	1.598	1058.8	6
283.15	1.835	1065.6	6
283.15	2.072	1072	6.1
283.15	2.313	1078.2	6.1
283.15	2.554	1084	6.1
283.15	2.798	1089.6	6.2
283.15	3.044	1095	6.2
288.15	0.2224	1008.7	5.7
288.15	0.4472	1017.8	5.8
288.15	0.6739	1026.5	5.8
288.15	0.903	1034.8	5.8
288.15	1.132	1042.6	5.9
288.15	1.364	1050.1	5.9
288.15	1.598	1057.2	6
288.15	1.835	1063.8	6
288.15	2.072	1070.2	6
288.15	2.313	1076.2	6.1
288.15	2.554	1082	6.1
288.15	2.798	1087.4	6.1
288.15	3.044	1092.5	6.2
293.15	0.2224	1007.6	5.7
293.15	0.4472	1016.7	5.7
293.15	0.6739	1025.2	5.8
293.15	0.903	1033.3	5.8
293.15	1.132	1041	5.9
293.15	1.364	1048.3	5.9
293.15	1.598	1055.2	6
293.15	1.835	1061.9	6
293.15	2.072	1068.1	6
293.15	2.313	1074.1	6.1
293.15	2.554	1079.6	6.1
293.15	2.798	1085	6.1
293.15	3.044	1090	6.2
298.15	0.2224	1006.3	5.7
298.15	0.4472	1015	5.7
298.15	0.6739	1023.3	5.8
298.15	0.903	1031.2	5.8
298.15	1.132	1038.7	5.9
298.15	1.364	1045.7	5.9
298.15	1.598	1052.5	5.9
298.15	1.835	1058.9	6
298.15	2.072	1064.9	6
298.15	2.313	1070.6	6.1
298.15	2.554	1076.1	6.1
298.15	2.798	1081.3	6.1
298.15	3.044	1086.2	6.1
303.15	0.2224	1004.7	5.7
303.15	0.4472	1013.3	5.7
303.15	0.6739	1021.6	5.8
303.15	0.903	1029.3	5.8
303.15	1.132	1036.8	5.9
303.15	1.364	1043.9	5.9
303.15	1.598	1050.6	5.9
303.15	1.835	1057	6
303.15	2.072	1062.9	6
303.15	2.313	1068.6	6
303.15	2.554	1074.1	6.1
303.15	2.798	1079.4	6.1
303.15	3.044	1084.3	6.1
308.15	0.2224	1002.9	5.7
308.15	0.4472	1011.6	5.7
308.15	0.6739	1019.6	5.8
308.15	0.903	1027.7	5.8
308.15	1.132	1034.6	5.8
308.15	1.364	1041.5	5.9
308.15	1.598	1048.3	5.9
308.15	1.835	1054.6	6
308.15	2.072	1060.5	6
308.15	2.313	1066.2	6
308.15	2.554	1071.7	6.1
308.15	2.798	1076.8	6.1
308.15	3.044	1081.8	6.1
313.15	0.2224	1001.1	5.7
313.15	0.4472	1009.6	5.7
313.15	0.6739	1017.9	5.8
313.15	0.903	1025.6	5.8
313.15	1.132	1032.8	5.8
313.15	1.364	1039.7	5.9
313.15	1.598	1046.4	5.9
313.15	1.835	1052.8	5.9
313.15	2.072	1058.8	6
313.15	2.313	1064.4	6
313.15	2.554	1069.8	6
313.15	2.798	1074.9	6.1
313.15	3.044	1079.8	6.1
318.15	0.2224	999	5.6
318.15	0.4472	1007.5	5.7
318.15	0.6739	1015.6	5.7
318.15	0.903	1023.1	5.8
318.15	1.132	1030.4	5.8
318.15	1.364	1037.3	5.9
318.15	1.598	1043.9	5.9
318.15	1.835	1050.2	5.9
318.15	2.072	1056.1	6
318.15	2.313	1061.7	6
318.15	2.554	1067.1	6
318.15	2.798	1072.3	6.1
318.15	3.044	1077.1	6.1
323.15	0.2224	996.6	5.6
323.15	0.4472	1005.1	5.7
323.15	0.6739	1013	5.7
323.15	0.903	1020.5	5.8
323.15	1.132	1027.9	5.8
323.15	1.364	1034.7	5.8
323.15	1.598	1041.3	5.9
323.15	1.835	1047.7	5.9
323.15	2.072	1053.6	6
323.15	2.313	1059.4	6
323.15	2.554	1064.8	6
323.15	2.798	1070	6
323.15	3.044	1074.9	6.1
328.15	0.2224	994.1	5.6
328.15	0.4472	1002.6	5.7
328.15	0.6739	1010.6	5.7
328.15	0.903	1018.1	5.8
328.15	1.132	1025.3	5.8
328.15	1.364	1032.1	5.8
328.15	1.598	1038.7	5.9
328.15	1.835	1045.1	5.9
328.15	2.072	1051.1	5.9
328.15	2.313	1056.8	6
328.15	2.554	1062.4	6
328.15	2.798	1067.4	6
328.15	3.044	1072.7	6.1
333.15	0.2224	991.4	5.6
333.15	0.4472	999.8	5.7
333.15	0.6739	1007.7	5.7
333.15	0.903	1015.4	5.7
333.15	1.132	1022.7	5.8
333.15	1.364	1029.7	5.8
333.15	1.598	1036.4	5.9
333.15	1.835	1042.7	5.9
333.15	2.072	1048.9	5.9
333.15	2.313	1054.9	6
333.15	2.554	1060.4	6
333.15	2.798	1065.8	6
333.15	3.044	1070.9	6.1
