Measured thermophysical data. Densities, ultrasonic speeds, excess and partial molar properties of binary mixtures of acetonitrile with some alkyl methacrylates at temperatures from 293.15 K to 318.15 K
Source: J. Chem. Thermodyn., 2018, 10.1016/j.jct.2018.03.013
Compound 1: acetonitrile, C2H3N, InChI=1S/C2H3N/c1-2-3/h1H3, purity 99%
Compound 2: methyl methacrylate, C5H8O2, InChI=1S/C5H8O2/c1-4(2)5(6)7-3/h1H2,2-3H3, purity 99%
Compound 3: ethyl 2-methylpropenoate, C6H10O2, InChI=1S/C6H10O2/c1-4-8-6(7)5(2)3/h2,4H2,1,3H3, purity 98%
Compound 4: butyl 2-methyl-2-propenoate, C8H14O2, InChI=1S/C8H14O2/c1-4-5-6-10-8(9)7(2)3/h2,4-6H2,1,3H3, purity 99%

System: acetonitrile; phases: Liquid
Fixed: Pressure, kPa = 100
Property: Mass density, kg/m3 (Liquid); method: Pycnometric method
Temperature, K	Mass density, kg/m3	uncertainty
293.15	782.12	1.01
298.15	776.82	1.01
303.15	771.52	1.02
308.15	766.21	1.02
313.15	760.9	1.02
318.15	755.59	1.02

System: acetonitrile; phases: Liquid
Fixed: Pressure, kPa = 100
Fixed: Frequency, MHz = 3
Property: Speed of sound, m/s (Liquid); method: Linear variable-path acoustic interferometer
Temperature, K	Speed of sound, m/s	uncertainty
293.15	1304.7	1.7
298.15	1282.8	1.6
303.15	1263.9	1.6
308.15	1245	1.6
313.15	1226.5	1.6
318.15	1207.9	1.6

System: methyl methacrylate; phases: Liquid
Fixed: Pressure, kPa = 100
Property: Mass density, kg/m3 (Liquid); method: Pycnometric method
Temperature, K	Mass density, kg/m3	uncertainty
293.15	943.38	1.02
298.15	937.64	1.03
303.15	931.9	1.03
308.15	926.16	1.03
313.15	920.42	1.03
318.15	914.67	1.04

System: methyl methacrylate; phases: Liquid
Fixed: Pressure, kPa = 100
Fixed: Frequency, MHz = 3
Property: Speed of sound, m/s (Liquid); method: Linear variable-path acoustic interferometer
Temperature, K	Speed of sound, m/s	uncertainty
293.15	1200.5	1.6
298.15	1183.6	1.6
303.15	1168.5	1.6
308.15	1152.6	1.6
313.15	1135.4	1.6
318.15	1118.3	1.6

System: ethyl 2-methylpropenoate; phases: Liquid
Fixed: Pressure, kPa = 100
Property: Mass density, kg/m3 (Liquid); method: Pycnometric method
Temperature, K	Mass density, kg/m3	uncertainty
293.15	912.3	1.03
298.15	907.18	1.03
303.15	902.06	1.03
308.15	896.94	1.03
313.15	891.83	1.03
318.15	886.71	1.04

System: ethyl 2-methylpropenoate; phases: Liquid
Fixed: Pressure, kPa = 100
Fixed: Frequency, MHz = 3
Property: Speed of sound, m/s (Liquid); method: Linear variable-path acoustic interferometer
Temperature, K	Speed of sound, m/s	uncertainty
293.15	1196.8	1.6
298.15	1176.9	1.6
303.15	1157.6	1.6
308.15	1139.4	1.6
313.15	1121.5	1.6
318.15	1104.6	1.6

System: butyl 2-methyl-2-propenoate; phases: Liquid
Fixed: Pressure, kPa = 100
Property: Mass density, kg/m3 (Liquid); method: Pycnometric method
Temperature, K	Mass density, kg/m3	uncertainty
293.15	895.19	1.03
298.15	890.48	1.03
303.15	885.78	1.03
308.15	881.07	1.03
313.15	876.35	1.04
318.15	871.64	1.04

System: butyl 2-methyl-2-propenoate; phases: Liquid
Fixed: Pressure, kPa = 100
Fixed: Frequency, MHz = 3
Property: Speed of sound, m/s (Liquid); method: Linear variable-path acoustic interferometer
Temperature, K	Speed of sound, m/s	uncertainty
293.15	1241.7	1.7
298.15	1222.1	1.7
303.15	1202.4	1.7
308.15	1183	1.7
313.15	1163.8	1.7
318.15	1145.7	1.7

System: acetonitrile + methyl methacrylate; phases: Liquid
Fixed: Pressure, kPa = 100
Property: Mass density, kg/m3 (Liquid); method: Pycnometric method
Temperature, K	Mole fraction of acetonitrile	Mass density, kg/m3	uncertainty
293.15	0	943.38	1.02
293.15	0.0688	938.34	1.02
293.15	0.1376	932.76	1.02
293.15	0.1957	927.6	1.02
293.15	0.2716	920.18	1.02
293.15	0.3344	913.41	1.02
293.15	0.4135	903.99	1.02
293.15	0.4916	893.58	1.02
293.15	0.5649	882.66	1.02
293.15	0.6386	870.38	1.02
293.15	0.7084	857.36	1.02
293.15	0.7927	839.5	1.02
293.15	0.855	824.53	1.02
293.15	0.9073	810.58	1.02
293.15	0.9497	798.21	1.02
293.15	1	782.12	1.01
298.15	0	937.64	1.03
298.15	0.0688	932.64	1.03
298.15	0.1376	927.09	1.03
298.15	0.1957	921.95	1.03
298.15	0.2716	914.56	1.02
298.15	0.3344	907.81	1.02
298.15	0.4135	898.42	1.02
298.15	0.4916	888.04	1.02
298.15	0.5649	877.15	1.02
298.15	0.6386	864.91	1.02
298.15	0.7084	851.92	1.02
298.15	0.7927	834.09	1.02
298.15	0.855	819.15	1.02
298.15	0.9073	805.23	1.02
298.15	0.9497	792.88	1.02
298.15	1	776.82	1.01
303.15	0	931.9	1.03
303.15	0.0688	926.94	1.03
303.15	0.1376	921.42	1.03
303.15	0.1957	916.3	1.03
303.15	0.2716	908.94	1.03
303.15	0.3344	902.21	1.03
303.15	0.4135	892.85	1.03
303.15	0.4916	882.5	1.02
303.15	0.5649	871.64	1.02
303.15	0.6386	859.43	1.02
303.15	0.7084	846.47	1.02
303.15	0.7927	828.68	1.02
303.15	0.855	813.77	1.02
303.15	0.9073	799.87	1.02
303.15	0.9497	787.55	1.02
303.15	1	771.52	1.02
308.15	0	926.16	1.03
308.15	0.0688	921.23	1.03
308.15	0.1376	915.74	1.03
308.15	0.1957	910.65	1.03
308.15	0.2716	903.31	1.03
308.15	0.3344	896.61	1.03
308.15	0.4135	887.27	1.03
308.15	0.4916	876.95	1.03
308.15	0.5649	866.13	1.03
308.15	0.6386	853.94	1.02
308.15	0.7084	841.01	1.02
308.15	0.7927	823.27	1.02
308.15	0.855	808.39	1.02
308.15	0.9073	794.51	1.02
308.15	0.9497	782.21	1.02
308.15	1	766.21	1.02
313.15	0	920.42	1.03
313.15	0.0688	915.52	1.03
313.15	0.1376	910.06	1.03
313.15	0.1957	904.99	1.03
313.15	0.2716	897.68	1.03
313.15	0.3344	891	1.03
313.15	0.4135	881.69	1.03
313.15	0.4916	871.4	1.03
313.15	0.5649	860.61	1.03
313.15	0.6386	848.45	1.03
313.15	0.7084	835.55	1.03
313.15	0.7927	817.85	1.02
313.15	0.855	803	1.02
313.15	0.9073	789.15	1.02
313.15	0.9497	776.87	1.02
313.15	1	760.9	1.02
318.15	0	914.67	1.04
318.15	0.0688	909.81	1.03
318.15	0.1376	904.38	1.03
318.15	0.1957	899.33	1.03
318.15	0.2716	892.05	1.03
318.15	0.3344	885.39	1.03
318.15	0.4135	876.11	1.03
318.15	0.4916	865.85	1.03
318.15	0.5649	855.09	1.03
318.15	0.6386	842.96	1.03
318.15	0.7084	830.09	1.03
318.15	0.7927	812.43	1.03
318.15	0.855	797.61	1.03
318.15	0.9073	783.79	1.02
318.15	0.9497	771.53	1.02
318.15	1	755.59	1.02

System: acetonitrile + methyl methacrylate; phases: Liquid
Fixed: Pressure, kPa = 100
Fixed: Frequency, MHz = 3
Property: Speed of sound, m/s (Liquid); method: Linear variable-path acoustic interferometer
Temperature, K	Mole fraction of acetonitrile	Speed of sound, m/s	uncertainty
293.15	0	1200.5	1.6
293.15	0.0688	1207.5	1.6
293.15	0.1376	1214.3	1.6
293.15	0.1957	1220	1.6
293.15	0.2716	1227.3	1.6
293.15	0.3344	1233.2	1.6
293.15	0.4135	1240.5	1.6
293.15	0.4916	1247.5	1.6
293.15	0.5649	1254.2	1.6
293.15	0.6386	1261	1.6
293.15	0.7084	1267.7	1.6
293.15	0.7927	1276.4	1.6
293.15	0.855	1283.5	1.6
293.15	0.9073	1290.3	1.6
293.15	0.9497	1296.3	1.6
293.15	1	1304.7	1.7
298.15	0	1183.6	1.6
298.15	0.0688	1190.6	1.6
298.15	0.1376	1197.2	1.6
298.15	0.1957	1202.7	1.6
298.15	0.2716	1209.7	1.6
298.15	0.3344	1215.3	1.6
298.15	0.4135	1222.3	1.6
298.15	0.4916	1229	1.6
298.15	0.5649	1235.3	1.6
298.15	0.6386	1241.7	1.6
298.15	0.7084	1248	1.6
298.15	0.7927	1256.2	1.6
298.15	0.855	1263	1.6
298.15	0.9073	1269.3	1.6
298.15	0.9497	1275	1.6
298.15	1	1282.8	1.6
303.15	0	1168.5	1.6
303.15	0.0688	1175.5	1.6
303.15	0.1376	1182	1.6
303.15	0.1957	1187.4	1.6
303.15	0.2716	1194.1	1.6
303.15	0.3344	1199.5	1.6
303.15	0.4135	1206.2	1.6
303.15	0.4916	1212.6	1.6
303.15	0.5649	1218.6	1.6
303.15	0.6386	1224.8	1.6
303.15	0.7084	1230.8	1.6
303.15	0.7927	1238.7	1.6
303.15	0.855	1245.1	1.6
303.15	0.9073	1251.2	1.6
303.15	0.9497	1256.6	1.6
303.15	1	1263.9	1.6
308.15	0	1152.6	1.6
308.15	0.0688	1159.6	1.6
308.15	0.1376	1166	1.6
308.15	0.1957	1171.2	1.6
308.15	0.2716	1177.8	1.6
308.15	0.3344	1183	1.6
308.15	0.4135	1189.5	1.6
308.15	0.4916	1195.7	1.6
308.15	0.5649	1201.5	1.6
308.15	0.6386	1207.4	1.6
308.15	0.7084	1213.2	1.6
308.15	0.7927	1220.8	1.6
308.15	0.855	1227.1	1.6
308.15	0.9073	1233	1.6
308.15	0.9497	1238.2	1.6
308.15	1	1245	1.6
313.15	0	1135.4	1.6
313.15	0.0688	1142.4	1.6
313.15	0.1376	1148.7	1.6
313.15	0.1957	1153.9	1.6
313.15	0.2716	1160.3	1.6
313.15	0.3344	1165.6	1.6
313.15	0.4135	1172	1.6
313.15	0.4916	1178.1	1.6
313.15	0.5649	1183.8	1.6
313.15	0.6386	1189.5	1.6
313.15	0.7084	1195.2	1.6
313.15	0.7927	1202.7	1.6
313.15	0.855	1208.9	1.6
313.15	0.9073	1214.7	1.6
313.15	0.9497	1219.8	1.6
313.15	1	1226.5	1.6
318.15	0	1118.3	1.6
318.15	0.0688	1125.1	1.6
318.15	0.1376	1131.5	1.6
318.15	0.1957	1136.6	1.6
318.15	0.2716	1143.1	1.6
318.15	0.3344	1148.2	1.6
318.15	0.4135	1154.5	1.6
318.15	0.4916	1160.5	1.6
318.15	0.5649	1166.1	1.6
318.15	0.6386	1171.8	1.6
318.15	0.7084	1177.3	1.6
318.15	0.7927	1184.6	1.6
318.15	0.855	1190.7	1.6
318.15	0.9073	1196.3	1.6
318.15	0.9497	1201.4	1.6
318.15	1	1207.9	1.6

System: acetonitrile + ethyl 2-methylpropenoate; phases: Liquid
Fixed: Pressure, kPa = 100
Property: Mass density, kg/m3 (Liquid); method: Pycnometric method
Temperature, K	Mole fraction of acetonitrile	Mass density, kg/m3	uncertainty
293.15	0	912.3	1.03
293.15	0.0556	909.47	1.02
293.15	0.1112	906.38	1.02
293.15	0.1631	903.24	1.02
293.15	0.2147	899.86	1.02
293.15	0.2795	895.21	1.02
293.15	0.3446	890.04	1.02
293.15	0.4132	883.98	1.02
293.15	0.4819	877.18	1.02
293.15	0.5597	868.44	1.02
293.15	0.6375	858.38	1.02
293.15	0.7251	845.11	1.02
293.15	0.8113	829.5	1.02
293.15	0.9014	809.62	1.02
293.15	0.9542	795.78	1.02
293.15	1	782.12	1.01
298.15	0	907.18	1.03
298.15	0.0556	904.36	1.03
298.15	0.1112	901.28	1.03
298.15	0.1631	898.14	1.03
298.15	0.2147	894.76	1.03
298.15	0.2795	890.11	1.02
298.15	0.3446	884.94	1.02
298.15	0.4132	878.87	1.02
298.15	0.4819	872.05	1.02
298.15	0.5597	863.29	1.02
298.15	0.6375	853.22	1.02
298.15	0.7251	839.92	1.02
298.15	0.8113	824.27	1.02
298.15	0.9014	804.36	1.02
298.15	0.9542	790.5	1.02
298.15	1	776.82	1.01
303.15	0	902.06	1.03
303.15	0.0556	899.25	1.03
303.15	0.1112	896.18	1.03
303.15	0.1631	893.05	1.03
303.15	0.2147	889.66	1.03
303.15	0.2795	885.01	1.03
303.15	0.3446	879.82	1.03
303.15	0.4132	873.74	1.02
303.15	0.4819	866.92	1.02
303.15	0.5597	858.14	1.02
303.15	0.6375	848.05	1.02
303.15	0.7251	834.72	1.02
303.15	0.8113	819.05	1.02
303.15	0.9014	799.1	1.02
303.15	0.9542	785.22	1.02
303.15	1	771.52	1.02
308.15	0	896.94	1.03
308.15	0.0556	894.14	1.03
308.15	0.1112	891.07	1.03
308.15	0.1631	887.95	1.03
308.15	0.2147	884.57	1.03
308.15	0.2795	879.91	1.03
308.15	0.3446	874.71	1.03
308.15	0.4132	868.61	1.03
308.15	0.4819	861.78	1.03
308.15	0.5597	852.99	1.03
308.15	0.6375	842.87	1.02
308.15	0.7251	829.52	1.02
308.15	0.8113	813.82	1.02
308.15	0.9014	793.83	1.02
308.15	0.9542	779.93	1.02
308.15	1	766.21	1.02
313.15	0	891.83	1.03
313.15	0.0556	889.04	1.03
313.15	0.1112	885.98	1.03
313.15	0.1631	882.85	1.03
313.15	0.2147	879.47	1.03
313.15	0.2795	874.81	1.03
313.15	0.3446	869.6	1.03
313.15	0.4132	863.49	1.03
313.15	0.4819	856.64	1.03
313.15	0.5597	847.83	1.03
313.15	0.6375	837.7	1.03
313.15	0.7251	824.32	1.02
313.15	0.8113	808.59	1.02
313.15	0.9014	788.57	1.02
313.15	0.9542	774.64	1.02
313.15	1	760.9	1.02
318.15	0	886.71	1.04
318.15	0.0556	883.94	1.04
318.15	0.1112	880.88	1.03
318.15	0.1631	877.75	1.03
318.15	0.2147	874.37	1.03
318.15	0.2795	869.7	1.03
318.15	0.3446	864.49	1.03
318.15	0.4132	858.37	1.03
318.15	0.4819	851.5	1.03
318.15	0.5597	842.68	1.03
318.15	0.6375	832.52	1.03
318.15	0.7251	819.12	1.03
318.15	0.8113	803.35	1.03
318.15	0.9014	783.3	1.02
318.15	0.9542	769.35	1.02
318.15	1	755.59	1.02

System: acetonitrile + ethyl 2-methylpropenoate; phases: Liquid
Fixed: Pressure, kPa = 100
Fixed: Frequency, MHz = 3
Property: Speed of sound, m/s (Liquid); method: Linear variable-path acoustic interferometer
Temperature, K	Mole fraction of acetonitrile	Speed of sound, m/s	uncertainty
293.15	0	1196.8	1.6
293.15	0.0556	1200.9	1.6
293.15	0.1112	1205	1.6
293.15	0.1631	1208.8	1.6
293.15	0.2147	1212.6	1.6
293.15	0.2795	1217.4	1.6
293.15	0.3446	1222.2	1.6
293.15	0.4132	1227.4	1.6
293.15	0.4819	1232.8	1.6
293.15	0.5597	1239.5	1.6
293.15	0.6375	1246.9	1.6
293.15	0.7251	1256.4	1.6
293.15	0.8113	1267.7	1.6
293.15	0.9014	1282.6	1.6
293.15	0.9542	1293.4	1.6
293.15	1	1304.7	1.7
298.15	0	1176.9	1.6
298.15	0.0556	1181	1.6
298.15	0.1112	1185.1	1.6
298.15	0.1631	1188.8	1.6
298.15	0.2147	1192.5	1.6
298.15	0.2795	1197.2	1.6
298.15	0.3446	1201.9	1.6
298.15	0.4132	1207	1.6
298.15	0.4819	1212.3	1.6
298.15	0.5597	1218.8	1.6
298.15	0.6375	1226	1.6
298.15	0.7251	1235.4	1.6
298.15	0.8113	1246.5	1.6
298.15	0.9014	1261.1	1.6
298.15	0.9542	1271.8	1.6
298.15	1	1282.8	1.6
303.15	0	1157.6	1.6
303.15	0.0556	1161.8	1.6
303.15	0.1112	1165.9	1.6
303.15	0.1631	1169.6	1.6
303.15	0.2147	1173.3	1.6
303.15	0.2795	1177.9	1.6
303.15	0.3446	1182.6	1.6
303.15	0.4132	1187.7	1.6
303.15	0.4819	1193	1.6
303.15	0.5597	1199.5	1.6
303.15	0.6375	1206.7	1.6
303.15	0.7251	1216.2	1.6
303.15	0.8113	1227.4	1.6
303.15	0.9014	1242.2	1.6
303.15	0.9542	1252.9	1.6
303.15	1	1263.9	1.6
308.15	0	1139.4	1.6
308.15	0.0556	1143.6	1.6
308.15	0.1112	1147.7	1.6
308.15	0.1631	1151.4	1.6
308.15	0.2147	1155	1.6
308.15	0.2795	1159.6	1.6
308.15	0.3446	1164.3	1.6
308.15	0.4132	1169.3	1.6
308.15	0.4819	1174.6	1.6
308.15	0.5597	1181	1.6
308.15	0.6375	1188.1	1.6
308.15	0.7251	1197.5	1.6
308.15	0.8113	1208.6	1.6
308.15	0.9014	1223.4	1.6
308.15	0.9542	1234.1	1.6
308.15	1	1245	1.6
313.15	0	1121.5	1.6
313.15	0.0556	1125.6	1.6
313.15	0.1112	1129.8	1.6
313.15	0.1631	1133.5	1.6
313.15	0.2147	1137.1	1.6
313.15	0.2795	1141.7	1.6
313.15	0.3446	1146.3	1.6
313.15	0.4132	1151.3	1.6
313.15	0.4819	1156.5	1.6
313.15	0.5597	1162.9	1.6
313.15	0.6375	1169.9	1.6
313.15	0.7251	1179.2	1.6
313.15	0.8113	1190.3	1.6
313.15	0.9014	1205	1.6
313.15	0.9542	1215.7	1.6
313.15	1	1226.5	1.6
318.15	0	1104.6	1.6
318.15	0.0556	1108.7	1.6
318.15	0.1112	1112.8	1.6
318.15	0.1631	1116.5	1.6
318.15	0.2147	1120.1	1.6
318.15	0.2795	1124.6	1.6
318.15	0.3446	1129.2	1.6
318.15	0.4132	1134.1	1.6
318.15	0.4819	1139.2	1.6
318.15	0.5597	1145.4	1.6
318.15	0.6375	1152.3	1.6
318.15	0.7251	1161.4	1.6
318.15	0.8113	1172.3	1.6
318.15	0.9014	1186.7	1.6
318.15	0.9542	1197.3	1.6
318.15	1	1207.9	1.6

System: acetonitrile + butyl 2-methyl-2-propenoate; phases: Liquid
Fixed: Pressure, kPa = 100
Property: Mass density, kg/m3 (Liquid); method: Pycnometric method
Temperature, K	Mole fraction of acetonitrile	Mass density, kg/m3	uncertainty
293.15	0	895.19	1.03
293.15	0.0681	892.7	1.03
293.15	0.1359	889.93	1.03
293.15	0.1976	887.12	1.02
293.15	0.2728	883.27	1.02
293.15	0.3442	879.11	1.02
293.15	0.4143	874.45	1.02
293.15	0.4658	870.61	1.02
293.15	0.5243	865.72	1.02
293.15	0.5649	861.96	1.02
293.15	0.639	854.15	1.02
293.15	0.7112	845.09	1.02
293.15	0.7836	834.14	1.02
293.15	0.8558	820.72	1.02
293.15	0.928	803.86	1.02
293.15	1	782.12	1.01
298.15	0	890.48	1.03
298.15	0.0681	887.98	1.03
298.15	0.1359	885.2	1.03
298.15	0.1976	882.38	1.03
298.15	0.2728	878.51	1.03
298.15	0.3442	874.33	1.02
298.15	0.4143	869.65	1.02
298.15	0.4658	865.78	1.02
298.15	0.5243	860.86	1.02
298.15	0.5649	857.08	1.02
298.15	0.639	849.22	1.02
298.15	0.7112	840.11	1.02
298.15	0.7836	829.09	1.02
298.15	0.8558	815.6	1.02
298.15	0.928	798.66	1.02
298.15	1	776.82	1.01
303.15	0	885.78	1.03
303.15	0.0681	883.27	1.03
303.15	0.1359	880.47	1.03
303.15	0.1976	877.64	1.03
303.15	0.2728	873.75	1.03
303.15	0.3442	869.55	1.03
303.15	0.4143	864.84	1.03
303.15	0.4658	860.95	1.02
303.15	0.5243	856.01	1.02
303.15	0.5649	852.2	1.02
303.15	0.639	844.3	1.02
303.15	0.7112	835.14	1.02
303.15	0.7836	824.06	1.02
303.15	0.8558	810.49	1.02
303.15	0.928	793.46	1.02
303.15	1	771.52	1.02
308.15	0	881.07	1.03
308.15	0.0681	878.55	1.03
308.15	0.1359	875.74	1.03
308.15	0.1976	872.89	1.03
308.15	0.2728	868.98	1.03
308.15	0.3442	864.75	1.03
308.15	0.4143	860.01	1.03
308.15	0.4658	856.1	1.03
308.15	0.5243	851.13	1.03
308.15	0.5649	847.3	1.03
308.15	0.639	839.36	1.02
308.15	0.7112	830.15	1.02
308.15	0.7836	819.01	1.02
308.15	0.8558	805.37	1.02
308.15	0.928	788.25	1.02
308.15	1	766.21	1.02
313.15	0	876.35	1.04
313.15	0.0681	873.82	1.03
313.15	0.1359	871	1.03
313.15	0.1976	868.13	1.03
313.15	0.2728	864.2	1.03
313.15	0.3442	859.95	1.03
313.15	0.4143	855.18	1.03
313.15	0.4658	851.24	1.03
313.15	0.5243	846.24	1.03
313.15	0.5649	842.39	1.03
313.15	0.639	834.41	1.03
313.15	0.7112	825.14	1.03
313.15	0.7836	813.95	1.02
313.15	0.8558	800.24	1.02
313.15	0.928	783.04	1.02
313.15	1	760.9	1.02
318.15	0	871.64	1.04
318.15	0.0681	869.11	1.04
318.15	0.1359	866.27	1.04
318.15	0.1976	863.39	1.04
318.15	0.2728	859.43	1.03
318.15	0.3442	855.15	1.03
318.15	0.4143	850.35	1.03
318.15	0.4658	846.39	1.03
318.15	0.5243	841.36	1.03
318.15	0.5649	837.49	1.03
318.15	0.639	829.46	1.03
318.15	0.7112	820.14	1.03
318.15	0.7836	808.89	1.03
318.15	0.8558	795.11	1.03
318.15	0.928	777.83	1.02
318.15	1	755.59	1.02

System: acetonitrile + butyl 2-methyl-2-propenoate; phases: Liquid
Fixed: Pressure, kPa = 100
Fixed: Frequency, MHz = 3
Property: Speed of sound, m/s (Liquid); method: Linear variable-path acoustic interferometer
Temperature, K	Mole fraction of acetonitrile	Speed of sound, m/s	uncertainty
293.15	0	1241.7	1.7
293.15	0.0681	1244.4	1.7
293.15	0.1359	1247.2	1.7
293.15	0.1976	1249.7	1.7
293.15	0.2728	1252.7	1.7
293.15	0.3442	1255.5	1.7
293.15	0.4143	1258.2	1.7
293.15	0.4658	1260.3	1.7
293.15	0.5243	1262.7	1.7
293.15	0.5649	1264.5	1.7
293.15	0.639	1268.1	1.7
293.15	0.7112	1272.2	1.7
293.15	0.7836	1277.3	1.7
293.15	0.8558	1283.7	1.6
293.15	0.928	1292.4	1.6
293.15	1	1304.7	1.7
298.15	0	1222.1	1.7
298.15	0.0681	1224.8	1.7
298.15	0.1359	1227.6	1.7
298.15	0.1976	1230	1.7
298.15	0.2728	1232.9	1.7
298.15	0.3442	1235.5	1.7
298.15	0.4143	1238.2	1.7
298.15	0.4658	1240.2	1.7
298.15	0.5243	1242.5	1.7
298.15	0.5649	1244.2	1.6
298.15	0.639	1247.7	1.6
298.15	0.7112	1251.6	1.6
298.15	0.7836	1256.4	1.6
298.15	0.8558	1262.6	1.6
298.15	0.928	1271	1.6
298.15	1	1282.8	1.6
303.15	0	1202.4	1.7
303.15	0.0681	1205.3	1.7
303.15	0.1359	1208.1	1.7
303.15	0.1976	1210.5	1.7
303.15	0.2728	1213.3	1.7
303.15	0.3442	1216	1.7
303.15	0.4143	1218.7	1.6
303.15	0.4658	1220.7	1.6
303.15	0.5243	1223.1	1.6
303.15	0.5649	1224.8	1.6
303.15	0.639	1228.3	1.6
303.15	0.7112	1232.3	1.6
303.15	0.7836	1237.2	1.6
303.15	0.8558	1243.5	1.6
303.15	0.928	1252	1.6
303.15	1	1263.9	1.6
308.15	0	1183	1.7
308.15	0.0681	1185.9	1.7
308.15	0.1359	1188.7	1.7
308.15	0.1976	1191.2	1.7
308.15	0.2728	1194.1	1.6
308.15	0.3442	1196.8	1.6
308.15	0.4143	1199.4	1.6
308.15	0.4658	1201.4	1.6
308.15	0.5243	1203.8	1.6
308.15	0.5649	1205.6	1.6
308.15	0.639	1209.1	1.6
308.15	0.7112	1213.1	1.6
308.15	0.7836	1218.1	1.6
308.15	0.8558	1224.4	1.6
308.15	0.928	1233	1.6
308.15	1	1245	1.6
313.15	0	1163.8	1.7
313.15	0.0681	1166.7	1.7
313.15	0.1359	1169.6	1.6
313.15	0.1976	1172.1	1.6
313.15	0.2728	1175	1.6
313.15	0.3442	1177.7	1.6
313.15	0.4143	1180.4	1.6
313.15	0.4658	1182.4	1.6
313.15	0.5243	1184.8	1.6
313.15	0.5649	1186.6	1.6
313.15	0.639	1190.2	1.6
313.15	0.7112	1194.2	1.6
313.15	0.7836	1199.3	1.6
313.15	0.8558	1205.7	1.6
313.15	0.928	1214.3	1.6
313.15	1	1226.5	1.6
318.15	0	1145.7	1.7
318.15	0.0681	1148.6	1.6
318.15	0.1359	1151.5	1.6
318.15	0.1976	1154	1.6
318.15	0.2728	1156.9	1.6
318.15	0.3442	1159.6	1.6
318.15	0.4143	1162.3	1.6
318.15	0.4658	1164.3	1.6
318.15	0.5243	1166.7	1.6
318.15	0.5649	1168.4	1.6
318.15	0.639	1171.9	1.6
318.15	0.7112	1175.9	1.6
318.15	0.7836	1180.9	1.6
318.15	0.8558	1187.3	1.6
318.15	0.928	1195.8	1.6
318.15	1	1207.9	1.6
