Measured thermophysical data. Fatty acids methyl esters: Complementary measurements and comprehensive analysis of vaporization thermodynamics
Source: J. Chem. Thermodyn., 2019, 10.1016/j.jct.2019.01.007
Compound 1: methyl decanoate, C11H22O2, InChI=1S/C11H22O2/c1-3-4-5-6-7-8-9-10-11(12)13-2/h3-10H2,1-2H3, purity 99%
Compound 2: methyl undecanoate, C12H24O2, InChI=1S/C12H24O2/c1-3-4-5-6-7-8-9-10-11-12(13)14-2/h3-11H2,1-2H3, purity 99%
Compound 3: methyl dodecanoate, C13H26O2, InChI=1S/C13H26O2/c1-3-4-5-6-7-8-9-10-11-12-13(14)15-2/h3-12H2,1-2H3, purity 99.5%
Compound 4: methyl tridecanoate, C14H28O2, InChI=1S/C14H28O2/c1-3-4-5-6-7-8-9-10-11-12-13-14(15)16-2/h3-13H2,1-2H3, purity 99.5%
Compound 5: methyl tetradecanoate, C15H30O2, InChI=1S/C15H30O2/c1-3-4-5-6-7-8-9-10-11-12-13-14-15(16)17-2/h3-14H2,1-2H3, purity 99.5%
Compound 6: methyl hexadecanoate, C17H34O2, InChI=1S/C17H34O2/c1-3-4-5-6-7-8-9-10-11-12-13-14-15-16-17(18)19-2/h3-16H2,1-2H3, purity 99.5%
Compound 7: methyl heptadecanoate, C18H36O2, InChI=1S/C18H36O2/c1-3-4-5-6-7-8-9-10-11-12-13-14-15-16-17-18(19)20-2/h3-17H2,1-2H3, purity 99.7%
Compound 8: methyl octadecanoate, C19H38O2, InChI=1S/C19H38O2/c1-3-4-5-6-7-8-9-10-11-12-13-14-15-16-17-18-19(20)21-2/h3-18H2,1-2H3, purity 99.5%

System: methyl decanoate; phases: Liquid, Gas
Property: Vapor or sublimation pressure, kPa (Liquid); method: CCELL13
Temperature, K	Vapor or sublimation pressure, kPa	uncertainty
273.35	0.0004731	6.1e-06
273.84	0.0004984	6.4e-06
274.32	0.0005246	6.7e-06
274.8	0.0005538	7.1e-06
275.29	0.0005879	7.5e-06
275.77	0.0006152	7.8e-06
276.26	0.0006487	8.3e-06
276.74	0.0006849	8.7e-06
277.23	0.0007225	9.2e-06
277.71	0.0007597	9.7e-06
278.2	0.0008032	1.02e-05
278.69	0.0008442	1.07e-05
279.18	0.0008873	1.12e-05
279.66	0.0009341	1.18e-05
280.15	0.0009819	1.24e-05
280.64	0.0010349	1.31e-05
281.12	0.001093	1.4e-05
281.47	0.001128	1.4e-05
282.96	0.001314	1.7e-05
283.48	0.001386	1.7e-05
284.46	0.001532	1.9e-05
284.96	0.001613	2e-05
285.43	0.001692	2.1e-05
285.64	0.00173	2.2e-05
285.74	0.001743	2.2e-05
285.95	0.001776	2.2e-05
286.44	0.001869	2.3e-05
286.95	0.001967	2.5e-05
287.44	0.002063	2.6e-05
287.94	0.002166	2.7e-05
287.94	0.002174	2.7e-05
288.93	0.002392	3e-05
289.31	0.002487	3.1e-05
289.43	0.002508	3.1e-05
290.42	0.002759	3.4e-05
290.53	0.002791	3.5e-05
290.92	0.002894	3.6e-05
291.81	0.003154	3.9e-05
291.92	0.003182	4e-05
292.42	0.003341	4.2e-05
292.9	0.003501	4.4e-05
293.41	0.00367	4.6e-05
293.91	0.003845	4.8e-05
294.3	0.00399	5e-05
294.9	0.004224	5.3e-05
295.4	0.004415	5.5e-05
295.51	0.004442	5.5e-05
295.9	0.004625	5.8e-05
296.39	0.004836	6e-05
296.77	0.004989	6.2e-05
297.39	0.005295	6.6e-05
297.89	0.005534	6.8e-05
297.98	0.005566	6.9e-05
298.88	0.006057	7.5e-05
299.38	0.006339	7.9e-05
300.37	0.00692	8.5e-05
300.46	0.006953	8.6e-05
300.87	0.007243	9e-05
301.87	0.007893	9.8e-05
302.37	0.008238	0.000102
302.84	0.008517	0.000107
302.94	0.008627	0.000108
303.36	0.008981	0.000111
303.76	0.009236	0.000116
303.81	0.0093	0.000117
303.82	0.009286	0.000117
303.82	0.009287	0.000117
303.86	0.00937	0.000118
304.85	0.0102	0.00013
304.85	0.01021	0.00013
305.24	0.01047	0.00013
305.26	0.01052	0.00013
305.29	0.01057	0.00013
305.35	0.01065	0.00013
305.42	0.01069	0.00013

System: methyl decanoate; phases: Liquid, Gas
Property: Vapor or sublimation pressure, kPa (Liquid); method: CCELL1
Temperature, K	Vapor or sublimation pressure, kPa	uncertainty
307.68	0.01286	0.0002
308.6	0.01393	0.00021
308.64	0.014	0.00021
310.04	0.0157	0.00022
310.06	0.01581	0.00022
310.09	0.0158	0.00022
310.1	0.01574	0.00022
310.14	0.01575	0.00022
312.52	0.01912	0.00026
313.44	0.02065	0.00028
313.47	0.0207	0.00028
314.89	0.02316	0.00031
314.94	0.0232	0.00031
317.35	0.02798	0.00037
317.35	0.02794	0.00037
317.42	0.02817	0.00037
318.24	0.0299	0.00039
318.28	0.03012	0.00039
319.72	0.0337	0.00044
319.78	0.03379	0.00044
319.78	0.03376	0.00044
322.16	0.04037	0.00052
322.2	0.0406	0.00052
322.27	0.04082	0.00053
323.11	0.04344	0.00056
324.57	0.04813	0.00062
324.61	0.04845	0.00062
324.63	0.04869	0.00062
327.04	0.05787	0.00073
327.09	0.05806	0.00074
327.93	0.06147	0.00078
327.97	0.06194	0.00078
329.38	0.06819	0.00087
329.43	0.06843	0.00088
329.46	0.06916	0.0009
329.51	0.0691	0.00088
330.86	0.07578	0.00095
331.89	0.08137	0.00102
331.9	0.08129	0.00102
331.96	0.08174	0.00103
332.78	0.08635	0.00109
334.24	0.09568	0.0012
334.28	0.09573	0.00121
334.33	0.09658	0.00122
334.33	0.09631	0.00121
334.38	0.09672	0.00121
335.68	0.1054	0.0013
336.74	0.1133	0.0014
336.79	0.1135	0.0014
337.62	0.1198	0.0015
339.09	0.1322	0.0017
339.17	0.1333	0.0017
339.24	0.1341	0.0017
340.51	0.1449	0.0018
340.55	0.1456	0.0018
341.5	0.1546	0.0019
341.58	0.1555	0.0019
341.63	0.1564	0.002
341.66	0.157	0.002
348.04	0.2325	0.0029
352.92	0.3135	0.0039
357.8	0.4166	0.0051
362.67	0.5493	0.0068
367.55	0.7207	0.0089
372.43	0.9271	0.0114
374.86	1.054	0.013
377.3	1.195	0.015

System: methyl undecanoate; phases: Liquid, Gas
Property: Vapor or sublimation pressure, kPa (Liquid); method: CCELL13
Temperature, K	Vapor or sublimation pressure, kPa	uncertainty
305.25	0.003577	4.5e-05
307.81	0.004504	5.6e-05
310.15	0.005571	6.9e-05
312.67	0.006957	8.6e-05
315.06	0.008553	0.000106
317.52	0.01055	0.00013

System: methyl undecanoate; phases: Liquid, Gas
Property: Vapor or sublimation pressure, kPa (Liquid); method: CCELL1
Temperature, K	Vapor or sublimation pressure, kPa	uncertainty
319.94	0.01283	0.0002
322.42	0.01574	0.00022
324.82	0.019	0.00026
327.29	0.02304	0.00031
329.69	0.02778	0.00036
332.16	0.03345	0.00043
334.54	0.03987	0.00051
337.03	0.04783	0.00061
339.43	0.05689	0.00072
341.91	0.06735	0.00085

System: methyl dodecanoate; phases: Liquid, Gas
Property: Vapor or sublimation pressure, kPa (Liquid); method: Transpiration method
Temperature, K	Vapor or sublimation pressure, kPa	uncertainty
349.3	0.0413	0.0084
333.9	0.0134	0.0027
370	0.16	0.033
335.7	0.0164	0.0033
338.7	0.0198	0.004
371.8	0.178	0.036
344.1	0.0291	0.0059
340.7	0.0228	0.0046
364.7	0.11	0.022
331.8	0.0113	0.0023
329.9	0.00982	0.002
325.9	0.00701	0.00143
323.8	0.00609	0.00124
389.6	0.491	0.1
391.9	0.534	0.109
386.8	0.412	0.084
401.3	0.898	0.183
351.3	0.047	0.0096
354.4	0.0603	0.0123
394.9	0.635	0.129
359.6	0.0828	0.0168
361.5	0.0952	0.0194
327.9	0.00853	0.00174
345.9	0.0331	0.0067
356.4	0.0682	0.0139
366.7	0.132	0.027
374.7	0.214	0.044
397	0.694	0.141
399.2	0.774	0.157
381.7	0.314	0.064
378.6	0.263	0.053

System: methyl tridecanoate; phases: Liquid, Gas
Property: Vapor or sublimation pressure, kPa (Liquid); method: Transpiration method
Temperature, K	Vapor or sublimation pressure, kPa	uncertainty
333.15	0.00626	0.00128
353.15	0.0286	0.0058
348.15	0.0197	0.004
343.05	0.0131	0.0027
313.35	0.00112	0.00023
318.25	0.00174	0.00035
323.25	0.00258	0.00053
328.15	0.00415	0.00085
330.15	0.00492	0.001
335.15	0.00739	0.00151
338.15	0.00934	0.0019
340.15	0.0111	0.0023
345.15	0.0163	0.0033
350.15	0.023	0.0047
355.15	0.0338	0.0069
325.05	0.00314	0.00064
303.25	0.00041	8.4e-05
305.15	0.000485	9.9e-05
308.15	0.000697	0.000142
310.15	0.000799	0.000163
315.05	0.0013	0.00027
320.15	0.00203	0.00041
298.15	0.000239	4.9e-05
300.15	0.000302	6.2e-05

System: methyl tetradecanoate; phases: Liquid, Gas
Property: Vapor or sublimation pressure, kPa (Liquid); method: CCELL13
Temperature, K	Vapor or sublimation pressure, kPa	uncertainty
302.71	0.0001132	2e-06
305.3	0.0001501	2.2e-06
306.14	0.0001656	2.3e-06
307.76	0.0001949	2.6e-06
308.58	0.0002142	2.9e-06
310.23	0.0002542	3.4e-06
311.21	0.0002813	3.7e-06
312.71	0.0003264	4.3e-06
313.7	0.0003625	4.7e-06
315.17	0.0004199	5.4e-06
316.16	0.0004655	6e-06
317.65	0.0005357	6.8e-06
318.63	0.0005914	7.6e-06
320.12	0.0006862	8.7e-06
321.26	0.0007623	9.7e-06
322.58	0.0008688	1.1e-05
323.72	0.0009621	1.21e-05
325.2	0.001105	1.4e-05
326.19	0.001216	1.5e-05
327.67	0.001391	1.7e-05
328.66	0.001519	1.9e-05
330.13	0.001743	2.2e-05
331.13	0.001907	2.4e-05
332.6	0.002171	2.7e-05
333.6	0.002378	3e-05
335.34	0.002751	3.4e-05
336.07	0.002936	3.7e-05
337.83	0.00341	4.2e-05
338.55	0.003626	4.5e-05
340.31	0.004207	5.2e-05
341.01	0.00447	5.6e-05
342.8	0.005171	6.4e-05
343.48	0.005466	6.8e-05
345.28	0.006333	7.8e-05
345.96	0.006695	8.3e-05
347.76	0.007722	9.5e-05
348.43	0.008134	0.000101
350.25	0.009383	0.000116
350.91	0.009867	0.000122
352.73	0.01136	0.00014

System: methyl tetradecanoate; phases: Liquid, Gas
Property: Vapor or sublimation pressure, kPa (Liquid); method: Transpiration method
Temperature, K	Vapor or sublimation pressure, kPa	uncertainty
333.05	0.00252	0.00051
353.05	0.0111	0.0023
348.05	0.00758	0.00154
343.05	0.00536	0.00109
338.05	0.00359	0.00073
313.15	0.00039	7.9e-05
309.15	0.000236	4.8e-05
303.05	0.000126	2.6e-05
304.65	0.000152	3.1e-05
316.25	0.000485	9.9e-05
319.25	0.000631	0.000129
306.05	0.000172	3.5e-05
311.15	0.00032	6.5e-05
322.05	0.000891	0.000182
325.05	0.00116	0.00024
328.25	0.00151	0.00031
331.05	0.0019	0.00039
333.15	0.00233	0.00048
334.95	0.00275	0.00056
340.05	0.00416	0.00085
344.95	0.00629	0.00128
350.15	0.00963	0.00196
355.15	0.0133	0.0027
358.05	0.0168	0.0034
360.05	0.02	0.0041
363.05	0.0242	0.0049

System: methyl tetradecanoate; phases: Liquid, Gas
Property: Vapor or sublimation pressure, kPa (Liquid); method: CCELL1
Temperature, K	Vapor or sublimation pressure, kPa	uncertainty
355.48	0.01397	0.00021
357.96	0.0168	0.00023
360.44	0.02019	0.00027
362.92	0.02417	0.00032
365.4	0.02884	0.00038
367.85	0.0341	0.00044
370.34	0.0405	0.00052
372.83	0.04791	0.00061
375.44	0.05668	0.00072
377.92	0.06667	0.00084
380.41	0.0782	0.00098
382.89	0.09144	0.00115
385.37	0.1068	0.0013
387.86	0.1243	0.0016
390.36	0.1443	0.0018
393.01	0.1685	0.0021
395.5	0.1947	0.0024
397.98	0.2245	0.0028
400.45	0.2582	0.0032
402.96	0.297	0.0037
405.45	0.3402	0.0042
407.93	0.3881	0.0048
410.41	0.4428	0.0055
412.89	0.5045	0.0062
415.45	0.5764	0.0071
417.93	0.6527	0.008
420.4	0.7365	0.0091
422.88	0.8323	0.0102

System: methyl hexadecanoate; phases: Liquid, Gas
Property: Vapor or sublimation pressure, kPa (Liquid); method: CCELL13
Temperature, K	Vapor or sublimation pressure, kPa	uncertainty
308.12	2.814e-05	3.23e-06
312	4.574e-05	3.26e-06
312.96	5.318e-05	3.27e-06
312.97	4.817e-05	3.26e-06
314.42	5.995e-05	3.28e-06
315.4	6.903e-05	3.29e-06
316.85	7.591e-05	3.31e-06
317.81	8.232e-05	3.32e-06
317.82	8.757e-05	3.33e-06
319.27	0.0001	3.4e-06
320.26	0.0001123	3.4e-06
321.71	0.0001276	3.4e-06
322.66	0.0001426	3.5e-06
322.67	0.000144	3.5e-06
324.12	0.0001655	3.5e-06
325.11	0.0001853	3.6e-06
326.56	0.0002146	3.7e-06
327.52	0.0002379	3.8e-06
327.52	0.0002346	3.8e-06
328.98	0.0002676	3.9e-06
329.96	0.0002973	4.1e-06
331.42	0.0003403	4.4e-06
332.37	0.0003763	4.9e-06
332.37	0.000377	4.9e-06
333.83	0.000429	5.5e-06
334.83	0.0004701	6e-06
336.28	0.0005477	7e-06
337.23	0.0006044	7.7e-06
337.23	0.0005995	7.6e-06
338.69	0.0006834	8.7e-06
339.69	0.0007518	9.5e-06
341.14	0.0008558	1.08e-05
342.09	0.0009461	1.19e-05
342.09	0.0009339	1.18e-05
343.55	0.00107	1.3e-05
344.55	0.001176	1.5e-05
345.01	0.001226	1.5e-05
346	0.001334	1.7e-05
346.95	0.001462	1.8e-05
346.95	0.001463	1.8e-05
348.41	0.001655	2.1e-05
349.41	0.001817	2.3e-05
349.87	0.001888	2.4e-05
350.86	0.002055	2.6e-05
351.82	0.002257	2.8e-05
353.27	0.002528	3.1e-05
354.29	0.002774	3.5e-05
354.73	0.002884	3.6e-05
355.73	0.003112	3.9e-05
356.67	0.003414	4.2e-05
358.13	0.003814	4.7e-05
359.16	0.004171	5.2e-05
359.59	0.004332	5.4e-05
359.63	0.004286	5.3e-05
360.59	0.004673	5.8e-05
361.55	0.005107	6.3e-05
363	0.00565	7e-05
364.02	0.006171	7.6e-05
364.45	0.006382	7.9e-05
364.49	0.006315	7.8e-05
365.45	0.006842	8.5e-05
366.41	0.00747	9.2e-05
367.87	0.008233	0.000102
368.87	0.008934	0.00011
369.32	0.009208	0.000114
371.29	0.01071	0.00013
371.74	0.01102	0.00014
372.64	0.01169	0.00015
372.73	0.01183	0.00015

System: methyl hexadecanoate; phases: Liquid, Gas
Property: Vapor or sublimation pressure, kPa (Liquid); method: CCELL1
Temperature, K	Vapor or sublimation pressure, kPa	uncertainty
375.03	0.0139	0.00021
377.49	0.0166	0.00023
379.9	0.01941	0.00026
382.34	0.02319	0.00031
384.76	0.02705	0.00035
387.21	0.03214	0.00042
389.66	0.03772	0.00049
392.06	0.04434	0.00057
394.52	0.05191	0.00066
396.92	0.06045	0.00077
399.39	0.07078	0.00089
401.78	0.08154	0.00102
404.23	0.09507	0.00119
406.65	0.1092	0.0014
409.09	0.1267	0.0016
411.5	0.1469	0.0018
411.52	0.1459	0.0018
416.35	0.1929	0.0024
421.21	0.2522	0.0031
426.08	0.3266	0.004
428.52	0.37	0.0046
430.94	0.4193	0.0052

System: methyl heptadecanoate; phases: Liquid, Gas
Property: Vapor or sublimation pressure, kPa (Liquid); method: Transpiration method
Temperature, K	Vapor or sublimation pressure, kPa	uncertainty
362.5	0.00206	0.00042
393.4	0.0186	0.0038
379.2	0.00772	0.00157
354.3	0.00114	0.00023
385.65	0.0111	0.0023
360.6	0.00195	0.0004
357.5	0.00144	0.00029
369	0.00377	0.00077
372.3	0.00464	0.00094
376.2	0.0058	0.00118
382.25	0.0089	0.00181
387	0.0126	0.0026
389.25	0.0152	0.0031
396.2	0.0246	0.005
391.3	0.0176	0.0036
399.2	0.0302	0.0061
402.35	0.0355	0.0072
405.3	0.044	0.009
412.2	0.0635	0.0129
408.15	0.0523	0.0106
365.25	0.00272	0.00055
347.95	0.000685	0.00014
339.75	0.000298	6.1e-05
366.85	0.00301	0.00061
342.85	0.000395	8.1e-05
337.9	0.000259	5.3e-05
341.8	0.000371	7.6e-05
345.85	0.000532	0.000109
350	0.000803	0.000164

System: methyl octadecanoate; phases: Liquid, Gas
Property: Vapor or sublimation pressure, kPa (Liquid); method: CCELL13
Temperature, K	Vapor or sublimation pressure, kPa	uncertainty
323.15	1.964e-05	1.67e-06
325.63	2.609e-05	1.68e-06
329.6	4.071e-05	1.72e-06
330.56	4.58e-05	1.73e-06
332.04	5.362e-05	1.76e-06
333.07	6.007e-05	1.78e-06
334.55	6.999e-05	1.81e-06
335.51	7.764e-05	1.84e-06
336.99	9.04e-05	1.88e-06
338.02	0.0001008	1.9e-06
339.5	0.0001184	2e-06
340.47	0.0001287	2e-06
340.98	0.0001351	2.1e-06
341.1	0.0001377	2.1e-06
341.96	0.0001499	2.1e-06
342.97	0.0001648	2.3e-06
343.46	0.0001744	2.4e-06
343.47	0.0001739	2.4e-06
343.6	0.0001774	2.4e-06
344.44	0.0001914	2.6e-06
345.44	0.0002122	2.8e-06
345.93	0.0002228	3e-06
345.93	0.0002233	3e-06
348.42	0.0002848	3.7e-06
348.57	0.0002879	3.8e-06
350.9	0.0003613	4.7e-06
355.89	0.0005743	7.3e-06
358.52	0.0007236	9.2e-06
360.89	0.0008965	1.13e-05
363.49	0.001127	1.4e-05
363.98	0.00118	1.5e-05
365.92	0.001386	1.7e-05
366.47	0.00146	1.8e-05
368.46	0.001721	2.1e-05
368.97	0.001804	2.3e-05
370.93	0.002113	2.6e-05
371.46	0.002216	2.8e-05
373.44	0.002588	3.2e-05
373.95	0.00271	3.4e-05
373.96	0.002713	3.4e-05
375.45	0.003046	3.8e-05
375.93	0.003163	3.9e-05
376.44	0.003286	4.1e-05
377.44	0.003573	4.4e-05
380.44	0.004514	5.6e-05
380.44	0.0045	5.6e-05
381.43	0.004848	6e-05
381.44	0.004888	6.1e-05
381.44	0.0049	6.1e-05
382.43	0.005241	6.5e-05
383.93	0.005905	7.3e-05
383.94	0.0059	7.3e-05
385.43	0.006597	8.2e-05
385.43	0.006574	8.1e-05
386.43	0.007091	8.8e-05
386.43	0.007085	8.8e-05
388.93	0.00852	0.000105
391.41	0.01021	0.00013

System: methyl octadecanoate; phases: Liquid, Gas
Property: Vapor or sublimation pressure, kPa (Liquid); method: Transpiration method
Temperature, K	Vapor or sublimation pressure, kPa	uncertainty
405.2	0.0225	0.0046
412.3	0.036	0.0073
419.25	0.052	0.0106
416.35	0.0424	0.0086
371.15	0.00202	0.00041
401.35	0.0166	0.0034
393.15	0.00901	0.00184
375.1	0.0027	0.00055
423.1	0.0664	0.0135
400.35	0.0159	0.0032
380.05	0.00389	0.00079
410.25	0.0322	0.0066
390.35	0.00731	0.00149
377.05	0.00323	0.00066
369.05	0.00176	0.00036
383.15	0.00494	0.00101
420.15	0.0563	0.0115
408.4	0.0279	0.0057
399.45	0.0149	0.003
397.5	0.013	0.0026
387.15	0.00636	0.00129
405.6	0.0231	0.0047
411.15	0.0339	0.0069
415.2	0.0433	0.0088
425.15	0.0804	0.0164

System: methyl octadecanoate; phases: Liquid, Gas
Property: Vapor or sublimation pressure, kPa (Liquid); method: CCELL1
Temperature, K	Vapor or sublimation pressure, kPa	uncertainty
393.92	0.0122	0.0002
396.39	0.01443	0.00021
398.9	0.01726	0.00023
401.38	0.0202	0.00027
403.89	0.02406	0.00032
406.38	0.0282	0.00037
408.88	0.03336	0.00043
