Measured thermophysical data. Thermophysical and electrochemical properties of 1-alkyl-3-(3-butenyl)imidazolium bromide ionic liquids
Source: J. Chem. Thermodyn., 2019, 10.1016/j.jct.2019.07.013
Compound 1: 1-(3-butenyl)-3-methylimidazolium bromide, C8H13BrN2, InChI=1S/C8H13N2.BrH/c1-3-4-5-10-7-6-9(2)8-10;/h3,6-8H,1,4-5H2,2H3;1H/q+1;/p-1
Compound 2: 1-(3-butenyl)-3-ethylimidazolium bromide, C9H15BrN2, InChI=1S/C9H15N2.BrH/c1-3-5-6-11-8-7-10(4-2)9-11;/h3,7-9H,1,4-6H2,2H3;1H/q+1;/p-1
Compound 3: 1-(3-butenyl)-3-butylimidazolium bromide, C11H19BrN2, InChI=1S/C11H19N2.BrH/c1-3-5-7-12-9-10-13(11-12)8-6-4-2;/h3,9-11H,1,4-8H2,2H3;1H/q+1;/p-1
Compound 4: water, H2O, InChI=1S/H2O/h1H2, purity 99.8%
Compound 5: 1-hexyl-3-methylimidazolium bis[(trifluoromethyl)sulfonyl]imide, C12H19F6N3O4S2, InChI=1S/C10H19N2.C2F6NO4S2/c1-3-4-5-6-7-12-9-8-11(2)10-12;3-1(4,5)14(10,11)9-15(12,13)2(6,7)8/h8-10H,3-7H2,1-2H3;/q+1;-1, purity 98%

System: 1-(3-butenyl)-3-methylimidazolium bromide; phases: Glass, Liquid, Air at 1 atmosphere
Property: Triple point temperature, K (Glass); method: DSC
Triple point temperature, K	uncertainty
223.55	1.22

System: 1-(3-butenyl)-3-methylimidazolium bromide; phases: Liquid
Fixed: Pressure, kPa = 100
Property: Mass density, kg/m3 (Liquid); method: Vibrating tube method
Temperature, K	Mass density, kg/m3	uncertainty
283.15	1354.24	14.64
288.15	1350.42	14.56
293.15	1346.67	14.47
298.15	1343.07	14.4
303.15	1339.41	14.32
308.15	1335.7	14.24
313.15	1331.9	14.16
318.15	1328.14	14.08
323.15	1324.34	14

System: 1-(3-butenyl)-3-methylimidazolium bromide; phases: Liquid
Fixed: Pressure, kPa = 101.325
Property: Electrical conductivity, S/m (Liquid); method: Direct current cell with electrodes
Temperature, K	Electrical conductivity, S/m	uncertainty
293.15	0.01265	0.00089
298.15	0.02144	0.0015
303.15	0.03433	0.0024
308.15	0.0522	0.00366
313.15	0.07724	0.00541
318.15	0.11625	0.00814
323.15	0.16209	0.01135

System: 1-(3-butenyl)-3-ethylimidazolium bromide; phases: Glass, Liquid, Air at 1 atmosphere
Property: Triple point temperature, K (Glass); method: DSC
Triple point temperature, K	uncertainty
209.67	1.22

System: 1-(3-butenyl)-3-ethylimidazolium bromide; phases: Crystal, Liquid, Air at 1 atmosphere
Property: Normal melting temperature, K (Crystal); method: DTA
Normal melting temperature, K	uncertainty
343.83	1.06

System: 1-(3-butenyl)-3-ethylimidazolium bromide; phases: Liquid
Fixed: Pressure, kPa = 100
Property: Mass density, kg/m3 (Liquid); method: Vibrating tube method
Temperature, K	Mass density, kg/m3	uncertainty
283.15	1305.11	5.67
288.15	1301.34	5.66
293.15	1297.64	5.65
298.15	1294.11	5.64
303.15	1290.54	5.63
308.15	1286.92	5.62
313.15	1283.26	5.62
318.15	1279.57	5.61
323.15	1275.88	5.6

System: 1-(3-butenyl)-3-ethylimidazolium bromide; phases: Liquid
Fixed: Pressure, kPa = 101.325
Property: Electrical conductivity, S/m (Liquid); method: Direct current cell with electrodes
Temperature, K	Electrical conductivity, S/m	uncertainty
293.15	0.01395	0.00098
298.15	0.0226	0.00158
303.15	0.03527	0.00247
308.15	0.05236	0.00367
313.15	0.07474	0.00524
318.15	0.11988	0.0084
323.15	0.16227	0.01136

System: 1-(3-butenyl)-3-butylimidazolium bromide; phases: Glass, Liquid, Air at 1 atmosphere
Property: Triple point temperature, K (Glass); method: DSC
Triple point temperature, K	uncertainty
224.15	1.22

System: 1-(3-butenyl)-3-butylimidazolium bromide; phases: Liquid
Fixed: Pressure, kPa = 100
Property: Mass density, kg/m3 (Liquid); method: Vibrating tube method
Temperature, K	Mass density, kg/m3	uncertainty
283.15	1229.25	6.75
288.15	1225.9	6.73
293.15	1222.43	6.71
298.15	1218.74	6.69
303.15	1214.96	6.67
308.15	1211.48	6.65
313.15	1207.96	6.64
318.15	1204.4	6.62
323.15	1200.81	6.6

System: 1-(3-butenyl)-3-butylimidazolium bromide; phases: Liquid
Fixed: Pressure, kPa = 101.325
Property: Electrical conductivity, S/m (Liquid); method: Direct current cell with electrodes
Temperature, K	Electrical conductivity, S/m	uncertainty
293.15	0.00255	0.00018
298.15	0.00445	0.00031
303.15	0.00733	0.00051
308.15	0.01139	0.0008
313.15	0.01746	0.00122
318.15	0.02557	0.00179
323.15	0.03657	0.00256

System: water; phases: Liquid
Fixed: Pressure, kPa = 100
Property: Mass density, kg/m3 (Liquid); method: Vibrating tube method
Temperature, K	Mass density, kg/m3	uncertainty
283.15	999.7	0.05
288.15	999.05	0.05
293.15	998.19	0.05
298.15	997.05	0.05
303.15	995.65	0.05
308.15	994.04	0.05
313.15	992.31	0.06
318.15	990.42	0.06
323.15	988.3	0.06

System: 1-hexyl-3-methylimidazolium bis[(trifluoromethyl)sulfonyl]imide; phases: Liquid
Fixed: Pressure, kPa = 100
Property: Mass density, kg/m3 (Liquid); method: Vibrating tube method
Temperature, K	Mass density, kg/m3	uncertainty
283.15	1386	5.05
288.15	1381.41	5.05
293.15	1376.82	5.05
298.15	1371.8	5.04
303.15	1367.65	5.04
308.15	1363.1	5.04
313.15	1357.5	5.03
318.15	1352.61	5.03
323.15	1349.44	5.03
