Measured thermophysical data. FT-IR studies and excess thermodynamic properties of binary liquid mixtures 2-(2-butoxyethoxy) ethanol with 1-hexanol, 1-octanol and 1-decanol at different temperatures
Source: J. Chem. Thermodyn., 2018, 10.1016/j.jct.2018.06.015
Compound 1: 3,6-dioxa-1-decanol, C8H18O3, InChI=1S/C8H18O3/c1-2-3-5-10-7-8-11-6-4-9/h9H,2-8H2,1H3, purity 99.5%
Compound 2: hexan-1-ol, C6H14O, InChI=1S/C6H14O/c1-2-3-4-5-6-7/h7H,2-6H2,1H3, purity 98.9%
Compound 3: octan-1-ol, C8H18O, InChI=1S/C8H18O/c1-2-3-4-5-6-7-8-9/h9H,2-8H2,1H3, purity 98.7%
Compound 4: decan-1-ol, C10H22O, InChI=1S/C10H22O/c1-2-3-4-5-6-7-8-9-10-11/h11H,2-10H2,1H3, purity 98.7%

System: 3,6-dioxa-1-decanol; phases: Liquid
Fixed: Pressure, kPa = 100
Property: Mass density, kg/m3 (Liquid); method: Vibrating tube method
Temperature, K	Mass density, kg/m3	uncertainty
293.15	952.288	0.409
298.15	948.1	0.41
303.15	943.909	0.41
308.15	939.704	0.41
313.15	935.503	0.41

System: 3,6-dioxa-1-decanol; phases: Liquid
Fixed: Pressure, kPa = 100
Fixed: Frequency, MHz = 3
Property: Speed of sound, m/s (Liquid); method: Single path-length method
Temperature, K	Speed of sound, m/s	uncertainty
293.15	1378.2	2.45
298.15	1361.31	2.45
303.15	1344.53	2.45
308.15	1326.36	2.45
313.15	1307.74	2.45

System: 3,6-dioxa-1-decanol + hexan-1-ol; phases: Liquid
Fixed: Pressure, kPa = 100
Property: Mass density, kg/m3 (Liquid); method: Vibrating tube method
Temperature, K	Mole fraction of 3,6-dioxa-1-decanol	Mass density, kg/m3	uncertainty
293.15	0	819.239	0.419
293.15	0.0612	830.032	0.419
293.15	0.1016	836.858	0.419
293.15	0.1593	846.323	0.418
293.15	0.2053	853.619	0.417
293.15	0.251	860.647	0.417
293.15	0.3095	869.401	0.416
293.15	0.4054	883.079	0.415
293.15	0.5021	896.077	0.414
293.15	0.6049	909.164	0.413
293.15	0.6982	920.378	0.412
293.15	0.801	931.924	0.411
293.15	0.8313	935.198	0.411
293.15	0.9042	942.783	0.41
293.15	1	952.288	0.409
298.15	0	815.652	0.419
298.15	0.0612	826.42	0.42
298.15	0.1016	833.209	0.419
298.15	0.1593	842.636	0.418
298.15	0.2053	849.892	0.417
298.15	0.251	856.892	0.417
298.15	0.3095	865.605	0.416
298.15	0.4054	879.224	0.415
298.15	0.5021	892.169	0.414
298.15	0.6049	905.192	0.413
298.15	0.6982	916.352	0.412
298.15	0.801	927.842	0.411
298.15	0.8313	931.096	0.411
298.15	0.9042	938.65	0.411
298.15	1	948.1	0.41
303.15	0	812.043	0.419
303.15	0.0612	822.781	0.42
303.15	0.1016	829.539	0.419
303.15	0.1593	838.928	0.418
303.15	0.2053	846.155	0.418
303.15	0.251	853.123	0.417
303.15	0.3095	861.792	0.416
303.15	0.4054	875.359	0.415
303.15	0.5021	888.244	0.414
303.15	0.6049	901.21	0.413
303.15	0.6982	912.316	0.412
303.15	0.801	923.754	0.412
303.15	0.8313	926.99	0.411
303.15	0.9042	934.516	0.411
303.15	1	943.909	0.41
308.15	0	808.402	0.42
308.15	0.0612	819.109	0.42
308.15	0.1016	825.839	0.419
308.15	0.1593	835.192	0.419
308.15	0.2053	842.384	0.418
308.15	0.251	849.323	0.417
308.15	0.3095	857.954	0.417
308.15	0.4054	871.465	0.416
308.15	0.5021	884.294	0.415
308.15	0.6049	897.205	0.414
308.15	0.6982	908.259	0.413
308.15	0.801	919.65	0.412
308.15	0.8313	922.874	0.412
308.15	0.9042	930.365	0.411
308.15	1	939.704	0.41
313.15	0	804.743	0.42
313.15	0.0612	815.428	0.42
313.15	0.1016	822.126	0.42
313.15	0.1593	831.439	0.419
313.15	0.2053	838.617	0.418
313.15	0.251	845.516	0.418
313.15	0.3095	854.105	0.417
313.15	0.4054	867.564	0.416
313.15	0.5021	880.34	0.415
313.15	0.6049	893.199	0.414
313.15	0.6982	904.202	0.413
313.15	0.801	915.548	0.412
313.15	0.8313	918.76	0.412
313.15	0.9042	926.213	0.411
313.15	1	935.503	0.41

System: 3,6-dioxa-1-decanol + hexan-1-ol; phases: Liquid
Fixed: Pressure, kPa = 100
Fixed: Frequency, MHz = 3
Property: Speed of sound, m/s (Liquid); method: Single path-length method
Temperature, K	Mole fraction of 3,6-dioxa-1-decanol	Speed of sound, m/s	uncertainty
293.15	0	1320.38	2.45
293.15	0.0612	1323.22	2.45
293.15	0.1016	1325.73	2.45
293.15	0.1593	1329.08	2.45
293.15	0.2053	1331.75	2.45
293.15	0.251	1334.43	2.45
293.15	0.3095	1337.5	2.45
293.15	0.4054	1343.22	2.45
293.15	0.5021	1348.48	2.45
293.15	0.6049	1354.24	2.45
293.15	0.6982	1359.77	2.45
293.15	0.801	1365.52	2.45
293.15	0.8313	1367.15	2.45
293.15	0.9042	1372.48	2.45
293.15	1	1378.2	2.45
298.15	0	1303.54	2.45
298.15	0.0612	1306.73	2.45
298.15	0.1016	1308.98	2.45
298.15	0.1593	1312.2	2.45
298.15	0.2053	1314.9	2.45
298.15	0.251	1317.55	2.45
298.15	0.3095	1320.9	2.45
298.15	0.4054	1326.3	2.45
298.15	0.5021	1331.74	2.45
298.15	0.6049	1337.46	2.45
298.15	0.6982	1342.69	2.45
298.15	0.801	1348.71	2.45
298.15	0.8313	1350.35	2.45
298.15	0.9042	1354.79	2.45
298.15	1	1361.31	2.45
303.15	0	1286.68	2.45
303.15	0.0612	1289.68	2.45
303.15	0.1016	1292.06	2.45
303.15	0.1593	1295.44	2.45
303.15	0.2053	1298.18	2.45
303.15	0.251	1300.95	2.45
303.15	0.3095	1304.23	2.45
303.15	0.4054	1309.79	2.45
303.15	0.5021	1314.92	2.45
303.15	0.6049	1320.77	2.45
303.15	0.6982	1326.1	2.45
303.15	0.801	1331.79	2.45
303.15	0.8313	1333.35	2.45
303.15	0.9042	1338.28	2.45
303.15	1	1344.53	2.45
308.15	0	1270	2.45
308.15	0.0612	1273.24	2.45
308.15	0.1016	1275.43	2.45
308.15	0.1593	1278.61	2.45
308.15	0.2053	1281.26	2.45
308.15	0.251	1283.84	2.45
308.15	0.3095	1287.12	2.45
308.15	0.4054	1292.41	2.45
308.15	0.5021	1297.69	2.45
308.15	0.6049	1303.27	2.45
308.15	0.6982	1308.36	2.45
308.15	0.801	1314.22	2.45
308.15	0.8313	1315.82	2.45
308.15	0.9042	1320.15	2.45
308.15	1	1326.36	2.45
313.15	0	1253.54	2.45
313.15	0.0612	1256.6	2.45
313.15	0.1016	1259.1	2.45
313.15	0.1593	1262.3	2.45
313.15	0.2053	1264.97	2.45
313.15	0.251	1267.58	2.45
313.15	0.3095	1271.2	2.45
313.15	0.4054	1276.44	2.45
313.15	0.5021	1281.63	2.45
313.15	0.6049	1287.3	2.45
313.15	0.6982	1292.73	2.45
313.15	0.801	1298.18	2.45
313.15	0.8313	1299.64	2.45
313.15	0.9042	1304.75	2.45
313.15	1	1307.74	2.45

System: 3,6-dioxa-1-decanol + octan-1-ol; phases: Liquid
Fixed: Pressure, kPa = 100
Property: Mass density, kg/m3 (Liquid); method: Vibrating tube method
Temperature, K	Mole fraction of 3,6-dioxa-1-decanol	Mass density, kg/m3	uncertainty
293.15	0	825.337	0.411
293.15	0.0518	832.225	0.412
293.15	0.1019	838.886	0.412
293.15	0.1605	846.645	0.411
293.15	0.1994	851.754	0.411
293.15	0.2503	858.438	0.411
293.15	0.303	865.322	0.411
293.15	0.4013	878.059	0.41
293.15	0.4999	890.695	0.41
293.15	0.5918	902.338	0.41
293.15	0.7043	916.351	0.41
293.15	0.8085	929.131	0.41
293.15	0.848	933.965	0.41
293.15	0.901	940.359	0.41
293.15	0.9501	946.262	0.41
293.15	1	952.288	0.409
298.15	0	821.877	0.412
298.15	0.0518	828.746	0.412
298.15	0.1019	835.371	0.412
298.15	0.1605	843.087	0.412
298.15	0.1994	848.167	0.411
298.15	0.2503	854.812	0.411
298.15	0.303	861.66	0.411
298.15	0.4013	874.317	0.41
298.15	0.4999	886.882	0.41
298.15	0.5918	898.456	0.41
298.15	0.7043	912.393	0.41
298.15	0.8085	925.094	0.41
298.15	0.848	929.901	0.41
298.15	0.901	936.257	0.41
298.15	0.9501	942.124	0.41
298.15	1	948.1	0.41
303.15	0	818.4	0.412
303.15	0.0518	825.244	0.413
303.15	0.1019	831.834	0.412
303.15	0.1605	839.508	0.412
303.15	0.1994	844.558	0.412
303.15	0.2503	851.169	0.411
303.15	0.303	857.975	0.411
303.15	0.4013	870.565	0.411
303.15	0.4999	883.058	0.41
303.15	0.5918	894.568	0.41
303.15	0.7043	908.423	0.41
303.15	0.8085	921.053	0.41
303.15	0.848	925.834	0.41
303.15	0.901	932.151	0.41
303.15	0.9501	937.981	0.41
303.15	1	943.909	0.41
308.15	0	814.903	0.412
308.15	0.0518	821.725	0.413
308.15	0.1019	828.281	0.412
308.15	0.1605	835.909	0.412
308.15	0.1994	840.932	0.412
308.15	0.2503	847.507	0.412
308.15	0.303	854.271	0.411
308.15	0.4013	866.793	0.411
308.15	0.4999	879.218	0.411
308.15	0.5918	890.661	0.41
308.15	0.7043	904.44	0.41
308.15	0.8085	916.997	0.41
308.15	0.848	921.75	0.41
308.15	0.901	928.029	0.411
308.15	0.9501	933.818	0.411
308.15	1	939.704	0.41
313.15	0	811.385	0.413
313.15	0.0518	818.179	0.413
313.15	0.1019	824.7	0.413
313.15	0.1605	832.289	0.412
313.15	0.1994	837.284	0.412
313.15	0.2503	843.826	0.412
313.15	0.303	850.554	0.412
313.15	0.4013	863.012	0.411
313.15	0.4999	875.365	0.411
313.15	0.5918	886.747	0.411
313.15	0.7043	900.454	0.411
313.15	0.8085	912.939	0.411
313.15	0.848	917.662	0.411
313.15	0.901	923.906	0.411
313.15	0.9501	929.657	0.411
313.15	1	935.503	0.41

System: 3,6-dioxa-1-decanol + octan-1-ol; phases: Liquid
Fixed: Pressure, kPa = 100
Fixed: Frequency, MHz = 3
Property: Speed of sound, m/s (Liquid); method: Single path-length method
Temperature, K	Mole fraction of 3,6-dioxa-1-decanol	Speed of sound, m/s	uncertainty
293.15	0	1364.08	2.41
293.15	0.0518	1364.36	2.41
293.15	0.1019	1363.37	2.41
293.15	0.1605	1362.75	2.41
293.15	0.1994	1362.39	2.42
293.15	0.2503	1362.14	2.42
293.15	0.303	1362.03	2.42
293.15	0.4013	1362.55	2.42
293.15	0.4999	1363.2	2.4
293.15	0.5918	1364.49	2.43
293.15	0.7043	1366.73	2.44
293.15	0.8085	1369.37	2.44
293.15	0.848	1370.75	2.44
293.15	0.901	1372.95	2.45
293.15	0.9501	1374.31	2.45
293.15	1	1378.2	2.45
298.15	0	1347.32	2.41
298.15	0.0518	1347.42	2.41
298.15	0.1019	1346.44	2.41
298.15	0.1605	1345.85	2.41
298.15	0.1994	1345.51	2.42
298.15	0.2503	1345.27	2.42
298.15	0.303	1345.16	2.42
298.15	0.4013	1345.72	2.42
298.15	0.4999	1346.38	2.43
298.15	0.5918	1347.59	2.43
298.15	0.7043	1349.83	2.44
298.15	0.8085	1352.41	2.44
298.15	0.848	1353.75	2.44
298.15	0.901	1356.01	2.45
298.15	0.9501	1357.33	2.45
298.15	1	1361.31	2.45
303.15	0	1330.99	2.41
303.15	0.0518	1330.65	2.41
303.15	0.1019	1329.67	2.41
303.15	0.1605	1329.09	2.41
303.15	0.1994	1328.76	2.42
303.15	0.2503	1328.54	2.42
303.15	0.303	1328.47	2.42
303.15	0.4013	1329.02	2.42
303.15	0.4999	1329.7	2.4
303.15	0.5918	1330.87	2.43
303.15	0.7043	1333.08	2.44
303.15	0.8085	1335.65	2.44
303.15	0.848	1336.82	2.44
303.15	0.901	1339.16	2.45
303.15	0.9501	1340.44	2.45
303.15	1	1344.53	2.45
308.15	0	1314.28	2.41
308.15	0.0518	1313.94	2.41
308.15	0.1019	1312.97	2.41
308.15	0.1605	1312.45	2.41
308.15	0.1994	1312.12	2.42
308.15	0.2503	1311.93	2.42
308.15	0.303	1311.89	2.42
308.15	0.4013	1312.44	2.42
308.15	0.4999	1313.09	2.43
308.15	0.5918	1314.27	2.43
308.15	0.7043	1316.46	2.44
308.15	0.8085	1318.99	2.44
308.15	0.848	1320.11	2.44
308.15	0.901	1322.43	2.45
308.15	0.9501	1323.66	2.45
308.15	1	1326.36	2.45
313.15	0	1297.72	2.41
313.15	0.0518	1297.39	2.41
313.15	0.1019	1296.42	2.41
313.15	0.1605	1295.96	2.41
313.15	0.1994	1295.64	2.42
313.15	0.2503	1295.5	2.42
313.15	0.303	1295.42	2.42
313.15	0.4013	1296.03	2.42
313.15	0.4999	1296.69	2.43
313.15	0.5918	1297.77	2.43
313.15	0.7043	1299.94	2.44
313.15	0.8085	1302.49	2.44
313.15	0.848	1303.57	2.44
313.15	0.901	1305.85	2.45
313.15	0.9501	1307.04	2.45
313.15	1	1307.74	2.45

System: 3,6-dioxa-1-decanol + decan-1-ol; phases: Liquid
Fixed: Pressure, kPa = 100
Property: Mass density, kg/m3 (Liquid); method: Vibrating tube method
Temperature, K	Mole fraction of 3,6-dioxa-1-decanol	Mass density, kg/m3	uncertainty
293.15	0	829.898	0.418
293.15	0.0523	835.331	0.418
293.15	0.102	840.692	0.417
293.15	0.1579	846.823	0.417
293.15	0.207	852.21	0.417
293.15	0.2513	857.155	0.416
293.15	0.3099	863.89	0.416
293.15	0.4046	875.017	0.415
293.15	0.5087	887.59	0.414
293.15	0.6073	899.873	0.413
293.15	0.7051	912.356	0.413
293.15	0.7952	924.132	0.412
293.15	0.8515	931.68	0.412
293.15	0.9006	938.376	0.411
293.15	0.9379	943.482	0.411
293.15	1	952.288	0.409
298.15	0	826.489	0.418
298.15	0.0523	831.923	0.418
298.15	0.102	837.244	0.418
298.15	0.1579	843.333	0.417
298.15	0.207	848.697	0.417
298.15	0.2513	853.609	0.417
298.15	0.3099	860.297	0.416
298.15	0.4046	871.358	0.415
298.15	0.5087	883.854	0.414
298.15	0.6073	896.063	0.414
298.15	0.7051	908.464	0.413
298.15	0.7952	920.17	0.412
298.15	0.8515	927.667	0.412
298.15	0.9006	934.318	0.411
298.15	0.9379	939.393	0.411
298.15	1	948.1	0.41
303.15	0	823.069	0.418
303.15	0.0523	828.507	0.418
303.15	0.102	833.786	0.418
303.15	0.1579	839.841	0.418
303.15	0.207	845.172	0.417
303.15	0.2513	850.057	0.417
303.15	0.3099	856.695	0.416
303.15	0.4046	867.688	0.416
303.15	0.5087	880.111	0.415
303.15	0.6073	892.242	0.414
303.15	0.7051	904.568	0.413
303.15	0.7952	916.202	0.412
303.15	0.8515	923.651	0.412
303.15	0.9006	930.252	0.412
303.15	0.9379	935.294	0.411
303.15	1	943.909	0.41
308.15	0	819.635	0.419
308.15	0.0523	825.069	0.419
308.15	0.102	830.318	0.418
308.15	0.1579	836.332	0.418
308.15	0.207	841.631	0.417
308.15	0.2513	846.484	0.417
308.15	0.3099	853.085	0.417
308.15	0.4046	864.011	0.416
308.15	0.5087	876.354	0.415
308.15	0.6073	888.409	0.414
308.15	0.7051	900.658	0.413
308.15	0.7952	912.22	0.413
308.15	0.8515	919.614	0.412
308.15	0.9006	926.171	0.412
308.15	0.9379	931.189	0.412
308.15	1	939.704	0.41
313.15	0	816.188	0.419
313.15	0.0523	821.625	0.419
313.15	0.102	826.838	0.419
313.15	0.1579	832.81	0.418
313.15	0.207	838.082	0.418
313.15	0.2513	842.906	0.417
313.15	0.3099	849.466	0.417
313.15	0.4046	860.317	0.416
313.15	0.5087	872.591	0.415
313.15	0.6073	884.574	0.414
313.15	0.7051	896.746	0.414
313.15	0.7952	908.239	0.413
313.15	0.8515	915.585	0.412
313.15	0.9006	922.107	0.412
313.15	0.9379	927.082	0.412
313.15	1	935.503	0.41

System: 3,6-dioxa-1-decanol + decan-1-ol; phases: Liquid
Fixed: Pressure, kPa = 100
Fixed: Frequency, MHz = 3
Property: Speed of sound, m/s (Liquid); method: Single path-length method
Temperature, K	Mole fraction of 3,6-dioxa-1-decanol	Speed of sound, m/s	uncertainty
293.15	0	1396.65	2.45
293.15	0.0523	1393.81	2.45
293.15	0.102	1391.17	2.45
293.15	0.1579	1388.65	2.45
293.15	0.207	1386.59	2.45
293.15	0.2513	1384.97	2.45
293.15	0.3099	1382.67	2.45
293.15	0.4046	1379.61	2.45
293.15	0.5087	1376.87	2.45
293.15	0.6073	1374.51	2.45
293.15	0.7051	1373.86	2.45
293.15	0.7952	1373.41	2.45
293.15	0.8515	1373.43	2.45
293.15	0.9006	1374.48	2.45
293.15	0.9379	1374.93	2.45
293.15	1	1378.2	2.45
298.15	0	1379.43	2.45
298.15	0.0523	1376.52	2.45
298.15	0.102	1374.1	2.45
298.15	0.1579	1371.5	2.45
298.15	0.207	1369.34	2.45
298.15	0.2513	1367.39	2.45
298.15	0.3099	1365.12	2.45
298.15	0.4046	1362.34	2.45
298.15	0.5087	1359.66	2.45
298.15	0.6073	1358.38	2.45
298.15	0.7051	1357.82	2.45
298.15	0.7952	1357.91	2.45
298.15	0.8515	1358.63	2.45
298.15	0.9006	1359.61	2.45
298.15	0.9379	1360.57	2.45
298.15	1	1361.31	2.45
303.15	0	1362.4	2.45
303.15	0.0523	1359.83	2.45
303.15	0.102	1357.42	2.45
303.15	0.1579	1354.9	2.45
303.15	0.207	1352.73	2.45
303.15	0.2513	1350.82	2.45
303.15	0.3099	1348.57	2.45
303.15	0.4046	1345.73	2.45
303.15	0.5087	1343.1	2.45
303.15	0.6073	1341.84	2.45
303.15	0.7051	1341.31	2.45
303.15	0.7952	1341.43	2.45
303.15	0.8515	1342.17	2.45
303.15	0.9006	1343.1	2.45
303.15	0.9379	1344.08	2.45
303.15	1	1344.53	2.45
308.15	0	1345.62	2.45
308.15	0.0523	1343.32	2.45
308.15	0.102	1340.83	2.45
308.15	0.1579	1338.26	2.45
308.15	0.207	1336.01	2.45
308.15	0.2513	1334.08	2.45
308.15	0.3099	1331.77	2.45
308.15	0.4046	1328.8	2.45
308.15	0.5087	1326.02	2.45
308.15	0.6073	1324.7	2.45
308.15	0.7051	1323.88	2.45
308.15	0.7952	1323.9	2.45
308.15	0.8515	1324.61	2.45
308.15	0.9006	1325.36	2.45
308.15	0.9379	1326.31	2.45
308.15	1	1326.36	2.45
313.15	0	1329.07	2.45
313.15	0.0523	1326.36	2.45
313.15	0.102	1324.03	2.45
313.15	0.1579	1321.65	2.45
313.15	0.207	1319.72	2.45
313.15	0.2513	1317.98	2.45
313.15	0.3099	1315.9	2.45
313.15	0.4046	1312.81	2.45
313.15	0.5087	1310.2	2.45
313.15	0.6073	1308.1	2.45
313.15	0.7051	1307.06	2.45
313.15	0.7952	1306.58	2.45
313.15	0.8515	1306.5	2.45
313.15	0.9006	1307.41	2.45
313.15	0.9379	1307.73	2.45
313.15	1	1307.74	2.45
