Measured thermophysical data. Speed of sound and density of water + 1,5-pentanediol mixtures in a wide temperature range. Comparison with mixtures of water with diethylene glycol, propoxyethanol and diethylene glycol dimethyl ether
Source: J. Chem. Thermodyn., 2017, 10.1016/j.jct.2017.06.001
Compound 1: 1,5-pentanediol, C5H12O2, InChI=1S/C5H12O2/c6-4-2-1-3-5-7/h6-7H,1-5H2, purity 98%
Compound 2: water, H2O, InChI=1S/H2O/h1H2

System: 1,5-pentanediol; phases: Liquid
Fixed: Pressure, kPa = 100
Property: Mass density, kg/m3 (Liquid); method: Vibrating tube method
Temperature, K	Mass density, kg/m3	uncertainty
278.15	998	2.1
283.15	995	2.1
288.15	992.2	2.1
293.15	989.3	2.1
298.15	986.5	2.1
303.15	983.6	2.1
308.15	980.7	2.1
313.15	977.8	2.1
318.15	974.9	2.1
323.15	971.9	2.1
328.15	969	2.1
333.15	965.9	2.1

System: 1,5-pentanediol; phases: Liquid
Fixed: Pressure, kPa = 100
Fixed: Frequency, MHz = 5
Property: Speed of sound, m/s (Liquid); method: Pulse-echo method
Temperature, K	Speed of sound, m/s	uncertainty
288.15	1616.37	2.31
293.15	1605.05	2.31
298.15	1593.78	2.31
303.15	1582.54	2.31
308.15	1571.33	2.31
313.15	1560.15	2.3
318.15	1549.01	2.3

System: water; phases: Liquid
Property: Speed of sound, m/s (Liquid); method: Pulse-echo method
Temperature, K	Pressure, kPa	Frequency, MHz	Speed of sound, m/s	uncertainty
288.15	100	5	1466.27	1.14

System: 1,5-pentanediol + water; phases: Liquid
Fixed: Pressure, kPa = 100
Property: Mass density, kg/m3 (Liquid); method: Vibrating tube method
Temperature, K	Mole fraction of 1,5-pentanediol	Mass density, kg/m3	uncertainty
278.15	0	999.97	0.16
278.15	0.005	999.89	0.53
278.15	0.0101	1000.22	1.02
278.15	0.0196	1001.39	1.02
278.15	0.0251	1002.34	1.02
278.15	0.0304	1003.39	1.03
278.15	0.05	1006.63	1.04
278.15	0.0769	1009.88	1.05
278.15	0.1002	1012.01	1.07
278.15	0.1438	1013.87	1.1
278.15	0.1845	1014.45	1.13
278.15	0.2503	1014	1.19
278.15	0.3	1013.14	1.24
278.15	0.3343	1012.59	1.28
278.15	0.4171	1010.69	1.38
278.15	0.454	1009.8	1.43
278.15	0.5003	1008.7	1.5
278.15	0.5362	1007.8	1.5
278.15	0.6177	1006	1.7
278.15	0.6478	1005.3	1.7
278.15	0.7025	1004.2	1.8
278.15	0.7504	1003.3	1.9
278.15	0.7927	1002.5	2
278.15	0.8605	1001.1	2.1
278.15	0.9004	1000.2	2.2
278.15	0.9496	999.1	2.3
278.15	1	998	2.1
283.15	0	999.7	0.16
283.15	0.005	999.55	0.53
283.15	0.0101	999.78	1.02
283.15	0.0196	1000.73	1.02
283.15	0.0251	1001.54	1.02
283.15	0.0304	1002.41	1.03
283.15	0.05	1005.19	1.03
283.15	0.0769	1007.89	1.05
283.15	0.1002	1009.64	1.07
283.15	0.1438	1011.18	1.1
283.15	0.1845	1011.58	1.13
283.15	0.2503	1010.96	1.19
283.15	0.3	1010.06	1.24
283.15	0.3343	1009.43	1.28
283.15	0.4171	1007.58	1.38
283.15	0.454	1006.71	1.43
283.15	0.5003	1005.6	1.5
283.15	0.5362	1004.7	1.5
283.15	0.6177	1003	1.7
283.15	0.6478	1002.3	1.7
283.15	0.7025	1001.2	1.8
283.15	0.7504	1000.3	1.9
283.15	0.7927	999.4	2
283.15	0.8605	998.1	2.1
283.15	0.9004	997.3	2.2
283.15	0.9496	996.1	2.3
283.15	1	995	2.1
288.15	0	999.1	0.16
288.15	0.005	998.88	0.53
288.15	0.0101	999.03	1.01
288.15	0.0196	999.79	1.02
288.15	0.0251	1000.47	1.02
288.15	0.0304	1001.25	1.02
288.15	0.05	1003.56	1.03
288.15	0.0769	1005.76	1.05
288.15	0.1002	1007.25	1.06
288.15	0.1438	1008.43	1.09
288.15	0.1845	1008.63	1.12
288.15	0.2503	1007.9	1.18
288.15	0.3	1006.94	1.24
288.15	0.3343	1006.2	1.28
288.15	0.4171	1004.47	1.38
288.15	0.454	1003.59	1.43
288.15	0.5003	1002.5	1.5
288.15	0.5362	1001.6	1.5
288.15	0.6177	999.9	1.7
288.15	0.6478	999.3	1.7
288.15	0.7025	998.2	1.8
288.15	0.7504	997.4	1.9
288.15	0.7927	996.5	2
288.15	0.8605	995.2	2.1
288.15	0.9004	994.4	2.2
288.15	0.9496	993.3	2.3
288.15	1	992.2	2.1
293.15	0	998.2	0.16
293.15	0.005	997.92	0.53
293.15	0.0101	997.99	1.01
293.15	0.0196	998.58	1.02
293.15	0.0251	999.15	1.02
293.15	0.0304	999.8	1.02
293.15	0.05	1001.74	1.03
293.15	0.0769	1003.5	1.05
293.15	0.1002	1004.72	1.06
293.15	0.1438	1005.61	1.09
293.15	0.1845	1005.62	1.12
293.15	0.2503	1004.77	1.18
293.15	0.3	1003.78	1.24
293.15	0.3343	1003.14	1.27
293.15	0.4171	1001.32	1.37
293.15	0.454	1000.44	1.42
293.15	0.5003	999.3	1.5
293.15	0.5362	998.5	1.5
293.15	0.6177	996.9	1.7
293.15	0.6478	996.3	1.7
293.15	0.7025	995.2	1.8
293.15	0.7504	994.4	1.9
293.15	0.7927	993.6	2
293.15	0.8605	992.3	2.1
293.15	0.9004	991.5	2.2
293.15	0.9496	990.4	2.3
293.15	1	989.3	2.1
298.15	0	997.04	0.16
298.15	0.005	996.7	0.53
298.15	0.0101	996.7	1.01
298.15	0.0196	997.13	1.02
298.15	0.0251	997.61	1.02
298.15	0.0304	998.17	1.02
298.15	0.05	999.75	1.03
298.15	0.0769	1001.11	1.04
298.15	0.1002	1002.09	1.06
298.15	0.1438	1002.72	1.09
298.15	0.1845	1002.56	1.12
298.15	0.2503	1001.62	1.18
298.15	0.3	1000.58	1.23
298.15	0.3343	999.9	1.27
298.15	0.4171	998.14	1.37
298.15	0.454	997.25	1.42
298.15	0.5003	996.2	1.5
298.15	0.5362	995.4	1.5
298.15	0.6177	993.8	1.7
298.15	0.6478	993.2	1.7
298.15	0.7025	992.2	1.8
298.15	0.7504	991.4	1.9
298.15	0.7927	990.6	2
298.15	0.8605	989.3	2.1
298.15	0.9004	988.6	2.2
298.15	0.9496	987.5	2.3
298.15	1	986.5	2.1
303.15	0	995.64	0.16
303.15	0.005	995.24	0.52
303.15	0.0101	995.18	1.01
303.15	0.0196	995.46	1.01
303.15	0.0251	995.87	1.02
303.15	0.0304	996.33	1.02
303.15	0.05	997.59	1.03
303.15	0.0769	998.6	1.04
303.15	0.1002	999.37	1.06
303.15	0.1438	999.75	1.09
303.15	0.1845	999.44	1.12
303.15	0.2503	998.42	1.17
303.15	0.3	997.34	1.23
303.15	0.3343	996.61	1.27
303.15	0.4171	994.93	1.37
303.15	0.454	994.03	1.42
303.15	0.5003	993	1.5
303.15	0.5362	992.2	1.5
303.15	0.6177	990.7	1.7
303.15	0.6478	990.1	1.7
303.15	0.7025	989.2	1.8
303.15	0.7504	988.4	1.9
303.15	0.7927	987.6	2
303.15	0.8605	986.4	2.1
303.15	0.9004	985.7	2.2
303.15	0.9496	984.6	2.3
303.15	1	983.6	2.1
308.15	0	994.03	0.16
308.15	0.005	993.57	0.52
308.15	0.0101	993.45	1.01
308.15	0.0196	993.6	1.01
308.15	0.0251	993.93	1.01
308.15	0.0304	994.32	1.02
308.15	0.05	995.28	1.03
308.15	0.0769	995.98	1.04
308.15	0.1002	996.54	1.05
308.15	0.1438	996.71	1.08
308.15	0.1845	996.26	1.11
308.15	0.2503	995.17	1.17
308.15	0.3	994.06	1.23
308.15	0.3343	993.37	1.27
308.15	0.4171	991.68	1.37
308.15	0.454	990.78	1.42
308.15	0.5003	989.8	1.5
308.15	0.5362	989.1	1.5
308.15	0.6177	987.6	1.7
308.15	0.6478	987	1.7
308.15	0.7025	986.1	1.8
308.15	0.7504	985.3	1.9
308.15	0.7927	984.6	2
308.15	0.8605	983.4	2.1
308.15	0.9004	982.7	2.2
308.15	0.9496	981.7	2.3
308.15	1	980.7	2.1
313.15	0	992.21	0.16
313.15	0.005	991.7	0.52
313.15	0.0101	991.52	1.01
313.15	0.0196	991.54	1.01
313.15	0.0251	991.82	1.01
313.15	0.0304	992.13	1.02
313.15	0.05	992.81	1.02
313.15	0.0769	993.24	1.04
313.15	0.1002	993.63	1.05
313.15	0.1438	993.61	1.08
313.15	0.1845	993.02	1.11
313.15	0.2503	991.87	1.17
313.15	0.3	990.74	1.23
313.15	0.3343	989.99	1.26
313.15	0.4171	988.35	1.36
313.15	0.454	987.5	1.41
313.15	0.5003	986.6	1.5
313.15	0.5362	985.8	1.5
313.15	0.6177	984.4	1.7
313.15	0.6478	983.9	1.7
313.15	0.7025	983	1.8
313.15	0.7504	982.3	1.9
313.15	0.7927	981.6	2
313.15	0.8605	980.4	2.1
313.15	0.9004	979.7	2.2
313.15	0.9496	978.8	2.3
313.15	1	977.8	2.1
318.15	0	990.2	0.16
318.15	0.005	989.65	0.52
318.15	0.0101	989.41	1.01
318.15	0.0196	989.31	1.01
318.15	0.0251	989.53	1.01
318.15	0.0304	989.77	1.01
318.15	0.05	990.21	1.02
318.15	0.0769	990.38	1.03
318.15	0.1002	990.62	1.05
318.15	0.1438	990.42	1.08
318.15	0.1845	989.72	1.11
318.15	0.2503	988.52	1.17
318.15	0.3	987.37	1.22
318.15	0.3343	986.64	1.26
318.15	0.4171	985.02	1.36
318.15	0.454	984.19	1.41
318.15	0.5003	983.3	1.5
318.15	0.5362	982.6	1.5
318.15	0.6177	981.2	1.7
318.15	0.6478	980.7	1.7
318.15	0.7025	979.9	1.8
318.15	0.7504	979.2	1.9
318.15	0.7927	978.5	2
318.15	0.8605	977.4	2.1
318.15	0.9004	976.7	2.2
318.15	0.9496	975.8	2.2
318.15	1	974.9	2.1
323.15	0	988.03	0.16
323.15	0.005	987.42	0.52
323.15	0.0101	987.12	1
323.15	0.0196	986.93	1.01
323.15	0.0251	987.06	1.01
323.15	0.0304	987.26	1.01
323.15	0.05	987.48	1.02
323.15	0.0769	987.42	1.03
323.15	0.1002	987.52	1.05
323.15	0.1438	987.17	1.08
323.15	0.1845	986.36	1.1
323.15	0.2503	985.12	1.16
323.15	0.3	983.93	1.22
323.15	0.3343	983.17	1.26
323.15	0.4171	981.65	1.36
323.15	0.454	980.83	1.41
323.15	0.5003	980	1.5
323.15	0.5362	979.3	1.5
323.15	0.6177	978	1.7
323.15	0.6478	977.5	1.7
323.15	0.7025	976.7	1.8
323.15	0.7504	976.1	1.9
323.15	0.7927	975.4	2
323.15	0.8605	974.4	2.1
323.15	0.9004	973.7	2.2
323.15	0.9496	972.8	2.2
323.15	1	971.9	2.1
328.15	0	985.68	0.16
328.15	0.005	985.03	0.52
328.15	0.0101	984.7	1
328.15	0.0196	984.4	1
328.15	0.0251	984.49	1.01
328.15	0.0304	984.6	1.01
328.15	0.05	984.62	1.01
328.15	0.0769	984.36	1.03
328.15	0.1002	984.33	1.04
328.15	0.1438	983.84	1.07
328.15	0.1845	982.94	1.1
328.15	0.2503	981.66	1.16
328.15	0.3	980.46	1.22
328.15	0.3343	979.7	1.25
328.15	0.4171	978.26	1.36
328.15	0.454	977.43	1.41
328.15	0.5003	976.6	1.5
328.15	0.5362	976	1.5
328.15	0.6177	974.8	1.7
328.15	0.6478	974.3	1.7
328.15	0.7025	973.6	1.8
328.15	0.7504	972.9	1.9
328.15	0.7927	972.3	2
328.15	0.8605	971.3	2.1
328.15	0.9004	970.7	2.2
328.15	0.9496	969.9	2.2
328.15	1	969	2.1
333.15	0	983.19	0.16
333.15	0.005	982.48	0.52
333.15	0.0101	982.09	1
333.15	0.0196	981.69	1
333.15	0.0251	981.7	1
333.15	0.0304	981.74	1.01
333.15	0.05	981.63	1.01
333.15	0.0769	981.19	1.02
333.15	0.1002	981.04	1.04
333.15	0.1438	980.43	1.07
333.15	0.1845	979.44	1.1
333.15	0.2503	978.15	1.16
333.15	0.3	976.99	1.21
333.15	0.3343	976.21	1.25
333.15	0.4171	974.8	1.35
333.15	0.454	973.98	1.41
333.15	0.5003	973.2	1.5
333.15	0.5362	972.6	1.5
333.15	0.6177	971.5	1.7
333.15	0.6478	971	1.7
333.15	0.7025	970.3	1.8
333.15	0.7504	969.7	1.9
333.15	0.7927	969.1	2
333.15	0.8605	968.1	2.1
333.15	0.9004	967.6	2.2
333.15	0.9496	966.7	2.2
333.15	1	965.9	2.1

System: 1,5-pentanediol + water; phases: Liquid
Fixed: Pressure, kPa = 100
Fixed: Frequency, MHz = 5
Property: Speed of sound, m/s (Liquid); method: Pulse-echo method
Temperature, K	Mole fraction of 1,5-pentanediol	Speed of sound, m/s	uncertainty
288.15	0	1466.27	1.14
288.15	0.0001	1467	1.14
288.15	0.0002	1467.63	1.14
288.15	0.0004	1468.46	1.14
288.15	0.0007	1469.66	1.14
288.15	0.001	1471.12	1.14
288.15	0.0013	1472.4	1.14
288.15	0.0018	1474.52	1.14
288.15	0.0025	1477.31	1.15
288.15	0.0032	1480.26	1.15
288.15	0.0039	1483.33	1.15
288.15	0.0047	1486.53	1.15
288.15	0.0053	1489.06	1.15
288.15	0.0059	1491.7	1.15
288.15	0.0066	1494.57	1.15
288.15	0.0074	1497.44	1.15
288.15	0.0079	1499.65	1.15
288.15	0.0086	1502.22	1.15
288.15	0.0092	1504.58	1.15
288.15	0.0098	1507.05	1.15
288.15	0.0105	1509.48	1.15
288.15	0.0112	1511.96	1.16
288.15	0.0118	1514.3	1.16
288.15	0.0125	1516.77	1.16
288.15	0.0131	1519.01	1.16
288.15	0.0138	1521.41	1.16
288.15	0.0144	1523.75	1.16
288.15	0.0151	1526.08	1.16
288.15	0.0157	1528.22	1.16
288.15	0.0164	1530.46	1.16
288.15	0.0171	1532.68	1.16
288.15	0.0177	1534.97	1.16
288.15	0.0184	1537.07	1.16
288.15	0.0188	1538.32	1.16
288.15	0.0193	1540.1	1.16
288.15	0.0199	1541.79	1.16
288.15	0.0204	1543.6	1.17
288.15	0.021	1545.51	1.17
288.15	0.0219	1548.18	1.17
288.15	0.0226	1550.28	1.17
288.15	0.0233	1552.39	1.17
288.15	0.024	1554.47	1.17
288.15	0.0247	1556.57	1.17
288.15	0.0256	1559.34	1.17
288.15	0.0266	1562.15	1.17
288.15	0.0278	1565.38	1.17
288.15	0.0289	1568.34	1.17
288.15	0.0299	1571.03	1.17
288.15	0.0309	1573.7	1.18
288.15	0.0319	1576.4	1.18
288.15	0.0331	1579.35	1.18
288.15	0.0342	1582.31	1.18
288.15	0.0353	1584.94	1.18
288.15	0.0365	1587.69	1.18
288.15	0.0376	1590.35	1.18
288.15	0.0387	1592.86	1.18
288.15	0.0398	1595.34	1.18
288.15	0.0409	1597.88	1.18
288.15	0.042	1600.25	1.19
288.15	0.0431	1602.56	1.19
288.15	0.0445	1605.6	1.19
288.15	0.0456	1607.84	1.19
288.15	0.0473	1611.19	1.19
288.15	0.0482	1612.94	1.19
288.15	0.049	1614.49	1.19
288.15	0.0499	1616.19	1.19
288.15	0.0513	1618.73	1.19
288.15	0.0529	1621.53	1.19
288.15	0.0547	1624.71	1.2
288.15	0.0561	1627.15	1.2
288.15	0.0576	1629.64	1.2
288.15	0.0595	1632.59	1.2
288.15	0.0613	1635.3	1.2
288.15	0.0632	1638.14	1.2
288.15	0.0654	1641.43	1.2
288.15	0.0673	1644	1.21
288.15	0.0692	1646.56	1.21
288.15	0.0715	1649.52	1.21
288.15	0.0744	1653.02	1.21
288.15	0.0768	1655.77	1.21
288.15	0.0796	1658.9	1.22
288.15	0.0824	1661.85	1.22
288.15	0.0856	1664.96	1.22
288.15	0.0887	1667.88	1.22
288.15	0.0921	1670.85	1.22
288.15	0.0965	1674.36	1.23
288.15	0.1006	1677.42	1.23
288.15	0.1051	1680.47	1.23
288.15	0.1102	1683.61	1.24
288.15	0.1153	1686.48	1.24
288.15	0.1208	1689.18	1.24
288.15	0.1238	1690.56	1.25
288.15	0.1303	1693.22	1.25
288.15	0.1382	1695.96	1.26
288.15	0.1442	1697.74	1.26
288.15	0.1503	1699.33	1.27
288.15	0.1556	1700.51	1.27
288.15	0.1612	1701.6	1.27
288.15	0.167	1702.58	1.28
288.15	0.1694	1702.95	1.28
288.15	0.1748	1703.68	1.28
288.15	0.1799	1704.27	1.29
288.15	0.1852	1704.79	1.29
288.15	0.1903	1705.22	1.3
288.15	0.1955	1705.58	1.3
288.15	0.2007	1705.86	1.3
288.15	0.2046	1706.04	1.31
288.15	0.206	1706.1	1.31
288.15	0.2108	1706.26	1.31
288.15	0.2162	1706.39	1.32
288.15	0.2177	1706.42	1.32
288.15	0.2203	1706.45	1.32
288.15	0.2319	1706.5	1.33
288.15	0.2402	1706.43	1.34
288.15	0.25	1706.25	1.34
288.15	0.2599	1705.97	1.35
288.15	0.2695	1705.62	1.36
288.15	0.283	1705.03	1.37
288.15	0.3004	1704.1	1.39
288.15	0.3171	1703.05	1.41
288.15	0.3398	1701.43	1.43
288.15	0.3601	1699.79	1.45
288.15	0.3882	1697.25	1.48
288.15	0.4185	1694.17	1.51
288.15	0.4484	1690.83	1.55
288.15	0.4755	1687.55	1.58
288.15	0.4893	1685.8	1.59
288.15	0.508	1683.36	1.62
288.15	0.5305	1680.32	1.64
288.15	0.5516	1677.41	1.67
288.15	0.5741	1674.23	1.7
288.15	0.5932	1671.51	1.72
288.15	0.6187	1667.86	1.76
288.15	0.6383	1665.04	1.78
288.15	0.6592	1662.06	1.81
288.15	0.6819	1658.86	1.84
288.15	0.7043	1655.74	1.87
288.15	0.7236	1653.1	1.9
288.15	0.7443	1650.31	1.93
288.15	0.7647	1647.61	1.96
288.15	0.7836	1645.15	1.99
288.15	0.8018	1642.82	2.01
288.15	0.8231	1640.11	2.04
288.15	0.8417	1637.79	2.07
288.15	0.8609	1635.39	2.1
288.15	0.8783	1633.19	2.13
288.15	0.8967	1630.86	2.15
288.15	0.9133	1628.73	2.18
288.15	0.9388	1625.35	2.22
288.15	0.9515	1623.6	2.24
288.15	0.9651	1621.67	2.26
288.15	0.9837	1618.92	2.29
288.15	1	1616.37	2.31
293.15	0	1482.33	1.15
293.15	0.0002	1482.98	1.15
293.15	0.0004	1483.82	1.15
293.15	0.0005	1484.43	1.15
293.15	0.0008	1485.57	1.15
293.15	0.0012	1487.01	1.15
293.15	0.0017	1489.02	1.15
293.15	0.0021	1490.79	1.15
293.15	0.0029	1493.74	1.15
293.15	0.0037	1496.77	1.15
293.15	0.0043	1499.24	1.15
293.15	0.005	1501.81	1.15
293.15	0.0057	1504.45	1.15
293.15	0.0064	1506.94	1.15
293.15	0.0071	1509.35	1.15
293.15	0.0078	1511.94	1.15
293.15	0.0085	1514.32	1.16
293.15	0.0091	1516.68	1.16
293.15	0.0098	1518.98	1.16
293.15	0.0107	1521.98	1.16
293.15	0.0113	1524.17	1.16
293.15	0.012	1526.57	1.16
293.15	0.0128	1529.08	1.16
293.15	0.0136	1531.58	1.16
293.15	0.0143	1533.97	1.16
293.15	0.015	1536.25	1.16
293.15	0.0158	1538.49	1.16
293.15	0.0165	1540.74	1.16
293.15	0.0172	1543.04	1.16
293.15	0.018	1545.27	1.16
293.15	0.0189	1547.85	1.17
293.15	0.0198	1550.47	1.17
293.15	0.0206	1552.8	1.2
293.15	0.0214	1555.28	1.17
293.15	0.0224	1557.82	1.17
293.15	0.0232	1560.19	1.17
293.15	0.0241	1562.66	1.17
293.15	0.0254	1566.03	1.17
293.15	0.0263	1568.47	1.17
293.15	0.0276	1571.61	1.17
293.15	0.0285	1573.9	1.17
293.15	0.0294	1576.12	1.18
293.15	0.0302	1578.16	1.18
293.15	0.0314	1580.8	1.18
293.15	0.0323	1583.12	1.18
293.15	0.0333	1585.34	1.18
293.15	0.0343	1587.63	1.18
293.15	0.0355	1590.13	1.18
293.15	0.0368	1592.94	1.18
293.15	0.0383	1596.28	1.18
293.15	0.0398	1599.24	1.18
293.15	0.0408	1601.36	1.19
293.15	0.0418	1603.31	1.19
293.15	0.0435	1606.48	1.19
293.15	0.0451	1609.48	1.19
293.15	0.0472	1613.26	1.19
293.15	0.0491	1616.58	1.19
293.15	0.0506	1619.19	1.19
293.15	0.0528	1622.69	1.2
293.15	0.0552	1626.42	1.2
293.15	0.0569	1629.02	1.2
293.15	0.0599	1633.29	1.2
293.15	0.0612	1635.12	1.2
293.15	0.0629	1637.41	1.2
293.15	0.0645	1639.4	1.2
293.15	0.0665	1641.91	1.21
293.15	0.0684	1644.28	1.21
293.15	0.0711	1647.36	1.21
293.15	0.0738	1650.31	1.21
293.15	0.077	1653.57	1.21
293.15	0.08	1656.5	1.22
293.15	0.0837	1659.88	1.22
293.15	0.0871	1662.76	1.22
293.15	0.0895	1664.72	1.22
293.15	0.0944	1668.34	1.23
293.15	0.0974	1670.4	1.23
293.15	0.1023	1673.49	1.23
293.15	0.1068	1676.06	1.23
293.15	0.1108	1678.12	1.24
293.15	0.1168	1680.89	1.24
293.15	0.121	1682.65	1.24
293.15	0.1249	1684.12	1.25
293.15	0.1295	1685.68	1.25
293.15	0.1356	1687.53	1.25
293.15	0.1401	1688.72	1.26
293.15	0.1445	1689.75	1.26
293.15	0.1521	1691.27	1.27
293.15	0.1548	1691.75	1.27
293.15	0.1602	1692.57	1.27
293.15	0.1649	1693.19	1.27
293.15	0.1671	1693.46	1.28
293.15	0.1718	1693.96	1.28
293.15	0.1738	1694.14	1.28
293.15	0.1776	1694.46	1.28
293.15	0.1807	1694.69	1.29
293.15	0.1846	1694.94	1.29
293.15	0.1875	1695.09	1.29
293.15	0.19	1695.21	1.29
293.15	0.1941	1695.38	1.3
293.15	0.1964	1695.45	1.3
293.15	0.2006	1695.55	1.3
293.15	0.2029	1695.6	1.3
293.15	0.2051	1695.63	1.3
293.15	0.2087	1695.66	1.31
293.15	0.2114	1695.68	1.31
293.15	0.2217	1695.62	1.32
293.15	0.2315	1695.44	1.33
293.15	0.2384	1695.24	1.33
293.15	0.246	1694.98	1.34
293.15	0.2552	1694.6	1.35
293.15	0.2648	1694.14	1.36
293.15	0.2739	1693.65	1.36
293.15	0.2857	1692.95	1.37
293.15	0.2983	1692.14	1.39
293.15	0.3133	1691.08	1.4
293.15	0.3287	1689.91	1.42
293.15	0.3552	1687.72	1.44
293.15	0.3729	1686.12	1.46
293.15	0.4002	1683.47	1.49
293.15	0.4241	1680.96	1.52
293.15	0.4527	1677.73	1.55
293.15	0.478	1674.68	1.58
293.15	0.5024	1671.59	1.61
293.15	0.5266	1668.4	1.64
293.15	0.5491	1665.34	1.67
293.15	0.5701	1662.42	1.69
293.15	0.5912	1659.44	1.72
293.15	0.6123	1656.43	1.75
293.15	0.631	1653.74	1.77
293.15	0.656	1650.16	1.81
293.15	0.6746	1647.5	1.83
293.15	0.6953	1644.57	1.86
293.15	0.7147	1641.86	1.89
293.15	0.7344	1639.14	1.91
293.15	0.7546	1636.4	1.94
293.15	0.7797	1633.05	1.98
293.15	0.8014	1630.22	2.01
293.15	0.8265	1627	2.05
293.15	0.8497	1624.08	2.08
293.15	0.8696	1621.62	2.11
293.15	0.9029	1617.5	2.16
293.15	0.9198	1615.41	2.19
293.15	0.9259	1614.66	2.2
293.15	0.9367	1613.31	2.21
293.15	0.9484	1611.85	2.23
293.15	0.9601	1610.35	2.25
293.15	0.97	1609.06	2.26
293.15	0.9804	1607.71	2.28
293.15	0.9884	1606.64	2.29
293.15	0.9943	1605.83	2.3
293.15	1	1605.05	2.31
298.15	0	1496.75	1.15
298.15	0.0002	1497.3	1.15
298.15	0.0006	1498.94	1.15
298.15	0.0012	1501.16	1.15
298.15	0.0018	1503.43	1.15
298.15	0.0026	1506.27	1.15
298.15	0.004	1511.11	1.15
298.15	0.0054	1515.93	1.15
298.15	0.0067	1520.14	1.16
298.15	0.0083	1525.43	1.16
298.15	0.0097	1529.89	1.16
298.15	0.0113	1534.7	1.16
298.15	0.0123	1537.75	1.16
298.15	0.0138	1542.16	1.16
298.15	0.0153	1546.54	1.16
298.15	0.0168	1550.76	1.17
298.15	0.0184	1555.15	1.17
298.15	0.0195	1558.05	1.17
298.15	0.0205	1560.79	1.17
298.15	0.0221	1564.72	1.17
298.15	0.0243	1570.08	1.17
298.15	0.0264	1575.29	1.17
298.15	0.0287	1580.34	1.18
298.15	0.0308	1584.92	1.18
298.15	0.0326	1588.73	1.18
298.15	0.0347	1593.05	1.18
298.15	0.0362	1596.06	1.18
298.15	0.0378	1599.1	1.18
298.15	0.0396	1602.59	1.19
298.15	0.0414	1605.68	1.19
298.15	0.0432	1608.89	1.19
298.15	0.045	1611.95	1.19
298.15	0.0465	1614.36	1.19
298.15	0.0484	1617.29	1.19
298.15	0.0503	1620.23	1.19
298.15	0.0523	1623.18	1.2
298.15	0.0539	1625.4	1.2
298.15	0.0554	1627.46	1.2
298.15	0.057	1629.66	1.2
298.15	0.0588	1631.94	1.2
298.15	0.0607	1634.28	1.2
298.15	0.0624	1636.41	1.2
298.15	0.0647	1639	1.2
298.15	0.0672	1641.83	1.21
298.15	0.0698	1644.49	1.21
298.15	0.0724	1647.14	1.21
298.15	0.0743	1648.91	1.21
298.15	0.0774	1651.71	1.21
298.15	0.0814	1655.11	1.22
298.15	0.0847	1657.67	1.22
298.15	0.0877	1659.89	1.22
298.15	0.0907	1661.88	1.22
298.15	0.0941	1664.1	1.22
298.15	0.0968	1665.71	1.23
298.15	0.0975	1666.13	1.23
298.15	0.1007	1667.87	1.23
298.15	0.1013	1668.17	1.23
298.15	0.1045	1669.81	1.23
298.15	0.1057	1670.37	1.23
298.15	0.108	1671.43	1.23
298.15	0.1105	1672.57	1.24
298.15	0.1112	1672.84	1.24
298.15	0.1142	1674.05	1.24
298.15	0.1158	1674.68	1.24
298.15	0.1173	1675.22	1.24
298.15	0.1201	1676.22	1.24
298.15	0.1217	1676.72	1.24
298.15	0.1233	1677.23	1.24
298.15	0.1262	1678.1	1.25
298.15	0.1282	1678.67	1.25
298.15	0.1298	1679.1	1.25
298.15	0.1332	1679.97	1.25
298.15	0.1353	1680.46	1.25
298.15	0.1358	1680.58	1.25
298.15	0.1417	1681.79	1.26
298.15	0.1444	1682.28	1.26
298.15	0.1473	1682.76	1.26
298.15	0.1535	1683.65	1.26
298.15	0.1536	1683.67	1.26
298.15	0.1588	1684.29	1.27
298.15	0.1603	1684.45	1.27
298.15	0.1616	1684.58	1.27
298.15	0.1649	1684.88	1.27
298.15	0.1676	1685.1	1.27
298.15	0.1771	1685.68	1.28
298.15	0.1944	1686.14	1.29
298.15	0.2114	1686.01	1.31
298.15	0.2309	1685.39	1.32
298.15	0.247	1684.61	1.34
298.15	0.2649	1683.53	1.35
298.15	0.2807	1682.46	1.37
298.15	0.2987	1681.11	1.38
298.15	0.3178	1679.57	1.4
298.15	0.3356	1678.04	1.42
298.15	0.3619	1675.63	1.45
298.15	0.38	1673.85	1.47
298.15	0.4015	1671.64	1.49
298.15	0.4247	1669.12	1.52
298.15	0.4487	1666.36	1.54
298.15	0.4652	1664.38	1.56
298.15	0.4828	1662.2	1.58
298.15	0.4985	1660.19	1.6
298.15	0.5142	1658.14	1.62
298.15	0.5304	1655.97	1.64
298.15	0.5465	1653.78	1.66
298.15	0.5643	1651.32	1.68
298.15	0.5819	1648.85	1.71
298.15	0.5991	1646.42	1.73
298.15	0.6187	1643.62	1.75
298.15	0.6363	1641.1	1.78
298.15	0.6547	1638.47	1.8
298.15	0.6726	1635.93	1.83
298.15	0.6904	1633.41	1.85
298.15	0.7097	1630.7	1.88
298.15	0.729	1628.02	1.91
298.15	0.7505	1625.1	1.94
298.15	0.7712	1622.33	1.97
298.15	0.7919	1619.61	2
298.15	0.8118	1617.04	2.02
298.15	0.8321	1614.46	2.05
298.15	0.8523	1611.95	2.08
298.15	0.8751	1609.15	2.12
298.15	0.8978	1606.38	2.15
298.15	0.9201	1603.68	2.19
298.15	0.9427	1600.94	2.22
298.15	0.9712	1597.43	2.26
298.15	0.9832	1595.92	2.28
298.15	0.993	1594.69	2.3
298.15	1	1593.78	2.31
303.15	0	1509.39	1.15
303.15	0.0002	1510.11	1.15
303.15	0.0005	1510.94	1.15
303.15	0.0007	1511.77	1.15
303.15	0.0011	1512.95	1.15
303.15	0.0014	1514.21	1.15
303.15	0.0019	1515.54	1.15
303.15	0.0023	1517.09	1.15
303.15	0.0028	1518.51	1.15
303.15	0.0033	1520.23	1.15
303.15	0.0038	1521.93	1.16
303.15	0.0045	1524.07	1.16
303.15	0.0052	1526.18	1.16
303.15	0.006	1528.5	1.16
303.15	0.0067	1530.88	1.16
303.15	0.0076	1533.34	1.16
303.15	0.0084	1535.8	1.16
303.15	0.0093	1538.29	1.16
303.15	0.0102	1540.88	1.16
303.15	0.0111	1543.36	1.16
303.15	0.0121	1546.11	1.16
303.15	0.0131	1548.96	1.16
303.15	0.0143	1552.03	1.17
303.15	0.0152	1554.58	1.17
303.15	0.0164	1557.57	1.17
303.15	0.0176	1560.43	1.17
303.15	0.0187	1563.22	1.17
303.15	0.0198	1565.81	1.17
303.15	0.0211	1568.81	1.17
303.15	0.0224	1571.82	1.17
303.15	0.0238	1574.96	1.17
303.15	0.025	1577.62	1.17
303.15	0.0263	1580.41	1.18
303.15	0.0274	1582.77	1.18
303.15	0.0286	1585.11	1.18
303.15	0.0298	1587.53	1.18
303.15	0.0311	1590.08	1.18
303.15	0.0323	1592.38	1.18
303.15	0.0336	1594.71	1.18
303.15	0.035	1597.36	1.18
303.15	0.0363	1599.66	1.18
303.15	0.0378	1602.24	1.18
303.15	0.0396	1605.23	1.19
303.15	0.0417	1608.51	1.19
303.15	0.0431	1610.69	1.19
303.15	0.0455	1614.36	1.19
303.15	0.0471	1616.66	1.19
303.15	0.0489	1619.17	1.19
303.15	0.0504	1621.09	1.19
303.15	0.0519	1623.07	1.19
303.15	0.0541	1625.93	1.2
303.15	0.0565	1628.84	1.2
303.15	0.0594	1632.09	1.2
303.15	0.0615	1634.36	1.2
303.15	0.0646	1637.56	1.2
303.15	0.0673	1640.18	1.21
303.15	0.0706	1643.23	1.21
303.15	0.0746	1646.59	1.21
303.15	0.0782	1649.45	1.21
303.15	0.0815	1651.8	1.22
303.15	0.0842	1653.68	1.22
303.15	0.0876	1655.8	1.22
303.15	0.0913	1657.96	1.22
303.15	0.0937	1659.33	1.22
303.15	0.0967	1660.85	1.23
303.15	0.0996	1662.22	1.23
303.15	0.1022	1663.42	1.23
303.15	0.1053	1664.71	1.23
303.15	0.1078	1665.72	1.23
303.15	0.1089	1666.1	1.23
303.15	0.1114	1667.02	1.23
303.15	0.1126	1667.44	1.24
303.15	0.1153	1668.32	1.24
303.15	0.1172	1668.89	1.24
303.15	0.1188	1669.37	1.24
303.15	0.1225	1670.37	1.24
303.15	0.1232	1670.55	1.24
303.15	0.127	1671.48	1.25
303.15	0.1286	1671.83	1.25
303.15	0.1312	1672.39	1.25
303.15	0.1344	1672.99	1.25
303.15	0.135	1673.1	1.25
303.15	0.1389	1673.76	1.25
303.15	0.1394	1673.84	1.25
303.15	0.1443	1674.55	1.26
303.15	0.1445	1674.59	1.26
303.15	0.1496	1675.2	1.26
303.15	0.1507	1675.32	1.26
303.15	0.1548	1675.71	1.26
303.15	0.1571	1675.9	1.27
303.15	0.1598	1676.11	1.27
303.15	0.163	1676.32	1.27
303.15	0.1658	1676.47	1.27
303.15	0.1708	1676.69	1.28
303.15	0.1802	1676.92	1.28
303.15	0.1897	1676.95	1.29
303.15	0.1979	1676.84	1.3
303.15	0.2069	1676.61	1.3
303.15	0.2148	1676.31	1.31
303.15	0.2235	1675.91	1.32
303.15	0.2319	1675.45	1.32
303.15	0.2409	1674.91	1.33
303.15	0.2504	1674.28	1.34
303.15	0.2626	1673.4	1.35
303.15	0.2732	1672.58	1.36
303.15	0.2834	1671.76	1.37
303.15	0.2953	1670.76	1.38
303.15	0.3083	1669.62	1.39
303.15	0.3214	1668.42	1.4
303.15	0.3389	1666.76	1.42
303.15	0.3516	1665.5	1.43
303.15	0.3648	1664.16	1.45
303.15	0.3773	1662.85	1.46
303.15	0.3937	1661.07	1.48
303.15	0.4071	1659.58	1.49
303.15	0.4199	1658.1	1.51
303.15	0.4346	1656.35	1.52
303.15	0.447	1654.85	1.54
303.15	0.4637	1652.76	1.56
303.15	0.4812	1650.51	1.58
303.15	0.4955	1648.64	1.6
303.15	0.5124	1646.36	1.62
303.15	0.5315	1643.75	1.64
303.15	0.5497	1641.21	1.66
303.15	0.5687	1638.53	1.69
303.15	0.5883	1635.73	1.71
303.15	0.6098	1632.66	1.74
303.15	0.63	1629.75	1.77
303.15	0.6445	1627.67	1.79
303.15	0.6622	1625.16	1.81
303.15	0.6847	1621.97	1.84
303.15	0.7039	1619.29	1.87
303.15	0.7252	1616.37	1.9
303.15	0.7448	1613.72	1.93
303.15	0.7674	1610.73	1.96
303.15	0.7881	1608.06	1.99
303.15	0.8098	1605.3	2.02
303.15	0.8318	1602.57	2.05
303.15	0.8478	1600.63	2.08
303.15	0.8678	1598.23	2.11
303.15	0.8839	1596.31	2.13
303.15	0.9005	1594.36	2.15
303.15	0.9185	1592.25	2.18
303.15	0.9185	1592.25	2.18
303.15	0.9359	1590.22	2.21
303.15	0.9494	1588.63	2.23
303.15	0.9623	1587.1	2.25
303.15	0.9723	1585.91	2.26
303.15	0.9822	1584.72	2.28
303.15	0.9892	1583.87	2.29
303.15	0.9947	1583.19	2.3
303.15	0.9972	1582.88	2.3
303.15	1	1582.54	2.31
308.15	0	1519.2	1.15
308.15	0.0001	1519.61	1.15
308.15	0.0003	1520.12	1.15
308.15	0.0005	1520.73	1.15
308.15	0.0007	1521.49	1.15
308.15	0.001	1522.41	1.15
308.15	0.0014	1523.4	1.15
308.15	0.0018	1524.73	1.16
308.15	0.0023	1526.25	1.16
308.15	0.0028	1527.9	1.16
308.15	0.0034	1529.65	1.16
308.15	0.004	1531.43	1.16
308.15	0.0047	1533.51	1.16
308.15	0.0055	1535.69	1.16
308.15	0.0064	1538.14	1.16
308.15	0.0073	1540.75	1.16
308.15	0.0083	1543.57	1.16
308.15	0.0094	1546.49	1.16
308.15	0.0105	1549.31	1.16
308.15	0.0116	1552.24	1.16
308.15	0.0129	1555.37	1.17
308.15	0.0141	1558.32	1.17
308.15	0.0154	1561.47	1.17
308.15	0.0167	1564.5	1.17
308.15	0.0181	1567.63	1.17
308.15	0.0195	1570.69	1.17
308.15	0.0211	1574.09	1.17
308.15	0.0225	1577.03	1.17
308.15	0.0238	1579.84	1.17
308.15	0.0252	1582.6	1.18
308.15	0.0268	1585.54	1.18
308.15	0.0283	1588.51	1.18
308.15	0.0298	1591.17	1.18
308.15	0.0316	1594.32	1.18
308.15	0.0336	1597.65	1.18
308.15	0.0351	1600.16	1.18
308.15	0.0367	1602.61	1.18
308.15	0.0384	1605.25	1.19
308.15	0.0403	1608.08	1.19
308.15	0.0417	1610.04	1.19
308.15	0.0436	1612.66	1.19
308.15	0.0459	1615.77	1.19
308.15	0.0481	1618.47	1.19
308.15	0.0505	1621.45	1.19
308.15	0.0528	1624.01	1.2
308.15	0.0551	1626.59	1.2
308.15	0.0574	1628.96	1.2
308.15	0.0594	1630.96	1.2
308.15	0.062	1633.39	1.2
308.15	0.0648	1635.89	1.2
308.15	0.0671	1637.89	1.21
308.15	0.0706	1640.65	1.21
308.15	0.073	1642.43	1.21
308.15	0.0758	1644.37	1.21
308.15	0.0798	1646.96	1.21
308.15	0.0835	1649.17	1.22
308.15	0.0879	1651.51	1.22
308.15	0.0918	1653.42	1.22
308.15	0.0964	1655.48	1.22
308.15	0.1002	1656.97	1.23
308.15	0.106	1658.98	1.23
308.15	0.1116	1660.66	1.23
308.15	0.1172	1662.1	1.24
308.15	0.1233	1663.42	1.24
308.15	0.131	1664.75	1.25
308.15	0.1377	1665.66	1.25
308.15	0.1435	1666.28	1.25
308.15	0.1514	1666.9	1.26
308.15	0.161	1667.37	1.27
308.15	0.1675	1667.54	1.27
308.15	0.1737	1667.6	1.28
308.15	0.1787	1667.59	1.28
308.15	0.1838	1667.54	1.28
308.15	0.1893	1667.42	1.29
308.15	0.1953	1667.24	1.29
308.15	0.2011	1667.02	1.3
308.15	0.2239	1665.82	1.31
308.15	0.2306	1665.38	1.32
308.15	0.2378	1664.88	1.33
308.15	0.2491	1664.03	1.34
308.15	0.2581	1663.31	1.34
308.15	0.2683	1662.47	1.35
308.15	0.2832	1661.15	1.37
308.15	0.3005	1659.53	1.38
308.15	0.3223	1657.38	1.4
308.15	0.3402	1655.52	1.42
308.15	0.3515	1654.3	1.43
308.15	0.3735	1651.82	1.46
308.15	0.3924	1649.61	1.48
308.15	0.4062	1647.94	1.49
308.15	0.4304	1644.9	1.52
308.15	0.4462	1642.85	1.54
308.15	0.4661	1640.19	1.56
308.15	0.4803	1638.26	1.58
308.15	0.4957	1636.13	1.59
308.15	0.5119	1633.86	1.61
308.15	0.5238	1632.17	1.63
308.15	0.5406	1629.79	1.65
308.15	0.5482	1628.7	1.66
308.15	0.5622	1626.69	1.68
308.15	0.5848	1623.46	1.71
308.15	0.6035	1620.78	1.73
308.15	0.6216	1618.22	1.75
308.15	0.6446	1614.99	1.79
308.15	0.6646	1612.24	1.81
308.15	0.6864	1609.3	1.84
308.15	0.7086	1606.36	1.87
308.15	0.7293	1603.7	1.9
308.15	0.7497	1601.13	1.93
308.15	0.7689	1598.77	1.96
308.15	0.7904	1596.19	1.99
308.15	0.8099	1593.91	2.02
308.15	0.8308	1591.49	2.05
308.15	0.8561	1588.61	2.09
308.15	0.8812	1585.78	2.12
308.15	0.9098	1582.52	2.17
308.15	0.9326	1579.86	2.2
308.15	0.9519	1577.54	2.23
308.15	0.9707	1575.21	2.26
308.15	0.9812	1573.85	2.28
308.15	0.9864	1573.17	2.28
308.15	0.9944	1572.09	2.3
308.15	1	1571.33	2.31
313.15	0	1528.82	1.16
313.15	0.0002	1529.26	1.16
313.15	0.0004	1529.91	1.16
313.15	0.0006	1530.6	1.16
313.15	0.0009	1531.48	1.16
313.15	0.0013	1532.36	1.16
313.15	0.0016	1533.39	1.16
313.15	0.002	1534.47	1.16
313.15	0.0025	1535.9	1.16
313.15	0.0032	1537.63	1.16
313.15	0.0039	1539.56	1.16
313.15	0.0045	1541.21	1.16
313.15	0.0052	1542.9	1.16
313.15	0.0058	1544.63	1.16
313.15	0.0065	1546.47	1.16
313.15	0.0073	1548.27	1.16
313.15	0.0081	1550.39	1.16
313.15	0.0088	1552.13	1.16
313.15	0.0097	1554.25	1.16
313.15	0.0107	1556.58	1.16
313.15	0.0118	1559	1.17
313.15	0.013	1561.74	1.17
313.15	0.0142	1564.41	1.17
313.15	0.0153	1566.81	1.17
313.15	0.0164	1569.23	1.17
313.15	0.0176	1571.58	1.17
313.15	0.0187	1573.85	1.17
313.15	0.02	1576.44	1.17
313.15	0.0214	1579.01	1.17
313.15	0.0227	1581.52	1.17
313.15	0.0243	1584.41	1.18
313.15	0.0259	1587.25	1.18
313.15	0.0276	1590.03	1.18
313.15	0.0293	1592.78	1.18
313.15	0.0308	1595.3	1.18
313.15	0.0322	1597.36	1.18
313.15	0.0341	1600.17	1.18
313.15	0.036	1602.92	1.18
313.15	0.0378	1605.4	1.19
313.15	0.0395	1607.7	1.19
313.15	0.0417	1610.49	1.19
313.15	0.0441	1613.38	1.19
313.15	0.0462	1615.76	1.19
313.15	0.0486	1618.36	1.19
313.15	0.0505	1620.39	1.19
313.15	0.0522	1622.09	1.19
313.15	0.0542	1624.08	1.2
313.15	0.0571	1626.64	1.2
313.15	0.0588	1628.14	1.2
313.15	0.0608	1629.82	1.2
313.15	0.0624	1631.15	1.2
313.15	0.0648	1632.92	1.2
313.15	0.0682	1635.38	1.21
313.15	0.0705	1636.91	1.21
313.15	0.0732	1638.64	1.21
313.15	0.0767	1640.66	1.21
313.15	0.0802	1642.57	1.21
313.15	0.0837	1644.25	1.21
313.15	0.0875	1645.97	1.22
313.15	0.0918	1647.71	1.22
313.15	0.0975	1649.73	1.22
313.15	0.1013	1650.89	1.23
313.15	0.106	1652.17	1.23
313.15	0.1096	1653.04	1.23
313.15	0.1124	1653.64	1.23
313.15	0.1158	1654.32	1.23
313.15	0.1193	1654.92	1.24
313.15	0.1244	1655.69	1.24
313.15	0.1287	1656.23	1.24
313.15	0.1321	1656.58	1.25
313.15	0.1361	1656.94	1.25
313.15	0.1413	1657.3	1.25
313.15	0.1453	1657.52	1.25
313.15	0.1493	1657.68	1.26
313.15	0.1538	1657.79	1.26
313.15	0.1569	1657.84	1.26
313.15	0.1592	1657.86	1.26
313.15	0.1624	1657.87	1.27
313.15	0.1645	1657.86	1.27
313.15	0.1677	1657.83	1.27
313.15	0.1703	1657.79	1.27
313.15	0.174	1657.71	1.27
313.15	0.1785	1657.57	1.28
313.15	0.1796	1657.53	1.28
313.15	0.1854	1657.31	1.28
313.15	0.1882	1657.18	1.28
313.15	0.1986	1656.63	1.29
313.15	0.2089	1655.96	1.3
313.15	0.2219	1655.01	1.31
313.15	0.2336	1654.06	1.32
313.15	0.2458	1653	1.33
313.15	0.2586	1651.83	1.34
313.15	0.2742	1650.32	1.36
313.15	0.2871	1649.02	1.37
313.15	0.3037	1647.31	1.38
313.15	0.3173	1645.85	1.4
313.15	0.3466	1642.6	1.42
313.15	0.366	1640.33	1.44
313.15	0.3864	1637.87	1.47
313.15	0.401	1636.06	1.48
313.15	0.4198	1633.66	1.5
313.15	0.4339	1631.81	1.52
313.15	0.4516	1629.46	1.54
313.15	0.4639	1627.81	1.55
313.15	0.4723	1626.66	1.56
313.15	0.4915	1624.01	1.59
313.15	0.5111	1621.27	1.61
313.15	0.5315	1618.4	1.64
313.15	0.5529	1615.38	1.66
313.15	0.5804	1611.5	1.7
313.15	0.602	1608.48	1.73
313.15	0.6163	1606.51	1.75
313.15	0.6349	1603.96	1.77
313.15	0.6533	1601.49	1.8
313.15	0.6749	1598.63	1.83
313.15	0.6932	1596.26	1.85
313.15	0.7095	1594.19	1.87
313.15	0.7237	1592.43	1.89
313.15	0.7448	1589.86	1.92
313.15	0.7666	1587.28	1.95
313.15	0.794	1584.12	1.99
313.15	0.8188	1581.33	2.03
313.15	0.8485	1578.05	2.07
313.15	0.875	1575.14	2.11
313.15	0.9027	1572.06	2.16
313.15	0.9251	1569.52	2.19
313.15	0.9471	1566.94	2.22
313.15	0.9652	1564.72	2.25
313.15	0.9777	1563.13	2.27
313.15	0.9877	1561.82	2.29
313.15	0.9953	1560.8	2.3
313.15	1	1560.15	2.3
318.15	0	1536.65	1.16
318.15	0.0005	1537.98	1.16
318.15	0.0015	1540.6	1.16
318.15	0.0027	1543.43	1.16
318.15	0.0039	1546.44	1.16
318.15	0.0049	1548.76	1.16
318.15	0.0058	1550.93	1.16
318.15	0.0069	1553.42	1.16
318.15	0.008	1555.98	1.16
318.15	0.0092	1558.48	1.16
318.15	0.0106	1561.64	1.17
318.15	0.0116	1563.71	1.17
318.15	0.0129	1566.4	1.17
318.15	0.0141	1568.67	1.17
318.15	0.0154	1571.15	1.17
318.15	0.0168	1573.93	1.17
318.15	0.0184	1576.83	1.17
318.15	0.0196	1578.92	1.17
318.15	0.0215	1582.21	1.17
318.15	0.0231	1584.84	1.18
318.15	0.0246	1587.21	1.18
318.15	0.0263	1589.85	1.18
318.15	0.0283	1592.79	1.18
318.15	0.0298	1594.92	1.18
318.15	0.0316	1597.48	1.18
318.15	0.0337	1600.22	1.18
318.15	0.0357	1602.75	1.18
318.15	0.0378	1605.37	1.19
318.15	0.0403	1608.2	1.19
318.15	0.043	1611.2	1.19
318.15	0.0456	1613.87	1.19
318.15	0.0487	1616.77	1.19
318.15	0.0503	1618.24	1.19
318.15	0.0516	1619.37	1.19
318.15	0.0548	1622.08	1.2
318.15	0.0584	1624.87	1.2
318.15	0.0657	1629.78	1.2
318.15	0.0682	1631.26	1.2
318.15	0.072	1633.34	1.21
318.15	0.0763	1635.43	1.21
318.15	0.0796	1636.92	1.21
318.15	0.0848	1638.96	1.21
318.15	0.0893	1640.51	1.22
318.15	0.0963	1642.51	1.22
318.15	0.1022	1643.88	1.22
318.15	0.1063	1644.69	1.23
318.15	0.1107	1645.43	1.23
318.15	0.1147	1645.97	1.23
318.15	0.1186	1646.44	1.23
318.15	0.1227	1646.82	1.24
318.15	0.1267	1647.13	1.24
318.15	0.1324	1647.44	1.24
318.15	0.138	1647.63	1.25
318.15	0.1421	1647.69	1.25
318.15	0.1467	1647.71	1.25
318.15	0.151	1647.66	1.26
318.15	0.1559	1647.56	1.26
318.15	0.1604	1647.42	1.26
318.15	0.1642	1647.27	1.26
318.15	0.1668	1647.14	1.27
318.15	0.17	1646.98	1.27
318.15	0.1746	1646.72	1.27
318.15	0.1759	1646.63	1.27
318.15	0.1805	1646.33	1.28
318.15	0.1834	1646.13	1.28
318.15	0.1836	1646.12	1.28
318.15	0.1877	1645.81	1.28
318.15	0.1923	1645.45	1.29
318.15	0.1928	1645.41	1.29
318.15	0.1977	1645	1.29
318.15	0.2017	1644.65	1.29
318.15	0.2025	1644.58	1.29
318.15	0.2049	1644.37	1.29
318.15	0.2132	1643.6	1.3
318.15	0.2224	1642.71	1.31
318.15	0.2331	1641.63	1.32
318.15	0.2482	1640.05	1.33
318.15	0.2698	1637.72	1.35
318.15	0.2859	1635.94	1.36
318.15	0.2955	1634.87	1.37
318.15	0.312	1633.01	1.39
318.15	0.3191	1632.2	1.39
318.15	0.3352	1630.33	1.41
318.15	0.3499	1628.61	1.43
318.15	0.3678	1626.48	1.44
318.15	0.3857	1624.31	1.46
318.15	0.4054	1621.88	1.49
318.15	0.4216	1619.84	1.5
318.15	0.4392	1617.58	1.52
318.15	0.4494	1616.26	1.53
318.15	0.4703	1613.54	1.56
318.15	0.4894	1611	1.58
318.15	0.5038	1609.08	1.6
318.15	0.5212	1606.74	1.62
318.15	0.5442	1603.64	1.65
318.15	0.565	1600.85	1.68
318.15	0.5841	1598.28	1.7
318.15	0.6039	1595.65	1.73
318.15	0.6258	1592.77	1.76
318.15	0.6425	1590.61	1.78
318.15	0.6602	1588.35	1.8
318.15	0.6789	1585.99	1.83
318.15	0.6988	1583.53	1.86
318.15	0.7197	1581.02	1.89
318.15	0.7436	1578.2	1.92
318.15	0.7664	1575.57	1.95
318.15	0.7919	1572.7	1.99
318.15	0.8187	1569.75	2.03
318.15	0.8416	1567.26	2.06
318.15	0.864	1564.84	2.1
318.15	0.8864	1562.42	2.13
318.15	0.9086	1559.98	2.16
318.15	0.926	1558.03	2.19
318.15	0.9413	1556.28	2.21
318.15	0.9573	1554.39	2.24
318.15	0.971	1552.73	2.26
318.15	0.9808	1551.5	2.27
318.15	0.9903	1550.29	2.29
318.15	0.9952	1549.65	2.3
318.15	1	1549.01	2.3
