Measured thermophysical data. Measurement and correlation of solubility of succinic anhydride in pure solvents and binary solvent mixtures
Source: J. Chem. Thermodyn., 2017, 10.1016/j.jct.2016.09.025
Compound 1: succinic anhydride, C4H4O3, InChI=1S/C4H4O3/c5-3-1-2-4(6)7-3/h1-2H2, purity 99.7%
Compound 2: .gamma.-butyrolactone, C4H6O2, InChI=1S/C4H6O2/c5-4-2-1-3-6-4/h1-3H2, purity 99.9%
Compound 3: tetrahydrofuran, C4H8O, InChI=1S/C4H8O/c1-2-4-5-3-1/h1-4H2, purity 99.9%

System: succinic anhydride; phases: Crystal, Liquid, Air at 1 atmosphere
Property: Normal melting temperature, K (Crystal); method: DTA
Normal melting temperature, K	uncertainty
393.17	0.61

System: succinic anhydride; phases: Crystal, Liquid, Air at 1 atmosphere
Property: Molar enthalpy of transition or fusion, kJ/mol (Crystal); method: DSC
Molar enthalpy of transition or fusion, kJ/mol	uncertainty
17.52	1.3

System: .gamma.-butyrolactone + succinic anhydride + tetrahydrofuran; phases: Liquid, Crystal
Fixed: Pressure, kPa = 100
Property: Mole fraction of succinic anhydride (Liquid); method: Chromatography
Solvent: Mass fraction of tetrahydrofuran	Temperature, K	Mole fraction of succinic anhydride	uncertainty
0	283.15	0.197	0.02
0	288.15	0.218	0.022
0	293.15	0.239	0.024
0	298.15	0.261	0.026
0	303.15	0.283	0.028
0	308.15	0.307	0.031
0	313.15	0.331	0.033
0	318.15	0.354	0.035
0	323.15	0.378	0.038
0.1	283.15	0.177	0.018
0.1	288.15	0.196	0.02
0.1	293.15	0.218	0.022
0.1	298.15	0.239	0.024
0.1	303.15	0.259	0.026
0.1	308.15	0.281	0.028
0.1	313.15	0.305	0.031
0.1	318.15	0.327	0.033
0.1	323.15	0.35	0.035
0.2	283.15	0.167	0.017
0.2	288.15	0.185	0.019
0.2	293.15	0.203	0.02
0.2	298.15	0.22	0.022
0.2	303.15	0.241	0.024
0.2	308.15	0.261	0.026
0.2	313.15	0.284	0.028
0.2	318.15	0.306	0.031
0.2	323.15	0.329	0.033
0.3	283.15	0.158	0.016
0.3	288.15	0.174	0.017
0.3	293.15	0.19	0.019
0.3	298.15	0.207	0.021
0.3	303.15	0.226	0.023
0.3	308.15	0.244	0.024
0.3	313.15	0.265	0.027
0.3	318.15	0.286	0.029
0.3	323.15	0.31	0.031
0.4	283.15	0.152	0.015
0.4	288.15	0.164	0.016
0.4	293.15	0.179	0.018
0.4	298.15	0.194	0.019
0.4	303.15	0.213	0.021
0.4	308.15	0.231	0.023
0.4	313.15	0.253	0.025
0.4	318.15	0.273	0.027
0.4	323.15	0.297	0.03
0.5	283.15	0.143	0.014
0.5	288.15	0.156	0.016
0.5	293.15	0.168	0.017
0.5	298.15	0.184	0.018
0.5	303.15	0.2	0.02
0.5	308.15	0.22	0.022
0.5	313.15	0.24	0.024
0.5	318.15	0.262	0.026
0.5	323.15	0.287	0.029
0.6	283.15	0.135	0.014
0.6	288.15	0.145	0.015
0.6	293.15	0.158	0.016
0.6	298.15	0.171	0.017
0.6	303.15	0.188	0.019
0.6	308.15	0.207	0.021
0.6	313.15	0.228	0.023
0.6	318.15	0.251	0.025
0.6	323.15	0.277	0.028
0.7	283.15	0.126	0.013
0.7	288.15	0.136	0.014
0.7	293.15	0.148	0.015
0.7	298.15	0.162	0.016
0.7	303.15	0.178	0.018
0.7	308.15	0.196	0.02
0.7	313.15	0.217	0.022
0.7	318.15	0.239	0.024
0.7	323.15	0.264	0.026
0.8	283.15	0.115	0.012
0.8	288.15	0.123	0.012
0.8	293.15	0.133	0.013
0.8	298.15	0.145	0.015
0.8	303.15	0.159	0.016
0.8	308.15	0.177	0.018
0.8	313.15	0.198	0.02
0.8	318.15	0.221	0.022
0.8	323.15	0.246	0.025
0.9	283.15	0.098	0.01
0.9	288.15	0.105	0.011
0.9	293.15	0.115	0.012
0.9	298.15	0.127	0.013
0.9	303.15	0.141	0.014
0.9	308.15	0.159	0.016
0.9	313.15	0.179	0.018
0.9	318.15	0.202	0.02
0.9	323.15	0.227	0.023
1	283.15	0.071	0.007
1	288.15	0.077	0.008
1	293.15	0.085	0.009
1	298.15	0.093	0.009
1	303.15	0.104	0.01
1	308.15	0.115	0.012
1	313.15	0.129	0.013
1	318.15	0.145	0.015
1	323.15	0.164	0.016

System: .gamma.-butyrolactone + succinic anhydride; phases: Liquid, Crystal
Fixed: Pressure, kPa = 100
Property: Mole fraction of succinic anhydride (Liquid); method: Chromatography
Temperature, K	Mole fraction of succinic anhydride	uncertainty
283.15	0.197	0.02
288.15	0.218	0.022
293.15	0.239	0.024
298.15	0.261	0.026
303.15	0.283	0.028
308.15	0.307	0.031
313.15	0.331	0.033
318.15	0.354	0.035
323.15	0.378	0.038

System: succinic anhydride + tetrahydrofuran; phases: Liquid, Crystal
Fixed: Pressure, kPa = 100
Property: Mole fraction of succinic anhydride (Liquid); method: Chromatography
Temperature, K	Mole fraction of succinic anhydride	uncertainty
283.15	0.071	0.007
288.15	0.077	0.008
293.15	0.085	0.009
298.15	0.093	0.009
303.15	0.104	0.01
308.15	0.115	0.012
313.15	0.129	0.013
318.15	0.145	0.015
323.15	0.164	0.016
