Measured thermophysical data. Apparent molar volumes and compressibilities of selected electrolytes in dimethylsulfoxide
Source: J. Chem. Thermodyn., 2010, 10.1016/j.jct.2010.07.003
Compound 1: tetraphenylphosphorane bromide, C24H20BrP, InChI=1S/C24H20P.BrH/c1-5-13-21(14-6-1)25(22-15-7-2-8-16-22,23-17-9-3-10-18-23)24-19-11-4-12-20-24;/h1-20H;1H/q+1;/p-1, purity 99%
Compound 2: sodium tetraphenylboron, C24H20BNa, InChI=1S/C24H20B.Na/c1-5-13-21(14-6-1)25(22-15-7-2-8-16-22,23-17-9-3-10-18-23)24-19-11-4-12-20-24;/h1-20H;/q-1;+1, purity 99.5%
Compound 3: sodium bromide, BrNa, InChI=1S/BrH.Na/h1H;/q;+1/p-1, purity 99.5%
Compound 4: sodium perchlorate, ClNaO4, InChI=1S/ClHO4.Na/c2-1(3,4)5;/h(H,2,3,4,5);/q;+1/p-1, purity 99.5%
Compound 5: dimethyl sulfoxide, C2H6OS, InChI=1S/C2H6OS/c1-4(2)3/h1-2H3, purity 99.8%

System: dimethyl sulfoxide + tetraphenylphosphorane bromide; phases: Liquid
Fixed: Pressure, kPa = 101
Fixed: Temperature, K = 298.15
Property: Speed of sound, m/s (Liquid); method: Sing-around technique in a fixed-path interferometer
Molality, mol/kg of tetraphenylphosphorane bromide	Speed of sound, m/s	uncertainty
0	1484.12	0.78
0.03289	1487.45	0.79
0.04158	1488.35	0.79
0.05367	1489.6	0.79
0.06549	1490.77	0.79
0.08463	1492.79	0.79
0.1076	1495.22	0.8
0.131	1497.83	0.8
0.1536	1500.35	0.8
0.1761	1503.08	0.81
0.2019	1505.71	0.81

System: dimethyl sulfoxide + tetraphenylphosphorane bromide; phases: Liquid
Fixed: Pressure, kPa = 101
Property: Mass density, kg/m3 (Liquid); method: Vibrating tube method
Temperature, K	Molality, mol/kg of tetraphenylphosphorane bromide	Mass density, kg/m3	uncertainty
293.15	0	1100.216	0.091
293.15	0.02324	1102.401	0.093
293.15	0.03289	1103.303	0.093
293.15	0.04158	1104.111	0.094
293.15	0.05367	1105.236	0.094
293.15	0.06549	1106.34	0.095
293.15	0.08463	1108.138	0.096
293.15	0.1076	1110.284	0.098
293.15	0.131	1112.483	0.099
293.15	0.1536	1114.594	0.101
293.15	0.1761	1117.028	0.102
293.15	0.2019	1119.177	0.104
298.15	0	1095.191	0.089
298.15	0.02324	1097.391	0.091
298.15	0.03289	1098.298	0.091
298.15	0.04158	1099.11	0.092
298.15	0.05367	1100.245	0.093
298.15	0.06549	1101.36	0.093
298.15	0.08463	1103.165	0.094
298.15	0.1076	1105.33	0.096
298.15	0.131	1107.548	0.097
298.15	0.1536	1109.667	0.099
298.15	0.1761	1112.116	0.1
298.15	0.2019	1114.286	0.102
303.15	0	1090.166	0.088
303.15	0.02324	1092.383	0.089
303.15	0.03289	1093.296	0.09
303.15	0.04158	1094.115	0.09
303.15	0.05367	1095.252	0.091
303.15	0.06549	1096.375	0.092
303.15	0.08463	1098.201	0.093
303.15	0.1076	1100.381	0.094
303.15	0.131	1102.61	0.096
303.15	0.1536	1104.744	0.097
303.15	0.1761	1107.214	0.099
303.15	0.2019	1109.392	0.1
313.15	0	1080.124	0.084
313.15	0.02324	1082.371	0.086
313.15	0.03289	1083.298	0.086
313.15	0.04158	1084.13	0.087
313.15	0.05367	1085.285	0.087
313.15	0.06549	1086.42	0.088
313.15	0.08463	1088.268	0.089
313.15	0.1076	1090.487	0.091
313.15	0.131	1092.745	0.092
313.15	0.1536	1094.919	0.094
313.15	0.1761	1097.423	0.095
313.15	0.2019	1099.626	0.096
323.15	0	1070.08	0.081
323.15	0.02324	1072.36	0.082
323.15	0.03289	1073.303	0.083
323.15	0.04158	1074.15	0.083
323.15	0.05367	1075.32	0.084
323.15	0.06549	1076.47	0.085
323.15	0.08463	1078.347	0.086
323.15	0.1076	1080.6	0.087
323.15	0.131	1082.89	0.088
323.15	0.1536	1085.098	0.09
323.15	0.1761	1087.641	0.091
323.15	0.2019	1089.875	0.093
333.15	0	1060.033	0.078
333.15	0.02324	1062.345	0.079
333.15	0.03289	1063.3	0.079
333.15	0.04158	1064.157	0.08
333.15	0.05367	1065.354	0.08
333.15	0.06549	1066.522	0.081
333.15	0.08463	1068.427	0.082
333.15	0.1076	1070.706	0.084
333.15	0.131	1073.034	0.085
333.15	0.1536	1075.286	0.087
333.15	0.1761	1077.861	0.088
333.15	0.2019	1080.128	0.089

System: dimethyl sulfoxide + sodium tetraphenylboron; phases: Liquid
Fixed: Pressure, kPa = 101
Fixed: Temperature, K = 298.15
Property: Speed of sound, m/s (Liquid); method: Sing-around technique in a fixed-path interferometer
Molality, mol/kg of sodium tetraphenylboron	Speed of sound, m/s	uncertainty
0	1484.12	0.78
0.03104	1488.35	0.79
0.04073	1489.6	0.79
0.05248	1490.77	0.79
0.0648	1492.79	0.79
0.08268	1495.22	0.79
0.1056	1497.83	0.79
0.1288	1500.35	0.79
0.1518	1503.08	0.79
0.178	1505.71	0.81
0.2	1459.22	0.89

System: dimethyl sulfoxide + sodium tetraphenylboron; phases: Liquid
Fixed: Pressure, kPa = 101
Property: Mass density, kg/m3 (Liquid); method: Vibrating tube method
Temperature, K	Molality, mol/kg of sodium tetraphenylboron	Mass density, kg/m3	uncertainty
293.15	0	1100.225	0.089
293.15	0.02192	1100.768	0.09
293.15	0.03104	1100.997	0.09
293.15	0.04073	1101.239	0.09
293.15	0.05248	1101.535	0.09
293.15	0.0648	1101.844	0.09
293.15	0.08268	1102.293	0.091
293.15	0.1056	1102.873	0.091
293.15	0.1288	1103.465	0.091
293.15	0.1518	1104.053	0.092
293.15	0.178	1104.718	0.092
293.15	0.2	1105.29	0.092
298.15	0	1095.2	0.088
298.15	0.02192	1095.761	0.088
298.15	0.03104	1095.997	0.088
298.15	0.04073	1096.246	0.088
298.15	0.05248	1096.55	0.088
298.15	0.0648	1096.872	0.088
298.15	0.08268	1097.334	0.089
298.15	0.1056	1097.935	0.089
298.15	0.1288	1098.54	0.089
298.15	0.1518	1099.15	0.09
298.15	0.178	1099.837	0.09
298.15	0.2	1100.429	0.091
303.15	0	1090.176	0.086
303.15	0.02192	1090.755	0.086
303.15	0.03104	1090.998	0.086
303.15	0.04073	1091.257	0.086
303.15	0.05248	1091.57	0.086
303.15	0.0648	1091.899	0.087
303.15	0.08268	1092.375	0.087
303.15	0.1056	1092.996	0.087
303.15	0.1288	1093.624	0.088
303.15	0.1518	1094.25	0.088
303.15	0.178	1094.956	0.088
303.15	0.2	1095.564	0.089
313.15	0	1080.13	0.082
313.15	0.02192	1080.749	0.082
313.15	0.03104	1081.008	0.083
313.15	0.04073	1081.28	0.083
313.15	0.05248	1081.615	0.083
313.15	0.0648	1081.968	0.083
313.15	0.08268	1082.477	0.083
313.15	0.1056	1083.135	0.084
313.15	0.1288	1083.802	0.084
313.15	0.1518	1084.465	0.084
313.15	0.178	1085.218	0.085
313.15	0.2	1085.858	0.085
323.15	0	1070.087	0.079
323.15	0.02192	1070.748	0.079
323.15	0.03104	1071.024	0.079
323.15	0.04073	1071.316	0.079
323.15	0.05248	1071.672	0.079
323.15	0.0648	1072.045	0.08
323.15	0.08268	1072.587	0.08
323.15	0.1056	1073.285	0.08
323.15	0.1288	1073.988	0.081
323.15	0.1518	1074.69	0.081
323.15	0.178	1075.489	0.081
323.15	0.2	1076.16	0.082
333.15	0	1060.044	0.075
333.15	0.02192	1060.744	0.076
333.15	0.03104	1061.036	0.076
333.15	0.04073	1061.345	0.076
333.15	0.05248	1061.722	0.076
333.15	0.0648	1062.118	0.076
333.15	0.08268	1062.686	0.076
333.15	0.1056	1063.429	0.077
333.15	0.1288	1064.171	0.077
333.15	0.1518	1064.923	0.077
333.15	0.178	1065.754	0.078
333.15	0.2	1066.476	0.078

System: dimethyl sulfoxide + sodium bromide; phases: Liquid
Fixed: Pressure, kPa = 101
Fixed: Temperature, K = 298.15
Property: Speed of sound, m/s (Liquid); method: Sing-around technique in a fixed-path interferometer
Molality, mol/kg of sodium bromide	Speed of sound, m/s	uncertainty
0	1484.12	0.78
0.06032	1485.51	0.78
0.08978	1486.18	0.78
0.1196	1486.7	0.8
0.1489	1487.45	0.79
0.1776	1487.82	0.79
0.2049	1488.29	0.79
0.2341	1488.92	0.79
0.2648	1489.66	0.79
0.2943	1490.03	0.79

System: dimethyl sulfoxide + sodium bromide; phases: Liquid
Fixed: Pressure, kPa = 101
Property: Mass density, kg/m3 (Liquid); method: Vibrating tube method
Temperature, K	Molality, mol/kg of sodium bromide	Mass density, kg/m3	uncertainty
293.15	0	1100.22	0.091
293.15	0.0318	1103.01	0.092
293.15	0.04181	1103.89	0.092
293.15	0.06032	1105.518	0.093
293.15	0.07291	1106.63	0.093
293.15	0.08978	1108.115	0.094
293.15	0.1196	1110.751	0.095
293.15	0.1489	1113.336	0.096
293.15	0.1776	1115.89	0.097
293.15	0.2049	1118.31	0.098
293.15	0.2341	1120.921	0.099
293.15	0.2648	1123.71	0.1
293.15	0.2943	1126.333	0.101
298.15	0	1095.191	0.089
298.15	0.0318	1097.989	0.09
298.15	0.04181	1098.87	0.09
298.15	0.06032	1100.497	0.091
298.15	0.07291	1101.61	0.092
298.15	0.08978	1103.092	0.092
298.15	0.1196	1105.733	0.093
298.15	0.1489	1108.312	0.094
298.15	0.1776	1110.864	0.095
298.15	0.2049	1113.283	0.096
298.15	0.2341	1115.886	0.097
298.15	0.2648	1118.662	0.098
298.15	0.2943	1121.292	0.099
303.15	0	1090.169	0.087
303.15	0.0318	1092.973	0.088
303.15	0.04181	1093.853	0.089
303.15	0.06032	1095.484	0.089
303.15	0.07291	1096.593	0.09
303.15	0.08978	1098.073	0.09
303.15	0.1196	1100.717	0.091
303.15	0.1489	1103.296	0.092
303.15	0.1776	1105.849	0.093
303.15	0.2049	1108.263	0.094
303.15	0.2341	1110.863	0.095
303.15	0.2648	1113.641	0.096
303.15	0.2943	1116.256	0.098
313.15	0	1080.123	0.084
313.15	0.0318	1082.938	0.085
313.15	0.04181	1083.82	0.085
313.15	0.06032	1085.449	0.086
313.15	0.07291	1086.565	0.086
313.15	0.08978	1088.05	0.087
313.15	0.1196	1090.685	0.088
313.15	0.1489	1093.272	0.089
313.15	0.1776	1095.828	0.09
313.15	0.2049	1098.233	0.091
313.15	0.2341	1100.829	0.092
313.15	0.2648	1103.597	0.093
313.15	0.2943	1106.205	0.094
323.15	0	1070.082	0.08
323.15	0.0318	1072.91	0.081
323.15	0.04181	1073.801	0.082
323.15	0.06032	1075.43	0.082
323.15	0.07291	1076.55	0.083
323.15	0.08978	1078.038	0.083
323.15	0.1196	1080.674	0.084
323.15	0.1489	1083.264	0.085
323.15	0.1776	1085.814	0.086
323.15	0.2049	1088.222	0.087
323.15	0.2341	1090.816	0.088
323.15	0.2648	1093.577	0.089
323.15	0.2943	1096.183	0.09
333.15	0	1060.03	0.077
333.15	0.0318	1062.878	0.078
333.15	0.04181	1063.77	0.078
333.15	0.06032	1065.409	0.079
333.15	0.07291	1066.526	0.079
333.15	0.08978	1068.028	0.08
333.15	0.1196	1070.662	0.081
333.15	0.1489	1073.263	0.082
333.15	0.1776	1075.809	0.083
333.15	0.2049	1078.22	0.084
333.15	0.2341	1080.81	0.085
333.15	0.2648	1083.567	0.086
333.15	0.2943	1086.179	0.087

System: dimethyl sulfoxide + sodium perchlorate; phases: Liquid
Fixed: Pressure, kPa = 101
Fixed: Temperature, K = 298.15
Property: Speed of sound, m/s (Liquid); method: Sing-around technique in a fixed-path interferometer
Molality, mol/kg of sodium perchlorate	Speed of sound, m/s	uncertainty
0	1484.12	0.78
0.04728	1485.61	0.78
0.06106	1485.98	0.78
0.07887	1486.34	0.78
0.09861	1487.01	0.78
0.125	1487.82	0.79
0.1593	1488.55	0.79
0.1949	1489.66	0.79
0.2268	1490.4	0.79
0.2658	1491.51	0.79
0.2979	1492.25	0.79

System: dimethyl sulfoxide + sodium perchlorate; phases: Liquid
Fixed: Pressure, kPa = 101
Property: Mass density, kg/m3 (Liquid); method: Vibrating tube method
Temperature, K	Molality, mol/kg of sodium perchlorate	Mass density, kg/m3	uncertainty
293.15	0	1100.223	0.091
293.15	0.03465	1102.927	0.092
293.15	0.04728	1103.911	0.092
293.15	0.06106	1104.991	0.092
293.15	0.07887	1106.39	0.093
293.15	0.09861	1107.923	0.094
293.15	0.125	1110.013	0.094
293.15	0.1593	1112.737	0.096
293.15	0.1949	1115.582	0.097
293.15	0.2268	1118.162	0.098
293.15	0.2658	1121.328	0.099
293.15	0.2979	1123.926	0.1
298.15	0	1095.191	0.089
298.15	0.03465	1097.908	0.09
298.15	0.04728	1098.896	0.09
298.15	0.06106	1099.978	0.091
298.15	0.07887	1101.381	0.091
298.15	0.09861	1102.92	0.092
298.15	0.125	1105.013	0.093
298.15	0.1593	1107.74	0.094
298.15	0.1949	1110.587	0.095
298.15	0.2268	1113.175	0.096
298.15	0.2658	1116.339	0.097
298.15	0.2979	1118.941	0.098
303.15	0	1090.166	0.087
303.15	0.03465	1092.893	0.088
303.15	0.04728	1093.882	0.088
303.15	0.06106	1094.968	0.089
303.15	0.07887	1096.372	0.089
303.15	0.09861	1097.923	0.09
303.15	0.125	1100.018	0.091
303.15	0.1593	1102.745	0.092
303.15	0.1949	1105.593	0.093
303.15	0.2268	1108.189	0.094
303.15	0.2658	1111.348	0.095
303.15	0.2979	1113.952	0.096
313.15	0	1080.12	0.083
313.15	0.03465	1082.863	0.084
313.15	0.04728	1083.862	0.085
313.15	0.06106	1084.954	0.085
313.15	0.07887	1086.364	0.086
313.15	0.09861	1087.923	0.086
313.15	0.125	1090.026	0.087
313.15	0.1593	1092.77	0.088
313.15	0.1949	1095.629	0.089
313.15	0.2268	1098.229	0.09
313.15	0.2658	1101.405	0.092
313.15	0.2979	1104.02	0.093
323.15	0	1070.077	0.08
323.15	0.03465	1072.84	0.081
323.15	0.04728	1073.846	0.081
323.15	0.06106	1074.94	0.082
323.15	0.07887	1076.364	0.082
323.15	0.09861	1077.935	0.083
323.15	0.125	1080.056	0.084
323.15	0.1593	1082.805	0.085
323.15	0.1949	1085.672	0.086
323.15	0.2268	1088.287	0.087
323.15	0.2658	1091.47	0.088
323.15	0.2979	1094.095	0.089
333.15	0	1060.034	0.077
333.15	0.03465	1062.815	0.078
333.15	0.04728	1063.827	0.078
333.15	0.06106	1064.932	0.078
333.15	0.07887	1066.363	0.079
333.15	0.09861	1067.939	0.079
333.15	0.125	1070.08	0.08
333.15	0.1593	1072.842	0.081
333.15	0.1949	1075.725	0.082
333.15	0.2268	1078.343	0.083
333.15	0.2658	1081.551	0.085
333.15	0.2979	1084.183	0.086
