Measured thermophysical data. Separation of water/butan-1-ol with ionic liquids in ternary liquid-liquid phase equilibrium
Source: J. Chem. Thermodyn., 2019, 10.1016/j.jct.2019.03.001
Compound 1: butan-1-ol, C4H10O, InChI=1S/C4H10O/c1-2-3-4-5/h5H,2-4H2,1H3, purity 99.9%
Compound 2: water, H2O, InChI=1S/H2O/h1H2, purity 99.8%
Compound 3: hexadecyltrimethylammonium bis(trifluoromethanesulfonyl)imide, C21H42F6N2O4S2, InChI=1S/C19H42N.C2F6NO4S2/c1-5-6-7-8-9-10-11-12-13-14-15-16-17-18-19-20(2,3)4;3-1(4,5)14(10,11)9-15(12,13)2(6,7)8/h5-19H2,1-4H3;/q+1;-1, purity 99%
Compound 4: 1,3-didecyl-2-methylimidazolium dicyanimide, C26H47N5, InChI=1S/C24H47N2.C2N3/c1-4-6-8-10-12-14-16-18-20-25-22-23-26(24(25)3)21-19-17-15-13-11-9-7-5-2;3-1-5-2-4/h22-23H,4-21H2,1-3H3;/q+1;-1
Compound 5: tetrabutylphosphonium bis(trifluoromethylsulfonyl)imide, C18H36F6NO4PS2, InChI=1S/C16H36P.C2F6NO4S2/c1-5-9-13-17(14-10-6-2,15-11-7-3)16-12-8-4;3-1(4,5)14(10,11)9-15(12,13)2(6,7)8/h5-16H2,1-4H3;/q+1;-1

System: butan-1-ol; phases: Liquid
Property: Refractive index (Na D-line) (Liquid); method: Standard Abbe refractometry
Temperature, K	Pressure, kPa	Refractive index (Na D-line)	uncertainty
293.15	101.325	1.3993	0.0007

System: hexadecyltrimethylammonium bis(trifluoromethanesulfonyl)imide + butan-1-ol + water; phases: Liquid mixture 2, Liquid mixture 1
Fixed: Temperature, K = 328.15
Fixed: Pressure, kPa = 101
Property: Mole fraction of hexadecyltrimethylammonium bis(trifluoromethanesulfonyl)imide (Liquid mixture 2); method: Chromatography
Property: Mole fraction of hexadecyltrimethylammonium bis(trifluoromethanesulfonyl)imide (Liquid mixture 1); method: Chromatography
Property: Mole fraction of butan-1-ol (Liquid mixture 1); method: Chromatography
Mole fraction of butan-1-ol	Mole fraction of hexadecyltrimethylammonium bis(trifluoromethanesulfonyl)imide	uncertainty	Mole fraction of hexadecyltrimethylammonium bis(trifluoromethanesulfonyl)imide	uncertainty	Mole fraction of butan-1-ol	uncertainty
0.144	0.312	0.003	0		0.006	
0.404	0.109	0.004	0		0.015	
0.42	0.076	0.005	0		0.016	
0.428	0.054	0.008	0		0.016	
0.433	0.021	0.013	0		0.017	
0.435	0.011	0.011	0		0.019	
0.434	0		0		0.02	
0.166	0.301	0.003	0		0.006	
0.179	0.293	0.003	0		0.006	
0.21	0.272	0.003	0		0.007	
0.243	0.249	0.003	0		0.008	
0.287	0.22	0.003	0		0.01	
0.314	0.198	0.003	0		0.011	
0.356	0.164	0.003	0		0.013	
0.384	0.138	0.003	0		0.014	

System: 1,3-didecyl-2-methylimidazolium dicyanimide + butan-1-ol + water; phases: Liquid mixture 2, Liquid mixture 1
Fixed: Temperature, K = 328.15
Fixed: Pressure, kPa = 101
Property: Mole fraction of 1,3-didecyl-2-methylimidazolium dicyanimide (Liquid mixture 2); method: Chromatography
Property: Mole fraction of 1,3-didecyl-2-methylimidazolium dicyanimide (Liquid mixture 1); method: Chromatography
Property: Mole fraction of butan-1-ol (Liquid mixture 1); method: Chromatography
Mole fraction of butan-1-ol	Mole fraction of 1,3-didecyl-2-methylimidazolium dicyanimide	uncertainty	Mole fraction of 1,3-didecyl-2-methylimidazolium dicyanimide	uncertainty	Mole fraction of butan-1-ol	uncertainty
0.019	0.161	0.002	0		0	
0.218	0.116	0.002	0		0.006	
0.236	0.11	0.002	0		0.007	
0.25	0.106	0.002	0		0.008	
0.27	0.099	0.002	0		0.008	
0.293	0.089	0.002	0		0.01	
0.323	0.077	0.002	0		0.013	
0.36	0.061	0.002	0		0.015	
0.389	0.042	0.002	0		0.016	
0.4	0.035	0.003	0		0.016	
0.421	0.014	0.003	0		0.017	
0.047	0.155	0.002	0		0.001	
0.434	0		0		0.02	
0.065	0.15	0.002	0		0.001	
0.094	0.143	0.002	0		0.002	
0.116	0.14	0.002	0		0.003	
0.148	0.133	0.002	0		0.003	
0.169	0.129	0.002	0		0.004	
0.186	0.125	0.002	0		0.005	
0.202	0.12	0.002	0		0.006	

System: tetrabutylphosphonium bis(trifluoromethylsulfonyl)imide + butan-1-ol + water; phases: Liquid mixture 2, Liquid mixture 1
Fixed: Temperature, K = 328.15
Fixed: Pressure, kPa = 101
Property: Mole fraction of tetrabutylphosphonium bis(trifluoromethylsulfonyl)imide (Liquid mixture 2); method: Chromatography
Property: Mole fraction of tetrabutylphosphonium bis(trifluoromethylsulfonyl)imide (Liquid mixture 1); method: Chromatography
Property: Mole fraction of butan-1-ol (Liquid mixture 1); method: Chromatography
Mole fraction of butan-1-ol	Mole fraction of tetrabutylphosphonium bis(trifluoromethylsulfonyl)imide	uncertainty	Mole fraction of tetrabutylphosphonium bis(trifluoromethylsulfonyl)imide	uncertainty	Mole fraction of butan-1-ol	uncertainty
0.092	0.477	0.004	0		0.004	
0.291	0.313	0.003	0		0.008	
0.32	0.279	0.003	0		0.009	
0.365	0.233	0.003	0		0.011	
0.396	0.199	0.003	0		0.012	
0.416	0.177	0.002	0		0.013	
0.425	0.166	0.002	0		0.014	
0.451	0.13	0.002	0		0.014	
0.476	0.091	0.002	0		0.017	
0.487	0.057	0.002	0		0.017	
0.477	0.039	0.002	0		0.018	
0.114	0.463	0.004	0		0.005	
0.462	0.02	0.002	0		0.019	
0.434	0		0		0.02	
0.138	0.443	0.004	0		0.005	
0.154	0.431	0.004	0		0.005	
0.183	0.408	0.004	0		0.006	
0.2	0.395	0.003	0		0.006	
0.219	0.38	0.003	0		0.007	
0.241	0.357	0.003	0		0.007	
0.276	0.326	0.003	0		0.008	

System: butan-1-ol + water; phases: Liquid mixture 2, Liquid mixture 1
Property: Mole fraction of butan-1-ol (Liquid mixture 2); method: Chromatography
Temperature, K	Pressure, kPa	Mole fraction of butan-1-ol	uncertainty
328.15	101	0.434	0.004

System: butan-1-ol + water; phases: Liquid mixture 1, Liquid mixture 2
Property: Mole fraction of butan-1-ol (Liquid mixture 1); method: Chromatography
Temperature, K	Pressure, kPa	Mole fraction of butan-1-ol	uncertainty
328.15	101	0.02	0.002
