Measured thermophysical data. Effect of L-serine and L-threonine on volumetric and acoustic behaviour of aqueous metformin hydrochloride solutions at T = (305.15, 310.15 and 315.15) K
Source: J. Chem. Thermodyn., 2016, 10.1016/j.jct.2015.11.020
Compound 1: L-serine, C3H7NO3, InChI=1S/C3H7NO3/c4-2(1-5)3(6)7/h2,5H,1,4H2,(H,6,7)/t2-/m0/s1, purity 98.5%
Compound 2: L-threonine, C4H9NO3, InChI=1S/C4H9NO3/c1-2(6)3(5)4(7)8/h2-3,6H,5H2,1H3,(H,7,8)/t2-,3+/m1/s1, purity 99%
Compound 3: N,N-dimethylimidodicarbonimidic diamide hydrochloride, C4H12ClN5, InChI=1S/C4H11N5.ClH/c1-9(2)4(7)8-3(5)6;/h1-2H3,(H5,5,6,7,8);1H, purity 98.5%
Compound 4: water, H2O, InChI=1S/H2O/h1H2

System: L-serine + N,N-dimethylimidodicarbonimidic diamide hydrochloride + water; phases: Liquid
Fixed: Pressure, kPa = 100
Property: Mass density, kg/m3 (Liquid); method: Vibrating tube method
Temperature, K	Molality, mol/kg of L-serine	Solvent: Molality, mol/kg of N,N-dimethylimidodicarbonimidic diamide hydrochloride	Mass density, kg/m3	uncertainty
305.15	0	0	995.038	1.028
305.15	0.10115	0	999.763	1.031
305.15	0.19966	0	1003.985	1.042
305.15	0.30001	0	1008.198	1.06
305.15	0.39855	0	1012.53	1.085
305.15	0.49868	0	1016.753	1.12
305.15	0.60083	0	1021.43	1.16
305.15	0.6973	0	1025.53	1.184
305.15	0.79999	0	1029.741	1.228
305.15	0.90029	0	1033.964	1.28
305.15	0.99628	0	1037.975	1.328
310.15	0	0	993.328	1.028
310.15	0.10115	0	997.637	1.031
310.15	0.19966	0	1001.834	1.041
310.15	0.30001	0	1006.108	1.059
310.15	0.39855	0	1010.306	1.083
310.15	0.49868	0	1014.572	1.114
310.15	0.60083	0	1018.923	1.151
310.15	0.6973	0	1023.033	1.19
310.15	0.79999	0	1027.408	1.237
310.15	0.90029	0	1031.68	1.287
310.15	0.99628	0	1035.77	1.352
315.15	0	0	991.439	1.028
315.15	0.10115	0	995.748	1.031
315.15	0.19966	0	999.945	1.041
315.15	0.30001	0	1004.219	1.059
315.15	0.39855	0	1008.417	1.083
315.15	0.49868	0	1012.683	1.114
315.15	0.60083	0	1017.034	1.15
315.15	0.6973	0	1021.144	1.19
315.15	0.79999	0	1025.519	1.236
315.15	0.90029	0	1029.791	1.286
315.15	0.99628	0	1033.881	1.337
305.15	0	0.03	996.159	1.028
305.15	0.10108	0.03	1000.594	1.031
305.15	0.19768	0.03	1004.776	1.042
305.15	0.29848	0.03	1009.083	1.06
305.15	0.39727	0.03	1013.285	1.083
305.15	0.50298	0.03	1017.755	1.12
305.15	0.60246	0.03	1022.265	1.163
305.15	0.69819	0.03	1026.481	1.198
305.15	0.79314	0.03	1030.564	1.233
305.15	0.89516	0.03	1034.851	1.289
305.15	1.01104	0.03	1039.934	1.355
310.15	0	0.03	994.44	1.028
310.15	0.10108	0.03	998.851	1.031
310.15	0.19768	0.03	1003.011	1.042
310.15	0.29848	0.03	1007.294	1.059
310.15	0.39727	0.03	1011.434	1.08
310.15	0.50298	0.03	1015.678	1.108
310.15	0.60246	0.03	1019.763	1.149
310.15	0.69819	0.03	1023.885	1.193
310.15	0.79314	0.03	1027.935	1.233
310.15	0.89516	0.03	1032.279	1.282
310.15	1.01104	0.03	1037.199	1.363
315.15	0	0.03	992.549	1.028
315.15	0.10108	0.03	996.939	1.031
315.15	0.19768	0.03	1001.078	1.041
315.15	0.29848	0.03	1005.339	1.058
315.15	0.39727	0.03	1009.405	1.079
315.15	0.50298	0.03	1013.678	1.112
315.15	0.60246	0.03	1017.957	1.15
315.15	0.69819	0.03	1021.945	1.186
315.15	0.79314	0.03	1025.947	1.23
315.15	0.89516	0.03	1030.251	1.278
315.15	1.01104	0.03	1035.102	1.339
305.15	0	0.045	996.716	1.028
305.15	0.09867	0.045	1000.985	1.031
305.15	0.19875	0.045	1005.259	1.042
305.15	0.29849	0.045	1009.464	1.059
305.15	0.39953	0.045	1013.67	1.087
305.15	0.48979	0.045	1017.777	1.12
305.15	0.60214	0.045	1022.708	1.16
305.15	0.69382	0.045	1026.75	1.192
305.15	0.79431	0.045	1030.971	1.239
305.15	0.89885	0.045	1035.567	1.297
305.15	0.99393	0.045	1039.655	1.34
310.15	0	0.045	994.953	1.028
310.15	0.09867	0.045	999.191	1.031
310.15	0.19875	0.045	1003.433	1.042
310.15	0.29849	0.045	1007.604	1.058
310.15	0.39953	0.045	1011.776	1.081
310.15	0.48979	0.045	1015.55	1.106
310.15	0.60214	0.045	1020.142	1.149
310.15	0.69382	0.045	1024.147	1.195
310.15	0.79431	0.045	1028.517	1.229
310.15	0.89885	0.045	1032.755	1.275
310.15	0.99393	0.045	1036.801	1.356
315.15	0	0.045	993.115	1.028
315.15	0.09867	0.045	997.323	1.031
315.15	0.19875	0.045	1001.535	1.041
315.15	0.29849	0.045	1005.677	1.057
315.15	0.39953	0.045	1009.816	1.082
315.15	0.48979	0.045	1013.667	1.108
315.15	0.60214	0.045	1018.251	1.147
315.15	0.69382	0.045	1022.182	1.192
315.15	0.79431	0.045	1026.523	1.229
315.15	0.89885	0.045	1030.788	1.272
315.15	0.99393	0.045	1034.767	1.336
305.15	0	0.06	997.319	1.029
305.15	0.10089	0.06	1001.635	1.032
305.15	0.19973	0.06	1005.806	1.042
305.15	0.29881	0.06	1009.932	1.059
305.15	0.39659	0.06	1014.05	1.088
305.15	0.50112	0.06	1018.867	1.124
305.15	0.59951	0.06	1023.098	1.153
305.15	0.69885	0.06	1027.37	1.195
305.15	0.80124	0.06	1031.772	1.242
305.15	0.90006	0.06	1036.022	1.292
305.15	0.99279	0.06	1040.009	1.335
310.15	0	0.06	995.586	1.029
310.15	0.10089	0.06	999.876	1.031
310.15	0.19973	0.06	1004.023	1.042
310.15	0.29881	0.06	1008.125	1.058
310.15	0.39659	0.06	1012.123	1.08
310.15	0.50112	0.06	1016.437	1.11
310.15	0.59951	0.06	1020.446	1.147
310.15	0.69885	0.06	1024.749	1.196
310.15	0.80124	0.06	1029.177	1.232
310.15	0.90006	0.06	1033.158	1.279
310.15	0.99279	0.06	1037.188	1.365
315.15	0	0.06	993.681	1.029
315.15	0.10089	0.06	997.946	1.031
315.15	0.19973	0.06	1002.068	1.041
315.15	0.29881	0.06	1006.146	1.058
315.15	0.39659	0.06	1010.218	1.081
315.15	0.50112	0.06	1014.609	1.112
315.15	0.59951	0.06	1018.699	1.148
315.15	0.69885	0.06	1022.954	1.195
315.15	0.80124	0.06	1027.411	1.234
315.15	0.90006	0.06	1031.423	1.271
315.15	0.99279	0.06	1035.288	1.308
305.15	0	0.09	998.393	1.03
305.15	0.09968	0.09	1002.563	1.032
305.15	0.20009	0.09	1006.709	1.042
305.15	0.29906	0.09	1010.739	1.06
305.15	0.40062	0.09	1015.019	1.091
305.15	0.49959	0.09	1019.626	1.123
305.15	0.5984	0.09	1023.825	1.151
305.15	0.70065	0.09	1028.171	1.192
305.15	0.79462	0.09	1032.164	1.235
305.15	0.90046	0.09	1036.663	1.287
305.15	0.99582	0.09	1040.715	1.337
310.15	0	0.09	996.654	1.03
310.15	0.09968	0.09	1000.807	1.032
310.15	0.20009	0.09	1004.934	1.042
310.15	0.29906	0.09	1008.947	1.057
310.15	0.40062	0.09	1013.01	1.078
310.15	0.49959	0.09	1016.915	1.106
310.15	0.5984	0.09	1020.949	1.148
310.15	0.70065	0.09	1025.35	1.197
310.15	0.79462	0.09	1029.395	1.227
310.15	0.90046	0.09	1033.703	1.279
310.15	0.99582	0.09	1037.784	1.392
315.15	0	0.09	994.744	1.03
315.15	0.09968	0.09	998.87	1.032
315.15	0.20009	0.09	1002.97	1.042
315.15	0.29906	0.09	1006.958	1.058
315.15	0.40062	0.09	1011.093	1.082
315.15	0.49959	0.09	1015.272	1.11
315.15	0.5984	0.09	1019.269	1.145
315.15	0.70065	0.09	1023.64	1.195
315.15	0.79462	0.09	1027.698	1.23
315.15	0.90046	0.09	1032.052	1.272
315.15	0.99582	0.09	1035.976	1.32

System: L-serine + N,N-dimethylimidodicarbonimidic diamide hydrochloride + water; phases: Liquid
Fixed: Pressure, kPa = 100
Fixed: Frequency, MHz = 3
Property: Speed of sound, m/s (Liquid); method: Sing-around technique in a fixed-path interferometer
Temperature, K	Molality, mol/kg of L-serine	Solvent: Molality, mol/kg of N,N-dimethylimidodicarbonimidic diamide hydrochloride	Speed of sound, m/s	uncertainty
305.15	0	0	1513.72	1.61
305.15	0.10115	0	1519.65	1.62
305.15	0.19966	0	1525.5	1.63
305.15	0.30001	0	1531.08	1.65
305.15	0.39855	0	1536.81	1.68
305.15	0.49868	0	1542.19	1.71
305.15	0.60083	0	1548	1.75
305.15	0.6973	0	1553.32	1.79
305.15	0.79999	0	1558.84	1.83
305.15	0.90029	0	1564.04	1.88
305.15	0.99628	0	1569.2	1.94
310.15	0	0	1523.62	1.62
310.15	0.10115	0	1529.42	1.62
310.15	0.19966	0	1535.13	1.63
310.15	0.30001	0	1540.52	1.65
310.15	0.39855	0	1546.14	1.68
310.15	0.49868	0	1551.38	1.7
310.15	0.60083	0	1556.89	1.75
310.15	0.6973	0	1562.21	1.79
310.15	0.79999	0	1567.6	1.82
310.15	0.90029	0	1572.67	1.87
310.15	0.99628	0	1577.72	1.89
315.15	0	0	1532.07	1.62
315.15	0.10115	0	1537.69	1.62
315.15	0.19966	0	1543.28	1.63
315.15	0.30001	0	1548.44	1.65
315.15	0.39855	0	1554	1.68
315.15	0.49868	0	1559.17	1.7
315.15	0.60083	0	1564.52	1.74
315.15	0.6973	0	1569.61	1.78
315.15	0.79999	0	1575	1.82
315.15	0.90029	0	1579.94	1.86
315.15	0.99628	0	1584.92	1.93
305.15	0	0.03	1516.52	1.62
305.15	0.10108	0.03	1522.41	1.62
305.15	0.19768	0.03	1528.14	1.63
305.15	0.29848	0.03	1533.8	1.65
305.15	0.39727	0.03	1539.51	1.68
305.15	0.50298	0.03	1545.31	1.71
305.15	0.60246	0.03	1550.9	1.75
305.15	0.69819	0.03	1555.94	1.79
305.15	0.79314	0.03	1561.18	1.84
305.15	0.89516	0.03	1566.8	1.89
305.15	1.01104	0.03	1572.91	1.94
310.15	0	0.03	1526.31	1.62
310.15	0.10108	0.03	1532.03	1.62
310.15	0.19768	0.03	1538.07	1.63
310.15	0.29848	0.03	1543.19	1.65
310.15	0.39727	0.03	1548.74	1.68
310.15	0.50298	0.03	1554.38	1.71
310.15	0.60246	0.03	1559.78	1.74
310.15	0.69819	0.03	1564.74	1.78
310.15	0.79314	0.03	1569.77	1.83
310.15	0.89516	0.03	1575.18	1.88
310.15	1.01104	0.03	1581.2	1.9
315.15	0	0.03	1534.43	1.62
315.15	0.10108	0.03	1540.24	1.62
315.15	0.19768	0.03	1546	1.63
315.15	0.29848	0.03	1550.95	1.65
315.15	0.39727	0.03	1556.34	1.68
315.15	0.50298	0.03	1561.99	1.71
315.15	0.60246	0.03	1567.22	1.74
315.15	0.69819	0.03	1572.12	1.78
315.15	0.79314	0.03	1577.02	1.83
315.15	0.89516	0.03	1582.49	1.87
315.15	1.01104	0.03	1588.19	1.89
305.15	0	0.045	1518.03	1.62
305.15	0.09867	0.045	1523.71	1.62
305.15	0.19875	0.045	1529.64	1.64
305.15	0.29849	0.045	1535.29	1.65
305.15	0.39953	0.045	1540.82	1.68
305.15	0.48979	0.045	1546.07	1.71
305.15	0.60214	0.045	1552.21	1.75
305.15	0.69382	0.045	1557.34	1.82
305.15	0.79431	0.045	1563.54	1.82
305.15	0.89885	0.045	1568.04	1.85
305.15	0.99393	0.045	1573.31	1.95
310.15	0	0.045	1527.69	1.62
310.15	0.09867	0.045	1533.21	1.62
310.15	0.19875	0.045	1538.99	1.64
310.15	0.29849	0.045	1544.51	1.65
310.15	0.39953	0.045	1549.95	1.68
310.15	0.48979	0.045	1555.02	1.71
310.15	0.60214	0.045	1561.05	1.75
310.15	0.69382	0.045	1566.07	1.81
310.15	0.79431	0.045	1572.01	1.81
310.15	0.89885	0.045	1576.35	1.83
310.15	0.99393	0.045	1581.29	1.92
315.15	0	0.045	1535.9	1.62
315.15	0.09867	0.045	1541.3	1.62
315.15	0.19875	0.045	1546.95	1.64
315.15	0.29849	0.045	1552.32	1.65
315.15	0.39953	0.045	1557.64	1.68
315.15	0.48979	0.045	1562.57	1.71
315.15	0.60214	0.045	1568.44	1.74
315.15	0.69382	0.045	1573.28	1.8
315.15	0.79431	0.045	1579.15	1.81
315.15	0.89885	0.045	1583.42	1.82
315.15	0.99393	0.045	1588.24	1.93
305.15	0	0.06	1519.29	1.62
305.15	0.10089	0.06	1525.27	1.62
305.15	0.19973	0.06	1530.98	1.64
305.15	0.29881	0.06	1536.61	1.66
305.15	0.39659	0.06	1542.59	1.68
305.15	0.50112	0.06	1547.89	1.71
305.15	0.59951	0.06	1553.33	1.76
305.15	0.69885	0.06	1558.89	1.79
305.15	0.80124	0.06	1564.17	1.83
305.15	0.90006	0.06	1569.43	1.89
305.15	0.99279	0.06	1574.31	1.94
310.15	0	0.06	1529.01	1.62
310.15	0.10089	0.06	1534.74	1.63
310.15	0.19973	0.06	1540.33	1.64
310.15	0.29881	0.06	1545.82	1.66
310.15	0.39659	0.06	1551.66	1.68
310.15	0.50112	0.06	1556.78	1.7
310.15	0.59951	0.06	1562.07	1.75
310.15	0.69885	0.06	1567.51	1.78
310.15	0.80124	0.06	1572.66	1.82
310.15	0.90006	0.06	1577.79	1.87
310.15	0.99279	0.06	1582.54	1.89
315.15	0	0.06	1537.17	1.62
315.15	0.10089	0.06	1542.81	1.63
315.15	0.19973	0.06	1548.28	1.64
315.15	0.29881	0.06	1553.67	1.66
315.15	0.39659	0.06	1559.29	1.68
315.15	0.50112	0.06	1564.26	1.7
315.15	0.59951	0.06	1569.49	1.75
315.15	0.69885	0.06	1574.76	1.78
315.15	0.80124	0.06	1579.802	1.81
315.15	0.90006	0.06	1584.78	1.86
315.15	0.99279	0.06	1589.43	1.9
305.15	0	0.09	1521.95	1.62
305.15	0.09968	0.09	1527.93	1.63
305.15	0.20009	0.09	1533.77	1.64
305.15	0.29906	0.09	1539.31	1.66
305.15	0.40062	0.09	1545.13	1.69
305.15	0.49959	0.09	1550.65	1.72
305.15	0.5984	0.09	1556	1.75
305.15	0.70065	0.09	1561.51	1.8
305.15	0.79462	0.09	1566.75	1.85
305.15	0.90046	0.09	1572.37	1.87
305.15	0.99582	0.09	1576.92	1.89
310.15	0	0.09	1531.53	1.62
310.15	0.09968	0.09	1537.29	1.63
310.15	0.20009	0.09	1542.99	1.64
310.15	0.29906	0.09	1548.41	1.66
310.15	0.40062	0.09	1554.02	1.68
310.15	0.49959	0.09	1559.41	1.71
310.15	0.5984	0.09	1564.65	1.75
310.15	0.70065	0.09	1570.01	1.79
310.15	0.79462	0.09	1575.11	1.83
310.15	0.90046	0.09	1580.49	1.86
310.15	0.99582	0.09	1585.03	1.84
315.15	0	0.09	1539.6	1.62
315.15	0.09968	0.09	1545.17	1.63
315.15	0.20009	0.09	1550.76	1.64
315.15	0.29906	0.09	1556	1.66
315.15	0.40062	0.09	1561.53	1.68
315.15	0.49959	0.09	1566.77	1.71
315.15	0.5984	0.09	1571.89	1.74
315.15	0.70065	0.09	1577.15	1.78
315.15	0.79462	0.09	1582.02	1.82
315.15	0.90046	0.09	1587.4	1.85
315.15	0.99582	0.09	1591.81	1.87

System: L-threonine + N,N-dimethylimidodicarbonimidic diamide hydrochloride + water; phases: Liquid
Fixed: Pressure, kPa = 100
Property: Mass density, kg/m3 (Liquid); method: Vibrating tube method
Temperature, K	Molality, mol/kg of L-threonine	Solvent: Molality, mol/kg of N,N-dimethylimidodicarbonimidic diamide hydrochloride	Mass density, kg/m3	uncertainty
305.15	0	0	995.038	1.016
305.15	0.09989	0	999.283	1.019
305.15	0.19967	0	1003.524	1.03
305.15	0.29892	0	1007.742	1.047
305.15	0.39893	0	1011.993	1.072
305.15	0.50018	0	1016.296	1.102
305.15	0.59821	0	1020.462	1.137
305.15	0.64706	0	1022.538	1.157
305.15	0.70068	0	1024.817	1.179
305.15	0.74762	0	1026.812	1.2
305.15	0.78536	0	1028.416	1.218
310.15	0	0	993.328	1.016
310.15	0.09989	0	997.513	1.019
310.15	0.19967	0	1001.694	1.029
310.15	0.29892	0	1005.853	1.046
310.15	0.39893	0	1010.043	1.07
310.15	0.50018	0	1014.286	1.1
310.15	0.59821	0	1018.393	1.136
310.15	0.64706	0	1020.44	1.152
310.15	0.70068	0	1022.686	1.176
310.15	0.74762	0	1024.653	1.198
310.15	0.78536	0	1026.235	1.273
315.15	0	0	991.439	1.016
315.15	0.09989	0	995.687	1.019
315.15	0.19967	0	999.928	1.029
315.15	0.29892	0	1004.146	1.047
315.15	0.39893	0	1008.397	1.071
315.15	0.50018	0	1012.7	1.102
315.15	0.59821	0	1016.866	1.137
315.15	0.64706	0	1018.942	1.156
315.15	0.70068	0	1021.221	1.179
315.15	0.74762	0	1023.216	1.2
315.15	0.78536	0	1024.82	1.217
305.15	0	0.03	996.159	1.016
305.15	0.09813	0.03	1000.283	1.019
305.15	0.20227	0.03	1004.592	1.029
305.15	0.30144	0.03	1008.63	1.046
305.15	0.40217	0.03	1012.767	1.069
305.15	0.50032	0.03	1016.839	1.101
305.15	0.59463	0.03	1020.852	1.137
305.15	0.64885	0.03	1023.153	1.159
305.15	0.6999	0.03	1025.352	1.177
305.15	0.74621	0.03	1027.265	1.198
305.15	0.79959	0.03	1029.562	1.244
310.15	0	0.03	994.44	1.016
310.15	0.09813	0.03	998.541	1.019
310.15	0.20227	0.03	1002.824	1.029
310.15	0.30144	0.03	1006.837	1.044
310.15	0.40217	0.03	1010.85	1.066
310.15	0.50032	0.03	1014.799	1.095
310.15	0.59463	0.03	1018.675	1.135
310.15	0.64885	0.03	1021.041	1.157
310.15	0.6999	0.03	1023.134	1.168
310.15	0.74621	0.03	1025.008	1.185
310.15	0.79959	0.03	1027.206	1.26
315.15	0	0.03	992.549	1.016
315.15	0.09813	0.03	996.623	1.019
315.15	0.20227	0.03	1000.877	1.028
315.15	0.30144	0.03	1004.862	1.045
315.15	0.40217	0.03	1009.048	1.07
315.15	0.50032	0.03	1013.171	1.099
315.15	0.59463	0.03	1017.099	1.135
315.15	0.64885	0.03	1019.425	1.157
315.15	0.6999	0.03	1021.573	1.173
315.15	0.74621	0.03	1023.481	1.197
315.15	0.79959	0.03	1025.779	1.245
305.15	0	0.045	996.716	1.017
305.15	0.10024	0.045	1000.884	1.019
305.15	0.20101	0.045	1005.007	1.029
305.15	0.29966	0.045	1008.98	1.046
305.15	0.40021	0.045	1013.168	1.069
305.15	0.49875	0.045	1017.215	1.097
305.15	0.59801	0.045	1021.329	1.137
305.15	0.64994	0.045	1023.656	1.164
305.15	0.69777	0.045	1025.654	1.173
305.15	0.7484	0.045	1027.76	1.206
305.15	0.79909	0.045	1030.028	1.238
310.15	0	0.045	994.953	1.017
310.15	0.10024	0.045	999.095	1.019
310.15	0.20101	0.045	1003.191	1.029
310.15	0.29966	0.045	1007.138	1.044
310.15	0.40021	0.045	1011.168	1.067
310.15	0.49875	0.045	1015.179	1.096
310.15	0.59801	0.045	1019.278	1.134
310.15	0.64994	0.045	1021.467	1.158
310.15	0.69777	0.045	1023.508	1.167
310.15	0.7484	0.045	1025.508	1.185
310.15	0.79909	0.045	1027.604	1.244
315.15	0	0.045	993.115	1.017
315.15	0.10024	0.045	997.231	1.019
315.15	0.20101	0.045	1001.303	1.028
315.15	0.29966	0.045	1005.226	1.045
315.15	0.40021	0.045	1009.401	1.07
315.15	0.49875	0.045	1013.507	1.1
315.15	0.59801	0.045	1017.723	1.135
315.15	0.64994	0.045	1019.863	1.151
315.15	0.69777	0.045	1021.849	1.176
315.15	0.7484	0.045	1024.018	1.202
315.15	0.79909	0.045	1026.175	1.223
305.15	0	0.06	997.319	1.017
305.15	0.10052	0.06	1001.452	1.019
305.15	0.20001	0.06	1005.476	1.029
305.15	0.29602	0.06	1009.298	1.045
305.15	0.40012	0.06	1013.576	1.068
305.15	0.50064	0.06	1017.651	1.098
305.15	0.5993	0.06	1021.792	1.138
305.15	0.64938	0.06	1023.997	1.165
305.15	0.69909	0.06	1026.142	1.184
305.15	0.75033	0.06	1028.351	1.203
305.15	0.79906	0.06	1030.404	1.218
310.15	0	0.06	995.586	1.017
310.15	0.10052	0.06	999.695	1.019
310.15	0.20001	0.06	1003.696	1.029
310.15	0.29602	0.06	1007.496	1.043
310.15	0.40012	0.06	1011.551	1.066
310.15	0.50064	0.06	1015.702	1.097
310.15	0.5993	0.06	1019.722	1.133
310.15	0.64938	0.06	1021.889	1.156
310.15	0.69909	0.06	1023.928	1.161
310.15	0.75033	0.06	1025.909	1.18
310.15	0.79906	0.06	1027.881	1.255
315.15	0	0.06	993.681	1.017
315.15	0.10052	0.06	997.766	1.019
315.15	0.20001	0.06	1001.743	1.028
315.15	0.29602	0.06	1005.521	1.044
315.15	0.40012	0.06	1009.853	1.069
315.15	0.50064	0.06	1013.983	1.1
315.15	0.5993	0.06	1018.184	1.134
315.15	0.64938	0.06	1020.204	1.151
315.15	0.69909	0.06	1022.321	1.179
315.15	0.75033	0.06	1024.488	1.201
315.15	0.79906	0.06	1026.564	1.211
305.15	0	0.09	998.393	1.018
305.15	0.09981	0.09	1002.428	1.02
305.15	0.19983	0.09	1006.406	1.029
305.15	0.30029	0.09	1010.338	1.045
305.15	0.40038	0.09	1014.392	1.068
305.15	0.49726	0.09	1018.264	1.096
305.15	0.59907	0.09	1022.463	1.136
305.15	0.64807	0.09	1024.597	1.162
305.15	0.69705	0.09	1026.696	1.179
305.15	0.74896	0.09	1028.885	1.206
305.15	0.79956	0.09	1031.103	1.237
310.15	0	0.09	996.654	1.018
310.15	0.09981	0.09	1000.668	1.02
310.15	0.19983	0.09	1004.626	1.029
310.15	0.30029	0.09	1008.537	1.043
310.15	0.40038	0.09	1012.371	1.065
310.15	0.49726	0.09	1016.226	1.093
310.15	0.59907	0.09	1020.308	1.132
310.15	0.64807	0.09	1022.405	1.153
310.15	0.69705	0.09	1024.389	1.162
310.15	0.74896	0.09	1026.463	1.189
310.15	0.79956	0.09	1028.577	1.278
315.15	0	0.09	994.744	1.018
315.15	0.09981	0.09	998.739	1.02
315.15	0.19983	0.09	1002.677	1.029
315.15	0.30029	0.09	1006.568	1.045
315.15	0.40038	0.09	1010.584	1.067
315.15	0.49726	0.09	1014.518	1.095
315.15	0.59907	0.09	1018.678	1.129
315.15	0.64807	0.09	1020.666	1.151
315.15	0.69705	0.09	1022.739	1.175
315.15	0.74896	0.09	1024.904	1.194
315.15	0.79956	0.09	1027.009	1.217

System: L-threonine + N,N-dimethylimidodicarbonimidic diamide hydrochloride + water; phases: Liquid
Fixed: Pressure, kPa = 100
Fixed: Frequency, MHz = 3
Property: Speed of sound, m/s (Liquid); method: Sing-around technique in a fixed-path interferometer
Temperature, K	Molality, mol/kg of L-threonine	Solvent: Molality, mol/kg of N,N-dimethylimidodicarbonimidic diamide hydrochloride	Speed of sound, m/s	uncertainty
305.15	0	0	1513.72	1.51
305.15	0.09989	0	1520.95	1.52
305.15	0.19967	0	1528.05	1.54
305.15	0.29892	0	1535.02	1.57
305.15	0.39893	0	1542.19	1.61
305.15	0.50018	0	1549.11	1.66
305.15	0.59821	0	1555.69	1.72
305.15	0.64706	0	1559.05	1.74
305.15	0.70068	0	1562.39	1.78
305.15	0.74762	0	1565.68	1.85
305.15	0.78536	0	1568.39	1.89
310.15	0	0	1523.62	1.51
310.15	0.09989	0	1530.68	1.52
310.15	0.19967	0	1537.55	1.54
310.15	0.29892	0	1544.61	1.57
310.15	0.39893	0	1551.13	1.61
310.15	0.50018	0	1558.1	1.66
310.15	0.59821	0	1564.8	1.71
310.15	0.64706	0	1567.94	1.75
310.15	0.70068	0	1571.73	1.82
310.15	0.74762	0	1575.11	1.85
310.15	0.78536	0	1577.77	1.79
315.15	0	0	1532.07	1.51
315.15	0.09989	0	1538.91	1.52
315.15	0.19967	0	1545.4	1.54
315.15	0.29892	0	1552.01	1.57
315.15	0.39893	0	1558.95	1.61
315.15	0.50018	0	1565.99	1.68
315.15	0.59821	0	1573.1	1.74
315.15	0.64706	0	1576.45	1.76
315.15	0.70068	0	1580.13	1.8
315.15	0.74762	0	1583.35	1.83
315.15	0.78536	0	1585.94	1.86
305.15	0	0.03	1516.52	1.51
305.15	0.09813	0.03	1523.83	1.52
305.15	0.20227	0.03	1531.38	1.54
305.15	0.30144	0.03	1538.16	1.57
305.15	0.40217	0.03	1545.24	1.62
305.15	0.50032	0.03	1552.07	1.66
305.15	0.59463	0.03	1558.35	1.71
305.15	0.64885	0.03	1561.81	1.71
305.15	0.6999	0.03	1564.8	1.77
305.15	0.74621	0.03	1568.19	1.84
305.15	0.79959	0.03	1571.8	1.87
310.15	0	0.03	1526.31	1.51
310.15	0.09813	0.03	1533.36	1.52
310.15	0.20227	0.03	1540.64	1.54
310.15	0.30144	0.03	1547.18	1.57
310.15	0.40217	0.03	1554.01	1.61
310.15	0.50032	0.03	1560.6	1.65
310.15	0.59463	0.03	1566.69	1.69
310.15	0.64885	0.03	1569.97	1.71
310.15	0.6999	0.03	1572.98	1.76
310.15	0.74621	0.03	1576.24	1.83
310.15	0.79959	0.03	1579.71	1.81
315.15	0	0.03	1534.43	1.51
315.15	0.09813	0.03	1541.39	1.52
315.15	0.20227	0.03	1548.51	1.54
315.15	0.30144	0.03	1554.78	1.57
315.15	0.40217	0.03	1561.39	1.61
315.15	0.50032	0.03	1567.83	1.65
315.15	0.59463	0.03	1573.69	1.69
315.15	0.64885	0.03	1576.86	1.69
315.15	0.6999	0.03	1579.75	1.74
315.15	0.74621	0.03	1582.8	1.81
315.15	0.79959	0.03	1586.28	1.98
305.15	0	0.045	1518.03	1.51
305.15	0.10024	0.045	1525.14	1.52
305.15	0.20101	0.045	1532.36	1.54
305.15	0.29966	0.045	1539.35	1.57
305.15	0.40021	0.045	1546.38	1.62
305.15	0.49875	0.045	1553.21	1.66
305.15	0.59801	0.045	1559.77	1.71
305.15	0.64994	0.045	1563.22	1.74
305.15	0.69777	0.045	1566.29	1.78
305.15	0.7484	0.045	1569.78	1.82
305.15	0.79909	0.045	1573.12	1.84
310.15	0	0.045	1527.69	1.51
310.15	0.10024	0.045	1534.46	1.52
310.15	0.20101	0.045	1541.47	1.54
310.15	0.29966	0.045	1548.22	1.57
310.15	0.40021	0.045	1555.13	1.61
310.15	0.49875	0.045	1561.68	1.65
310.15	0.59801	0.045	1568.09	1.7
310.15	0.64994	0.045	1571.42	1.73
310.15	0.69777	0.045	1574.41	1.77
310.15	0.7484	0.045	1577.77	1.81
310.15	0.79909	0.045	1580.99	1.79
315.15	0	0.045	1535.9	1.52
315.15	0.10024	0.045	1542.51	1.52
315.15	0.20101	0.045	1549.26	1.54
315.15	0.29966	0.045	1555.77	1.57
315.15	0.40021	0.045	1562.46	1.61
315.15	0.49875	0.045	1568.91	1.65
315.15	0.59801	0.045	1575	1.69
315.15	0.64994	0.045	1578.23	1.72
315.15	0.69777	0.045	1581.15	1.75
315.15	0.7484	0.045	1584.38	1.81
315.15	0.79909	0.045	1587.82	1.83
305.15	0	0.06	1519.28	1.51
305.15	0.10052	0.06	1527.66	1.52
305.15	0.20001	0.06	1533.77	1.54
305.15	0.29602	0.06	1540.71	1.57
305.15	0.40012	0.06	1547.69	1.61
305.15	0.50064	0.06	1554.47	1.66
305.15	0.5993	0.06	1561.12	1.72
305.15	0.64938	0.06	1564.44	1.75
305.15	0.69909	0.06	1567.73	1.78
305.15	0.75033	0.06	1571.06	1.82
305.15	0.79906	0.06	1574.35	1.9
310.15	0	0.06	1529.01	1.52
310.15	0.10052	0.06	1536.99	1.52
310.15	0.20001	0.06	1542.94	1.54
310.15	0.29602	0.06	1549.7	1.57
310.15	0.40012	0.06	1556.3	1.6
310.15	0.50064	0.06	1562.81	1.66
310.15	0.5993	0.06	1569.37	1.71
310.15	0.64938	0.06	1572.58	1.74
310.15	0.69909	0.06	1575.76	1.76
310.15	0.75033	0.06	1578.98	1.8
310.15	0.79906	0.06	1582.21	1.82
315.15	0	0.06	1537.17	1.52
315.15	0.10052	0.06	1544.95	1.52
315.15	0.20001	0.06	1550.69	1.54
315.15	0.29602	0.06	1557.2	1.57
315.15	0.40012	0.06	1563.56	1.6
315.15	0.50064	0.06	1569.89	1.65
315.15	0.5993	0.06	1576.14	1.71
315.15	0.64938	0.06	1579.34	1.73
315.15	0.69909	0.06	1582.41	1.75
315.15	0.75033	0.06	1585.52	1.79
315.15	0.79906	0.06	1588.67	1.89
305.15	0	0.09	1521.95	1.52
305.15	0.09981	0.09	1529.41	1.52
305.15	0.19983	0.09	1536.54	1.55
305.15	0.30029	0.09	1544.01	1.58
305.15	0.40038	0.09	1550.64	1.62
305.15	0.49726	0.09	1557.08	1.67
305.15	0.59907	0.09	1564.26	1.73
305.15	0.64807	0.09	1567.21	1.72
305.15	0.69705	0.09	1570.24	1.79
305.15	0.74896	0.09	1573.89	1.86
305.15	0.79956	0.09	1577.54	1.92
310.15	0	0.09	1531.53	1.52
310.15	0.09981	0.09	1538.67	1.52
310.15	0.19983	0.09	1545.57	1.55
310.15	0.30029	0.09	1552.86	1.58
310.15	0.40038	0.09	1559.26	1.61
310.15	0.49726	0.09	1565.42	1.66
310.15	0.59907	0.09	1572.4	1.71
310.15	0.64807	0.09	1575.25	1.71
310.15	0.69705	0.09	1578.14	1.77
310.15	0.74896	0.09	1581.67	1.84
310.15	0.79956	0.09	1585.2	1.82
315.15	0	0.09	1539.6	1.52
315.15	0.09981	0.09	1546.56	1.52
315.15	0.19983	0.09	1553.16	1.55
315.15	0.30029	0.09	1560.09	1.57
315.15	0.40038	0.09	1566.39	1.61
315.15	0.49726	0.09	1572.42	1.66
315.15	0.59907	0.09	1579.08	1.71
315.15	0.64807	0.09	1581.9	1.7
315.15	0.69705	0.09	1584.7	1.76
315.15	0.74896	0.09	1588.14	1.83
315.15	0.79956	0.09	1591.58	1.88

System: L-serine + water; phases: Liquid
Fixed: Pressure, kPa = 100
Property: Mass density, kg/m3 (Liquid); method: Vibrating tube method
Temperature, K	Molality, mol/kg of L-serine	Mass density, kg/m3	uncertainty
305.15	0.10115	999.763	1.031
305.15	0.19966	1003.985	1.042
305.15	0.30001	1008.198	1.06
305.15	0.39855	1012.53	1.085
305.15	0.49868	1016.753	1.12
305.15	0.60083	1021.43	1.16
305.15	0.6973	1025.53	1.184
305.15	0.79999	1029.741	1.228
305.15	0.90029	1033.964	1.28
305.15	0.99628	1037.975	1.328
310.15	0.10115	997.637	1.031
310.15	0.19966	1001.834	1.041
310.15	0.30001	1006.108	1.059
310.15	0.39855	1010.306	1.083
310.15	0.49868	1014.572	1.114
310.15	0.60083	1018.923	1.151
310.15	0.6973	1023.033	1.19
310.15	0.79999	1027.408	1.237
310.15	0.90029	1031.68	1.287
310.15	0.99628	1035.77	1.352
315.15	0.10115	995.748	1.031
315.15	0.19966	999.945	1.041
315.15	0.30001	1004.219	1.059
315.15	0.39855	1008.417	1.083
315.15	0.49868	1012.683	1.114
315.15	0.60083	1017.034	1.15
315.15	0.6973	1021.144	1.19
315.15	0.79999	1025.519	1.236
315.15	0.90029	1029.791	1.286
315.15	0.99628	1033.881	1.337
305.15	0	995.038	1.028
310.15	0	993.328	1.028
315.15	0	991.439	1.028

System: L-serine + water; phases: Liquid
Fixed: Pressure, kPa = 100
Fixed: Frequency, MHz = 3
Property: Speed of sound, m/s (Liquid); method: Sing-around technique in a fixed-path interferometer
Temperature, K	Molality, mol/kg of L-serine	Speed of sound, m/s	uncertainty
305.15	0.10115	1519.65	1.62
305.15	0.19966	1525.5	1.63
305.15	0.30001	1531.08	1.65
305.15	0.39855	1536.81	1.68
305.15	0.49868	1542.19	1.71
305.15	0.60083	1548	1.75
305.15	0.6973	1553.32	1.79
305.15	0.79999	1558.84	1.83
305.15	0.90029	1564.04	1.88
305.15	0.99628	1569.2	1.94
310.15	0.10115	1529.42	1.62
310.15	0.19966	1535.13	1.63
310.15	0.30001	1540.52	1.65
310.15	0.39855	1546.14	1.68
310.15	0.49868	1551.38	1.7
310.15	0.60083	1556.89	1.75
310.15	0.6973	1562.21	1.79
310.15	0.79999	1567.6	1.82
310.15	0.90029	1572.67	1.87
310.15	0.99628	1577.72	1.89
315.15	0.10115	1537.69	1.62
315.15	0.19966	1543.28	1.63
315.15	0.30001	1548.44	1.65
315.15	0.39855	1554	1.68
315.15	0.49868	1559.17	1.7
315.15	0.60083	1564.52	1.74
315.15	0.6973	1569.61	1.78
315.15	0.79999	1575	1.82
315.15	0.90029	1579.94	1.86
315.15	0.99628	1584.92	1.93
305.15	0	1513.72	1.61
310.15	0	1523.62	1.62
315.15	0	1532.07	1.62

System: N,N-dimethylimidodicarbonimidic diamide hydrochloride + water; phases: Liquid
Fixed: Pressure, kPa = 100
Property: Mass density, kg/m3 (Liquid); method: Vibrating tube method
Temperature, K	Molality, mol/kg of N,N-dimethylimidodicarbonimidic diamide hydrochloride	Mass density, kg/m3	uncertainty
305.15	0.03	996.159	1.028
310.15	0.03	994.44	1.028
315.15	0.03	992.549	1.028
305.15	0.045	996.716	1.028
310.15	0.045	994.953	1.028
315.15	0.045	993.115	1.028
305.15	0.06	997.319	1.029
310.15	0.06	995.586	1.029
315.15	0.06	993.681	1.029
305.15	0.09	998.393	1.03
310.15	0.09	996.654	1.03
315.15	0.09	994.744	1.03
305.15	0	995.038	1.028
310.15	0	993.328	1.028
315.15	0	991.439	1.028

System: N,N-dimethylimidodicarbonimidic diamide hydrochloride + water; phases: Liquid
Fixed: Pressure, kPa = 100
Fixed: Frequency, MHz = 3
Property: Speed of sound, m/s (Liquid); method: Sing-around technique in a fixed-path interferometer
Temperature, K	Molality, mol/kg of N,N-dimethylimidodicarbonimidic diamide hydrochloride	Speed of sound, m/s	uncertainty
305.15	0.03	1516.52	1.62
310.15	0.03	1526.31	1.62
315.15	0.03	1534.43	1.62
305.15	0.045	1518.03	1.62
310.15	0.045	1527.69	1.62
315.15	0.045	1535.9	1.62
305.15	0.06	1519.29	1.62
310.15	0.06	1529.01	1.62
315.15	0.06	1537.17	1.62
305.15	0.09	1521.95	1.62
310.15	0.09	1531.53	1.62
315.15	0.09	1539.6	1.62
305.15	0.06	1519.28	1.51
305.15	0	1513.72	1.61
310.15	0	1523.62	1.62
315.15	0	1532.07	1.62

System: L-threonine + water; phases: Liquid
Fixed: Pressure, kPa = 100
Property: Mass density, kg/m3 (Liquid); method: Vibrating tube method
Temperature, K	Molality, mol/kg of L-threonine	Mass density, kg/m3	uncertainty
305.15	0.09989	999.283	1.019
305.15	0.19967	1003.524	1.03
305.15	0.29892	1007.742	1.047
305.15	0.39893	1011.993	1.072
305.15	0.50018	1016.296	1.102
305.15	0.59821	1020.462	1.137
305.15	0.64706	1022.538	1.157
305.15	0.70068	1024.817	1.179
305.15	0.74762	1026.812	1.2
305.15	0.78536	1028.416	1.218
310.15	0.09989	997.513	1.019
310.15	0.19967	1001.694	1.029
310.15	0.29892	1005.853	1.046
310.15	0.39893	1010.043	1.07
310.15	0.50018	1014.286	1.1
310.15	0.59821	1018.393	1.136
310.15	0.64706	1020.44	1.152
310.15	0.70068	1022.686	1.176
310.15	0.74762	1024.653	1.198
310.15	0.78536	1026.235	1.273
315.15	0.09989	995.687	1.019
315.15	0.19967	999.928	1.029
315.15	0.29892	1004.146	1.047
315.15	0.39893	1008.397	1.071
315.15	0.50018	1012.7	1.102
315.15	0.59821	1016.866	1.137
315.15	0.64706	1018.942	1.156
315.15	0.70068	1021.221	1.179
315.15	0.74762	1023.216	1.2
315.15	0.78536	1024.82	1.217
305.15	0	995.038	1.028
310.15	0	993.328	1.028
315.15	0	991.439	1.028

System: L-threonine + water; phases: Liquid
Fixed: Pressure, kPa = 100
Fixed: Frequency, MHz = 3
Property: Speed of sound, m/s (Liquid); method: Sing-around technique in a fixed-path interferometer
Temperature, K	Molality, mol/kg of L-threonine	Speed of sound, m/s	uncertainty
305.15	0.09989	1520.95	1.52
305.15	0.19967	1528.05	1.54
305.15	0.29892	1535.02	1.57
305.15	0.39893	1542.19	1.61
305.15	0.50018	1549.11	1.66
305.15	0.59821	1555.69	1.72
305.15	0.64706	1559.05	1.74
305.15	0.70068	1562.39	1.78
305.15	0.74762	1565.68	1.85
305.15	0.78536	1568.39	1.89
310.15	0.09989	1530.68	1.52
310.15	0.19967	1537.55	1.54
310.15	0.29892	1544.61	1.57
310.15	0.39893	1551.13	1.61
310.15	0.50018	1558.1	1.66
310.15	0.59821	1564.8	1.71
310.15	0.64706	1567.94	1.75
310.15	0.70068	1571.73	1.82
310.15	0.74762	1575.11	1.85
310.15	0.78536	1577.77	1.79
315.15	0.09989	1538.91	1.52
315.15	0.19967	1545.4	1.54
315.15	0.29892	1552.01	1.57
315.15	0.39893	1558.95	1.61
315.15	0.50018	1565.99	1.68
315.15	0.59821	1573.1	1.74
315.15	0.64706	1576.45	1.76
315.15	0.70068	1580.13	1.8
315.15	0.74762	1583.35	1.83
315.15	0.78536	1585.94	1.86
305.15	0	1513.72	1.61
310.15	0	1523.62	1.62
315.15	0	1532.07	1.62
