Measured thermophysical data. Imidazolium and pyridinium-based ionic liquids for the cyclohexane/cyclohexene separation by liquid-liquid extraction
Source: J. Chem. Thermodyn., 2019, 10.1016/j.jct.2018.11.018
Compound 1: 1-butyl-4-methylpyridinium tricyanomethanide, C14H16N4, InChI=1S/C10H16N.C4N3/c1-3-4-7-11-8-5-10(2)6-9-11;5-1-4(2-6)3-7/h5-6,8-9H,3-4,7H2,1-2H3;/q+1;-1, purity 98%
Compound 2: bis(1-ethyl-3-methylimidazolium) tetrathiocyanatocobaltate, C16H22CoN8S4, InChI=1S/2C6H11N2.4CNS.Co/c2*1-3-8-5-4-7(2)6-8;4*2-1-3;/h2*4-6H,3H2,1-2H3;;;;;/q2*+1;4*-1;+2, purity 99%
Compound 3: bis(1-butyl-3-methylimidazolium) tetrathiocyanatocobaltate, C20H30CoN8S4, InChI=1S/2C8H15N2.4CNS.Co/c2*1-3-4-5-10-7-6-9(2)8-10;4*2-1-3;/h2*6-8H,3-5H2,1-2H3;;;;;/q2*+1;4*-1;+2, purity 99%
Compound 4: 1-ethyl-4-methylpyridinium bis((trifluoromethyl)sulfonyl)amide, C10H12F6N2O4S2, InChI=1S/C8H12N.C2F6NO4S2/c1-3-9-6-4-8(2)5-7-9;3-1(4,5)14(10,11)9-15(12,13)2(6,7)8/h4-7H,3H2,1-2H3;/q+1;-1, purity 99%
Compound 5: 1-butyl-4-methylpyridinium bis((trifluoromethyl)sulfonyl)amide, C12H16F6N2O4S2, InChI=1S/C10H16N.C2F6NO4S2/c1-3-4-7-11-8-5-10(2)6-9-11;3-1(4,5)14(10,11)9-15(12,13)2(6,7)8/h5-6,8-9H,3-4,7H2,1-2H3;/q+1;-1, purity 99%
Compound 6: cyclohexane, C6H12, InChI=1S/C6H12/c1-2-4-6-5-3-1/h1-6H2, purity 99.5%
Compound 7: cyclohexene, C6H10, InChI=1S/C6H10/c1-2-4-6-5-3-1/h1-2H,3-6H2, purity 99%

System: cyclohexane + cyclohexene + 1-butyl-4-methylpyridinium tricyanomethanide; phases: Liquid mixture 2, Liquid mixture 1
Fixed: Pressure, kPa = 100
Property: Mole fraction of cyclohexane (Liquid mixture 2); method: Chromatography
Property: Mole fraction of cyclohexene (Liquid mixture 1); method: Chromatography
Property: Mole fraction of cyclohexane (Liquid mixture 1); method: Chromatography
Temperature, K	Mole fraction of cyclohexene	Mole fraction of cyclohexane	uncertainty	Mole fraction of cyclohexene	uncertainty	Mole fraction of cyclohexane	uncertainty
298.2	0.0942	0.0401	0.0108	0.4948	0.0146	0.5052	
298.2	0	0.0715	0.01	0		1	
298.2	0.0085	0.0683	0.0101	0.0459	0.0141	0.9541	
298.2	0.0173	0.0688	0.0102	0.0885	0.0142	0.9115	
298.2	0.0322	0.0652	0.0104	0.1669	0.0142	0.8331	
298.2	0.0512	0.0591	0.0107	0.2657	0.0143	0.7343	
298.2	0.0752	0.0495	0.0108	0.391	0.0144	0.609	
298.2	0.093	0.0417	0.0108	0.4893	0.0146	0.5107	
298.2	0.1053	0.0375	0.0109	0.5504	0.0145	0.4496	
298.2	0.1206	0.0291	0.0107	0.6432	0.0144	0.3568	
298.2	0.1443	0.022	0.0105	0.7495	0.0143	0.2505	
298.2	0.1607	0.0157	0.012	0.8282	0.0142	0.1718	
298.2	0.1775	0		1		0	
313.2	0.0822	0.0374	0.0111	0.4894	0.0146	0.5106	
328.2	0.062	0.0267	0.0103	0.4963	0.0146	0.5037	

System: cyclohexane + cyclohexene + bis(1-ethyl-3-methylimidazolium) tetrathiocyanatocobaltate; phases: Liquid mixture 2, Liquid mixture 1
Fixed: Pressure, kPa = 100
Property: Mole fraction of cyclohexane (Liquid mixture 2); method: Chromatography
Property: Mole fraction of cyclohexene (Liquid mixture 1); method: Chromatography
Property: Mole fraction of cyclohexane (Liquid mixture 1); method: Chromatography
Temperature, K	Mole fraction of cyclohexene	Mole fraction of cyclohexane	uncertainty	Mole fraction of cyclohexene	uncertainty	Mole fraction of cyclohexane	uncertainty
298.2	0.0805	0.0292	0.0107	0.4899	0.0146	0.5101	
298.2	0	0.0628	0.01	0		1	
298.2	0.0082	0.0561	0.0102	0.046	0.0141	0.954	
298.2	0.0162	0.0539	0.0108	0.0897	0.0142	0.9103	
298.2	0.0292	0.0509	0.0105	0.1669	0.0142	0.8331	
298.2	0.0437	0.0451	0.0106	0.2547	0.0143	0.7453	
298.2	0.0654	0.0379	0.0109	0.3849	0.0144	0.6151	
298.2	0.0768	0.0306	0.0106	0.4775	0.0145	0.5225	
298.2	0.0866	0.0258	0.0107	0.551	0.0145	0.449	
298.2	0.1066	0.0222	0.0104	0.648	0.0144	0.352	
298.2	0.1141	0.0176	0.0104	0.7054	0.0143	0.2946	
298.2	0.1276	0.0138	0.0107	0.783	0.0142	0.217	
298.2	0.1628	0		1		0	
313.2	0.0932	0.0366	0.0108	0.4847	0.0146	0.5153	
328.2	0.0918	0.0383	0.0108	0.4914	0.0146	0.5086	

System: cyclohexane + cyclohexene + bis(1-butyl-3-methylimidazolium) tetrathiocyanatocobaltate; phases: Liquid mixture 2, Liquid mixture 1
Fixed: Pressure, kPa = 100
Property: Mole fraction of cyclohexane (Liquid mixture 2); method: Chromatography
Property: Mole fraction of cyclohexene (Liquid mixture 1); method: Chromatography
Property: Mole fraction of cyclohexane (Liquid mixture 1); method: Chromatography
Temperature, K	Mole fraction of cyclohexene	Mole fraction of cyclohexane	uncertainty	Mole fraction of cyclohexene	uncertainty	Mole fraction of cyclohexane	uncertainty
298.2	0.1107	0.0453	0.0108	0.4935	0.0146	0.5065	
298.2	0	0.0922	0.0101	0		1	
298.2	0.01	0.0841	0.0105	0.0432	0.0141	0.9568	
298.2	0.0163	0.0821	0.0106	0.0701	0.0142	0.9299	
298.2	0.0319	0.0808	0.0103	0.1357	0.0142	0.8643	
298.2	0.0496	0.0739	0.0108	0.2128	0.0142	0.7872	
298.2	0.0804	0.0615	0.0108	0.349	0.0144	0.651	
298.2	0.1016	0.0534	0.0108	0.4407	0.0145	0.5593	
298.2	0.1144	0.0481	0.0109	0.5017	0.0146	0.4983	
298.2	0.1377	0.038	0.0109	0.6057	0.0144	0.3943	
298.2	0.153	0.0319	0.0107	0.6747	0.0143	0.3253	
298.2	0.1731	0.0245	0.011	0.7602	0.0142	0.2398	
298.2	0.2243	0		1		0	
313.2	0.1209	0.0552	0.0107	0.4786	0.0145	0.5214	
328.2	0.1241	0.0597	0.0126	0.4847	0.0146	0.5153	

System: cyclohexane + cyclohexene + 1-ethyl-4-methylpyridinium bis((trifluoromethyl)sulfonyl)amide; phases: Liquid mixture 2, Liquid mixture 1
Fixed: Pressure, kPa = 100
Property: Mole fraction of cyclohexane (Liquid mixture 2); method: Chromatography
Property: Mole fraction of cyclohexene (Liquid mixture 1); method: Chromatography
Property: Mole fraction of cyclohexane (Liquid mixture 1); method: Chromatography
Temperature, K	Mole fraction of cyclohexene	Mole fraction of cyclohexane	uncertainty	Mole fraction of cyclohexene	uncertainty	Mole fraction of cyclohexane	uncertainty
298.2	0.0444	0.0204	0.0107	0.5025	0.0146	0.4975	
313.2	0.0651	0.0305	0.011	0.4922	0.0146	0.5078	
328.2	0	0.0725	0.01	0		1	
328.2	0.0075	0.0702	0.0106	0.0488	0.0141	0.9512	
328.2	0.0145	0.0671	0.0109	0.0938	0.0142	0.9062	
328.2	0.0254	0.0618	0.0106	0.173	0.0142	0.827	
328.2	0.0414	0.0575	0.0109	0.2723	0.0143	0.7277	
328.2	0.0583	0.0473	0.0109	0.3932	0.0144	0.6068	
328.2	0.0757	0.0423	0.0111	0.4887	0.0146	0.5113	
328.2	0.0854	0.0365	0.011	0.5575	0.0145	0.4425	
328.2	0.0974	0.0285	0.0111	0.6493	0.0144	0.3507	
328.2	0.1099	0.0248	0.0108	0.7087	0.0143	0.2913	
328.2	0.122	0.0184	0.0112	0.7851	0.0142	0.2149	
328.2	0.1595	0		1		0	
328.2	0.0775	0.0397	0.0111	0.4997	0.0146	0.5003	

System: cyclohexane + cyclohexene + 1-butyl-4-methylpyridinium bis((trifluoromethyl)sulfonyl)amide; phases: Liquid mixture 2, Liquid mixture 1
Fixed: Pressure, kPa = 100
Property: Mole fraction of cyclohexane (Liquid mixture 2); method: Chromatography
Property: Mole fraction of cyclohexene (Liquid mixture 1); method: Chromatography
Property: Mole fraction of cyclohexane (Liquid mixture 1); method: Chromatography
Temperature, K	Mole fraction of cyclohexene	Mole fraction of cyclohexane	uncertainty	Mole fraction of cyclohexene	uncertainty	Mole fraction of cyclohexane	uncertainty
298.2	0.082	0.0443	0.0104	0.498	0.0146	0.502	
313.2	0.1123	0.0637	0.0117	0.4878	0.0146	0.5122	
328.2	0	0.1227	0.01	0		1	
328.2	0.01	0.1151	0.0102	0.0448	0.0141	0.9552	
328.2	0.0221	0.1184	0.0101	0.0913	0.0142	0.9087	
328.2	0.0411	0.1137	0.0107	0.1716	0.0142	0.8284	
328.2	0.0655	0.1021	0.0113	0.2724	0.0143	0.7276	
328.2	0.0967	0.0851	0.0117	0.4024	0.0144	0.5976	
328.2	0.1161	0.0719	0.0121	0.4925	0.0146	0.5075	
328.2	0.1307	0.0618	0.0121	0.5605	0.0145	0.4395	
328.2	0.1515	0.0481	0.0114	0.658	0.0143	0.342	
328.2	0.1693	0.0412	0.011	0.7163	0.0143	0.2837	
328.2	0.1883	0.0311	0.012	0.7898	0.0142	0.2102	
328.2	0.233	0		1		0	
328.2	0.1152	0.0718	0.0121	0.4937	0.0146	0.5063	

System: cyclohexene + 1-butyl-4-methylpyridinium tricyanomethanide; phases: Liquid mixture 2, Liquid mixture 1
Property: Mole fraction of cyclohexene (Liquid mixture 2); method: Chromatography
Temperature, K	Pressure, kPa	Mole fraction of cyclohexene	uncertainty
298.2	100	0.1775	0.0101

System: cyclohexane + 1-butyl-4-methylpyridinium tricyanomethanide; phases: Liquid mixture 2, Liquid mixture 1
Property: Mole fraction of cyclohexane (Liquid mixture 2); method: Chromatography
Temperature, K	Pressure, kPa	Mole fraction of cyclohexane	uncertainty
298.2	100	0.0715	0.01

System: cyclohexene + bis(1-ethyl-3-methylimidazolium) tetrathiocyanatocobaltate; phases: Liquid mixture 2, Liquid mixture 1
Property: Mole fraction of cyclohexene (Liquid mixture 2); method: Chromatography
Temperature, K	Pressure, kPa	Mole fraction of cyclohexene	uncertainty
298.2	100	0.1628	0.0101

System: cyclohexane + bis(1-ethyl-3-methylimidazolium) tetrathiocyanatocobaltate; phases: Liquid mixture 2, Liquid mixture 1
Property: Mole fraction of cyclohexane (Liquid mixture 2); method: Chromatography
Temperature, K	Pressure, kPa	Mole fraction of cyclohexane	uncertainty
298.2	100	0.0628	0.01

System: cyclohexane + bis(1-butyl-3-methylimidazolium) tetrathiocyanatocobaltate; phases: Liquid mixture 2, Liquid mixture 1
Property: Mole fraction of cyclohexane (Liquid mixture 2); method: Chromatography
Temperature, K	Pressure, kPa	Mole fraction of cyclohexane	uncertainty
298.2	100	0.0922	0.0101

System: cyclohexene + bis(1-butyl-3-methylimidazolium) tetrathiocyanatocobaltate; phases: Liquid mixture 2, Liquid mixture 1
Property: Mole fraction of cyclohexene (Liquid mixture 2); method: Chromatography
Temperature, K	Pressure, kPa	Mole fraction of cyclohexene	uncertainty
298.2	100	0.2243	0.0101

System: cyclohexane + 1-ethyl-4-methylpyridinium bis((trifluoromethyl)sulfonyl)amide; phases: Liquid mixture 2, Liquid mixture 1
Property: Mole fraction of cyclohexane (Liquid mixture 2); method: Chromatography
Temperature, K	Pressure, kPa	Mole fraction of cyclohexane	uncertainty
328.2	100	0.0725	0.01

System: cyclohexene + 1-ethyl-4-methylpyridinium bis((trifluoromethyl)sulfonyl)amide; phases: Liquid mixture 2, Liquid mixture 1
Property: Mole fraction of cyclohexene (Liquid mixture 2); method: Chromatography
Temperature, K	Pressure, kPa	Mole fraction of cyclohexene	uncertainty
328.2	100	0.1595	0.0101

System: cyclohexane + 1-butyl-4-methylpyridinium bis((trifluoromethyl)sulfonyl)amide; phases: Liquid mixture 2, Liquid mixture 1
Property: Mole fraction of cyclohexane (Liquid mixture 2); method: Chromatography
Temperature, K	Pressure, kPa	Mole fraction of cyclohexane	uncertainty
328.2	100	0.1227	0.01

System: cyclohexene + 1-butyl-4-methylpyridinium bis((trifluoromethyl)sulfonyl)amide; phases: Liquid mixture 2, Liquid mixture 1
Property: Mole fraction of cyclohexene (Liquid mixture 2); method: Chromatography
Temperature, K	Pressure, kPa	Mole fraction of cyclohexene	uncertainty
328.2	100	0.233	0.0101
