Measured thermophysical data. Thermochemistry on crystalline compounds bis-(n-dodecylammonium) tetrachlorometallates (n-C12H25NH3)2MCl4(s) (M = Cu and Cd)
Source: J. Chem. Thermodyn., 2013, 10.1016/j.jct.2013.07.001
Compound 1: water, H2O, InChI=1S/H2O/h1H2
Compound 2: copper, Cu, InChI=1S/Cu
Compound 3: chlorine, Cl2, InChI=1S/Cl2/c1-2
Compound 4: hydrogen, H2, InChI=1S/H2/h1H
Compound 5: nitrogen, N2, InChI=1S/N2/c1-2
Compound 6: graphite, C
Compound 7: cadmium, Cd, InChI=1S/Cd
Compound 8: bis(n-dodecylammonium) tetrachlorocadmate, C24H56CdCl4N2, InChI=1S/2C12H27N.Cd.4ClH/c2*1-2-3-4-5-6-7-8-9-10-11-12-13;;;;;/h2*2-13H2,1H3;;4*1H/q;;+2;;;;/p-2
Compound 9: bis(dodecylammonium) tetrachlorocuprate(II), C24H56Cl4CuN2, InChI=1S/2C12H27N.4ClH.Cu/c2*1-2-3-4-5-6-7-8-9-10-11-12-13;;;;;/h2*2-13H2,1H3;4*1H;/q;;;;;;+2/p-2
Compound 10: copper(2+) chloride dihydrate, Cl2CuH4O2, InChI=1S/2ClH.Cu.2H2O/h2*1H;;2*1H2/q;;+2;;/p-2, purity 99%
Compound 11: cadmium chloride (CdCl2), hydrate (2:5), Cd2Cl4H10O5, InChI=1S/2Cd.4ClH.5H2O/h;;4*1H;5*1H2/q2*+2;;;;;;;;;/p-4, purity 99%
Compound 12: dodecanamine hydrochloride, C12H28ClN, InChI=1S/C12H27N.ClH/c1-2-3-4-5-6-7-8-9-10-11-12-13;/h2-13H2,1H3;1H, purity 98%

System: bis(n-dodecylammonium) tetrachlorocadmate; phases: Crystal
Property: Mass density, kg/m3 (Crystal); method: X-ray diffraction
Temperature, K	Pressure, kPa	Mass density, kg/m3	uncertainty
298	101.325	1302	6

System: bis(dodecylammonium) tetrachlorocuprate(II); phases: Crystal
Property: Mass density, kg/m3 (Crystal); method: X-ray diffraction
Temperature, K	Pressure, kPa	Mass density, kg/m3	uncertainty
298	101.325	1111	6

Reaction: -2 dodecanamine hydrochloride + -1 copper(2+) chloride dihydrate + 1 bis(dodecylammonium) tetrachlorocuprate(II) + 2 water
Property: Molar enthalpy of reaction, kJ/mol
32.86

Reaction: -2 dodecanamine hydrochloride + -.5 cadmium chloride (CdCl2), hydrate (2:5) + 1 bis(n-dodecylammonium) tetrachlorocadmate + 2.5 water
Property: Molar enthalpy of reaction, kJ/mol
-5.28

Reaction: -1 copper + -2 chlorine + 1 bis(dodecylammonium) tetrachlorocuprate(II) + -28 hydrogen + -1 nitrogen + -24 graphite
Property: Molar enthalpy of reaction, kJ/mol
-1630.4

Reaction: -1 cadmium + -2 chlorine + 1 bis(n-dodecylammonium) tetrachlorocadmate + -28 hydrogen + -1 nitrogen + -24 graphite
Property: Molar enthalpy of reaction, kJ/mol
-1836.2
