Measured thermophysical data. Phase equilibrium properties of binary aqueous solutions of benzylamine,  1,2-bis(2-aminoethoxy)ethane, or 2-[2-(dimethylamino)ethoxy]ethanol
Source: J. Chem. Thermodyn., 2011, 10.1016/j.jct.2010.07.008
Compound 1: benzylamine, C7H9N, InChI=1S/C7H9N/c8-6-7-4-2-1-3-5-7/h1-5H,6,8H2, purity 98%
Compound 2: 1,2-bis(2-aminoethoxy)ethane, C6H16N2O2, InChI=1S/C6H16N2O2/c7-1-3-9-5-6-10-4-2-8/h1-8H2, purity 97%
Compound 3: 2-(2-dimethylaminoethoxy)ethanol, C6H15NO2, InChI=1S/C6H15NO2/c1-7(2)3-5-9-6-4-8/h8H,3-6H2,1-2H3, purity 98%
Compound 4: water, H2O, InChI=1S/H2O/h1H2

System: 2-(2-dimethylaminoethoxy)ethanol; phases: Liquid, Gas
Property: Vapor or sublimation pressure, kPa (Liquid); method: Closed cell (Static) method
Temperature, K	Vapor or sublimation pressure, kPa	uncertainty
283.15	0.007	0.0003
293.14	0.016	0.0006
303.09	0.0346	0.0009
313.08	0.0707	0.0014
323.28	0.1418	0.0022
333.12	0.2604	0.0031
343.12	0.4742	0.0049
353.14	0.8145	0.0077
363.35	1.4194	0.0108
373.1	2.3146	0.0128

System: 1,2-bis(2-aminoethoxy)ethane + water; phases: Liquid, Gas
Property: Vapor or sublimation pressure, kPa (Liquid); method: Closed cell (Static) method
Mole fraction of 1,2-bis(2-aminoethoxy)ethane	Temperature, K	Vapor or sublimation pressure, kPa	uncertainty
0	283.15	1.1995	0.0208
0	293.15	2.2838	0.0232
0	303.15	4.1478	0.0299
0	313.15	7.2219	0.0413
0	323.15	12.1071	0.0596
0	333.15	19.6156	0.0878
0	343.15	30.8154	0.1299
0	353.15	47.0737	0.1909
0	363.15	70.1022	0.2755
0.0502	283.15	1.1032	0.0194
0.0502	293.15	2.0979	0.0227
0.0502	303.15	3.8077	0.0291
0.0502	313.15	6.6289	0.0401
0.0502	323.15	11.1158	0.0577
0.0502	333.15	18.0205	0.085
0.0502	343.15	28.3342	0.1258
0.0502	353.15	43.3304	0.1849
0.0502	363.15	64.6087	0.2667
0.1	283.15	0.9311	0.0167
0.1	293.15	1.7675	0.0217
0.1	303.15	3.2127	0.0272
0.1	313.15	5.6152	0.0369
0.1	323.15	9.4728	0.0528
0.1	333.15	15.4749	0.0777
0.1	343.15	24.5503	0.1155
0.1	353.15	37.9205	0.1712
0.1	363.15	57.1556	0.2487
0.2599	283.15	0.461	0.0093
0.2599	293.15	0.8818	0.016
0.2599	303.15	1.6137	0.0213
0.2599	313.15	2.8377	0.0263
0.2599	323.15	4.8134	0.0347
0.2599	333.15	7.9019	0.0484
0.2599	343.15	12.5916	0.0694
0.2599	353.15	19.5268	0.1007
0.2599	363.15	29.5385	0.1488
0.4994	283.15	0.1852	0.005
0.4994	293.15	0.3859	0.0082
0.4994	303.15	0.7635	0.0143
0.4994	313.15	1.4424	0.021
0.4994	323.15	2.6133	0.0262
0.4994	333.15	4.559	0.0355
0.4994	343.15	7.6851	0.0512
0.4994	353.15	12.5565	0.076
0.4994	363.15	19.939	0.1132
0.6676	283.15	0.0968	0.0036
0.6676	293.15	0.2122	0.0054
0.6676	303.15	0.433	0.009
0.6676	313.15	0.8299	0.0155
0.6676	323.15	1.5056	0.0216
0.6676	333.15	2.6034	0.027
0.6676	343.15	4.3141	0.0362
0.6676	353.15	6.8842	0.0507
0.6676	363.15	10.6215	0.0725
0.816	283.15	0.0438	0.002
0.816	293.15	0.0979	0.0037
0.816	303.15	0.2016	0.0053
0.816	313.15	0.3877	0.0083
0.816	323.15	0.7026	0.0136
0.816	333.15	1.2088	0.0219
0.816	343.15	1.9879	0.0246
0.816	353.15	3.1415	0.0313
0.816	363.15	4.7925	0.0416
1	283.15	0.0017	0.0003
1	293.15	0.0037	0.0004
1	303.15	0.0077	0.0006
1	313.15	0.0156	0.0011
1	323.15	0.0305	0.0016
1	333.15	0.0575	0.0024
1	343.15	0.1049	0.0039
1	353.15	0.1856	0.005
1	363.15	0.3194	0.0072

System: benzylamine + water; phases: Liquid, Gas
Property: Vapor or sublimation pressure, kPa (Liquid); method: Closed cell (Static) method
Mole fraction of benzylamine	Temperature, K	Vapor or sublimation pressure, kPa	uncertainty
0	283.15	1.1995	0.0208
0	293.15	2.2838	0.0232
0	303.15	4.1478	0.0299
0	313.15	7.2219	0.0413
0	323.15	12.1071	0.0596
0	333.15	19.6156	0.0878
0	343.15	30.8154	0.1299
0	353.15	47.0737	0.1909
0	363.15	70.1022	0.2755
0.0512	283.15	1.1815	0.0206
0.0512	293.15	2.2724	0.0232
0.0512	303.15	4.1576	0.0301
0.0512	313.15	7.2762	0.0418
0.0512	323.15	12.2385	0.0606
0.0512	333.15	19.8645	0.0897
0.0512	343.15	31.2243	0.133
0.0512	353.15	47.6776	0.1956
0.0512	363.15	70.9114	0.2822
0.1017	283.15	1.1835	0.0206
0.1017	293.15	2.2553	0.0232
0.1017	303.15	4.1026	0.03
0.1017	313.15	7.1582	0.0416
0.1017	323.15	12.0304	0.0604
0.1017	333.15	19.547	0.0895
0.1017	343.15	30.8026	0.1331
0.1017	353.15	47.2088	0.1965
0.1017	363.15	70.5437	0.2848
0.2526	283.15	1.1214	0.0197
0.2526	293.15	2.1358	0.0229
0.2526	303.15	3.8862	0.0296
0.2526	313.15	6.7878	0.041
0.2526	323.15	11.4264	0.0596
0.2526	333.15	18.6044	0.0887
0.2526	343.15	29.3894	0.1324
0.2526	353.15	45.1669	0.1963
0.2526	363.15	67.6941	0.2853
0.3613	283.15	1.0264	0.0182
0.3613	293.15	1.9306	0.0223
0.3613	303.15	3.4829	0.0283
0.3613	313.15	6.0504	0.0387
0.3613	323.15	10.1566	0.0558
0.3613	333.15	16.5264	0.0825
0.3613	343.15	26.1371	0.123
0.3613	353.15	40.2754	0.1826
0.3613	363.15	60.5981	0.2665
0.5009	283.15	0.8109	0.0149
0.5009	293.15	1.5298	0.0209
0.5009	303.15	2.7661	0.0258
0.5009	313.15	4.8136	0.0343
0.5009	323.15	8.0913	0.0485
0.5009	333.15	13.1787	0.0709
0.5009	343.15	20.8566	0.1051
0.5009	353.15	32.1518	0.1555
0.5009	363.15	48.3848	0.2263
0.6687	283.15	0.5809	0.0113
0.6687	293.15	1.0517	0.0187
0.6687	303.15	1.8306	0.0222
0.6687	313.15	3.0747	0.0275
0.6687	323.15	5.0003	0.0361
0.6687	333.15	7.8964	0.0496
0.6687	343.15	12.1404	0.0701
0.6687	353.15	18.2136	0.1001
0.6687	363.15	26.7182	0.1425
0.8391	283.15	0.1238	0.0045
0.8391	293.15	0.4366	0.009
0.8391	303.15	0.9973	0.018
0.8391	313.15	1.7867	0.0224
0.8391	323.15	2.7565	0.0267
0.8391	333.15	3.8535	0.0321
0.8391	343.15	5.0311	0.0385
0.8391	353.15	6.252	0.046
0.8391	363.15	7.4884	0.0563
1	283.15	0.0285	0.0015
1	293.15	0.0642	0.0026
1	303.15	0.1351	0.0041
1	313.15	0.2678	0.0063
1	323.15	0.5039	0.01
1	333.15	0.9048	0.0165
1	343.15	1.5582	0.0213
1	353.15	2.585	0.0258
1	363.15	4.1465	0.033

System: 2-(2-dimethylaminoethoxy)ethanol + water; phases: Liquid, Gas
Property: Vapor or sublimation pressure, kPa (Liquid); method: Closed cell (Static) method
Mole fraction of 2-(2-dimethylaminoethoxy)ethanol	Temperature, K	Vapor or sublimation pressure, kPa	uncertainty
0	283.15	1.1995	0.0208
0	293.15	2.2838	0.0232
0	298.15	3.095	0.0261
0	303.15	4.1478	0.0301
0	313.15	7.2219	0.0413
0	323.15	12.1071	0.0591
0.0499	283.15	1.1234	0.0197
0.0499	293.15	2.1183	0.0226
0.0499	298.15	2.863	0.0254
0.0499	303.15	3.8315	0.0291
0.0499	313.15	6.6744	0.0396
0.0499	323.15	11.236	0.0566
0.1007	283.15	1.0299	0.0182
0.1007	293.15	1.9736	0.0222
0.1007	298.15	2.6842	0.0248
0.1007	303.15	3.6109	0.0284
0.1007	313.15	6.338	0.0387
0.1007	323.15	10.7169	0.0552
0.2583	283.15	0.7904	0.0145
0.2583	293.15	1.4788	0.0205
0.2583	298.15	1.9953	0.0224
0.2583	303.15	2.6694	0.0251
0.2583	313.15	4.6632	0.0328
0.2583	323.15	7.9046	0.0457
0.3575	283.15	0.6624	0.0125
0.3575	293.15	1.2192	0.0212
0.3575	298.15	1.6345	0.0212
0.3575	303.15	2.1748	0.0232
0.3575	313.15	3.7684	0.0295
0.3575	323.15	6.3565	0.0399
0.5011	283.15	0.4513	0.0092
0.5011	293.15	0.8854	0.016
0.5011	298.15	1.2088	0.0211
0.5011	303.15	1.6254	0.0213
0.5011	313.15	2.8185	0.026
0.5011	323.15	4.6522	0.0335
0.6697	283.15	0.2385	0.0058
0.6697	293.15	0.4956	0.0099
0.6697	298.15	0.6957	0.0131
0.6697	303.15	0.9611	0.0173
0.6697	313.15	1.7556	0.022
0.6697	323.15	3.0444	0.0273
0.8144	283.15	0.1213	0.0044
0.8144	293.15	0.2498	0.006
0.8144	298.15	0.3512	0.0076
0.8144	303.15	0.4873	0.0098
0.8144	313.15	0.9057	0.0165
0.8144	323.15	1.6117	0.0217
1	283.15	0.007	0.0006
1	293.15	0.016	0.0011
1	298.15	0.0237	0.0013
1	303.15	0.0346	0.0017
1	313.15	0.0711	0.0028
1	323.15	0.1393	0.0042
