Measured thermophysical data. Investigation on molecular interactions of antibiotics in alcohols using volumetric and acoustic studies at different temperatures
Source: J. Chem. Thermodyn., 2017, 10.1016/j.jct.2016.09.037
Compound 1: 2-methyl-5-nitro-1H-imidazole-1-ethanol, C6H9N3O3, InChI=1S/C6H9N3O3/c1-5-7-4-6(9(11)12)8(5)2-3-10/h4,10H,2-3H2,1H3, purity 99.6%
Compound 2: 1,2-dimethyl-5-nitroimidazole, C5H7N3O2, InChI=1S/C5H7N3O2/c1-4-6-3-5(7(4)2)8(9)10/h3H,1-2H3, purity 99.7%
Compound 3: methanol, CH4O, InChI=1S/CH4O/c1-2/h2H,1H3, purity 99.8%
Compound 4: ethanol, C2H6O, InChI=1S/C2H6O/c1-2-3/h3H,2H2,1H3, purity 99.5%
Compound 5: propan-2-ol, C3H8O, InChI=1S/C3H8O/c1-3(2)4/h3-4H,1-2H3, purity 99.5%
Compound 6: butan-1-ol, C4H10O, InChI=1S/C4H10O/c1-2-3-4-5/h5H,2-4H2,1H3, purity 99.4%

System: methanol; phases: Liquid
Fixed: Pressure, kPa = 101
Property: Mass density, kg/m3 (Liquid); method: Vibrating tube method
Temperature, K	Mass density, kg/m3	uncertainty
293.15	793.603	2.003
298.15	789.271	2.003
303.15	784.591	2.003
308.15	777.868	2.003
313.15	772.438	2.003

System: methanol; phases: Liquid
Fixed: Pressure, kPa = 101
Fixed: Frequency, MHz = 3
Property: Speed of sound, m/s (Liquid); method: Sing-around technique in a fixed-path interferometer
Temperature, K	Speed of sound, m/s	uncertainty
293.15	1106.63	8.02
298.15	1101.91	8.02
303.15	1082.73	8.02
308.15	1068.82	8.02
313.15	1059.41	8.02

System: ethanol; phases: Liquid
Fixed: Pressure, kPa = 101
Property: Mass density, kg/m3 (Liquid); method: Vibrating tube method
Temperature, K	Mass density, kg/m3	uncertainty
293.15	789.412	2.004
298.15	785.413	2.004
303.15	782.015	2.005
308.15	777.697	2.005
313.15	773.201	2.005

System: ethanol; phases: Liquid
Fixed: Pressure, kPa = 101
Fixed: Frequency, MHz = 3
Property: Speed of sound, m/s (Liquid); method: Sing-around technique in a fixed-path interferometer
Temperature, K	Speed of sound, m/s	uncertainty
293.15	1159.34	8.03
298.15	1150.05	8.03
303.15	1130.28	8.03
308.15	1097.64	8.03
313.15	1090.92	8.03

System: propan-2-ol; phases: Liquid
Fixed: Pressure, kPa = 101
Property: Mass density, kg/m3 (Liquid); method: Vibrating tube method
Temperature, K	Mass density, kg/m3	uncertainty
293.15	785.81	2.004
298.15	781.336	2.005
303.15	777.061	2.005
308.15	772.019	2.005
313.15	769.701	2.005

System: propan-2-ol; phases: Liquid
Fixed: Pressure, kPa = 101
Fixed: Frequency, MHz = 3
Property: Speed of sound, m/s (Liquid); method: Sing-around technique in a fixed-path interferometer
Temperature, K	Speed of sound, m/s	uncertainty
293.15	1156.65	8.04
298.15	1136.74	8.03
303.15	1125.89	8.03
308.15	1105.01	8.03
313.15	1085.11	8.03

System: butan-1-ol; phases: Liquid
Fixed: Pressure, kPa = 101
Property: Mass density, kg/m3 (Liquid); method: Vibrating tube method
Temperature, K	Mass density, kg/m3	uncertainty
293.15	809.493	2.005
298.15	805.648	2.005
303.15	803.676	2.005
308.15	800.496	2.005
313.15	794.112	2.005

System: butan-1-ol; phases: Liquid
Fixed: Pressure, kPa = 101
Fixed: Frequency, MHz = 3
Property: Speed of sound, m/s (Liquid); method: Sing-around technique in a fixed-path interferometer
Temperature, K	Speed of sound, m/s	uncertainty
293.15	1258.43	8.04
298.15	1239.82	8.04
303.15	1222.97	8.04
308.15	1203.15	8.04
313.15	1191.42	8.04

System: methanol + 1,2-dimethyl-5-nitroimidazole; phases: Liquid
Fixed: Pressure, kPa = 101
Property: Mass density, kg/m3 (Liquid); method: Vibrating tube method
Temperature, K	Molality, mol/kg of 1,2-dimethyl-5-nitroimidazole	Mass density, kg/m3	uncertainty
293.15	0	793.603	2.024
298.15	0	789.271	2.03
303.15	0	784.591	2.064
308.15	0	777.868	2.01
313.15	0	772.438	2.024
293.15	0.01	794.574	2.024
293.15	0.02	795.553	2.025
293.15	0.03	796.549	2.025
293.15	0.04	797.546	2.025
293.15	0.05	798.551	2.025
298.15	0.01	790.247	2.024
298.15	0.02	791.232	2.025
298.15	0.03	792.221	2.025
298.15	0.04	793.214	2.025
298.15	0.05	794.217	2.021
303.15	0.01	785.567	2.025
303.15	0.02	786.551	2.025
303.15	0.03	787.548	2.025
303.15	0.04	788.544	2.025
303.15	0.05	789.542	2.005
308.15	0.01	778.839	2.024
308.15	0.02	779.817	2.025
308.15	0.03	780.811	2.026
308.15	0.04	781.815	2.026
308.15	0.05	782.818	2.049
313.15	0.01	773.407	2.024
313.15	0.02	774.382	2.025
313.15	0.03	775.371	2.026
313.15	0.04	776.379	2.026
313.15	0.05	777.401	2.027

System: methanol + 1,2-dimethyl-5-nitroimidazole; phases: Liquid
Fixed: Pressure, kPa = 101
Fixed: Frequency, MHz = 3
Property: Speed of sound, m/s (Liquid); method: Sing-around technique in a fixed-path interferometer
Temperature, K	Molality, mol/kg of 1,2-dimethyl-5-nitroimidazole	Speed of sound, m/s	uncertainty
293.15	0	1106.63	8.04
298.15	0	1101.91	8.26
303.15	0	1082.73	8.02
308.15	0	1068.82	8.02
313.15	0	1059.41	8.04
293.15	0.01	1108.35	8.03
293.15	0.02	1109.82	8.03
293.15	0.03	1110.69	8.02
293.15	0.04	1111.34	8.02
293.15	0.05	1112.05	8.02
298.15	0.01	1103.73	8.03
298.15	0.02	1105.03	8.03
298.15	0.03	1106.19	8.03
298.15	0.04	1107.03	8.03
298.15	0.05	1108.03	8.12
303.15	0.01	1084.48	8.03
303.15	0.02	1085.72	8.03
303.15	0.03	1086.85	8.02
303.15	0.04	1087.51	8.02
303.15	0.05	1088.53	8.06
308.15	0.01	1070.49	8.03
308.15	0.02	1071.87	8.03
308.15	0.03	1072.75	8.02
308.15	0.04	1073.47	8.02
308.15	0.05	1074.25	8.06
313.15	0.01	1061.11	8.03
313.15	0.02	1062.51	8.03
313.15	0.03	1063.36	8.02
313.15	0.04	1064.28	8.02
313.15	0.05	1065.26	8.02

System: methanol + 2-methyl-5-nitro-1H-imidazole-1-ethanol; phases: Liquid
Fixed: Pressure, kPa = 101
Property: Mass density, kg/m3 (Liquid); method: Vibrating tube method
Temperature, K	Molality, mol/kg of 2-methyl-5-nitro-1H-imidazole-1-ethanol	Mass density, kg/m3	uncertainty
293.15	0	793.603	2.025
298.15	0	789.271	2.031
303.15	0	784.591	2.066
308.15	0	777.868	2.011
313.15	0	772.438	2.026
293.15	0.01	794.604	2.026
293.15	0.02	795.623	2.026
293.15	0.03	796.639	2.026
293.15	0.04	797.676	2.027
293.15	0.05	798.708	2.027
298.15	0.01	790.277	2.026
298.15	0.02	791.292	2.026
298.15	0.03	792.311	2.026
298.15	0.04	793.334	2.026
298.15	0.05	794.357	2.021
303.15	0.01	785.597	2.026
303.15	0.02	786.609	2.026
303.15	0.03	787.627	2.026
303.15	0.04	788.644	2.026
303.15	0.05	789.672	2.006
308.15	0.01	778.871	2.026
308.15	0.02	779.883	2.026
308.15	0.03	780.899	2.026
308.15	0.04	781.919	2.026
308.15	0.05	782.939	2.05
313.15	0.01	773.439	2.026
313.15	0.02	774.445	2.026
313.15	0.03	775.471	2.026
313.15	0.04	776.481	2.027
313.15	0.05	777.519	2.027

System: methanol + 2-methyl-5-nitro-1H-imidazole-1-ethanol; phases: Liquid
Fixed: Pressure, kPa = 101
Fixed: Frequency, MHz = 3
Property: Speed of sound, m/s (Liquid); method: Sing-around technique in a fixed-path interferometer
Temperature, K	Molality, mol/kg of 2-methyl-5-nitro-1H-imidazole-1-ethanol	Speed of sound, m/s	uncertainty
293.15	0	1106.63	8.05
298.15	0	1101.91	8.31
303.15	0	1082.73	8.02
308.15	0	1068.82	8.02
313.15	0	1059.41	8.05
293.15	0.01	1109.05	8.05
293.15	0.02	1111.42	8.04
293.15	0.03	1113.21	8.04
293.15	0.04	1115.31	8.04
293.15	0.05	1117.12	8.04
298.15	0.01	1104.33	8.05
298.15	0.02	1106.63	8.05
298.15	0.03	1108.71	8.05
298.15	0.04	1110.82	8.04
298.15	0.05	1112.14	8.09
303.15	0.01	1085.06	8.05
303.15	0.02	1087.23	8.05
303.15	0.03	1089.33	8.04
303.15	0.04	1091.21	8.04
303.15	0.05	1092.61	8.08
308.15	0.01	1071.05	8.05
308.15	0.02	1073.11	8.04
308.15	0.03	1075.11	8.04
308.15	0.04	1077.01	8.04
308.15	0.05	1078.55	8.07
313.15	0.01	1061.59	8.04
313.15	0.02	1063.61	8.04
313.15	0.03	1065.56	8.04
313.15	0.04	1067.26	8.04
313.15	0.05	1068.91	8.03

System: ethanol + 1,2-dimethyl-5-nitroimidazole; phases: Liquid
Fixed: Pressure, kPa = 101
Property: Mass density, kg/m3 (Liquid); method: Vibrating tube method
Temperature, K	Molality, mol/kg of 1,2-dimethyl-5-nitroimidazole	Mass density, kg/m3	uncertainty
293.15	0	789.412	2.02
298.15	0	785.413	2.013
303.15	0	782.015	2.033
308.15	0	777.697	2.022
313.15	0	773.201	2.02
293.15	0.01	790.241	2.02
293.15	0.02	791.079	2.02
293.15	0.03	791.927	2.021
293.15	0.04	792.782	2.021
293.15	0.05	793.639	2.021
298.15	0.01	786.243	2.02
298.15	0.02	787.082	2.02
298.15	0.03	787.931	2.021
298.15	0.04	788.786	2.021
298.15	0.05	789.648	2.029
303.15	0.01	782.847	2.02
303.15	0.02	783.685	2.02
303.15	0.03	784.537	2.021
303.15	0.04	785.397	2.021
303.15	0.05	786.251	2.011
308.15	0.01	778.529	2.02
308.15	0.02	779.371	2.021
308.15	0.03	780.242	2.021
308.15	0.04	781.101	2.021
308.15	0.05	781.968	2.019
313.15	0.01	774.037	2.021
313.15	0.02	774.889	2.021
313.15	0.03	775.744	2.021
313.15	0.04	776.604	2.021
313.15	0.05	777.469	2.021

System: ethanol + 1,2-dimethyl-5-nitroimidazole; phases: Liquid
Fixed: Pressure, kPa = 101
Fixed: Frequency, MHz = 3
Property: Speed of sound, m/s (Liquid); method: Sing-around technique in a fixed-path interferometer
Temperature, K	Molality, mol/kg of 1,2-dimethyl-5-nitroimidazole	Speed of sound, m/s	uncertainty
293.15	0	1159.34	8.07
298.15	0	1150.05	8.24
303.15	0	1130.28	8.28
308.15	0	1097.64	8.26
313.15	0	1090.92	8.06
293.15	0.01	1161.77	8.07
293.15	0.02	1164.15	8.06
293.15	0.03	1166.26	8.06
293.15	0.04	1168.03	8.06
293.15	0.05	1170.08	8.06
298.15	0.01	1152.61	8.07
298.15	0.02	1154.76	8.06
298.15	0.03	1156.87	8.06
298.15	0.04	1158.79	8.05
298.15	0.05	1160.56	8.05
303.15	0.01	1132.71	8.06
303.15	0.02	1134.87	8.06
303.15	0.03	1136.79	8.05
303.15	0.04	1138.57	8.05
303.15	0.05	1140.36	8.07
308.15	0.01	1099.86	8.06
308.15	0.02	1101.86	8.05
308.15	0.03	1103.65	8.05
308.15	0.04	1105.11	8.05
308.15	0.05	1106.91	8.65
313.15	0.01	1093.08	8.06
313.15	0.02	1095.11	8.06
313.15	0.03	1097.12	8.05
313.15	0.04	1098.23	8.04
313.15	0.05	1099.99	8.05

System: ethanol + 2-methyl-5-nitro-1H-imidazole-1-ethanol; phases: Liquid
Fixed: Pressure, kPa = 101
Property: Mass density, kg/m3 (Liquid); method: Vibrating tube method
Temperature, K	Molality, mol/kg of 2-methyl-5-nitro-1H-imidazole-1-ethanol	Mass density, kg/m3	uncertainty
293.15	0	789.412	2.024
298.15	0	785.413	2.017
303.15	0	782.015	2.039
308.15	0	777.697	2.027
313.15	0	773.201	2.024
293.15	0.01	790.343	2.024
293.15	0.02	791.289	2.024
293.15	0.03	792.231	2.025
293.15	0.04	793.202	2.025
293.15	0.05	794.168	2.025
298.15	0.01	786.348	2.024
298.15	0.02	787.286	2.024
298.15	0.03	788.239	2.025
298.15	0.04	789.211	2.025
298.15	0.05	790.178	2.035
303.15	0.01	782.951	2.024
303.15	0.02	783.894	2.024
303.15	0.03	784.841	2.025
303.15	0.04	785.812	2.026
303.15	0.05	786.787	2.014
308.15	0.01	778.631	2.024
308.15	0.02	779.574	2.025
308.15	0.03	780.531	2.025
308.15	0.04	781.491	2.025
308.15	0.05	782.468	2.023
313.15	0.01	774.137	2.024
313.15	0.02	775.082	2.025
313.15	0.03	776.037	2.025
313.15	0.04	776.989	2.026
313.15	0.05	777.976	2.026

System: ethanol + 2-methyl-5-nitro-1H-imidazole-1-ethanol; phases: Liquid
Fixed: Pressure, kPa = 101
Fixed: Frequency, MHz = 3
Property: Speed of sound, m/s (Liquid); method: Sing-around technique in a fixed-path interferometer
Temperature, K	Molality, mol/kg of 2-methyl-5-nitro-1H-imidazole-1-ethanol	Speed of sound, m/s	uncertainty
293.15	0	1159.34	8.08
298.15	0	1150.05	8.26
303.15	0	1130.28	8.32
308.15	0	1097.64	8.24
313.15	0	1090.92	8.07
293.15	0.01	1162.25	8.08
293.15	0.02	1164.78	8.06
293.15	0.03	1166.69	8.05
293.15	0.04	1168.43	8.06
293.15	0.05	1170.56	8.06
298.15	0.01	1153.01	8.08
298.15	0.02	1155.43	8.06
298.15	0.03	1157.31	8.05
298.15	0.04	1159.21	8.06
298.15	0.05	1161.19	8.05
303.15	0.01	1133.13	8.07
303.15	0.02	1135.37	8.06
303.15	0.03	1137.71	8.06
303.15	0.04	1139.19	8.05
303.15	0.05	1141.11	8.07
308.15	0.01	1100.22	8.06
308.15	0.02	1102.28	8.06
308.15	0.03	1104.45	8.05
308.15	0.04	1106.11	8.05
308.15	0.05	1107.61	8.63
313.15	0.01	1093.58	8.06
313.15	0.02	1095.52	8.06
313.15	0.03	1097.68	8.06
313.15	0.04	1099.91	8.05
313.15	0.05	1101.02	8.04

System: propan-2-ol + 1,2-dimethyl-5-nitroimidazole; phases: Liquid
Fixed: Pressure, kPa = 101
Property: Mass density, kg/m3 (Liquid); method: Vibrating tube method
Temperature, K	Molality, mol/kg of 1,2-dimethyl-5-nitroimidazole	Mass density, kg/m3	uncertainty
293.15	0	785.81	2.026
298.15	0	781.336	2.023
303.15	0	777.061	2.039
308.15	0	772.019	2.005
313.15	0	769.701	2.026
293.15	0.01	786.794	2.026
293.15	0.02	787.781	2.027
293.15	0.03	788.801	2.027
293.15	0.04	789.803	2.027
293.15	0.05	790.834	2.028
298.15	0.01	782.319	2.026
298.15	0.02	783.311	2.027
298.15	0.03	784.321	2.027
298.15	0.04	785.331	2.027
298.15	0.05	786.342	2.031
303.15	0.01	778.042	2.026
303.15	0.02	779.031	2.027
303.15	0.03	780.039	2.027
303.15	0.04	781.054	2.028
303.15	0.05	782.084	2.017
308.15	0.01	773.001	2.026
308.15	0.02	773.987	2.027
308.15	0.03	774.992	2.027
308.15	0.04	776.011	2.028
308.15	0.05	777.019	2.086
313.15	0.01	770.682	2.027
313.15	0.02	771.681	2.027
313.15	0.03	772.691	2.027
313.15	0.04	773.695	2.027
313.15	0.05	774.703	2.027

System: propan-2-ol + 1,2-dimethyl-5-nitroimidazole; phases: Liquid
Fixed: Pressure, kPa = 101
Fixed: Frequency, MHz = 3
Property: Speed of sound, m/s (Liquid); method: Sing-around technique in a fixed-path interferometer
Temperature, K	Molality, mol/kg of 1,2-dimethyl-5-nitroimidazole	Speed of sound, m/s	uncertainty
293.15	0	1156.65	8.05
298.15	0	1136.74	8.05
303.15	0	1125.89	8.16
308.15	0	1105.01	8.04
313.15	0	1085.11	8.04
293.15	0.01	1158.18	8.05
293.15	0.02	1159.47	8.04
293.15	0.03	1160.73	8.04
293.15	0.04	1161.74	8.04
293.15	0.05	1162.35	8.04
298.15	0.01	1138.17	8.04
298.15	0.02	1139.41	8.04
298.15	0.03	1140.63	8.04
298.15	0.04	1141.83	8.04
298.15	0.05	1142.66	8.12
303.15	0.01	1127.29	8.04
303.15	0.02	1128.66	8.04
303.15	0.03	1129.71	8.04
303.15	0.04	1130.93	8.04
303.15	0.05	1132.03	8.07
308.15	0.01	1106.41	8.04
308.15	0.02	1107.65	8.04
308.15	0.03	1108.81	8.04
308.15	0.04	1109.76	8.04
308.15	0.05	1110.81	8.05
313.15	0.01	1086.44	8.04
313.15	0.02	1087.66	8.04
313.15	0.03	1088.71	8.04
313.15	0.04	1089.73	8.04
313.15	0.05	1090.72	8.04

System: propan-2-ol + 2-methyl-5-nitro-1H-imidazole-1-ethanol; phases: Liquid
Fixed: Pressure, kPa = 101
Property: Mass density, kg/m3 (Liquid); method: Vibrating tube method
Temperature, K	Molality, mol/kg of 2-methyl-5-nitro-1H-imidazole-1-ethanol	Mass density, kg/m3	uncertainty
293.15	0	785.81	2.031
298.15	0	781.336	2.028
303.15	0	777.061	2.046
308.15	0	772.019	2.006
313.15	0	769.701	2.032
293.15	0.01	786.911	2.032
293.15	0.02	788.027	2.032
293.15	0.03	789.147	2.032
293.15	0.04	790.271	2.033
293.15	0.05	791.419	2.034
298.15	0.01	782.438	2.032
298.15	0.02	783.549	2.032
298.15	0.03	784.671	2.033
298.15	0.04	785.811	2.033
298.15	0.05	786.944	2.037
303.15	0.01	778.164	2.032
303.15	0.02	779.278	2.032
303.15	0.03	780.399	2.033
303.15	0.04	781.545	2.033
303.15	0.05	782.671	2.021
308.15	0.01	773.122	2.032
308.15	0.02	774.239	2.033
308.15	0.03	775.362	2.033
308.15	0.04	776.494	2.033
308.15	0.05	777.624	2.098
313.15	0.01	770.811	2.033
313.15	0.02	771.943	2.033
313.15	0.03	773.077	2.033
313.15	0.04	774.215	2.034
313.15	0.05	775.377	2.035

System: propan-2-ol + 2-methyl-5-nitro-1H-imidazole-1-ethanol; phases: Liquid
Fixed: Pressure, kPa = 101
Fixed: Frequency, MHz = 3
Property: Speed of sound, m/s (Liquid); method: Sing-around technique in a fixed-path interferometer
Temperature, K	Molality, mol/kg of 2-methyl-5-nitro-1H-imidazole-1-ethanol	Speed of sound, m/s	uncertainty
293.15	0	1156.65	8.06
298.15	0	1136.74	8.04
303.15	0	1125.89	8.19
308.15	0	1105.01	8.05
313.15	0	1085.11	8.05
293.15	0.01	1158.77	8.06
293.15	0.02	1160.64	8.05
293.15	0.03	1162.43	8.05
293.15	0.04	1164.08	8.05
293.15	0.05	1165.31	8.04
298.15	0.01	1138.74	8.05
298.15	0.02	1140.56	8.05
298.15	0.03	1142.28	8.05
298.15	0.04	1143.74	8.04
298.15	0.05	1144.85	8.13
303.15	0.01	1127.86	8.05
303.15	0.02	1129.62	8.05
303.15	0.03	1131.22	8.05
303.15	0.04	1132.66	8.04
303.15	0.05	1133.79	8.06
308.15	0.01	1107.01	8.05
308.15	0.02	1108.53	8.05
308.15	0.03	1110.02	8.04
308.15	0.04	1111.33	8.04
308.15	0.05	1112.65	8.05
313.15	0.01	1087.01	8.05
313.15	0.02	1088.44	8.04
313.15	0.03	1089.83	8.04
313.15	0.04	1091.01	8.04
313.15	0.05	1092.38	8.04

System: butan-1-ol + 1,2-dimethyl-5-nitroimidazole; phases: Liquid
Fixed: Pressure, kPa = 101
Property: Mass density, kg/m3 (Liquid); method: Vibrating tube method
Temperature, K	Molality, mol/kg of 1,2-dimethyl-5-nitroimidazole	Mass density, kg/m3	uncertainty
293.15	0	809.493	2.01
298.15	0	805.648	2.005
303.15	0	803.676	2.023
308.15	0	800.496	2.06
313.15	0	794.112	2.011
293.15	0.01	809.983	2.01
293.15	0.02	810.491	2.011
293.15	0.03	811.003	2.011
293.15	0.04	811.516	2.011
293.15	0.05	812.079	2.012
298.15	0.01	806.148	2.011
298.15	0.02	806.651	2.011
298.15	0.03	807.169	2.011
298.15	0.04	807.699	2.011
298.15	0.05	808.245	2.036
303.15	0.01	804.182	2.011
303.15	0.02	804.701	2.011
303.15	0.03	805.24	2.01
303.15	0.04	805.775	2.011
303.15	0.05	806.302	2.005
308.15	0.01	801.009	2.011
308.15	0.02	801.538	2.011
308.15	0.03	802.077	2.012
308.15	0.04	802.629	2.012
308.15	0.05	803.199	2.011
313.15	0.01	794.629	2.011
313.15	0.02	795.169	2.012
313.15	0.03	795.718	2.012
313.15	0.04	796.289	2.012
313.15	0.05	796.841	2.012

System: butan-1-ol + 1,2-dimethyl-5-nitroimidazole; phases: Liquid
Fixed: Pressure, kPa = 101
Fixed: Frequency, MHz = 3
Property: Speed of sound, m/s (Liquid); method: Sing-around technique in a fixed-path interferometer
Temperature, K	Molality, mol/kg of 1,2-dimethyl-5-nitroimidazole	Speed of sound, m/s	uncertainty
293.15	0	1258.43	8.14
298.15	0	1239.82	8.1
303.15	0	1222.97	8.17
308.15	0	1203.15	8.05
313.15	0	1191.42	8.11
293.15	0.01	1262.48	8.12
293.15	0.02	1265.76	8.1
293.15	0.03	1268.91	8.09
293.15	0.04	1271.71	8.09
293.15	0.05	1274.81	8.1
298.15	0.01	1243.67	8.11
298.15	0.02	1246.82	8.1
298.15	0.03	1249.92	8.09
298.15	0.04	1252.47	8.09
298.15	0.05	1255.36	8.12
303.15	0.01	1226.71	8.11
303.15	0.02	1229.79	8.09
303.15	0.03	1232.68	8.09
303.15	0.04	1235.37	8.09
303.15	0.05	1238.18	8.06
308.15	0.01	1206.71	8.1
308.15	0.02	1209.65	8.09
308.15	0.03	1212.31	8.08
308.15	0.04	1215.11	8.08
308.15	0.05	1217.62	8.2
313.15	0.01	1194.82	8.1
313.15	0.02	1197.78	8.08
313.15	0.03	1200.28	8.08
313.15	0.04	1203.11	8.08
313.15	0.05	1205.51	8.07

System: butan-1-ol + 2-methyl-5-nitro-1H-imidazole-1-ethanol; phases: Liquid
Fixed: Pressure, kPa = 101
Property: Mass density, kg/m3 (Liquid); method: Vibrating tube method
Temperature, K	Molality, mol/kg of 2-methyl-5-nitro-1H-imidazole-1-ethanol	Mass density, kg/m3	uncertainty
293.15	0	809.493	2.013
298.15	0	805.648	2.005
303.15	0	803.676	2.027
308.15	0	800.496	2.067
313.15	0	794.112	2.006
293.15	0.01	810.078	2.013
293.15	0.02	810.673	2.013
293.15	0.03	811.28	2.013
293.15	0.04	811.901	2.014
293.15	0.05	812.531	2.014
298.15	0.01	806.241	2.013
298.15	0.02	806.855	2.013
298.15	0.03	807.478	2.014
298.15	0.04	808.101	2.014
298.15	0.05	808.761	2.04
303.15	0.01	804.277	2.013
303.15	0.02	804.899	2.013
303.15	0.03	805.511	2.014
303.15	0.04	806.168	2.014
303.15	0.05	806.799	2.006
308.15	0.01	801.097	2.013
308.15	0.02	801.719	2.014
308.15	0.03	802.369	2.014
308.15	0.04	803.009	2.015
308.15	0.05	803.678	2.009
313.15	0.01	794.31	2.01
313.15	0.02	795.355	2.021
313.15	0.03	795.994	2.014
313.15	0.04	796.644	2.015
313.15	0.05	797.299	2.015

System: butan-1-ol + 2-methyl-5-nitro-1H-imidazole-1-ethanol; phases: Liquid
Fixed: Pressure, kPa = 101
Fixed: Frequency, MHz = 3
Property: Speed of sound, m/s (Liquid); method: Sing-around technique in a fixed-path interferometer
Temperature, K	Molality, mol/kg of 2-methyl-5-nitro-1H-imidazole-1-ethanol	Speed of sound, m/s	uncertainty
293.15	0	1258.43	8.15
298.15	0	1239.82	8.12
303.15	0	1222.97	8.19
308.15	0	1203.15	8.05
313.15	0	1191.42	8.12
293.15	0.01	1262.82	8.14
293.15	0.02	1266.67	8.11
293.15	0.03	1269.91	8.1
293.15	0.04	1272.73	8.1
293.15	0.05	1276.01	8.1
298.15	0.01	1244.01	8.13
298.15	0.02	1247.72	8.11
298.15	0.03	1250.84	8.09
298.15	0.04	1253.52	8.09
298.15	0.05	1256.62	8.12
303.15	0.01	1227.06	8.12
303.15	0.02	1230.61	8.1
303.15	0.03	1233.52	8.09
303.15	0.04	1236.41	8.09
303.15	0.05	1239.31	8.06
308.15	0.01	1207.03	8.12
308.15	0.02	1210.39	8.1
308.15	0.03	1213.54	8.09
308.15	0.04	1215.91	8.08
308.15	0.05	1218.87	8.24
313.15	0.01	1195.11	8.11
313.15	0.02	1198.51	8.1
313.15	0.03	1201.54	8.09
313.15	0.04	1204.43	8.09
313.15	0.05	1207.56	8.1
