Measured thermophysical data. Modulation of molecular interactions of homologous series of amino acids with (sorbitol + glycine betaine) mixture compared to individual osmolytes: Thermodynamic analysis
Source: J. Chem. Thermodyn., 2019, 10.1016/j.jct.2019.05.016
Compound 1: (trimethylammonio)acetate, C5H11NO2, InChI=1S/C5H11NO2/c1-6(2,3)4-5(7)8/h4H2,1-3H3, purity 99%
Compound 2: D-sorbitol, C6H14O6, InChI=1S/C6H14O6/c7-1-3(9)5(11)6(12)4(10)2-8/h3-12H,1-2H2/t3-,4+,5-,6-/m1/s1, purity 99%
Compound 3: water, H2O, InChI=1S/H2O/h1H2

System: (trimethylammonio)acetate + D-sorbitol + water; phases: Liquid
Fixed: Pressure, kPa = 100
Fixed: Temperature, K = 298.15
Property: Mass density, kg/m3 (Liquid); method: Vibrating tube method
Molality, mol/kg of D-sorbitol	Molality, mol/kg of (trimethylammonio)acetate	Mass density, kg/m3	uncertainty
0.53	0.51	1037.92	1.49
0.53	0.51	1037.94	1.49
0.53	0.51	1037.84	1.5
0.53	0.51	1037.715	1.502
0.53	0.51	1037.759	1.501
1.12	1.04	1078.21	3.11
1.12	1.04	1078.37	3.12
1.12	1.04	1078.15	3.1
1.12	1.04	1078.16	3.1
1.12	1.04	1078.22	3.11
1.12	1.04	1078.36	3.12
1.12	1.04	1078.168	3.105
1.12	1.04	1078.293	3.114

System: (trimethylammonio)acetate + D-sorbitol + water; phases: Liquid
Fixed: Pressure, kPa = 100
Fixed: Temperature, K = 298.15
Fixed: Frequency, MHz = 3
Property: Speed of sound, m/s (Liquid); method: Single path-length method
Molality, mol/kg of D-sorbitol	Molality, mol/kg of (trimethylammonio)acetate	Speed of sound, m/s	uncertainty
0.53	0.51	1573.2	4.99
0.53	0.51	1573.23	4.99
0.53	0.51	1573.03	4.99
0.53	0.51	1572.78	5
0.53	0.51	1572.92	4.99
1.12	1.04	1655.62	7.44
1.12	1.04	1656.05	7.47
1.12	1.04	1655.6	7.44
1.12	1.04	1655.53	7.43
1.12	1.04	1655.62	7.44
1.12	1.04	1656.01	7.46
1.12	1.04	1655.62	7.44
1.12	1.04	1655.83	7.45
