Measured thermophysical data. Solubility of 2-isopropylimidazole in nine pure organic solvents and liquid mixture of (methanol + ethyl acetate) from T = (278.15 to 313.15) K: Experimental measurement and thermodynamic modelling
Source: J. Chem. Thermodyn., 2017, 10.1016/j.jct.2016.12.028
Compound 1: 2-isopropylimidazole, C6H10N2, InChI=1S/C6H10N2/c1-5(2)6-7-3-4-8-6/h3-5H,1-2H3,(H,7,8), purity 98.2%
Compound 2: methanol, CH4O, InChI=1S/CH4O/c1-2/h2H,1H3, purity 99.5%
Compound 3: ethanol, C2H6O, InChI=1S/C2H6O/c1-2-3/h3H,2H2,1H3, purity 99.6%
Compound 4: propan-1-ol, C3H8O, InChI=1S/C3H8O/c1-2-3-4/h4H,2-3H2,1H3, purity 99.5%
Compound 5: propan-2-ol, C3H8O, InChI=1S/C3H8O/c1-3(2)4/h3-4H,1-2H3, purity 99.4%
Compound 6: acetone, C3H6O, InChI=1S/C3H6O/c1-3(2)4/h1-2H3, purity 99.2%
Compound 7: butanone, C4H8O, InChI=1S/C4H8O/c1-3-4(2)5/h3H2,1-2H3, purity 99.5%
Compound 8: ethyl acetate, C4H8O2, InChI=1S/C4H8O2/c1-3-6-4(2)5/h3H2,1-2H3, purity 99.5%
Compound 9: acetonitrile, C2H3N, InChI=1S/C2H3N/c1-2-3/h1H3, purity 99.2%
Compound 10: toluene, C7H8, InChI=1S/C7H8/c1-7-5-3-2-4-6-7/h2-6H,1H3, purity 99.4%

System: 2-isopropylimidazole + methanol; phases: Liquid, Crystal
Fixed: Pressure, kPa = 101.2
Property: Mole fraction of 2-isopropylimidazole (Liquid); method: Chromatography
Temperature, K	Mole fraction of 2-isopropylimidazole	uncertainty
278.15	0.2238	0.0108
280.65	0.233	0.0112
283.15	0.2422	0.0116
285.65	0.2524	0.0121
288.15	0.2626	0.0126
290.65	0.2744	0.0132
293.15	0.2854	0.0137
295.65	0.2974	0.0143
298.15	0.3102	0.0149
300.65	0.3222	0.0155
303.15	0.3342	0.0161
305.65	0.348	0.0167
308.15	0.361	0.0173
310.65	0.3756	0.018
313.15	0.3902	0.0187

System: 2-isopropylimidazole + ethanol; phases: Liquid, Crystal
Fixed: Pressure, kPa = 101.2
Property: Mole fraction of 2-isopropylimidazole (Liquid); method: Chromatography
Temperature, K	Mole fraction of 2-isopropylimidazole	uncertainty
278.15	0.1886	0.0091
280.65	0.1958	0.0094
283.15	0.2025	0.0097
285.65	0.2101	0.0101
288.15	0.2164	0.0104
290.65	0.226	0.0109
293.15	0.2346	0.0113
295.65	0.2433	0.0117
298.15	0.2528	0.0121
300.65	0.2625	0.0126
303.15	0.2726	0.0131
305.65	0.282	0.0136
308.15	0.2937	0.0141
310.65	0.304	0.0146
313.15	0.3146	0.0151

System: 2-isopropylimidazole + toluene; phases: Liquid, Crystal
Fixed: Pressure, kPa = 101.2
Property: Mole fraction of 2-isopropylimidazole (Liquid); method: Chromatography
Temperature, K	Mole fraction of 2-isopropylimidazole	uncertainty
278.15	0.02149	0.00103
280.65	0.02251	0.00108
283.15	0.02365	0.00114
285.65	0.02477	0.00119
288.15	0.02598	0.00125
290.65	0.02722	0.00131
293.15	0.02867	0.00138
295.65	0.03018	0.00145
298.15	0.03178	0.00153
300.65	0.03363	0.00162
303.15	0.03552	0.00171
305.65	0.03736	0.0018
308.15	0.03943	0.00189
310.65	0.04158	0.002
313.15	0.04368	0.0021

System: 2-isopropylimidazole + propan-1-ol; phases: Liquid, Crystal
Fixed: Pressure, kPa = 101.2
Property: Mole fraction of 2-isopropylimidazole (Liquid); method: Chromatography
Temperature, K	Mole fraction of 2-isopropylimidazole	uncertainty
278.15	0.09995	0.0048
280.65	0.1036	0.005
283.15	0.1091	0.0052
285.65	0.1135	0.0055
288.15	0.1172	0.0056
290.65	0.1212	0.0058
293.15	0.1264	0.0061
295.65	0.1329	0.0064
298.15	0.1389	0.0067
300.65	0.1459	0.007
303.15	0.1531	0.0074
305.65	0.1594	0.0077
308.15	0.1663	0.008
310.65	0.1733	0.0083
313.15	0.1803	0.0087

System: 2-isopropylimidazole + propan-2-ol; phases: Liquid, Crystal
Fixed: Pressure, kPa = 101.2
Property: Mole fraction of 2-isopropylimidazole (Liquid); method: Chromatography
Temperature, K	Mole fraction of 2-isopropylimidazole	uncertainty
278.15	0.07384	0.00355
280.65	0.07682	0.00369
283.15	0.08009	0.00385
285.65	0.08255	0.00397
288.15	0.08558	0.00411
290.65	0.08828	0.00424
293.15	0.09269	0.00445
295.65	0.09648	0.00464
298.15	0.1005	0.0048
300.65	0.1053	0.0051
303.15	0.11	0.0053
305.65	0.1153	0.0055
308.15	0.1211	0.0058
310.65	0.1262	0.0061
313.15	0.1316	0.0063

System: 2-isopropylimidazole + acetone; phases: Liquid, Crystal
Fixed: Pressure, kPa = 101.2
Property: Mole fraction of 2-isopropylimidazole (Liquid); method: Chromatography
Temperature, K	Mole fraction of 2-isopropylimidazole	uncertainty
278.15	0.09058	0.00435
280.65	0.09464	0.00455
283.15	0.09877	0.00475
285.65	0.1035	0.005
288.15	0.1076	0.0052
290.65	0.111	0.0053
293.15	0.1155	0.0056
295.65	0.1209	0.0058
298.15	0.1267	0.0061
300.65	0.1328	0.0064
303.15	0.1396	0.0067
305.65	0.146	0.007
308.15	0.1526	0.0073
310.65	0.1588	0.0076
313.15	0.1662	0.008

System: 2-isopropylimidazole + butanone; phases: Liquid, Crystal
Fixed: Pressure, kPa = 101.2
Property: Mole fraction of 2-isopropylimidazole (Liquid); method: Chromatography
Temperature, K	Mole fraction of 2-isopropylimidazole	uncertainty
278.15	0.1098	0.0053
280.65	0.1157	0.0056
283.15	0.1206	0.0058
285.65	0.1266	0.0061
288.15	0.1326	0.0064
290.65	0.1387	0.0067
293.15	0.1449	0.007
295.65	0.1516	0.0073
298.15	0.1592	0.0077
300.65	0.167	0.008
303.15	0.1767	0.0085
305.65	0.1852	0.0089
308.15	0.1942	0.0093
310.65	0.2027	0.0097
313.15	0.2127	0.0102

System: 2-isopropylimidazole + acetonitrile; phases: Liquid, Crystal
Fixed: Pressure, kPa = 101.2
Property: Mole fraction of 2-isopropylimidazole (Liquid); method: Chromatography
Temperature, K	Mole fraction of 2-isopropylimidazole	uncertainty
278.15	0.02592	0.00125
280.65	0.02747	0.00132
283.15	0.02914	0.0014
285.65	0.03077	0.00148
288.15	0.03247	0.00156
290.65	0.03435	0.00165
293.15	0.0361	0.00173
295.65	0.03794	0.00182
298.15	0.04009	0.00193
300.65	0.04268	0.00205
303.15	0.04534	0.00218
305.65	0.04811	0.00231
308.15	0.05088	0.00245
310.65	0.05379	0.00258
313.15	0.05678	0.00273

System: 2-isopropylimidazole + ethyl acetate; phases: Liquid, Crystal
Fixed: Pressure, kPa = 101.2
Property: Mole fraction of 2-isopropylimidazole (Liquid); method: Chromatography
Temperature, K	Mole fraction of 2-isopropylimidazole	uncertainty
278.15	0.05191	0.00249
280.65	0.05565	0.00267
283.15	0.05879	0.00283
285.65	0.06256	0.00301
288.15	0.06602	0.00317
290.65	0.06968	0.00335
293.15	0.0737	0.00354
295.65	0.0778	0.00374
298.15	0.08263	0.00397
300.65	0.08829	0.00424
303.15	0.09391	0.00451
305.65	0.09941	0.00478
308.15	0.1051	0.0051
310.65	0.1116	0.0054
313.15	0.1179	0.0057

System: 2-isopropylimidazole + methanol + ethyl acetate; phases: Liquid, Crystal
Fixed: Pressure, kPa = 101.2
Property: Mole fraction of 2-isopropylimidazole (Liquid); method: Chromatography
Solvent: Mass fraction of methanol	Temperature, K	Mole fraction of 2-isopropylimidazole	uncertainty
0	278.15	0.05191	0.00249
0	280.65	0.05565	0.00267
0	283.15	0.05879	0.00283
0	285.65	0.06256	0.00301
0	288.15	0.06602	0.00317
0	290.65	0.06968	0.00335
0	293.15	0.0737	0.00354
0	295.65	0.0778	0.00374
0	298.15	0.08263	0.00397
0	300.65	0.08829	0.00424
0	303.15	0.09391	0.00451
0	305.65	0.09941	0.00478
0	308.15	0.1051	0.0051
0	310.65	0.1116	0.0054
0	313.15	0.1179	0.0057
0.1006	278.15	0.06743	0.00337
0.1006	280.65	0.07133	0.00355
0.1006	283.15	0.07572	0.00377
0.1006	285.65	0.08002	0.00398
0.1006	288.15	0.08442	0.0042
0.1006	290.65	0.08868	0.00441
0.1006	293.15	0.09335	0.00464
0.1006	295.65	0.09856	0.00489
0.1006	298.15	0.1041	0.0052
0.1006	300.65	0.1101	0.0055
0.1006	303.15	0.1169	0.0058
0.1006	305.65	0.1241	0.0061
0.1006	308.15	0.1311	0.0065
0.1006	310.65	0.1389	0.0069
0.1006	313.15	0.1459	0.0072
0.2009	278.15	0.08303	0.00442
0.2009	280.65	0.08689	0.00462
0.2009	283.15	0.09121	0.00484
0.2009	285.65	0.09648	0.00511
0.2009	288.15	0.1021	0.0054
0.2009	290.65	0.1078	0.0057
0.2009	293.15	0.1135	0.006
0.2009	295.65	0.1187	0.0062
0.2009	298.15	0.1255	0.0066
0.2009	300.65	0.1328	0.0069
0.2009	303.15	0.1403	0.0073
0.2009	305.65	0.1488	0.0077
0.2009	308.15	0.1561	0.0081
0.2009	310.65	0.1647	0.0085
0.2009	313.15	0.1733	0.009
0.3011	278.15	0.09892	0.00558
0.3011	280.65	0.1042	0.0059
0.3011	283.15	0.1099	0.0062
0.3011	285.65	0.1157	0.0065
0.3011	288.15	0.121	0.0068
0.3011	290.65	0.1269	0.007
0.3011	293.15	0.1329	0.0073
0.3011	295.65	0.1402	0.0078
0.3011	298.15	0.1473	0.0081
0.3011	300.65	0.1548	0.0085
0.3011	303.15	0.162	0.0089
0.3011	305.65	0.1712	0.0093
0.3011	308.15	0.1808	0.0098
0.3011	310.65	0.191	0.0103
0.3011	313.15	0.2035	0.011
0.4006	278.15	0.1154	0.0069
0.4006	280.65	0.1216	0.0072
0.4006	283.15	0.1275	0.0075
0.4006	285.65	0.1342	0.0077
0.4006	288.15	0.1401	0.0081
0.4006	290.65	0.1466	0.0084
0.4006	293.15	0.1537	0.0088
0.4006	295.65	0.1613	0.0091
0.4006	298.15	0.1696	0.0096
0.4006	300.65	0.1782	0.0101
0.4006	303.15	0.1877	0.0107
0.4006	305.65	0.1971	0.0112
0.4006	308.15	0.207	0.0116
0.4006	310.65	0.2173	0.0121
0.4006	313.15	0.2278	0.0125
0.5019	278.15	0.1326	0.0081
0.5019	280.65	0.1388	0.0084
0.5019	283.15	0.1454	0.0088
0.5019	285.65	0.1513	0.0091
0.5019	288.15	0.1583	0.0095
0.5019	290.65	0.1649	0.0099
0.5019	293.15	0.1727	0.0103
0.5019	295.65	0.1801	0.0107
0.5019	298.15	0.1893	0.0111
0.5019	300.65	0.1997	0.0116
0.5019	303.15	0.2107	0.0122
0.5019	305.65	0.2215	0.0128
0.5019	308.15	0.2312	0.0133
0.5019	310.65	0.2416	0.0138
0.5019	313.15	0.2536	0.0144
0.6008	278.15	0.1492	0.0082
0.6008	280.65	0.1559	0.0085
0.6008	283.15	0.1631	0.0089
0.6008	285.65	0.1706	0.0094
0.6008	288.15	0.1783	0.0098
0.6008	290.65	0.1861	0.0102
0.6008	293.15	0.1945	0.0106
0.6008	295.65	0.2033	0.0111
0.6008	298.15	0.2127	0.0116
0.6008	300.65	0.222	0.012
0.6008	303.15	0.2331	0.0124
0.6008	305.65	0.2446	0.013
0.6008	308.15	0.2562	0.0136
0.6008	310.65	0.2675	0.0142
0.6008	313.15	0.2792	0.0146
0.7003	278.15	0.1664	0.0086
0.7003	280.65	0.1729	0.0089
0.7003	283.15	0.1807	0.0093
0.7003	285.65	0.1888	0.0097
0.7003	288.15	0.1971	0.0101
0.7003	290.65	0.2063	0.0106
0.7003	293.15	0.2148	0.011
0.7003	295.65	0.2243	0.0115
0.7003	298.15	0.2351	0.012
0.7003	300.65	0.2456	0.0125
0.7003	303.15	0.2556	0.013
0.7003	305.65	0.2673	0.0135
0.7003	308.15	0.2797	0.0141
0.7003	310.65	0.291	0.0146
0.7003	313.15	0.3023	0.0152
0.8007	278.15	0.1831	0.0091
0.8007	280.65	0.1908	0.0094
0.8007	283.15	0.1993	0.0099
0.8007	285.65	0.2079	0.0103
0.8007	288.15	0.2168	0.0107
0.8007	290.65	0.2266	0.0112
0.8007	293.15	0.237	0.0117
0.8007	295.65	0.2473	0.0122
0.8007	298.15	0.2575	0.0127
0.8007	300.65	0.2687	0.0132
0.8007	303.15	0.2792	0.0137
0.8007	305.65	0.291	0.0143
0.8007	308.15	0.303	0.0149
0.8007	310.65	0.315	0.0155
0.8007	313.15	0.3276	0.0161
0.9021	278.15	0.2025	0.0098
0.9021	280.65	0.2114	0.0102
0.9021	283.15	0.2198	0.0106
0.9021	285.65	0.2282	0.011
0.9021	288.15	0.2378	0.0115
0.9021	290.65	0.2476	0.012
0.9021	293.15	0.2581	0.0125
0.9021	295.65	0.2698	0.013
0.9021	298.15	0.2822	0.0136
0.9021	300.65	0.2934	0.0142
0.9021	303.15	0.3058	0.0148
0.9021	305.65	0.3183	0.0154
0.9021	308.15	0.331	0.016
0.9021	310.65	0.3444	0.0166
0.9021	313.15	0.3591	0.0174
1	278.15	0.2238	0.0108
1	280.65	0.233	0.0112
1	283.15	0.2422	0.0116
1	285.65	0.2524	0.0121
1	288.15	0.2626	0.0126
1	290.65	0.2744	0.0132
1	293.15	0.2854	0.0137
1	295.65	0.2974	0.0143
1	298.15	0.3102	0.0149
1	300.65	0.3222	0.0155
1	303.15	0.3342	0.0161
1	305.65	0.348	0.0167
1	308.15	0.361	0.0173
1	310.65	0.3756	0.018
1	313.15	0.3902	0.0187
