Measured thermophysical data. Densities and volumetric properties of N-methyl-2-pyrrolidone with aromatic hydrocarbon at different temperature
Source: J. Chem. Thermodyn., 2007, 10.1016/j.jct.2006.05.006
Compound 1: N-methylpyrrolidone, C5H9NO, InChI=1S/C5H9NO/c1-6-4-2-3-5(6)7/h2-4H2,1H3, purity 99.7%
Compound 2: benzene, C6H6, InChI=1S/C6H6/c1-2-4-6-5-3-1/h1-6H, purity 99.7%
Compound 3: toluene, C7H8, InChI=1S/C7H8/c1-7-5-3-2-4-6-7/h2-6H,1H3, purity 98%
Compound 4: ethylbenzene, C8H10, InChI=1S/C8H10/c1-2-8-6-4-3-5-7-8/h3-7H,2H2,1H3, purity 99%

System: N-methylpyrrolidone; phases: Liquid
Property: Refractive index (Na D-line) (Liquid); method: Standard Abbe refractometry
Temperature, K	Pressure, kPa	Refractive index (Na D-line)	uncertainty
293.1	101.325	1.4677	0.0007

System: N-methylpyrrolidone; phases: Liquid
Fixed: Pressure, kPa = 101
Property: Mass density, kg/m3 (Liquid); method: VIBTUB:UFactor:8
Temperature, K	Mass density, kg/m3	uncertainty
293.15	1032.66	0.37
303.15	1023.42	0.34
313.15	1014.27	0.31
323.15	1005.62	0.28
333.15	996.28	0.28
343.15	987.39	0.31
353.15	978.62	0.65

System: benzene; phases: Liquid
Property: Refractive index (Na D-line) (Liquid); method: Standard Abbe refractometry
Temperature, K	Pressure, kPa	Refractive index (Na D-line)	uncertainty
293.1	101.325	1.5009	0.0007

System: benzene; phases: Liquid
Fixed: Pressure, kPa = 101
Property: Mass density, kg/m3 (Liquid); method: VIBTUB:UFactor:8
Temperature, K	Mass density, kg/m3	uncertainty
293.15	878.96	0.64
303.15	868.21	0.67
313.15	857.4	0.71
323.15	846.55	0.74
333.15	835.66	0.78
343.15	824.71	0.81

System: toluene; phases: Liquid
Property: Refractive index (Na D-line) (Liquid); method: Standard Abbe refractometry
Temperature, K	Pressure, kPa	Refractive index (Na D-line)	uncertainty
293.1	101.325	1.4965	0.0008

System: toluene; phases: Liquid
Fixed: Pressure, kPa = 101
Property: Mass density, kg/m3 (Liquid); method: VIBTUB:UFactor:16
Temperature, K	Mass density, kg/m3	uncertainty
293.15	866.8	1.94
303.15	857.53	1.98
313.15	848.23	2.03
323.15	838.91	2.07
333.15	829.55	2.12
343.15	820.17	2.17
353.15	810.77	2.21

System: ethylbenzene; phases: Liquid
Property: Refractive index (Na D-line) (Liquid); method: Standard Abbe refractometry
Temperature, K	Pressure, kPa	Refractive index (Na D-line)	uncertainty
293.1	101.325	1.4962	0.0008

System: ethylbenzene; phases: Liquid
Fixed: Pressure, kPa = 101
Property: Mass density, kg/m3 (Liquid); method: VIBTUB:UFactor:8
Temperature, K	Mass density, kg/m3	uncertainty
293.15	867.28	0.81
303.15	858.36	0.84
313.15	849.38	0.86
323.15	840.35	0.89
333.15	831.25	0.91
343.15	822.11	0.94
353.15	812.9	0.97

System: benzene + N-methylpyrrolidone; phases: Liquid
Fixed: Pressure, kPa = 101
Property: Mass density, kg/m3 (Liquid); method: VIBTUB:UFactor:8
Temperature, K	Mole fraction of benzene	Mass density, kg/m3	uncertainty
293.15	0	1032.66	0.37
293.15	0.0434	1027.48	0.35
293.15	0.1023	1020.3	0.33
293.15	0.1625	1012.78	0.31
293.15	0.2237	1004.93	0.28
293.15	0.2834	997.06	0.28
293.15	0.3457	988.6	0.3
293.15	0.4015	980.8	0.33
293.15	0.4865	968.47	0.36
293.15	0.5421	960.08	0.39
293.15	0.6154	948.61	0.43
293.15	0.6854	937.17	0.46
293.15	0.7549	925.31	0.5
293.15	0.8254	912.73	0.54
293.15	0.9002	898.74	0.58
293.15	0.9772	883.6	0.63
293.15	1	878.96	0.64
303.15	0	1023.42	0.34
303.15	0.0444	1018.04	0.32
303.15	0.1165	1009.11	0.3
303.15	0.1854	1000.32	0.27
303.15	0.2539	991.32	0.29
303.15	0.3296	981.02	0.33
303.15	0.3965	971.6	0.35
303.15	0.4653	961.58	0.39
303.15	0.5362	950.85	0.42
303.15	0.6033	940.29	0.45
303.15	0.6798	927.73	0.49
303.15	0.7451	916.54	0.52
303.15	0.8125	904.52	0.56
303.15	0.8847	891.05	0.6
303.15	0.9245	883.36	0.63
303.15	0.9799	872.31	0.66
303.15	1	868.21	0.67
313.15	0	1014.27	0.31
313.15	0.0454	1008.7	0.29
313.15	0.1054	1001.17	0.27
313.15	0.1765	992	0.29
313.15	0.2365	984.05	0.32
313.15	0.2965	975.88	0.34
313.15	0.3654	966.2	0.37
313.15	0.4368	955.82	0.4
313.15	0.5012	946.12	0.43
313.15	0.5687	935.58	0.47
313.15	0.6358	924.71	0.5
313.15	0.6954	914.69	0.53
313.15	0.7658	902.39	0.57
313.15	0.8326	890.21	0.61
313.15	0.9036	876.72	0.65
313.15	0.9684	863.87	0.69
313.15	1	857.4	0.71
323.15	0	1005.62	0.28
323.15	0.0521	999.09	0.27
323.15	0.1245	989.78	0.3
323.15	0.1987	979.96	0.33
323.15	0.2541	972.41	0.35
323.15	0.3214	962.98	0.38
323.15	0.3854	953.74	0.41
323.15	0.4215	948.4	0.43
323.15	0.4854	938.69	0.46
323.15	0.5411	929.98	0.48
323.15	0.6124	918.42	0.52
323.15	0.6854	906.11	0.56
323.15	0.7214	899.84	0.58
323.15	0.7984	885.99	0.62
323.15	0.8598	874.48	0.65
323.15	0.9249	861.81	0.69
323.15	1	846.55	0.74
333.15	0	996.28	0.28
333.15	0.0451	990.55	0.3
333.15	0.1025	983.11	0.32
333.15	0.1632	975.06	0.34
333.15	0.2302	965.93	0.37
333.15	0.2987	956.32	0.4
333.15	0.3512	948.74	0.43
333.15	0.4215	938.29	0.46
333.15	0.4865	928.31	0.49
333.15	0.5521	917.9	0.52
333.15	0.6213	906.51	0.56
333.15	0.6895	894.85	0.59
333.15	0.7451	885.02	0.62
333.15	0.8145	872.3	0.66
333.15	0.8865	858.55	0.7
333.15	0.9654	842.8	0.75
333.15	1	835.66	0.78
343.15	0	987.39	0.31
343.15	0.0414	982.03	0.32
343.15	0.1154	972.25	0.35
343.15	0.1874	962.43	0.38
343.15	0.2564	952.76	0.41
343.15	0.3248	942.88	0.44
343.15	0.3965	932.18	0.48
343.15	0.4685	921.08	0.51
343.15	0.5384	909.92	0.55
343.15	0.5968	900.27	0.58
343.15	0.6622	889.13	0.61
343.15	0.7321	876.77	0.65
343.15	0.7954	865.17	0.68
343.15	0.8541	854.04	0.72
343.15	0.9123	842.63	0.75
343.15	0.9799	828.9	0.8
343.15	1	824.71	0.81

System: toluene + N-methylpyrrolidone; phases: Liquid
Fixed: Pressure, kPa = 101
Property: Mass density, kg/m3 (Liquid); method: VIBTUB:UFactor:16
Temperature, K	Mole fraction of toluene	Mass density, kg/m3	uncertainty
293.15	0	1032.66	0.72
293.15	0.0541	1024.34	0.68
293.15	0.1254	1013.29	0.63
293.15	0.1845	1004.06	0.6
293.15	0.2412	995.15	0.62
293.15	0.3154	983.34	0.73
293.15	0.3845	972.23	0.84
293.15	0.4521	961.22	0.95
293.15	0.5214	949.8	1.06
293.15	0.5865	938.94	1.17
293.15	0.6458	928.94	1.28
293.15	0.7124	917.57	1.4
293.15	0.7784	906.16	1.52
293.15	0.8425	894.94	1.64
293.15	0.9014	884.51	1.75
293.15	0.9784	870.71	1.89
293.15	1	866.8	1.94
303.15	0	1023.42	0.66
303.15	0.0482	1016	0.63
303.15	0.1235	1004.32	0.57
303.15	0.1856	994.6	0.6
303.15	0.2436	985.45	0.68
303.15	0.3145	974.17	0.79
303.15	0.3854	962.74	0.9
303.15	0.4521	951.88	1
303.15	0.5236	940.09	1.12
303.15	0.5852	929.81	1.22
303.15	0.6451	919.71	1.33
303.15	0.7145	907.86	1.45
303.15	0.7854	895.61	1.58
303.15	0.8541	883.57	1.71
303.15	0.9015	875.19	1.79
303.15	0.9789	861.34	1.94
303.15	1	857.53	1.98
313.15	0	1014.27	0.6
313.15	0.0522	1006.21	0.57
313.15	0.1257	994.77	0.58
313.15	0.1901	984.67	0.67
313.15	0.2401	976.76	0.74
313.15	0.321	963.85	0.85
313.15	0.3952	951.86	0.97
313.15	0.4654	940.38	1.08
313.15	0.5321	929.35	1.19
313.15	0.5984	918.25	1.3
313.15	0.6541	908.84	1.39
313.15	0.7248	896.74	1.52
313.15	0.7895	885.54	1.64
313.15	0.8412	876.51	1.73
313.15	0.9215	862.31	1.88
313.15	0.9759	852.57	1.98
313.15	1	848.23	2.03
323.15	0	1005.62	0.55
323.15	0.0487	998.04	0.54
323.15	0.1147	987.71	0.62
323.15	0.1789	977.59	0.7
323.15	0.2365	968.43	0.78
323.15	0.2987	958.46	0.87
323.15	0.3695	947	0.98
323.15	0.4351	936.27	1.08
323.15	0.4954	926.31	1.18
323.15	0.5654	914.62	1.29
323.15	0.6215	905.15	1.39
323.15	0.6945	892.69	1.52
323.15	0.7658	880.39	1.64
323.15	0.8321	868.8	1.76
323.15	0.9201	853.23	1.92
323.15	0.9758	843.26	2.03
323.15	1	838.91	2.07
333.15	0	996.28	0.54
333.15	0.0478	988.83	0.59
333.15	0.1102	979.04	0.67
333.15	0.1874	966.85	0.77
333.15	0.2451	957.65	0.85
333.15	0.3147	946.45	0.95
333.15	0.3984	932.84	1.08
333.15	0.4682	921.37	1.19
333.15	0.5321	910.74	1.29
333.15	0.5984	899.6	1.4
333.15	0.6541	890.15	1.5
333.15	0.7241	878.16	1.62
333.15	0.7985	865.26	1.75
333.15	0.8541	855.52	1.85
333.15	0.921	843.69	1.97
333.15	0.98	833.15	2.08
333.15	1	829.55	2.12
343.15	0	987.39	0.59
343.15	0.0512	979.36	0.65
343.15	0.1245	967.81	0.75
343.15	0.1895	957.47	0.83
343.15	0.246	948.41	0.91
343.15	0.3124	937.69	1.01
343.15	0.3841	926	1.11
343.15	0.4514	914.91	1.22
343.15	0.5214	903.26	1.33
343.15	0.5954	890.81	1.45
343.15	0.6598	879.85	1.56
343.15	0.7214	869.28	1.67
343.15	0.7954	856.43	1.8
343.15	0.8596	845.17	1.91
343.15	0.9214	834.23	2.02
343.15	0.9788	823.98	2.13
343.15	1	820.17	2.17
353.15	0	978.62	0.65
353.15	0.0821	965.64	0.75
353.15	0.1337	957.42	0.82
353.15	0.1993	946.92	0.9
353.15	0.2646	936.37	0.99
353.15	0.3306	925.62	1.09
353.15	0.3965	914.8	1.19
353.15	0.4514	905.7	1.27
353.15	0.5214	894	1.39
353.15	0.5984	880.99	1.51
353.15	0.6514	871.96	1.6
353.15	0.7214	859.91	1.72
353.15	0.7984	846.52	1.85
353.15	0.858	836.05	1.96
353.15	0.9265	823.91	2.08
353.15	0.9799	814.38	2.18
353.15	1	810.77	2.21

System: ethylbenzene + N-methylpyrrolidone; phases: Liquid
Fixed: Pressure, kPa = 101
Property: Mass density, kg/m3 (Liquid); method: VIBTUB:UFactor:8
Temperature, K	Mole fraction of ethylbenzene	Mass density, kg/m3	uncertainty
293.15	0	1032.66	0.37
293.15	0.0854	1016.73	0.33
293.15	0.1254	1009.4	0.31
293.15	0.1847	998.68	0.29
293.15	0.2475	987.56	0.33
293.15	0.3021	978.07	0.37
293.15	0.3654	967.23	0.41
293.15	0.4251	957.16	0.45
293.15	0.4985	944.94	0.49
293.15	0.5471	936.92	0.53
293.15	0.6012	928.06	0.56
293.15	0.6621	918.17	0.6
293.15	0.7214	908.66	0.64
293.15	0.7954	897.01	0.69
293.15	0.8451	889.37	0.72
293.15	0.9214	878.1	0.77
293.15	1	867.28	0.81
303.15	0	1023.42	0.34
303.15	0.0458	1014.88	0.32
303.15	0.1012	1004.66	0.29
303.15	0.1685	992.46	0.31
303.15	0.2314	981.29	0.35
303.15	0.2958	970.09	0.39
303.15	0.3541	960.11	0.43
303.15	0.4217	948.71	0.47
303.15	0.4851	938.16	0.51
303.15	0.5471	927.94	0.55
303.15	0.6012	919.09	0.59
303.15	0.6874	905.16	0.64
303.15	0.7451	895.97	0.68
303.15	0.8124	885.46	0.72
303.15	0.8954	872.96	0.77
303.15	0.9654	863.01	0.82
303.15	1	858.36	0.84
313.15	0	1014.27	0.31
313.15	0.0547	1004.11	0.28
313.15	0.1245	991.32	0.3
313.15	0.1874	980.01	0.35
313.15	0.2451	969.83	0.38
313.15	0.3012	960.1	0.42
313.15	0.3621	949.71	0.46
313.15	0.4321	937.95	0.51
313.15	0.4985	926.93	0.55
313.15	0.5621	916.47	0.59
313.15	0.6251	906.2	0.63
313.15	0.6958	894.8	0.68
313.15	0.7589	884.77	0.72
313.15	0.8245	874.57	0.76
313.15	0.9014	863.06	0.8
313.15	0.9789	852.18	0.85
313.15	1	849.38	0.86
323.15	0	1005.62	0.28
323.15	0.0654	993.44	0.29
323.15	0.1123	984.81	0.32
323.15	0.1785	972.82	0.37
323.15	0.2356	962.68	0.4
323.15	0.2959	952.18	0.44
323.15	0.3575	941.62	0.48
323.15	0.4154	931.85	0.52
323.15	0.4825	920.66	0.56
323.15	0.5415	910.92	0.6
323.15	0.606	900.36	0.64
323.15	0.6784	888.62	0.69
323.15	0.7451	877.94	0.73
323.15	0.8214	866	0.78
323.15	0.8954	854.87	0.83
323.15	0.9548	846.41	0.86
323.15	1	840.35	0.89
333.15	0	996.28	0.28
333.15	0.0687	983.52	0.32
333.15	0.1254	973.12	0.36
333.15	0.1874	961.93	0.4
333.15	0.2454	951.67	0.44
333.15	0.3021	941.83	0.48
333.15	0.3654	931.02	0.52
333.15	0.4251	920.99	0.56
333.15	0.4784	912.12	0.59
333.15	0.5241	904.57	0.62
333.15	0.5864	894.36	0.66
333.15	0.6478	884.37	0.7
333.15	0.7012	875.76	0.73
333.15	0.7898	861.71	0.79
333.15	0.8457	853.12	0.82
333.15	0.9254	841.39	0.87
333.15	1	831.25	0.91
343.15	0	987.39	0.31
343.15	0.0784	972.86	0.36
343.15	0.1354	962.43	0.4
343.15	0.1985	951.09	0.44
343.15	0.2415	943.48	0.46
343.15	0.3021	932.94	0.5
343.15	0.3654	922.12	0.54
343.15	0.4251	912.06	0.58
343.15	0.4984	899.86	0.63
343.15	0.5641	889.03	0.67
343.15	0.6214	879.66	0.71
343.15	0.6985	867.19	0.76
343.15	0.7515	858.72	0.79
343.15	0.8125	849.17	0.83
343.15	0.8895	837.51	0.88
343.15	0.9784	824.96	0.93
343.15	1	822.11	0.94
353.15	0	978.62	0.33
353.15	0.0874	962.38	0.39
353.15	0.1421	952.35	0.43
353.15	0.2032	941.34	0.47
353.15	0.2874	926.52	0.52
353.15	0.3451	916.58	0.56
353.15	0.4021	906.9	0.6
353.15	0.487	892.69	0.65
353.15	0.5474	882.68	0.69
353.15	0.612	872.06	0.73
353.15	0.6874	859.79	0.78
353.15	0.7458	850.42	0.81
353.15	0.8211	838.6	0.86
353.15	0.8954	827.4	0.91
353.15	0.9445	820.37	0.93
353.15	0.98	815.52	0.95
353.15	1	812.9	0.97
