Measured thermophysical data. Experimental density measurements of bis(2-ethylhexyl) phthalate at elevated temperatures and pressures
Source: J. Chem. Thermodyn., 2013, 10.1016/j.jct.2013.04.010
Compound 1: bis(2-ethylhexyl) 1,2-benzenedicarboxylate, C24H38O4, InChI=1S/C24H38O4/c1-5-9-13-19(7-3)17-27-23(25)21-15-11-12-16-22(21)24(26)28-18-20(8-4)14-10-6-2/h11-12,15-16,19-20H,5-10,13-14,17-18H2,1-4H3, purity 99%

System: bis(2-ethylhexyl) 1,2-benzenedicarboxylate; phases: Liquid
Property: Mass density, kg/m3 (Liquid); method: Other PVT measurement
Temperature, K	Pressure, kPa	Mass density, kg/m3	uncertainty
373.29	3800	921	6
373.29	7600	924	7
373.29	12200	928	7
373.29	15900	931	7
373.29	18100	933	7
373.29	22300	936	7
373.29	28300	940	7
373.29	34800	945	7
373.29	42200	950	7
373.29	48900	954	7
373.29	56100	959	7
373.29	69500	967	7
373.29	83700	974	7
373.29	104200	984	7
373.29	125400	994	7
373.29	138900	1001	7
373.29	152900	1007	7
373.29	174400	1015	7
373.29	208300	1029	7
373.29	240000	1041	7
373.29	262100	1046	7
423.53	4200	878	6
423.53	7900	885	6
423.53	11100	890	6
423.53	14500	895	6
423.53	18000	898	6
423.53	21200	901	6
423.53	27800	908	6
423.53	35200	914	6
423.53	42100	918	6
423.53	49200	924	7
423.53	55700	930	7
423.53	70700	939	7
423.53	83700	948	7
423.53	104200	960	7
423.53	125400	970	7
423.53	139900	977	7
423.53	153700	983	7
423.53	173400	992	7
423.53	207100	1006	7
423.53	239400	1018	7
423.53	263800	1028	7
476.2	5500	847	6
476.2	9500	853	6
476.2	9400	853	6
476.2	15700	861	6
476.2	15200	861	6
476.2	15200	861	6
476.2	27500	874	6
476.2	27300	874	6
476.2	26800	874	6
476.2	46900	894	6
476.2	46700	894	6
476.2	59800	905	6
476.2	71500	913	7
476.2	70700	914	7
476.2	96400	931	7
476.2	95700	931	7
476.2	114800	942	7
476.2	114200	942	7
476.2	140400	958	7
476.2	139800	959	7
476.2	176200	975	7
476.2	206900	990	7
476.2	240200	1002	7
476.2	269000	1013	7
491.86	3900	830	6
491.86	4100	830	6
491.86	3900	831	6
491.86	10500	839	6
491.86	9900	840	6
491.86	23300	856	6
491.86	23300	856	6
491.86	22800	856	6
491.86	37500	870	6
491.86	37200	870	6
491.86	51100	885	6
491.86	50700	886	6
491.86	71500	902	6
491.86	71900	902	6
491.86	95000	918	6
491.86	94800	918	6
491.86	121700	934	7
491.86	121800	934	7
491.86	145400	948	7
491.86	145600	948	7
491.86	177200	964	7
491.86	177400	964	7
491.86	204300	977	7
491.86	206000	978	7
491.86	230800	988	7
491.86	229400	989	7
491.86	253700	998	7
491.86	258100	1000	7
523.6	5700	811	6
523.6	9200	817	6
523.6	9200	817	6
523.6	16100	827	6
523.6	16100	827	6
523.6	21600	835	6
523.6	21600	835	6
523.6	27500	842	6
523.6	27300	842	6
523.6	35700	851	6
523.6	35500	851	6
523.6	44400	860	6
523.6	44600	860	6
523.6	44300	860	6
523.6	44200	860	6
523.6	56300	871	6
523.6	55800	871	6
523.6	68900	882	6
523.6	68500	882	6
523.6	82500	892	7
523.6	82200	893	7
523.6	97300	903	6
523.6	97000	903	6
523.6	117000	916	6
523.6	117700	916	6
523.6	117400	916	6
523.6	155700	939	7
523.6	156100	939	7
523.6	181500	952	7
523.6	181200	952	7
523.6	209500	964	7
523.6	209900	964	7
523.6	233900	974	7
523.6	234000	974	7
523.6	253600	983	7
523.6	253400	983	7
523.6	263500	987	7
