Measured thermophysical data. Densities and interfacial tensions for fatty acid methyl esters (from methyl formate to methyl heptanoate)  +  water demixed mixtures at atmospheric pressure conditions
Source: J. Chem. Thermodyn., 2018, 10.1016/j.jct.2018.02.010
Compound 1: methyl methanoate, C2H4O2, InChI=1S/C2H4O2/c1-4-2-3/h2H,1H3, purity 95.4%
Compound 2: methyl ethanoate, C3H6O2, InChI=1S/C3H6O2/c1-3(4)5-2/h1-2H3, purity 99.6%
Compound 3: methyl propanoate, C4H8O2, InChI=1S/C4H8O2/c1-3-4(5)6-2/h3H2,1-2H3, purity 99.9%
Compound 4: methyl butanoate, C5H10O2, InChI=1S/C5H10O2/c1-3-4-5(6)7-2/h3-4H2,1-2H3, purity 99.9%
Compound 5: methyl pentanoate, C6H12O2, InChI=1S/C6H12O2/c1-3-4-5-6(7)8-2/h3-5H2,1-2H3, purity 99.5%
Compound 6: methyl hexanoate, C7H14O2, InChI=1S/C7H14O2/c1-3-4-5-6-7(8)9-2/h3-6H2,1-2H3, purity 99.9%
Compound 7: methyl heptanoate, C8H16O2, InChI=1S/C8H16O2/c1-3-4-5-6-7-8(9)10-2/h3-7H2,1-2H3, purity 99.2%
Compound 8: water, H2O, InChI=1S/H2O/h1H2, purity 99.8%

System: methyl methanoate; phases: Liquid
Property: Mass density, kg/m3 (Liquid); method: Vibrating tube method
Temperature, K	Pressure, kPa	Mass density, kg/m3	uncertainty
298.15	101.325	960.85	0.3

System: methyl methanoate; phases: Liquid
Property: Refractive index (Na D-line) (Liquid); method: refractometer model RFM 81
Temperature, K	Pressure, kPa	Refractive index (Na D-line)	uncertainty
298.15	101.325	1.34174	0.0008

System: methyl methanoate; phases: Liquid, Air at 1 atmosphere
Property: Surface tension liquid-gas, N/m (Liquid); method: Maximal bubble pressure
Temperature, K	Surface tension liquid-gas, N/m	uncertainty
298.15	0.02496	0.00025

System: methyl ethanoate; phases: Liquid
Property: Mass density, kg/m3 (Liquid); method: Vibrating tube method
Temperature, K	Pressure, kPa	Mass density, kg/m3	uncertainty
298.15	101.325	926.9	0.72

System: methyl ethanoate; phases: Liquid
Property: Refractive index (Na D-line) (Liquid); method: refractometer model RFM 81
Temperature, K	Pressure, kPa	Refractive index (Na D-line)	uncertainty
298.15	101.325	1.36008	0.0008

System: methyl ethanoate; phases: Liquid, Air at 1 atmosphere
Property: Surface tension liquid-gas, N/m (Liquid); method: Maximal bubble pressure
Temperature, K	Surface tension liquid-gas, N/m	uncertainty
298.15	0.02493	0.00025

System: methyl propanoate; phases: Liquid
Property: Mass density, kg/m3 (Liquid); method: Vibrating tube method
Temperature, K	Pressure, kPa	Mass density, kg/m3	uncertainty
298.15	101.325	909.3	0.72

System: methyl propanoate; phases: Liquid
Property: Refractive index (Na D-line) (Liquid); method: refractometer model RFM 81
Temperature, K	Pressure, kPa	Refractive index (Na D-line)	uncertainty
298.15	101.325	1.37572	0.0008

System: methyl propanoate; phases: Liquid, Air at 1 atmosphere
Property: Surface tension liquid-gas, N/m (Liquid); method: Maximal bubble pressure
Temperature, K	Surface tension liquid-gas, N/m	uncertainty
298.15	0.02461	0.00025

System: methyl butanoate; phases: Liquid
Property: Mass density, kg/m3 (Liquid); method: Vibrating tube method
Temperature, K	Pressure, kPa	Mass density, kg/m3	uncertainty
298.15	101.325	892.62	0.72

System: methyl butanoate; phases: Liquid
Property: Refractive index (Na D-line) (Liquid); method: refractometer model RFM 81
Temperature, K	Pressure, kPa	Refractive index (Na D-line)	uncertainty
298.15	101.325	1.38486	0.0008

System: methyl butanoate; phases: Liquid, Air at 1 atmosphere
Property: Surface tension liquid-gas, N/m (Liquid); method: Maximal bubble pressure
Temperature, K	Surface tension liquid-gas, N/m	uncertainty
298.15	0.02456	0.00025

System: methyl pentanoate; phases: Liquid
Property: Mass density, kg/m3 (Liquid); method: Vibrating tube method
Temperature, K	Pressure, kPa	Mass density, kg/m3	uncertainty
298.15	101.325	885.66	0.72

System: methyl pentanoate; phases: Liquid
Property: Refractive index (Na D-line) (Liquid); method: refractometer model RFM 81
Temperature, K	Pressure, kPa	Refractive index (Na D-line)	uncertainty
298.15	101.325	1.39628	0.0008

System: methyl pentanoate; phases: Liquid, Air at 1 atmosphere
Property: Surface tension liquid-gas, N/m (Liquid); method: Maximal bubble pressure
Temperature, K	Surface tension liquid-gas, N/m	uncertainty
298.15	0.02534	0.00025

System: methyl hexanoate; phases: Liquid
Property: Mass density, kg/m3 (Liquid); method: Vibrating tube method
Temperature, K	Pressure, kPa	Mass density, kg/m3	uncertainty
298.15	101.325	879.76	0.72

System: methyl hexanoate; phases: Liquid
Property: Refractive index (Na D-line) (Liquid); method: refractometer model RFM 81
Temperature, K	Pressure, kPa	Refractive index (Na D-line)	uncertainty
298.15	101.325	1.40443	0.0008

System: methyl hexanoate; phases: Liquid, Air at 1 atmosphere
Property: Surface tension liquid-gas, N/m (Liquid); method: Maximal bubble pressure
Temperature, K	Surface tension liquid-gas, N/m	uncertainty
298.15	0.02601	0.00026

System: methyl heptanoate; phases: Liquid
Property: Mass density, kg/m3 (Liquid); method: Vibrating tube method
Temperature, K	Pressure, kPa	Mass density, kg/m3	uncertainty
298.15	101.325	875.61	0.72

System: methyl heptanoate; phases: Liquid
Property: Refractive index (Na D-line) (Liquid); method: refractometer model RFM 81
Temperature, K	Pressure, kPa	Refractive index (Na D-line)	uncertainty
298.15	101.325	1.41086	0.0008

System: methyl heptanoate; phases: Liquid, Air at 1 atmosphere
Property: Surface tension liquid-gas, N/m (Liquid); method: Maximal bubble pressure
Temperature, K	Surface tension liquid-gas, N/m	uncertainty
298.15	0.02673	0.00026

System: water + methyl methanoate; phases: Liquid mixture 1, Liquid mixture 2
Fixed: Pressure, kPa = 101.3
Property: Mass density, kg/m3 (Liquid mixture 1); method: Vibrating tube method
Temperature, K	Mass density, kg/m3	uncertainty
278.15	1019.8	1
288.15	1016.75	1

System: water + methyl methanoate; phases: Liquid mixture 2, Liquid mixture 1
Fixed: Pressure, kPa = 101.3
Property: Mass density, kg/m3 (Liquid mixture 2); method: Vibrating tube method
Temperature, K	Mass density, kg/m3	uncertainty
278.15	1001.25	1
288.15	990.05	1

System: water + methyl methanoate; phases: Liquid mixture 1, Liquid mixture 2
Fixed: Pressure, kPa = 101.3
Property: Interfacial tension, N/m (Liquid mixture 1); method: spinning drop method
Temperature, K	Interfacial tension, N/m	uncertainty
278.15	0.00056	3e-05
288.15	0.00077	3e-05

System: water + methyl ethanoate; phases: Liquid mixture 1, Liquid mixture 2
Fixed: Pressure, kPa = 101.3
Property: Mass density, kg/m3 (Liquid mixture 1); method: Vibrating tube method
Temperature, K	Mass density, kg/m3	uncertainty
278.15	1011.05	1
288.15	1005.44	1
298.15	999.47	1
308.15	992.96	1
318.15	985.33	1
328.15	978.33	1

System: water + methyl ethanoate; phases: Liquid mixture 2, Liquid mixture 1
Fixed: Pressure, kPa = 101.3
Property: Mass density, kg/m3 (Liquid mixture 2); method: Vibrating tube method
Temperature, K	Mass density, kg/m3	uncertainty
278.15	963.17	2
288.15	952.19	2
298.15	941.82	2
308.15	931.39	2
318.15	924.24	2
328.15	911.48	2

System: water + methyl ethanoate; phases: Liquid mixture 1, Liquid mixture 2
Fixed: Pressure, kPa = 101.3
Property: Interfacial tension, N/m (Liquid mixture 1); method: spinning drop method
Temperature, K	Interfacial tension, N/m	uncertainty
278.15	0.00186	3e-05
288.15	0.00177	3e-05
298.15	0.00166	3e-05
308.15	0.00149	3e-05
318.15	0.00117	3e-05
328.15	0.00075	3e-05

System: water + methyl propanoate; phases: Liquid mixture 1, Liquid mixture 2
Fixed: Pressure, kPa = 101.3
Property: Mass density, kg/m3 (Liquid mixture 1); method: Vibrating tube method
Temperature, K	Mass density, kg/m3	uncertainty
278.15	1002.53	1
288.15	1000.21	1
298.15	997.11	1
308.15	993.47	1
318.15	989.24	1
328.15	984.3	1
338.15	978.54	1

System: water + methyl propanoate; phases: Liquid mixture 2, Liquid mixture 1
Fixed: Pressure, kPa = 101.3
Property: Mass density, kg/m3 (Liquid mixture 2); method: Vibrating tube method
Temperature, K	Mass density, kg/m3	uncertainty
278.15	936.1	1
288.15	924.23	1
298.15	912.75	1
308.15	901.22	1
318.15	889.79	1
328.15	878.27	1
338.15	867.51	1

System: water + methyl propanoate; phases: Liquid mixture 1, Liquid mixture 2
Fixed: Pressure, kPa = 101.3
Property: Interfacial tension, N/m (Liquid mixture 1); method: spinning drop method
Temperature, K	Interfacial tension, N/m	uncertainty
278.15	0.00702	3e-05
288.15	0.00755	3e-05
298.15	0.00769	3e-05
308.15	0.00756	3e-05
318.15	0.00734	3e-05
328.15	0.00663	3e-05
338.15	0.00506	3e-05

System: water + methyl butanoate; phases: Liquid mixture 1, Liquid mixture 2
Fixed: Pressure, kPa = 101.3
Property: Mass density, kg/m3 (Liquid mixture 1); method: Vibrating tube method
Temperature, K	Mass density, kg/m3	uncertainty
278.15	999.94	1
288.15	998.96	1
298.15	996.63	1
308.15	993.51	1
318.15	990.78	1
328.15	985.18	1
338.15	980.14	1
348.15	974.74	1

System: water + methyl butanoate; phases: Liquid mixture 2, Liquid mixture 1
Fixed: Pressure, kPa = 101.3
Property: Mass density, kg/m3 (Liquid mixture 2); method: Vibrating tube method
Temperature, K	Mass density, kg/m3	uncertainty
278.15	916.59	1
288.15	905	1
298.15	894.28	1
308.15	883.48	1
318.15	872.65	1
328.15	861.77	1
338.15	850.77	1
348.15	839.88	1

System: water + methyl butanoate; phases: Liquid mixture 1, Liquid mixture 2
Fixed: Pressure, kPa = 101.3
Property: Interfacial tension, N/m (Liquid mixture 1); method: spinning drop method
Temperature, K	Interfacial tension, N/m	uncertainty
278.15	0.0106	3e-05
288.15	0.0109	3e-05
298.15	0.0111	3e-05
308.15	0.0111	3e-05
318.15	0.011	3e-05
328.15	0.0106	3e-05
338.15	0.01005	3e-05
348.15	0.0094	3e-05

System: water + methyl pentanoate; phases: Liquid mixture 1, Liquid mixture 2
Fixed: Pressure, kPa = 101.3
Property: Mass density, kg/m3 (Liquid mixture 1); method: Vibrating tube method
Temperature, K	Mass density, kg/m3	uncertainty
278.15	1000.13	1
288.15	999	1
298.15	996.8	1
308.15	993.77	1
318.15	990.06	1
328.15	985.66	1
338.15	980.77	1
348.15	975.38	1
358.15	969.51	1

System: water + methyl pentanoate; phases: Liquid mixture 2, Liquid mixture 1
Fixed: Pressure, kPa = 101.3
Property: Mass density, kg/m3 (Liquid mixture 2); method: Vibrating tube method
Temperature, K	Mass density, kg/m3	uncertainty
278.15	906.84	1
288.15	896.02	1
298.15	886.03	1
308.15	876.04	1
318.15	866.09	1
328.15	856	1
338.15	845.91	1
348.15	835.78	1
358.15	825.63	1

System: water + methyl pentanoate; phases: Liquid mixture 1, Liquid mixture 2
Fixed: Pressure, kPa = 101.3
Property: Interfacial tension, N/m (Liquid mixture 1); method: spinning drop method
Temperature, K	Interfacial tension, N/m	uncertainty
278.15	0.0136	3e-05
288.15	0.014	3e-05
298.15	0.0141	3e-05
308.15	0.014	3e-05
318.15	0.0139	3e-05
328.15	0.0137	3e-05
338.15	0.0135	3e-05
348.15	0.0132	3e-05
358.15	0.0129	3e-05

System: water + methyl hexanoate; phases: Liquid mixture 1, Liquid mixture 2
Fixed: Pressure, kPa = 101.3
Property: Mass density, kg/m3 (Liquid mixture 1); method: Vibrating tube method
Temperature, K	Mass density, kg/m3	uncertainty
278.15	1000.13	1
288.15	999.06	1
298.15	996.96	1
308.15	993.89	1
318.15	990.17	1
328.15	985.84	1
338.15	980.98	1
348.15	975.64	1
358.15	969.87	1

System: water + methyl hexanoate; phases: Liquid mixture 2, Liquid mixture 1
Fixed: Pressure, kPa = 101.3
Property: Mass density, kg/m3 (Liquid mixture 2); method: Vibrating tube method
Temperature, K	Mass density, kg/m3	uncertainty
278.15	899.3	1
288.15	889.78	1
298.15	880.34	1
308.15	870.9	1
318.15	861.46	1
328.15	851.92	1
338.15	842.39	1
348.15	832.8	1
358.15	823.16	1

System: water + methyl hexanoate; phases: Liquid mixture 1, Liquid mixture 2
Fixed: Pressure, kPa = 101.3
Property: Interfacial tension, N/m (Liquid mixture 1); method: spinning drop method
Temperature, K	Interfacial tension, N/m	uncertainty
278.15	0.0146	3e-05
288.15	0.015	3e-05
298.15	0.0155	3e-05
308.15	0.0157	3e-05
318.15	0.0158	3e-05
328.15	0.0157	3e-05
338.15	0.0155	3e-05
348.15	0.0151	3e-05
358.15	0.0146	3e-05

System: water + methyl heptanoate; phases: Liquid mixture 1, Liquid mixture 2
Fixed: Pressure, kPa = 101.3
Property: Mass density, kg/m3 (Liquid mixture 1); method: Vibrating tube method
Temperature, K	Mass density, kg/m3	uncertainty
278.15	1000.16	1
288.15	999.1	1
298.15	996.97	1
308.15	993.96	1
318.15	990.25	1
328.15	985.92	1
338.15	981.04	1
348.15	975.73	1
358.15	969.9	1

System: water + methyl heptanoate; phases: Liquid mixture 1, Liquid mixture 2
Fixed: Pressure, kPa = 101.3
Property: Mass density, kg/m3 (Liquid mixture 1); method: Vibrating tube method
Temperature, K	Mass density, kg/m3	uncertainty
278.15	894.11	1
288.15	884.98	1
298.15	875.91	1
308.15	866.96	1
318.15	857.93	1
328.15	848.79	1
338.15	839.85	1
348.15	830.8	1
358.15	821.7	1

System: water + methyl heptanoate; phases: Liquid mixture 1, Liquid mixture 2
Fixed: Pressure, kPa = 101.3
Property: Interfacial tension, N/m (Liquid mixture 1); method: spinning drop method
Temperature, K	Interfacial tension, N/m	uncertainty
288.15	0.016	3e-05
298.15	0.0167	3e-05
308.15	0.0173	4e-05
318.15	0.0175	4e-05
328.15	0.0176	4e-05
338.15	0.0175	4e-05
348.15	0.0169	3e-05
358.15	0.0159	3e-05
