Measured thermophysical data. Influence of temperature and pressure on the density and speed of sound of N-ethyl-2-hydroxyethylammonium propionate ionic liquid
Source: J. Chem. Thermodyn., 2019, 10.1016/j.jct.2018.11.005
Compound 1: N-ethyl-2-hydroxyethylammonium propionate, C7H17NO3, InChI=1S/C4H11NO.C3H6O2/c1-2-5-3-4-6;1-2-3(4)5/h5-6H,2-4H2,1H3;2H2,1H3,(H,4,5)

System: N-ethyl-2-hydroxyethylammonium propionate; phases: Liquid
Property: Mass density, kg/m3 (Liquid); method: Vibrating tube method
Pressure, kPa	Temperature, K	Mass density, kg/m3	uncertainty
100	298.16	1051.9	1.2
10000	298.15	1057	1.3
15000	298.14	1058.3	1.3
20000	298.16	1059.9	1.3
25000	298.15	1061.8	1.3
30000	298.14	1063.5	1.3
35000	298.15	1064.6	1.3
100	303.16	1046.7	1.2
10000	303.15	1052.1	1.3
15000	303.15	1053.4	1.3
20000	303.14	1055.6	1.3
25000	303.14	1057.4	1.3
30000	303.12	1059.2	1.3
35000	303.08	1060.7	1.3
100	313.14	1035.6	1.2
10000	313.09	1041.8	1.2
15000	313.11	1043.2	1.3
20000	313.09	1045.6	1.3
25000	313.07	1047.8	1.3
30000	313.07	1049.6	1.3
35000	313.07	1051.4	1.3
100	323.15	1024.4	1.2
10000	323.16	1030.5	1.2
15000	323.15	1032.6	1.2
20000	323.15	1035.2	1.2
25000	323.15	1037.2	1.3
30000	323.15	1039.3	1.3
35000	323.15	1041.5	1.3
100	333.16	1011.9	1.2
10000	333.14	1018	1.2
15000	333.15	1021	1.2
20000	333.16	1023.7	1.2
25000	333.16	1026.2	1.2
30000	333.15	1028.8	1.2
35000	333.15	1031.3	1.2
100	343.17	998.8	1.2
10000	343.17	1004.6	1.2
15000	343.14	1008.7	1.2
20000	343.21	1011.2	1.2
25000	343.14	1014.3	1.2
30000	343.17	1017.4	1.2
35000	343.19	1020.1	1.2

System: N-ethyl-2-hydroxyethylammonium propionate; phases: Liquid
Fixed: Frequency, MHz = 5
Property: Speed of sound, m/s (Liquid); method: Single path-length method
Temperature, K	Pressure, kPa	Speed of sound, m/s	uncertainty
303.15	100	1566.6	3.8
303.15	1000	1570.6	3.8
303.15	2000	1574.6	3.8
303.15	3000	1578.7	3.8
303.15	4000	1582.8	3.8
303.15	5000	1586.9	3.8
303.15	6000	1589.6	3.8
303.15	7000	1592.4	3.8
303.15	8000	1595.1	3.8
303.15	9000	1599.3	3.8
303.15	10000	1603.5	3.8
303.15	11000	1607.7	3.8
303.15	12000	1611.9	3.8
303.15	13000	1616.1	3.8
303.15	14000	1620.3	3.8
303.15	15000	1623.2	3.8
303.15	16000	1627.4	3.8
303.15	17000	1631.7	3.8
303.15	18000	1634.6	3.8
303.15	19000	1637.5	3.8
303.15	20000	1640.4	3.8
313.15	100	1535.6	3.8
313.15	1000	1539.4	3.8
313.15	2000	1543.3	3.8
313.15	3000	1547.2	3.8
313.15	4000	1552.4	3.8
313.15	5000	1555	3.8
313.15	6000	1560.3	3.8
313.15	7000	1564.2	3.8
313.15	8000	1568.2	3.8
313.15	9000	1572.2	3.8
313.15	10000	1576.2	3.8
313.15	11000	1578.9	3.8
313.15	12000	1583	3.8
313.15	13000	1587.1	3.8
313.15	14000	1591.1	3.8
313.15	15000	1595.3	3.8
313.15	16000	1599.4	3.8
313.15	17000	1603.5	3.8
313.15	18000	1607.7	3.8
313.15	19000	1610.5	3.8
313.15	20000	1614.7	3.8
323.15	100	1504.9	3.8
323.15	1000	1508.6	3.8
323.15	2000	1512.4	3.8
323.15	3000	1517.3	3.8
323.15	4000	1522.4	3.8
323.15	5000	1527.4	3.8
323.15	6000	1531.2	3.8
323.15	7000	1535	3.8
323.15	8000	1538.9	3.8
323.15	9000	1542.8	3.8
323.15	10000	1546.6	3.8
323.15	11000	1550.5	3.8
323.15	12000	1555.7	3.8
323.15	13000	1559.7	3.8
323.15	14000	1563.6	3.8
323.15	15000	1566.3	3.8
323.15	16000	1570.3	3.8
323.15	17000	1572.9	3.8
323.15	18000	1575.6	3.8
323.15	19000	1579.6	3.8
323.15	20000	1583.7	3.8
333.15	100	1485.5	14.2
333.15	1000	1489.2	14.1
333.15	2000	1494.2	14.1
333.15	3000	1497.9	14.1
333.15	4000	1500.5	14.1
333.15	5000	1503	3.8
333.15	6000	1508	3.8
333.15	7000	1511.8	3.8
333.15	8000	1514.4	3.8
333.15	9000	1519.4	3.8
333.15	10000	1523.2	3.8
333.15	11000	1525.8	3.8
333.15	12000	1530.9	3.8
333.15	13000	1533.5	3.8
333.15	14000	1536.1	3.8
333.15	15000	1540	3.8
333.15	16000	1542.6	3.8
333.15	17000	1546.5	3.8
333.15	18000	1550.4	3.8
333.15	19000	1553	3.8
333.15	20000	1555.6	3.8
343.15	100	1450.5	3.8
343.15	1000	1454.2	3.8
343.15	2000	1458	3.8
343.15	3000	1461.8	3.8
343.15	4000	1466.7	3.8
343.15	5000	1470.5	3.8
343.15	6000	1474.3	3.8
343.15	7000	1478.1	3.8
343.15	8000	1481.9	3.8
343.15	9000	1485.7	3.8
343.15	10000	1489.5	3.8
343.15	11000	1493.3	3.8
343.15	12000	1497.2	3.8
343.15	13000	1501	3.8
343.15	14000	1504.8	3.8
343.15	15000	1507.4	3.8
343.15	16000	1511.2	3.8
343.15	17000	1516.3	3.8
343.15	18000	1520.1	3.8
343.15	19000	1524	3.8
343.15	20000	1526.6	3.8
353.15	100	1416	3.8
353.15	1000	1419.9	3.8
353.15	2000	1423.8	3.8
353.15	3000	1428.9	3.8
353.15	4000	1434	3.8
353.15	5000	1438	3.8
353.15	6000	1443.1	3.8
353.15	7000	1447	3.8
353.15	8000	1451	3.8
353.15	9000	1456.1	3.8
353.15	10000	1460	3.8
353.15	11000	1465.1	3.8
353.15	12000	1469	3.8
353.15	13000	1471.8	3.8
353.15	14000	1476.9	3.8
353.15	15000	1480.8	3.8
353.15	16000	1484.7	3.8
353.15	17000	1488.6	3.8
353.15	18000	1492.5	3.8
353.15	19000	1496.4	3.8
353.15	20000	1500.2	3.8
