Measured thermophysical data. Thermodynamic properties of dicarbonyl rhodium o-semiquinonate complex whose crystals display photomechanical properties
Source: J. Chem. Thermodyn., 2006, 10.1016/j.jct.2005.07.023
Compound 1: dicarbonyl rhodium complex with o-semiquinone, C16H20O4Rh, InChI=1S/C14H22O2.2CO.Rh/c1-13(2,3)9-7-8-10(14(4,5)6)12(16)11(9)15;2*1-2;/h7-8,15-16H,1-6H3;;;/q;;;+2/p-2

System: dicarbonyl rhodium complex with o-semiquinone; phases: Crystal 4, Crystal 3, Gas
Property: Molar enthalpy of transition or fusion, kJ/mol (Crystal 4); method: Adiabatic calorimetry
Molar enthalpy of transition or fusion, kJ/mol	uncertainty
0.2251	0.05

System: dicarbonyl rhodium complex with o-semiquinone; phases: Crystal 3, Crystal 2, Gas
Property: Molar enthalpy of transition or fusion, kJ/mol (Crystal 3); method: Adiabatic calorimetry
Molar enthalpy of transition or fusion, kJ/mol	uncertainty
0.2728	0.05

System: dicarbonyl rhodium complex with o-semiquinone; phases: Crystal 2, Crystal 1, Gas
Property: Molar enthalpy of transition or fusion, kJ/mol (Crystal 2); method: Adiabatic calorimetry
Molar enthalpy of transition or fusion, kJ/mol	uncertainty
0.09518	0.05

System: dicarbonyl rhodium complex with o-semiquinone; phases: Crystal 4, Crystal 3, Gas
Property: Triple point temperature, K (Crystal 4); method: Adiabatic calorimetry
Triple point temperature, K	uncertainty
223.5	4

System: dicarbonyl rhodium complex with o-semiquinone; phases: Crystal 3, Crystal 2, Gas
Property: Triple point temperature, K (Crystal 3); method: Adiabatic calorimetry
Triple point temperature, K	uncertainty
297	4

System: dicarbonyl rhodium complex with o-semiquinone; phases: Crystal 2, Crystal 1, Gas
Property: Triple point temperature, K (Crystal 2); method: Adiabatic calorimetry
Triple point temperature, K	uncertainty
332.8	4

System: dicarbonyl rhodium complex with o-semiquinone; phases: Crystal 4
Fixed: Pressure, kPa = 101.325
Property: Molar heat capacity at constant pressure, J/K/mol (Crystal 4); method: VADIAC:UFactor:6
Temperature, K	Molar heat capacity at constant pressure, J/K/mol	uncertainty
6.44	2.96	0.216
6.96	3.82	0.258
7.4	4.44	0.283
7.81	5.01	0.308
8.22	5.6	0.341
8.63	6.5	0.374
9.08	7	0.399
9.59	8	0.441
10.06	8.497	0.457
10.53	9.387	0.491
10.99	10.15	0.524
11.44	10.95	0.549
11.89	11.79	0.582
12.48	12.78	0.615
13.21	14.1	0.665
13.93	15.47	0.707
14.75	17.15	0.757
15.46	18.52	0.798
16.17	19.85	0.8314
16.87	21.3	0.8647
17.56	22.66	0.8979
18.26	24.02	0.9229
18.96	25.45	0.9478
19.65	26.9	0.9811
21.36	30.56	1.0309
23.81	35.66	1.0808
26.26	40.55	1.0891
28.73	45.86	1.0725
31.18	51.04	0.8563
34	56.72	0.9229
36.5	61.31	0.9727
38.58	64.85	1.0226
41.08	68.9	1.0642
43.58	73.1	1.1141
46.08	77.37	1.1723
48.58	81.39	1.2138
51.08	85.22	1.247
53.6	89.46	1.33
56.09	93.62	1.33
58.8	98.44	1.413
61.12	102.2	1.497
63.62	106.5	1.497
66.11	111	1.58
68.61	115.3	1.663
71.11	119.5	1.663
73.8	124.1	1.746
76.11	127.7	1.746
78.62	131.9	1.829
81.12	136.1	1.912
83.75	140.3	1.912
86.62	146.4	1.995
89.08	150.5	2.079
91.53	153.6	2.162
93.99	156.6	2.162
96.45	159.6	2.162
98.89	163	2.162
101.34	166.1	2.162
103.79	169.5	2.245
106.23	173	2.245
108.4	175.6	2.245
111.12	179.7	2.245
113.56	183.9	2.328
116	187.3	2.328
118.43	190.3	2.328
120.86	194	2.328
123.29	197.2	2.411
125.71	200.6	2.411
128.14	203.5	2.411
130.56	207.4	2.411
132.98	210.4	2.494
135.4	212.8	2.494
137.82	216.2	2.494
140.23	219.5	2.494
143.6	223	2.577
145.06	224.9	2.577
147.47	227.6	2.577
150.3	230.5	2.577
152.27	233	2.577
154.66	236.4	2.577
157.7	240.4	2.66
159.46	243.1	2.66
161.83	245.8	2.66
164.22	248.6	2.66
166.61	252.3	2.744
168.99	255.3	2.744
171.37	258.2	2.744
173.75	261.2	2.744
176.12	264.7	2.827
178.49	268.1	2.827
180.86	270.5	2.827
183.21	273.7	2.827
185.58	276.5	2.827
187.94	279.8	2.91
190.3	282.7	2.91
192.64	285.9	2.91
194.99	288.2	2.91
197.33	290.8	2.91
200	294.3	2.993
201.96	296.1	2.993
202.28	296.7	2.993
204.28	298.5	2.993
204.95	299.5	2.993
206.6	301.5	2.993
208.1	303	2.993
208.91	303.9	2.993
209.45	304.1	2.993
211.22	304	2.993
211.69	306.8	3.076
213.93	309.6	3.076
216.16	312.8	3.076
216.35	312.7	3.076
217.8	320	3.159
219.04	326.3	3.159
220.59	331.6	3.159
221.33	334.7	3.242
223.4	339.8	3.242

System: dicarbonyl rhodium complex with o-semiquinone; phases: Crystal 3
Fixed: Pressure, kPa = 101.325
Property: Molar heat capacity at constant pressure, J/K/mol (Crystal 3); method: VADIAC:UFactor:6
Temperature, K	Molar heat capacity at constant pressure, J/K/mol	uncertainty
223.61	339.8	3.242
225.89	337.2	3.242
226.1	336.4	3.242
228.17	329.8	3.159
228.4	329.3	3.159
229.37	327.8	3.159
230.45	327	3.159
231.53	326.2	3.159
232.72	324.7	3.159
233.7	325.5	3.159
234.97	326.7	3.159
235.84	327.6	3.159
237.22	328.6	3.159
237.83	328.9	3.159
239.47	330.3	3.159
239.97	330.4	3.159
241.69	332.2	3.159
242.11	331.6	3.159
243.92	333.7	3.242
244.21	333.3	3.159
246.15	336	3.242
246.33	337.1	3.242
248.38	338.3	3.242
248.44	338.3	3.242
250.53	340.6	3.242
250.59	340.5	3.242
252.61	343.2	3.242
252.66	343.4	3.242
254.64	345.4	3.242
254.84	344.4	3.242
256.66	347.8	3.326
256.98	347.4	3.326
258.67	350.4	3.326
259.14	350.9	3.326
260.67	352.7	3.326
261.28	353.4	3.326
262.66	356.1	3.326
263.42	357.2	3.326
264.63	358	3.326
265.55	358.4	3.326
266.6	359.6	3.326
267.67	360.7	3.326
268.9	361.7	3.409
269.78	362.6	3.409
270.2	363.1	3.409
271.88	364.9	3.409
272.13	365	3.409
273.97	366.8	3.409
274.06	366.8	3.409
275.96	369.5	3.409
276.05	369.4	3.409
277.8	371.7	3.409
278.09	371.9	3.409
279.68	374.4	3.409
280.13	374.8	3.409
281.54	377	3.492
282.18	377.7	3.492
283.36	379.5	3.492
284.21	380.4	3.492
285.17	382	3.492
286.04	383.2	3.492
286.97	384.9	3.492
288.03	386.5	3.492
288.78	388	3.492
290.02	390.3	3.575
290.59	391.4	3.575
291.99	394.1	3.575
292.38	395.1	3.575
293.95	397.5	3.575
294.12	397.7	3.575
295.86	399.1	3.575
295.88	399.1	3.575

System: dicarbonyl rhodium complex with o-semiquinone; phases: Crystal 2
Fixed: Pressure, kPa = 101.325
Property: Molar heat capacity at constant pressure, J/K/mol (Crystal 2); method: VADIAC:UFactor:6
Temperature, K	Molar heat capacity at constant pressure, J/K/mol	uncertainty
297.64	399.2	3.575
298.98	399.3	3.575
300.6	397.1	3.575
300.68	398	3.575
301.57	396.7	3.575
302.39	396.5	3.575
303.08	396.2	3.575
303.42	396.2	3.575
305.29	396	3.575
306.54	396.2	3.575
307.14	396.2	3.575
308.98	396.5	3.575
309.38	396.6	3.575
310.8	397.7	3.575
312.2	398.5	3.575
312.61	398.7	3.575
314.4	400.1	3.575
315	404.4	3.658
315.86	401.2	3.575
317.61	402.6	3.575
317.76	402.8	3.658
319.35	403.1	3.658
320.5	405.2	3.658
321.56	406.4	3.658
321.7	406.6	3.658
323.22	408.5	3.658
323.81	409.3	3.658
325.46	411.5	3.658
325.87	412	3.658
327.15	414	3.658
328.55	416.6	3.741
328.82	416.9	3.741
330.47	420	3.741
332	422.3	3.741
332.05	422.3	3.741

System: dicarbonyl rhodium complex with o-semiquinone; phases: Crystal 1
Fixed: Pressure, kPa = 101.325
Property: Molar heat capacity at constant pressure, J/K/mol (Crystal 1); method: VADIAC:UFactor:6
Temperature, K	Molar heat capacity at constant pressure, J/K/mol	uncertainty
333.67	422.5	3.741
333.8	422.5	3.741
335.28	421.8	3.741
336.4	421.5	3.741
336.79	421.4	3.741
336.89	421.5	3.741
338.3	421.5	3.741
338.97	421.6	3.741
339.91	421.8	3.741
340.03	421.7	3.741
341.58	422.7	3.741
342.42	422.7	3.741
343.11	423.2	3.741
344.63	424.3	3.741
344.91	424.7	3.741
346.07	426	3.741
347.11	427.6	3.741
347.37	427.7	3.741
348.6	428.8	3.741
349.74	430.6	3.824
350.06	431.8	3.824
