Measured thermophysical data. Thermodynamic behavior of {ethanol + butylpyridinium tetrafluoroborate} binary solution in the critical region
Source: J. Chem. Thermodyn., 2017, 10.1016/j.jct.2017.02.014
Compound 1: 1-butylpyridinium tetrafluoroborate, C9H14BF4N, InChI=1S/C9H14N.BF4/c1-2-3-7-10-8-5-4-6-9-10;2-1(3,4)5/h4-6,8-9H,2-3,7H2,1H3;/q+1;-1, purity 99%
Compound 2: ethanol, C2H6O, InChI=1S/C2H6O/c1-2-3/h3H,2H2,1H3, purity 99.5%

System: 1-butylpyridinium tetrafluoroborate; phases: Liquid
Property: Refractive index (Na D-line) (Liquid); method: Standard Abbe refractometry
Temperature, K	Pressure, kPa	Refractive index (Na D-line)	uncertainty
298.15	101.325	1.4459	0.0007

System: 1-butylpyridinium tetrafluoroborate; phases: Liquid
Fixed: Pressure, kPa = 100
Fixed: Wavelength, nm = 632.8
Property: Refractive index (other wavelength) (Liquid); method: minimum deviation angle method
Temperature, K	Refractive index (other wavelength)	uncertainty
281.729	1.4481	0.0003
282.782	1.4478	0.0003
284.14	1.4475	0.0003
285.742	1.4471	0.0003
286.943	1.4468	0.0003
288.237	1.4464	0.0003
289.379	1.4461	0.0003
290.372	1.4458	0.0003
292.155	1.4454	0.0003
293.406	1.4451	0.0003
295.001	1.4446	0.0003
296.889	1.444	0.0003

System: ethanol; phases: Liquid
Property: Refractive index (Na D-line) (Liquid); method: Standard Abbe refractometry
Temperature, K	Pressure, kPa	Refractive index (Na D-line)	uncertainty
298.15	101.325	1.3596	0.0007

System: ethanol; phases: Liquid
Fixed: Pressure, kPa = 100
Fixed: Wavelength, nm = 632.8
Property: Refractive index (other wavelength) (Liquid); method: minimum deviation angle method
Temperature, K	Refractive index (other wavelength)	uncertainty
282.035	1.3645	0.0002
283.113	1.364	0.0002
284.035	1.3637	0.0002
285.647	1.363	0.0002
286.623	1.3626	0.0002
288.169	1.362	0.0002
289.328	1.3615	0.0002
290.803	1.3609	0.0002
291.841	1.3604	0.0002
292.941	1.36	0.0002
293.773	1.3596	0.0002
295.494	1.3589	0.0002
296.506	1.3585	0.0002
297.437	1.3581	0.0002
298.136	1.3578	0.0002

System: ethanol + 1-butylpyridinium tetrafluoroborate; phases: Liquid mixture 1, Liquid mixture 2, Air at 1 atmosphere
Property: Upper consolute temperature, K (Liquid mixture 1); method: VISOBS
Upper consolute temperature, K	uncertainty
296.441	0.387

System: ethanol + 1-butylpyridinium tetrafluoroborate; phases: Liquid mixture 1, Liquid mixture 2, Air at 1 atmosphere
Property: Upper consolute composition: mole fraction of 1-butylpyridinium tetrafluoroborate (Liquid mixture 1); method: equal volume visual observation
Upper consolute composition: mole fraction of 1-butylpyridinium tetrafluoroborate	uncertainty
0.118	0.002

System: ethanol + 1-butylpyridinium tetrafluoroborate; phases: Liquid mixture 1, Liquid mixture 2
Fixed: Pressure, kPa = 100
Property: Mole fraction of 1-butylpyridinium tetrafluoroborate (Liquid mixture 1); method: Index of refraction calibration data
Temperature, K	Mole fraction of 1-butylpyridinium tetrafluoroborate	uncertainty
296.432	0.102	0.009
296.421	0.099	0.008
296.407	0.097	0.007
296.398	0.095	0.007
296.383	0.093	0.008
296.37	0.091	0.007
296.352	0.089	0.006
296.341	0.088	0.006
296.315	0.086	0.006
296.284	0.083	0.005
296.252	0.081	0.005
296.231	0.08	0.005
296.19	0.078	0.005
296.174	0.076	0.005
296.138	0.075	0.005
296.099	0.074	0.005
296.061	0.072	0.005
296.017	0.071	0.005
295.986	0.07	0.004
295.942	0.068	0.004
295.868	0.067	0.004
295.816	0.066	0.004
295.745	0.064	0.004
295.661	0.062	0.004
295.57	0.061	0.004
295.473	0.059	0.004
295.344	0.056	0.004
295.154	0.054	0.004
294.691	0.048	0.004
294.146	0.044	0.004
293.556	0.04	0.004
292.822	0.036	0.004
291.919	0.032	0.004
290.887	0.028	0.004
289.761	0.025	0.004
288.273	0.022	0.004
286.713	0.019	0.004
285.208	0.016	0.004

System: ethanol + 1-butylpyridinium tetrafluoroborate; phases: Liquid mixture 2, Liquid mixture 1
Fixed: Pressure, kPa = 100
Property: Mole fraction of 1-butylpyridinium tetrafluoroborate (Liquid mixture 2); method: Index of refraction calibration data
Temperature, K	Mole fraction of 1-butylpyridinium tetrafluoroborate	uncertainty
296.432	0.134	0.012
296.421	0.138	0.011
296.407	0.141	0.009
296.398	0.144	0.009
296.383	0.147	0.01
296.37	0.15	0.009
296.352	0.152	0.007
296.341	0.153	0.007
296.315	0.157	0.007
296.284	0.159	0.007
296.252	0.162	0.006
296.231	0.165	0.006
296.19	0.166	0.006
296.174	0.168	0.006
296.138	0.17	0.006
296.099	0.172	0.006
296.061	0.175	0.006
296.017	0.177	0.006
295.986	0.179	0.006
295.942	0.181	0.006
295.868	0.183	0.006
295.816	0.185	0.006
295.745	0.188	0.006
295.661	0.191	0.006
295.57	0.194	0.006
295.473	0.198	0.006
295.344	0.202	0.006
295.154	0.207	0.006
294.691	0.219	0.006
294.146	0.232	0.006
293.556	0.244	0.007
292.822	0.257	0.007
291.919	0.271	0.007
290.887	0.286	0.007
289.761	0.299	0.008
288.273	0.317	0.008
286.713	0.334	0.008
285.208	0.349	0.008

System: ethanol + 1-butylpyridinium tetrafluoroborate; phases: Liquid mixture 1, Liquid mixture 2
Fixed: Pressure, kPa = 100
Fixed: Wavelength, nm = 632.8
Property: Refractive index (other wavelength) (Liquid mixture 1); method: minimum deviation angle method
Temperature, K	Refractive index (other wavelength)	uncertainty
296.432	1.3832	0.0016
296.421	1.3826	0.0014
296.407	1.3821	0.0011
296.398	1.3818	0.0011
296.383	1.3813	0.0013
296.37	1.3809	0.001
296.352	1.3806	0.0009
296.341	1.3804	0.0008
296.315	1.3799	0.0007
296.284	1.3794	0.0007
296.252	1.379	0.0006
296.231	1.3787	0.0005
296.19	1.3783	0.0005
296.174	1.378	0.0004
296.138	1.3778	0.0004
296.099	1.3775	0.0004
296.061	1.3772	0.0004
296.017	1.3769	0.0004
295.986	1.3767	0.0004
295.942	1.3764	0.0003
295.868	1.3761	0.0003
295.816	1.3759	0.0003
295.745	1.3755	0.0003
295.661	1.3751	0.0003
295.57	1.3748	0.0003
295.473	1.3744	0.0003
295.344	1.3739	0.0003
295.154	1.3734	0.0003
294.691	1.3723	0.0003
294.146	1.3714	0.0003
293.556	1.3707	0.0003
292.822	1.37	0.0003
291.919	1.3694	0.0003
290.887	1.3689	0.0003
289.761	1.3685	0.0003
288.273	1.3682	0.0003
286.713	1.368	0.0003
285.208	1.3679	0.0003

System: ethanol + 1-butylpyridinium tetrafluoroborate; phases: Liquid mixture 2, Liquid mixture 1
Fixed: Pressure, kPa = 100
Fixed: Wavelength, nm = 632.8
Property: Refractive index (other wavelength) (Liquid mixture 2); method: minimum deviation angle method
Temperature, K	Refractive index (other wavelength)	uncertainty
296.432	1.3889	0.0017
296.421	1.3895	0.0016
296.407	1.3901	0.0013
296.398	1.3905	0.0012
296.383	1.391	0.0014
296.37	1.3915	0.0012
296.352	1.3918	0.0009
296.341	1.392	0.0008
296.315	1.3926	0.0007
296.284	1.393	0.0007
296.252	1.3934	0.0005
296.231	1.3938	0.0005
296.19	1.3941	0.0005
296.174	1.3944	0.0004
296.138	1.3947	0.0005
296.099	1.395	0.0004
296.061	1.3954	0.0004
296.017	1.3957	0.0004
295.986	1.396	0.0004
295.942	1.3963	0.0003
295.868	1.3966	0.0003
295.816	1.3969	0.0004
295.745	1.3974	0.0003
295.661	1.3978	0.0003
295.57	1.3983	0.0003
295.473	1.3988	0.0003
295.344	1.3994	0.0003
295.154	1.4002	0.0003
294.691	1.4019	0.0003
294.146	1.4037	0.0003
293.556	1.4054	0.0003
292.822	1.4071	0.0003
291.919	1.409	0.0003
290.887	1.411	0.0003
289.761	1.4127	0.0003
288.273	1.415	0.0003
286.713	1.4171	0.0003
285.208	1.419	0.0003

System: ethanol + 1-butylpyridinium tetrafluoroborate; phases: Liquid
Fixed: Pressure, kPa = 100
Fixed: Wavelength, nm = 632.8
Property: Refractive index (other wavelength) (Liquid); method: minimum deviation angle method
Temperature, K	Mole fraction of 1-butylpyridinium tetrafluoroborate	Refractive index (other wavelength)	uncertainty
282.035	0	1.3645	0.0002
283.113	0	1.364	0.0002
284.035	0	1.3637	0.0002
285.647	0	1.363	0.0002
286.623	0	1.3626	0.0002
288.169	0	1.362	0.0002
289.328	0	1.3615	0.0002
290.803	0	1.3609	0.0002
291.841	0	1.3604	0.0002
292.941	0	1.36	0.0002
293.773	0	1.3596	0.0002
295.494	0	1.3589	0.0002
296.506	0	1.3585	0.0002
297.437	0	1.3581	0.0002
298.136	0	1.3578	0.0002
281.729	1	1.4481	0.0003
282.782	1	1.4478	0.0003
284.14	1	1.4475	0.0003
285.742	1	1.4471	0.0003
286.943	1	1.4468	0.0003
288.237	1	1.4464	0.0003
289.379	1	1.4461	0.0003
290.372	1	1.4458	0.0003
292.155	1	1.4454	0.0003
293.406	1	1.4451	0.0003
295.001	1	1.4446	0.0003
296.889	1	1.444	0.0003
287.46	0.02	1.3684	0.0004
288.708	0.02	1.3679	0.0004
289.819	0.02	1.3675	0.0004
291.257	0.02	1.3669	0.0004
292.642	0.02	1.3663	0.0004
294.377	0.02	1.3657	0.0004
296.983	0.06	1.3745	0.0005
298.214	0.06	1.374	0.0005
299.429	0.06	1.3736	0.0005
300.893	0.06	1.3731	0.0005
302.079	0.06	1.3726	0.0005
303.307	0.06	1.3722	0.0005
297.251	0.095	1.3817	0.0004
298.563	0.095	1.3813	0.0004
299.67	0.095	1.3809	0.0004
300.787	0.095	1.3805	0.0004
301.774	0.095	1.3802	0.0004
302.925	0.095	1.3798	0.0004
296.983	0.142	1.3902	0.0004
298.062	0.142	1.3899	0.0005
299.342	0.142	1.3895	0.0004
300.342	0.142	1.3892	0.0004
301.775	0.142	1.3886	0.0004
302.938	0.142	1.3883	0.0004
296.345	0.199	1.3993	0.0003
298.514	0.199	1.3986	0.0004
299.576	0.199	1.3982	0.0004
301.095	0.199	1.3977	0.0004
302.157	0.199	1.3974	0.0003
303.304	0.199	1.397	0.0004
296.195	0.258	1.4062	0.0003
297.52	0.258	1.4056	0.0004
298.9	0.258	1.4052	0.0003
299.977	0.258	1.4048	0.0003
301.924	0.258	1.4043	0.0003
300.952	0.258	1.4046	0.0003
290.465	0.313	1.414	0.0004
292.083	0.313	1.4134	0.0004
293.102	0.313	1.4131	0.0004
294.227	0.313	1.4128	0.0004
295.321	0.313	1.4124	0.0003
296.345	0.313	1.4121	0.0003
284.676	0.394	1.4224	0.0004
286.417	0.394	1.4219	0.0004
287.675	0.394	1.4215	0.0004
289.369	0.394	1.4211	0.0003
290.31	0.394	1.4207	0.0003
291.416	0.394	1.4204	0.0003
284.047	0.518	1.4307	0.0003
285.333	0.518	1.4304	0.0003
287.509	0.518	1.4298	0.0003
288.687	0.518	1.4295	0.0003
290.139	0.518	1.429	0.0003
291.415	0.518	1.4287	0.0003

System: ethanol + 1-butylpyridinium tetrafluoroborate; phases: Liquid
Fixed: Pressure, kPa = 102.6
Fixed: Mole fraction of 1-butylpyridinium tetrafluoroborate = 0.118
Property: Heat capacity at constant pressure per volume, J/K/m3 (Liquid); method: DSC
Temperature, K	Heat capacity at constant pressure per volume, J/K/m3	uncertainty
323.15	2110000	82000
322.711	2111000	82000
322.273	2110000	82000
321.836	2109000	82000
321.398	2109000	82000
320.96	2109000	82000
320.522	2108000	82000
320.084	2107000	82000
319.646	2107000	82000
319.209	2105000	82000
318.771	2106000	82000
318.333	2104000	81000
317.895	2105000	82000
317.458	2103000	81000
317.02	2103000	81000
316.582	2103000	81000
316.144	2102000	81000
315.707	2103000	81000
315.269	2102000	81000
314.831	2103000	81000
314.393	2101000	81000
313.956	2103000	81000
313.518	2101000	81000
313.08	2103000	81000
312.643	2102000	81000
312.204	2102000	81000
311.767	2102000	81000
311.329	2103000	81000
310.891	2105000	82000
310.453	2104000	81000
310.016	2104000	82000
309.578	2104000	82000
309.141	2104000	82000
308.703	2105000	82000
308.265	2106000	82000
307.827	2106000	82000
307.389	2107000	82000
306.951	2108000	82000
306.514	2108000	82000
306.076	2110000	82000
305.635	2112000	85000
305.435	2107000	85000
305.235	2113000	85000
305.036	2117000	86000
304.835	2123000	86000
304.635	2120000	86000
304.436	2130000	86000
304.236	2122000	86000
304.035	2126000	86000
303.835	2127000	86000
303.635	2121000	86000
303.436	2121000	86000
303.236	2131000	86000
303.036	2129000	86000
302.836	2122000	86000
302.636	2130000	86000
302.436	2124000	86000
302.236	2117000	86000
302.036	2130000	86000
301.836	2124000	86000
301.636	2140000	88000
301.436	2139000	88000
301.236	2132000	86000
300.836	2137000	87000
300.637	2130000	86000
300.437	2144000	88000
300.236	2151000	88000
300.036	2150000	88000
299.836	2153000	88000
299.637	2152000	88000
299.437	2169000	89000
299.237	2164000	89000
299.037	2169000	90000
298.837	2145000	88000
298.637	2187000	90000
298.437	2180000	90000
298.237	2198000	91000
298.037	2201000	91000
297.837	2203000	92000
297.637	2228000	93000
297.438	2220000	93000
297.237	2271000	100000
297.038	2338000	176000
296.86	2825000	181000
296.638	2847000	139000
296.437	2659000	135000
296.237	2606000	118000
296.037	2655000	121000
295.838	2578000	117000
295.638	2619000	120000
295.438	2564000	117000
295.238	2557000	116000
295.038	2539000	114000
294.838	2537000	114000
294.638	2512000	113000
294.438	2465000	109000
294.238	2512000	113000
294.038	2479000	112000
293.838	2466000	110000
293.638	2454000	109000
293.438	2452000	109000
293.239	2456000	109000
293.038	2446000	109000
292.839	2430000	107000
292.638	2446000	109000
292.439	2447000	109000
292.238	2412000	107000
292.039	2409000	107000
291.839	2413000	107000
291.638	2400000	106000
