Measured thermophysical data. Phase diagram of the vapor-liquid-liquid-solid equilibrium of the water+NaCl+1-propanol system at 101.3kPa
Source: J. Chem. Thermodyn., 2018, 10.1016/j.jct.2017.10.005
Compound 1: water, H2O, InChI=1S/H2O/h1H2
Compound 2: sodium chloride, ClNa, InChI=1S/ClH.Na/h1H;/q;+1/p-1, purity 99.9%
Compound 3: propan-1-ol, C3H8O, InChI=1S/C3H8O/c1-2-3-4/h4H,2-3H2,1H3, purity 99.5%

System: sodium chloride + water + propan-1-ol; phases: Liquid, Crystal
Fixed: Pressure, kPa = 101.3
Property: Mole fraction of sodium chloride (Liquid); method: gravimetry
Temperature, K	Mole fraction of water	Mole fraction of sodium chloride	uncertainty
361.83	0.367	0.0087	0.0013
362.12	0.313	0.0049	0.0013
362.76	0.252	0.0026	0.002
363.4	0.212	0.0014	0.0002
364.07	0.178	0.0011	0.0002
364.94	0.143	0.00064	0.0004
365.92	0.108	0.00038	0.00037
361.75	0.403	0.0109	0.0015
361.75	0.889	0.1	0.004

System: sodium chloride + water + propan-1-ol; phases: Liquid mixture 1, Liquid mixture 2, Crystal, Gas
Property: Quadruple (quintuple) point temperature, K (Liquid mixture 1); method: Ebulliometric method (Recirculating still)
Pressure, kPa	Quadruple (quintuple) point temperature, K	uncertainty
101.3	361.75	0.15

System: sodium chloride + water + propan-1-ol; phases: Liquid mixture 1, Liquid mixture 2, Crystal, Gas
Property: Mole fraction of sodium chloride (Liquid mixture 1); method: gravimetry
Temperature, K	Mole fraction of sodium chloride	uncertainty
361.75	0.0109	0.0011

System: sodium chloride + water + propan-1-ol; phases: Liquid mixture 2, Liquid mixture 1, Crystal, Gas
Property: Mole fraction of sodium chloride (Liquid mixture 2); method: gravimetry
Temperature, K	Mole fraction of sodium chloride	uncertainty
361.75	0.1	0.004

System: sodium chloride + water + propan-1-ol; phases: Gas, Liquid mixture 1, Crystal, Liquid mixture 2
Property: Mole fraction of sodium chloride (Gas); method: gravimetry
Temperature, K	Mole fraction of sodium chloride	uncertainty
361.75	0	

System: sodium chloride + water + propan-1-ol; phases: Gas, Liquid mixture 1, Crystal, Liquid mixture 2
Property: Mole fraction of water (Gas); method: gravimetry
Temperature, K	Mole fraction of water	uncertainty
361.75	0.505	0.021

System: sodium chloride + water + propan-1-ol; phases: Liquid mixture 1, Liquid mixture 2, Crystal, Gas
Property: Mole fraction of water (Liquid mixture 1); method: gravimetry
Temperature, K	Mole fraction of water	uncertainty
361.75	0.403	0.016

System: sodium chloride + water + propan-1-ol; phases: Liquid mixture 2, Liquid mixture 1, Crystal, Gas
Property: Mole fraction of water (Liquid mixture 2); method: gravimetry
Temperature, K	Mole fraction of water	uncertainty
361.75	0.889	0.005

System: sodium chloride + water + propan-1-ol; phases: Liquid, Gas
Fixed: Pressure, kPa = 101.3
Property: Mole fraction of sodium chloride (Liquid); method: OTHER
Property: Mole fraction of sodium chloride (Gas); method: OTHER
Property: Mole fraction of water (Gas); method: OTHER
Temperature, K	Mole fraction of water	Mole fraction of sodium chloride	uncertainty	Mole fraction of sodium chloride	uncertainty	Mole fraction of water	uncertainty
361.83	0.367	0.0087	0.0009	0		0.478	
362.12	0.313	0.0049	0.0005	0		0.458	
362.76	0.252	0.0026	0.0003	0		0.428	
363.4	0.212	0.0014	0.0002	0		0.393	
364.07	0.178	0.0011	0.0001	0		0.36	
364.94	0.143	0.00064	6e-05	0		0.317	
365.92	0.108	0.00038	4e-05	0		0.27	
361.75	0.403	0.0109	0.0011	0		0.505	
361.75	0.889	0.1	0.01	0		0.505	

System: sodium chloride + water + propan-1-ol; phases: Liquid mixture 1, Liquid mixture 2
Fixed: Pressure, kPa = 101.3
Property: Mole fraction of water (Liquid mixture 1); method: OTHER
Property: Mole fraction of sodium chloride (Liquid mixture 2); method: OTHER
Property: Mole fraction of water (Liquid mixture 2); method: OTHER
Temperature, K	Mole fraction of sodium chloride	Mole fraction of water	uncertainty	Mole fraction of sodium chloride	uncertainty	Mole fraction of water	uncertainty
361.17	0.0553	0.917	0.004	0.0127	0.0013	0.57	
361.2	0.0618	0.915	0.004	0.0125	0.0013	0.537	
361.35	0.073	0.907	0.004	0.012	0.0012	0.486	
361.52	0.0873	0.897	0.005	0.0113	0.0012	0.425	
361.07	0.0372	0.909	0.004	0.0157	0.0016	0.691	
361.11	0.0454	0.914	0.004	0.0145	0.0015	0.652	
361.75	0.1	0.889	0.005	0.0109	0.0011	0.403	

System: sodium chloride + water + propan-1-ol; phases: Liquid, Gas
Fixed: Pressure, kPa = 101.3
Property: Mole fraction of sodium chloride (Liquid); method: gravimetric
Property: Mole fraction of sodium chloride (Gas); method: gravimetric
Property: Mole fraction of water (Gas); method: gravimetric
Temperature, K	Mole fraction of water	Mole fraction of sodium chloride	uncertainty	Mole fraction of sodium chloride	uncertainty	Mole fraction of water	uncertainty
361.07	0.909	0.0372	0.0037	0		0.551	
361.11	0.914	0.0454	0.0045	0		0.552	
361.17	0.917	0.0553	0.0055	0		0.55	
361.2	0.915	0.0618	0.0062	0		0.545	
361.35	0.907	0.073	0.0073	0		0.535	
361.52	0.897	0.0873	0.0087	0		0.526	
361.07	0.691	0.0157	0.0016	0		0.551	
361.11	0.652	0.0145	0.0015	0		0.552	
361.17	0.57	0.0127	0.0013	0		0.55	
361.2	0.537	0.0125	0.0013	0		0.545	
361.35	0.486	0.012	0.0012	0		0.535	
361.52	0.425	0.0113	0.0011	0		0.526	

System: sodium chloride + water + propan-1-ol; phases: Liquid, Gas
Fixed: Pressure, kPa = 101.3
Property: Mole fraction of sodium chloride (Liquid); method: OTHER
Property: Mole fraction of sodium chloride (Gas); method: OTHER
Property: Mole fraction of water (Gas); method: OTHER
Temperature, K	Mole fraction of water	Mole fraction of sodium chloride	uncertainty	Mole fraction of sodium chloride	uncertainty	Mole fraction of water	uncertainty
360.84	0.478	0		0		0.542	
361.19	0.475	0.008	0.0008	0		0.545	
360.85	0.695	0		0		0.584	
360.92	0.694	0.0066	0.0007	0		0.584	
360.99	0.681	0.0123	0.0012	0		0.563	
360.97	0.779	0		0		0.586	
361	0.776	0.0088	0.0009	0		0.579	
361.02	0.763	0.0173	0.0017	0		0.573	
361.2	0.863	0		0		0.587	
361.2	0.854	0.0075	0.0008	0		0.601	
361.1	0.852	0.0148	0.0015	0		0.576	
361.97	0.934	0		0		0.604	
361.67	0.928	0.0075	0.0008	0		0.597	
361.38	0.923	0.0148	0.0015	0		0.595	
361.19	0.917	0.0224	0.0022	0		0.577	

System: water + propan-1-ol; phases: Gas, Liquid
Fixed: Pressure, kPa = 101.3
Property: Boiling temperature at pressure P, K (Gas); method: OTHER
Mole fraction of water	Boiling temperature at pressure P, K	uncertainty
0.542	360.84	1.55
0.584	360.85	1.84
0.586	360.97	2.37
0.587	361.2	4.1
0.604	361.97	1.71

System: water + propan-1-ol; phases: Liquid, Gas
Fixed: Pressure, kPa = 101.3
Property: Boiling temperature at pressure P, K (Liquid); method: Ebulliometric method (Recirculating still)
Mole fraction of water	Boiling temperature at pressure P, K	uncertainty
0.478	360.84	0.15
0.695	360.85	0.15
0.779	360.97	0.15
0.863	361.2	0.15
0.934	361.97	0.15
