Measured thermophysical data. Standard molar enthalpies of formation of the three isomers of chloroanisole
Source: J. Chem. Thermodyn., 2008, 10.1016/j.jct.2007.10.001
Compound 1: hydrogen chloride, ClH, InChI=1S/ClH/h1H
Compound 2: carbon dioxide, CO2, InChI=1S/CO2/c2-1-3
Compound 3: water, H2O, InChI=1S/H2O/h1H2
Compound 4: oxygen, O2, InChI=1S/O2/c1-2
Compound 5: 4-chlorobenzoic acid, C7H5ClO2, InChI=1S/C7H5ClO2/c8-6-3-1-5(2-4-6)7(9)10/h1-4H,(H,9,10), purity 99%
Compound 6: 1-chloro-2-methoxybenzene, C7H7ClO, InChI=1S/C7H7ClO/c1-9-7-5-3-2-4-6(7)8/h2-5H,1H3, purity 98%
Compound 7: 3-chloromethoxybenzene, C7H7ClO, InChI=1S/C7H7ClO/c1-9-7-4-2-3-6(8)5-7/h2-5H,1H3, purity 98%
Compound 8: 4-chloromethoxybenzene, C7H7ClO, InChI=1S/C7H7ClO/c1-9-7-4-2-6(8)3-5-7/h2-5H,1H3, purity 98%

System: 1-chloro-2-methoxybenzene; phases: Liquid, Gas
Property: Molar enthalpy of vaporization or sublimation, kJ/mol (Liquid); method: Calvet calorimetry with estimated adjustment using gas-phase Cp
Temperature, K	Molar enthalpy of vaporization or sublimation, kJ/mol	uncertainty
298.15	55	1.6

System: 1-chloro-2-methoxybenzene; phases: Gas
Property: Molar enthalpy, kJ/mol (Gas); method: calvet microcalorimetry
Temperature, K	Pressure, kPa	Molar enthalpy, kJ/mol	uncertainty
324.1	101	58.7	0.2

System: 3-chloromethoxybenzene; phases: Liquid, Gas
Property: Molar enthalpy of vaporization or sublimation, kJ/mol (Liquid); method: Calvet calorimetry with estimated adjustment using gas-phase Cp
Temperature, K	Molar enthalpy of vaporization or sublimation, kJ/mol	uncertainty
298.15	53.6	1.6

System: 3-chloromethoxybenzene; phases: Gas
Property: Molar enthalpy, kJ/mol (Gas); method: calvet microcalorimetry
Temperature, K	Pressure, kPa	Molar enthalpy, kJ/mol	uncertainty
324.1	101	57.3	0.4

System: 4-chloromethoxybenzene; phases: Liquid, Gas
Property: Molar enthalpy of vaporization or sublimation, kJ/mol (Liquid); method: Calvet calorimetry with estimated adjustment using gas-phase Cp
Temperature, K	Molar enthalpy of vaporization or sublimation, kJ/mol	uncertainty
298.15	54.8	1.6

System: 4-chloromethoxybenzene; phases: Gas
Property: Molar enthalpy, kJ/mol (Gas); method: calvet microcalorimetry
Temperature, K	Pressure, kPa	Molar enthalpy, kJ/mol	uncertainty
324	101	58.5	0.4

Reaction: -1 4-chlorobenzoic acid + 1 hydrogen chloride + 7 carbon dioxide + 2 water + -7 oxygen
Property: Specific internal energy of reaction at constant volume, J/g
-19568.6

Reaction: -1 1-chloro-2-methoxybenzene + 1 hydrogen chloride + 7 carbon dioxide + 3 water + -8 oxygen
Property: Specific internal energy of reaction at constant volume, J/g
-25402.3

Reaction: -1 3-chloromethoxybenzene + 1 hydrogen chloride + 7 carbon dioxide + 3 water + -8 oxygen
Property: Specific internal energy of reaction at constant volume, J/g
-25359.6

Reaction: -1 4-chloromethoxybenzene + 1 hydrogen chloride + 7 carbon dioxide + 3 water + -8 oxygen
Property: Specific internal energy of reaction at constant volume, J/g
-25382.8
