Measured thermophysical data. Densities, viscosities, and isobaric heat capacities of the system (1-butanol + cyclohexane) at high pressures
Source: J. Chem. Thermodyn., 2014, 10.1016/j.jct.2014.01.020
Compound 1: butan-1-ol, C4H10O, InChI=1S/C4H10O/c1-2-3-4-5/h5H,2-4H2,1H3
Compound 2: cyclohexane, C6H12, InChI=1S/C6H12/c1-2-4-6-5-3-1/h1-6H2

System: cyclohexane; phases: Liquid
Property: Mass density, kg/m3 (Liquid); method: Vibrating tube method
Temperature, K	Pressure, kPa	Mass density, kg/m3	uncertainty
293.15	100	778.4	0.7
293.15	1000	779.1	0.7
293.15	2000	779.9	0.7
293.15	5000	782.4	0.7
293.15	10000	786.3	0.7
293.15	15000	789.9	0.7
293.15	20000	793.4	0.7
303.15	100	769	0.7
303.15	1000	769.8	0.7
303.15	2000	770.7	0.7
303.15	5000	773.3	0.7
303.15	10000	777.5	0.7
303.15	15000	781.3	0.7
303.15	20000	785.1	0.8
303.15	30000	792.1	0.8
303.15	40000	798.5	0.8
313.15	100	759.7	0.7
313.15	1000	760.3	0.7
313.15	2000	761.2	0.7
313.15	5000	764	0.7
313.15	10000	768.4	0.7
313.15	15000	772.6	0.7
313.15	20000	776.6	0.8
313.15	30000	784.1	0.8
313.15	40000	790.9	0.8
323.15	100	750.1	0.7
323.15	1000	750.8	0.7
323.15	2000	751.8	0.7
323.15	5000	754.8	0.7
323.15	10000	759.5	0.7
323.15	15000	763.9	0.7
323.15	20000	768.2	0.8
323.15	30000	776.1	0.8
323.15	40000	783.2	0.8
333.15	100	740.3	0.7
333.15	1000	741.1	0.7
333.15	2000	742.2	0.7
333.15	5000	745.5	0.7
333.15	10000	750.5	0.7
333.15	15000	755.3	0.7
333.15	20000	759.7	0.8
333.15	30000	768.1	0.8
333.15	40000	775.6	0.8

System: cyclohexane; phases: Liquid
Fixed: Pressure, kPa = 101
Property: Viscosity, Pa*s (Liquid); method: Concentric cylinders viscometry
Temperature, K	Viscosity, Pa*s	uncertainty
293.15	0.00098	2.1e-05
303.15	0.000824	1.8e-05
313.15	0.000701	1.5e-05
323.15	0.000593	1.3e-05
333.15	0.000522	1.2e-05

System: cyclohexane; phases: Liquid
Property: Molar heat capacity at constant pressure, J/K/mol (Liquid); method: Flow calorimetry
Temperature, K	Pressure, kPa	Molar heat capacity at constant pressure, J/K/mol	uncertainty
293.15	100	154.7	1.6
293.15	5000	153.8	1.6
293.15	10000	152.5	1.5
293.15	15000	150.5	1.5
293.15	20000	149.7	1.5
293.15	25000	147.7	1.5
313.15	25000	154.6	1.6

System: butan-1-ol + cyclohexane; phases: Liquid
Property: Mass density, kg/m3 (Liquid); method: Vibrating tube method
Mole fraction of butan-1-ol	Temperature, K	Pressure, kPa	Mass density, kg/m3	uncertainty
0.1	293.15	100	779.5	0.7
0.1	293.15	1000	780.2	0.7
0.1	293.15	2000	781	0.7
0.1	293.15	5000	783.5	0.7
0.1	293.15	10000	787.3	0.7
0.1	293.15	15000	791.1	0.7
0.1	293.15	20000	794.5	0.7
0.1	303.15	100	770.1	0.7
0.1	303.15	1000	770.8	0.7
0.1	303.15	2000	771.7	0.7
0.1	303.15	5000	774.4	0.7
0.1	303.15	10000	778.5	0.7
0.1	303.15	15000	782.4	0.7
0.1	303.15	20000	786.2	0.8
0.1	303.15	30000	793.2	0.8
0.1	303.15	40000	799.6	0.8
0.1	313.15	100	760.4	0.7
0.1	313.15	1000	761.3	0.7
0.1	313.15	2000	762.2	0.7
0.1	313.15	5000	765.1	0.7
0.1	313.15	10000	769.5	0.7
0.1	313.15	15000	773.6	0.7
0.1	313.15	20000	777.7	0.8
0.1	313.15	30000	785.1	0.8
0.1	313.15	40000	791.9	0.8
0.1	313.15	50000	798.3	0.8
0.1	313.15	60000	804.2	0.9
0.1	323.15	100	750.6	0.7
0.1	323.15	1000	751.6	0.7
0.1	323.15	2000	752.6	0.7
0.1	323.15	5000	755.6	0.7
0.1	323.15	10000	760.3	0.7
0.1	323.15	15000	764.8	0.7
0.1	323.15	20000	769	0.8
0.1	323.15	30000	776.9	0.8
0.1	323.15	40000	784.2	0.8
0.1	323.15	50000	790.8	0.9
0.1	323.15	60000	797.2	0.9
0.1	323.15	70000	802.9	0.9
0.1	323.15	80000	808.6	1
0.1	333.15	100	740.7	0.7
0.1	333.15	1000	741.7	0.7
0.1	333.15	2000	742.8	0.7
0.1	333.15	5000	746.1	0.7
0.1	333.15	10000	751.1	0.7
0.1	333.15	15000	755.9	0.7
0.1	333.15	20000	760.5	0.8
0.1	333.15	30000	768.9	0.8
0.1	333.15	40000	776.5	0.8
0.1	333.15	50000	783.5	0.9
0.1	333.15	60000	790	0.9
0.1	333.15	70000	796.1	0.9
0.1	333.15	80000	801.9	1
0.1	333.15	90000	807.3	1
0.1	333.15	100000	812.4	1
0.2	293.15	100	781.4	0.7
0.2	293.15	1000	782	0.7
0.2	293.15	2000	782.9	0.7
0.2	293.15	5000	785.3	0.7
0.2	293.15	10000	789.2	0.7
0.2	293.15	15000	792.8	0.7
0.2	293.15	20000	796.3	0.7
0.2	303.15	100	772	0.7
0.2	303.15	1000	772.8	0.7
0.2	303.15	2000	773.7	0.7
0.2	303.15	5000	776.3	0.7
0.2	303.15	10000	780.4	0.7
0.2	303.15	15000	784.3	0.7
0.2	303.15	20000	788	0.8
0.2	303.15	30000	795	0.8
0.2	303.15	40000	801.4	0.8
0.2	313.15	100	762.5	0.7
0.2	313.15	1000	763.3	0.7
0.2	313.15	2000	764.3	0.7
0.2	313.15	5000	767.1	0.7
0.2	313.15	10000	771.5	0.7
0.2	313.15	15000	775.6	0.7
0.2	313.15	20000	779.5	0.8
0.2	313.15	30000	787	0.8
0.2	313.15	40000	793.7	0.8
0.2	313.15	50000	800.1	0.8
0.2	313.15	60000	806	0.9
0.2	323.15	100	752.8	0.7
0.2	323.15	1000	753.8	0.7
0.2	323.15	2000	754.8	0.7
0.2	323.15	5000	757.8	0.7
0.2	323.15	10000	762.5	0.7
0.2	323.15	15000	766.9	0.7
0.2	323.15	20000	771.1	0.8
0.2	323.15	30000	779	0.8
0.2	323.15	40000	786.1	0.8
0.2	323.15	50000	792.8	0.8
0.2	323.15	60000	799	0.9
0.2	323.15	70000	804.6	0.9
0.2	323.15	80000	810.1	1
0.2	333.15	100	743	0.7
0.2	333.15	1000	744	0.7
0.2	333.15	2000	745.1	0.7
0.2	333.15	5000	748.3	0.7
0.2	333.15	10000	753.3	0.7
0.2	333.15	15000	758	0.7
0.2	333.15	20000	762.5	0.8
0.2	333.15	30000	770.8	0.8
0.2	333.15	40000	778.3	0.8
0.2	333.15	50000	785.2	0.9
0.2	333.15	60000	791.7	0.9
0.2	333.15	70000	797.7	0.9
0.2	333.15	80000	803.3	1
0.2	333.15	90000	808.7	1
0.2	333.15	100000	813.8	1
0.3003	293.15	100	783.9	0.7
0.3003	293.15	1000	784.5	0.7
0.3003	293.15	2000	785.3	0.7
0.3003	293.15	5000	787.7	0.7
0.3003	293.15	10000	791.6	0.7
0.3003	293.15	15000	795.2	0.7
0.3003	293.15	20000	798.6	0.7
0.3003	303.15	100	774.6	0.7
0.3003	303.15	1000	775.3	0.7
0.3003	303.15	2000	776.2	0.7
0.3003	303.15	5000	778.8	0.7
0.3003	303.15	10000	782.9	0.7
0.3003	303.15	15000	786.7	0.7
0.3003	303.15	20000	790.4	0.7
0.3003	303.15	30000	797.4	0.8
0.3003	303.15	40000	803.8	0.8
0.3003	313.15	100	765.2	0.7
0.3003	313.15	1000	766.1	0.7
0.3003	313.15	2000	767	0.7
0.3003	313.15	5000	769.7	0.7
0.3003	313.15	10000	774.1	0.7
0.3003	313.15	15000	778.2	0.7
0.3003	313.15	20000	782.1	0.8
0.3003	313.15	30000	789.4	0.8
0.3003	313.15	40000	796.2	0.8
0.3003	313.15	50000	802.5	0.8
0.3003	313.15	60000	808.4	0.9
0.3003	323.15	100	755.6	0.7
0.3003	323.15	1000	756.6	0.7
0.3003	323.15	2000	757.6	0.7
0.3003	323.15	5000	760.5	0.7
0.3003	323.15	10000	765.2	0.7
0.3003	323.15	15000	769.6	0.7
0.3003	323.15	20000	773.7	0.8
0.3003	323.15	30000	781.6	0.8
0.3003	323.15	40000	788.6	0.8
0.3003	323.15	50000	795.1	0.8
0.3003	323.15	60000	801.4	0.9
0.3003	323.15	70000	806.9	0.9
0.3003	323.15	80000	812.3	0.9
0.3003	333.15	100	745.9	0.7
0.3003	333.15	1000	746.9	0.7
0.3003	333.15	2000	748	0.7
0.3003	333.15	5000	751.1	0.7
0.3003	333.15	10000	756.1	0.7
0.3003	333.15	15000	760.8	0.7
0.3003	333.15	20000	765.2	0.8
0.3003	333.15	30000	773.4	0.8
0.3003	333.15	40000	780.8	0.8
0.3003	333.15	50000	787.7	0.9
0.3003	333.15	60000	794.1	0.9
0.3003	333.15	70000	800	0.9
0.3003	333.15	80000	805.7	1
0.3003	333.15	90000	810.9	1
0.3003	333.15	100000	816	1
0.4005	293.15	100	786.6	0.7
0.4005	293.15	1000	787.3	0.7
0.4005	293.15	2000	788.1	0.7
0.4005	293.15	5000	790.5	0.7
0.4005	293.15	10000	794.3	0.7
0.4005	293.15	15000	797.8	0.7
0.4005	293.15	20000	801.3	0.7
0.4005	303.15	100	777.6	0.7
0.4005	303.15	1000	778.3	0.7
0.4005	303.15	2000	779.2	0.7
0.4005	303.15	5000	781.7	0.7
0.4005	303.15	10000	785.7	0.7
0.4005	303.15	15000	789.6	0.7
0.4005	303.15	20000	793.2	0.7
0.4005	303.15	30000	800.2	0.8
0.4005	303.15	40000	806.5	0.8
0.4005	313.15	100	768.4	0.7
0.4005	313.15	1000	769.2	0.7
0.4005	313.15	2000	770.1	0.7
0.4005	313.15	5000	772.8	0.7
0.4005	313.15	10000	777.1	0.7
0.4005	313.15	15000	781.2	0.7
0.4005	313.15	20000	785	0.8
0.4005	313.15	30000	792.3	0.8
0.4005	313.15	40000	799	0.8
0.4005	313.15	50000	805.1	0.8
0.4005	313.15	60000	810.9	0.9
0.4005	323.15	100	758.9	0.7
0.4005	323.15	1000	759.9	0.7
0.4005	323.15	2000	760.8	0.7
0.4005	323.15	5000	763.7	0.7
0.4005	323.15	10000	768.3	0.7
0.4005	323.15	15000	772.7	0.7
0.4005	323.15	20000	776.7	0.8
0.4005	323.15	30000	784.4	0.8
0.4005	323.15	40000	791.4	0.8
0.4005	323.15	50000	797.9	0.8
0.4005	323.15	60000	804.1	0.9
0.4005	323.15	70000	809.6	0.9
0.4005	323.15	80000	815	0.9
0.4005	333.15	100	749.4	0.7
0.4005	333.15	1000	750.3	0.7
0.4005	333.15	2000	751.4	0.7
0.4005	333.15	5000	754.5	0.7
0.4005	333.15	10000	759.4	0.7
0.4005	333.15	15000	764	0.7
0.4005	333.15	20000	768.4	0.8
0.4005	333.15	30000	776.4	0.8
0.4005	333.15	40000	783.8	0.8
0.4005	333.15	50000	790.6	0.9
0.4005	333.15	60000	797	0.9
0.4005	333.15	70000	802.9	0.9
0.4005	333.15	80000	808.4	1
0.4005	333.15	90000	813.7	1
0.4005	333.15	100000	818.7	1
0.4997	293.15	100	789.7	0.7
0.4997	293.15	1000	790.3	0.7
0.4997	293.15	2000	791.1	0.7
0.4997	293.15	5000	793.4	0.7
0.4997	293.15	10000	797.2	0.7
0.4997	293.15	15000	800.8	0.7
0.4997	293.15	20000	804.2	0.7
0.4997	303.15	100	780.9	0.7
0.4997	303.15	1000	781.6	0.7
0.4997	303.15	2000	782.5	0.7
0.4997	303.15	5000	785	0.7
0.4997	303.15	10000	788.9	0.7
0.4997	303.15	15000	792.7	0.7
0.4997	303.15	20000	796.3	0.7
0.4997	303.15	30000	803.1	0.8
0.4997	303.15	40000	809.4	0.8
0.4997	313.15	100	771.8	0.7
0.4997	313.15	1000	772.7	0.7
0.4997	313.15	2000	773.6	0.7
0.4997	313.15	5000	776.2	0.7
0.4997	313.15	10000	780.5	0.7
0.4997	313.15	15000	784.4	0.7
0.4997	313.15	20000	788.3	0.8
0.4997	313.15	30000	795.4	0.8
0.4997	313.15	40000	802	0.8
0.4997	313.15	50000	808.1	0.8
0.4997	313.15	60000	813.8	0.9
0.4997	323.15	100	762.6	0.7
0.4997	323.15	1000	763.5	0.7
0.4997	323.15	2000	764.5	0.7
0.4997	323.15	5000	767.3	0.7
0.4997	323.15	10000	771.8	0.7
0.4997	323.15	15000	776.1	0.7
0.4997	323.15	20000	780.1	0.8
0.4997	323.15	30000	787.7	0.8
0.4997	323.15	40000	794.6	0.8
0.4997	323.15	50000	801	0.8
0.4997	323.15	60000	807	0.9
0.4997	323.15	70000	812.6	0.9
0.4997	323.15	80000	817.9	0.9
0.4997	333.15	100	753.1	0.7
0.4997	333.15	1000	754.1	0.7
0.4997	333.15	2000	755.2	0.7
0.4997	333.15	5000	758.2	0.7
0.4997	333.15	10000	763	0.7
0.4997	333.15	15000	767.5	0.7
0.4997	333.15	20000	771.8	0.8
0.4997	333.15	30000	779.8	0.8
0.4997	333.15	40000	787	0.8
0.4997	333.15	50000	793.7	0.8
0.4997	333.15	60000	800.1	0.9
0.4997	333.15	70000	805.8	0.9
0.4997	333.15	80000	811.3	0.9
0.4997	333.15	90000	816.5	1
0.4997	333.15	100000	821.5	1
0.6001	293.15	100	793.1	0.7
0.6001	293.15	1000	793.7	0.7
0.6001	293.15	2000	794.5	0.7
0.6001	293.15	5000	796.9	0.7
0.6001	293.15	10000	800.5	0.7
0.6001	293.15	15000	804	0.7
0.6001	293.15	20000	807.4	0.7
0.6001	303.15	100	784.5	0.7
0.6001	303.15	1000	785.2	0.7
0.6001	303.15	2000	786	0.7
0.6001	303.15	5000	788.5	0.7
0.6001	303.15	10000	792.5	0.7
0.6001	303.15	15000	796.1	0.7
0.6001	303.15	20000	799.6	0.7
0.6001	303.15	30000	806.4	0.8
0.6001	303.15	40000	812.6	0.8
0.6001	313.15	100	775.7	0.7
0.6001	313.15	1000	776.5	0.7
0.6001	313.15	2000	777.4	0.7
0.6001	313.15	5000	780	0.7
0.6001	313.15	10000	784.1	0.7
0.6001	313.15	15000	788	0.7
0.6001	313.15	20000	791.8	0.7
0.6001	313.15	30000	798.9	0.8
0.6001	313.15	40000	805.3	0.8
0.6001	313.15	50000	811.4	0.8
0.6001	313.15	60000	817	0.9
0.6001	323.15	100	766.6	0.7
0.6001	323.15	1000	767.5	0.7
0.6001	323.15	2000	768.5	0.7
0.6001	323.15	5000	771.3	0.7
0.6001	323.15	10000	775.7	0.7
0.6001	323.15	15000	779.9	0.7
0.6001	323.15	20000	783.8	0.8
0.6001	323.15	30000	791.2	0.8
0.6001	323.15	40000	798.1	0.8
0.6001	323.15	50000	804.4	0.8
0.6001	323.15	60000	810.5	0.9
0.6001	323.15	70000	815.8	0.9
0.6001	323.15	80000	821.1	0.9
0.6001	333.15	100	757.4	0.7
0.6001	333.15	1000	758.4	0.7
0.6001	333.15	2000	759.4	0.7
0.6001	333.15	5000	762.4	0.7
0.6001	333.15	10000	767.1	0.7
0.6001	333.15	15000	771.5	0.7
0.6001	333.15	20000	775.7	0.8
0.6001	333.15	30000	783.6	0.8
0.6001	333.15	40000	790.7	0.8
0.6001	333.15	50000	797.2	0.8
0.6001	333.15	60000	803.4	0.9
0.6001	333.15	70000	809.2	0.9
0.6001	333.15	80000	814.6	0.9
0.6001	333.15	90000	819.8	1
0.6001	333.15	100000	824.7	1
0.6999	293.15	100	796.8	0.7
0.6999	293.15	1000	797.4	0.7
0.6999	293.15	2000	798.2	0.7
0.6999	293.15	5000	800.4	0.7
0.6999	293.15	10000	804	0.7
0.6999	293.15	15000	807.5	0.7
0.6999	293.15	20000	810.8	0.7
0.6999	303.15	100	788.5	0.7
0.6999	303.15	1000	789.1	0.7
0.6999	303.15	2000	789.9	0.7
0.6999	303.15	5000	792.4	0.7
0.6999	303.15	10000	796.2	0.7
0.6999	303.15	15000	799.8	0.7
0.6999	303.15	20000	803.3	0.7
0.6999	303.15	30000	810	0.8
0.6999	303.15	40000	816.1	0.8
0.6999	313.15	100	779.8	0.7
0.6999	313.15	1000	780.6	0.7
0.6999	313.15	2000	781.5	0.7
0.6999	313.15	5000	784.1	0.7
0.6999	313.15	10000	788.1	0.7
0.6999	313.15	15000	791.9	0.7
0.6999	313.15	20000	795.6	0.7
0.6999	313.15	30000	802.6	0.8
0.6999	313.15	40000	809	0.8
0.6999	313.15	50000	815	0.8
0.6999	313.15	60000	820.5	0.9
0.6999	323.15	100	771.1	0.7
0.6999	323.15	1000	771.9	0.7
0.6999	323.15	2000	772.9	0.7
0.6999	323.15	5000	775.6	0.7
0.6999	323.15	10000	779.9	0.7
0.6999	323.15	15000	783.9	0.7
0.6999	323.15	20000	787.9	0.8
0.6999	323.15	30000	795.2	0.8
0.6999	323.15	40000	801.8	0.8
0.6999	323.15	50000	808	0.8
0.6999	323.15	60000	814	0.9
0.6999	323.15	70000	819.3	0.9
0.6999	323.15	80000	824.5	0.9
0.6999	333.15	100	762.1	0.7
0.6999	333.15	1000	763	0.7
0.6999	333.15	2000	764	0.7
0.6999	333.15	5000	766.9	0.7
0.6999	333.15	10000	771.5	0.7
0.6999	333.15	15000	775.8	0.7
0.6999	333.15	20000	780	0.8
0.6999	333.15	30000	787.6	0.8
0.6999	333.15	40000	794.6	0.8
0.6999	333.15	50000	801.1	0.8
0.6999	333.15	60000	807.1	0.9
0.6999	333.15	70000	812.9	0.9
0.6999	333.15	80000	818.3	0.9
0.6999	333.15	90000	823.3	1
0.6999	333.15	100000	828.1	1
0.7998	293.15	100	800.7	0.7
0.7998	293.15	1000	801.3	0.7
0.7998	293.15	2000	802	0.7
0.7998	293.15	5000	804.3	0.7
0.7998	293.15	10000	807.9	0.7
0.7998	293.15	15000	811.3	0.7
0.7998	293.15	20000	814.5	0.7
0.7998	303.15	100	792.3	0.7
0.7998	303.15	1000	793.2	0.7
0.7998	303.15	2000	794.1	0.7
0.7998	303.15	5000	796.4	0.7
0.7998	303.15	10000	800.2	0.7
0.7998	303.15	15000	803.8	0.7
0.7998	303.15	20000	807.2	0.7
0.7998	303.15	30000	813.8	0.8
0.7998	303.15	40000	819.8	0.8
0.7998	313.15	100	784.3	0.7
0.7998	313.15	1000	785	0.7
0.7998	313.15	2000	785.9	0.7
0.7998	313.15	5000	788.4	0.7
0.7998	313.15	10000	792.4	0.7
0.7998	313.15	15000	796.1	0.7
0.7998	313.15	20000	799.8	0.7
0.7998	313.15	30000	806.6	0.8
0.7998	313.15	40000	812.9	0.8
0.7998	313.15	50000	818.8	0.8
0.7998	313.15	60000	824.4	0.8
0.7998	323.15	100	775.7	0.7
0.7998	323.15	1000	776.6	0.7
0.7998	323.15	2000	777.5	0.7
0.7998	323.15	5000	780.1	0.7
0.7998	323.15	10000	784.4	0.7
0.7998	323.15	15000	788.3	0.7
0.7998	323.15	20000	792.2	0.7
0.7998	323.15	30000	799.3	0.8
0.7998	323.15	40000	805.9	0.8
0.7998	323.15	50000	812	0.8
0.7998	323.15	60000	817.9	0.9
0.7998	323.15	70000	823.2	0.9
0.7998	323.15	80000	828.3	0.9
0.7998	333.15	100	767	0.7
0.7998	333.15	1000	767.9	0.7
0.7998	333.15	2000	768.9	0.7
0.7998	333.15	5000	771.8	0.7
0.7998	333.15	10000	776.2	0.7
0.7998	333.15	15000	780.4	0.7
0.7998	333.15	20000	784.5	0.8
0.7998	333.15	30000	792	0.8
0.7998	333.15	40000	798.8	0.8
0.7998	333.15	50000	805.2	0.8
0.7998	333.15	60000	811.2	0.9
0.7998	333.15	70000	816.8	0.9
0.7998	333.15	80000	822.1	0.9
0.7998	333.15	90000	827.2	1
0.7998	333.15	100000	831.9	1
0.8999	293.15	100	805	0.7
0.8999	293.15	1000	805.6	0.7
0.8999	293.15	2000	806.3	0.7
0.8999	293.15	5000	808.5	0.7
0.8999	293.15	10000	812	0.7
0.8999	293.15	15000	815.4	0.7
0.8999	293.15	20000	818.6	0.7
0.8999	303.15	100	797.1	0.7
0.8999	303.15	1000	797.8	0.7
0.8999	303.15	2000	798.6	0.7
0.8999	303.15	5000	800.9	0.7
0.8999	303.15	10000	804.6	0.7
0.8999	303.15	15000	808.1	0.7
0.8999	303.15	20000	811.5	0.7
0.8999	303.15	30000	817.9	0.8
0.8999	303.15	40000	823.8	0.8
0.8999	313.15	100	789.1	0.7
0.8999	313.15	1000	789.8	0.7
0.8999	313.15	2000	790.7	0.7
0.8999	313.15	5000	793.1	0.7
0.8999	313.15	10000	797	0.7
0.8999	313.15	15000	800.6	0.7
0.8999	313.15	20000	804.2	0.7
0.8999	313.15	30000	811	0.8
0.8999	313.15	40000	817.1	0.8
0.8999	313.15	50000	822.9	0.8
0.8999	313.15	60000	828.3	0.8
0.8999	323.15	100	780.7	0.7
0.8999	323.15	1000	781.6	0.7
0.8999	323.15	2000	782.5	0.7
0.8999	323.15	5000	785.1	0.7
0.8999	323.15	10000	789.2	0.7
0.8999	323.15	15000	793.1	0.7
0.8999	323.15	20000	796.8	0.7
0.8999	323.15	30000	803.9	0.8
0.8999	323.15	40000	810.3	0.8
0.8999	323.15	50000	816.3	0.8
0.8999	323.15	60000	822.1	0.9
0.8999	323.15	70000	827.3	0.9
0.8999	323.15	80000	832.3	0.9
0.8999	333.15	100	772.4	0.7
0.8999	333.15	1000	773.3	0.7
0.8999	333.15	2000	774.2	0.7
0.8999	333.15	5000	777	0.7
0.8999	333.15	10000	781.3	0.7
0.8999	333.15	15000	785.4	0.7
0.8999	333.15	20000	789.4	0.7
0.8999	333.15	30000	796.7	0.8
0.8999	333.15	40000	803.4	0.8
0.8999	333.15	50000	809.7	0.8
0.8999	333.15	60000	815.6	0.9
0.8999	333.15	70000	821.2	0.9
0.8999	333.15	80000	826.3	0.9
0.8999	333.15	90000	831.3	0.9
0.8999	333.15	100000	836	1

System: butan-1-ol + cyclohexane; phases: Liquid
Fixed: Pressure, kPa = 101
Property: Viscosity, Pa*s (Liquid); method: Concentric cylinders viscometry
Temperature, K	Mole fraction of butan-1-ol	Viscosity, Pa*s	uncertainty
293.15	0.8996	0.002576	5.3e-05
293.15	0.7997	0.002243	4.6e-05
293.15	0.7001	0.00195	4e-05
293.15	0.6001	0.00169	3.5e-05
293.15	0.4997	0.001462	3e-05
293.15	0.4006	0.001277	2.7e-05
293.15	0.2998	0.00111	2.3e-05
293.15	0.1991	0.001042	2.2e-05
293.15	0.1073	0.000997	2.1e-05
293.15	0	0.00098	2.1e-05
303.15	0.8996	0.001998	4.1e-05
303.15	0.7997	0.001747	3.6e-05
303.15	0.7001	0.001528	3.2e-05
303.15	0.6001	0.001337	2.8e-05
303.15	0.4997	0.00117	2.4e-05
303.15	0.4006	0.001038	2.2e-05
303.15	0.2998	0.000924	2e-05
303.15	0.1991	0.00087	1.8e-05
303.15	0.1073	0.000837	1.8e-05
303.15	0	0.000824	1.8e-05
313.15	0.8996	0.001573	3.3e-05
313.15	0.7997	0.001382	2.9e-05
313.15	0.7001	0.001218	2.5e-05
313.15	0.6001	0.001074	2.3e-05
313.15	0.4997	0.00095	2e-05
313.15	0.4006	0.000855	1.8e-05
313.15	0.2998	0.000772	1.7e-05
313.15	0.1991	0.000731	1.6e-05
313.15	0.1073	0.000708	1.5e-05
313.15	0	0.000701	1.5e-05
323.15	0.8996	0.001255	2.6e-05
323.15	0.7997	0.001106	2.3e-05
323.15	0.7001	0.00099	2.1e-05
323.15	0.6001	0.000868	1.8e-05
323.15	0.4997	0.000776	1.7e-05
323.15	0.4006	0.000704	1.5e-05
323.15	0.2998	0.000659	1.4e-05
323.15	0.1991	0.000613	1.3e-05
323.15	0.1073	0.000596	1.3e-05
323.15	0	0.000593	1.3e-05
333.15	0.8996	0.001011	2.1e-05
333.15	0.7997	0.000889	1.9e-05
333.15	0.7001	0.0008	1.7e-05
333.15	0.6001	0.000723	1.6e-05
333.15	0.4997	0.000657	1.4e-05
333.15	0.4006	0.000605	1.3e-05
333.15	0.2998	0.000565	1.2e-05
333.15	0.1991	0.000535	1.2e-05
333.15	0.1073	0.000522	1.2e-05
333.15	0	0.000522	1.2e-05

System: butan-1-ol + cyclohexane; phases: Liquid
Property: Molar heat capacity at constant pressure, J/K/mol (Liquid); method: Flow calorimetry
Temperature, K	Pressure, kPa	Mole fraction of butan-1-ol	Molar heat capacity at constant pressure, J/K/mol	uncertainty
293.15	100	0	154.7	1.6
293.15	100	0.1013	164.6	1.7
293.15	100	0.2003	166.7	1.7
293.15	100	0.3002	168.6	1.7
293.15	100	0.4013	170.9	1.7
293.15	100	0.4997	171.2	1.7
293.15	100	0.6002	171.4	1.7
293.15	100	0.6999	172.1	1.7
293.15	100	0.7998	172.2	1.7
293.15	100	0.8999	172.8	1.7
293.15	5000	0	153.8	1.6
293.15	5000	0.1013	163.3	1.7
293.15	5000	0.2003	165.3	1.7
293.15	5000	0.3002	167.1	1.7
293.15	5000	0.4013	169.5	1.7
293.15	5000	0.4997	169.7	1.7
293.15	5000	0.6002	170.2	1.7
293.15	5000	0.6999	170.6	1.7
293.15	5000	0.7998	171	1.7
293.15	5000	0.8999	171.9	1.7
293.15	10000	0	152.5	1.5
293.15	10000	0.1013	161.2	1.6
293.15	10000	0.2003	163.5	1.7
293.15	10000	0.3002	165.4	1.7
293.15	10000	0.4013	167.7	1.7
293.15	10000	0.4997	168.2	1.7
293.15	10000	0.6002	168.6	1.7
293.15	10000	0.6999	169.4	1.7
293.15	10000	0.7998	169.5	1.7
293.15	10000	0.8999	170.4	1.7
293.15	15000	0	150.5	1.5
293.15	15000	0.1013	159.1	1.6
293.15	15000	0.2003	161	1.6
293.15	15000	0.3002	163.4	1.7
293.15	15000	0.4013	165.5	1.7
293.15	15000	0.4997	165.9	1.7
293.15	15000	0.6002	166.3	1.7
293.15	15000	0.6999	168	1.7
293.15	15000	0.7998	168.3	1.7
293.15	15000	0.8999	169.1	1.7
293.15	20000	0	149.7	1.5
293.15	20000	0.1013	157.5	1.6
293.15	20000	0.2003	159.3	1.6
293.15	20000	0.3002	161.7	1.6
293.15	20000	0.4013	164.4	1.7
293.15	20000	0.4997	164.9	1.7
293.15	20000	0.6002	164.8	1.7
293.15	20000	0.6999	167.1	1.7
293.15	20000	0.7998	167.1	1.7
293.15	20000	0.8999	167.7	1.7
293.15	25000	0	147.7	1.5
293.15	25000	0.1013	155.9	1.6
293.15	25000	0.2003	157.8	1.6
293.15	25000	0.3002	160.3	1.6
293.15	25000	0.4013	162.8	1.6
293.15	25000	0.4997	163.1	1.6
293.15	25000	0.6002	163.4	1.7
293.15	25000	0.6999	165.6	1.7
293.15	25000	0.7998	166	1.7
293.15	25000	0.8999	166.6	1.7
313.15	100	0.1013	179.7	1.8
313.15	100	0.2003	182.8	1.8
313.15	100	0.3002	185.3	1.9
313.15	100	0.4013	187.8	1.9
313.15	100	0.4997	188.1	1.9
313.15	100	0.6002	189.4	1.9
313.15	100	0.6999	191.3	1.9
313.15	100	0.7998	191.4	1.9
313.15	100	0.8999	191.1	1.9
313.15	5000	0.1013	177.4	1.8
313.15	5000	0.2003	180.4	1.8
313.15	5000	0.3002	183.2	1.9
313.15	5000	0.4013	186.1	1.9
313.15	5000	0.4997	186.5	1.9
313.15	5000	0.6002	187.4	1.9
313.15	5000	0.6999	189.1	1.9
313.15	5000	0.7998	189.9	1.9
313.15	5000	0.8999	189.3	1.9
313.15	10000	0.1013	175.2	1.8
313.15	10000	0.2003	178.8	1.8
313.15	10000	0.3002	181.1	1.8
313.15	10000	0.4013	183.7	1.9
313.15	10000	0.4997	184.5	1.9
313.15	10000	0.6002	185.4	1.9
313.15	10000	0.6999	187.4	1.9
313.15	10000	0.7998	188.9	1.9
313.15	10000	0.8999	187.3	1.9
313.15	15000	0.1013	172.9	1.7
313.15	15000	0.2003	175.8	1.8
313.15	15000	0.3002	178.9	1.8
313.15	15000	0.4013	181.6	1.8
313.15	15000	0.4997	182.7	1.8
313.15	15000	0.6002	183.8	1.9
313.15	15000	0.6999	185.5	1.9
313.15	15000	0.7998	187.2	1.9
313.15	15000	0.8999	186.5	1.9
313.15	20000	0.1013	170.5	1.7
313.15	20000	0.2003	173.8	1.8
313.15	20000	0.3002	177	1.8
313.15	20000	0.4013	180.4	1.8
313.15	20000	0.4997	180.7	1.8
313.15	20000	0.6002	181.4	1.8
313.15	20000	0.6999	184.3	1.9
313.15	20000	0.7998	185.4	1.9
313.15	20000	0.8999	184.6	1.9
313.15	25000	0	154.6	1.6
313.15	25000	0.1013	168.7	1.7
313.15	25000	0.2003	171.6	1.7
313.15	25000	0.3002	175	1.8
313.15	25000	0.4013	177.8	1.8
313.15	25000	0.4997	179.3	1.8
313.15	25000	0.6002	179.7	1.8
313.15	25000	0.6999	182.3	1.8
313.15	25000	0.7998	183.9	1.9
313.15	25000	0.8999	183.1	1.9
