Measured thermophysical data. Vapour pressures and osmotic coefficients of binary mixtures of 1-ethyl-3-methylimidazolium ethylsulfate and 1-ethyl-3-methylpyridinium ethylsulfate with alcohols at T = 323.15 K
Source: J. Chem. Thermodyn., 2009, 10.1016/j.jct.2009.06.024
Compound 1: 1-ethyl-3-methylimidazolium ethyl sulfate, C8H16N2O4S, InChI=1S/C6H11N2.C2H6O4S/c1-3-8-5-4-7(2)6-8;1-2-6-7(3,4)5/h4-6H,3H2,1-2H3;2H2,1H3,(H,3,4,5)/q+1;/p-1
Compound 2: 1-ethyl-3-methylpyridinium ethylsulfate, C10H17NO4S, InChI=1S/C8H12N.C2H6O4S/c1-3-9-6-4-5-8(2)7-9;1-2-6-7(3,4)5/h4-7H,3H2,1-2H3;2H2,1H3,(H,3,4,5)/q+1;/p-1
Compound 3: ethanol, C2H6O, InChI=1S/C2H6O/c1-2-3/h3H,2H2,1H3, purity 99.9%
Compound 4: propan-1-ol, C3H8O, InChI=1S/C3H8O/c1-2-3-4/h4H,2-3H2,1H3, purity 99.9%
Compound 5: propan-2-ol, C3H8O, InChI=1S/C3H8O/c1-3(2)4/h3-4H,1-2H3, purity 99.8%

System: ethanol + 1-ethyl-3-methylimidazolium ethyl sulfate; phases: Liquid
Fixed: Pressure, kPa = 101
Fixed: Temperature, K = 323.15
Property: Osmotic coefficient (Liquid); method: vapour pressure osmometry
Molality, mol/kg of 1-ethyl-3-methylimidazolium ethyl sulfate	Osmotic coefficient	uncertainty
0.0565	0.744	2
0.0734	0.729	2
0.1084	0.701	2
0.1932	0.623	2
0.3175	0.584	2
0.3923	0.553	2
0.4921	0.543	2
0.6773	0.538	2
0.9888	0.504	2
1.29	0.481	2
1.6972	0.45	2
2.0633	0.44	2
2.5861	0.411	2
2.9298	0.391	2
3.3224	0.384	2
3.7188	0.367	2
4.1154	0.359	2

System: propan-1-ol + 1-ethyl-3-methylimidazolium ethyl sulfate; phases: Liquid
Fixed: Pressure, kPa = 101
Fixed: Temperature, K = 323.15
Property: Osmotic coefficient (Liquid); method: vapour pressure osmometry
Molality, mol/kg of 1-ethyl-3-methylimidazolium ethyl sulfate	Osmotic coefficient	uncertainty
0.0464	0.914	2
0.0854	0.86	2
0.0991	0.826	2
0.2144	0.77	2
0.3907	0.702	2
0.4826	0.668	2
0.6749	0.644	2
0.9772	0.596	2
1.2548	0.583	2
1.6504	0.551	2
2.0823	0.552	2
2.5319	0.541	2
2.9028	0.531	2
3.3062	0.524	2

System: propan-2-ol + 1-ethyl-3-methylimidazolium ethyl sulfate; phases: Liquid
Fixed: Pressure, kPa = 101
Fixed: Temperature, K = 323.15
Property: Osmotic coefficient (Liquid); method: vapour pressure osmometry
Molality, mol/kg of 1-ethyl-3-methylimidazolium ethyl sulfate	Osmotic coefficient	uncertainty
0.0601	0.957	2
0.0757	0.952	2
0.1148	0.905	2
0.2001	0.8	2
0.3055	0.734	2
0.4052	0.686	2
0.4942	0.664	2
0.7072	0.61	2
0.9702	0.575	2
1.275	0.553	2
1.6603	0.536	2
2.061	0.518	2
2.4737	0.504	2
2.8311	0.495	2
3.3196	0.482	2
3.7067	0.478	2

System: ethanol + 1-ethyl-3-methylpyridinium ethylsulfate; phases: Liquid
Fixed: Pressure, kPa = 101
Fixed: Temperature, K = 323.15
Property: Osmotic coefficient (Liquid); method: vapour pressure osmometry
Molality, mol/kg of 1-ethyl-3-methylpyridinium ethylsulfate	Osmotic coefficient	uncertainty
0.0302	0.845	2
0.0496	0.766	2
0.0797	0.74	2
0.1006	0.69	2
0.2002	0.615	2
0.3011	0.571	2
0.401	0.567	2
0.5031	0.542	2
0.685	0.512	2
0.982	0.498	2
1.2494	0.487	2
1.667	0.463	2
2.0605	0.452	2
2.4948	0.433	2
2.8906	0.426	2
3.2847	0.432	2
3.6865	0.429	2

System: propan-1-ol + 1-ethyl-3-methylpyridinium ethylsulfate; phases: Liquid
Fixed: Pressure, kPa = 101
Fixed: Temperature, K = 323.15
Property: Osmotic coefficient (Liquid); method: vapour pressure osmometry
Molality, mol/kg of 1-ethyl-3-methylpyridinium ethylsulfate	Osmotic coefficient	uncertainty
0.0483	0.831	2
0.1038	0.786	2
0.1979	0.704	2
0.2855	0.672	2
0.3882	0.66	2
0.489	0.643	2
0.6946	0.628	2
0.9272	0.605	2
1.4193	0.577	2
1.6682	0.567	2
2.1077	0.555	2
2.5133	0.538	2
2.8833	0.536	2
3.297	0.521	2
3.7124	0.515	2
4.0716	0.51	2

System: propan-2-ol + 1-ethyl-3-methylpyridinium ethylsulfate; phases: Liquid
Fixed: Pressure, kPa = 101
Fixed: Temperature, K = 323.15
Property: Osmotic coefficient (Liquid); method: vapour pressure osmometry
Molality, mol/kg of 1-ethyl-3-methylpyridinium ethylsulfate	Osmotic coefficient	uncertainty
0.078	0.93	2
0.1057	0.888	2
0.1933	0.808	2
0.2645	0.759	2
0.3919	0.689	2
0.497	0.666	2
0.7005	0.629	2
0.9707	0.594	2
1.2774	0.554	2
1.6817	0.519	2
2.0539	0.515	2
2.5589	0.504	2
2.9727	0.49	2
3.3132	0.487	2
3.7063	0.48	2
