Measured thermophysical data. Application of a two-sinker densimeter for phase-equilibrium measurements: A new technique for the detection of dew points and measurements on the (methane + propane) system
Source: J. Chem. Thermodyn., 2016, 10.1016/j.jct.2016.03.035
Compound 1: methane, CH4, InChI=1S/CH4/h1H4, purity 99.999%
Compound 2: propane, C3H8, InChI=1S/C3H8/c1-3-2/h3H2,1-2H3, purity 99.999%

System: methane + propane; phases: Gas, Liquid
Property: Vapor or sublimation pressure, kPa (Gas); method: ISOPVT
Mole fraction of methane	Temperature, K	Vapor or sublimation pressure, kPa	uncertainty
0.26579	248.152	282.1	1.3
0.26579	273.149	668.5	2
0.26579	273.149	668.4	4.7
0.26579	293.146	1204.9	4.1
0.50688	248.151	432.4	6.6
0.50688	273.148	1041	2.1
0.50688	273.149	1044.5	3
0.50688	273.149	1038.7	3.9
0.50688	293.147	1944	3
0.74977	248.161	886.1	4.6
0.74977	273.152	2366.6	10
0.26579	273.409	672	2.8
0.26579	293.815	1222.4	4.8

System: methane + propane; phases: Gas, Liquid
Property: Mass density, kg/m3 (Gas); method: Buoyancy - hydrostatic balance with magnetic suspension - two sinkers
Mole fraction of methane	Temperature, K	Mass density, kg/m3	uncertainty
0.26579	248.152	5.309	0.012
0.26579	273.149	12.027	0.014
0.26579	273.149	12.026	0.02
0.26579	293.146	21.457	0.023
0.50688	248.151	6.627	0.053
0.50688	273.148	15.266	0.021
0.50688	273.149	15.322	0.025
0.50688	273.149	15.226	0.028
0.50688	293.147	28.36	0.031
0.74977	248.161	10.59	0.053
0.74977	273.152	27.73	0.118
0.26579	273.409	12.086	0.044
0.26579	293.815	21.75	0.081

System: methane + propane; phases: Gas
Property: Mass density, kg/m3 (Gas); method: Buoyancy - hydrostatic balance with magnetic suspension - two sinkers
Mole fraction of methane	Temperature, K	Pressure, kPa	Mass density, kg/m3	uncertainty
0.265791	248.156	96.6	1.7471	0.0039
0.265791	248.156	96.6	1.747	0.0038
0.265791	248.154	96.6	1.7468	0.0038
0.265791	248.153	141.7	2.5863	0.0041
0.265791	248.151	141.7	2.5861	0.0039
0.265791	248.15	141.7	2.5862	0.0038
0.265791	248.15	184.56	3.3989	0.0042
0.265791	248.151	184.56	3.3989	0.0042
0.265791	248.153	184.56	3.3987	0.0043
0.265791	248.151	220.8	4.0981	0.0045
0.265791	248.153	220.8	4.0983	0.0043
0.265791	248.153	220.8	4.0981	0.0044
0.265791	248.152	251.13	4.6927	0.0046
0.265791	248.152	251.13	4.6924	0.0045
0.265791	248.151	251.13	4.6926	0.0045
0.265791	248.152	271.99	5.1059	0.0046
0.265791	248.152	271.99	5.1059	0.0046
0.265791	248.151	271.98	5.1061	0.0046
0.265791	248.152	275.99	5.186	0.0048
0.265791	248.151	275.99	5.1858	0.0048
0.265791	248.15	275.99	5.1858	0.0047
0.265791	273.146	167.48	2.7681	0.004
0.265791	273.149	167.48	2.7679	0.0038
0.265791	273.152	167.49	2.7677	0.0039
0.265791	273.148	242.18	4.0482	0.0043
0.265791	273.151	242.18	4.0482	0.0045
0.265791	273.152	242.18	4.0482	0.0043
0.265791	273.149	344.34	5.85	0.0049
0.265791	273.151	344.34	5.8499	0.0048
0.265791	273.151	344.34	5.85	0.0048
0.265791	273.15	406.45	6.9765	0.0052
0.265791	273.15	406.4	6.9763	0.0071
0.265791	273.149	406.45	6.9764	0.0052
0.265791	273.149	491.73	8.5643	0.0058
0.265791	273.148	491.73	8.5641	0.0058
0.265791	273.148	491.73	8.564	0.0058
0.265791	273.148	568.57	10.0393	0.0064
0.265791	273.148	568.57	10.0391	0.0064
0.265791	273.149	568.57	10.0393	0.0064
0.265791	273.147	615.59	10.9646	0.0069
0.265791	273.149	615.59	10.9644	0.0068
0.265791	273.15	615.59	10.9642	0.0067
0.265791	273.148	659.32	11.841	0.0072
0.265791	273.15	659.32	11.8409	0.007
0.265791	273.151	659.32	11.8406	0.0072
0.265791	273.152	401.71	6.8904	0.0051
0.265791	273.149	401.7	6.8907	0.0051
0.265791	273.146	401.7	6.8903	0.0054
0.265791	273.149	430.8	7.4251	0.0054
0.265791	273.146	430.79	7.4249	0.0055
0.265791	273.147	430.8	7.4251	0.0054
0.265791	273.146	486.09	8.458	0.0058
0.265791	273.147	486.09	8.4582	0.0058
0.265791	273.15	486.1	8.4581	0.0058
0.265791	273.146	537.7	9.4418	0.0063
0.265791	273.148	537.7	9.4416	0.0063
0.265791	273.151	537.71	9.4418	0.0063
0.265791	273.147	562.21	9.9156	0.0064
0.265791	273.15	562.21	9.9157	0.0064
0.265791	273.152	562.21	9.9157	0.0064
0.265791	273.149	608.84	10.8308	0.0068
0.265791	273.151	608.84	10.8308	0.0068
0.265791	273.151	608.84	10.8306	0.0069
0.265791	273.151	652.4	11.7011	0.0071
0.265791	273.151	652.4	11.7011	0.0071
0.265791	273.15	652.39	11.7012	0.0072
0.265791	293.145	149.9	2.2917	0.0041
0.265791	293.143	149.9	2.2913	0.0039
0.265791	293.145	149.9	2.2914	0.0039
0.265791	293.143	258.04	3.9962	0.0042
0.265791	293.146	258.04	3.9961	0.0045
0.265791	293.149	258.04	3.9961	0.0042
0.265791	293.148	355.08	5.5657	0.0049
0.265791	293.148	355.08	5.5657	0.0048
0.265791	293.145	355.08	5.5657	0.0049
0.265791	293.146	469.3	7.4651	0.0053
0.265791	293.144	469.3	7.4654	0.0051
0.265791	293.145	469.3	7.465	0.0052
0.265791	293.143	568.75	9.168	0.0062
0.265791	293.144	568.75	9.1681	0.0063
0.265791	293.147	568.76	9.1679	0.0062
0.265791	293.143	655.64	10.6962	0.0066
0.265791	293.146	655.65	10.6965	0.0066
0.265791	293.149	655.65	10.6961	0.0065
0.265791	293.146	857.4	14.4071	0.0082
0.265791	293.148	857.4	14.4072	0.0082
0.265791	293.148	857.4	14.4071	0.0082
0.265791	293.147	955.25	16.2978	0.0098
0.265791	293.148	955.25	16.2977	0.0097
0.265791	293.145	955.23	16.2976	0.0097
0.265791	293.145	1056.3	18.3228	0.0102
0.265791	293.144	1056.3	18.3227	0.0102
0.265791	293.145	1056.3	18.3219	0.0106
0.265791	293.143	1105.64	19.3403	0.0103
0.265791	293.145	1105.65	19.3405	0.0104
0.265791	293.148	1105.66	19.3404	0.0104
0.506875	248.154	120.09	1.764	0.0041
0.506875	248.153	120.09	1.7641	0.0035
0.506875	248.15	120.09	1.7642	0.0039
0.506875	248.152	183.4	2.7167	0.0041
0.506875	248.15	183.4	2.7166	0.0045
0.506875	248.149	183.4	2.7162	0.004
0.506875	248.149	244.4	3.6494	0.0042
0.506875	248.149	244.4	3.6497	0.0041
0.506875	248.152	244.4	3.6499	0.0043
0.506875	248.15	303.31	4.5661	0.0048
0.506875	248.152	303.31	4.566	0.0049
0.506875	248.154	303.31	4.5662	0.0045
0.506875	248.152	360.5	5.4703	0.005
0.506875	248.153	360.5	5.4702	0.0049
0.506875	248.152	360.5	5.4702	0.0048
0.506875	248.152	424.87	6.5058	0.0054
0.506875	248.151	424.87	6.5052	0.0054
0.506875	248.15	424.87	6.5054	0.0051
0.506875	273.144	124.74	1.6598	0.0043
0.506875	273.143	124.74	1.6598	0.0039
0.506875	273.146	124.75	1.6598	0.004
0.506875	273.144	258.4	3.4826	0.0039
0.506875	273.147	258.4	3.4831	0.0045
0.506875	273.15	258.41	3.4831	0.0044
0.506875	273.146	321.34	4.3577	0.0047
0.506875	273.149	321.34	4.3576	0.0047
0.506875	273.151	321.35	4.3574	0.0048
0.506875	273.148	441.05	6.0518	0.007
0.506875	273.15	441.3	6.0554	0.0068
0.506875	273.151	441.54	6.0588	0.0066
0.506875	273.149	554.75	7.701	0.0183
0.506875	273.15	555.81	7.717	0.0181
0.506875	273.15	556.85	7.7324	0.0183
0.506875	273.149	611.36	8.5381	0.0141
0.506875	273.15	612.13	8.5492	0.0138
0.506875	273.149	612.89	8.5606	0.0138
0.506875	273.149	711.37	10.0422	0.0097
0.506875	273.149	711.71	10.0475	0.0096
0.506875	273.148	712.05	10.0527	0.0096
0.506875	273.148	802.95	11.451	0.01
0.506875	273.148	803.19	11.4546	0.01
0.506875	273.149	803.43	11.4585	0.0098
0.506875	273.146	929.46	13.4491	0.0172
0.506875	273.147	930.26	13.4619	0.0171
0.506875	273.15	931.05	13.4744	0.0173
0.506875	273.146	971.34	14.1245	0.0139
0.506875	273.148	971.91	14.1339	0.014
0.506875	273.151	972.48	14.1428	0.0138
0.506875	273.147	1009.5	14.7466	0.0089
0.506875	273.15	1009.55	14.7469	0.009
0.506875	273.152	1009.58	14.7472	0.0089
0.506875	273.152	218.01	2.9256	0.0047
0.506875	273.15	218.04	2.9262	0.0045
0.506875	273.148	218.06	2.9265	0.0044
0.506875	273.149	340.33	4.6223	0.0047
0.506875	273.147	340.34	4.6226	0.0047
0.506875	273.147	340.36	4.6229	0.0046
0.506875	273.147	453.5	6.23	0.0053
0.506875	273.146	453.52	6.23	0.0052
0.506875	273.148	453.54	6.2304	0.0051
0.506875	273.146	506.92	7.0016	0.0055
0.506875	273.148	506.93	7.0019	0.0054
0.506875	273.15	506.95	7.0022	0.0054
0.506875	273.146	607.74	8.4834	0.0062
0.506875	273.149	607.75	8.4836	0.0061
0.506875	273.151	607.76	8.484	0.0061
0.506875	273.148	701.3	9.889	0.007
0.506875	273.15	701.31	9.8889	0.007
0.506875	273.151	701.32	9.8887	0.0069
0.506875	273.148	829.51	11.8643	0.0082
0.506875	273.15	829.52	11.8644	0.0082
0.506875	273.151	829.52	11.8643	0.0082
0.506875	273.149	907.75	13.1005	0.0085
0.506875	273.15	907.76	13.1006	0.0085
0.506875	273.149	907.76	13.1006	0.0085
0.506875	273.15	1015.44	14.8425	0.0089
0.506875	273.15	1015.45	14.8423	0.009
0.506875	273.153	262.29	3.5352	0.1002
0.506875	273.15	269.26	3.6315	0.1003
0.506875	273.147	277.28	3.7427	0.0987
0.506875	273.149	309	4.1836	0.1008
0.506875	273.146	316.31	4.2857	0.0967
0.506875	273.147	323.08	4.3804	0.0956
0.506875	273.146	402.73	5.504	0.0895
0.506875	273.147	409.05	5.5939	0.0899
0.506875	273.149	415.33	5.6832	0.0886
0.506875	273.146	491.06	6.7718	0.093
0.506875	273.149	497.16	6.8601	0.0925
0.506875	273.151	503.23	6.9481	0.0925
0.506875	273.147	619.26	8.6551	0.0895
0.506875	273.15	625.49	8.7476	0.0903
0.506875	273.151	631.66	8.8402	0.0899
0.506875	273.149	699.84	9.8667	0.0979
0.506875	273.151	705.89	9.9581	0.098
0.506875	273.15	711.89	10.0504	0.0975
0.506875	273.15	776.08	11.034	0.1053
0.506875	273.151	781.94	11.1239	0.0819
0.506875	273.15	787.74	11.2144	0.11
0.506875	273.149	883.12	12.7095	0.0999
0.506875	273.149	888.99	12.8025	0.0997
0.506875	273.149	894.82	12.8951	0.0988
0.506875	273.15	980.94	14.2794	0.0918
0.506875	273.149	986.21	14.3656	0.0915
0.506875	273.148	991.45	14.4504	0.091
0.506875	293.148	205.57	2.5568	0.004
0.506875	293.144	205.57	2.5567	0.0041
0.506875	293.143	205.57	2.5566	0.0042
0.506875	293.146	393.88	4.9713	0.0046
0.506875	293.143	393.87	4.9714	0.0046
0.506875	293.148	393.88	4.9715	0.0047
0.506875	293.145	613.82	7.8848	0.0061
0.506875	293.149	613.83	7.885	0.0061
0.506875	293.15	613.83	7.8849	0.0063
0.506875	293.149	803.76	10.4892	0.0076
0.506875	293.149	803.74	10.4889	0.0076
0.506875	293.147	803.71	10.4888	0.0077
0.506875	293.145	1006.19	13.3635	0.0095
0.506875	293.145	1006.19	13.3634	0.0094
0.506875	293.147	1006.19	13.3633	0.0094
0.506875	293.143	1209.21	16.3578	0.0121
0.506875	293.146	1209.44	16.361	0.0121
0.506875	293.15	1209.66	16.3642	0.012
0.506875	293.145	1399.59	19.2779	0.012
0.506875	293.149	1399.61	19.2776	0.012
0.506875	293.151	1399.61	19.2776	0.0121
0.506875	293.149	1605.85	22.5767	0.0132
0.506875	293.15	1605.8	22.5758	0.0132
0.506875	293.148	1605.74	22.5751	0.0132
0.506875	293.146	1807.2	25.9502	0.0142
0.506875	293.144	1807.18	25.9505	0.0143
0.506875	293.145	1807.19	25.9502	0.0143
0.749766	248.168	276.08	3.1457	0.0045
0.749766	248.17	276.08	3.1455	0.0043
0.749766	248.169	276.07	3.1457	0.0044
0.749766	248.164	390.04	4.4825	0.005
0.749766	248.164	390.04	4.4826	0.0049
0.749766	248.163	390.03	4.4827	0.0048
0.749766	248.162	500.33	5.7987	0.0056
0.749766	248.161	500.33	5.7985	0.0054
0.749766	248.161	500.33	5.7986	0.0055
0.749766	248.159	580.7	6.7716	0.0058
0.749766	248.159	580.7	6.7717	0.0057
0.749766	248.16	580.7	6.7717	0.0057
0.749766	248.159	685.07	8.055	0.0061
0.749766	248.16	685.07	8.0552	0.0061
0.749766	248.157	786.23	9.3205	0.0066
0.749766	248.158	786.24	9.3204	0.0067
0.749766	248.161	786.24	9.3205	0.0066
0.749766	248.158	835.59	9.9462	0.0069
0.749766	248.16	835.6	9.946	0.0069
0.749766	248.162	835.6	9.9461	0.0069
0.749766	248.159	859.95	10.2561	0.007
0.749766	248.161	859.95	10.2559	0.007
0.749766	248.162	859.93	10.2556	0.0071
0.749766	248.16	884.03	10.5636	0.0072
0.749766	248.162	884.03	10.5634	0.007
0.749766	248.161	884.03	10.5637	0.0071
0.749766	273.158	500.9	5.2231	0.0063
0.749766	273.155	500.89	5.2229	0.0062
0.749766	273.152	500.88	5.2229	0.0062
0.749766	273.152	899.82	9.5965	0.0086
0.749766	273.149	899.8	9.5967	0.0086
0.749766	273.149	899.8	9.5966	0.0087
0.749766	273.15	1299.2	14.1894	0.0107
0.749766	273.153	1299.21	14.1894	0.0107
0.749766	273.156	1299.21	14.1894	0.0107
0.749766	273.152	1700.4	19.0431	0.0127
0.749766	273.15	1700.38	19.0434	0.0126
0.749766	273.151	1700.39	19.0431	0.0126
0.749766	273.155	2000.45	22.8522	0.0173
0.749766	273.153	1999.71	22.843	0.0174
0.749766	273.151	1998.98	22.8336	0.0175
0.749766	273.15	2297.85	26.7892	0.0201
0.749766	273.153	2297.09	26.7787	0.0196
0.749766	273.155	2295.38	26.7552	0.02
0.749766	273.154	2311.28	26.971	0.0195
0.749766	273.155	2310.51	26.9603	0.0198
0.749766	273.154	2309.7	26.9494	0.0198
0.265791	277.199	683.7	12.0865	0.0089
0.265791	277.078	683.2	12.0796	0.0096
0.265791	276.886	682.58	12.0781	0.0103
0.265791	276.667	681.92	12.0776	0.0105
0.265791	276.443	681.24	12.0781	0.0106
0.265791	276.223	680.58	12.0783	0.0106
0.265791	276.01	679.96	12.0795	0.0105
0.265791	275.807	679.35	12.0795	0.0103
0.265791	275.614	678.78	12.0804	0.0104
0.265791	275.431	678.23	12.0807	0.0103
0.265791	275.256	677.71	12.0812	0.0104
0.265791	275.091	677.21	12.0819	0.0103
0.265791	274.933	676.74	12.0821	0.0101
0.265791	274.782	676.29	12.0823	0.0101
0.265791	274.639	675.87	12.0831	0.0103
0.265791	274.503	675.47	12.0837	0.0104
0.265791	274.374	675.08	12.0836	0.0103
0.265791	274.251	674.71	12.0838	0.0102
0.265791	274.133	674.35	12.084	0.01
0.265791	274.022	674.01	12.0842	0.0101
0.265791	298.15	1247.32	21.7319	0.0187
0.265791	298.036	1246.38	21.7265	0.0179
0.265791	297.857	1245.3	21.7253	0.0182
0.265791	297.657	1244.14	21.7254	0.0184
0.265791	297.454	1242.99	21.7257	0.0189
0.265791	297.256	1241.88	21.7273	0.019
0.265791	297.066	1240.82	21.7284	0.019
0.265791	296.884	1239.8	21.7302	0.0187
0.265791	296.711	1238.83	21.731	0.0185
0.265791	296.547	1237.91	21.7324	0.0186
0.265791	296.391	1237.04	21.7335	0.0183
0.265791	296.242	1236.21	21.7346	0.0184
0.265791	296.101	1235.41	21.7356	0.0182
0.265791	295.967	1234.66	21.7364	0.018
0.265791	295.839	1233.95	21.7373	0.018
0.265791	295.718	1233.27	21.738	0.0182
0.265791	295.604	1232.62	21.7391	0.0181
0.265791	295.495	1232.01	21.7395	0.0179
0.265791	295.392	1231.43	21.7403	0.0179
0.265791	295.294	1230.88	21.741	0.0179
0.265791	295.202	1230.36	21.7417	0.0178
0.265791	295.114	1229.86	21.7426	0.0178
0.265791	294.951	1228.93	21.743	0.0176
0.265791	294.876	1228.51	21.7435	0.0175
0.265791	294.806	1228.1	21.7437	0.0178
0.265791	294.738	1227.72	21.744	0.0179
0.265791	294.674	1227.37	21.7447	0.018
0.265791	294.614	1227.05	21.746	0.0182
0.265791	294.558	1226.74	21.7464	0.018
0.265791	294.505	1226.43	21.7465	0.0179
0.265791	294.456	1226.15	21.7464	0.0177
0.265791	294.409	1225.88	21.7466	0.0176
0.265791	294.365	1225.63	21.747	0.0175
0.265791	294.324	1225.38	21.747	0.0175
0.265791	294.284	1225.15	21.747	0.0176
0.265791	294.247	1224.94	21.7472	0.0176
0.265791	294.211	1224.73	21.7472	0.0175
0.265791	294.178	1224.53	21.7471	0.0176
0.265791	294.146	1224.34	21.7472	0.0176
0.265791	294.116	1224.17	21.747	0.0176
0.265791	294.087	1224.01	21.7474	0.0177
0.265791	294.061	1223.86	21.7477	0.0179
0.265791	294.036	1223.73	21.7478	0.0177
0.265791	294.013	1223.6	21.7481	0.0177

System: methane + propane; phases: Gas, Liquid
Property: Mass density, kg/m3 (Gas); method: Buoyancy - hydrostatic balance with magnetic suspension - two sinkers
Temperature, K	Pressure, kPa	Mass density, kg/m3	uncertainty
248.151	283.49	5.317	0.0081
248.151	283.5	5.3168	0.0079
248.152	283.51	5.3167	0.0062
248.151	284.74	5.3341	0.0073
248.152	284.75	5.3309	0.0051
248.153	284.75	5.3301	0.0053
248.151	292.19	5.3994	0.0066
248.151	292.19	5.4	0.0051
248.151	292.19	5.4012	0.0045
248.15	299.53	5.4513	0.0065
248.15	299.54	5.4516	0.0085
248.152	299.55	5.4505	0.0066
273.148	671.65	12.0385	0.015
273.151	671.68	12.0336	0.0097
273.151	671.67	12.0356	0.0067
273.149	678.51	12.0769	0.0099
273.15	678.51	12.076	0.0068
273.15	678.5	12.0787	0.0062
273.149	685.27	12.1089	0.0082
273.149	685.27	12.1074	0.0077
273.149	685.28	12.106	0.0093
273.148	691.95	12.1391	0.0066
273.147	691.94	12.1336	0.012
273.149	691.96	12.1305	0.0136
273.148	698.57	12.1765	0.0101
273.146	698.57	12.1718	0.0111
273.148	698.6	12.1608	0.0156
273.147	705.09	12.1934	0.0102
273.146	705.09	12.1834	0.0132
273.148	705.13	12.1695	0.0252
273.151	669.26	12.0193	0.0095
273.151	669.25	12.0198	0.0061
273.149	669.22	12.0216	0.0058
273.149	675.99	12.0636	0.007
273.148	675.98	12.0655	0.0077
273.148	675.98	12.0659	0.0087
273.149	682.66	12.0964	0.0084
273.148	682.64	12.1007	0.0096
273.148	682.65	12.1004	0.0101
273.149	689.25	12.132	0.0218
273.147	689.23	12.1342	0.012
273.147	689.24	12.1357	0.0152
273.149	695.8	12.1657	0.0063
273.147	695.77	12.1736	0.0076
273.147	695.78	12.1588	0.0189
273.149	702.25	12.1872	0.007
273.146	702.22	12.1991	0.018
273.147	702.25	12.1735	0.015
273.146	708.62	12.2116	0.0126
273.146	708.63	12.2038	0.0175
273.149	708.67	12.1814	0.0168
293.146	1151.41	20.3019	0.0084
293.149	1151.42	20.3019	0.0086
293.146	1151.41	20.302	0.0083
293.148	1156.44	20.4088	0.0085
293.144	1156.42	20.409	0.0085
293.143	1156.41	20.4085	0.0085
293.144	1174.97	20.8045	0.0085
293.148	1174.98	20.8044	0.0085
293.149	1174.97	20.8041	0.0087
293.149	1187.47	21.0717	0.0087
293.148	1187.46	21.0715	0.0086
293.145	1187.46	21.0721	0.0085
293.146	1205.44	21.3975	0.0092
293.143	1205.41	21.3976	0.0159
293.148	1205.55	21.3845	0.0153
248.151	431.86	6.6018	0.0061
248.15	431.87	6.6025	0.0066
248.15	431.87	6.6022	0.0077
248.15	436.9	6.6579	0.0045
248.15	436.91	6.6573	0.0072
248.15	436.92	6.6544	0.0078
248.15	441.9	6.7177	0.0051
248.15	441.91	6.7148	0.0085
248.151	441.92	6.7101	0.0072
248.149	470.94	6.923	0.0073
248.15	470.95	6.9146	0.0112
248.152	470.97	6.9029	0.0108
248.148	499.4	7.1448	0.0154
248.15	499.42	7.1321	0.0186
248.153	499.42	7.1131	0.0121
248.15	527.4	7.3452	0.0246
248.152	527.41	7.3154	0.0176
248.153	527.41	7.3064	0.0181
248.15	554.77	7.5614	0.1492
248.152	554.76	7.4616	0.0222
248.153	554.74	7.4312	0.0124
273.148	1044.41	15.315	0.0085
273.15	1044.44	15.3147	0.0077
273.151	1044.45	15.3148	0.0076
273.148	1065.38	15.4594	0.0175
273.15	1065.41	15.4516	0.0124
273.151	1065.41	15.4512	0.0077
273.147	1085.77	15.6169	0.0138
273.148	1085.8	15.6038	0.023
273.148	1046.94	15.3395	0.0131
273.149	1046.96	15.3381	0.0111
273.15	1046.96	15.3385	0.0083
273.148	1066.77	15.4647	0.0122
273.149	1066.79	15.4593	0.012
273.15	1066.79	15.4565	0.009
273.147	1086.15	15.6068	0.0156
273.149	1086.17	15.5899	0.0157
273.146	1105.13	15.7227	0.0224
273.148	1105.17	15.704	0.0247
273.151	1105.21	15.6787	0.0187
273.149	1041.67	15.2749	0.1002
273.148	1045.52	15.3258	0.0553
273.149	1048.45	15.3591	0.0532
273.147	1076.96	15.6027	0.0655
273.148	1079.66	15.6381	0.0672
273.15	1082.35	15.6686	0.0778
273.147	1109.45	15.9389	0.0648
273.149	1111.98	15.9657	0.0319
273.151	1114.47	15.9975	0.0181
273.147	1140.33	16.2478	0.0389
273.15	1142.72	16.2632	0.0371
273.152	1145.06	16.2812	0.0338
273.148	1169.5	16.5505	0.0287
273.151	1171.67	16.5629	0.0155
273.151	1173.82	16.5772	0.0156
293.144	1953.85	28.4636	0.0201
293.147	1953.96	28.4579	0.0205
293.15	1953.98	28.4558	0.0128
293.148	1958.99	28.4944	0.0173
293.15	1959	28.4916	0.0124
293.148	1958.93	28.5003	0.0154
293.149	1963.84	28.5429	0.0123
293.149	1963.8	28.5444	0.0134
293.147	1963.74	28.55	0.0135
293.149	1973.51	28.6391	0.0123
293.147	1973.45	28.639	0.0138
293.145	1973.4	28.6409	0.0122
248.161	906.73	10.8331	0.0086
248.161	906.72	10.8333	0.007
248.16	906.71	10.8347	0.0068
248.161	926.1	11.0143	0.0071
248.159	926.08	11.0161	0.0068
248.158	926.08	11.0155	0.0081
248.16	945.31	11.2063	0.0083
248.159	945.31	11.2088	0.0072
248.159	945.32	11.2059	0.0095
248.158	964.39	11.4099	0.0073
248.158	964.4	11.4042	0.0106
248.16	964.42	11.3979	0.0101
248.158	983.38	11.6101	0.0113
248.16	983.4	11.5994	0.012
248.162	983.41	11.5919	0.0075
248.159	1002.28	11.8216	0.0101
248.161	1002.3	11.8133	0.0097
248.161	1002.3	11.8054	0.0082
273.155	2429.65	28.4522	0.0225
273.152	2428.88	28.4437	0.0214
273.15	2428.14	28.4343	0.0228
273.152	2441.04	28.5563	0.0161
273.15	2440.29	28.5518	0.0178
273.15	2439.59	28.5405	0.0211
273.15	2452.34	28.6793	0.017
273.15	2451.63	28.6703	0.0215
273.153	2450.95	28.6519	0.023
273.149	2463.41	28.8064	0.0184
273.151	2462.69	28.7896	0.0232
273.15	2475.15	28.9342	0.0181
273.15	2474.4	28.9196	0.0226
273.153	2473.68	28.8962	0.0232
273.15	2486.04	29.0518	0.0217
273.152	2485.32	29.0275	0.0243
273.155	2484.56	29.0014	0.0205
273.151	2496.92	29.1628	0.0241
273.154	2496.19	29.1356	0.0238
273.155	2495.39	29.1119	0.0188
273.153	2507.73	29.2697	0.0243
273.154	2506.97	29.2486	0.0211
273.154	2506.15	29.2295	0.0177
273.154	2518.44	29.3751	0.022
273.154	2517.64	29.3561	0.0195
273.153	2516.79	29.3425	0.018
273.154	2529.08	29.4983	0.0202
273.154	2528.26	29.4801	0.019
273.153	2527.41	29.4655	0.0192
273.152	2539.66	29.6186	0.0192
273.152	2538.88	29.6007	0.02
273.152	2538.1	29.5851	0.021
273.151	2550.34	29.751	0.0207
273.151	2549.6	29.7301	0.0219
273.153	2548.86	29.7045	0.0254
273.15	2561.12	29.877	0.0221
273.152	2560.44	29.8552	0.0245
273.155	2559.74	29.8319	0.0216
273.152	2571.86	29.9968	0.0241
273.154	2571.15	29.9679	0.0233
273.155	2570.36	29.9449	0.019
273.15	2583.6	30.1397	0.0198
273.153	2582.57	30.1109	0.0231
273.155	2581.89	30.0928	0.0207
273.916	673.68	12.0843	0.0065
273.815	673.36	12.0841	0.0063
273.627	672.74	12.0831	0.0059
273.54	672.43	12.0826	0.006
273.457	672.12	12.0817	0.0121
273.378	671.66	12.0774	0.0156
273.302	670.67	12.0586	0.0157
273.23	669.62	12.037	0.0235
273.162	668.61	12.0162	0.0242
273.097	667.64	11.9961	0.0244
273.035	666.72	11.977	0.0246
272.975	665.84	11.9588	0.0261
272.919	665.01	11.9415	0.0255
272.865	664.22	11.9252	0.0255
272.814	663.46	11.9094	0.0249
272.765	662.74	11.8947	0.0252
293.991	1223.46	21.7481	0.0911
293.971	1223.34	21.7477	0.0936
293.953	1223.22	21.7477	0.0951
293.935	1223.11	21.7473	0.091
293.919	1223	21.7471	0.0917
293.903	1222.9	21.7468	0.0924
293.888	1222.8	21.7469	0.093
293.873	1222.7	21.7462	0.0936
293.859	1222.6	21.7459	0.094
293.846	1222.5	21.7452	0.0944
293.834	1222.42	21.7446	0.0144
293.823	1222.32	21.7439	0.0142
293.812	1222.22	21.7426	0.0134
293.803	1222.11	21.7409	0.0129
293.794	1221.97	21.7387	0.013
293.787	1221.83	21.7361	0.0133
293.78	1221.69	21.7336	0.0099
293.773	1221.55	21.7308	0.0096
293.766	1221.41	21.7281	0.0094
293.76	1221.27	21.7253	0.0095
293.753	1221.13	21.7227	0.0094
293.747	1221	21.7203	0.0092
293.741	1220.87	21.7178	0.0092
293.736	1220.74	21.715	0.0098
293.731	1220.63	21.7124	0.0098
293.721	1220.43	21.7087	0.0097
293.718	1220.35	21.7068	0.0098
293.715	1220.29	21.7055	0.01
293.712	1220.23	21.7043	0.0107
293.71	1220.18	21.7028	0.01
293.708	1220.13	21.7022	0.0099
293.706	1220.08	21.7012	0.01
293.704	1220.02	21.7007	0.0126
293.701	1219.96	21.6992	0.0123
293.699	1219.91	21.6984	0.0123
293.696	1219.83	21.6962	0.0103
293.666	1218.78	21.6761	0.016
293.584	1216.72	21.6294	0.0239
293.481	1214.28	21.576	0.0257
293.373	1211.79	21.5216	0.0255
293.268	1209.4	21.4698	0.0248
293.17	1207.18	21.4217	0.0244
293.079	1205.12	21.3767	0.032
292.994	1203.19	21.3353	0.0224
292.914	1201.38	21.2958	0.0212
292.839	1199.68	21.2591	0.02
292.769	1198.1	21.2248	0.0189
292.703	1196.62	21.1929	0.0184
292.642	1195.24	21.1627	0.0172
292.585	1193.96	21.1349	0.0403
