Measured thermophysical data. Mixing thermodynamic properties of ester-containing solutions: A study on the ternary (methyl alkanoate (pentanoate and methanoate) + methanol) and the corresponding binaries. New contributions to the (ester + ester) interactions
Source: J. Chem. Thermodyn., 2015, 10.1016/j.jct.2015.02.019
Compound 1: methyl pentanoate, C6H12O2, InChI=1S/C6H12O2/c1-3-4-5-6(7)8-2/h3-5H2,1-2H3, purity 98.6%
Compound 2: methyl methanoate, C2H4O2, InChI=1S/C2H4O2/c1-4-2-3/h2H,1H3, purity 99%
Compound 3: methanol, CH4O, InChI=1S/CH4O/c1-2/h2H,1H3, purity 99.9%

System: methyl pentanoate; phases: Liquid
Property: Refractive index (Na D-line) (Liquid); method: Standard Abbe refractometry
Temperature, K	Pressure, kPa	Refractive index (Na D-line)	uncertainty
298.15	101.325	1.3952	0.0005

System: methyl pentanoate; phases: Liquid
Property: Mass density, kg/m3 (Liquid); method: Vibrating tube method
Pressure, kPa	Temperature, K	Mass density, kg/m3	uncertainty
100	298.15	884.78	0.3

System: methyl methanoate; phases: Liquid
Property: Refractive index (Na D-line) (Liquid); method: Standard Abbe refractometry
Temperature, K	Pressure, kPa	Refractive index (Na D-line)	uncertainty
298.15	101.325	1.3411	0.0005

System: methyl methanoate; phases: Liquid
Property: Mass density, kg/m3 (Liquid); method: Vibrating tube method
Pressure, kPa	Temperature, K	Mass density, kg/m3	uncertainty
100	298.15	966.28	0.18

System: methanol; phases: Liquid
Property: Refractive index (Na D-line) (Liquid); method: Standard Abbe refractometry
Temperature, K	Pressure, kPa	Refractive index (Na D-line)	uncertainty
298.15	101.325	1.3261	0.0005

System: methanol; phases: Liquid
Property: Mass density, kg/m3 (Liquid); method: Vibrating tube method
Pressure, kPa	Temperature, K	Mass density, kg/m3	uncertainty
100	298.15	786.4	0.15

System: methyl methanoate + methyl pentanoate; phases: Liquid
Fixed: Pressure, kPa = 100
Fixed: Temperature, K = 298.15
Property: Mass density, kg/m3 (Liquid); method: Vibrating tube method
Mole fraction of methyl pentanoate	Mass density, kg/m3	uncertainty
0	966.28	0.18
0.0555	956.19	0.2
0.104	948.47	0.2
0.1464	942.39	0.21
0.2093	934.27	0.21
0.2537	929.22	0.22
0.3106	923.46	0.22
0.3493	919.84	0.23
0.4011	915.46	0.23
0.4572	911.17	0.24
0.5	908.17	0.24
0.5539	904.69	0.25
0.6081	901.55	0.26
0.6522	899.15	0.26
0.7258	895.5	0.27
0.7765	893.24	0.27
0.836	890.8	0.28
0.9031	888.23	0.29
1	884.78	0.3

System: methyl methanoate + methyl pentanoate; phases: Liquid
Fixed: Pressure, kPa = 100
Fixed: Temperature, K = 298.15
Property: Excess molar enthalpy (molar enthalpy of mixing), kJ/mol (Liquid); method: Calvet calorimetry
Mole fraction of methyl pentanoate	Excess molar enthalpy (molar enthalpy of mixing), kJ/mol	uncertainty
0.0272	0.059	0.002
0.0583	0.112	0.003
0.0932	0.171	0.004
0.1292	0.23	0.005
0.172	0.291	0.006
0.2104	0.34	0.008
0.2533	0.379	0.008
0.2946	0.401	0.009
0.3096	0.413	0.009
0.3486	0.422	0.009
0.3982	0.431	0.009
0.4522	0.431	0.009
0.5232	0.409	0.009
0.6056	0.366	0.008
0.6943	0.304	0.007
0.7968	0.219	0.005
0.8656	0.145	0.003
0.93	0.084	0.002

System: methanol + methyl pentanoate; phases: Liquid
Fixed: Pressure, kPa = 100
Fixed: Temperature, K = 298.15
Property: Mass density, kg/m3 (Liquid); method: Vibrating tube method
Mole fraction of methyl pentanoate	Mass density, kg/m3	uncertainty
0	786.4	0.15
0.0235	793.56	0.19
0.062	803.85	0.18
0.0741	806.78	0.18
0.1314	818.95	0.17
0.1512	822.61	0.16
0.2017	830.95	0.16
0.248	837.51	0.16
0.304	844.36	0.16
0.3501	849.28	0.16
0.4499	858.16	0.17
0.5121	862.75	0.18
0.6073	868.69	0.19
0.6865	872.86	0.21
0.7472	875.67	0.22
0.7884	877.42	0.23
0.7982	877.81	0.24
0.8786	880.85	0.26
0.963	883.66	0.29
1	884.78	0.3

System: methanol + methyl pentanoate; phases: Liquid
Fixed: Pressure, kPa = 100
Fixed: Temperature, K = 298.15
Property: Excess molar enthalpy (molar enthalpy of mixing), kJ/mol (Liquid); method: Calvet calorimetry
Mole fraction of methyl pentanoate	Excess molar enthalpy (molar enthalpy of mixing), kJ/mol	uncertainty
0.0244	0.083	0.003
0.0512	0.169	0.004
0.0839	0.277	0.006
0.1195	0.383	0.008
0.1562	0.485	0.011
0.192	0.578	0.013
0.2279	0.665	0.014
0.264	0.736	0.016
0.2993	0.819	0.018
0.3336	0.876	0.019
0.367	0.921	0.02
0.3861	0.947	0.02
0.4156	0.99	0.021
0.4625	1.053	0.023
0.5081	1.091	0.023
0.5867	1.095	0.023
0.6887	1.006	0.022
0.7931	0.812	0.018
0.8868	0.533	0.012
0.957	0.24	0.006

System: methanol + methyl methanoate; phases: Liquid
Fixed: Pressure, kPa = 100
Fixed: Temperature, K = 298.15
Property: Mass density, kg/m3 (Liquid); method: Vibrating tube method
Mole fraction of methyl methanoate	Mass density, kg/m3	uncertainty
0	786.4	0.15
0.0337	795.73	0.18
0.0833	808.8	0.18
0.1557	826.74	0.17
0.19	834.77	0.16
0.2499	848.14	0.16
0.3219	863.26	0.15
0.3906	876.73	0.15
0.4946	895.61	0.15
0.5416	903.58	0.15
0.6467	920.31	0.15
0.7271	932.1	0.16
0.7815	939.62	0.16
0.8533	949.01	0.17
0.8968	954.39	0.17
0.8968	954.39	0.17
0.9357	959.02	0.18
1	966.28	0.18

System: methanol + methyl methanoate; phases: Liquid
Fixed: Pressure, kPa = 100
Fixed: Temperature, K = 298.15
Property: Excess molar enthalpy (molar enthalpy of mixing), kJ/mol (Liquid); method: Calvet calorimetry
Mole fraction of methyl methanoate	Excess molar enthalpy (molar enthalpy of mixing), kJ/mol	uncertainty
0.02	0.075	0.002
0.0487	0.179	0.004
0.0833	0.311	0.007
0.1225	0.441	0.01
0.167	0.577	0.013
0.2135	0.703	0.015
0.2613	0.817	0.018
0.3086	0.914	0.02
0.3501	0.987	0.021
0.3644	1.01	0.022
0.3943	1.054	0.023
0.4077	1.074	0.023
0.4572	1.131	0.024
0.5127	1.179	0.025
0.5783	1.196	0.026
0.646	1.178	0.025
0.7178	1.105	0.024
0.7842	0.984	0.021
0.8517	0.808	0.017
0.9098	0.584	0.013
0.9505	0.339	0.008

System: methanol + methyl methanoate + methyl pentanoate; phases: Liquid
Fixed: Temperature, K = 298.15
Fixed: Pressure, kPa = 100
Property: Mass density, kg/m3 (Liquid); method: Vibrating tube method
Mole fraction of methyl pentanoate	Mole fraction of methyl methanoate	Mass density, kg/m3	uncertainty
0	1	966.28	0.18
0.0097	0.9605	961.26	0.22
0.019	0.9224	956.25	0.22
0.0352	0.8557	947.43	0.21
0.048	0.8035	940.51	0.21
0.0595	0.7561	934.22	0.21
0.0716	0.7069	927.72	0.2
0.0827	0.6611	921.67	0.2
0.0949	0.6112	915.09	0.2
0.1189	0.513	902.25	0.2
0.1417	0.4194	890.13	0.2
0.156	0.3609	882.62	0.2
0.1679	0.3122	876.39	0.21
0.189	0.2261	865.47	0.21
0.2055	0.1583	856.93	0.22
0.2177	0.1083	850.65	0.23
0	1	966.28	0.18
0.0209	0.9481	958.88	0.22
0.0418	0.8963	951.68	0.21
0.0585	0.8548	945.98	0.21
0.0769	0.8093	939.94	0.21
0.1018	0.7475	931.91	0.21
0.1121	0.7218	928.62	0.21
0.1451	0.6401	918.6	0.2
0.1802	0.5529	908.44	0.2
0.2057	0.4898	901.41	0.2
0.2182	0.4586	898.04	0.2
0.2597	0.3558	887.35	0.2
0.302	0.2508	877.03	0.21
0.3225	0.1999	872.27	0.21
0.3436	0.1476	867.43	0.19
0.357	0.1143	864.43	0.24
0.3788	0.0603	859.62	0.21
0	1	966.28	0.18
0.032	0.946	957.92	0.22
0.063	0.8936	950.16	0.22
0.098	0.8345	941.91	0.22
0.1213	0.7952	936.81	0.22
0.1456	0.7542	931.64	0.21
0.1793	0.6972	924.89	0.21
0.2438	0.5883	913.16	0.21
0.297	0.4985	904.5	0.21
0.3199	0.4598	901.04	0.22
0.3563	0.3983	895.8	0.21
0.3806	0.3573	892.49	0.21
0.4481	0.2433	883.9	0.21
0.4179	0.2943	887.6	0.21
0.4692	0.2077	881.36	0.22
0.4909	0.171	878.87	0.23
0.5292	0.1064	874.57	0.22
0.5521	0.0677	872.1	0.21
0.561	0.0527	871.23	0.2
0	1	966.28	0.18
0.0506	0.9353	955.31	0.23
0.0785	0.8996	949.82	0.22
0.1181	0.8489	942.53	0.22
0.1753	0.7758	933.1	0.22
0.2286	0.7076	925.27	0.22
0.2836	0.6372	918.11	0.23
0.3239	0.5857	913.33	0.23
0.3973	0.4918	905.54	0.23
0.4191	0.4639	903.4	0.23
0.4848	0.3799	897.52	0.24
0.5488	0.298	892.37	0.24
0.5893	0.2462	889.4	0.24
0.6185	0.2089	887.35	0.24
0.6698	0.1433	884	0.24
0.7028	0.101	881.92	0.24
0	1	966.28	0.18
0.0473	0.9461	956.79	0.23
0.0928	0.8943	948.38	0.22
0.1403	0.8402	940.79	0.22
0.2139	0.7564	930.5	0.23
0.2638	0.6995	924.38	0.23
0.3317	0.6222	916.97	0.24
0.3953	0.5497	910.9	0.24
0.4309	0.5092	907.81	0.24
0.4743	0.4597	904.27	0.24
0.5584	0.3639	898.15	0.25
0.6482	0.2616	892.48	0.26
0.6933	0.2103	889.95	0.26
0.7383	0.159	887.59	0.26
0.7692	0.1238	886.03	0.26
0.8152	0.0714	883.8	0.27

System: methanol + methyl methanoate + methyl pentanoate; phases: Liquid
Fixed: Pressure, kPa = 100
Fixed: Temperature, K = 298.15
Property: Molar enthalpy of mixing with solvent, kJ/mol of methyl methanoate (Liquid); method: Calvet calorimetry
Mole fraction of methyl pentanoate	Mole fraction of methyl methanoate	Molar enthalpy of mixing with solvent, kJ/mol of methyl methanoate	uncertainty
0.0335	0.8498	0.647	0.036
0.0343	0.8463	0.695	0.038
0.0377	0.8312	0.746	0.031
0.0416	0.8135	0.806	0.034
0.0469	0.79	0.868	0.036
0.0532	0.7618	0.928	0.038
0.0606	0.7286	0.983	0.04
0.0693	0.6898	1.033	0.042
0.0799	0.6421	1.063	0.043
0.0925	0.5855	1.069	0.044
0.1068	0.5214	1.046	0.043
0.1232	0.448	0.978	0.04
0.1387	0.3785	0.876	0.036
0.1555	0.3032	0.741	0.03
0.173	0.2249	0.583	0.024
0.19	0.1488	0.376	0.016
0.2056	0.0788	0.172	0.008
0.0804	0.7786	0.736	0.03
0.0881	0.7574	0.781	0.032
0.0977	0.731	0.826	0.034
0.1098	0.6977	0.871	0.036
0.1249	0.6561	0.905	0.037
0.1419	0.6092	0.923	0.038
0.1602	0.5588	0.926	0.038
0.1811	0.5012	0.906	0.037
0.2042	0.4377	0.858	0.035
0.2281	0.3719	0.788	0.032
0.2507	0.3096	0.702	0.029
0.2711	0.2533	0.598	0.024
0.2968	0.1827	0.448	0.018
0.3231	0.1102	0.276	0.011
0.3461	0.0468	0.121	0.006
0.0987	0.7864	0.644	0.027
0.1091	0.7638	0.687	0.028
0.1218	0.7363	0.729	0.03
0.1363	0.7049	0.768	0.032
0.1529	0.669	0.801	0.033
0.172	0.6276	0.825	0.034
0.193	0.5821	0.835	0.034
0.2163	0.5317	0.827	0.034
0.2401	0.4802	0.802	0.033
0.2644	0.4275	0.762	0.031
0.2909	0.3702	0.703	0.029
0.3214	0.3042	0.612	0.025
0.3518	0.2383	0.497	0.02
0.3828	0.1712	0.361	0.015
0.4143	0.103	0.216	0.009
0.4412	0.0448	0.087	0.004
0.1103	0.7725	0.654	0.027
0.1216	0.7492	0.691	0.029
0.1342	0.7232	0.742	0.03
0.1538	0.6827	0.784	0.032
0.1766	0.6357	0.809	0.033
0.2012	0.585	0.823	0.034
0.2328	0.5198	0.809	0.033
0.2691	0.4449	0.757	0.031
0.3085	0.3637	0.665	0.027
0.3509	0.2762	0.536	0.022
0.3939	0.1875	0.377	0.016
0.4331	0.1067	0.213	0.009
0.4617	0.0477	0.089	0.004
0.1668	0.7482	0.553	0.023
0.1844	0.7216	0.594	0.025
0.2077	0.6864	0.633	0.026
0.2362	0.6434	0.663	0.027
0.2689	0.594	0.681	0.028
0.3063	0.5375	0.688	0.028
0.3523	0.468	0.671	0.028
0.4046	0.3891	0.621	0.025
0.458	0.3084	0.538	0.022
0.5182	0.2175	0.419	0.017
0.5693	0.1404	0.297	0.012
0.6206	0.0629	0.163	0.007
0.2334	0.7002	0.465	0.02
0.2615	0.6641	0.492	0.021
0.2953	0.6207	0.511	0.021
0.3339	0.5711	0.52	0.022
0.3808	0.5109	0.514	0.021
0.4322	0.4449	0.489	0.02
0.4889	0.3721	0.444	0.018
0.5529	0.2898	0.374	0.015
0.6205	0.203	0.277	0.012
0.687	0.1176	0.162	0.007
0.7469	0.0407	0.057	0.003
