Measured thermophysical data. Speed of sound in saturated aliphatic alcohols (propan-2-ol, butan-2-ol, and 2-methylpropan-1-ol) and alkanediols (ethane-1,2-diol, propane-1,2- and -1,3-diol) at temperature between 253.15 K and 353.15 K and pressures up to 30 MPa
Source: J. Chem. Thermodyn., 2016, 10.1016/j.jct.2016.06.001
Compound 1: propan-2-ol, C3H8O, InChI=1S/C3H8O/c1-3(2)4/h3-4H,1-2H3
Compound 2: butan-2-ol, C4H10O, InChI=1S/C4H10O/c1-3-4(2)5/h4-5H,3H2,1-2H3
Compound 3: 2-methyl-1-propanol, C4H10O, InChI=1S/C4H10O/c1-4(2)3-5/h4-5H,3H2,1-2H3
Compound 4: 1,2-ethanediol, C2H6O2, InChI=1S/C2H6O2/c3-1-2-4/h3-4H,1-2H2
Compound 5: 1,2-propanediol, C3H8O2, InChI=1S/C3H8O2/c1-3(5)2-4/h3-5H,2H2,1H3
Compound 6: propan-1,3-diol, C3H8O2, InChI=1S/C3H8O2/c4-2-1-3-5/h4-5H,1-3H2

System: propan-2-ol; phases: Liquid
Fixed: Frequency, MHz = 8
Property: Speed of sound, m/s (Liquid); method: Pulse-echo method
Temperature, K	Pressure, kPa	Speed of sound, m/s	uncertainty
253.153	99	1300.967	0.669
253.153	5138	1328.819	0.68
253.153	10106	1354.875	0.69
253.153	15136	1380.021	0.699
253.153	20143	1404.015	0.708
253.152	25229	1427.462	0.717
253.152	30036	1448.868	0.725
273.152	100	1227.88	0.641
273.152	5275	1258.803	0.653
273.151	10173	1286.447	0.663
273.151	15164	1313.265	0.674
273.152	20289	1339.577	0.683
273.152	25102	1363.26	0.692
273.151	30264	1387.65	0.702
293.149	100	1157.361	0.614
293.149	5085	1189.739	0.627
293.148	10183	1220.822	0.638
293.148	15273	1250.197	0.649
293.149	20239	1277.428	0.66
293.149	25220	1303.56	0.669
293.149	30278	1328.856	0.679
313.15	100	1087.156	0.587
313.151	5177	1123.06	0.602
313.151	10104	1155.744	0.614
313.15	15187	1187.465	0.626
313.15	20126	1216.587	0.636
313.15	25138	1244.664	0.647
313.151	30110	1271.13	0.657
333.149	100	1015.957	0.561
333.149	5048	1054.493	0.576
333.149	10038	1090.587	0.589
333.149	15065	1124.563	0.602
333.149	20102	1156.534	0.614
333.149	25093	1186.433	0.625
333.149	30014	1214.42	0.635
353.15	100	940.503	0.532
353.15	5080	983.885	0.55
353.15	10091	1023.857	0.564
353.15	15114	1060.82	0.578
353.15	20132	1095.253	0.591
353.15	25164	1127.605	0.603
353.15	30380	1159.239	0.615

System: butan-2-ol; phases: Liquid
Fixed: Frequency, MHz = 8
Property: Speed of sound, m/s (Liquid); method: Pulse-echo method
Temperature, K	Pressure, kPa	Speed of sound, m/s	uncertainty
253.152	100	1374.557	0.697
253.152	5155	1400.286	0.707
253.152	10194	1424.811	0.716
253.151	15178	1448.123	0.725
253.151	20139	1470.454	0.733
253.151	25051	1491.936	0.742
253.152	30449	1514.428	0.75
273.151	100	1301.188	0.669
273.151	5150	1329.213	0.68
273.151	10187	1355.764	0.69
273.151	15226	1381.12	0.699
273.151	20096	1404.617	0.708
273.151	25052	1427.686	0.717
273.151	30040	1450.042	0.725
293.15	102	1229.105	0.641
293.15	5048	1258.924	0.653
293.149	10078	1287.65	0.664
293.15	15045	1314.609	0.674
293.149	20093	1340.859	0.684
293.149	25164	1366.019	0.693
293.15	29995	1389.034	0.702
313.151	100	1156.286	0.614
313.151	5081	1189.239	0.627
313.151	10051	1219.979	0.638
313.151	15034	1249.234	0.649
313.151	20050	1277.226	0.66
313.151	25148	1304.343	0.67
313.152	30041	1329.278	0.679
333.151	101	1081.368	0.586
333.152	5111	1117.787	0.6
333.152	10069	1151.366	0.612
333.151	15039	1183.013	0.624
333.151	20109	1213.479	0.636
333.152	25122	1242.123	0.646
333.151	30086	1269.15	0.656
353.149	119	1003.728	0.556
353.149	5050	1043.556	0.572
353.149	10149	1081.484	0.586
353.149	15213	1116.548	0.599
353.149	20040	1147.916	0.611
353.149	25218	1179.687	0.623
353.149	30032	1207.692	0.633

System: 2-methyl-1-propanol; phases: Liquid
Fixed: Frequency, MHz = 8
Property: Speed of sound, m/s (Liquid); method: Pulse-echo method
Temperature, K	Pressure, kPa	Speed of sound, m/s	uncertainty
253.152	102	1347.322	0.68
253.151	5144	1373.695	0.691
253.151	10257	1399.134	0.7
253.151	15122	1422.242	0.709
253.151	20400	1446.625	0.719
253.152	25315	1467.969	0.727
253.151	30039	1488.704	0.735
273.15	105	1274.213	0.652
273.152	5154	1302.778	0.664
273.151	10139	1329.437	0.674
273.151	15072	1354.721	0.683
273.151	20215	1379.951	0.693
273.151	25138	1403.158	0.702
273.151	30242	1426.375	0.711
293.149	102	1204.925	0.625
293.148	5004	1234.867	0.637
293.148	10097	1264.152	0.648
293.149	15140	1291.722	0.659
293.149	20220	1318.237	0.669
293.149	25063	1342.456	0.678
293.149	30100	1366.71	0.687
313.152	104	1138.14	0.599
313.152	5135	1171.059	0.613
313.152	10050	1201.432	0.624
313.152	15190	1231.544	0.636
313.152	20126	1259.038	0.646
313.152	25019	1285.053	0.656
313.152	30259	1311.678	0.666
333.151	100	1071.814	0.574
333.151	5187	1108.004	0.589
333.151	10181	1141.267	0.601
333.151	15331	1173.58	0.613
333.151	20135	1202.01	0.624
333.151	25174	1230.377	0.635
333.151	30144	1257.018	0.645
353.149	104	1004.081	0.548
353.149	5055	1042.847	0.564
353.149	10093	1079.408	0.577
353.15	15238	1114.154	0.591
353.149	20157	1145.379	0.602
353.15	25111	1175.116	0.614
353.15	30108	1203.555	0.624

System: 1,2-ethanediol; phases: Liquid
Fixed: Frequency, MHz = 8
Property: Speed of sound, m/s (Liquid); method: Pulse-echo method
Temperature, K	Pressure, kPa	Speed of sound, m/s	uncertainty
273.151	99	1713.847	0.82
273.151	5204	1727.491	0.825
273.151	10344	1740.939	0.83
273.151	15152	1753.194	0.835
273.151	20194	1765.939	0.84
273.151	25132	1778.134	0.844
273.151	30171	1789.896	0.849
293.149	99	1665.836	0.801
293.149	5051	1679.764	0.807
293.149	10070	1693.534	0.812
293.149	15176	1707.192	0.817
293.15	20158	1720.201	0.822
293.149	25108	1732.878	0.827
293.149	30024	1745.294	0.832
313.152	100	1618.547	0.783
313.153	5031	1633.093	0.788
313.152	10028	1647.339	0.794
313.152	15117	1661.696	0.799
313.152	20088	1675.281	0.805
313.152	25102	1688.742	0.81
313.152	29983	1701.571	0.815
333.149	99	1570.742	0.764
333.148	5054	1586.116	0.77
333.149	10048	1601.104	0.776
333.149	15067	1615.849	0.782
333.149	20106	1630.289	0.787
333.149	25103	1644.305	0.793
333.149	29958	1657.658	0.798
353.149	100	1521.783	0.745
353.149	5079	1538.084	0.752
353.149	10048	1553.832	0.758
353.149	15054	1569.282	0.764
353.149	20071	1584.393	0.77
353.149	25078	1599.138	0.775
353.149	29995	1613.263	0.781

System: 1,2-propanediol; phases: Liquid
Fixed: Frequency, MHz = 8
Property: Speed of sound, m/s (Liquid); method: Pulse-echo method
Temperature, K	Pressure, kPa	Speed of sound, m/s	uncertainty
303.15	99	1494.429	0.747
303.148	5091	1513.504	0.754
303.151	10060	1532.024	0.761
303.151	15098	1550.199	0.768
303.15	20084	1567.713	0.775
303.15	25068	1584.711	0.782
303.15	30167	1601.587	0.789
313.152	99	1465.858	0.736
313.152	5014	1485.499	0.743
313.152	10053	1504.824	0.751
313.152	15011	1523.212	0.758
313.152	20095	1541.536	0.765
313.152	25202	1559.357	0.772
313.152	30222	1576.498	0.779
333.149	100	1408.863	0.714
333.149	5039	1429.721	0.722
333.149	10054	1450.066	0.73
333.149	15107	1469.848	0.737
333.149	20131	1488.963	0.744
333.148	25131	1507.384	0.751
333.149	30024	1524.874	0.758
353.151	99	1350.887	0.692
353.151	5042	1373.03	0.701
353.151	10055	1394.56	0.709
353.151	15135	1415.607	0.717
353.151	20093	1435.461	0.724
353.151	25086	1454.828	0.731
353.151	30207	1474.064	0.739

System: propan-1,3-diol; phases: Liquid
Fixed: Frequency, MHz = 8
Property: Speed of sound, m/s (Liquid); method: Pulse-echo method
Temperature, K	Pressure, kPa	Speed of sound, m/s	uncertainty
293.149	100	1635.213	1.385
293.148	5030	1649.982	1.397
293.149	10062	1664.642	1.408
293.149	15066	1678.921	1.419
293.149	20096	1692.938	1.429
293.149	24997	1706.35	1.44
293.149	30029	1719.901	1.45
313.151	99	1589.462	1.351
313.151	5048	1605.093	1.363
313.151	10031	1620.261	1.374
313.151	15138	1635.434	1.386
313.152	20064	1649.763	1.396
313.152	25191	1664.415	1.408
313.151	30167	1678.273	1.418
333.15	100	1544.067	1.316
333.15	5058	1560.325	1.328
333.15	10054	1576.249	1.341
333.15	15024	1591.679	1.352
333.15	20153	1607.231	1.364
333.15	25135	1622.05	1.375
333.15	30136	1636.643	1.386
353.151	101	1497.623	1.281
353.151	5038	1514.638	1.294
353.152	10023	1531.32	1.306
353.152	15089	1547.839	1.319
353.151	20158	1563.937	1.331
353.151	25109	1579.311	1.343
353.152	30076	1594.386	1.354
