Measured thermophysical data. Heat capacities and excess enthalpies of the (N-hexylisoquinolinium thiocyanate ionic liquid + water) binary systems
Source: J. Chem. Thermodyn., 2012, 10.1016/j.jct.2012.06.030
Compound 1: 2-hexylisoquinolinium thiocyanate, C16H20N2S, InChI=1S/C15H20N.CHNS/c1-2-3-4-7-11-16-12-10-14-8-5-6-9-15(14)13-16;2-1-3/h5-6,8-10,12-13H,2-4,7,11H2,1H3;3H/q+1;/p-1, purity 97%
Compound 2: water, H2O, InChI=1S/H2O/h1H2, purity 99.9%

System: water + 2-hexylisoquinolinium thiocyanate; phases: Liquid
Fixed: Pressure, kPa = 101
Property: Molar heat capacity at constant pressure, J/K/mol (Liquid); method: Small sample (50 mg) DSC
Temperature, K	Mole fraction of 2-hexylisoquinolinium thiocyanate	Molar heat capacity at constant pressure, J/K/mol	uncertainty
288.15	0	75.9	3.2
288.15	0.2887	189	8
288.15	0.4013	220	9
288.15	0.5043	265	11
288.15	0.6059	298	13
288.15	0.6997	333	14
288.15	0.7864	347	15
288.15	0.8824	390	17
288.15	1	433	18
293.15	0	75.8	3.2
293.15	0.2887	191	8
293.15	0.4013	222	9
293.15	0.5043	267	11
293.15	0.6059	300	13
293.15	0.6997	335	14
293.15	0.7864	350	15
293.15	0.8824	392	17
293.15	1	436	19
298.15	0	75.7	3.2
298.15	0.2887	192	8
298.15	0.4013	224	10
298.15	0.5043	269	11
298.15	0.6059	302	13
298.15	0.6997	337	14
298.15	0.7864	352	15
298.15	0.8824	395	17
298.15	1	439	19
303.15	0	75.7	3.2
303.15	0.2887	193	8
303.15	0.4013	225	10
303.15	0.5043	271	12
303.15	0.6059	304	13
303.15	0.6997	340	14
303.15	0.7864	354	15
303.15	0.8824	397	17
303.15	1	442	19
308.15	0	75.6	3.2
308.15	0.2887	195	8
308.15	0.4013	226	10
308.15	0.5043	272	12
308.15	0.6059	306	13
308.15	0.6997	341	14
308.15	0.7864	357	15
308.15	0.8824	400	17
308.15	1	445	19
313.15	0	75.5	3.2
313.15	0.2887	196	8
313.15	0.4013	228	10
313.15	0.5043	274	12
313.15	0.6059	308	13
313.15	0.6997	343	15
313.15	0.7864	359	15
313.15	0.8824	402	17
313.15	1	447	19
318.15	0	75.5	3.2
318.15	0.2887	197	8
318.15	0.4013	229	10
318.15	0.5043	276	12
318.15	0.6059	309	13
318.15	0.6997	346	15
318.15	0.7864	361	15
318.15	0.8824	404	17
318.15	1	450	19
323.15	0	75.4	3.2
323.15	0.2887	198	8
323.15	0.4013	230	10
323.15	0.5043	277	12
323.15	0.6059	311	13
323.15	0.6997	348	15
323.15	0.7864	363	15
323.15	0.8824	406	17
323.15	1	453	19
328.15	0	75.4	3.2
328.15	0.2887	198	8
328.15	0.4013	232	10
328.15	0.5043	278	12
328.15	0.6059	312	13
328.15	0.6997	350	15
328.15	0.7864	365	15
328.15	0.8824	409	17
328.15	1	456	19
333.15	0	75.3	3.2
333.15	0.2887	199	8
333.15	0.4013	233	10
333.15	0.5043	280	12
333.15	0.6059	314	13
333.15	0.6997	352	15
333.15	0.7864	367	16
333.15	0.8824	411	17
333.15	1	458	19
338.15	0	75.3	3.2
338.15	0.2887	200	9
338.15	0.4013	234	10
338.15	0.5043	281	12
338.15	0.6059	316	13
338.15	0.6997	353	15
338.15	0.7864	369	16
338.15	0.8824	413	18
338.15	1	461	20
343.15	0	75.3	3.2
343.15	0.2887	201	9
343.15	0.4013	235	10
343.15	0.5043	283	12
343.15	0.6059	318	14
343.15	0.6997	355	15
343.15	0.7864	371	16
343.15	0.8824	415	18
343.15	1	463	20

System: water + 2-hexylisoquinolinium thiocyanate; phases: Liquid
Fixed: Pressure, kPa = 101
Property: Excess molar enthalpy (molar enthalpy of mixing), kJ/mol (Liquid); method: isothermal titration calorimeter
Temperature, K	Mole fraction of 2-hexylisoquinolinium thiocyanate	Excess molar enthalpy (molar enthalpy of mixing), kJ/mol	uncertainty
298.15	0.0916	0.137	0.002
298.15	0.0938	0.14	0.002
298.15	0.0961	0.144	0.002
298.15	0.0985	0.147	0.002
298.15	0.101	0.151	0.002
298.15	0.1036	0.154	0.002
298.15	0.1064	0.158	0.003
298.15	0.1093	0.162	0.003
298.15	0.1125	0.167	0.003
298.15	0.1157	0.171	0.003
298.15	0.1192	0.176	0.003
298.15	0.1229	0.182	0.003
298.15	0.1264	0.186	0.003
298.15	0.1301	0.192	0.003
298.15	0.134	0.197	0.003
298.15	0.1381	0.203	0.003
298.15	0.1426	0.21	0.003
298.15	0.1473	0.216	0.003
298.15	0.1523	0.223	0.003
298.15	0.1577	0.231	0.003
298.15	0.1635	0.239	0.003
298.15	0.1697	0.248	0.004
298.15	0.1764	0.258	0.004
298.15	0.1836	0.268	0.004
298.15	0.1915	0.279	0.004
298.15	0.2001	0.291	0.004
298.15	0.2095	0.304	0.004
298.15	0.2198	0.318	0.004
298.15	0.2312	0.334	0.005
298.15	0.2439	0.349	0.005
298.15	0.258	0.354	0.005
298.15	0.2738	0.348	0.005
298.15	0.2917	0.322	0.004
298.15	0.3095	0.289	0.004
298.15	0.3296	0.243	0.004
298.15	0.3525	0.188	0.003
298.15	0.3749	0.136	0.002
298.15	0.4002	0.0791	0.0017
298.15	0.424	0.0281	0.0013
298.15	0.4509	-0.0257	0.0013
298.15	0.4749	-0.0695	0.0016
298.15	0.5016	-0.113	0.002
298.15	0.5315	-0.155	0.003
298.15	0.5562	-0.184	0.003
298.15	0.5833	-0.209	0.003
298.15	0.6133	-0.23	0.003
298.15	0.6464	-0.245	0.004
298.15	0.6834	-0.252	0.004
298.15	0.7102	-0.25	0.004
298.15	0.7393	-0.244	0.004
298.15	0.7708	-0.231	0.003
298.15	0.8051	-0.21	0.003
298.15	0.8229	-0.197	0.003
298.15	0.8415	-0.182	0.003
298.15	0.861	-0.163	0.003
298.15	0.8815	-0.143	0.002
298.15	0.9029	-0.12	0.002
298.15	0.9253	-0.094	0.0018
298.15	0.949	-0.0652	0.0015
298.15	0.9738	-0.0334	0.0012
303.15	0.0899	0.133	0.002
303.15	0.092	0.136	0.002
303.15	0.0942	0.139	0.002
303.15	0.0965	0.142	0.002
303.15	0.099	0.145	0.002
303.15	0.1016	0.149	0.002
303.15	0.1043	0.153	0.002
303.15	0.1071	0.156	0.003
303.15	0.1102	0.161	0.003
303.15	0.1134	0.165	0.003
303.15	0.1168	0.17	0.003
303.15	0.1204	0.175	0.003
303.15	0.1238	0.179	0.003
303.15	0.1274	0.184	0.003
303.15	0.1312	0.189	0.003
303.15	0.1352	0.195	0.003
303.15	0.1395	0.201	0.003
303.15	0.1441	0.207	0.003
303.15	0.1489	0.214	0.003
303.15	0.1542	0.221	0.003
303.15	0.1598	0.229	0.003
303.15	0.1658	0.237	0.003
303.15	0.1723	0.246	0.004
303.15	0.1793	0.256	0.004
303.15	0.187	0.266	0.004
303.15	0.1953	0.278	0.004
303.15	0.2044	0.29	0.004
303.15	0.2144	0.304	0.004
303.15	0.2254	0.313	0.004
303.15	0.2375	0.326	0.004
303.15	0.2511	0.336	0.005
303.15	0.2663	0.337	0.005
303.15	0.2835	0.323	0.004
303.15	0.3031	0.297	0.004
303.15	0.3255	0.255	0.004
303.15	0.3483	0.201	0.003
303.15	0.3744	0.134	0.002
303.15	0.4001	0.0707	0.0017
303.15	0.4295	0.00353	0.0012
303.15	0.4576	-0.0539	0.0015
303.15	0.4895	-0.112	0.002
303.15	0.5184	-0.157	0.003
303.15	0.5509	-0.198	0.003
303.15	0.578	-0.226	0.003
303.15	0.6079	-0.249	0.004
303.15	0.641	-0.267	0.004
303.15	0.6779	-0.276	0.004
303.15	0.7193	-0.274	0.004
303.15	0.7496	-0.266	0.004
303.15	0.7826	-0.25	0.004
303.15	0.8185	-0.226	0.003
303.15	0.858	-0.194	0.003
303.15	0.872	-0.176	0.003
303.15	0.8864	-0.155	0.003
303.15	0.9014	-0.133	0.002
303.15	0.9168	-0.113	0.002
303.15	0.9328	-0.0923	0.0018
303.15	0.9494	-0.0691	0.0015
303.15	0.9666	-0.0435	0.0013
303.15	0.9844	-0.0174	0.0012
308.15	0.0931	0.1389	0.0023
308.15	0.0953	0.1419	0.0023
308.15	0.0976	0.1451	0.0023
308.15	0.1	0.1484	0.0024
308.15	0.1025	0.1519	0.0024
308.15	0.1052	0.1555	0.0024
308.15	0.1081	0.1594	0.0025
308.15	0.111	0.1634	0.0025
308.15	0.1142	0.1678	0.0026
308.15	0.1175	0.1724	0.0026
308.15	0.1211	0.1771	0.0027
308.15	0.1248	0.1823	0.0028
308.15	0.1284	0.1871	0.0028
308.15	0.1321	0.1922	0.0029
308.15	0.1361	0.1977	0.0029
308.15	0.1403	0.2034	0.003
308.15	0.1448	0.2095	0.0031
308.15	0.1496	0.2161	0.0032
308.15	0.1547	0.2231	0.0032
308.15	0.1602	0.2307	0.0033
308.15	0.166	0.2384	0.0034
308.15	0.1723	0.2466	0.0035
308.15	0.1792	0.2559	0.0036
308.15	0.1865	0.266	0.0038
308.15	0.1945	0.2767	0.0039
308.15	0.2033	0.2886	0.004
308.15	0.2128	0.3003	0.0042
308.15	0.2233	0.3111	0.0043
308.15	0.2349	0.3181	0.0044
308.15	0.2478	0.3256	0.0044
308.15	0.2621	0.3327	0.0045
308.15	0.2782	0.3283	0.0045
308.15	0.2941	0.3155	0.0043
308.15	0.3119	0.2952	0.0041
308.15	0.332	0.2635	0.0038
308.15	0.3549	0.2139	0.0033
308.15	0.3772	0.1557	0.0027
308.15	0.4025	0.0896	0.002
308.15	0.4262	0.0311	0.0015
308.15	0.4529	-0.0294	0.0014
308.15	0.4767	-0.0789	0.0017
308.15	0.5032	-0.128	0.002
308.15	0.5328	-0.176	0.003
308.15	0.5573	-0.209	0.003
308.15	0.5841	-0.239	0.003
308.15	0.6137	-0.263	0.004
308.15	0.6464	-0.281	0.004
308.15	0.6827	-0.29	0.004
308.15	0.7091	-0.29	0.004
308.15	0.7376	-0.282	0.004
308.15	0.7685	-0.268	0.004
308.15	0.802	-0.247	0.004
308.15	0.8213	-0.233	0.003
308.15	0.8416	-0.217	0.003
308.15	0.8628	-0.197	0.003
308.15	0.883	-0.175	0.003
308.15	0.9042	-0.149	0.002
308.15	0.9264	-0.121	0.002
308.15	0.9497	-0.0891	0.0018
308.15	0.9742	-0.0486	0.0014
