Measured thermophysical data. Effect of temperature on thermal (density), caloric (heat capacity), acoustic (speed of sound) and transport (viscosity) properties of 1-octyl-3-methylimidazolium hexafluorophosphate at atmospheric pressure
Source: J. Chem. Thermodyn., 2018, 10.1016/j.jct.2018.04.018
Compound 1: 1-octyl-3-methylimidazolium hexafluorophosphate, C12H23F6N2P, InChI=1S/C12H23N2.F6P/c1-3-4-5-6-7-8-9-14-11-10-13(2)12-14;1-7(2,3,4,5)6/h10-12H,3-9H2,1-2H3;/q+1;-1, purity 99%

System: 1-octyl-3-methylimidazolium hexafluorophosphate; phases: Liquid
Fixed: Pressure, kPa = 101.325
Property: Mass density, kg/m3 (Liquid); method: Vibrating tube method
Temperature, K	Mass density, kg/m3	uncertainty
278.16	1252.41	3.03
283.15	1248.32	3.02
293.17	1240.24	3
303.16	1232.32	2.98
313.16	1224.63	2.96
323.16	1217.34	2.95
333.15	1209.58	2.93
343.15	1202.43	2.91
353.15	1195.18	2.89
363.15	1188.37	2.87

System: 1-octyl-3-methylimidazolium hexafluorophosphate; phases: Liquid
Fixed: Pressure, kPa = 101.325
Property: Mass density, kg/m3 (Liquid); method: Vibrating tube method
Temperature, K	Mass density, kg/m3	uncertainty
278.15	1252.41	3.03
283.15	1248.16	3.02
288.15	1244.12	3.01
293.15	1240.16	3
298.15	1236.18	2.99
303.15	1232.68	2.98
313.15	1224.86	2.96
333.15	1209.85	2.93
343.15	1202.62	2.91
353.15	1195.41	2.89
363.15	1188.53	2.87
373.15	1181.63	2.86

System: 1-octyl-3-methylimidazolium hexafluorophosphate; phases: Liquid
Fixed: Pressure, kPa = 101.325
Property: Mass density, kg/m3 (Liquid); method: Vibrating tube method
Temperature, K	Mass density, kg/m3	uncertainty
278.151	1252.42	3.03
283.151	1248.41	3.02
283.15	1248.4	3.02
293.151	1240.34	3
293.146	1240.35	3
303.149	1232.44	2.98
303.152	1232.4	2.98
313.155	1224.73	2.96
313.151	1224.76	2.96
323.154	1217.15	2.95
323.153	1217.09	2.94
333.154	1209.86	2.93
333.151	1209.79	2.93
343.155	1202.33	2.91
343.154	1202.4	2.91

System: 1-octyl-3-methylimidazolium hexafluorophosphate; phases: Liquid
Fixed: Pressure, kPa = 101.325
Property: Molar heat capacity at constant pressure, J/K/mol (Liquid); method: DSC
Temperature, K	Molar heat capacity at constant pressure, J/K/mol	uncertainty
253.15	549.2259298428	21.4381868526
258.15	551.9482392844	21.4381868526
263.15	554.3302600458	21.4381868526
268.15	556.7122808072	21.4381868526
273.15	559.774878929	21.7784755328
278.15	562.8374770508	21.7784755328
283.15	566.9209412132	22.118764213
288.15	570.3238280152	22.118764213
293.15	573.7267148172	22.118764213
298.15	577.4698902994	22.4590528932
303.15	580.5324884212	22.4590528932
308.15	584.2756639034	22.7993415734
313.15	587.3382620252	22.7993415734
318.15	590.400860147	22.7993415734
323.15	593.4634582688	23.1396302536
328.15	597.206633751	23.1396302536
333.15	600.2692318728	23.1396302536
338.15	602.9915413144	23.4799189338
343.15	606.0541394362	23.4799189338
348.15	608.7764488778	23.4799189338
353.15	611.8390469996	23.820207614
358.15	614.221067761	23.820207614
363.15	617.2836658828	23.820207614
368.15	620.0059753244	24.1604962942
373.15	622.3879960858	24.1604962942
378.15	625.4505942076	24.1604962942
383.15	628.1729036492	24.1604962942
388.15	630.5549244106	24.5007849744
393.15	633.2772338522	24.5007849744
398.15	636.6801206542	24.5007849744
403.15	639.742718776	24.8410736546
408.15	643.8261829384	24.8410736546
413.15	646.8887810602	25.1813623348

System: 1-octyl-3-methylimidazolium hexafluorophosphate; phases: Liquid
Fixed: Pressure, kPa = 101.325
Property: Speed of sound, m/s (Liquid); method: Single path-length method
Temperature, K	Speed of sound, m/s	uncertainty
283.15	1460.8	1.416
293.15	1425.546	1.416
303.15	1394.928	1.415
313.16	1367.027	1.415
323.15	1342.013	1.415
333.15	1318.582	1.415
343.16	1296.145	1.415

System: 1-octyl-3-methylimidazolium hexafluorophosphate; phases: Liquid
Fixed: Pressure, kPa = 101.325
Property: Viscosity, Pa*s (Liquid); method: Cone and plate viscometry
Temperature, K	Viscosity, Pa*s	uncertainty
274.63	4.9924	0.4812
274.81	4.903	0.4718
274.88	4.879	0.4674
275.31	4.6519	0.44
275.44	4.6351	0.4383
276.14	4.334	0.4056
276.47	4.2163	0.3913
276.9	4.053	0.3738
277.68	3.777	0.3433
277.76	3.737	0.3391
278.46	3.5228	0.3179
279.19	3.241	0.2866
279.24	3.2794	0.2907
280.01	3.0501	0.267
280.77	2.8453	0.2457
280.78	2.866	0.2478
281.53	2.6566	0.2263
282.29	2.4869	0.2091
282.53	2.4126	0.2019
283.04	2.3313	0.1938
283.79	2.174	0.1784
284.54	2.0374	0.165
284.55	2.001	0.1616
285.28	1.916	0.1531
286.03	1.7997	0.1418
286.78	1.6971	0.1322
287.52	1.5944	0.1227
288.27	1.4968	0.1138
289.02	1.4075	0.1056
289.76	1.3278	0.0983
290.5	1.2535	0.0918
291.24	1.1832	0.0856
291.98	1.1158	0.0797
292.73	1.0533	0.0743
293.48	0.9944	0.0695
294.22	0.9329	0.0643
294.96	0.8826	0.0599
295.71	0.8447	0.0568
296.47	0.798	0.0529
297.2	0.757	0.0496
297.94	0.718	0.0465
298.69	0.6823	0.0437
299.43	0.6475	0.041
300.16	0.6146	0.0384
300.91	0.5841	0.0361
301.65	0.5555	0.0339
302.39	0.5289	0.0319
303.14	0.5029	0.0301
303.88	0.4788	0.0284
304.62	0.4509	0.0263
305.37	0.4342	0.0251
306.11	0.4149	0.0237
306.85	0.396	0.0224
307.59	0.378	0.0212
308.34	0.361	0.02
309.09	0.3449	0.0189
309.82	0.3298	0.018
310.57	0.3159	0.017
311.31	0.3018	0.0162
312.05	0.2888	0.0152
312.8	0.2757	0.0144
313.54	0.2648	0.0138
314.28	0.254	0.013
315.03	0.2432	0.0124
315.77	0.233	0.0118
316.51	0.2235	0.0112
317.26	0.2149	0.0107
317.99	0.2065	0.0102
318.74	0.1984	0.0096
319.48	0.1907	0.0093
320.22	0.1831	0.0089
320.97	0.176	0.0084
321.72	0.1695	0.008
322.44	0.1636	0.0077
323.19	0.1571	0.0073
323.94	0.1511	0.007
324.69	0.1456	0.0067
325.44	0.1405	0.0064
326.18	0.1357	0.0062
326.92	0.1308	0.006
327.67	0.126	0.0057
328.46	0.1216	0.0054
329.14	0.1176	0.0052
329.88	0.1137	0.005
330.63	0.1099	0.0049
331.37	0.106	0.0046
332.1	0.1026	0.0045
332.85	0.0993	0.0043
333.59	0.096	0.0041
334.35	0.093	0.004
335.07	0.0897	0.0038
335.82	0.0868	0.0037
336.57	0.0841	0.0036
337.31	0.0817	0.0034
338.05	0.0793	0.0033
338.79	0.0766	0.0032
339.54	0.0742	0.0031
340.28	0.072	0.003
341.03	0.07	0.0029
341.77	0.0681	0.0028
342.51	0.0661	0.0027
343.25	0.0641	0.0027
344	0.0622	0.0026
344.73	0.0604	0.0025
345.48	0.0588	0.0024
346.22	0.0572	0.0024
346.97	0.0554	0.0023
347.72	0.0538	0.0022
348.46	0.0524	0.0021
349.19	0.0511	0.0021
349.94	0.0497	0.002
350.69	0.0483	0.002
351.42	0.047	0.0019
352.16	0.046	0.0019
352.91	0.0451	0.0019
353.66	0.0437	0.0018
354.39	0.0426	0.0018
355.14	0.0419	0.0017
355.88	0.0409	0.0017
356.63	0.0402	0.0017
357.36	0.039	0.0016
358.1	0.0376	0.0016
358.85	0.0365	0.0015
359.6	0.0356	0.0015
360.35	0.0348	0.0014
361.08	0.0346	0.0014
361.82	0.0339	0.0014
362.58	0.0325	0.0013
363.32	0.0319	0.0013
364.05	0.0313	0.0013
364.8	0.0309	0.0013
365.54	0.0297	0.0012
366.29	0.0291	0.0012
367.02	0.0287	0.0012
367.76	0.0279	0.0011
368.51	0.0271	0.0011
369.26	0.0266	0.0011
369.99	0.026	0.0011
370.73	0.0254	0.001
371.49	0.0248	0.001
372.23	0.0243	0.001
372.97	0.0244	0.001
373.71	0.0233	0.001
374.45	0.0229	0.0009
375.19	0.0224	0.0009
375.94	0.0221	0.0009
376.68	0.0219	0.0009
377.42	0.0216	0.0009
378.16	0.0211	0.0009
378.91	0.0206	0.0008
379.64	0.0203	0.0008
380.39	0.0197	0.0008
381.14	0.0194	0.0008
381.88	0.019	0.0008
382.62	0.0185	0.0008
383.35	0.0182	0.0007
384.11	0.0179	0.0007
384.85	0.0177	0.0007
385.6	0.0174	0.0007
386.33	0.0168	0.0007
387.07	0.0166	0.0007
387.82	0.0165	0.0007
388.57	0.0165	0.0007
389.3	0.016	0.0007
390.05	0.0156	0.0006
390.79	0.0153	0.0006
391.54	0.0151	0.0006
392.26	0.0147	0.0006
393.01	0.0146	0.0006
393.76	0.0143	0.0006
394.51	0.0142	0.0006
395.26	0.014	0.0006
395.99	0.0139	0.0006
396.73	0.0137	0.0006
397.48	0.0135	0.0006
398.22	0.0132	0.0005
398.96	0.013	0.0005
399.7	0.0129	0.0005
400.45	0.0127	0.0005
401.19	0.0126	0.0005
401.93	0.0123	0.0005
402.67	0.0122	0.0005
403.42	0.0121	0.0005
404.16	0.012	0.0005
404.9	0.0117	0.0005
405.64	0.0115	0.0005
406.39	0.0113	0.0005
407.13	0.0112	0.0005
407.88	0.0111	0.0005
408.62	0.0106	0.0004
409.35	0.0104	0.0004
410.1	0.0103	0.0004
410.85	0.0102	0.0004
411.58	0.0101	0.0004
412.33	0.01	0.0004
413.07	0.0096	0.0004
413.82	0.0096	0.0004
269.96	8.278	0.8835
270.27	7.9704	0.8323
270.37	7.8197	0.8143
270.91	7.509	0.7783
271.66	6.771	0.6892
272.33	6.42	0.6423
272.44	6.2696	0.6251
273.24	5.7925	0.5704
274.02	5.3503	0.5216
274.8	4.9518	0.4768
275.56	4.5936	0.4338
276.34	4.2682	0.3981
277.09	3.9571	0.3638
277.85	3.6933	0.3346
278.6	3.4398	0.3094
279.34	3.2212	0.2847
280.09	3.0028	0.2623
280.84	2.8038	0.2416
281.59	2.6204	0.2228
282.33	2.458	0.2063
283.08	2.2991	0.1906
283.83	2.1544	0.1765
284.58	2.0172	0.1631
285.32	1.8932	0.151
286.06	1.7796	0.14
286.8	1.6724	0.13
287.55	1.5728	0.1208
288.29	1.4793	0.1122
289.03	1.3919	0.1042
289.78	1.3139	0.0971
290.52	1.241	0.0907
291.27	1.1684	0.0844
292	1.1018	0.0785
292.75	1.0401	0.0732
293.49	0.9843	0.0687
294.25	0.9294	0.0641
295.02	0.8792	0.0596
295.79	0.8293	0.0556
296.57	0.7842	0.0519
297.33	0.7415	0.0485
298.08	0.7051	0.0455
298.82	0.6682	0.0427
299.55	0.6329	0.0399
300.28	0.6012	0.0374
301	0.5723	0.0352
301.73	0.545	0.0332
302.46	0.5198	0.0313
303.19	0.4943	0.0295
303.92	0.4706	0.0279
304.65	0.4491	0.0262
305.39	0.4291	0.0247
306.13	0.4099	0.0234
306.86	0.3909	0.0221
307.6	0.3725	0.0208
308.35	0.356	0.0197
309.09	0.3399	0.0186
309.84	0.3257	0.0177
310.57	0.3115	0.0167
311.32	0.2977	0.0159
312.06	0.2849	0.015
312.8	0.2733	0.0142
313.55	0.262	0.0136
314.29	0.2512	0.0129
315.03	0.2406	0.0122
315.77	0.2306	0.0117
316.51	0.2216	0.0111
317.25	0.2136	0.0106
318	0.204	0.01
318.74	0.1961	0.0095
319.48	0.1883	0.0091
320.22	0.181	0.0088
320.96	0.1744	0.0084
321.71	0.1681	0.0079
322.46	0.1616	0.0076
323.19	0.1554	0.0072
323.93	0.1498	0.007
324.68	0.1443	0.0067
325.43	0.1393	0.0064
326.17	0.1353	0.0062
326.91	0.1295	0.0059
327.65	0.1249	0.0056
328.39	0.1208	0.0054
329.14	0.1168	0.0052
329.88	0.1128	0.005
330.62	0.1089	0.0048
331.36	0.1051	0.0046
332.11	0.1016	0.0044
332.85	0.0996	0.0043
333.59	0.0957	0.0041
334.34	0.0925	0.004
335.09	0.0896	0.0038
335.82	0.0867	0.0037
336.57	0.0841	0.0036
337.31	0.0816	0.0034
338.06	0.0788	0.0033
338.81	0.0762	0.0032
339.54	0.0739	0.0031
340.29	0.0719	0.003
341.04	0.0698	0.0029
341.77	0.068	0.0028
342.51	0.0666	0.0028
343.25	0.0639	0.0026
344	0.062	0.0026
344.76	0.0604	0.0025
345.51	0.0588	0.0024
346.29	0.0569	0.0023
347.05	0.0551	0.0023
347.81	0.0537	0.0022
348.57	0.0523	0.0021
349.33	0.0508	0.0021
350.07	0.0494	0.002
350.77	0.0482	0.002
351.48	0.0472	0.0019
352.22	0.0463	0.0019
352.99	0.0452	0.0019
353.75	0.0443	0.0018
354.48	0.043	0.0018
355.2	0.042	0.0017
355.92	0.0413	0.0017
356.66	0.0405	0.0017
357.39	0.0392	0.0016
358.11	0.038	0.0016
358.86	0.037	0.0015
359.6	0.0365	0.0015
360.35	0.0357	0.0015
361.09	0.035	0.0014
361.82	0.034	0.0014
362.57	0.0328	0.0014
363.31	0.0321	0.0013
364.05	0.0314	0.0013
364.79	0.0311	0.0013
365.54	0.0304	0.0012
366.28	0.0296	0.0012
367.02	0.0289	0.0012
367.76	0.0282	0.0012
368.49	0.0276	0.0011
369.24	0.027	0.0011
369.99	0.0264	0.0011
370.73	0.0258	0.0011
371.47	0.0252	0.001
372.22	0.0248	0.001
372.96	0.0243	0.001
373.71	0.0237	0.001
374.44	0.0231	0.0009
375.19	0.0226	0.0009
375.94	0.0223	0.0009
376.69	0.022	0.0009
377.41	0.0218	0.0009
378.16	0.0211	0.0009
378.9	0.0207	0.0008
379.65	0.0204	0.0008
380.39	0.0199	0.0008
381.13	0.0196	0.0008
381.87	0.0192	0.0008
382.62	0.0187	0.0008
383.36	0.0184	0.0007
384.1	0.0182	0.0007
384.85	0.0179	0.0007
385.6	0.0176	0.0007
386.34	0.017	0.0007
387.08	0.0168	0.0007
387.82	0.0167	0.0007
388.56	0.0166	0.0007
389.32	0.0162	0.0007
390.04	0.0158	0.0007
390.79	0.0155	0.0006
391.53	0.0154	0.0006
392.28	0.0152	0.0006
393.02	0.0148	0.0006
393.75	0.0145	0.0006
394.5	0.0143	0.0006
395.25	0.0141	0.0006
395.99	0.014	0.0006
396.73	0.0139	0.0006
397.47	0.0135	0.0006
398.22	0.0134	0.0006
398.97	0.0131	0.0005
399.7	0.013	0.0005
400.44	0.0129	0.0005
401.19	0.0128	0.0005
401.94	0.0126	0.0005
402.67	0.0124	0.0005
403.42	0.0123	0.0005
404.16	0.0121	0.0005
404.91	0.012	0.0005
405.64	0.0116	0.0005
406.39	0.0115	0.0005
407.13	0.0114	0.0005
407.87	0.0113	0.0005
408.62	0.0107	0.0004
409.35	0.0105	0.0004
410.1	0.0104	0.0004
410.84	0.0103	0.0004
411.59	0.0102	0.0004
412.33	0.0101	0.0004
413.07	0.0099	0.0004
413.82	0.0097	0.0004

System: 1-octyl-3-methylimidazolium hexafluorophosphate; phases: Liquid
Fixed: Pressure, kPa = 101.325
Property: Viscosity, Pa*s (Liquid); method: Concentric cylinders viscometry
Temperature, K	Viscosity, Pa*s	uncertainty
278.15	3.543	0.2042
283.15	2.2631	0.117
288.15	1.4751	0.0687
293.15	1.0011	0.0424
298.15	0.6912	0.0266
303.15	0.49	0.0171
313.15	0.2661	0.0078
333.15	0.0983	0.0022
343.15	0.0649	0.0014
353.15	0.0447	0.0009
363.15	0.0321	0.0007
373.15	0.024	0.0005
