Measured thermophysical data. Mode of action of betaine on some amino acids and globular proteins: Thermodynamic considerations
Source: J. Chem. Thermodyn., 2017, 10.1016/j.jct.2017.03.025
Compound 1: 2-aminoacetic acid, C2H5NO2, InChI=1S/C2H5NO2/c3-1-2(4)5/h1,3H2,(H,4,5), purity 99%
Compound 2: (S)-2-aminopropanoic acid, C3H7NO2, InChI=1S/C3H7NO2/c1-2(4)3(5)6/h2H,4H2,1H3,(H,5,6)/t2-/m0/s1, purity 99%
Compound 3: (.+-.)-.alpha.-aminobutyric acid, C4H9NO2, InChI=1S/C4H9NO2/c1-2-3(5)4(6)7/h3H,2,5H2,1H3,(H,6,7), purity 99%
Compound 4: L-valine, C5H11NO2, InChI=1S/C5H11NO2/c1-3(2)4(6)5(7)8/h3-4H,6H2,1-2H3,(H,7,8)/t4-/m0/s1, purity 98%
Compound 5: L-leucine, C6H13NO2, InChI=1S/C6H13NO2/c1-4(2)3-5(7)6(8)9/h4-5H,3,7H2,1-2H3,(H,8,9)/t5-/m0/s1, purity 98%
Compound 6: (trimethylammonio)acetate, C5H11NO2, InChI=1S/C5H11NO2/c1-6(2,3)4-5(7)8/h4H2,1-3H3, purity 99%
Compound 7: water, H2O, InChI=1S/H2O/h1H2

System: 2-aminoacetic acid + (trimethylammonio)acetate + water; phases: Liquid
Fixed: Pressure, kPa = 100
Fixed: Temperature, K = 298.15
Property: Mass density, kg/m3 (Liquid); method: Vibrating tube method
Solvent: Molality, mol/kg of (trimethylammonio)acetate	Molality, mol/kg of 2-aminoacetic acid	Mass density, kg/m3	uncertainty
1	0	1014.09	0.33
1	0.1411	1018.38	0.33
1	0.1687	1019.2	0.34
1	0.1988	1020.08	0.34
1	0.2039	1020.22	0.34
1	0.2502	1021.59	0.35
1	0.36	1024.75	0.36
1	0.4553	1027.46	0.38
1	0.477	1028.05	0.39
1	0.4903	1028.41	0.39
2	0	1027.96	0.33
2	0.107	1031.11	0.34
2	0.2502	1035.21	0.35
2	0.2932	1036.41	0.36
2	0.3502	1038	0.36
2	0.4004	1039.38	0.37
2	0.5002	1042.12	0.4
2	0.5302	1042.93	0.4
2	0.5503	1043.44	0.41
2	0.6102	1045.04	0.42
2	0.65	1046.09	0.43
2	0.7003	1047.39	0.45

System: 2-aminoacetic acid + (trimethylammonio)acetate + water; phases: Liquid
Fixed: Temperature, K = 298.15
Fixed: Pressure, kPa = 100
Fixed: Frequency, MHz = 3
Property: Speed of sound, m/s (Liquid); method: Single path-length method
Solvent: Molality, mol/kg of (trimethylammonio)acetate	Molality, mol/kg of 2-aminoacetic acid	Speed of sound, m/s	uncertainty
1	0	1569.54	1.24
1	0.1411	1576.36	1.24
1	0.1687	1577.69	1.24
1	0.1988	1579.1	1.24
1	0.2039	1581.44	1.24
1	0.2502	1582.83	1.24
1	0.36	1586.42	1.24
1	0.4553	1590.67	1.24
1	0.477	1591.64	1.24
1	0.4903	1592.22	1.24
2	0	1631.56	1.24
2	0.107	1635.96	1.24
2	0.2502	1642.11	1.24
2	0.2932	1644.16	1.24
2	0.3502	1646.54	1.24
2	0.4004	1648.56	1.24
2	0.5002	1653.36	1.24
2	0.5302	1654.49	1.24
2	0.5503	1655.11	1.24
2	0.6102	1657.92	1.24
2	0.65	1660.26	1.24
2	0.7003	1662.14	1.24

System: (S)-2-aminopropanoic acid + (trimethylammonio)acetate + water; phases: Liquid
Fixed: Pressure, kPa = 100
Fixed: Temperature, K = 298.15
Property: Mass density, kg/m3 (Liquid); method: Vibrating tube method
Solvent: Molality, mol/kg of (trimethylammonio)acetate	Molality, mol/kg of (S)-2-aminopropanoic acid	Mass density, kg/m3	uncertainty
1	0	1014.09	0.33
1	0.1251	1017.56	0.33
1	0.1302	1017.69	0.33
1	0.2018	1019.61	0.34
1	0.2239	1020.16	0.34
1	0.2949	1022.04	0.35
1	0.3489	1023.44	0.36
1	0.4082	1024.92	0.37
1	0.4956	1027.15	0.39
1	0.5488	1028.47	0.4
1	0.5923	1029.53	0.41
1	0.6234	1030.3	0.42
2	0	1027.96	0.33
2	0.1023	1030.67	0.34
2	0.1983	1033.18	0.34
2	0.2176	1033.67	0.35
2	0.2502	1034.5	0.35
2	0.3013	1035.79	0.36
2	0.3501	1037.02	0.36
2	0.4001	1038.25	0.37
2	0.4532	1039.55	0.38
2	0.5053	1040.81	0.4
2	0.6012	1043.11	0.42
2	0.6532	1044.35	0.43

System: (S)-2-aminopropanoic acid + (trimethylammonio)acetate + water; phases: Liquid
Fixed: Temperature, K = 298.15
Fixed: Pressure, kPa = 100
Fixed: Frequency, MHz = 3
Property: Speed of sound, m/s (Liquid); method: Single path-length method
Solvent: Molality, mol/kg of (trimethylammonio)acetate	Molality, mol/kg of (S)-2-aminopropanoic acid	Speed of sound, m/s	uncertainty
1	0	1569.54	1.24
1	0.1251	1577.45	1.24
1	0.1302	1577.76	1.24
1	0.2018	1582.28	1.24
1	0.2239	1583.69	1.24
1	0.2949	1588.05	1.24
1	0.3489	1591.44	1.24
1	0.4082	1595.08	1.24
1	0.4956	1600.52	1.24
1	0.5488	1603.47	1.24
1	0.5923	1606.05	1.24
1	0.6234	1608.16	1.24
2	0	1631.56	1.24
2	0.1023	1637.72	1.24
2	0.1983	1643.47	1.24
2	0.2176	1644.58	1.24
2	0.2502	1646.77	1.24
2	0.3013	1649.85	1.24
2	0.3501	1653	1.24
2	0.4001	1655.84	1.24
2	0.4532	1659.03	1.24
2	0.5053	1662.56	1.24
2	0.6012	1668.82	1.24
2	0.6532	1671.95	1.24

System: (trimethylammonio)acetate + (.+-.)-.alpha.-aminobutyric acid + water; phases: Liquid
Fixed: Pressure, kPa = 100
Fixed: Temperature, K = 298.15
Property: Mass density, kg/m3 (Liquid); method: Vibrating tube method
Solvent: Molality, mol/kg of (trimethylammonio)acetate	Molality, mol/kg of (.+-.)-.alpha.-aminobutyric acid	Mass density, kg/m3	uncertainty
1	0	1014.09	0.33
1	0.1239	1017.36	0.33
1	0.1273	1017.46	0.33
1	0.1612	1018.35	0.34
1	0.2834	1021.48	0.35
1	0.2911	1021.69	0.35
1	0.3012	1021.92	0.35
1	0.3488	1023.13	0.36
1	0.4	1024.42	0.37
1	0.4501	1025.72	0.38
1	0.4872	1026.59	0.39
2	0	1027.96	0.33
2	0.0507	1029.23	0.33
2	0.0702	1029.72	0.33
2	0.0805	1029.98	0.33
2	0.0944	1030.29	0.33
2	0.1003	1030.46	0.34
2	0.1325	1031.23	0.34
2	0.2003	1032.93	0.34
2	0.2803	1034.86	0.35
2	0.3002	1035.28	0.36

System: (trimethylammonio)acetate + (.+-.)-.alpha.-aminobutyric acid + water; phases: Liquid
Fixed: Temperature, K = 298.15
Fixed: Pressure, kPa = 100
Fixed: Frequency, MHz = 3
Property: Speed of sound, m/s (Liquid); method: Single path-length method
Solvent: Molality, mol/kg of (trimethylammonio)acetate	Molality, mol/kg of (.+-.)-.alpha.-aminobutyric acid	Speed of sound, m/s	uncertainty
1	0	1569.54	1.24
1	0.1239	1579.43	1.24
1	0.1273	1579.66	1.24
1	0.1612	1582.29	1.24
1	0.2834	1592.05	1.24
1	0.2911	1592.36	1.24
1	0.3012	1593.03	1.24
1	0.3488	1596.64	1.24
1	0.4	1600.42	1.24
1	0.4501	1603.82	1.24
1	0.4872	1606.65	1.24
2	0	1631.56	1.24
2	0.0507	1635.55	1.24
2	0.0702	1637.14	1.24
2	0.0805	1637.85	1.24
2	0.0944	1638.96	1.24
2	0.1003	1639.39	1.24
2	0.1325	1642.15	1.24
2	0.2003	1647.38	1.24
2	0.2803	1653.97	1.24
2	0.3002	1655.32	1.24

System: L-valine + (trimethylammonio)acetate + water; phases: Liquid
Fixed: Pressure, kPa = 100
Fixed: Temperature, K = 298.15
Property: Mass density, kg/m3 (Liquid); method: Vibrating tube method
Solvent: Molality, mol/kg of (trimethylammonio)acetate	Molality, mol/kg of L-valine	Mass density, kg/m3	uncertainty
1	0	1014.09	0.39
1	0.0772	1016.04	0.39
1	0.0823	1016.16	0.39
1	0.1016	1016.64	0.39
1	0.1043	1016.72	0.39
1	0.1212	1017.14	0.39
1	0.129	1017.32	0.39
1	0.1301	1017.36	0.39
1	0.1762	1018.5	0.4
1	0.1812	1018.62	0.4
1	0.186	1018.73	0.4
1	0.2521	1020.35	0.4
2	0	1027.96	0.39
2	0.0403	1028.91	0.4
2	0.0514	1029.17	0.4
2	0.0602	1029.37	0.4
2	0.065	1029.49	0.4
2	0.0702	1029.62	0.4
2	0.0757	1029.74	0.4
2	0.0802	1029.85	0.4
2	0.085	1029.95	0.4
2	0.0945	1030.16	0.4
2	0.0954	1030.19	0.4

System: L-valine + (trimethylammonio)acetate + water; phases: Liquid
Fixed: Temperature, K = 298.15
Fixed: Pressure, kPa = 100
Fixed: Frequency, MHz = 3
Property: Speed of sound, m/s (Liquid); method: Single path-length method
Solvent: Molality, mol/kg of (trimethylammonio)acetate	Molality, mol/kg of L-valine	Speed of sound, m/s	uncertainty
1	0	1569.54	1.47
1	0.0772	1576.83	1.47
1	0.0823	1577.29	1.47
1	0.1016	1579.12	1.47
1	0.1043	1579.35	1.47
1	0.1212	1580.97	1.47
1	0.129	1581.72	1.47
1	0.1301	1581.8	1.47
1	0.1762	1586.2	1.47
1	0.1812	1586.69	1.47
1	0.186	1587.11	1.47
1	0.2521	1593.34	1.47
2	0	1631.56	1.47
2	0.0403	1635.07	1.47
2	0.0514	1636.04	1.47
2	0.0602	1636.72	1.47
2	0.065	1637.18	1.47
2	0.0702	1637.53	1.47
2	0.0757	1637.98	1.47
2	0.0802	1638.39	1.47
2	0.085	1638.93	1.47
2	0.0945	1639.77	1.47
2	0.0954	1639.73	1.47

System: L-leucine + (trimethylammonio)acetate + water; phases: Liquid
Fixed: Pressure, kPa = 100
Fixed: Temperature, K = 298.15
Property: Mass density, kg/m3 (Liquid); method: Vibrating tube method
Solvent: Molality, mol/kg of (trimethylammonio)acetate	Molality, mol/kg of L-leucine	Mass density, kg/m3	uncertainty
1	0	1014.09	0.39
1	0.0332	1014.83	0.39
1	0.0401	1014.99	0.39
1	0.0502	1015.21	0.39
1	0.0609	1015.45	0.39
1	0.0667	1015.57	0.39
1	0.0701	1015.65	0.39
1	0.0723	1015.69	0.39
1	0.0743	1015.73	0.39
1	0.081	1015.88	0.39
1	0.0956	1016.2	0.39
2	0	1027.96	0.39
2	0.0355	1028.76	0.4
2	0.0409	1028.88	0.4
2	0.0456	1028.98	0.4
2	0.0501	1029.08	0.4
2	0.0554	1029.2	0.4
2	0.065	1029.41	0.4
2	0.07	1029.52	0.4
2	0.0812	1029.76	0.4
2	0.0904	1029.97	0.4

System: L-leucine + (trimethylammonio)acetate + water; phases: Liquid
Fixed: Temperature, K = 298.15
Fixed: Pressure, kPa = 100
Fixed: Frequency, MHz = 3
Property: Speed of sound, m/s (Liquid); method: Single path-length method
Solvent: Molality, mol/kg of (trimethylammonio)acetate	Molality, mol/kg of L-leucine	Speed of sound, m/s	uncertainty
1	0	1569.54	1.47
1	0.0332	1573.12	1.47
1	0.0401	1573.84	1.47
1	0.0502	1574.93	1.47
1	0.0609	1576.08	1.47
1	0.0667	1576.73	1.47
1	0.0701	1577.08	1.47
1	0.0723	1577.34	1.47
1	0.0743	1577.53	1.47
1	0.081	1578.27	1.47
1	0.0956	1579.83	1.47
2	0	1631.56	1.47
2	0.0355	1635.1	1.47
2	0.0409	1635.62	1.47
2	0.0456	1636.1	1.47
2	0.0501	1636.59	1.47
2	0.0554	1637.17	1.47
2	0.065	1638.14	1.47
2	0.07	1638.65	1.47
2	0.0812	1639.61	1.47
2	0.0904	1640.66	1.47

System: (trimethylammonio)acetate + water; phases: Liquid
Fixed: Pressure, kPa = 100
Fixed: Temperature, K = 298.15
Property: Mass density, kg/m3 (Liquid); method: Vibrating tube method
Molality, mol/kg of (trimethylammonio)acetate	Mass density, kg/m3	uncertainty
1	1014.09	0.51
2	1027.96	0.88

System: (trimethylammonio)acetate + water; phases: Liquid
Fixed: Temperature, K = 298.15
Fixed: Pressure, kPa = 100
Fixed: Frequency, MHz = 3
Property: Speed of sound, m/s (Liquid); method: Single path-length method
Molality, mol/kg of (trimethylammonio)acetate	Speed of sound, m/s	uncertainty
1	1569.54	1.04
2	1631.56	1.06

System: 2-aminoacetic acid + water; phases: Liquid
Property: Molar enthalpy of dilution, kJ/mol (Liquid); method: ISOPERIBOL
Initial molality of solute, mol/kg	Temperature, K	Pressure, kPa	Final molality of solute, mol/kg	Molar enthalpy of dilution, kJ/mol	uncertainty
0.2	298.15	100	0.0014	0.0828	0.0036

System: (S)-2-aminopropanoic acid + water; phases: Liquid
Property: Molar enthalpy of dilution, kJ/mol (Liquid); method: ISOPERIBOL
Initial molality of solute, mol/kg	Temperature, K	Pressure, kPa	Final molality of solute, mol/kg	Molar enthalpy of dilution, kJ/mol	uncertainty
0.2	298.15	100	0.0014	-0.0448	0.0021

System: (.+-.)-.alpha.-aminobutyric acid + water; phases: Liquid
Property: Molar enthalpy of dilution, kJ/mol (Liquid); method: ISOPERIBOL
Initial molality of solute, mol/kg	Temperature, K	Pressure, kPa	Final molality of solute, mol/kg	Molar enthalpy of dilution, kJ/mol	uncertainty
0.2	298.15	100	0.0014	-0.1117	0.0047

System: L-valine + water; phases: Liquid
Property: Molar enthalpy of dilution, kJ/mol (Liquid); method: ISOPERIBOL
Initial molality of solute, mol/kg	Temperature, K	Pressure, kPa	Final molality of solute, mol/kg	Molar enthalpy of dilution, kJ/mol	uncertainty
0.05	298.15	100	0.00035	-0.0498	0.0023

System: L-leucine + water; phases: Liquid
Property: Molar enthalpy of dilution, kJ/mol (Liquid); method: ISOPERIBOL
Initial molality of solute, mol/kg	Temperature, K	Pressure, kPa	Final molality of solute, mol/kg	Molar enthalpy of dilution, kJ/mol	uncertainty
0.05	298.15	100	0.00035	-0.0669	0.0029
