Measured thermophysical data. Excess molar enthalpies of ethylformate and (1-propanol, 2-propanol, 1-butanol, 2-butanol, and 1-pentanol) at T = (298.15 and 308.15) K and p = (5 and 10) MPa
Source: J. Chem. Thermodyn., 2006, 10.1016/j.jct.2005.04.015
Compound 1: propan-1-ol, C3H8O, InChI=1S/C3H8O/c1-2-3-4/h4H,2-3H2,1H3, purity 99%
Compound 2: propan-2-ol, C3H8O, InChI=1S/C3H8O/c1-3(2)4/h3-4H,1-2H3, purity 99%
Compound 3: butan-1-ol, C4H10O, InChI=1S/C4H10O/c1-2-3-4-5/h5H,2-4H2,1H3, purity 99%
Compound 4: butan-2-ol, C4H10O, InChI=1S/C4H10O/c1-3-4(2)5/h4-5H,3H2,1-2H3, purity 99%
Compound 5: pentan-1-ol, C5H12O, InChI=1S/C5H12O/c1-2-3-4-5-6/h6H,2-5H2,1H3, purity 99%
Compound 6: ethyl methanoate, C3H6O2, InChI=1S/C3H6O2/c1-2-5-3-4/h3H,2H2,1H3, purity 99%

System: propan-1-ol + ethyl methanoate; phases: Liquid
Property: Excess molar enthalpy (molar enthalpy of mixing), kJ/mol (Liquid); method: Flow calorimetry
Temperature, K	Pressure, kPa	Mole fraction of ethyl methanoate	Excess molar enthalpy (molar enthalpy of mixing), kJ/mol	uncertainty
298.15	5000	0.0488	0.2957	0.0065
298.15	5000	0.1003	0.6274	0.0136
298.15	5000	0.1515	0.8878	0.0191
298.15	5000	0.1993	1.0799	0.0232
298.15	5000	0.2498	1.2412	0.0266
298.15	5000	0.3	1.3566	0.029
298.15	5000	0.3498	1.4393	0.0308
298.15	5000	0.3992	1.5016	0.0321
298.15	5000	0.4512	1.5184	0.0325
298.15	5000	0.5	1.5123	0.0323
298.15	5000	0.5513	1.4786	0.0316
298.15	5000	0.5995	1.4271	0.0305
298.15	5000	0.6501	1.3511	0.0289
298.15	5000	0.7003	1.2409	0.0266
298.15	5000	0.7502	1.1072	0.0237
298.15	5000	0.7998	0.9394	0.0202
298.15	5000	0.849	0.7581	0.0163
298.15	5000	0.9006	0.5171	0.0112
298.15	5000	0.9491	0.2786	0.0062
298.15	10000	0.0487	0.3313	0.0073
298.15	10000	0.1	0.6597	0.0142
298.15	10000	0.1511	0.9204	0.0198
298.15	10000	0.1988	1.1134	0.0239
298.15	10000	0.2492	1.2672	0.0271
298.15	10000	0.2993	1.385	0.0296
298.15	10000	0.349	1.4649	0.0313
298.15	10000	0.4013	1.5196	0.0325
298.15	10000	0.4504	1.5461	0.033
298.15	10000	0.4992	1.5413	0.0329
298.15	10000	0.5505	1.5088	0.0322
298.15	10000	0.5987	1.456	0.0311
298.15	10000	0.6493	1.3759	0.0294
298.15	10000	0.6996	1.2642	0.0271
298.15	10000	0.7496	1.13	0.0242
298.15	10000	0.7993	0.9697	0.0208
298.15	10000	0.8513	0.7708	0.0166
298.15	10000	0.9003	0.5508	0.0119
298.15	10000	0.949	0.3011	0.0067
308.15	10000	0.0487	0.2943	0.0065
308.15	10000	0.1511	0.9246	0.0199
308.15	10000	0.1988	1.1271	0.0242
308.15	10000	0.2492	1.2928	0.0277
308.15	10000	0.2993	1.4208	0.0304
308.15	10000	0.349	1.5101	0.0323
308.15	10000	0.4013	1.5724	0.0336
308.15	10000	0.4504	1.6025	0.0342
308.15	10000	0.4992	1.5977	0.0341
308.15	10000	0.5505	1.5641	0.0334
308.15	10000	0.5987	1.5019	0.0321
308.15	10000	0.6493	1.4106	0.0302
308.15	10000	0.6996	1.3028	0.0279
308.15	10000	0.7496	1.1555	0.0248
308.15	10000	0.7993	0.9796	0.021
308.15	10000	0.8513	0.776	0.0167
308.15	10000	0.9003	0.5603	0.0121
308.15	10000	0.949	0.2691	0.006

System: propan-2-ol + ethyl methanoate; phases: Liquid
Property: Excess molar enthalpy (molar enthalpy of mixing), kJ/mol (Liquid); method: Flow calorimetry
Temperature, K	Pressure, kPa	Mole fraction of ethyl methanoate	Excess molar enthalpy (molar enthalpy of mixing), kJ/mol	uncertainty
298.15	5000	0.0498	0.3371	0.0074
298.15	5000	0.0993	0.6619	0.0143
298.15	5000	0.1485	0.926	0.0199
298.15	5000	0.2008	1.1529	0.0247
298.15	5000	0.2493	1.3245	0.0283
298.15	5000	0.3009	1.4641	0.0313
298.15	5000	0.3488	1.5616	0.0334
298.15	5000	0.3997	1.635	0.0349
298.15	5000	0.4503	1.675	0.0358
298.15	5000	0.5005	1.6869	0.036
298.15	5000	0.5504	1.6652	0.0356
298.15	5000	0.5999	1.6276	0.0348
298.15	5000	0.6492	1.5569	0.0333
298.15	5000	0.7013	1.4374	0.0307
298.15	5000	0.7498	1.2999	0.0278
298.15	5000	0.8012	1.1171	0.0239
298.15	5000	0.8997	0.6544	0.0141
298.15	5000	0.95	0.3587	0.0079
298.15	10000	0.0497	0.3099	0.0068
298.15	10000	0.099	0.6379	0.0138
298.15	10000	0.1516	0.9142	0.0196
298.15	10000	0.2003	1.1323	0.0243
298.15	10000	0.2487	1.3015	0.0279
298.15	10000	0.3002	1.4435	0.0309
298.15	10000	0.3514	1.5392	0.0329
298.15	10000	0.3989	1.6029	0.0342
298.15	10000	0.4495	1.644	0.0351
298.15	10000	0.4997	1.6555	0.0354
298.15	10000	0.5496	1.6437	0.0351
298.15	10000	0.5991	1.6055	0.0343
298.15	10000	0.6484	1.5379	0.0329
298.15	10000	0.7006	1.4234	0.0304
298.15	10000	0.7492	1.2986	0.0278
298.15	10000	0.8006	1.1083	0.0238
298.15	10000	0.8994	0.655	0.0141
298.15	10000	0.9499	0.3617	0.0079
308.15	10000	0.0487	0.2137	0.0048
308.15	10000	0.1	0.5803	0.0126
308.15	10000	0.1511	0.884	0.019
308.15	10000	0.1988	1.116	0.0239
308.15	10000	0.2492	1.3115	0.0281
308.15	10000	0.2993	1.4676	0.0314
308.15	10000	0.349	1.5829	0.0338
308.15	10000	0.4013	1.6663	0.0356
308.15	10000	0.4504	1.7131	0.0366
308.15	10000	0.4992	1.7276	0.0369
308.15	10000	0.5505	1.7125	0.0366
308.15	10000	0.5987	1.6704	0.0357
308.15	10000	0.6996	1.476	0.0316
308.15	10000	0.7496	1.3361	0.0286
308.15	10000	0.7993	1.1638	0.0249
308.15	10000	0.8513	0.9437	0.0203
308.15	10000	0.9003	0.6831	0.0147
308.15	10000	0.949	0.3811	0.0083

System: butan-1-ol + ethyl methanoate; phases: Liquid
Property: Excess molar enthalpy (molar enthalpy of mixing), kJ/mol (Liquid); method: Flow calorimetry
Temperature, K	Pressure, kPa	Mole fraction of ethyl methanoate	Excess molar enthalpy (molar enthalpy of mixing), kJ/mol	uncertainty
298.15	5000	0.0499	0.3846	0.0084
298.15	5000	0.1005	0.7124	0.0154
298.15	5000	0.1488	0.9696	0.0208
298.15	5000	0.2008	1.1913	0.0255
298.15	5000	0.2505	1.3579	0.029
298.15	5000	0.3009	1.4846	0.0317
298.15	5000	0.3488	1.5755	0.0337
298.15	5000	0.4006	1.6423	0.0351
298.15	5000	0.4498	1.6767	0.0358
298.15	5000	0.4997	1.6697	0.0357
298.15	5000	0.6015	1.5715	0.0336
298.15	5000	0.65	1.4893	0.0318
298.15	5000	0.6991	1.3803	0.0295
298.15	5000	0.7489	1.2307	0.0264
298.15	5000	0.7993	1.0548	0.0226
298.15	5000	0.8503	0.8471	0.0182
298.15	5000	0.8983	0.6179	0.0134
298.15	5000	0.9507	0.3054	0.0067
298.15	10000	0.0497	0.3803	0.0083
298.15	10000	0.1002	0.709	0.0153
298.15	10000	0.1514	0.975	0.0209
298.15	10000	0.2003	1.1755	0.0252
298.15	10000	0.2499	1.3341	0.0285
298.15	10000	0.3002	1.4545	0.0311
298.15	10000	0.3513	1.5553	0.0332
298.15	10000	0.3998	1.6129	0.0345
298.15	10000	0.449	1.6427	0.0351
298.15	10000	0.4989	1.6429	0.0351
298.15	10000	0.5494	1.6114	0.0344
298.15	10000	0.6007	1.5542	0.0332
298.15	10000	0.6492	1.4659	0.0313
298.15	10000	0.6984	1.3565	0.029
298.15	10000	0.7482	1.203	0.0258
298.15	10000	0.7987	1.019	0.0219
298.15	10000	0.8499	0.8086	0.0174
298.15	10000	0.9018	0.5587	0.0121
298.15	10000	0.9506	0.3143	0.0069
308.15	10000	0.1501	1.0835	0.0232
308.15	10000	0.1999	1.3143	0.0281
308.15	10000	0.2504	1.5002	0.0321
308.15	10000	0.2989	1.6331	0.0349
308.15	10000	0.3508	1.7402	0.0372
308.15	10000	0.4007	1.8023	0.0385
308.15	10000	0.4514	1.8322	0.0391
308.15	10000	0.4998	1.8273	0.039
308.15	10000	0.549	1.7955	0.0383
308.15	10000	0.5988	1.7333	0.037
308.15	10000	0.6492	1.6366	0.035
308.15	10000	0.7004	1.5108	0.0323
308.15	10000	0.7493	1.3624	0.0291
308.15	10000	0.7987	1.1764	0.0252
308.15	10000	0.8488	0.953	0.0205
308.15	10000	0.8996	0.6913	0.0149

System: butan-2-ol + ethyl methanoate; phases: Liquid
Property: Excess molar enthalpy (molar enthalpy of mixing), kJ/mol (Liquid); method: Flow calorimetry
Temperature, K	Pressure, kPa	Mole fraction of ethyl methanoate	Excess molar enthalpy (molar enthalpy of mixing), kJ/mol	uncertainty
298.15	5000	0.1504	0.9785	0.021
298.15	5000	0.1997	1.2114	0.0259
298.15	5000	0.2497	1.407	0.0301
298.15	5000	0.3005	1.5592	0.0333
298.15	5000	0.3501	1.6742	0.0358
298.15	5000	0.4005	1.7486	0.0373
298.15	5000	0.4497	1.7959	0.0383
298.15	5000	0.4996	1.8074	0.0386
298.15	5000	0.5502	1.7848	0.0381
298.15	5000	0.5995	1.731	0.037
298.15	5000	0.6496	1.6485	0.0352
298.15	5000	0.7003	1.5254	0.0326
298.15	5000	0.7496	1.3716	0.0293
298.15	5000	0.7996	1.1865	0.0254
298.15	5000	0.8996	0.6515	0.0141
298.15	5000	0.9494	0.3399	0.0075
298.15	10000	0.0492	0.3528	0.0077
298.15	10000	0.0992	0.7126	0.0154
298.15	10000	0.15	1.0167	0.0218
298.15	10000	0.1985	1.2533	0.0268
298.15	10000	0.2509	1.4549	0.0311
298.15	10000	0.301	1.6011	0.0342
298.15	10000	0.3487	1.7025	0.0364
298.15	10000	0.4004	1.7794	0.038
298.15	10000	0.4495	1.8233	0.0389
298.15	10000	0.4994	1.8361	0.0392
298.15	10000	0.5501	1.8118	0.0387
298.15	10000	0.6015	1.7591	0.0376
298.15	10000	0.6502	1.6808	0.0359
298.15	10000	0.6996	1.5607	0.0334
298.15	10000	0.7497	1.3835	0.0296
298.15	10000	0.8006	1.187	0.0254
298.15	10000	0.8485	0.9323	0.02
298.15	10000	0.9008	0.6425	0.0139
298.15	10000	0.95	0.3745	0.0082
308.15	10000	0.0496	0.4211	0.0092
308.15	10000	0.1	0.8261	0.0178
308.15	10000	0.1513	1.1551	0.0247
308.15	10000	0.2007	1.4088	0.0301
308.15	10000	0.2509	1.6141	0.0345
308.15	10000	0.2992	1.766	0.0377
308.15	10000	0.351	1.8856	0.0402
308.15	10000	0.4008	1.9676	0.042
308.15	10000	0.4514	2.0062	0.0428
308.15	10000	0.4999	2.011	0.0429
308.15	10000	0.5491	1.9876	0.0424
308.15	10000	0.599	1.925	0.0411
308.15	10000	0.6497	1.8244	0.0389
308.15	10000	0.7011	1.6934	0.0362
308.15	10000	0.7502	1.5197	0.0325
308.15	10000	0.8	1.3127	0.0281
308.15	10000	0.8506	1.0652	0.0228
308.15	10000	0.8986	0.7759	0.0167
308.15	10000	0.9506	0.4041	0.0088

System: pentan-1-ol + ethyl methanoate; phases: Liquid
Fixed: Temperature, K = 298.15
Property: Excess molar enthalpy (molar enthalpy of mixing), kJ/mol (Liquid); method: Flow calorimetry
Pressure, kPa	Mole fraction of ethyl methanoate	Excess molar enthalpy (molar enthalpy of mixing), kJ/mol	uncertainty
5000	0.0502	0.2589	0.0058
5000	0.0995	0.6055	0.0131
5000	0.1505	0.9198	0.0198
5000	0.2006	1.1693	0.025
5000	0.2494	1.3575	0.029
5000	0.2998	1.5115	0.0323
5000	0.3487	1.6241	0.0347
5000	0.3992	1.6904	0.0361
5000	0.4514	1.7112	0.0365
5000	0.4984	1.7167	0.0367
5000	0.5503	1.7002	0.0363
5000	0.6002	1.641	0.0351
5000	0.6516	1.5575	0.0333
5000	0.7007	1.4486	0.031
5000	0.7513	1.3048	0.0279
5000	0.7992	1.124	0.0241
5000	0.8484	0.8989	0.0193
5000	0.899	0.6313	0.0136
5000	0.951	0.3157	0.007
10000	0.05	0.3962	0.0087
10000	0.0992	0.7425	0.016
10000	0.1501	1.035	0.0222
10000	0.2	1.2667	0.0271
10000	0.2487	1.4436	0.0309
10000	0.2991	1.5728	0.0336
10000	0.3511	1.6854	0.036
10000	0.3984	1.7492	0.0373
10000	0.4505	1.783	0.0381
10000	0.501	1.781	0.038
10000	0.5495	1.7547	0.0375
10000	0.5994	1.6983	0.0363
10000	0.6508	1.6003	0.0342
10000	0.7	1.4776	0.0316
10000	0.7506	1.301	0.0278
10000	0.7987	1.1204	0.024
10000	0.848	0.9077	0.0195
10000	0.8987	0.6428	0.0139
10000	0.9509	0.3362	0.0074
