Measured thermophysical data. Critical properties of some aliphatic symmetrical ethers
Source: J. Chem. Thermodyn., 2014, 10.1016/j.jct.2013.09.019
Compound 1: dihexyl ether, C12H26O, InChI=1S/C12H26O/c1-3-5-7-9-11-13-12-10-8-6-4-2/h3-12H2,1-2H3, purity 99.3%
Compound 2: dioctyl ether, C16H34O, InChI=1S/C16H34O/c1-3-5-7-9-11-13-15-17-16-14-12-10-8-6-4-2/h3-16H2,1-2H3, purity 99.2%
Compound 3: decane, 1,1'-oxybis-, C20H42O, InChI=1S/C20H42O/c1-3-5-7-9-11-13-15-17-19-21-20-18-16-14-12-10-8-6-4-2/h3-20H2,1-2H3, purity 98.7%

System: dihexyl ether; phases: Liquid, Gas
Property: Critical temperature, K (Liquid); method: pulse-heating method
Critical temperature, K	uncertainty
665	14

System: dihexyl ether; phases: Liquid, Gas
Property: Critical pressure, kPa (Liquid); method: pulse-heating method
Critical pressure, kPa	uncertainty
1440	80

System: dioctyl ether; phases: Liquid, Gas
Property: Critical temperature, K (Liquid); method: pulse-heating method
Critical temperature, K	uncertainty
723	14

System: dioctyl ether; phases: Liquid, Gas
Property: Critical pressure, kPa (Liquid); method: pulse-heating method
Critical pressure, kPa	uncertainty
1190	80

System: decane, 1,1'-oxybis-; phases: Liquid, Gas
Property: Critical temperature, K (Liquid); method: pulse-heating method
Critical temperature, K	uncertainty
768	16

System: decane, 1,1'-oxybis-; phases: Liquid, Gas
Property: Critical pressure, kPa (Liquid); method: pulse-heating method
Critical pressure, kPa	uncertainty
1030	60
