Measured thermophysical data. Excess molar volume and excess Gibbs energy of activation for viscous flow for the binary mixtures of N-ethylpyridinium dicyanamide [C2py][DCA] with alcohols
Source: J. Chem. Thermodyn., 2017, 10.1016/j.jct.2017.07.022
Compound 1: ethanol, C2H6O, InChI=1S/C2H6O/c1-2-3/h3H,2H2,1H3, purity 99.8%
Compound 2: 1-ethylpyridinium dicyanamide, C9H10N4, InChI=1S/C7H10N.C2N3/c1-2-8-6-4-3-5-7-8;3-1-5-2-4/h3-7H,2H2,1H3;/q+1;-1
Compound 3: propan-1-ol, C3H8O, InChI=1S/C3H8O/c1-2-3-4/h4H,2-3H2,1H3, purity 99.9%
Compound 4: propan-2-ol, C3H8O, InChI=1S/C3H8O/c1-3(2)4/h3-4H,1-2H3, purity 99.7%

System: ethanol; phases: Liquid
Fixed: Pressure, kPa = 100
Property: Mass density, kg/m3 (Liquid); method: Vibrating tube method
Temperature, K	Mass density, kg/m3	uncertainty
288.15	793.91	0.34
293.15	789.66	0.34
298.15	785.73	0.34
303.15	781.05	0.34
308.15	776.7	0.34
313.15	772.31	0.34
318.15	767.88	0.34

System: ethanol; phases: Liquid
Fixed: Pressure, kPa = 100
Property: Viscosity, Pa*s (Liquid); method: Falling or rolling sphere viscometry
Temperature, K	Viscosity, Pa*s	uncertainty
288.15	0.001286	0.000129
293.15	0.001165	0.000117
298.15	0.001071	0.000107
303.15	0.000975	9.8e-05
308.15	0.00089	8.9e-05
313.15	0.000815	8.2e-05
318.15	0.000747	7.5e-05

System: propan-1-ol; phases: Liquid
Fixed: Pressure, kPa = 100
Property: Mass density, kg/m3 (Liquid); method: Vibrating tube method
Temperature, K	Mass density, kg/m3	uncertainty
288.15	807.55	0.2
293.15	803.59	0.2
298.15	799.58	0.2
303.15	795.55	0.2
308.15	791.47	0.21
313.15	787.36	0.21
318.15	783.2	0.21

System: propan-1-ol; phases: Liquid
Fixed: Pressure, kPa = 100
Property: Viscosity, Pa*s (Liquid); method: Falling or rolling sphere viscometry
Temperature, K	Viscosity, Pa*s	uncertainty
288.15	0.002509	0.000252
293.15	0.002216	0.000222
298.15	0.001965	0.000197
303.15	0.001748	0.000175
308.15	0.001561	0.000157
313.15	0.001364	0.000137
318.15	0.00123	0.000123

System: propan-2-ol; phases: Liquid
Fixed: Pressure, kPa = 100
Property: Mass density, kg/m3 (Liquid); method: Vibrating tube method
Temperature, K	Mass density, kg/m3	uncertainty
288.15	789.41	0.5
293.15	785.29	0.5
298.15	781.08	0.49
303.15	776.81	0.49
308.15	772.46	0.49
313.15	768.02	0.5
318.15	763.48	0.48

System: propan-2-ol; phases: Liquid
Fixed: Pressure, kPa = 100
Property: Viscosity, Pa*s (Liquid); method: Falling or rolling sphere viscometry
Temperature, K	Viscosity, Pa*s	uncertainty
288.15	0.002833	0.000284
293.15	0.002424	0.000243
298.15	0.002083	0.000209
303.15	0.0018	0.00018
308.15	0.001562	0.000157
313.15	0.001331	0.000133
318.15	0.001171	0.000117

System: ethanol + 1-ethylpyridinium dicyanamide; phases: Liquid
Fixed: Pressure, kPa = 100
Property: Mass density, kg/m3 (Liquid); method: Vibrating tube method
Temperature, K	Mole fraction of 1-ethylpyridinium dicyanamide	Mass density, kg/m3	uncertainty
288.15	0	793.91	0.34
288.15	0.0989	879.38	0.57
288.15	0.2001	939.24	0.71
288.15	0.3004	982.86	0.91
288.15	0.4006	1016.74	1.11
288.15	0.4942	1042.1	1.33
288.15	0.6006	1065.3	1.87
288.15	0.6992	1083.44	2.5
288.15	0.8026	1098.64	3.11
288.15	0.8992	1111.79	6.18
293.15	0	789.66	0.34
293.15	0.0989	875.5	0.57
293.15	0.2001	935.59	0.72
293.15	0.3004	979.34	0.9
293.15	0.4006	1013.47	1.11
293.15	0.4942	1038.91	1.33
293.15	0.6006	1062.25	1.87
293.15	0.6992	1080.17	2.5
293.15	0.8026	1095.39	3.1
293.15	0.8992	1108.61	6.16
298.15	0	785.73	0.34
298.15	0.0989	871.6	0.57
298.15	0.2001	931.91	0.72
298.15	0.3004	975.99	0.9
298.15	0.4006	1010.35	1.11
298.15	0.4942	1035.84	1.33
298.15	0.6006	1059.15	1.86
298.15	0.6992	1076.91	2.49
298.15	0.8026	1092.29	3.09
298.15	0.8992	1105.6	6.14
303.15	0	781.05	0.34
303.15	0.0989	867.68	0.56
303.15	0.2001	928.24	0.72
303.15	0.3004	972.39	0.9
303.15	0.4006	1006.93	1.1
303.15	0.4942	1032.45	1.32
303.15	0.6006	1055.85	1.86
303.15	0.6992	1073.77	2.48
303.15	0.8026	1089.07	3.08
303.15	0.8992	1102.48	6.12
308.15	0	776.7	0.34
308.15	0.0989	863.76	0.56
308.15	0.2001	924.58	0.71
308.15	0.3004	969.14	0.9
308.15	0.4006	1003.77	1.1
308.15	0.4942	1029.31	1.32
308.15	0.6006	1052.72	1.85
308.15	0.6992	1070.58	2.47
308.15	0.8026	1085.97	3.07
308.15	0.8992	1099.26	6.11
313.15	0	772.31	0.34
313.15	0.0989	859.83	0.56
313.15	0.2001	920.92	0.71
313.15	0.3004	965.98	0.89
313.15	0.4006	1000.65	1.1
313.15	0.4942	1026.19	1.31
313.15	0.6006	1049.52	1.85
313.15	0.6992	1067.62	2.47
313.15	0.8026	1082.69	3.06
313.15	0.8992	1096.1	6.09
318.15	0	767.88	0.34
318.15	0.0989	855.9	0.58
318.15	0.2001	917.26	0.71
318.15	0.3004	962.81	0.9
318.15	0.4006	997.65	1.1
318.15	0.4942	1023.19	1.31
318.15	0.6006	1046.51	1.84
318.15	0.6992	1064.42	2.46
318.15	0.8026	1079.65	3.05
318.15	0.8992	1092.95	6.07
288.15	1	1124.73	2.02
293.15	1	1121.56	2.02
298.15	1	1118.49	2.02
303.15	1	1115.32	2.02
308.15	1	1112.15	2.02
313.15	1	1109	2.02
318.15	1	1105.88	2.02

System: ethanol + 1-ethylpyridinium dicyanamide; phases: Liquid
Fixed: Pressure, kPa = 100
Property: Viscosity, Pa*s (Liquid); method: Falling or rolling sphere viscometry
Temperature, K	Mole fraction of 1-ethylpyridinium dicyanamide	Viscosity, Pa*s	uncertainty
288.15	0	0.001286	0.000129
288.15	0.0989	0.002238	0.000224
288.15	0.2001	0.003052	0.000306
288.15	0.3004	0.00466	0.000467
288.15	0.4006	0.006129	0.000615
288.15	0.4942	0.00799	0.000802
288.15	0.6006	0.01054	0.00106
288.15	0.6992	0.01343	0.00135
288.15	0.8026	0.01678	0.00169
288.15	0.8992	0.0213	0.00215
288.15	1	0.02591	0.0026
293.15	0	0.001165	0.000117
293.15	0.0989	0.002024	0.000203
293.15	0.2001	0.002777	0.000278
293.15	0.3004	0.004224	0.000424
293.15	0.4006	0.00546	0.000548
293.15	0.4942	0.007065	0.000709
293.15	0.6006	0.009231	0.000926
293.15	0.6992	0.01169	0.00117
293.15	0.8026	0.01436	0.00144
293.15	0.8992	0.01791	0.00181
293.15	1	0.0221	0.00222
298.15	0	0.001071	0.000107
298.15	0.0989	0.00186	0.000186
298.15	0.2001	0.002539	0.000255
298.15	0.3004	0.003849	0.000386
298.15	0.4006	0.00491	0.000492
298.15	0.4942	0.006307	0.000633
298.15	0.6006	0.008194	0.000822
298.15	0.6992	0.01034	0.00104
298.15	0.8026	0.01242	0.00125
298.15	0.8992	0.01535	0.00155
298.15	1	0.01892	0.0019
303.15	0	0.000975	9.8e-05
303.15	0.0989	0.001692	0.00017
303.15	0.2001	0.002313	0.000232
303.15	0.3004	0.003495	0.00035
303.15	0.4006	0.004471	0.000448
303.15	0.4942	0.00569	0.000571
303.15	0.6006	0.007345	0.000737
303.15	0.6992	0.009229	0.000926
303.15	0.8026	0.01086	0.00109
303.15	0.8992	0.01327	0.00134
303.15	1	0.01644	0.00165
308.15	0	0.00089	8.9e-05
308.15	0.0989	0.001548	0.000155
308.15	0.2001	0.002115	0.000212
308.15	0.3004	0.003186	0.000319
308.15	0.4006	0.004079	0.000409
308.15	0.4942	0.005169	0.000519
308.15	0.6006	0.006606	0.000663
308.15	0.6992	0.008279	0.000831
308.15	0.8026	0.009577	0.000961
308.15	0.8992	0.01154	0.00116
308.15	1	0.01431	0.00144
313.15	0	0.000815	8.2e-05
313.15	0.0989	0.001421	0.000142
313.15	0.2001	0.001945	0.000195
313.15	0.3004	0.002921	0.000293
313.15	0.4006	0.00374	0.000375
313.15	0.4942	0.004688	0.00047
313.15	0.6006	0.005986	0.000601
313.15	0.6992	0.007447	0.000747
313.15	0.8026	0.008507	0.000854
313.15	0.8992	0.01013	0.00102
313.15	1	0.01248	0.00125
318.15	0	0.000747	7.5e-05
318.15	0.0989	0.001311	0.000131
318.15	0.2001	0.001794	0.00018
318.15	0.3004	0.002678	0.000269
318.15	0.4006	0.003436	0.000345
318.15	0.4942	0.004309	0.000432
318.15	0.6006	0.005441	0.000546
318.15	0.6992	0.006738	0.000676
318.15	0.8026	0.007625	0.000765
318.15	0.8992	0.008967	0.000903
318.15	1	0.01098	0.0011

System: propan-1-ol + 1-ethylpyridinium dicyanamide; phases: Liquid
Fixed: Pressure, kPa = 100
Property: Mass density, kg/m3 (Liquid); method: Vibrating tube method
Temperature, K	Mole fraction of 1-ethylpyridinium dicyanamide	Mass density, kg/m3	uncertainty
288.15	0	807.55	0.2
288.15	0.1	874.04	0.44
288.15	0.1988	924.91	0.58
288.15	0.298	966.2	0.74
288.15	0.3997	1000.95	0.97
288.15	0.4992	1028.8	1.2
288.15	0.5971	1051.8	1.44
288.15	0.6989	1073.08	1.85
288.15	0.8053	1092.8	2.74
288.15	0.8905	1107.25	4.56
293.15	0	803.59	0.2
293.15	0.1	870.31	0.44
293.15	0.1988	921.34	0.58
293.15	0.298	962.74	0.75
293.15	0.3997	997.58	0.97
293.15	0.4992	1025.48	1.21
293.15	0.5971	1048.53	1.44
293.15	0.6989	1069.84	1.86
293.15	0.8053	1089.59	2.74
293.15	0.8905	1104.05	4.57
298.15	0	799.58	0.2
298.15	0.1	866.55	0.43
298.15	0.1988	917.75	0.58
298.15	0.298	959.28	0.75
298.15	0.3997	994.1	0.97
298.15	0.4992	1022	1.2
298.15	0.5971	1045.15	1.43
298.15	0.6989	1066.59	1.85
298.15	0.8053	1086.37	2.73
298.15	0.8905	1100.92	4.54
303.15	0	795.55	0.2
303.15	0.1	862.78	0.43
303.15	0.1988	914.16	0.58
303.15	0.298	955.82	0.75
303.15	0.3997	990.83	0.96
303.15	0.4992	1018.88	1.19
303.15	0.5971	1041.9	1.43
303.15	0.6989	1063.36	1.84
303.15	0.8053	1083.17	2.72
303.15	0.8905	1097.68	4.53
308.15	0	791.47	0.21
308.15	0.1	859.01	0.43
308.15	0.1988	910.57	0.57
308.15	0.298	952.37	0.75
308.15	0.3997	987.48	0.96
308.15	0.4992	1015.25	1.19
308.15	0.5971	1038.65	1.43
308.15	0.6989	1060.15	1.84
308.15	0.8053	1079.98	2.71
308.15	0.8905	1094.5	4.52
313.15	0	787.36	0.21
313.15	0.1	855.22	0.43
313.15	0.1988	906.98	0.57
313.15	0.298	948.92	0.74
313.15	0.3997	984.13	0.96
313.15	0.4992	1012.3	1.19
313.15	0.5971	1035.42	1.42
313.15	0.6989	1056.94	1.83
313.15	0.8053	1076.81	2.7
313.15	0.8905	1091.35	4.51
318.15	0	783.2	0.21
318.15	0.1	851.42	0.44
318.15	0.1988	903.39	0.57
318.15	0.298	945.48	0.74
318.15	0.3997	980.79	0.96
318.15	0.4992	1009.03	1.18
318.15	0.5971	1032.19	1.42
318.15	0.6989	1053.76	1.83
318.15	0.8053	1073.66	2.7
318.15	0.8905	1088.21	4.49
288.15	1	1124.73	2.02
293.15	1	1121.56	2.02
298.15	1	1118.49	2.02
303.15	1	1115.32	2.02
308.15	1	1112.15	2.02
313.15	1	1109	2.02
318.15	1	1105.88	2.02

System: propan-1-ol + 1-ethylpyridinium dicyanamide; phases: Liquid
Fixed: Pressure, kPa = 100
Property: Viscosity, Pa*s (Liquid); method: Falling or rolling sphere viscometry
Temperature, K	Mole fraction of 1-ethylpyridinium dicyanamide	Viscosity, Pa*s	uncertainty
288.15	0	0.002509	0.000252
288.15	0.1	0.003478	0.000349
288.15	0.1988	0.004586	0.00046
288.15	0.298	0.005992	0.000601
288.15	0.3997	0.007731	0.000775
288.15	0.4992	0.009695	0.000972
288.15	0.5971	0.01203	0.00121
288.15	0.6989	0.01525	0.00153
288.15	0.8053	0.01763	0.00177
288.15	0.8905	0.02054	0.00207
288.15	1	0.02591	0.0026
293.15	0	0.002216	0.000222
293.15	0.1	0.003094	0.00031
293.15	0.1988	0.004049	0.000406
293.15	0.298	0.005285	0.00053
293.15	0.3997	0.006777	0.00068
293.15	0.4992	0.008452	0.000848
293.15	0.5971	0.01043	0.00105
293.15	0.6989	0.01329	0.00133
293.15	0.8053	0.01531	0.00154
293.15	0.8905	0.01774	0.00178
293.15	1	0.0221	0.00222
298.15	0	0.001965	0.000197
298.15	0.1	0.002765	0.000277
298.15	0.1988	0.003608	0.000362
298.15	0.298	0.004699	0.000471
298.15	0.3997	0.005998	0.000601
298.15	0.4992	0.007449	0.000747
298.15	0.5971	0.009105	0.000913
298.15	0.6989	0.01165	0.00117
298.15	0.8053	0.01314	0.00132
298.15	0.8905	0.01533	0.00154
298.15	1	0.01892	0.0019
303.15	0	0.001748	0.000175
303.15	0.1	0.002483	0.000249
303.15	0.1988	0.003243	0.000325
303.15	0.298	0.004193	0.00042
303.15	0.3997	0.005344	0.000536
303.15	0.4992	0.006605	0.000662
303.15	0.5971	0.008038	0.000806
303.15	0.6989	0.01027	0.00103
303.15	0.8053	0.01134	0.00114
303.15	0.8905	0.01323	0.00133
303.15	1	0.01644	0.00165
308.15	0	0.001561	0.000157
308.15	0.1	0.002239	0.000224
308.15	0.1988	0.002922	0.000293
308.15	0.298	0.003778	0.000379
308.15	0.3997	0.004793	0.000481
308.15	0.4992	0.0059	0.000592
308.15	0.5971	0.007138	0.000716
308.15	0.6989	0.009109	0.000914
308.15	0.8053	0.009869	0.00099
308.15	0.8905	0.01143	0.00115
308.15	1	0.01431	0.00144
313.15	0	0.001364	0.000137
313.15	0.1	0.002029	0.000203
313.15	0.1988	0.002655	0.000266
313.15	0.298	0.003423	0.000343
313.15	0.3997	0.004328	0.000434
313.15	0.4992	0.005308	0.000532
313.15	0.5971	0.006387	0.000641
313.15	0.6989	0.008125	0.000815
313.15	0.8053	0.00876	0.000879
313.15	0.8905	0.009945	0.001
313.15	1	0.01248	0.00125
318.15	0	0.00123	0.000123
318.15	0.1	0.001842	0.000185
318.15	0.1988	0.002419	0.000243
318.15	0.298	0.003115	0.000312
318.15	0.3997	0.003931	0.000394
318.15	0.4992	0.004802	0.000482
318.15	0.5971	0.005759	0.000578
318.15	0.6989	0.007348	0.000737
318.15	0.8053	0.00785	0.000788
318.15	0.8905	0.008745	0.000879
318.15	1	0.01098	0.0011

System: propan-2-ol + 1-ethylpyridinium dicyanamide; phases: Liquid
Fixed: Pressure, kPa = 100
Property: Mass density, kg/m3 (Liquid); method: Vibrating tube method
Temperature, K	Mole fraction of 1-ethylpyridinium dicyanamide	Mass density, kg/m3	uncertainty
288.15	0	789.41	0.5
288.15	0.1003	858.24	0.72
288.15	0.1993	911.58	0.83
288.15	0.2994	955.4	1.01
288.15	0.4002	991.9	1.19
288.15	0.501	1022.55	1.38
288.15	0.5977	1047.38	1.6
288.15	0.7003	1070.54	1.84
288.15	0.8001	1089.54	2.27
288.15	0.8945	1106.69	3.18
293.15	0	785.29	0.5
293.15	0.1003	854.42	0.71
293.15	0.1993	907.98	0.83
293.15	0.2994	951.94	1.01
293.15	0.4002	988.53	1.18
293.15	0.501	1019.25	1.38
293.15	0.5977	1044.11	1.59
293.15	0.7003	1067.3	1.84
293.15	0.8001	1086.33	2.26
293.15	0.8945	1103.5	3.17
298.15	0	781.08	0.49
298.15	0.1003	850.58	0.71
298.15	0.1993	904.35	0.82
298.15	0.2994	948.46	1.01
298.15	0.4002	985.14	1.18
298.15	0.501	1015.93	1.38
298.15	0.5977	1040.84	1.59
298.15	0.7003	1064.06	1.83
298.15	0.8001	1083.12	2.25
298.15	0.8945	1100.37	3.17
303.15	0	776.81	0.49
303.15	0.1003	846.73	0.71
303.15	0.1993	900.73	0.82
303.15	0.2994	944.99	1.01
303.15	0.4002	981.77	1.18
303.15	0.501	1012.63	1.37
303.15	0.5977	1037.58	1.58
303.15	0.7003	1060.83	1.83
303.15	0.8001	1079.91	2.25
303.15	0.8945	1097.12	3.16
308.15	0	772.46	0.49
308.15	0.1003	842.85	0.7
308.15	0.1993	897.09	0.82
308.15	0.2994	941.52	1
308.15	0.4002	978.41	1.17
308.15	0.501	1009.34	1.37
308.15	0.5977	1034.33	1.58
308.15	0.7003	1057.62	1.82
308.15	0.8001	1076.73	2.24
308.15	0.8945	1093.96	3.15
313.15	0	768.02	0.5
313.15	0.1003	838.95	0.7
313.15	0.1993	893.45	0.81
313.15	0.2994	938.06	1
313.15	0.4002	975.05	1.17
313.15	0.501	1006.06	1.36
313.15	0.5977	1031.1	1.57
313.15	0.7003	1054.42	1.82
313.15	0.8001	1073.56	2.23
313.15	0.8945	1090.82	3.14
318.15	0	763.48	0.48
318.15	0.1003	835.03	0.71
318.15	0.1993	889.8	0.81
318.15	0.2994	934.59	0.99
318.15	0.4002	971.7	1.17
318.15	0.501	1002.79	1.36
318.15	0.5977	1027.88	1.57
318.15	0.7003	1051.24	1.81
318.15	0.8001	1070.41	2.23
318.15	0.8945	1087.68	3.13
288.15	1	1124.73	2.02
293.15	1	1121.56	2.02
298.15	1	1118.49	2.02
303.15	1	1115.32	2.02
308.15	1	1112.15	2.02
313.15	1	1109	2.02
318.15	1	1105.88	2.02

System: propan-2-ol + 1-ethylpyridinium dicyanamide; phases: Liquid
Fixed: Pressure, kPa = 100
Property: Viscosity, Pa*s (Liquid); method: Falling or rolling sphere viscometry
Temperature, K	Mole fraction of 1-ethylpyridinium dicyanamide	Viscosity, Pa*s	uncertainty
288.15	0	0.002833	0.000284
288.15	0.1003	0.003747	0.000376
288.15	0.1993	0.004779	0.000479
288.15	0.2994	0.006149	0.000617
288.15	0.4002	0.008044	0.000807
288.15	0.501	0.009961	0.000999
288.15	0.5977	0.01234	0.00124
288.15	0.7003	0.01508	0.00151
288.15	0.8001	0.01826	0.00183
288.15	0.8945	0.02127	0.00214
288.15	1	0.02591	0.0026
293.15	0	0.002424	0.000243
293.15	0.1003	0.003278	0.000329
293.15	0.1993	0.004176	0.000419
293.15	0.2994	0.005394	0.000541
293.15	0.4002	0.007023	0.000704
293.15	0.501	0.008679	0.000871
293.15	0.5977	0.01066	0.00107
293.15	0.7003	0.01293	0.0013
293.15	0.8001	0.01562	0.00157
293.15	0.8945	0.01804	0.00181
293.15	1	0.0221	0.00222
298.15	0	0.002083	0.000209
298.15	0.1003	0.002886	0.000289
298.15	0.1993	0.003696	0.000371
298.15	0.2994	0.004773	0.000479
298.15	0.4002	0.006185	0.00062
298.15	0.501	0.007607	0.000763
298.15	0.5977	0.009284	0.000931
298.15	0.7003	0.01122	0.00113
298.15	0.8001	0.01343	0.00135
298.15	0.8945	0.01559	0.00157
298.15	1	0.01892	0.0019
303.15	0	0.0018	0.00018
303.15	0.1003	0.002555	0.000256
303.15	0.1993	0.003293	0.00033
303.15	0.2994	0.004236	0.000425
303.15	0.4002	0.005489	0.000551
303.15	0.501	0.006723	0.000674
303.15	0.5977	0.008169	0.00082
303.15	0.7003	0.009835	0.000987
303.15	0.8001	0.0116	0.00116
303.15	0.8945	0.01349	0.00135
303.15	1	0.01644	0.00165
308.15	0	0.001562	0.000157
308.15	0.1003	0.002274	0.000228
308.15	0.1993	0.002952	0.000296
308.15	0.2994	0.003801	0.000381
308.15	0.4002	0.004907	0.000492
308.15	0.501	0.005995	0.000601
308.15	0.5977	0.007245	0.000727
308.15	0.7003	0.008687	0.000872
308.15	0.8001	0.01013	0.00102
308.15	0.8945	0.01173	0.00118
308.15	1	0.01431	0.00144
313.15	0	0.001331	0.000133
313.15	0.1003	0.002033	0.000204
313.15	0.1993	0.00266	0.000267
313.15	0.2994	0.00343	0.000344
313.15	0.4002	0.004418	0.000443
313.15	0.501	0.005377	0.000539
313.15	0.5977	0.006473	0.000649
313.15	0.7003	0.007723	0.000775
313.15	0.8001	0.008901	0.000893
313.15	0.8945	0.01028	0.00103
313.15	1	0.01248	0.00125
318.15	0	0.001171	0.000117
318.15	0.1003	0.001827	0.000183
318.15	0.1993	0.002408	0.000241
318.15	0.2994	0.003112	0.000312
318.15	0.4002	0.00399	0.0004
318.15	0.501	0.004852	0.000487
318.15	0.5977	0.005822	0.000584
318.15	0.7003	0.006919	0.000694
318.15	0.8001	0.007901	0.000793
318.15	0.8945	0.009085	0.000912
318.15	1	0.01098	0.0011
