Measured thermophysical data. Experimental and thermodynamic modeling study of the solid-liquid equilibrium in the ternary system (NaCl + NaClO3 + H2O) at 293.15 and 333.15 K and 0.1 MPa
Source: J. Chem. Thermodyn., 2018, 10.1016/j.jct.2018.06.026
Compound 1: sodium chloride, ClNa, InChI=1S/ClH.Na/h1H;/q;+1/p-1, purity 99.5%
Compound 2: sodium chlorate, ClNaO3, InChI=1S/ClHO3.Na/c2-1(3)4;/h(H,2,3,4);/q;+1/p-1, purity 99%
Compound 3: water, H2O, InChI=1S/H2O/h1H2, purity 99.8%

System: sodium chloride + sodium chlorate + water; phases: Liquid
Fixed: Pressure, kPa = 100
Property: Refractive index (Na D-line) (Liquid); method: Standard Abbe refractometry
Temperature, K	Mass fraction of sodium chloride	Mass fraction of sodium chlorate	Refractive index (Na D-line)	uncertainty
293.15	0	0.4834	1.388234	0.002021
293.15	0.0265	0.4505	1.389296	0.002021
293.15	0.0779	0.3792	1.391368	0.002021
293.15	0.1072	0.3484	1.392895	0.002021
293.15	0.1276	0.3231	1.39396	0.002021
293.15	0.1652	0.2202	1.389419	0.002021
293.15	0.2157	0.1088	1.384474	0.002021
293.15	0.265	0	1.38027	0.002021
313.15	0	0.5767	1.390916	0.002021
313.15	0.0044	0.5765	1.391491	0.002021
313.15	0.0207	0.5494	1.392378	0.002021
313.15	0.0367	0.5162	1.393218	0.002021
313.15	0.0747	0.475	1.394466	0.002021
313.15	0.1131	0.3695	1.388208	0.002021
313.15	0.1571	0.2546	1.382893	0.002021
313.15	0.2161	0.1198	1.377757	0.002021
313.15	0.2717	0	1.373861	0.002021

System: sodium chloride + sodium chlorate + water; phases: Liquid
Fixed: Pressure, kPa = 100
Property: Mass density, kg/m3 (Liquid); method: Vibrating tube method
Temperature, K	Mass fraction of sodium chloride	Mass fraction of sodium chlorate	Mass density, kg/m3	uncertainty
293.15	0	0.4834	1427.79	10.06
293.15	0.0265	0.4505	1413.8	10.16
293.15	0.0779	0.3792	1397.7	10.15
293.15	0.1072	0.3484	1391.4	10.15
293.15	0.1276	0.3231	1387.27	10.15
293.15	0.1652	0.2202	1324.88	10.14
293.15	0.2157	0.1088	1258.07	10.12
293.15	0.265	0	1200.01	10.07
313.15	0	0.5767	1493.97	10.07
313.15	0.0044	0.5765	1490.79	10.09
313.15	0.0207	0.5494	1473.16	10.17
313.15	0.0367	0.5162	1469.66	10.17
313.15	0.0747	0.475	1466.06	10.17
313.15	0.1131	0.3695	1392.01	10.15
313.15	0.1571	0.2546	1317.64	10.13
313.15	0.2161	0.1198	1241.05	10.12
313.15	0.2717	0	1181.06	10.07

System: sodium chloride + sodium chlorate + water; phases: Liquid, Crystal
Fixed: Pressure, kPa = 100
Property: Mass fraction of sodium chlorate (Liquid); method: Titration method
Temperature, K	Mass fraction of sodium chloride	Mass fraction of sodium chlorate	uncertainty
293.15	0	0.4834	0.0077
293.15	0.0265	0.4505	0.0152
293.15	0.0779	0.3792	0.0147
293.15	0.1072	0.3484	0.0145
293.15	0.1276	0.3231	0.0145
313.15	0	0.5767	0.0077
313.15	0.0044	0.5765	0.0106
313.15	0.0207	0.5494	0.0198
313.15	0.0367	0.5162	0.0151
313.15	0.0747	0.475	0.0131

System: sodium chloride + sodium chlorate + water; phases: Liquid, Crystal
Fixed: Pressure, kPa = 100
Property: Mass fraction of sodium chloride (Liquid); method: Titration method
Temperature, K	Mass fraction of sodium chlorate	Mass fraction of sodium chloride	uncertainty
293.15	0.3231	0.1276	0.0102
293.15	0.2202	0.1652	0.0103
293.15	0.1088	0.2157	0.0104
293.15	0	0.265	0.0098
313.15	0.475	0.0747	0.0102
313.15	0.3695	0.1131	0.0102
313.15	0.2546	0.1571	0.0103
313.15	0.1198	0.2161	0.0104
313.15	0	0.2717	0.0098

System: sodium chlorate + water; phases: Liquid
Fixed: Pressure, kPa = 100
Property: Refractive index (Na D-line) (Liquid); method: Standard Abbe refractometry
Temperature, K	Mass fraction of sodium chlorate	Refractive index (Na D-line)	uncertainty
293.15	0.4834	1.388234	0.002021
313.15	0.5767	1.390916	0.002021

System: sodium chlorate + water; phases: Liquid
Fixed: Pressure, kPa = 100
Property: Mass density, kg/m3 (Liquid); method: Vibrating tube method
Temperature, K	Mass fraction of sodium chlorate	Mass density, kg/m3	uncertainty
293.15	0.4834	1427.79	10.06
313.15	0.5767	1493.97	10.07

System: sodium chlorate + water; phases: Liquid, Crystal
Fixed: Pressure, kPa = 100
Property: Mass fraction of sodium chlorate (Liquid); method: Titration method
Temperature, K	Mass fraction of sodium chlorate	uncertainty
293.15	0.4834	0.0077
313.15	0.5767	0.0077

System: sodium chloride + water; phases: Liquid
Fixed: Pressure, kPa = 100
Property: Refractive index (Na D-line) (Liquid); method: Standard Abbe refractometry
Temperature, K	Mass fraction of sodium chloride	Refractive index (Na D-line)	uncertainty
293.15	0.265	1.38027	0.002021
313.15	0.2717	1.373861	0.002021

System: sodium chloride + water; phases: Liquid
Fixed: Pressure, kPa = 100
Property: Mass density, kg/m3 (Liquid); method: Vibrating tube method
Temperature, K	Mass fraction of sodium chloride	Mass density, kg/m3	uncertainty
293.15	0.265	1200.01	10.07
313.15	0.2717	1181.06	10.07

System: sodium chloride + water; phases: Liquid, Crystal
Fixed: Pressure, kPa = 100
Property: Mass fraction of sodium chloride (Liquid); method: Titration method
Temperature, K	Mass fraction of sodium chloride	uncertainty
293.15	0.265	0.0098
313.15	0.2717	0.0098
