Measured thermophysical data. Thermal stability analysis, experimental conductivity and pH of phosphonium-based deep eutectic solvents and their prediction by a new empirical equation
Source: J. Chem. Thermodyn., 2018, 10.1016/j.jct.2017.08.029
Compound 1: allyltriphenylphosphonium bromide, C21H20BrP, InChI=1S/C21H20P.BrH/c1-2-18-22(19-12-6-3-7-13-19,20-14-8-4-9-15-20)21-16-10-5-11-17-21;/h2-17H,1,18H2;1H/q+1;/p-1, purity 99%
Compound 2: diethylene glycol, C4H10O3, InChI=1S/C4H10O3/c5-1-3-7-4-2-6/h5-6H,1-4H2, purity 99%
Compound 3: triethylene glycol, C6H14O4, InChI=1S/C6H14O4/c7-1-3-9-5-6-10-4-2-8/h7-8H,1-6H2, purity 99%

System: allyltriphenylphosphonium bromide + diethylene glycol; phases: Liquid
Fixed: Pressure, kPa = 100
Property: Electrical conductivity, S/m (Liquid); method: Direct current cell with electrodes
Mass fraction of allyltriphenylphosphonium bromide	Temperature, K	Electrical conductivity, S/m	uncertainty
0.4745	293.15	0.1371	0.0389
0.4745	303.15	0.1485	0.0422
0.4745	313.15	0.1775	0.0504
0.4745	323.15	0.2221	0.0631
0.4745	333.15	0.2735	0.0777
0.4745	343.15	0.3386	0.0962
0.2653	293.15	0.1182	0.0336
0.2653	303.15	0.1289	0.0366
0.2653	313.15	0.1591	0.0452
0.2653	323.15	0.1975	0.0561
0.2653	333.15	0.253	0.0719
0.2653	343.15	0.3145	0.0893
0.1842	293.15	0.0997	0.0284
0.1842	303.15	0.1151	0.0327
0.1842	313.15	0.14	0.0398
0.1842	323.15	0.1752	0.0498
0.1842	333.15	0.2237	0.0636
0.1842	343.15	0.2793	0.0794

System: allyltriphenylphosphonium bromide + triethylene glycol; phases: Liquid
Fixed: Pressure, kPa = 100
Property: Electrical conductivity, S/m (Liquid); method: Direct current cell with electrodes
Mass fraction of allyltriphenylphosphonium bromide	Temperature, K	Electrical conductivity, S/m	uncertainty
0.3895	293.15	0.067	0.019
0.3895	303.15	0.0805	0.0229
0.3895	313.15	0.1123	0.0319
0.3895	323.15	0.1475	0.0419
0.3895	333.15	0.1933	0.0549
0.3895	343.15	0.244	0.0693
0.2033	293.15	0.0477	0.0136
0.2033	303.15	0.0632	0.018
0.2033	313.15	0.0905	0.0257
0.2033	323.15	0.1177	0.0335
0.2033	333.15	0.1553	0.0442
0.2033	343.15	0.2085	0.0593
0.1375	293.15	0.037	0.0106
0.1375	303.15	0.0441	0.0127
0.1375	313.15	0.0643	0.0185
0.1375	323.15	0.0881	0.0253
0.1375	333.15	0.1155	0.0331
0.1375	343.15	0.1495	0.0431
