Measured thermophysical data. Structural studies of cyclic ureas: 1. Enthalpies of formation of imidazolidin-2-one and N,N0-trimethyleneurea
Source: J. Chem. Thermodyn., 2008, 10.1016/j.jct.2007.08.004
Compound 1: carbon dioxide, CO2, InChI=1S/CO2/c2-1-3
Compound 2: nitrogen, N2, InChI=1S/N2/c1-2
Compound 3: water, H2O, InChI=1S/H2O/h1H2
Compound 4: oxygen, O2, InChI=1S/O2/c1-2
Compound 5: 2-imidazolidinone, C3H6N2O, InChI=1S/C3H6N2O/c6-3-4-1-2-5-3/h1-2H2,(H2,4,5,6), purity 96%
Compound 6: tetrahydropyrimidin-2(1H)-one, C4H8N2O, InChI=1S/C4H8N2O/c7-4-5-2-1-3-6-4/h1-3H2,(H2,5,6,7), purity 98%

System: 2-imidazolidinone; phases: Crystal 1, Liquid, Air at 1 atmosphere
Property: Molar enthalpy of transition or fusion, kJ/mol (Crystal 1); method: DSC
Molar enthalpy of transition or fusion, kJ/mol	uncertainty
13.2	0.4

System: 2-imidazolidinone; phases: Crystal 2, Crystal 1, Air at 1 atmosphere
Property: Molar enthalpy of transition or fusion, kJ/mol (Crystal 2); method: DSC
Molar enthalpy of transition or fusion, kJ/mol	uncertainty
3.8	0.3

System: 2-imidazolidinone; phases: Crystal 2, Crystal 1, Air at 1 atmosphere
Property: Triple point temperature, K (Crystal 2); method: DTA
Triple point temperature, K	uncertainty
346.6	0.7

System: 2-imidazolidinone; phases: Crystal 1, Liquid, Air at 1 atmosphere
Property: Triple point temperature, K (Crystal 1); method: DTA
Triple point temperature, K	uncertainty
404.8	0.5

System: 2-imidazolidinone; phases: Crystal 2
Fixed: Pressure, kPa = 101.325
Property: Molar heat capacity at constant pressure, J/K/mol (Crystal 2); method: Small sample (50 mg) DSC
Temperature, K	Molar heat capacity at constant pressure, J/K/mol	uncertainty
268.15	99.4	2
270.15	100	2
275.15	101.5	2
280.15	102.7	2.1
285.15	103.9	2.1
290.15	105.1	2.1
295.15	106.3	2.1
298.15	107.7	2.2
300.15	108.5	2.2
305.15	110.2	2.2
310.15	111.9	2.2
315.15	113.2	2.3
320.15	115.4	2.3
325.15	117.3	2.3
330.15	119	2.4
335.15	120.9	2.4
338.15	122.1	2.4

System: 2-imidazolidinone; phases: Crystal 2, Gas
Property: Vapor or sublimation pressure, kPa (Crystal 2); method: Calculated from knudsen effusion weight loss
Temperature, K	Vapor or sublimation pressure, kPa	uncertainty
327.2	0.0001064	2.04e-05
327.2	0.0001074	2.04e-05
327.2	0.0001035	2.03e-05
329.21	0.0001364	2.06e-05
329.21	0.0001328	2.05e-05
329.21	0.0001305	2.05e-05
331.14	0.0001664	2.09e-05
331.14	0.0001631	2.08e-05
331.14	0.0001658	2.08e-05
333.19	0.0002095	2.13e-05
333.19	0.0002142	2.14e-05
333.19	0.0002049	2.13e-05
335.21	0.0002681	2.21e-05
335.21	0.0002592	2.2e-05
335.21	0.0002535	2.19e-05
337.15	0.0003214	2.3e-05
337.15	0.000301	2.27e-05
337.15	0.00032	2.3e-05
339.2	0.0003984	2.45e-05
339.2	0.0003883	2.43e-05
341.21	0.000457	2.57e-05
341.21	0.0004831	2.63e-05
341.21	0.0004721	2.61e-05
343.14	0.0005644	2.83e-05
343.14	0.0005525	2.8e-05
343.14	0.0005387	2.76e-05
345.19	0.0006621	3.08e-05
345.19	0.0006672	3.1e-05
345.19	0.0006399	3.02e-05

System: 2-imidazolidinone; phases: Crystal 1, Gas
Property: Vapor or sublimation pressure, kPa (Crystal 1); method: Calculated from knudsen effusion weight loss
Temperature, K	Vapor or sublimation pressure, kPa	uncertainty
347.2	0.0007833	3.42e-05
347.2	0.0008114	3.5e-05
347.2	0.0007693	3.38e-05
349.16	0.0009806	4.01e-05
349.16	0.0009769	4e-05
349.16	0.0009472	3.9e-05

System: tetrahydropyrimidin-2(1H)-one; phases: Crystal
Fixed: Pressure, kPa = 101.325
Property: Molar heat capacity at constant pressure, J/K/mol (Crystal); method: Small sample (50 mg) DSC
Temperature, K	Molar heat capacity at constant pressure, J/K/mol	uncertainty
268.15	117.2	2.3
270.15	118	2.4
275.15	120.1	2.4
280.15	122.2	2.4
285.15	124.1	2.5
290.15	126.2	2.5
295.15	128.1	2.6
298.15	129.5	2.6
300.15	130.4	2.6
305.15	132.7	2.7
310.15	135.3	2.7
315.15	137.8	2.8
320.15	140.2	2.8
325.15	142.6	2.9
330.15	145.1	2.9
335.15	147.3	2.9
340.15	150.1	3
345.15	152.2	3
350.15	155.1	3.1
355.15	157.2	3.1
360.15	159.9	3.2
365.15	163.8	3.3
370.15	166.5	3.3
375.15	169.8	3.4
380.15	172.4	3.4
385.15	175.1	3.5
390.15	177.3	3.5
395.15	180.4	3.6
400.15	183.3	3.7
405.15	186.5	3.7
410.15	189.8	3.8
415.15	193.9	3.9
420.15	197.1	3.9
425.15	200.8	4
430.15	202.7	4.1
435.15	204.9	4.1
440.15	207.5	4.2
445.15	210.3	4.2
450.15	213.3	4.3
455.15	215.9	4.3
460.15	219.1	4.4
465.15	222.2	4.4
470.15	224.9	4.5

System: tetrahydropyrimidin-2(1H)-one; phases: Crystal, Gas
Property: Vapor or sublimation pressure, kPa (Crystal); method: Calculated from knudsen effusion weight loss
Temperature, K	Vapor or sublimation pressure, kPa	uncertainty
363.19	0.0001292	2.05e-05
363.19	0.0001261	2.05e-05
363.19	0.0001216	2.05e-05
365.18	0.0001581	2.08e-05
365.18	0.0001562	2.08e-05
365.18	0.0001488	2.07e-05
367.14	0.0001903	2.11e-05
367.14	0.0001913	2.11e-05
367.14	0.0001858	2.11e-05
369.19	0.0002283	2.16e-05
369.19	0.0002232	2.15e-05
371.17	0.000271	2.22e-05
371.17	0.0002737	2.22e-05
371.17	0.0002643	2.21e-05
373.15	0.0003343	2.32e-05
373.15	0.0003328	2.32e-05
375.18	0.0003988	2.45e-05
375.18	0.000402	2.46e-05
377.18	0.0004813	2.63e-05
377.18	0.0004804	2.63e-05
377.18	0.0004655	2.59e-05
379.16	0.0005717	2.85e-05
379.16	0.0005887	2.89e-05
379.16	0.0005753	2.86e-05
381.18	0.000719	3.24e-05
381.18	0.000702	3.19e-05
381.18	0.000673	3.11e-05
383.18	0.0008587	3.64e-05
383.18	0.0008463	3.6e-05
385.16	0.0010269	8e-05
385.16	0.0009846	4.02e-05

Reaction: -1 2-imidazolidinone + 3 carbon dioxide + 1 nitrogen + 3 water + -4 oxygen
Property: Specific internal energy of reaction at constant volume, J/g
-20498

Reaction: -1 tetrahydropyrimidin-2(1H)-one + 4 carbon dioxide + 1 nitrogen + 4 water + -5.5 oxygen
Property: Specific internal energy of reaction at constant volume, J/g
-23987.7
