Measured thermophysical data. Equilibrium partitioning of drug molecules between aqueous and amino acid ester-based ionic liquids
Source: J. Chem. Thermodyn., 2013, 10.1016/j.jct.2013.02.011
Compound 1: 1,2-benzopyrone, C9H6O2, InChI=1S/C9H6O2/c10-9-6-5-7-3-1-2-4-8(7)11-9/h1-6H, purity 99%
Compound 2: 7-hydroxy-2H-chromen-2-one, C9H6O3, InChI=1S/C9H6O3/c10-7-3-1-6-2-4-9(11)12-8(6)5-7/h1-5,10H, purity 99%
Compound 3: caffeine, C8H10N4O2, InChI=1S/C8H10N4O2/c1-10-4-9-6-5(10)7(13)12(3)8(14)11(6)2/h4H,1-3H3, purity 98%
Compound 4: 1H-purine-2,6-dione, 3,7-dihydro-3,7-dimethyl-, C7H8N4O2, InChI=1S/C7H8N4O2/c1-10-3-8-5-4(10)6(12)9-7(13)11(5)2/h3H,1-2H3,(H,9,12,13), purity 98%
Compound 5: 3,7-dihydro-1,3-dimethyl-1H-purine-2,6-dione, C7H8N4O2, InChI=1S/C7H8N4O2/c1-10-5-4(8-3-9-5)6(12)11(2)7(10)13/h3H,1-2H3,(H,8,9), purity 98%
Compound 6: inosine, C10H12N4O5, InChI=1S/C10H12N4O5/c15-1-4-6(16)7(17)10(19-4)14-3-13-5-8(14)11-2-12-9(5)18/h2-4,6-7,10,15-17H,1H2,(H,11,12,18)/t4-,6?,7?,10-/m1/s1, purity 98%
Compound 7: 2,6-diaminopurine, C5H6N6, InChI=1S/C5H6N6/c6-3-2-4(9-1-8-2)11-5(7)10-3/h1H,(H5,6,7,8,9,10,11), purity 98%
Compound 8: coumarin-3-carboxylic acid, C10H6O4, InChI=1S/C10H6O4/c11-9(12)7-5-6-3-1-2-4-8(6)14-10(7)13/h1-5H,(H,11,12), purity 98%
Compound 9: 4-hydroxycoumarin, C9H6O3, InChI=1S/C9H6O3/c10-7-5-9(11)12-8-4-2-1-3-6(7)8/h1-5,10H, purity 98%
Compound 10: 3-aminocoumarin, C9H7NO2, InChI=1S/C9H7NO2/c10-7-5-6-3-1-2-4-8(6)12-9(7)11/h1-5H,10H2, purity 98%
Compound 11: 6,7-dihydroxycoumarin, C9H6O4, InChI=1S/C9H6O4/c10-6-3-5-1-2-9(12)13-8(5)4-7(6)11/h1-4,10-11H, purity 98%
Compound 12: 4-methyl-6,7-dihydroxycoumarin, C10H8O4, InChI=1S/C10H8O4/c1-5-2-10(13)14-9-4-8(12)7(11)3-6(5)9/h2-4,11-12H,1H3, purity 97%
Compound 13: L-leucine methyl ester bis(trifluoromethylsulfonyl)imide, C9H16F6N2O6S2, InChI=1S/C7H15NO2.C2F6NO4S2/c1-5(2)4-6(8)7(9)10-3;3-1(4,5)14(10,11)9-15(12,13)2(6,7)8/h5-6H,4,8H2,1-3H3;/q;-1/p+1/t6-;/m0./s1
Compound 14: L-leucine ethyl ester bis(trifluoromethylsulfonyl)imide, C10H18F6N2O6S2, InChI=1S/C8H17NO2.C2F6NO4S2/c1-4-11-8(10)7(9)5-6(2)3;3-1(4,5)14(10,11)9-15(12,13)2(6,7)8/h6-7H,4-5,9H2,1-3H3;/q;-1/p+1/t7-;/m0./s1
Compound 15: methyl L-phenylalaninate, comp. with bis(trifluoromethylsulfonyl)imide, C12H14F6N2O6S2, InChI=1S/C10H13NO2.C2F6NO4S2/c1-13-10(12)9(11)7-8-5-3-2-4-6-8;3-1(4,5)14(10,11)9-15(12,13)2(6,7)8/h2-6,9H,7,11H2,1H3;/q;-1/p+1/t9-;/m0./s1
Compound 16: glycine benzyl ester bis(trifluoromethylsulfonyl)imide, C11H12F6N2O6S2, InChI=1S/C9H11NO2.C2F6NO4S2/c10-6-9(11)12-7-8-4-2-1-3-5-8;3-1(4,5)14(10,11)9-15(12,13)2(6,7)8/h1-5H,6-7,10H2;/q;-1/p+1
Compound 17: L-phenylalanine ethyl ester bis(trifluoromethylsulfonyl)imide, C13H16F6N2O6S2, InChI=1S/C11H15NO2.C2F6NO4S2/c1-2-14-11(13)10(12)8-9-6-4-3-5-7-9;3-1(4,5)14(10,11)9-15(12,13)2(6,7)8/h3-7,10H,2,8,12H2,1H3;/q;-1/p+1/t10-;/m0./s1
Compound 18: L-phenylglycine methyl ester bis(trifluoromethylsulfonyl)imide, C11H12F6N2O6S2, InChI=1S/C9H11NO2.C2F6NO4S2/c1-12-9(11)8(10)7-5-3-2-4-6-7;3-1(4,5)14(10,11)9-15(12,13)2(6,7)8/h2-6,8H,10H2,1H3;/q;-1/p+1/t8-;/m0./s1
Compound 19: L-tryptophan ethyl ester bis(trifluoromethylsulfonyl)imide, C15H17F6N3O6S2, InChI=1S/C13H16N2O2.C2F6NO4S2/c1-2-17-13(16)11(14)7-9-8-15-12-6-4-3-5-10(9)12;3-1(4,5)14(10,11)9-15(12,13)2(6,7)8/h3-6,8,11,15H,2,7,14H2,1H3;/q;-1/p+1/t11-;/m0./s1
Compound 20: water, H2O, InChI=1S/H2O/h1H2

System: L-leucine methyl ester bis(trifluoromethylsulfonyl)imide; phases: Glass, Liquid, Air at 1 atmosphere
Property: Triple point temperature, K (Glass); method: DTA
Triple point temperature, K	uncertainty
230.4	1.1

System: L-leucine ethyl ester bis(trifluoromethylsulfonyl)imide; phases: Glass, Liquid, Air at 1 atmosphere
Property: Triple point temperature, K (Glass); method: DTA
Triple point temperature, K	uncertainty
229.3	1.1

System: methyl L-phenylalaninate, comp. with bis(trifluoromethylsulfonyl)imide; phases: Glass, Liquid, Air at 1 atmosphere
Property: Triple point temperature, K (Glass); method: DTA
Triple point temperature, K	uncertainty
254.1	1.1

System: glycine benzyl ester bis(trifluoromethylsulfonyl)imide; phases: Glass, Liquid, Air at 1 atmosphere
Property: Triple point temperature, K (Glass); method: DTA
Triple point temperature, K	uncertainty
247.6	1.1

System: L-phenylalanine ethyl ester bis(trifluoromethylsulfonyl)imide; phases: Glass, Liquid, Air at 1 atmosphere
Property: Triple point temperature, K (Glass); method: DTA
Triple point temperature, K	uncertainty
240.3	1.1

System: L-phenylglycine methyl ester bis(trifluoromethylsulfonyl)imide; phases: Glass, Liquid, Air at 1 atmosphere
Property: Triple point temperature, K (Glass); method: DTA
Triple point temperature, K	uncertainty
261.4	1.1

System: L-tryptophan ethyl ester bis(trifluoromethylsulfonyl)imide; phases: Glass, Liquid, Air at 1 atmosphere
Property: Triple point temperature, K (Glass); method: DTA
Triple point temperature, K	uncertainty
260.2	1.1

System: 1,2-benzopyrone + water + L-leucine methyl ester bis(trifluoromethylsulfonyl)imide; phases: Liquid mixture 1, Liquid mixture 2
Property: Amount concentration (molarity), mol/dm3 of 1,2-benzopyrone (Liquid mixture 1); method: SPECTR
Amount concentration (molarity), mol/dm3 of 1,2-benzopyrone	Temperature, K	Pressure, kPa	Amount concentration (molarity), mol/dm3 of 1,2-benzopyrone	uncertainty
0.665	298.15	101	0.0292	0.0019

System: L-leucine ethyl ester bis(trifluoromethylsulfonyl)imide + 1,2-benzopyrone + water; phases: Liquid mixture 1, Liquid mixture 2
Property: Amount concentration (molarity), mol/dm3 of 1,2-benzopyrone (Liquid mixture 1); method: SPECTR
Amount concentration (molarity), mol/dm3 of 1,2-benzopyrone	Temperature, K	Pressure, kPa	Amount concentration (molarity), mol/dm3 of 1,2-benzopyrone	uncertainty
0.7325	298.15	101	0.0249	0.0016

System: glycine benzyl ester bis(trifluoromethylsulfonyl)imide + 1,2-benzopyrone + water; phases: Liquid mixture 1, Liquid mixture 2
Property: Amount concentration (molarity), mol/dm3 of 1,2-benzopyrone (Liquid mixture 1); method: SPECTR
Amount concentration (molarity), mol/dm3 of 1,2-benzopyrone	Temperature, K	Pressure, kPa	Amount concentration (molarity), mol/dm3 of 1,2-benzopyrone	uncertainty
0.5576	298.15	101	0.012	0.0008

System: L-phenylglycine methyl ester bis(trifluoromethylsulfonyl)imide + 1,2-benzopyrone + water; phases: Liquid mixture 1, Liquid mixture 2
Property: Amount concentration (molarity), mol/dm3 of 1,2-benzopyrone (Liquid mixture 1); method: SPECTR
Amount concentration (molarity), mol/dm3 of 1,2-benzopyrone	Temperature, K	Pressure, kPa	Amount concentration (molarity), mol/dm3 of 1,2-benzopyrone	uncertainty
0.655	298.15	101	0.0124	0.0008

System: 1,2-benzopyrone + water + methyl L-phenylalaninate, comp. with bis(trifluoromethylsulfonyl)imide; phases: Liquid mixture 1, Liquid mixture 2
Property: Amount concentration (molarity), mol/dm3 of 1,2-benzopyrone (Liquid mixture 1); method: SPECTR
Amount concentration (molarity), mol/dm3 of 1,2-benzopyrone	Temperature, K	Pressure, kPa	Amount concentration (molarity), mol/dm3 of 1,2-benzopyrone	uncertainty
0.72	298.15	101	0.0107	0.0007

System: 1,2-benzopyrone + water + L-phenylalanine ethyl ester bis(trifluoromethylsulfonyl)imide; phases: Liquid mixture 1, Liquid mixture 2
Property: Amount concentration (molarity), mol/dm3 of 1,2-benzopyrone (Liquid mixture 1); method: SPECTR
Amount concentration (molarity), mol/dm3 of 1,2-benzopyrone	Temperature, K	Pressure, kPa	Amount concentration (molarity), mol/dm3 of 1,2-benzopyrone	uncertainty
0.7075	298.15	101	0.0069	0.0005

System: 3-aminocoumarin + water + L-leucine methyl ester bis(trifluoromethylsulfonyl)imide; phases: Liquid mixture 1, Liquid mixture 2
Property: Amount concentration (molarity), mol/dm3 of 3-aminocoumarin (Liquid mixture 1); method: SPECTR
Amount concentration (molarity), mol/dm3 of 3-aminocoumarin	Temperature, K	Pressure, kPa	Amount concentration (molarity), mol/dm3 of 3-aminocoumarin	uncertainty
0.1332	298.15	101	0.0091	0.0006

System: L-leucine ethyl ester bis(trifluoromethylsulfonyl)imide + 3-aminocoumarin + water; phases: Liquid mixture 1, Liquid mixture 2
Property: Amount concentration (molarity), mol/dm3 of 3-aminocoumarin (Liquid mixture 1); method: SPECTR
Amount concentration (molarity), mol/dm3 of 3-aminocoumarin	Temperature, K	Pressure, kPa	Amount concentration (molarity), mol/dm3 of 3-aminocoumarin	uncertainty
0.136	298.15	101	0.0064	0.0004

System: 3-aminocoumarin + water + methyl L-phenylalaninate, comp. with bis(trifluoromethylsulfonyl)imide; phases: Liquid mixture 1, Liquid mixture 2
Property: Amount concentration (molarity), mol/dm3 of 3-aminocoumarin (Liquid mixture 1); method: SPECTR
Amount concentration (molarity), mol/dm3 of 3-aminocoumarin	Temperature, K	Pressure, kPa	Amount concentration (molarity), mol/dm3 of 3-aminocoumarin	uncertainty
0.1752	298.15	101	0.0033	0.0002

System: glycine benzyl ester bis(trifluoromethylsulfonyl)imide + 3-aminocoumarin + water; phases: Liquid mixture 1, Liquid mixture 2
Property: Amount concentration (molarity), mol/dm3 of 3-aminocoumarin (Liquid mixture 1); method: SPECTR
Amount concentration (molarity), mol/dm3 of 3-aminocoumarin	Temperature, K	Pressure, kPa	Amount concentration (molarity), mol/dm3 of 3-aminocoumarin	uncertainty
0.1432	298.15	101	0.0043	0.0003

System: 3-aminocoumarin + water + L-phenylalanine ethyl ester bis(trifluoromethylsulfonyl)imide; phases: Liquid mixture 1, Liquid mixture 2
Property: Amount concentration (molarity), mol/dm3 of 3-aminocoumarin (Liquid mixture 1); method: SPECTR
Amount concentration (molarity), mol/dm3 of 3-aminocoumarin	Temperature, K	Pressure, kPa	Amount concentration (molarity), mol/dm3 of 3-aminocoumarin	uncertainty
0.1744	298.15	101	0.0022	0.0002

System: L-phenylglycine methyl ester bis(trifluoromethylsulfonyl)imide + 3-aminocoumarin + water; phases: Liquid mixture 1, Liquid mixture 2
Property: Amount concentration (molarity), mol/dm3 of 3-aminocoumarin (Liquid mixture 1); method: SPECTR
Amount concentration (molarity), mol/dm3 of 3-aminocoumarin	Temperature, K	Pressure, kPa	Amount concentration (molarity), mol/dm3 of 3-aminocoumarin	uncertainty
0.1688	298.15	101	0.004	0.0003

System: coumarin-3-carboxylic acid + water + L-leucine methyl ester bis(trifluoromethylsulfonyl)imide; phases: Liquid mixture 1, Liquid mixture 2
Property: Amount concentration (molarity), mol/dm3 of coumarin-3-carboxylic acid (Liquid mixture 1); method: SPECTR
Amount concentration (molarity), mol/dm3 of coumarin-3-carboxylic acid	Temperature, K	Pressure, kPa	Amount concentration (molarity), mol/dm3 of coumarin-3-carboxylic acid	uncertainty
0.1452	298.15	101	0.011	0.0007

System: L-leucine ethyl ester bis(trifluoromethylsulfonyl)imide + coumarin-3-carboxylic acid + water; phases: Liquid mixture 1, Liquid mixture 2
Property: Amount concentration (molarity), mol/dm3 of coumarin-3-carboxylic acid (Liquid mixture 1); method: SPECTR
Amount concentration (molarity), mol/dm3 of coumarin-3-carboxylic acid	Temperature, K	Pressure, kPa	Amount concentration (molarity), mol/dm3 of coumarin-3-carboxylic acid	uncertainty
0.1308	298.15	101	0.0066	0.0004

System: glycine benzyl ester bis(trifluoromethylsulfonyl)imide + coumarin-3-carboxylic acid + water; phases: Liquid mixture 1, Liquid mixture 2
Property: Amount concentration (molarity), mol/dm3 of coumarin-3-carboxylic acid (Liquid mixture 1); method: SPECTR
Amount concentration (molarity), mol/dm3 of coumarin-3-carboxylic acid	Temperature, K	Pressure, kPa	Amount concentration (molarity), mol/dm3 of coumarin-3-carboxylic acid	uncertainty
0.1302	298.15	101	0.0058	0.0004

System: L-phenylglycine methyl ester bis(trifluoromethylsulfonyl)imide + coumarin-3-carboxylic acid + water; phases: Liquid mixture 1, Liquid mixture 2
Property: Amount concentration (molarity), mol/dm3 of coumarin-3-carboxylic acid (Liquid mixture 1); method: SPECTR
Amount concentration (molarity), mol/dm3 of coumarin-3-carboxylic acid	Temperature, K	Pressure, kPa	Amount concentration (molarity), mol/dm3 of coumarin-3-carboxylic acid	uncertainty
0.1522	298.15	101	0.0051	0.0003

System: coumarin-3-carboxylic acid + water + methyl L-phenylalaninate, comp. with bis(trifluoromethylsulfonyl)imide; phases: Liquid mixture 1, Liquid mixture 2
Property: Amount concentration (molarity), mol/dm3 of coumarin-3-carboxylic acid (Liquid mixture 1); method: SPECTR
Amount concentration (molarity), mol/dm3 of coumarin-3-carboxylic acid	Temperature, K	Pressure, kPa	Amount concentration (molarity), mol/dm3 of coumarin-3-carboxylic acid	uncertainty
0.1682	298.15	101	0.0045	0.0003

System: coumarin-3-carboxylic acid + water + L-phenylalanine ethyl ester bis(trifluoromethylsulfonyl)imide; phases: Liquid mixture 1, Liquid mixture 2
Property: Amount concentration (molarity), mol/dm3 of coumarin-3-carboxylic acid (Liquid mixture 1); method: SPECTR
Amount concentration (molarity), mol/dm3 of coumarin-3-carboxylic acid	Temperature, K	Pressure, kPa	Amount concentration (molarity), mol/dm3 of coumarin-3-carboxylic acid	uncertainty
0.1674	298.15	101	0.0034	0.0002

System: 4-hydroxycoumarin + water + L-leucine methyl ester bis(trifluoromethylsulfonyl)imide; phases: Liquid mixture 1, Liquid mixture 2
Property: Amount concentration (molarity), mol/dm3 of 4-hydroxycoumarin (Liquid mixture 1); method: SPECTR
Amount concentration (molarity), mol/dm3 of 4-hydroxycoumarin	Temperature, K	Pressure, kPa	Amount concentration (molarity), mol/dm3 of 4-hydroxycoumarin	uncertainty
0.0896	298.15	101	0.006	0.0004

System: L-leucine ethyl ester bis(trifluoromethylsulfonyl)imide + 4-hydroxycoumarin + water; phases: Liquid mixture 1, Liquid mixture 2
Property: Amount concentration (molarity), mol/dm3 of 4-hydroxycoumarin (Liquid mixture 1); method: SPECTR
Amount concentration (molarity), mol/dm3 of 4-hydroxycoumarin	Temperature, K	Pressure, kPa	Amount concentration (molarity), mol/dm3 of 4-hydroxycoumarin	uncertainty
0.0792	298.15	101	0.004	0.0003

System: glycine benzyl ester bis(trifluoromethylsulfonyl)imide + 4-hydroxycoumarin + water; phases: Liquid mixture 1, Liquid mixture 2
Property: Amount concentration (molarity), mol/dm3 of 4-hydroxycoumarin (Liquid mixture 1); method: SPECTR
Amount concentration (molarity), mol/dm3 of 4-hydroxycoumarin	Temperature, K	Pressure, kPa	Amount concentration (molarity), mol/dm3 of 4-hydroxycoumarin	uncertainty
0.0858	298.15	101	0.003	0.0002

System: L-phenylglycine methyl ester bis(trifluoromethylsulfonyl)imide + 4-hydroxycoumarin + water; phases: Liquid mixture 1, Liquid mixture 2
Property: Amount concentration (molarity), mol/dm3 of 4-hydroxycoumarin (Liquid mixture 1); method: SPECTR
Amount concentration (molarity), mol/dm3 of 4-hydroxycoumarin	Temperature, K	Pressure, kPa	Amount concentration (molarity), mol/dm3 of 4-hydroxycoumarin	uncertainty
0.1014	298.15	101	0.0031	0.0002

System: 4-hydroxycoumarin + water + methyl L-phenylalaninate, comp. with bis(trifluoromethylsulfonyl)imide; phases: Liquid mixture 1, Liquid mixture 2
Property: Amount concentration (molarity), mol/dm3 of 4-hydroxycoumarin (Liquid mixture 1); method: SPECTR
Amount concentration (molarity), mol/dm3 of 4-hydroxycoumarin	Temperature, K	Pressure, kPa	Amount concentration (molarity), mol/dm3 of 4-hydroxycoumarin	uncertainty
0.1106	298.15	101	0.0025	0.0002

System: 4-hydroxycoumarin + water + L-phenylalanine ethyl ester bis(trifluoromethylsulfonyl)imide; phases: Liquid mixture 1, Liquid mixture 2
Property: Amount concentration (molarity), mol/dm3 of 4-hydroxycoumarin (Liquid mixture 1); method: SPECTR
Amount concentration (molarity), mol/dm3 of 4-hydroxycoumarin	Temperature, K	Pressure, kPa	Amount concentration (molarity), mol/dm3 of 4-hydroxycoumarin	uncertainty
0.1026	298.15	101	0.0019	0.0001

System: 7-hydroxy-2H-chromen-2-one + water + L-leucine methyl ester bis(trifluoromethylsulfonyl)imide; phases: Liquid mixture 1, Liquid mixture 2
Property: Amount concentration (molarity), mol/dm3 of 7-hydroxy-2H-chromen-2-one (Liquid mixture 1); method: SPECTR
Amount concentration (molarity), mol/dm3 of 7-hydroxy-2H-chromen-2-one	Temperature, K	Pressure, kPa	Amount concentration (molarity), mol/dm3 of 7-hydroxy-2H-chromen-2-one	uncertainty
0.52	298.15	101	0.034	0.0022

System: L-leucine ethyl ester bis(trifluoromethylsulfonyl)imide + 7-hydroxy-2H-chromen-2-one + water; phases: Liquid mixture 1, Liquid mixture 2
Property: Amount concentration (molarity), mol/dm3 of 7-hydroxy-2H-chromen-2-one (Liquid mixture 1); method: SPECTR
Amount concentration (molarity), mol/dm3 of 7-hydroxy-2H-chromen-2-one	Temperature, K	Pressure, kPa	Amount concentration (molarity), mol/dm3 of 7-hydroxy-2H-chromen-2-one	uncertainty
0.5215	298.15	101	0.0241	0.0016

System: glycine benzyl ester bis(trifluoromethylsulfonyl)imide + 7-hydroxy-2H-chromen-2-one + water; phases: Liquid mixture 1, Liquid mixture 2
Property: Amount concentration (molarity), mol/dm3 of 7-hydroxy-2H-chromen-2-one (Liquid mixture 1); method: SPECTR
Amount concentration (molarity), mol/dm3 of 7-hydroxy-2H-chromen-2-one	Temperature, K	Pressure, kPa	Amount concentration (molarity), mol/dm3 of 7-hydroxy-2H-chromen-2-one	uncertainty
0.117	298.15	101	0.0043	0.0003

System: L-phenylglycine methyl ester bis(trifluoromethylsulfonyl)imide + 7-hydroxy-2H-chromen-2-one + water; phases: Liquid mixture 1, Liquid mixture 2
Property: Amount concentration (molarity), mol/dm3 of 7-hydroxy-2H-chromen-2-one (Liquid mixture 1); method: SPECTR
Amount concentration (molarity), mol/dm3 of 7-hydroxy-2H-chromen-2-one	Temperature, K	Pressure, kPa	Amount concentration (molarity), mol/dm3 of 7-hydroxy-2H-chromen-2-one	uncertainty
0.134	298.15	101	0.0041	0.0003

System: 7-hydroxy-2H-chromen-2-one + water + methyl L-phenylalaninate, comp. with bis(trifluoromethylsulfonyl)imide; phases: Liquid mixture 1, Liquid mixture 2
Property: Amount concentration (molarity), mol/dm3 of 7-hydroxy-2H-chromen-2-one (Liquid mixture 1); method: SPECTR
Amount concentration (molarity), mol/dm3 of 7-hydroxy-2H-chromen-2-one	Temperature, K	Pressure, kPa	Amount concentration (molarity), mol/dm3 of 7-hydroxy-2H-chromen-2-one	uncertainty
0.138	298.15	101	0.0029	0.0002

System: 7-hydroxy-2H-chromen-2-one + water + L-phenylalanine ethyl ester bis(trifluoromethylsulfonyl)imide; phases: Liquid mixture 1, Liquid mixture 2
Property: Amount concentration (molarity), mol/dm3 of 7-hydroxy-2H-chromen-2-one (Liquid mixture 1); method: SPECTR
Amount concentration (molarity), mol/dm3 of 7-hydroxy-2H-chromen-2-one	Temperature, K	Pressure, kPa	Amount concentration (molarity), mol/dm3 of 7-hydroxy-2H-chromen-2-one	uncertainty
0.138	298.15	101	0.0022	0.0002

System: 6,7-dihydroxycoumarin + water + L-leucine methyl ester bis(trifluoromethylsulfonyl)imide; phases: Liquid mixture 1, Liquid mixture 2
Property: Amount concentration (molarity), mol/dm3 of 6,7-dihydroxycoumarin (Liquid mixture 1); method: SPECTR
Amount concentration (molarity), mol/dm3 of 6,7-dihydroxycoumarin	Temperature, K	Pressure, kPa	Amount concentration (molarity), mol/dm3 of 6,7-dihydroxycoumarin	uncertainty
0.112	298.15	101	0.0174	0.0011

System: L-leucine ethyl ester bis(trifluoromethylsulfonyl)imide + 6,7-dihydroxycoumarin + water; phases: Liquid mixture 1, Liquid mixture 2
Property: Amount concentration (molarity), mol/dm3 of 6,7-dihydroxycoumarin (Liquid mixture 1); method: SPECTR
Amount concentration (molarity), mol/dm3 of 6,7-dihydroxycoumarin	Temperature, K	Pressure, kPa	Amount concentration (molarity), mol/dm3 of 6,7-dihydroxycoumarin	uncertainty
0.0956	298.15	101	0.0132	0.0009

System: glycine benzyl ester bis(trifluoromethylsulfonyl)imide + 6,7-dihydroxycoumarin + water; phases: Liquid mixture 1, Liquid mixture 2
Property: Amount concentration (molarity), mol/dm3 of 6,7-dihydroxycoumarin (Liquid mixture 1); method: SPECTR
Amount concentration (molarity), mol/dm3 of 6,7-dihydroxycoumarin	Temperature, K	Pressure, kPa	Amount concentration (molarity), mol/dm3 of 6,7-dihydroxycoumarin	uncertainty
0.0907	298.15	101	0.0104	0.0007

System: L-phenylglycine methyl ester bis(trifluoromethylsulfonyl)imide + 6,7-dihydroxycoumarin + water; phases: Liquid mixture 1, Liquid mixture 2
Property: Amount concentration (molarity), mol/dm3 of 6,7-dihydroxycoumarin (Liquid mixture 1); method: SPECTR
Amount concentration (molarity), mol/dm3 of 6,7-dihydroxycoumarin	Temperature, K	Pressure, kPa	Amount concentration (molarity), mol/dm3 of 6,7-dihydroxycoumarin	uncertainty
0.108	298.15	101	0.0124	0.0008

System: 6,7-dihydroxycoumarin + water + methyl L-phenylalaninate, comp. with bis(trifluoromethylsulfonyl)imide; phases: Liquid mixture 1, Liquid mixture 2
Property: Amount concentration (molarity), mol/dm3 of 6,7-dihydroxycoumarin (Liquid mixture 1); method: SPECTR
Amount concentration (molarity), mol/dm3 of 6,7-dihydroxycoumarin	Temperature, K	Pressure, kPa	Amount concentration (molarity), mol/dm3 of 6,7-dihydroxycoumarin	uncertainty
0.118	298.15	101	0.0124	0.0008

System: 6,7-dihydroxycoumarin + water + L-phenylalanine ethyl ester bis(trifluoromethylsulfonyl)imide; phases: Liquid mixture 1, Liquid mixture 2
Property: Amount concentration (molarity), mol/dm3 of 6,7-dihydroxycoumarin (Liquid mixture 1); method: SPECTR
Amount concentration (molarity), mol/dm3 of 6,7-dihydroxycoumarin	Temperature, K	Pressure, kPa	Amount concentration (molarity), mol/dm3 of 6,7-dihydroxycoumarin	uncertainty
0.13	298.15	101	0.0104	0.0007

System: 4-methyl-6,7-dihydroxycoumarin + water + L-leucine methyl ester bis(trifluoromethylsulfonyl)imide; phases: Liquid mixture 1, Liquid mixture 2
Property: Amount concentration (molarity), mol/dm3 of 4-methyl-6,7-dihydroxycoumarin (Liquid mixture 1); method: SPECTR
Amount concentration (molarity), mol/dm3 of 4-methyl-6,7-dihydroxycoumarin	Temperature, K	Pressure, kPa	Amount concentration (molarity), mol/dm3 of 4-methyl-6,7-dihydroxycoumarin	uncertainty
0.1076	298.15	101	0.0088	0.0006

System: L-leucine ethyl ester bis(trifluoromethylsulfonyl)imide + 4-methyl-6,7-dihydroxycoumarin + water; phases: Liquid mixture 1, Liquid mixture 2
Property: Amount concentration (molarity), mol/dm3 of 4-methyl-6,7-dihydroxycoumarin (Liquid mixture 1); method: SPECTR
Amount concentration (molarity), mol/dm3 of 4-methyl-6,7-dihydroxycoumarin	Temperature, K	Pressure, kPa	Amount concentration (molarity), mol/dm3 of 4-methyl-6,7-dihydroxycoumarin	uncertainty
0.1076	298.15	101	0.0066	0.0004

System: glycine benzyl ester bis(trifluoromethylsulfonyl)imide + 4-methyl-6,7-dihydroxycoumarin + water; phases: Liquid mixture 1, Liquid mixture 2
Property: Amount concentration (molarity), mol/dm3 of 4-methyl-6,7-dihydroxycoumarin (Liquid mixture 1); method: SPECTR
Amount concentration (molarity), mol/dm3 of 4-methyl-6,7-dihydroxycoumarin	Temperature, K	Pressure, kPa	Amount concentration (molarity), mol/dm3 of 4-methyl-6,7-dihydroxycoumarin	uncertainty
0.0844	298.15	101	0.0042	0.0003

System: L-phenylglycine methyl ester bis(trifluoromethylsulfonyl)imide + 4-methyl-6,7-dihydroxycoumarin + water; phases: Liquid mixture 1, Liquid mixture 2
Property: Amount concentration (molarity), mol/dm3 of 4-methyl-6,7-dihydroxycoumarin (Liquid mixture 1); method: SPECTR
Amount concentration (molarity), mol/dm3 of 4-methyl-6,7-dihydroxycoumarin	Temperature, K	Pressure, kPa	Amount concentration (molarity), mol/dm3 of 4-methyl-6,7-dihydroxycoumarin	uncertainty
0.0788	298.15	101	0.0037	0.0002

System: 4-methyl-6,7-dihydroxycoumarin + water + methyl L-phenylalaninate, comp. with bis(trifluoromethylsulfonyl)imide; phases: Liquid mixture 1, Liquid mixture 2
Property: Amount concentration (molarity), mol/dm3 of 4-methyl-6,7-dihydroxycoumarin (Liquid mixture 1); method: SPECTR
Amount concentration (molarity), mol/dm3 of 4-methyl-6,7-dihydroxycoumarin	Temperature, K	Pressure, kPa	Amount concentration (molarity), mol/dm3 of 4-methyl-6,7-dihydroxycoumarin	uncertainty
0.0898	298.15	101	0.003	0.0002

System: 4-methyl-6,7-dihydroxycoumarin + water + L-phenylalanine ethyl ester bis(trifluoromethylsulfonyl)imide; phases: Liquid mixture 1, Liquid mixture 2
Property: Amount concentration (molarity), mol/dm3 of 4-methyl-6,7-dihydroxycoumarin (Liquid mixture 1); method: SPECTR
Amount concentration (molarity), mol/dm3 of 4-methyl-6,7-dihydroxycoumarin	Temperature, K	Pressure, kPa	Amount concentration (molarity), mol/dm3 of 4-methyl-6,7-dihydroxycoumarin	uncertainty
0.0848	298.15	101	0.0028	0.0002

System: caffeine + water + L-leucine methyl ester bis(trifluoromethylsulfonyl)imide; phases: Liquid mixture 1, Liquid mixture 2
Property: Amount concentration (molarity), mol/dm3 of caffeine (Liquid mixture 1); method: SPECTR
Amount concentration (molarity), mol/dm3 of caffeine	Temperature, K	Pressure, kPa	Amount concentration (molarity), mol/dm3 of caffeine	uncertainty
0.5225	298.15	101	0.0228	0.0015

System: L-leucine ethyl ester bis(trifluoromethylsulfonyl)imide + caffeine + water; phases: Liquid mixture 1, Liquid mixture 2
Property: Amount concentration (molarity), mol/dm3 of caffeine (Liquid mixture 1); method: SPECTR
Amount concentration (molarity), mol/dm3 of caffeine	Temperature, K	Pressure, kPa	Amount concentration (molarity), mol/dm3 of caffeine	uncertainty
0.5075	298.15	101	0.015	0.001

System: glycine benzyl ester bis(trifluoromethylsulfonyl)imide + caffeine + water; phases: Liquid mixture 1, Liquid mixture 2
Property: Amount concentration (molarity), mol/dm3 of caffeine (Liquid mixture 1); method: SPECTR
Amount concentration (molarity), mol/dm3 of caffeine	Temperature, K	Pressure, kPa	Amount concentration (molarity), mol/dm3 of caffeine	uncertainty
0.968	298.15	101	0.022	0.0014

System: L-phenylglycine methyl ester bis(trifluoromethylsulfonyl)imide + caffeine + water; phases: Liquid mixture 1, Liquid mixture 2
Property: Amount concentration (molarity), mol/dm3 of caffeine (Liquid mixture 1); method: SPECTR
Amount concentration (molarity), mol/dm3 of caffeine	Temperature, K	Pressure, kPa	Amount concentration (molarity), mol/dm3 of caffeine	uncertainty
1.032	298.15	101	0.0226	0.0015

System: caffeine + water + methyl L-phenylalaninate, comp. with bis(trifluoromethylsulfonyl)imide; phases: Liquid mixture 1, Liquid mixture 2
Property: Amount concentration (molarity), mol/dm3 of caffeine (Liquid mixture 1); method: SPECTR
Amount concentration (molarity), mol/dm3 of caffeine	Temperature, K	Pressure, kPa	Amount concentration (molarity), mol/dm3 of caffeine	uncertainty
1.106	298.15	101	0.0192	0.0013

System: caffeine + water + L-phenylalanine ethyl ester bis(trifluoromethylsulfonyl)imide; phases: Liquid mixture 1, Liquid mixture 2
Property: Amount concentration (molarity), mol/dm3 of caffeine (Liquid mixture 1); method: SPECTR
Amount concentration (molarity), mol/dm3 of caffeine	Temperature, K	Pressure, kPa	Amount concentration (molarity), mol/dm3 of caffeine	uncertainty
1.121	298.15	101	0.018	0.0012

System: 1H-purine-2,6-dione, 3,7-dihydro-3,7-dimethyl- + water + L-leucine methyl ester bis(trifluoromethylsulfonyl)imide; phases: Liquid mixture 1, Liquid mixture 2
Property: Amount concentration (molarity), mol/dm3 of 1H-purine-2,6-dione, 3,7-dihydro-3,7-dimethyl- (Liquid mixture 1); method: SPECTR
Amount concentration (molarity), mol/dm3 of 1H-purine-2,6-dione, 3,7-dihydro-3,7-dimethyl-	Temperature, K	Pressure, kPa	Amount concentration (molarity), mol/dm3 of 1H-purine-2,6-dione, 3,7-dihydro-3,7-dimethyl-	uncertainty
0.495	298.15	101	0.0568	0.0037

System: L-leucine ethyl ester bis(trifluoromethylsulfonyl)imide + 1H-purine-2,6-dione, 3,7-dihydro-3,7-dimethyl- + water; phases: Liquid mixture 1, Liquid mixture 2
Property: Amount concentration (molarity), mol/dm3 of 1H-purine-2,6-dione, 3,7-dihydro-3,7-dimethyl- (Liquid mixture 1); method: SPECTR
Amount concentration (molarity), mol/dm3 of 1H-purine-2,6-dione, 3,7-dihydro-3,7-dimethyl-	Temperature, K	Pressure, kPa	Amount concentration (molarity), mol/dm3 of 1H-purine-2,6-dione, 3,7-dihydro-3,7-dimethyl-	uncertainty
0.491	298.15	101	0.05	0.0033

System: glycine benzyl ester bis(trifluoromethylsulfonyl)imide + 1H-purine-2,6-dione, 3,7-dihydro-3,7-dimethyl- + water; phases: Liquid mixture 1, Liquid mixture 2
Property: Amount concentration (molarity), mol/dm3 of 1H-purine-2,6-dione, 3,7-dihydro-3,7-dimethyl- (Liquid mixture 1); method: SPECTR
Amount concentration (molarity), mol/dm3 of 1H-purine-2,6-dione, 3,7-dihydro-3,7-dimethyl-	Temperature, K	Pressure, kPa	Amount concentration (molarity), mol/dm3 of 1H-purine-2,6-dione, 3,7-dihydro-3,7-dimethyl-	uncertainty
0.437	298.15	101	0.038	0.0025

System: L-phenylglycine methyl ester bis(trifluoromethylsulfonyl)imide + 1H-purine-2,6-dione, 3,7-dihydro-3,7-dimethyl- + water; phases: Liquid mixture 1, Liquid mixture 2
Property: Amount concentration (molarity), mol/dm3 of 1H-purine-2,6-dione, 3,7-dihydro-3,7-dimethyl- (Liquid mixture 1); method: SPECTR
Amount concentration (molarity), mol/dm3 of 1H-purine-2,6-dione, 3,7-dihydro-3,7-dimethyl-	Temperature, K	Pressure, kPa	Amount concentration (molarity), mol/dm3 of 1H-purine-2,6-dione, 3,7-dihydro-3,7-dimethyl-	uncertainty
0.462	298.15	101	0.038	0.0025

System: 1H-purine-2,6-dione, 3,7-dihydro-3,7-dimethyl- + water + methyl L-phenylalaninate, comp. with bis(trifluoromethylsulfonyl)imide; phases: Liquid mixture 1, Liquid mixture 2
Property: Amount concentration (molarity), mol/dm3 of 1H-purine-2,6-dione, 3,7-dihydro-3,7-dimethyl- (Liquid mixture 1); method: SPECTR
Amount concentration (molarity), mol/dm3 of 1H-purine-2,6-dione, 3,7-dihydro-3,7-dimethyl-	Temperature, K	Pressure, kPa	Amount concentration (molarity), mol/dm3 of 1H-purine-2,6-dione, 3,7-dihydro-3,7-dimethyl-	uncertainty
0.501	298.15	101	0.0336	0.0022

System: 1H-purine-2,6-dione, 3,7-dihydro-3,7-dimethyl- + water + L-phenylalanine ethyl ester bis(trifluoromethylsulfonyl)imide; phases: Liquid mixture 1, Liquid mixture 2
Property: Amount concentration (molarity), mol/dm3 of 1H-purine-2,6-dione, 3,7-dihydro-3,7-dimethyl- (Liquid mixture 1); method: SPECTR
Amount concentration (molarity), mol/dm3 of 1H-purine-2,6-dione, 3,7-dihydro-3,7-dimethyl-	Temperature, K	Pressure, kPa	Amount concentration (molarity), mol/dm3 of 1H-purine-2,6-dione, 3,7-dihydro-3,7-dimethyl-	uncertainty
0.488	298.15	101	0.0285	0.0019

System: 3,7-dihydro-1,3-dimethyl-1H-purine-2,6-dione + water + L-leucine methyl ester bis(trifluoromethylsulfonyl)imide; phases: Liquid mixture 1, Liquid mixture 2
Property: Amount concentration (molarity), mol/dm3 of 3,7-dihydro-1,3-dimethyl-1H-purine-2,6-dione (Liquid mixture 1); method: SPECTR
Amount concentration (molarity), mol/dm3 of 3,7-dihydro-1,3-dimethyl-1H-purine-2,6-dione	Temperature, K	Pressure, kPa	Amount concentration (molarity), mol/dm3 of 3,7-dihydro-1,3-dimethyl-1H-purine-2,6-dione	uncertainty
0.9863	298.15	101	0.1393	0.0091

System: L-leucine ethyl ester bis(trifluoromethylsulfonyl)imide + 3,7-dihydro-1,3-dimethyl-1H-purine-2,6-dione + water; phases: Liquid mixture 1, Liquid mixture 2
Property: Amount concentration (molarity), mol/dm3 of 3,7-dihydro-1,3-dimethyl-1H-purine-2,6-dione (Liquid mixture 1); method: SPECTR
Amount concentration (molarity), mol/dm3 of 3,7-dihydro-1,3-dimethyl-1H-purine-2,6-dione	Temperature, K	Pressure, kPa	Amount concentration (molarity), mol/dm3 of 3,7-dihydro-1,3-dimethyl-1H-purine-2,6-dione	uncertainty
0.9863	298.15	101	0.1195	0.0078

System: glycine benzyl ester bis(trifluoromethylsulfonyl)imide + 3,7-dihydro-1,3-dimethyl-1H-purine-2,6-dione + water; phases: Liquid mixture 1, Liquid mixture 2
Property: Amount concentration (molarity), mol/dm3 of 3,7-dihydro-1,3-dimethyl-1H-purine-2,6-dione (Liquid mixture 1); method: SPECTR
Amount concentration (molarity), mol/dm3 of 3,7-dihydro-1,3-dimethyl-1H-purine-2,6-dione	Temperature, K	Pressure, kPa	Amount concentration (molarity), mol/dm3 of 3,7-dihydro-1,3-dimethyl-1H-purine-2,6-dione	uncertainty
0.9201	298.15	101	0.108	0.007

System: L-phenylglycine methyl ester bis(trifluoromethylsulfonyl)imide + 3,7-dihydro-1,3-dimethyl-1H-purine-2,6-dione + water; phases: Liquid mixture 1, Liquid mixture 2
Property: Amount concentration (molarity), mol/dm3 of 3,7-dihydro-1,3-dimethyl-1H-purine-2,6-dione (Liquid mixture 1); method: SPECTR
Amount concentration (molarity), mol/dm3 of 3,7-dihydro-1,3-dimethyl-1H-purine-2,6-dione	Temperature, K	Pressure, kPa	Amount concentration (molarity), mol/dm3 of 3,7-dihydro-1,3-dimethyl-1H-purine-2,6-dione	uncertainty
1.0575	298.15	101	0.1152	0.0075

System: 3,7-dihydro-1,3-dimethyl-1H-purine-2,6-dione + water + methyl L-phenylalaninate, comp. with bis(trifluoromethylsulfonyl)imide; phases: Liquid mixture 1, Liquid mixture 2
Property: Amount concentration (molarity), mol/dm3 of 3,7-dihydro-1,3-dimethyl-1H-purine-2,6-dione (Liquid mixture 1); method: SPECTR
Amount concentration (molarity), mol/dm3 of 3,7-dihydro-1,3-dimethyl-1H-purine-2,6-dione	Temperature, K	Pressure, kPa	Amount concentration (molarity), mol/dm3 of 3,7-dihydro-1,3-dimethyl-1H-purine-2,6-dione	uncertainty
1.115	298.15	101	0.1015	0.0066

System: 3,7-dihydro-1,3-dimethyl-1H-purine-2,6-dione + water + L-phenylalanine ethyl ester bis(trifluoromethylsulfonyl)imide; phases: Liquid mixture 1, Liquid mixture 2
Property: Amount concentration (molarity), mol/dm3 of 3,7-dihydro-1,3-dimethyl-1H-purine-2,6-dione (Liquid mixture 1); method: SPECTR
Amount concentration (molarity), mol/dm3 of 3,7-dihydro-1,3-dimethyl-1H-purine-2,6-dione	Temperature, K	Pressure, kPa	Amount concentration (molarity), mol/dm3 of 3,7-dihydro-1,3-dimethyl-1H-purine-2,6-dione	uncertainty
1.1151	298.15	101	0.073	0.0048

System: inosine + water + L-leucine methyl ester bis(trifluoromethylsulfonyl)imide; phases: Liquid mixture 1, Liquid mixture 2
Property: Amount concentration (molarity), mol/dm3 of inosine (Liquid mixture 1); method: SPECTR
Amount concentration (molarity), mol/dm3 of inosine	Temperature, K	Pressure, kPa	Amount concentration (molarity), mol/dm3 of inosine	uncertainty
0.906	298.15	101	0.5198	0.0339

System: L-leucine ethyl ester bis(trifluoromethylsulfonyl)imide + inosine + water; phases: Liquid mixture 1, Liquid mixture 2
Property: Amount concentration (molarity), mol/dm3 of inosine (Liquid mixture 1); method: SPECTR
Amount concentration (molarity), mol/dm3 of inosine	Temperature, K	Pressure, kPa	Amount concentration (molarity), mol/dm3 of inosine	uncertainty
0.9071	298.15	101	0.4774	0.0311

System: glycine benzyl ester bis(trifluoromethylsulfonyl)imide + inosine + water; phases: Liquid mixture 1, Liquid mixture 2
Property: Amount concentration (molarity), mol/dm3 of inosine (Liquid mixture 1); method: SPECTR
Amount concentration (molarity), mol/dm3 of inosine	Temperature, K	Pressure, kPa	Amount concentration (molarity), mol/dm3 of inosine	uncertainty
0.9828	298.15	101	0.3963	0.0258

System: L-phenylglycine methyl ester bis(trifluoromethylsulfonyl)imide + inosine + water; phases: Liquid mixture 1, Liquid mixture 2
Property: Amount concentration (molarity), mol/dm3 of inosine (Liquid mixture 1); method: SPECTR
Amount concentration (molarity), mol/dm3 of inosine	Temperature, K	Pressure, kPa	Amount concentration (molarity), mol/dm3 of inosine	uncertainty
1.1232	298.15	101	0.4287	0.0279

System: inosine + water + methyl L-phenylalaninate, comp. with bis(trifluoromethylsulfonyl)imide; phases: Liquid mixture 1, Liquid mixture 2
Property: Amount concentration (molarity), mol/dm3 of inosine (Liquid mixture 1); method: SPECTR
Amount concentration (molarity), mol/dm3 of inosine	Temperature, K	Pressure, kPa	Amount concentration (molarity), mol/dm3 of inosine	uncertainty
1.0604	298.15	101	0.3842	0.025

System: inosine + water + L-phenylalanine ethyl ester bis(trifluoromethylsulfonyl)imide; phases: Liquid mixture 1, Liquid mixture 2
Property: Amount concentration (molarity), mol/dm3 of inosine (Liquid mixture 1); method: SPECTR
Amount concentration (molarity), mol/dm3 of inosine	Temperature, K	Pressure, kPa	Amount concentration (molarity), mol/dm3 of inosine	uncertainty
1.0384	298.15	101	0.3235	0.0211

System: 2,6-diaminopurine + water + L-leucine methyl ester bis(trifluoromethylsulfonyl)imide; phases: Liquid mixture 1, Liquid mixture 2
Property: Amount concentration (molarity), mol/dm3 of 2,6-diaminopurine (Liquid mixture 1); method: SPECTR
Amount concentration (molarity), mol/dm3 of 2,6-diaminopurine	Temperature, K	Pressure, kPa	Amount concentration (molarity), mol/dm3 of 2,6-diaminopurine	uncertainty
1.0375	298.15	101	0.4093	0.0267

System: L-leucine ethyl ester bis(trifluoromethylsulfonyl)imide + 2,6-diaminopurine + water; phases: Liquid mixture 1, Liquid mixture 2
Property: Amount concentration (molarity), mol/dm3 of 2,6-diaminopurine (Liquid mixture 1); method: SPECTR
Amount concentration (molarity), mol/dm3 of 2,6-diaminopurine	Temperature, K	Pressure, kPa	Amount concentration (molarity), mol/dm3 of 2,6-diaminopurine	uncertainty
1.03	298.15	101	0.388	0.0253

System: glycine benzyl ester bis(trifluoromethylsulfonyl)imide + 2,6-diaminopurine + water; phases: Liquid mixture 1, Liquid mixture 2
Property: Amount concentration (molarity), mol/dm3 of 2,6-diaminopurine (Liquid mixture 1); method: SPECTR
Amount concentration (molarity), mol/dm3 of 2,6-diaminopurine	Temperature, K	Pressure, kPa	Amount concentration (molarity), mol/dm3 of 2,6-diaminopurine	uncertainty
0.845	298.15	101	0.3007	0.0196

System: L-phenylglycine methyl ester bis(trifluoromethylsulfonyl)imide + 2,6-diaminopurine + water; phases: Liquid mixture 1, Liquid mixture 2
Property: Amount concentration (molarity), mol/dm3 of 2,6-diaminopurine (Liquid mixture 1); method: SPECTR
Amount concentration (molarity), mol/dm3 of 2,6-diaminopurine	Temperature, K	Pressure, kPa	Amount concentration (molarity), mol/dm3 of 2,6-diaminopurine	uncertainty
1.0638	298.15	101	0.3582	0.0234

System: 2,6-diaminopurine + water + methyl L-phenylalaninate, comp. with bis(trifluoromethylsulfonyl)imide; phases: Liquid mixture 1, Liquid mixture 2
Property: Amount concentration (molarity), mol/dm3 of 2,6-diaminopurine (Liquid mixture 1); method: SPECTR
Amount concentration (molarity), mol/dm3 of 2,6-diaminopurine	Temperature, K	Pressure, kPa	Amount concentration (molarity), mol/dm3 of 2,6-diaminopurine	uncertainty
1.0888	298.15	101	0.3058	0.0199

System: 2,6-diaminopurine + water + L-phenylalanine ethyl ester bis(trifluoromethylsulfonyl)imide; phases: Liquid mixture 1, Liquid mixture 2
Property: Amount concentration (molarity), mol/dm3 of 2,6-diaminopurine (Liquid mixture 1); method: SPECTR
Amount concentration (molarity), mol/dm3 of 2,6-diaminopurine	Temperature, K	Pressure, kPa	Amount concentration (molarity), mol/dm3 of 2,6-diaminopurine	uncertainty
1.0175	298.15	101	0.2795	0.0182
