Measured thermophysical data. Solubility measurement and thermodynamic functions of dehydroepiandrosterone acetate in different solvents at evaluated temperatures
Source: J. Chem. Thermodyn., 2016, 10.1016/j.jct.2016.01.023
Compound 1: dehydroepiandrosterone acetate, C21H30O3, InChI=1S/C21H30O3/c1-13(22)24-15-8-10-20(2)14(12-15)4-5-16-17-6-7-19(23)21(17,3)11-9-18(16)20/h4,15-18H,5-12H2,1-3H3/t15-,16-,17-,18-,20-,21-/m0/s1
Compound 2: methanol, CH4O, InChI=1S/CH4O/c1-2/h2H,1H3, purity 99.3%
Compound 3: ethanol, C2H6O, InChI=1S/C2H6O/c1-2-3/h3H,2H2,1H3, purity 99.2%
Compound 4: propan-2-ol, C3H8O, InChI=1S/C3H8O/c1-3(2)4/h3-4H,1-2H3, purity 99.4%
Compound 5: butan-1-ol, C4H10O, InChI=1S/C4H10O/c1-2-3-4-5/h5H,2-4H2,1H3, purity 99.3%
Compound 6: acetone, C3H6O, InChI=1S/C3H6O/c1-3(2)4/h1-2H3, purity 99.5%
Compound 7: ethyl acetate, C4H8O2, InChI=1S/C4H8O2/c1-3-6-4(2)5/h3H2,1-2H3, purity 99.4%
Compound 8: acetonitrile, C2H3N, InChI=1S/C2H3N/c1-2-3/h1H3, purity 99.5%
Compound 9: cyclohexane, C6H12, InChI=1S/C6H12/c1-2-4-6-5-3-1/h1-6H2, purity 99.2%

System: dehydroepiandrosterone acetate; phases: Crystal, Liquid, Air at 1 atmosphere
Property: Normal melting temperature, K (Crystal); method: DTA
Normal melting temperature, K	uncertainty
442.78	1.06

System: dehydroepiandrosterone acetate; phases: Crystal, Liquid, Air at 1 atmosphere
Property: Molar enthalpy of transition or fusion, kJ/mol (Crystal); method: DSC
Molar enthalpy of transition or fusion, kJ/mol	uncertainty
29.29	0.99

System: dehydroepiandrosterone acetate; phases: Crystal
Property: Mass density, kg/m3 (Crystal); method: Flotation method
Temperature, K	Pressure, kPa	Mass density, kg/m3	uncertainty
298.15	101.325	1289	2

System: methanol + dehydroepiandrosterone acetate; phases: Liquid, Crystal
Fixed: Pressure, kPa = 101.3
Property: Mole fraction of dehydroepiandrosterone acetate (Liquid); method: Chromatography
Temperature, K	Mole fraction of dehydroepiandrosterone acetate	uncertainty
273.15	0.001183	5e-05
278.15	0.001478	6.2e-05
283.15	0.001865	7.9e-05
288.15	0.002321	9.8e-05
293.15	0.002863	0.000121
298.15	0.003641	0.000153
303.15	0.00437	0.000184
308.15	0.005139	0.000216
313.15	0.006228	0.000262
318.15	0.007293	0.000307

System: ethanol + dehydroepiandrosterone acetate; phases: Liquid, Crystal
Fixed: Pressure, kPa = 101.3
Property: Mole fraction of dehydroepiandrosterone acetate (Liquid); method: Chromatography
Temperature, K	Mole fraction of dehydroepiandrosterone acetate	uncertainty
273.15	0.001853	7.8e-05
278.15	0.002341	9.9e-05
283.15	0.002919	0.000123
288.15	0.003638	0.000153
293.15	0.00456	0.000192
298.15	0.005661	0.000238
303.15	0.006951	0.000293
308.15	0.008491	0.000357
313.15	0.01021	0.00043
318.15	0.0125	0.00053

System: propan-2-ol + dehydroepiandrosterone acetate; phases: Liquid, Crystal
Fixed: Pressure, kPa = 101.3
Property: Mole fraction of dehydroepiandrosterone acetate (Liquid); method: Chromatography
Temperature, K	Mole fraction of dehydroepiandrosterone acetate	uncertainty
273.15	0.002131	9e-05
278.15	0.002619	0.00011
283.15	0.003318	0.00014
288.15	0.004153	0.000175
293.15	0.00526	0.000221
298.15	0.006461	0.000272
303.15	0.007737	0.000326
308.15	0.009471	0.000399
313.15	0.0113	0.00048
318.15	0.01356	0.00057

System: butan-1-ol + dehydroepiandrosterone acetate; phases: Liquid, Crystal
Fixed: Pressure, kPa = 101.3
Property: Mole fraction of dehydroepiandrosterone acetate (Liquid); method: Chromatography
Temperature, K	Mole fraction of dehydroepiandrosterone acetate	uncertainty
273.15	0.004541	0.000191
278.15	0.0054	0.000227
283.15	0.006417	0.00027
288.15	0.007692	0.000324
293.15	0.009105	0.000383
298.15	0.010731	0.000451
303.15	0.012613	0.000531
308.15	0.014732	0.00062
313.15	0.01707	0.00072
318.15	0.019704	0.000829

System: acetone + dehydroepiandrosterone acetate; phases: Liquid, Crystal
Fixed: Pressure, kPa = 101.3
Property: Mole fraction of dehydroepiandrosterone acetate (Liquid); method: Chromatography
Temperature, K	Mole fraction of dehydroepiandrosterone acetate	uncertainty
273.15	0.01463	0.00062
278.15	0.01691	0.00071
283.15	0.01943	0.00082
288.15	0.02213	0.00093
293.15	0.02501	0.00105
298.15	0.02824	0.00119
303.15	0.03125	0.00131
308.15	0.0346	0.00146
313.15	0.03851	0.00162
318.15	0.04272	0.0018

System: ethyl acetate + dehydroepiandrosterone acetate; phases: Liquid, Crystal
Fixed: Pressure, kPa = 101.3
Property: Mole fraction of dehydroepiandrosterone acetate (Liquid); method: Chromatography
Temperature, K	Mole fraction of dehydroepiandrosterone acetate	uncertainty
273.15	0.02544	0.00107
278.15	0.02917	0.00123
283.15	0.03285	0.00138
288.15	0.03641	0.00153
293.15	0.04097	0.00172
298.15	0.04491	0.00189
303.15	0.04941	0.00208
308.15	0.05479	0.0023
313.15	0.05989	0.00252
318.15	0.06457	0.00272

System: acetonitrile + dehydroepiandrosterone acetate; phases: Liquid, Crystal
Fixed: Pressure, kPa = 101.3
Property: Mole fraction of dehydroepiandrosterone acetate (Liquid); method: Chromatography
Temperature, K	Mole fraction of dehydroepiandrosterone acetate	uncertainty
273.15	0.003025	0.000127
278.15	0.003749	0.000158
283.15	0.004613	0.000194
288.15	0.005637	0.000237
293.15	0.006845	0.000288
298.15	0.008263	0.000348
303.15	0.00992	0.000417
308.15	0.011846	0.000498
313.15	0.014079	0.000592
318.15	0.016658	0.000701

System: cyclohexane + dehydroepiandrosterone acetate; phases: Liquid, Crystal
Fixed: Pressure, kPa = 101.3
Property: Mole fraction of dehydroepiandrosterone acetate (Liquid); method: Chromatography
Temperature, K	Mole fraction of dehydroepiandrosterone acetate	uncertainty
283.15	0.002931	0.000123
288.15	0.003757	0.000158
293.15	0.00485	0.000204
298.15	0.006158	0.000259
303.15	0.007819	0.000329
308.15	0.009938	0.000418
313.15	0.01267	0.00053
318.15	0.01574	0.00066
