Measured thermophysical data. Measurements and modeling for the density of 2-methoxy-2,4,4- trimethylpentane, HE for (methanol + 2-methoxy-2,4,4- trimethylpentane), LLE for (water + 2-methoxy-2,4,4-trimethylpentane) and LLE for (water + methanol + 2-methoxy-2,4,4-trimethylpentane)
Source: J. Chem. Thermodyn., 2015, 10.1016/j.jct.2015.08.011
Compound 1: methyl 1,1,3,3-tetramethylbutyl ether, C9H20O, InChI=1S/C9H20O/c1-8(2,3)7-9(4,5)10-6/h7H2,1-6H3
Compound 2: water, H2O, InChI=1S/H2O/h1H2, purity 99.9%
Compound 3: methanol, CH4O, InChI=1S/CH4O/c1-2/h2H,1H3, purity 99.97%

System: methyl 1,1,3,3-tetramethylbutyl ether; phases: Liquid
Fixed: Pressure, kPa = 101.325
Property: Mass density, kg/m3 (Liquid); method: Vibrating tube method
Temperature, K	Mass density, kg/m3	uncertainty
298.15	792.4	1.6
308.15	784.1	1.6
318.15	776	1.6
328.15	767.6	1.5
338.15	759.2	1.5
348.15	750.7	1.5
358.15	742.1	1.5
368.15	733.4	1.5
378.15	724.5	1.5
388.15	715.5	1.4
398.15	706.3	1.4
408.16	696.8	1.4

System: methanol; phases: Liquid
Property: Mass density, kg/m3 (Liquid); method: Vibrating tube method
Temperature, K	Pressure, kPa	Mass density, kg/m3	uncertainty
298.15	101.325	786.2	1.6

System: methanol + methyl 1,1,3,3-tetramethylbutyl ether; phases: Liquid
Fixed: Temperature, K = 298.15
Fixed: Pressure, kPa = 101
Property: Excess molar enthalpy (molar enthalpy of mixing), kJ/mol (Liquid); method: Flow calorimetry
Mole fraction of methanol	Excess molar enthalpy (molar enthalpy of mixing), kJ/mol	uncertainty
0.051	0.199	0.014
0.097	0.321	0.017
0.193	0.459	0.023
0.299	0.526	0.026
0.391	0.537	0.026
0.489	0.518	0.025
0.591	0.468	0.023
0.695	0.404	0.02
0.794	0.308	0.016
0.896	0.178	0.01

System: water + methyl 1,1,3,3-tetramethylbutyl ether; phases: Liquid mixture 1, Liquid mixture 2
Fixed: Pressure, kPa = 101
Property: Mole fraction of water (Liquid mixture 1); method: Chromatography
Temperature, K	Mole fraction of water	uncertainty
283.15	0.9997	0.0002
288.15	0.9997	0.0002
298.15	0.9998	0.0002
308.15	0.9999	0.0001
318.15	0.9999	0.0001

System: water + methyl 1,1,3,3-tetramethylbutyl ether; phases: Liquid mixture 2, Liquid mixture 1
Fixed: Pressure, kPa = 101
Property: Mole fraction of water (Liquid mixture 2); method: Titration method
Temperature, K	Mole fraction of water	uncertainty
283.15	0.011	0.0003
288.15	0.012	0.0003
298.15	0.0143	0.0004
308.15	0.0165	0.0004
318.15	0.0192	0.0005

System: methanol + water + methyl 1,1,3,3-tetramethylbutyl ether; phases: Liquid mixture 1, Liquid mixture 2
Fixed: Pressure, kPa = 101
Property: Mole fraction of water (Liquid mixture 1); method: Chromatography
Property: Mole fraction of water (Liquid mixture 2); method: Chromatography
Property: Mole fraction of methanol (Liquid mixture 2); method: Chromatography
Temperature, K	Mole fraction of methanol	Mole fraction of water	uncertainty	Mole fraction of water	uncertainty	Mole fraction of methanol	uncertainty
283.15	0.659	0.239	0.026	0.137	0.004	0.536	
283.15	0.65	0.296	0.012	0.095	0.004	0.433	
283.15	0.623	0.346	0.007	0.07	0.004	0.345	
283.15	0.531	0.459	0.007	0.046	0.004	0.231	
283.15	0.408	0.589	0.006	0.03	0.004	0.143	
283.15	0.305	0.694	0.006	0.023	0.004	0.094	
283.15	0.143	0.857	0.006	0.014	0.004	0.033	
283.15	0.049	0.951	0.006	0.013	0.004	0.009	
298.15	0.635	0.233	0.011	0.177	0.005	0.58	
298.15	0.645	0.291	0.024	0.118	0.005	0.473	
298.15	0.621	0.344	0.032	0.085	0.004	0.381	
298.15	0.532	0.457	0.007	0.052	0.004	0.251	
298.15	0.414	0.582	0.007	0.035	0.004	0.16	
298.15	0.306	0.693	0.006	0.029	0.004	0.107	
298.15	0.141	0.855	0.006	0.017	0.004	0.04	
298.15	0.048	0.952	0.006	0.013	0.004	0.011	
