Measured thermophysical data. Isobaric vapour-liquid equilibrium for binary systems of ethyl iodide with ethanol, propionic acid and ethyl propionate at 101.3 kPa
Source: J. Chem. Thermodyn., 2019, 10.1016/j.jct.2018.12.023
Compound 1: iodoethane, C2H5I, InChI=1S/C2H5I/c1-2-3/h2H2,1H3, purity 99%
Compound 2: ethanol, C2H6O, InChI=1S/C2H6O/c1-2-3/h3H,2H2,1H3, purity 99.7%
Compound 3: propanoic acid, C3H6O2, InChI=1S/C3H6O2/c1-2-3(4)5/h2H2,1H3,(H,4,5), purity 99.5%
Compound 4: ethyl propanoate, C5H10O2, InChI=1S/C5H10O2/c1-3-5(6)7-4-2/h3-4H2,1-2H3, purity 99%

System: iodoethane; phases: Liquid, Gas
Property: Vapor or sublimation pressure, kPa (Liquid); method: Ebulliometric method (Recirculating still)
Temperature, K	Vapor or sublimation pressure, kPa	uncertainty
345.5	101.3	1.6

System: ethanol; phases: Liquid, Gas
Property: Vapor or sublimation pressure, kPa (Liquid); method: Ebulliometric method (Recirculating still)
Temperature, K	Vapor or sublimation pressure, kPa	uncertainty
351.45	101.3	1.6

System: propanoic acid; phases: Liquid, Gas
Property: Vapor or sublimation pressure, kPa (Liquid); method: Ebulliometric method (Recirculating still)
Temperature, K	Vapor or sublimation pressure, kPa	uncertainty
414.32	101.3	1.6

System: ethyl propanoate; phases: Liquid, Gas
Property: Vapor or sublimation pressure, kPa (Liquid); method: Ebulliometric method (Recirculating still)
Temperature, K	Vapor or sublimation pressure, kPa	uncertainty
372.25	101.3	1.6

System: iodoethane + ethanol; phases: Liquid, Gas
Fixed: Pressure, kPa = 101.3
Property: Boiling temperature at pressure P, K (Liquid); method: Ebulliometric method (Recirculating still)
Mole fraction of iodoethane	Boiling temperature at pressure P, K	uncertainty
0	351.45	0.33
0.0281	348.12	1.01
0.0736	344.3	0.65
0.1392	341.82	0.5
0.1799	340.29	0.44
0.2768	337.81	0.38
0.3681	336.71	0.34
0.4303	336.44	0.34
0.4879	336.22	0.33
0.5288	336.1	0.33
0.6027	336.06	0.33
0.6574	336.13	0.33
0.7574	336.18	0.34
0.8978	337.2	0.38
0.9609	340.48	1.62
0.9746	342.65	1.33
1	345.6	0.33

System: iodoethane + ethanol; phases: Gas, Liquid
Fixed: Pressure, kPa = 101.3
Property: Mole fraction of iodoethane (Gas); method: Chromatography
Mole fraction of iodoethane	Mole fraction of iodoethane	uncertainty
0	0	
0.0281	0.1511	0.0421
0.0736	0.3061	0.0243
0.1392	0.4013	0.0181
0.1799	0.4613	0.0148
0.2768	0.5441	0.0129
0.3681	0.589	0.0116
0.4303	0.6051	0.0111
0.4879	0.6203	0.011
0.5288	0.6245	0.011
0.6027	0.6444	0.0111
0.6574	0.6587	0.0107
0.7574	0.66	0.011
0.8978	0.7205	0.0126
0.9609	0.8111	0.0559
0.9746	0.8864	0.0489
1	1	

System: iodoethane + propanoic acid; phases: Liquid, Gas
Fixed: Pressure, kPa = 101.3
Property: Boiling temperature at pressure P, K (Liquid); method: Ebulliometric method (Recirculating still)
Mole fraction of iodoethane	Boiling temperature at pressure P, K	uncertainty
1	345.45	0.33
0.9899	345.65	0.49
0.9729	346.38	0.54
0.9375	347.9	0.54
0.7699	352.88	0.47
0.7037	355.67	0.54
0.5707	361.28	0.54
0.5309	363.15	0.6
0.4713	366.19	0.62
0.43	368.5	0.65
0.36	372.41	0.74
0.287	377.91	0.92
0.154	390	1.02
0.108	395.48	1.39
0.0533	403.56	1.64
0.0198	409.79	2.03
0	414.32	0.33

System: iodoethane + propanoic acid; phases: Gas, Liquid
Fixed: Pressure, kPa = 101.3
Property: Mole fraction of iodoethane (Gas); method: Chromatography
Mole fraction of iodoethane	Mole fraction of iodoethane	uncertainty
1	1	
0.9899	0.9987	0.0013
0.9729	0.9975	0.0025
0.9375	0.9913	0.0087
0.7699	0.9766	0.0101
0.7037	0.9663	0.0103
0.5707	0.9323	0.0104
0.5309	0.9188	0.0107
0.4713	0.8971	0.011
0.43	0.8755	0.0111
0.36	0.8472	0.0119
0.287	0.789	0.0154
0.154	0.6176	0.0184
0.108	0.5125	0.0304
0.0533	0.3344	0.0408
0.0198	0.158	0.0625
0	0	

System: iodoethane + ethyl propanoate; phases: Liquid, Gas
Fixed: Pressure, kPa = 101.3
Property: Boiling temperature at pressure P, K (Liquid); method: Ebulliometric method (Recirculating still)
Mole fraction of iodoethane	Boiling temperature at pressure P, K	uncertainty
1	345.45	0.33
0.9243	346.39	0.35
0.8333	347.44	0.36
0.7348	348.91	0.37
0.646	350.26	0.38
0.5691	351.92	0.39
0.5062	353	0.38
0.445	354.2	0.39
0.3959	355.19	0.43
0.3301	357.25	0.44
0.2797	358.45	0.43
0.2138	360.45	0.52
0.1351	364.15	0.61
0.0664	368.01	0.69
0	372.25	0.33

System: iodoethane + ethyl propanoate; phases: Gas, Liquid
Fixed: Pressure, kPa = 101.3
Property: Mole fraction of iodoethane (Gas); method: Chromatography
Mole fraction of iodoethane	Mole fraction of iodoethane	uncertainty
1	1	
0.9243	0.9456	0.0116
0.8333	0.9016	0.0116
0.7348	0.8367	0.0122
0.646	0.7783	0.0127
0.5691	0.716	0.0125
0.5062	0.6873	0.0121
0.445	0.6483	0.0122
0.3959	0.629	0.0137
0.3301	0.5565	0.0157
0.2797	0.5014	0.0152
0.2138	0.4394	0.0159
0.1351	0.337	0.0195
0.0664	0.1966	0.0269
0	0	
