Measured thermophysical data. Volumetric and viscometric studies of cefepime hydrochloride in water and normal saline from (278.15 to 313.15) K
Source: J. Chem. Thermodyn., 2013, 10.1016/j.jct.2013.06.009
Compound 1: water, H2O, InChI=1S/H2O/h1H2
Compound 2: cefepime dihydrochloride, C19H26Cl2N6O5S2, InChI=1S/C19H24N6O5S2.2ClH/c1-25(5-3-4-6-25)7-10-8-31-17-13(16(27)24(17)14(10)18(28)29)22-15(26)12(23-30-2)11-9-32-19(20)21-11;;/h9,13,17H,3-8H2,1-2H3,(H3-,20,21,22,26,28,29);2*1H/b23-12-;;/t13-,17-;;/m1../s1, purity 99%
Compound 3: sodium chloride, ClNa, InChI=1S/ClH.Na/h1H;/q;+1/p-1, purity 99.7%

System: water; phases: Liquid
Fixed: Pressure, kPa = 101.33
Property: Mass density, kg/m3 (Liquid); method: Vibrating tube method
Temperature, K	Mass density, kg/m3	uncertainty
278.15	999.96	0.2
283.15	999.7	0.2
288.15	999.1	0.2
293.15	998.2	0.2
298.15	997.05	0.2
303.15	995.65	0.2
308.15	994.04	0.2
313.15	992.22	0.2

System: water; phases: Liquid
Fixed: Pressure, kPa = 101.33
Property: Viscosity, Pa*s (Liquid); method: Capillary tube (Ostwald; Ubbelohde) method
Temperature, K	Viscosity, Pa*s	uncertainty
278.15	0.001521	3.18e-05
283.15	0.001307	2.74e-05
288.15	0.001135	2.38e-05
293.15	0.001002	2.1e-05
298.15	0.0008903	1.86e-05
303.15	0.0007977	1.67e-05
308.15	0.000719	1.51e-05
313.15	0.0006532	1.37e-05

System: water + cefepime dihydrochloride; phases: Liquid
Fixed: Pressure, kPa = 101.33
Property: Mass density, kg/m3 (Liquid); method: Vibrating tube method
Temperature, K	Molality, mol/kg of cefepime dihydrochloride	Mass density, kg/m3	uncertainty
278.15	0	999.96	0.21
278.15	0.01005	1002	0.21
278.15	0.02017	1004.01	0.21
278.15	0.0304	1006.02	0.21
278.15	0.05103	1009.98	0.21
278.15	0.07222	1013.97	0.21
278.15	0.09333	1017.86	0.21
278.15	0.1154	1021.84	0.21
278.15	0.1343	1025.19	0.21
278.15	0.1521	1028.29	0.21
283.15	0	999.7	0.21
283.15	0.01005	1001.73	0.21
283.15	0.02017	1003.73	0.21
283.15	0.0304	1005.73	0.21
283.15	0.05103	1009.67	0.21
283.15	0.07222	1013.62	0.21
283.15	0.09333	1017.47	0.21
283.15	0.1154	1021.4	0.21
283.15	0.1343	1024.71	0.21
283.15	0.1521	1027.79	0.21
288.15	0	999.1	0.21
288.15	0.01005	1001.11	0.21
288.15	0.02017	1003.1	0.21
288.15	0.0304	1005.08	0.21
288.15	0.05103	1008.98	0.21
288.15	0.07222	1012.89	0.21
288.15	0.09333	1016.7	0.21
288.15	0.1154	1020.61	0.21
288.15	0.1343	1023.89	0.21
288.15	0.1521	1026.93	0.21
293.15	0	998.2	0.21
293.15	0.01005	1000.2	0.21
293.15	0.02017	1002.18	0.21
293.15	0.0304	1004.15	0.21
293.15	0.05103	1008.03	0.21
293.15	0.07222	1011.91	0.21
293.15	0.09333	1015.7	0.21
293.15	0.1154	1019.57	0.21
293.15	0.1343	1022.82	0.21
293.15	0.1521	1025.83	0.21
298.15	0	997.05	0.21
298.15	0.01005	999.04	0.21
298.15	0.02017	1001.01	0.21
298.15	0.0304	1002.97	0.21
298.15	0.05103	1006.84	0.21
298.15	0.07222	1010.7	0.21
298.15	0.09333	1014.46	0.21
298.15	0.1154	1018.29	0.21
298.15	0.1343	1021.51	0.21
298.15	0.1521	1024.5	0.21
303.15	0	995.65	0.21
303.15	0.01005	997.63	0.21
303.15	0.02017	999.59	0.21
303.15	0.0304	1001.53	0.21
303.15	0.05103	1005.38	0.21
303.15	0.07222	1009.21	0.21
303.15	0.09333	1012.95	0.21
303.15	0.1154	1016.75	0.21
303.15	0.1343	1019.94	0.21
303.15	0.1521	1022.9	0.21
308.15	0	994.04	0.21
308.15	0.01005	996.01	0.21
308.15	0.02017	997.96	0.21
308.15	0.0304	999.9	0.21
308.15	0.05103	1003.71	0.21
308.15	0.07222	1007.53	0.21
308.15	0.09333	1011.24	0.21
308.15	0.1154	1015.02	0.21
308.15	0.1343	1018.18	0.21
308.15	0.1521	1021.12	0.21
313.15	0	992.22	0.21
313.15	0.01005	994.18	0.21
313.15	0.02017	996.12	0.21
313.15	0.0304	998.04	0.21
313.15	0.05103	1001.85	0.21
313.15	0.07222	1005.64	0.21
313.15	0.09333	1009.33	0.21
313.15	0.1154	1013.07	0.21
313.15	0.1343	1016.22	0.21
313.15	0.1521	1019.14	0.21

System: water + cefepime dihydrochloride; phases: Liquid
Fixed: Pressure, kPa = 101.33
Property: Viscosity, Pa*s (Liquid); method: Capillary tube (Ostwald; Ubbelohde) method
Temperature, K	Molality, mol/kg of cefepime dihydrochloride	Viscosity, Pa*s	uncertainty
278.15	0	0.001521	3.18e-05
278.15	0.01005	0.0015437	3.23e-05
278.15	0.02017	0.0015698	3.28e-05
278.15	0.0304	0.0015975	3.34e-05
278.15	0.05103	0.0016488	3.45e-05
278.15	0.07222	0.0017053	3.56e-05
278.15	0.09333	0.0017663	3.69e-05
278.15	0.1154	0.0018241	3.81e-05
278.15	0.1343	0.0018795	3.93e-05
278.15	0.1521	0.001937	4.05e-05
283.15	0	0.001307	2.74e-05
283.15	0.01005	0.0013237	2.77e-05
283.15	0.02017	0.0013478	2.82e-05
283.15	0.0304	0.0013714	2.87e-05
283.15	0.05103	0.0014157	2.96e-05
283.15	0.07222	0.0014632	3.06e-05
283.15	0.09333	0.0015168	3.17e-05
283.15	0.1154	0.001566	3.28e-05
283.15	0.1343	0.001613	3.38e-05
283.15	0.1521	0.0016635	3.48e-05
288.15	0	0.001135	2.38e-05
288.15	0.01005	0.0011483	2.4e-05
288.15	0.02017	0.0011696	2.45e-05
288.15	0.0304	0.0011899	2.49e-05
288.15	0.05103	0.0012276	2.57e-05
288.15	0.07222	0.0012692	2.66e-05
288.15	0.09333	0.001316	2.75e-05
288.15	0.1154	0.001359	2.84e-05
288.15	0.1343	0.0014002	2.93e-05
288.15	0.1521	0.0014432	3.02e-05
293.15	0	0.001002	2.1e-05
293.15	0.01005	0.0010127	2.12e-05
293.15	0.02017	0.0010314	2.16e-05
293.15	0.0304	0.001049	2.19e-05
293.15	0.05103	0.0010821	2.26e-05
293.15	0.07222	0.0011197	2.34e-05
293.15	0.09333	0.0011611	2.43e-05
293.15	0.1154	0.0011991	2.51e-05
293.15	0.1343	0.0012351	2.58e-05
293.15	0.1521	0.0012726	2.66e-05
298.15	0	0.0008903	1.86e-05
298.15	0.01005	0.000899	1.88e-05
298.15	0.02017	0.0009159	1.92e-05
298.15	0.0304	0.0009314	1.95e-05
298.15	0.05103	0.0009593	2.01e-05
298.15	0.07222	0.0009939	2.08e-05
298.15	0.09333	0.0010293	2.15e-05
298.15	0.1154	0.001065	2.23e-05
298.15	0.1343	0.0010964	2.29e-05
298.15	0.1521	0.0011299	2.36e-05
303.15	0	0.0007977	1.67e-05
303.15	0.01005	0.0008046	1.69e-05
303.15	0.02017	0.0008192	1.72e-05
303.15	0.0304	0.0008325	1.74e-05
303.15	0.05103	0.0008581	1.8e-05
303.15	0.07222	0.0008888	1.86e-05
303.15	0.09333	0.0009175	1.92e-05
303.15	0.1154	0.0009513	1.99e-05
303.15	0.1343	0.0009813	2.05e-05
303.15	0.1521	0.0010096	2.11e-05
308.15	0	0.000719	1.51e-05
308.15	0.01005	0.0007235	1.52e-05
308.15	0.02017	0.0007352	1.54e-05
308.15	0.0304	0.0007465	1.56e-05
308.15	0.05103	0.0007718	1.62e-05
308.15	0.07222	0.0007974	1.67e-05
308.15	0.09333	0.0008261	1.73e-05
308.15	0.1154	0.0008553	1.79e-05
308.15	0.1343	0.000881	1.84e-05
308.15	0.1521	0.000904	1.89e-05
313.15	0	0.0006532	1.37e-05
313.15	0.01005	0.0006561	1.38e-05
313.15	0.02017	0.0006652	1.4e-05
313.15	0.0304	0.0006753	1.42e-05
313.15	0.05103	0.0006976	1.46e-05
313.15	0.07222	0.0007193	1.51e-05
313.15	0.09333	0.0007448	1.56e-05
313.15	0.1154	0.0007705	1.62e-05
313.15	0.1343	0.0007947	1.67e-05
313.15	0.1521	0.0008162	1.71e-05

System: sodium chloride + water + cefepime dihydrochloride; phases: Liquid
Fixed: Pressure, kPa = 101.33
Fixed: Solvent: Mass fraction of sodium chloride = 0.009
Property: Mass density, kg/m3 (Liquid); method: Vibrating tube method
Temperature, K	Molality, mol/kg of cefepime dihydrochloride	Mass density, kg/m3	uncertainty
278.15	0	1006.09	0.21
278.15	0.01	1008.34	0.21
278.15	0.03022	1012.42	0.21
278.15	0.05077	1016.36	0.21
278.15	0.07166	1020.2	0.21
278.15	0.09279	1023.99	0.21
278.15	0.1143	1027.83	0.21
278.15	0.1354	1031.58	0.21
278.15	0.1535	1034.73	0.21
283.15	0	1005.64	0.21
283.15	0.01	1007.87	0.21
283.15	0.03022	1011.93	0.21
283.15	0.05077	1015.81	0.21
283.15	0.07166	1019.62	0.21
283.15	0.09279	1023.4	0.21
283.15	0.1143	1027.2	0.21
283.15	0.1354	1030.9	0.21
283.15	0.1535	1034	0.21
288.15	0	1005.07	0.21
288.15	0.01	1007.28	0.21
288.15	0.03022	1011.31	0.21
288.15	0.05077	1015.16	0.21
288.15	0.07166	1018.93	0.21
288.15	0.09279	1022.65	0.21
288.15	0.1143	1026.39	0.21
288.15	0.1354	1030.06	0.21
288.15	0.1535	1033.14	0.21
293.15	0	1004.14	0.21
293.15	0.01	1006.33	0.21
293.15	0.03022	1010.32	0.21
293.15	0.05077	1014.14	0.21
293.15	0.07166	1017.88	0.21
293.15	0.09279	1021.57	0.21
293.15	0.1143	1025.28	0.21
293.15	0.1354	1028.91	0.21
293.15	0.1535	1031.94	0.21
298.15	0	1002.96	0.21
298.15	0.01	1005.13	0.21
298.15	0.03022	1009.1	0.21
298.15	0.05077	1012.88	0.21
298.15	0.07166	1016.57	0.21
298.15	0.09279	1020.22	0.21
298.15	0.1143	1023.89	0.21
298.15	0.1354	1027.49	0.21
298.15	0.1535	1030.49	0.21
303.15	0	1001.47	0.21
303.15	0.01	1003.62	0.21
303.15	0.03022	1007.57	0.21
303.15	0.05077	1011.32	0.21
303.15	0.07166	1014.99	0.21
303.15	0.09279	1018.62	0.21
303.15	0.1143	1022.28	0.21
303.15	0.1354	1025.86	0.21
303.15	0.1535	1028.89	0.21
308.15	0	999.75	0.21
308.15	0.01	1001.89	0.21
308.15	0.03022	1005.8	0.21
308.15	0.05077	1009.55	0.21
308.15	0.07166	1013.21	0.21
308.15	0.09279	1016.82	0.21
308.15	0.1143	1020.49	0.21
308.15	0.1354	1024.01	0.21
308.15	0.1535	1027	0.21
313.15	0	997.82	0.21
313.15	0.01	999.94	0.21
313.15	0.03022	1003.84	0.21
313.15	0.05077	1007.56	0.21
313.15	0.07166	1011.18	0.21
313.15	0.09279	1014.78	0.21
313.15	0.1143	1018.43	0.21
313.15	0.1354	1021.95	0.21
313.15	0.1535	1024.9	0.21

System: sodium chloride + water + cefepime dihydrochloride; phases: Liquid
Fixed: Pressure, kPa = 101.33
Fixed: Solvent: Mass fraction of sodium chloride = 0.009
Property: Viscosity, Pa*s (Liquid); method: Capillary tube (Ostwald; Ubbelohde) method
Temperature, K	Molality, mol/kg of cefepime dihydrochloride	Viscosity, Pa*s	uncertainty
278.15	0	0.0015296	3.2e-05
278.15	0.01	0.0015562	3.26e-05
278.15	0.03022	0.0016032	3.36e-05
278.15	0.05077	0.0016627	3.48e-05
278.15	0.07166	0.0017113	3.58e-05
278.15	0.09279	0.0017707	3.71e-05
278.15	0.1143	0.0018358	3.84e-05
278.15	0.1354	0.0018869	3.95e-05
278.15	0.1535	0.0019388	4.06e-05
283.15	0	0.0013206	2.77e-05
283.15	0.01	0.0013427	2.82e-05
283.15	0.03022	0.0013837	2.9e-05
283.15	0.05077	0.0014303	3e-05
283.15	0.07166	0.0014755	3.09e-05
283.15	0.09279	0.0015285	3.2e-05
283.15	0.1143	0.0015804	3.31e-05
283.15	0.1354	0.0016262	3.41e-05
283.15	0.1535	0.0016721	3.5e-05
288.15	0	0.0011543	2.42e-05
288.15	0.01	0.001172	2.46e-05
288.15	0.03022	0.0012082	2.53e-05
288.15	0.05077	0.0012485	2.62e-05
288.15	0.07166	0.001289	2.7e-05
288.15	0.09279	0.001334	2.8e-05
288.15	0.1143	0.0013802	2.89e-05
288.15	0.1354	0.0014204	2.97e-05
288.15	0.1535	0.00146	3.06e-05
293.15	0	0.0010155	2.13e-05
293.15	0.01	0.0010301	2.16e-05
293.15	0.03022	0.0010613	2.23e-05
293.15	0.05077	0.0010972	2.3e-05
293.15	0.07166	0.0011325	2.37e-05
293.15	0.09279	0.0011727	2.46e-05
293.15	0.1143	0.0012126	2.54e-05
293.15	0.1354	0.0012489	2.62e-05
293.15	0.1535	0.0012848	2.69e-05
298.15	0	0.00090675	1.902e-05
298.15	0.01	0.0009189	1.927e-05
298.15	0.03022	0.0009471	1.986e-05
298.15	0.05077	0.0009789	2.052e-05
298.15	0.07166	0.0010109	2.12e-05
298.15	0.09279	0.0010461	2.19e-05
298.15	0.1143	0.0010821	2.27e-05
298.15	0.1354	0.0011134	2.33e-05
298.15	0.1535	0.0011467	2.4e-05
303.15	0	0.00081049	1.701e-05
303.15	0.01	0.00081981	1.72e-05
303.15	0.03022	0.00084526	1.773e-05
303.15	0.05077	0.00087306	1.831e-05
303.15	0.07166	0.00090183	1.891e-05
303.15	0.09279	0.00093352	1.957e-05
303.15	0.1143	0.00096594	2.024e-05
303.15	0.1354	0.00099228	2.078e-05
303.15	0.1535	0.0010228	2.14e-05
308.15	0	0.00073632	1.546e-05
308.15	0.01	0.00074324	1.561e-05
308.15	0.03022	0.00076518	1.606e-05
308.15	0.05077	0.00079221	1.662e-05
308.15	0.07166	0.00081687	1.714e-05
308.15	0.09279	0.00084485	1.772e-05
308.15	0.1143	0.00087202	1.828e-05
308.15	0.1354	0.00090045	1.887e-05
308.15	0.1535	0.00092563	1.939e-05
313.15	0	0.00066409	1.398e-05
313.15	0.01	0.00066887	1.408e-05
313.15	0.03022	0.00068866	1.449e-05
313.15	0.05077	0.00071224	1.498e-05
313.15	0.07166	0.00073488	1.545e-05
313.15	0.09279	0.00075686	1.591e-05
313.15	0.1143	0.00078449	1.648e-05
313.15	0.1354	0.00081065	1.702e-05
313.15	0.1535	0.00083044	1.744e-05

System: sodium chloride + water; phases: Liquid
Fixed: Pressure, kPa = 101.33
Fixed: Mass fraction of sodium chloride = 0.009
Property: Mass density, kg/m3 (Liquid); method: Vibrating tube method
Temperature, K	Mass density, kg/m3	uncertainty
278.15	1006.09	0.21
283.15	1005.64	0.21
288.15	1005.07	0.21
293.15	1004.14	0.21
298.15	1002.96	0.21
303.15	1001.47	0.21
308.15	999.75	0.21
313.15	997.82	0.21

System: sodium chloride + water; phases: Liquid
Fixed: Pressure, kPa = 101.33
Fixed: Mass fraction of sodium chloride = 0.009
Property: Viscosity, Pa*s (Liquid); method: Capillary tube (Ostwald; Ubbelohde) method
Temperature, K	Viscosity, Pa*s	uncertainty
278.15	0.0015296	3.2e-05
283.15	0.0013206	2.77e-05
288.15	0.0011543	2.42e-05
293.15	0.0010155	2.13e-05
298.15	0.00090675	1.902e-05
303.15	0.00081049	1.701e-05
308.15	0.00073632	1.546e-05
313.15	0.00066409	1.398e-05
