Measured thermophysical data. Experimental study of the density and viscosity of 1-ethyl-3-methylimidazolium ethyl sulfate
Source: J. Chem. Thermodyn., 2012, 10.1016/j.jct.2011.09.027
Compound 1: 1-ethyl-3-methylimidazolium ethyl sulfate, C8H16N2O4S, InChI=1S/C6H11N2.C2H6O4S/c1-3-8-5-4-7(2)6-8;1-2-6-7(3,4)5/h4-6H,3H2,1-2H3;2H2,1H3,(H,3,4,5)/q+1;/p-1, purity 98%

System: 1-ethyl-3-methylimidazolium ethyl sulfate; phases: Liquid
Fixed: Pressure, kPa = 101.325
Property: Viscosity, Pa*s (Liquid); method: Concentric cylinders viscometry
Temperature, K	Viscosity, Pa*s	uncertainty
278.15	0.3091	0.0098
283.15	0.2252	0.0066
293.15	0.1235	0.0031
298.16	0.0972	0.0023
303.15	0.0771	0.0018
313.15	0.0509	0.0011
323.15	0.0351	0.0008
333.15	0.0252	0.0006
343.15	0.0187	0.0004
353.15	0.0146	0.0003
363.15	0.0119	0.0003
373.15	0.0097	0.0002

System: 1-ethyl-3-methylimidazolium ethyl sulfate; phases: Liquid
Property: Mass density, kg/m3 (Liquid); method: Vibrating tube method
Temperature, K	Pressure, kPa	Mass density, kg/m3	uncertainty
283.12	19658	1255.37	1.6
283.13	29946	1259.21	1.71
283.14	98469	1282.72	2.55
283.15	101.325	1247.88	1.38
283.15	40036	1262.89	1.83
283.15	49963	1266.44	1.94
283.15	59714	1269.86	2.06
283.15	69986	1273.38	2.19
283.15	79625	1276.61	2.31
283.15	89964	1280	2.44
283.15	109866	1286.29	2.7
283.15	120746	1289.61	2.84
283.15	129872	1292.32	2.96
283.15	139485	1295.11	3.09
283.16	1391	1248.37	1.4
283.18	9875	1251.65	1.49
283.19	5138	1249.82	1.44
293.13	39626	1256.03	1.8
293.14	1092	1241.38	1.38
293.14	3910	1242.48	1.41
293.14	9925	1244.83	1.47
293.14	19948	1248.68	1.58
293.14	29954	1252.45	1.69
293.14	123824	1284.35	2.84
293.14	129866	1286.19	2.92
293.14	140209	1289.28	3.06
293.15	101.325	1241.01	1.37
293.15	49964	1259.78	1.91
293.15	89997	1273.58	2.4
293.15	99862	1276.81	2.52
293.15	109863	1280.01	2.65
293.16	80177	1270.3	2.3
293.17	69997	1266.83	2.15
293.18	60017	1263.35	2.03
298.13	19821	1245.34	1.57
298.13	29997	1249.26	1.68
298.13	39886	1252.98	1.79
298.15	49994	1256.71	1.9
298.15	58874	1259.91	2.01
298.15	69996	1263.83	2.14
298.16	101.325	1237.53	1.36
298.16	10471	1241.67	1.47
298.16	79619	1267.14	2.25
298.16	89998	1270.63	2.38
298.16	99253	1273.66	2.5
298.16	109867	1277.06	2.63
298.16	120082	1280.24	2.77
298.16	129865	1283.2	2.89
298.16	139020	1285.9	3.02
298.17	5192	1239.56	1.41
298.19	981	1237.87	1.37
313.1	944	1227.8	1.3
313.14	4705	1229.35	1.38
313.14	39636	1243.24	1.75
313.14	49994	1247.16	1.86
313.14	60122	1250.92	1.98
313.15	101.325	1227.47	1.34
313.15	19818	1235.48	1.53
313.15	30003	1239.51	1.64
313.15	69996	1254.49	2.09
313.15	109873	1268.13	2.57
313.15	120354	1271.49	2.71
313.15	129874	1274.47	2.83
313.16	9378	1231.27	1.43
313.16	79657	1257.92	2.2
313.16	89993	1261.49	2.33
313.16	99450	1264.69	2.44
313.16	138377	1277.07	2.94
333.12	19852	1222.8	1.5
333.12	79184	1246.16	2.13
333.13	9972	1218.57	1.4
333.13	89997	1250.05	2.26
333.13	97104	1252.54	2.34
333.15	101.325	1214.27	1.3
333.15	4956	1216.39	1.35
333.15	29992	1227.03	1.6
333.15	69997	1242.77	2.03
333.15	109862	1256.89	2.5
333.15	121234	1260.63	2.64
333.16	49995	1235.1	1.8
333.16	60002	1238.99	1.92
333.16	129872	1263.39	2.75
333.17	1680	1214.95	1.32
333.17	40144	1231.18	1.7
333.18	139672	1266.43	2.87
353.13	19599	1209.45	1.45
353.13	29993	1214.03	1.55
353.13	39918	1218.29	1.65
353.13	79974	1234.36	2.08
353.13	119073	1248.32	2.53
353.14	89917	1238.07	2.19
353.14	99462	1241.53	2.3
353.14	109824	1245.17	2.42
353.14	129849	1251.87	2.66
353.14	139892	1255.06	2.78
353.15	101.325	1200.53	1.27
353.15	49925	1222.47	1.75
353.15	69993	1230.52	1.97
353.18	59605	1226.41	1.86
353.19	1193	1201.04	1.28
353.19	4987	1202.81	1.32
353.19	10093	1205.15	1.36
363.15	101.325	1194.25	1.26
373.11	118179	1236.88	2.44
373.12	19814	1197.22	1.42
373.13	10765	1192.98	1.33
373.13	29997	1201.88	1.51
373.13	39971	1206.31	1.61
373.13	98959	1230.06	2.22
373.13	109856	1233.98	2.35
373.13	129856	1240.8	2.58
373.14	49993	1210.64	1.7
373.15	59698	1214.72	1.8
373.15	90001	1226.72	2.12
373.15	140000	1244.08	2.7
373.16	69987	1218.92	1.91
373.17	1377	1188.48	1.25
373.17	5226	1190.34	1.29
373.17	79962	1222.87	2.02
393.12	910	1175.14	1.22
393.12	59389	1202.77	1.75
393.12	69993	1207.25	1.85
393.12	79111	1210.99	1.94
393.13	5153	1177.31	1.25
393.13	89994	1215.29	2.06
393.14	99376	1218.86	2.16
393.15	49959	1198.64	1.65
393.15	109877	1222.71	2.27
393.15	119972	1226.26	2.39
393.15	129874	1229.6	2.5
393.15	139106	1232.59	2.6
393.16	10368	1179.94	1.3
393.16	20408	1184.89	1.38
393.16	29995	1189.49	1.47
393.16	39725	1194.02	1.56
413.12	9823	1167.05	1.26
413.12	98120	1207.66	2.08
413.13	19924	1172.37	1.34
413.13	109866	1212.06	2.21
413.13	120361	1215.8	2.32
413.15	5311	1164.62	1.23
413.15	29993	1177.5	1.43
413.15	89994	1204.48	2
413.15	129864	1219.02	2.42
413.17	1563	1162.57	1.2
413.17	39896	1182.37	1.51
413.17	49998	1187.17	1.61
413.17	59469	1191.52	1.7
413.17	69996	1196.16	1.8
413.17	139292	1222.06	2.52
413.18	79893	1200.36	1.9
