Measured thermophysical data. Isopiestic determination of the osmotic and activity coefficients of the {yK2SO4 + (1-y)K2HPO4}(aq) system at T = 298.15 K
Source: J. Chem. Thermodyn., 2014, 10.1016/j.jct.2014.07.010
Compound 1: potassium sulfate, K2O4S, InChI=1S/2K.H2O4S/c;;1-5(2,3)4/h;;(H2,1,2,3,4)/q2*+1;/p-2, purity 99.99%
Compound 2: dipotassium hydrogen phosphate, HK2O4P, InChI=1S/2K.H3O4P/c;;1-5(2,3)4/h;;(H3,1,2,3,4)/q2*+1;/p-2, purity 99.99%
Compound 3: water, H2O, InChI=1S/H2O/h1H2, purity 99.8%

System: water + dipotassium hydrogen phosphate + potassium sulfate; phases: Liquid, Gas
Fixed: Temperature, K = 298.15
Property: Osmotic coefficient (Liquid); method: ISOPIE
Molality, mol/kg of dipotassium hydrogen phosphate	Molality, mol/kg of potassium sulfate	Osmotic coefficient	uncertainty
0.50341	0.13388	0.6892	0.0155
0.49054	0.13046	0.6908	0.0155
0.48722	0.12958	0.6916	0.0154
0.46613	0.12397	0.6954	0.0152
0.4388	0.1167	0.699	0.0151
0.42189	0.1122	0.7013	0.0149
0.3922	0.10431	0.7056	0.0147
0.36423	0.09687	0.7109	0.0145
0.358	0.09521	0.7121	0.0144
0.34669	0.0922	0.7143	0.0143
0.38518	0.25558	0.6855	0.0157
0.3751	0.24889	0.6875	0.0156
0.3727	0.2473	0.688	0.0156
0.35731	0.23709	0.6904	0.0155
0.33653	0.2233	0.6936	0.0153
0.32369	0.21478	0.6956	0.0152
0.30062	0.19947	0.7005	0.015
0.27922	0.18527	0.7057	0.0147
0.27429	0.182	0.7073	0.0146
0.26552	0.17618	0.7098	0.0145
0.25364	0.39105	0.6813	0.0159
0.24699	0.3808	0.6833	0.0158
0.24537	0.3783	0.684	0.0158
0.23543	0.36297	0.6858	0.0157
0.22174	0.34187	0.689	0.0156
0.21332	0.32888	0.6909	0.0155
0.19852	0.30607	0.6943	0.0153
0.1842	0.28399	0.7001	0.015
0.1811	0.27921	0.7011	0.0149
0.17519	0.2701	0.704	0.0148
0.1265	0.5228	0.6765	0.0162
0.12333	0.50967	0.6777	0.0161
0.12255	0.50645	0.6782	0.0161
0.1174	0.48519	0.681	0.016
0.11043	0.45637	0.6851	0.0157
0.1063	0.4393	0.6866	0.0157
0.09884	0.40847	0.6906	0.0155
0.09192	0.37988	0.6947	0.0153
0.0903	0.37319	0.6963	0.0152
0.08742	0.36128	0.6987	0.0151
0	0.6529	0.6727	0.0164
0	0.63662	0.6733	0.0163
0	0.6321	0.6748	0.0163
0	0.60638	0.6767	0.0162
0	0.57084	0.6802	0.016
0	0.54953	0.6817	0.0159
0	0.5108	0.6859	0.0157
0	0.47471	0.6905	0.0155
0	0.46672	0.6915	0.0154
0	0.45263	0.6926	0.0154

System: water + potassium sulfate; phases: Liquid, Gas
Fixed: Temperature, K = 298.15
Property: Osmotic coefficient (Liquid); method: ISOPIE
Molality, mol/kg of potassium sulfate	Osmotic coefficient	uncertainty
0.6529	0.6727	0.0164
0.63662	0.6733	0.0163
0.6321	0.6748	0.0163
0.60638	0.6767	0.0162
0.57084	0.6802	0.016
0.54953	0.6817	0.0159
0.5108	0.6859	0.0157
0.47471	0.6905	0.0155
0.46672	0.6915	0.0154
0.45263	0.6926	0.0154
