Measured thermophysical data. Standard molar enthalpies of formation of sodium alkoxides
Source: J. Chem. Thermodyn., 2007, 10.1016/j.jct.2006.07.024
Compound 1: sodium, Na, InChI=1S/Na, purity 99.5%
Compound 2: methanol, CH4O, InChI=1S/CH4O/c1-2/h2H,1H3, purity 99.8%
Compound 3: ethanol, C2H6O, InChI=1S/C2H6O/c1-2-3/h3H,2H2,1H3, purity 99.9%
Compound 4: propan-1-ol, C3H8O, InChI=1S/C3H8O/c1-2-3-4/h4H,2-3H2,1H3, purity 99.5%
Compound 5: methanol, sodium salt, CH3NaO, InChI=1S/CH3O.Na/c1-2;/h1H3;/q-1;+1
Compound 6: sodium ethoxide, C2H5NaO, InChI=1S/C2H5O.Na/c1-2-3;/h2H2,1H3;/q-1;+1
Compound 7: sodium 1-propanolate, C3H7NaO, InChI=1S/C3H7O.Na/c1-2-3-4;/h2-3H2,1H3;/q-1;+1

System: methanol + sodium; phases: Liquid
Property: Molar enthalpy of solution, kJ/mol (Liquid); method: ISOPERIBOL
Mole fraction of sodium	Pressure, kPa	Temperature, K	Molar enthalpy of solution, kJ/mol	uncertainty
0	101	298.15	-203.95	3.12

System: ethanol + sodium; phases: Liquid
Property: Molar enthalpy of solution, kJ/mol (Liquid); method: ISOPERIBOL
Mole fraction of sodium	Pressure, kPa	Temperature, K	Molar enthalpy of solution, kJ/mol	uncertainty
0	101	298.15	-190.43	3.16

System: propan-1-ol + sodium; phases: Liquid
Property: Molar enthalpy of solution, kJ/mol (Liquid); method: ISOPERIBOL
Mole fraction of sodium	Pressure, kPa	Temperature, K	Molar enthalpy of solution, kJ/mol	uncertainty
0	101	298.15	-180.87	2.2

System: methanol + methanol, sodium salt; phases: Liquid
Property: Molar enthalpy of solution, kJ/mol (Liquid); method: ISOPERIBOL
Mole fraction of methanol, sodium salt	Pressure, kPa	Temperature, K	Molar enthalpy of solution, kJ/mol	uncertainty
0	101	298.15	-76.84	0.91

System: ethanol + sodium ethoxide; phases: Liquid
Property: Molar enthalpy of solution, kJ/mol (Liquid); method: ISOPERIBOL
Mole fraction of sodium ethoxide	Pressure, kPa	Temperature, K	Molar enthalpy of solution, kJ/mol	uncertainty
0	101	298.15	-54.84	0.92

System: propan-1-ol + sodium 1-propanolate; phases: Liquid
Property: Molar enthalpy of solution, kJ/mol (Liquid); method: ISOPERIBOL
Mole fraction of sodium 1-propanolate	Pressure, kPa	Temperature, K	Molar enthalpy of solution, kJ/mol	uncertainty
0	101	298.15	-41.9	1.44
