Measured thermophysical data. Thermodynamics of mixtures involving some (benzene derivatives + benzonitrile)
Source: J. Chem. Thermodyn., 2007, 10.1016/j.jct.2006.09.007
Compound 1: benzonitrile, C7H5N, InChI=1S/C7H5N/c8-6-7-4-2-1-3-5-7/h1-5H
Compound 2: ethylbenzene, C8H10, InChI=1S/C8H10/c1-2-8-6-4-3-5-7-8/h3-7H,2H2,1H3
Compound 3: 1,2-dimethylbenzene, C8H10, InChI=1S/C8H10/c1-7-5-3-4-6-8(7)2/h3-6H,1-2H3
Compound 4: 1,3-dimethylbenzene, C8H10, InChI=1S/C8H10/c1-7-4-3-5-8(2)6-7/h3-6H,1-2H3
Compound 5: 1,4-dimethylbenzene, C8H10, InChI=1S/C8H10/c1-7-3-5-8(2)6-4-7/h3-6H,1-2H3
Compound 6: isopropylbenzene, C9H12, InChI=1S/C9H12/c1-8(2)9-6-4-3-5-7-9/h3-8H,1-2H3
Compound 7: 1,2,4-trimethylbenzene, C9H12, InChI=1S/C9H12/c1-7-4-5-8(2)9(3)6-7/h4-6H,1-3H3
Compound 8: 1,3,5-trimethylbenzene, C9H12, InChI=1S/C9H12/c1-7-4-8(2)6-9(3)5-7/h4-6H,1-3H3
Compound 9: anisole, C7H8O, InChI=1S/C7H8O/c1-8-7-5-3-2-4-6-7/h2-6H,1H3

System: benzonitrile; phases: Liquid
Property: Molar heat capacity at constant pressure, J/K/mol (Liquid); method: Flow calorimetry
Temperature, K	Pressure, kPa	Molar heat capacity at constant pressure, J/K/mol	uncertainty
298.15	101.325	166.415	0.343

System: benzonitrile; phases: Liquid
Fixed: Pressure, kPa = 101.3
Property: Mass density, kg/m3 (Liquid); method: VIBTUB:UFactor:4
Temperature, K	Mass density, kg/m3	uncertainty
298.15	1000.25	0.13
308.15	990.67	0.15

System: ethylbenzene; phases: Liquid
Property: Molar heat capacity at constant pressure, J/K/mol (Liquid); method: Flow calorimetry
Temperature, K	Pressure, kPa	Molar heat capacity at constant pressure, J/K/mol	uncertainty
298.15	101.325	185.445	0.381

System: ethylbenzene; phases: Liquid
Fixed: Pressure, kPa = 101.3
Property: Mass density, kg/m3 (Liquid); method: VIBTUB::UFactor:4
Temperature, K	Mass density, kg/m3	uncertainty
298.15	862.41	0.49
308.15	852.72	0.5

System: 1,2-dimethylbenzene; phases: Liquid
Property: Molar heat capacity at constant pressure, J/K/mol (Liquid); method: Flow calorimetry
Temperature, K	Pressure, kPa	Molar heat capacity at constant pressure, J/K/mol	uncertainty
298.15	101.325	187.282	0.385

System: 1,2-dimethylbenzene; phases: Liquid
Fixed: Pressure, kPa = 101.3
Property: Mass density, kg/m3 (Liquid); method: VIBTUB::UFactor:4
Temperature, K	Mass density, kg/m3	uncertainty
298.15	875.55	0.47
308.15	866.29	0.48

System: 1,3-dimethylbenzene; phases: Liquid
Property: Molar heat capacity at constant pressure, J/K/mol (Liquid); method: Flow calorimetry
Temperature, K	Pressure, kPa	Molar heat capacity at constant pressure, J/K/mol	uncertainty
298.15	101.325	181.379	0.373

System: 1,3-dimethylbenzene; phases: Liquid
Fixed: Pressure, kPa = 101.3
Property: Mass density, kg/m3 (Liquid); method: VIBTUB::UFactor:4
Temperature, K	Mass density, kg/m3	uncertainty
298.15	859.68	0.49
308.15	850.01	0.5

System: 1,4-dimethylbenzene; phases: Liquid
Property: Molar heat capacity at constant pressure, J/K/mol (Liquid); method: Flow calorimetry
Temperature, K	Pressure, kPa	Molar heat capacity at constant pressure, J/K/mol	uncertainty
298.15	101.325	181.734	0.373

System: 1,4-dimethylbenzene; phases: Liquid
Fixed: Pressure, kPa = 101.3
Property: Mass density, kg/m3 (Liquid); method: VIBTUB::UFactor:4
Temperature, K	Mass density, kg/m3	uncertainty
298.15	856.48	0.49
308.15	846.98	0.51

System: isopropylbenzene; phases: Liquid
Property: Molar heat capacity at constant pressure, J/K/mol (Liquid); method: Flow calorimetry
Temperature, K	Pressure, kPa	Molar heat capacity at constant pressure, J/K/mol	uncertainty
298.15	101.325	214.746	0.439

System: isopropylbenzene; phases: Liquid
Fixed: Pressure, kPa = 101.3
Property: Mass density, kg/m3 (Liquid); method: VIBTUB::UFactor:4
Temperature, K	Mass density, kg/m3	uncertainty
298.15	857.41	0.49
308.15	848.26	0.5

System: 1,2,4-trimethylbenzene; phases: Liquid
Property: Molar heat capacity at constant pressure, J/K/mol (Liquid); method: Flow calorimetry
Temperature, K	Pressure, kPa	Molar heat capacity at constant pressure, J/K/mol	uncertainty
298.15	101.325	213.024	0.436

System: 1,2,4-trimethylbenzene; phases: Liquid
Fixed: Pressure, kPa = 101.3
Property: Mass density, kg/m3 (Liquid); method: VIBTUB::UFactor:4
Temperature, K	Mass density, kg/m3	uncertainty
298.15	871.56	0.48
308.15	862.53	0.49

System: 1,3,5-trimethylbenzene; phases: Liquid
Property: Molar heat capacity at constant pressure, J/K/mol (Liquid); method: Flow calorimetry
Temperature, K	Pressure, kPa	Molar heat capacity at constant pressure, J/K/mol	uncertainty
298.15	101.325	207.425	0.425

System: 1,3,5-trimethylbenzene; phases: Liquid
Fixed: Pressure, kPa = 101.3
Property: Mass density, kg/m3 (Liquid); method: VIBTUB::UFactor:4
Temperature, K	Mass density, kg/m3	uncertainty
298.15	860.9	0.49
308.15	851.88	0.5

System: anisole; phases: Liquid
Property: Molar heat capacity at constant pressure, J/K/mol (Liquid); method: Flow calorimetry
Temperature, K	Pressure, kPa	Molar heat capacity at constant pressure, J/K/mol	uncertainty
298.15	101.325	191.539	0.393

System: anisole; phases: Liquid
Fixed: Pressure, kPa = 101.3
Property: Mass density, kg/m3 (Liquid); method: VIBTUB::UFactor:4
Temperature, K	Mass density, kg/m3	uncertainty
298.15	988.98	0.34
308.15	978.7	0.35

System: ethylbenzene + benzonitrile; phases: Liquid
Fixed: Pressure, kPa = 101.3
Fixed: Temperature, K = 298.15
Property: Excess molar heat capacity, J/K/mol (Liquid); method: FLOW:UFactor:0.5
Mole fraction of benzonitrile	Excess molar heat capacity, J/K/mol	uncertainty
0.0699	0.77	0.052
0.1221	1.239	0.053
0.219	1.824	0.055
0.3021	2.096	0.055
0.3478	2.184	0.055
0.4424	2.181	0.055
0.5151	2.098	0.055
0.5925	1.917	0.055
0.6379	1.786	0.054
0.7404	1.395	0.053
0.8033	1.119	0.053
0.8857	0.666	0.052
0.947	0.33	0.051

System: ethylbenzene + benzonitrile; phases: Liquid
Fixed: Pressure, kPa = 101.3
Property: Mass density, kg/m3 (Liquid); method: VIBTUB:UFactor:4
Temperature, K	Mole fraction of benzonitrile	Mass density, kg/m3	uncertainty
298.15	0	862.41	0.49
298.15	0.0616	870.36	0.46
298.15	0.0673	871.08	0.46
298.15	0.1384	880.39	0.43
298.15	0.2367	893.17	0.39
298.15	0.3726	911.19	0.34
298.15	0.4563	922.38	0.31
298.15	0.4991	928.14	0.3
298.15	0.5903	940.59	0.26
298.15	0.6935	955	0.23
298.15	0.7801	967.39	0.2
298.15	0.8862	983.01	0.16
298.15	0.9502	992.6	0.15
298.15	1	1000.25	0.13
308.15	0	852.72	0.5
308.15	0.0616	860.67	0.47
308.15	0.0673	861.35	0.47
308.15	0.1384	870.62	0.44
308.15	0.2367	883.4	0.4
308.15	0.3726	901.43	0.35
308.15	0.4563	912.65	0.33
308.15	0.4991	918.47	0.31
308.15	0.5903	931	0.28
308.15	0.6935	945.46	0.24
308.15	0.7801	957.85	0.21
308.15	0.8862	973.45	0.18
308.15	0.9502	983.07	0.16
308.15	1	990.67	0.15

System: 1,2-dimethylbenzene + benzonitrile; phases: Liquid
Fixed: Pressure, kPa = 101.3
Fixed: Temperature, K = 298.15
Property: Excess molar heat capacity, J/K/mol (Liquid); method: FLOW:UFactor:0.5
Mole fraction of benzonitrile	Excess molar heat capacity, J/K/mol	uncertainty
0.0394	0.448	0.051
0.0781	0.829	0.052
0.1398	1.273	0.053
0.2299	1.689	0.054
0.2803	1.799	0.055
0.3687	1.875	0.055
0.4391	1.792	0.054
0.5364	1.592	0.054
0.611	1.376	0.053
0.7003	1.11	0.053
0.7684	0.826	0.052
0.8727	0.479	0.051
0.9314	0.242	0.051

System: 1,2-dimethylbenzene + benzonitrile; phases: Liquid
Fixed: Pressure, kPa = 101.3
Property: Mass density, kg/m3 (Liquid); method: VIBTUB:UFactor:4
Temperature, K	Mole fraction of benzonitrile	Mass density, kg/m3	uncertainty
298.15	0	875.55	0.47
298.15	0.0815	884.98	0.44
298.15	0.1262	890.21	0.42
298.15	0.1604	894.21	0.41
298.15	0.2579	905.68	0.37
298.15	0.4054	923.32	0.32
298.15	0.496	934.4	0.29
298.15	0.5361	939.32	0.27
298.15	0.6558	954.37	0.23
298.15	0.6924	959.03	0.22
298.15	0.876	983.2	0.16
298.15	0.9031	986.86	0.16
298.15	0.9608	994.84	0.14
298.15	1	1000.25	0.13
308.15	0	866.29	0.48
308.15	0.0815	875.72	0.45
308.15	0.1262	881	0.43
308.15	0.1604	884.95	0.42
308.15	0.2579	896.47	0.38
308.15	0.4054	914.01	0.33
308.15	0.496	925.13	0.3
308.15	0.5361	929.98	0.29
308.15	0.6558	945.1	0.25
308.15	0.6924	949.64	0.23
308.15	0.876	973.86	0.18
308.15	0.9031	977.39	0.17
308.15	0.9608	985.42	0.16
308.15	1	990.67	0.15

System: benzonitrile + 1,3-dimethylbenzene; phases: Liquid
Fixed: Pressure, kPa = 101.3
Fixed: Temperature, K = 298.15
Property: Excess molar heat capacity, J/K/mol (Liquid); method: Flow calorimetry
Mole fraction of benzonitrile	Excess molar heat capacity, J/K/mol	uncertainty
0.0568	0.522	0.103
0.0772	0.686	0.103
0.1671	1.299	0.107
0.2404	1.53	0.108
0.3272	1.727	0.109
0.4115	1.696	0.108
0.4878	1.66	0.108
0.5753	1.415	0.107
0.6422	1.272	0.106
0.7301	0.936	0.105
0.8157	0.683	0.103
0.887	0.377	0.102
0.9334	0.254	0.101

System: benzonitrile + 1,3-dimethylbenzene; phases: Liquid
Fixed: Pressure, kPa = 101.3
Property: Mass density, kg/m3 (Liquid); method: VIBTUB:UFactor:4
Temperature, K	Mole fraction of benzonitrile	Mass density, kg/m3	uncertainty
298.15	0	859.68	0.49
298.15	0.0741	869.26	0.46
298.15	0.1804	883.15	0.42
298.15	0.316	901.15	0.36
298.15	0.4608	920.81	0.31
298.15	0.5438	932.33	0.28
298.15	0.6475	947.01	0.25
298.15	0.74	960.47	0.21
298.15	0.8816	981.74	0.17
298.15	0.899	984.42	0.16
298.15	1	1000.25	0.13
308.15	0	850.01	0.5
308.15	0.0741	859.61	0.47
308.15	0.1804	873.5	0.43
308.15	0.316	891.52	0.38
308.15	0.4608	911.17	0.33
308.15	0.5438	922.69	0.3
308.15	0.6475	937.4	0.26
308.15	0.74	950.87	0.23
308.15	0.8816	972.18	0.18
308.15	0.899	974.85	0.18
308.15	1	990.67	0.15

System: benzonitrile + 1,4-dimethylbenzene; phases: Liquid
Fixed: Pressure, kPa = 101.3
Fixed: Temperature, K = 298.15
Property: Excess molar heat capacity, J/K/mol (Liquid); method: Flow calorimetry
Mole fraction of benzonitrile	Excess molar heat capacity, J/K/mol	uncertainty
0.0349	0.303	0.102
0.0918	0.681	0.103
0.2035	1.281	0.106
0.2559	1.362	0.107
0.3682	1.534	0.108
0.4313	1.443	0.107
0.5014	1.374	0.107
0.5905	1.132	0.106
0.6663	0.966	0.105
0.7646	0.664	0.103
0.8402	0.453	0.102
0.9222	0.168	0.101
0.9776	0.082	0.1

System: benzonitrile + 1,4-dimethylbenzene; phases: Liquid
Fixed: Pressure, kPa = 101.3
Property: Mass density, kg/m3 (Liquid); method: VIBTUB:UFactor:4
Temperature, K	Mole fraction of benzonitrile	Mass density, kg/m3	uncertainty
298.15	0	856.48	0.49
298.15	0.1009	869.79	0.45
298.15	0.2247	886.32	0.4
298.15	0.2938	895.69	0.38
298.15	0.4357	915.25	0.33
298.15	0.5627	933.25	0.28
298.15	0.6605	947.47	0.24
298.15	0.7646	963.07	0.21
298.15	0.8328	973.55	0.18
298.15	0.9439	991.13	0.15
298.15	1	1000.25	0.13
308.15	0	846.98	0.51
308.15	0.1009	860.32	0.46
308.15	0.2247	876.88	0.42
308.15	0.2938	886.28	0.39
308.15	0.4357	905.85	0.34
308.15	0.5627	923.86	0.29
308.15	0.6605	938.07	0.26
308.15	0.7646	953.65	0.22
308.15	0.8328	964.15	0.2
308.15	0.9439	981.68	0.16
308.15	1	990.67	0.15

System: benzonitrile + 1,3,5-trimethylbenzene; phases: Liquid
Fixed: Pressure, kPa = 101.3
Fixed: Temperature, K = 298.15
Property: Excess molar heat capacity, J/K/mol (Liquid); method: FLOW:UFactor:0.5
Mole fraction of benzonitrile	Excess molar heat capacity, J/K/mol	uncertainty
0.0754	0.726	0.052
0.1029	0.966	0.052
0.2104	1.56	0.054
0.283	1.84	0.055
0.381	2.016	0.055
0.4702	1.987	0.055
0.5479	1.864	0.055
0.6441	1.563	0.054
0.712	1.3	0.053
0.8092	0.861	0.052
0.9041	0.428	0.051
0.9501	0.177	0.05

System: benzonitrile + 1,3,5-trimethylbenzene; phases: Liquid
Fixed: Pressure, kPa = 101.3
Property: Mass density, kg/m3 (Liquid); method: VIBTUB:UFactor:4
Temperature, K	Mole fraction of benzonitrile	Mass density, kg/m3	uncertainty
298.15	0	860.9	0.49
298.15	0.073	869.06	0.46
298.15	0.1412	876.92	0.43
298.15	0.1917	882.87	0.41
298.15	0.2955	895.5	0.38
298.15	0.3596	903.59	0.35
298.15	0.4531	915.84	0.32
298.15	0.5128	923.9	0.3
298.15	0.6098	937.51	0.27
298.15	0.7005	950.89	0.23
298.15	0.7895	964.64	0.2
298.15	0.879	979.23	0.17
298.15	0.9536	991.98	0.15
298.15	1	1000.25	0.13
308.15	0	851.88	0.5
308.15	0.073	860.02	0.47
308.15	0.1412	867.88	0.45
308.15	0.1917	873.78	0.43
308.15	0.2955	886.4	0.39
308.15	0.3596	894.43	0.37
308.15	0.4531	906.58	0.33
308.15	0.5128	914.75	0.31
308.15	0.6098	928.28	0.28
308.15	0.7005	941.57	0.25
308.15	0.7895	955.31	0.21
308.15	0.879	969.79	0.18
308.15	0.9536	982.49	0.16
308.15	1	990.67	0.15

System: isopropylbenzene + benzonitrile; phases: Liquid
Fixed: Pressure, kPa = 101.3
Fixed: Temperature, K = 298.15
Property: Excess molar heat capacity, J/K/mol (Liquid); method: Flow calorimetry
Mole fraction of benzonitrile	Excess molar heat capacity, J/K/mol	uncertainty
0.0812	1.087	0.105
0.1147	1.448	0.107
0.2052	2.23	0.111
0.3131	2.763	0.114
0.3691	2.935	0.115
0.4488	2.929	0.115
0.5194	2.919	0.115
0.6256	2.511	0.113
0.6997	2.226	0.111
0.8003	1.545	0.108
0.9038	0.825	0.104
0.9407	0.527	0.103

System: isopropylbenzene + benzonitrile; phases: Liquid
Fixed: Pressure, kPa = 101.3
Property: Mass density, kg/m3 (Liquid); method: VIBTUB:UFactor:4
Temperature, K	Mole fraction of benzonitrile	Mass density, kg/m3	uncertainty
298.15	0	857.41	0.49
298.15	0.0581	864.33	0.47
298.15	0.0865	867.75	0.46
298.15	0.2036	882.15	0.41
298.15	0.2835	892.28	0.38
298.15	0.3445	900.22	0.36
298.15	0.3887	906.07	0.35
298.15	0.4445	913.59	0.33
298.15	0.5627	930.2	0.28
298.15	0.6557	943.85	0.25
298.15	0.7271	954.72	0.22
298.15	0.8102	967.92	0.19
298.15	0.9017	983.11	0.16
298.15	1	1000.25	0.13
308.15	0	848.26	0.5
308.15	0.0581	855.15	0.48
308.15	0.0865	858.59	0.47
308.15	0.2036	872.93	0.43
308.15	0.2835	883.09	0.4
308.15	0.3445	891.02	0.37
308.15	0.3887	896.85	0.36
308.15	0.4445	904.41	0.34
308.15	0.5627	920.94	0.3
308.15	0.6557	934.41	0.26
308.15	0.7271	945.3	0.24
308.15	0.8102	958.51	0.21
308.15	0.9017	973.75	0.18
308.15	1	990.67	0.15

System: 1,2,4-trimethylbenzene + benzonitrile; phases: Liquid
Fixed: Pressure, kPa = 101.3
Fixed: Temperature, K = 298.15
Property: Excess molar heat capacity, J/K/mol (Liquid); method: FLOW:UFactor:0.5
Mole fraction of benzonitrile	Excess molar heat capacity, J/K/mol	uncertainty
0.0829	0.643	0.052
0.1409	0.998	0.053
0.1409	0.981	0.052
0.2844	1.571	0.054
0.2844	1.511	0.054
0.377	1.621	0.054
0.4558	1.622	0.054
0.5359	1.475	0.054
0.6367	1.241	0.053
0.6974	1.021	0.053
0.7772	0.753	0.052
0.9039	0.294	0.051
0.9431	0.176	0.05

System: 1,2,4-trimethylbenzene + benzonitrile; phases: Liquid
Fixed: Pressure, kPa = 101.3
Property: Mass density, kg/m3 (Liquid); method: VIBTUB:UFactor:4
Temperature, K	Mole fraction of benzonitrile	Mass density, kg/m3	uncertainty
298.15	0	871.56	0.48
298.15	0.0712	879.01	0.45
298.15	0.1322	885.6	0.42
298.15	0.1765	890.46	0.41
298.15	0.2874	902.94	0.37
298.15	0.3441	909.49	0.35
298.15	0.3967	915.71	0.33
298.15	0.445	921.57	0.31
298.15	0.5283	932.03	0.29
298.15	0.5861	939.54	0.27
298.15	0.6329	945.69	0.25
298.15	0.6879	953.12	0.23
298.15	0.7796	966.07	0.2
298.15	0.7804	966.21	0.2
298.15	0.8187	971.88	0.19
298.15	0.9027	984.6	0.16
298.15	0.9079	985.41	0.16
298.15	0.9687	995.12	0.14
298.15	0.9822	997.27	0.14
298.15	1	1000.25	0.13
308.15	0	862.53	0.49
308.15	0.1322	876.48	0.44
308.15	0.1765	881.29	0.42
308.15	0.2874	893.72	0.38
308.15	0.3441	900.27	0.36
308.15	0.3967	906.56	0.34
308.15	0.445	912.35	0.33
308.15	0.5283	922.7	0.3
308.15	0.5861	930.13	0.28
308.15	0.6329	936.31	0.26
308.15	0.6879	943.75	0.24
308.15	0.7796	956.62	0.21
308.15	0.7804	956.8	0.21
308.15	0.8187	962.37	0.2
308.15	0.9027	975.04	0.17
308.15	0.9079	975.88	0.17
308.15	1	990.67	0.15

System: benzonitrile + anisole; phases: Liquid
Fixed: Pressure, kPa = 101.3
Fixed: Temperature, K = 298.15
Property: Excess molar heat capacity, J/K/mol (Liquid); method: FLOW:UFactor:0.5
Mole fraction of benzonitrile	Excess molar heat capacity, J/K/mol	uncertainty
0.0816	-0.187	0.05
0.1249	-0.253	0.051
0.193	-0.318	0.051
0.2939	-0.428	0.051
0.3647	-0.439	0.051
0.5395	-0.444	0.051
0.6957	-0.31	0.051
0.8112	-0.231	0.051
0.9458	-0.081	0.05

System: benzonitrile + anisole; phases: Liquid
Fixed: Pressure, kPa = 101.3
Property: Mass density, kg/m3 (Liquid); method: VIBTUB:UFactor:4
Temperature, K	Mole fraction of benzonitrile	Mass density, kg/m3	uncertainty
298.15	0	988.98	0.34
298.15	0.0168	989.23	0.33
298.15	0.0762	990.08	0.31
298.15	0.1199	990.69	0.3
298.15	0.2462	992.32	0.26
298.15	0.3042	993.03	0.24
298.15	0.3614	993.71	0.23
298.15	0.5068	995.35	0.19
298.15	0.5823	996.16	0.18
298.15	0.6772	997.14	0.16
298.15	0.7832	998.21	0.15
298.15	0.9105	999.44	0.14
298.15	1	1000.25	0.13
308.15	0	978.7	0.35
308.15	0.0168	979.02	0.34
308.15	0.0762	979.91	0.32
308.15	0.1199	980.57	0.31
308.15	0.2462	982.29	0.27
308.15	0.3042	983.06	0.25
308.15	0.3614	983.73	0.24
308.15	0.5068	985.48	0.21
308.15	0.5823	986.31	0.19
308.15	0.6772	987.35	0.18
308.15	0.7832	988.45	0.16
308.15	0.9105	989.77	0.15
308.15	1	990.67	0.15
