Measured thermophysical data. Standard molar enthalpies of formation of the methoxynitrophenol isomers: a combined experimental and theoretical investigation
Source: J. Chem. Thermodyn., 2004, 10.1016/j.jct.2004.02.006
Compound 1: carbon dioxide, CO2, InChI=1S/CO2/c2-1-3
Compound 2: nitrogen, N2, InChI=1S/N2/c1-2
Compound 3: water, H2O, InChI=1S/H2O/h1H2
Compound 4: oxygen, O2, InChI=1S/O2/c1-2
Compound 5: 2-methoxy-4-nitrophenol, C7H7NO4, InChI=1S/C7H7NO4/c1-12-7-4-5(8(10)11)2-3-6(7)9/h2-4,9H,1H3, purity 0.97%
Compound 6: 2-methoxy-5-nitrophenol, C7H7NO4, InChI=1S/C7H7NO4/c1-12-7-3-2-5(8(10)11)4-6(7)9/h2-4,9H,1H3, purity 0.98%
Compound 7: 4-methoxy-2-nitrophenol, C7H7NO4, InChI=1S/C7H7NO4/c1-12-5-2-3-7(9)6(4-5)8(10)11/h2-4,9H,1H3, purity 0.98%

System: 2-methoxy-4-nitrophenol; phases: Gas
Property: Molar enthalpy, kJ/mol (Gas); method: OTHER
Temperature, K	Pressure, kPa	Molar enthalpy, kJ/mol	uncertainty
368	100	112.4	4

System: 2-methoxy-5-nitrophenol; phases: Gas
Property: Molar enthalpy, kJ/mol (Gas); method: OTHER
Temperature, K	Pressure, kPa	Molar enthalpy, kJ/mol	uncertainty
368	100	119.2	3.4

System: 4-methoxy-2-nitrophenol; phases: Gas
Property: Molar enthalpy, kJ/mol (Gas); method: OTHER
Temperature, K	Pressure, kPa	Molar enthalpy, kJ/mol	uncertainty
368	100	103.8	3.4

Reaction: -1 2-methoxy-4-nitrophenol + 7 carbon dioxide + .5 nitrogen + 3.5 water + -6.75 oxygen
Property: Specific internal energy of reaction at constant volume, J/g
-19983.3

Reaction: -1 2-methoxy-5-nitrophenol + 7 carbon dioxide + .5 nitrogen + 3.5 water + -6.75 oxygen
Property: Specific internal energy of reaction at constant volume, J/g
-20000.1

Reaction: -1 4-methoxy-2-nitrophenol + 7 carbon dioxide + .5 nitrogen + 3.5 water + -6.75 oxygen
Property: Specific internal energy of reaction at constant volume, J/g
-20058.3
