Measured thermophysical data. Separation of binary mixtures based on gamma infinity data using [OMMIM][NTf2] ionic liquid and modelling of thermodynamic functions
Source: J. Chem. Thermodyn., 2018, 10.1016/j.jct.2017.12.012
Compound 1: 2,3-dimethyl-1-octyl-1H-imidazolium bis(trifluoromethylsulfonyl)amide, C15H25F6N3O4S2, InChI=1S/C13H25N2.C2F6NO4S2/c1-4-5-6-7-8-9-10-15-12-11-14(3)13(15)2;3-1(4,5)14(10,11)9-15(12,13)2(6,7)8/h11-12H,4-10H2,1-3H3;/q+1;-1, purity 99%
Compound 2: pentane, C5H12, InChI=1S/C5H12/c1-3-5-4-2/h3-5H2,1-2H3, purity 99%
Compound 3: hexane, C6H14, InChI=1S/C6H14/c1-3-5-6-4-2/h3-6H2,1-2H3, purity 99%
Compound 4: heptane, C7H16, InChI=1S/C7H16/c1-3-5-7-6-4-2/h3-7H2,1-2H3, purity 99%
Compound 5: octane, C8H18, InChI=1S/C8H18/c1-3-5-7-8-6-4-2/h3-8H2,1-2H3, purity 99%
Compound 6: nonane, C9H20, InChI=1S/C9H20/c1-3-5-7-9-8-6-4-2/h3-9H2,1-2H3, purity 99%
Compound 7: decane, C10H22, InChI=1S/C10H22/c1-3-5-7-9-10-8-6-4-2/h3-10H2,1-2H3, purity 99%
Compound 8: cyclohexane, C6H12, InChI=1S/C6H12/c1-2-4-6-5-3-1/h1-6H2, purity 98%
Compound 9: methylcyclohexane, C7H14, InChI=1S/C7H14/c1-7-5-3-2-4-6-7/h7H,2-6H2,1H3, purity 98%
Compound 10: hex-1-ene, C6H12, InChI=1S/C6H12/c1-3-5-6-4-2/h3H,1,4-6H2,2H3, purity 99%
Compound 11: cyclohexene, C6H10, InChI=1S/C6H10/c1-2-4-6-5-3-1/h1-2H,3-6H2, purity 99%
Compound 12: benzene, C6H6, InChI=1S/C6H6/c1-2-4-6-5-3-1/h1-6H, purity 99%
Compound 13: toluene, C7H8, InChI=1S/C7H8/c1-7-5-3-2-4-6-7/h2-6H,1H3, purity 99%
Compound 14: ethylbenzene, C8H10, InChI=1S/C8H10/c1-2-8-6-4-3-5-7-8/h3-7H,2H2,1H3, purity 99%
Compound 15: 1,2-dimethylbenzene, C8H10, InChI=1S/C8H10/c1-7-5-3-4-6-8(7)2/h3-6H,1-2H3, purity 98%
Compound 16: 1,3-dimethylbenzene, C8H10, InChI=1S/C8H10/c1-7-4-3-5-8(2)6-7/h3-6H,1-2H3, purity 98%
Compound 17: 1,4-dimethylbenzene, C8H10, InChI=1S/C8H10/c1-7-3-5-8(2)6-4-7/h3-6H,1-2H3, purity 99%
Compound 18: acetonitrile, C2H3N, InChI=1S/C2H3N/c1-2-3/h1H3, purity 99%
Compound 19: acetone, C3H6O, InChI=1S/C3H6O/c1-3(2)4/h1-2H3, purity 98%
Compound 20: tetrahydrofuran, C4H8O, InChI=1S/C4H8O/c1-2-4-5-3-1/h1-4H2, purity 99%
Compound 21: ethyl acetate, C4H8O2, InChI=1S/C4H8O2/c1-3-6-4(2)5/h3H2,1-2H3, purity 99%
Compound 22: dichloromethane, CH2Cl2, InChI=1S/CH2Cl2/c2-1-3/h1H2, purity 99%
Compound 23: trichloromethane, CHCl3, InChI=1S/CHCl3/c2-1(3)4/h1H, purity 99%
Compound 24: tetrachloromethane, CCl4, InChI=1S/CCl4/c2-1(3,4)5, purity 99%
Compound 25: 1,4-dioxane, C4H8O2, InChI=1S/C4H8O2/c1-2-6-4-3-5-1/h1-4H2, purity 99%
Compound 26: methanol, CH4O, InChI=1S/CH4O/c1-2/h2H,1H3, purity 99%
Compound 27: ethanol, C2H6O, InChI=1S/C2H6O/c1-2-3/h3H,2H2,1H3, purity 99%
Compound 28: propan-1-ol, C3H8O, InChI=1S/C3H8O/c1-2-3-4/h4H,2-3H2,1H3, purity 99%
Compound 29: propan-2-ol, C3H8O, InChI=1S/C3H8O/c1-3(2)4/h3-4H,1-2H3, purity 99%
Compound 30: butan-1-ol, C4H10O, InChI=1S/C4H10O/c1-2-3-4-5/h5H,2-4H2,1H3, purity 99%
Compound 31: 2-methyl-1-propanol, C4H10O, InChI=1S/C4H10O/c1-4(2)3-5/h4-5H,3H2,1-2H3, purity 99%
Compound 32: butan-2-ol, C4H10O, InChI=1S/C4H10O/c1-3-4(2)5/h4-5H,3H2,1-2H3, purity 99%
Compound 33: pentan-1-ol, C5H12O, InChI=1S/C5H12O/c1-2-3-4-5-6/h6H,2-5H2,1H3, purity 99%
Compound 34: 3-methylbutan-1-ol, C5H12O, InChI=1S/C5H12O/c1-5(2)3-4-6/h5-6H,3-4H2,1-2H3, purity 99%

System: 2,3-dimethyl-1-octyl-1H-imidazolium bis(trifluoromethylsulfonyl)amide; phases: Liquid
Fixed: Pressure, kPa = 101.325
Property: Mass density, kg/m3 (Liquid); method: Vibrating tube method
Temperature, K	Mass density, kg/m3	uncertainty
313.15	1296.1	2.4
323.15	1287.4	2.4
333.15	1278.6	2.4
343.15	1269.1	2.4
353.15	1258.2	2.4

System: 2,3-dimethyl-1-octyl-1H-imidazolium bis(trifluoromethylsulfonyl)amide + pentane; phases: Liquid
Fixed: Mole fraction of pentane = 0
Fixed: Pressure, kPa = 101.325
Property: Activity coefficient of pentane (Liquid); method: Chromatography
Temperature, K	Activity coefficient of pentane	uncertainty
313.15	6.78	0.71
323.15	5.63	0.59
333.15	4.81	0.51
343.15	4.24	0.45
353.15	3.66	0.38

System: 2,3-dimethyl-1-octyl-1H-imidazolium bis(trifluoromethylsulfonyl)amide + hexane; phases: Liquid
Fixed: Mole fraction of hexane = 0
Fixed: Pressure, kPa = 101.325
Property: Activity coefficient of hexane (Liquid); method: Chromatography
Temperature, K	Activity coefficient of hexane	uncertainty
313.15	7.89	0.83
323.15	6.52	0.69
333.15	5.57	0.59
343.15	4.87	0.51
353.15	4.22	0.44

System: 2,3-dimethyl-1-octyl-1H-imidazolium bis(trifluoromethylsulfonyl)amide + heptane; phases: Liquid
Fixed: Mole fraction of heptane = 0
Fixed: Pressure, kPa = 101.325
Property: Activity coefficient of heptane (Liquid); method: Chromatography
Temperature, K	Activity coefficient of heptane	uncertainty
313.15	8.82	0.93
323.15	7.77	0.82
333.15	6.89	0.72
343.15	6.29	0.66
353.15	5.69	0.6

System: 2,3-dimethyl-1-octyl-1H-imidazolium bis(trifluoromethylsulfonyl)amide + octane; phases: Liquid
Fixed: Mole fraction of octane = 0
Fixed: Pressure, kPa = 101.325
Property: Activity coefficient of octane (Liquid); method: Chromatography
Temperature, K	Activity coefficient of octane	uncertainty
313.15	11.13	1.17
323.15	9.5	1
333.15	8.12	0.85
343.15	7.17	0.75
353.15	6.32	0.66

System: 2,3-dimethyl-1-octyl-1H-imidazolium bis(trifluoromethylsulfonyl)amide + nonane; phases: Liquid
Fixed: Mole fraction of nonane = 0
Fixed: Pressure, kPa = 101.325
Property: Activity coefficient of nonane (Liquid); method: Chromatography
Temperature, K	Activity coefficient of nonane	uncertainty
313.15	14.36	1.51
323.15	12.08	1.27
333.15	10.43	1.1
343.15	9.04	0.95
353.15	8.04	0.85

System: 2,3-dimethyl-1-octyl-1H-imidazolium bis(trifluoromethylsulfonyl)amide + decane; phases: Liquid
Fixed: Mole fraction of decane = 0
Fixed: Pressure, kPa = 101.325
Property: Activity coefficient of decane (Liquid); method: Chromatography
Temperature, K	Activity coefficient of decane	uncertainty
313.15	20.82	2.19
323.15	16.45	1.73
333.15	13.5	1.42
343.15	11.18	1.18
353.15	9.33	0.98

System: 2,3-dimethyl-1-octyl-1H-imidazolium bis(trifluoromethylsulfonyl)amide + cyclohexane; phases: Liquid
Fixed: Mole fraction of cyclohexane = 0
Fixed: Pressure, kPa = 101.325
Property: Activity coefficient of cyclohexane (Liquid); method: Chromatography
Temperature, K	Activity coefficient of cyclohexane	uncertainty
313.15	4.76	0.5
323.15	4.16	0.44
333.15	3.75	0.39
343.15	3.37	0.35
353.15	3.12	0.33

System: 2,3-dimethyl-1-octyl-1H-imidazolium bis(trifluoromethylsulfonyl)amide + methylcyclohexane; phases: Liquid
Fixed: Mole fraction of methylcyclohexane = 0
Fixed: Pressure, kPa = 101.325
Property: Activity coefficient of methylcyclohexane (Liquid); method: Chromatography
Temperature, K	Activity coefficient of methylcyclohexane	uncertainty
313.15	5.67	0.6
323.15	4.88	0.51
333.15	4.25	0.45
343.15	3.79	0.4
353.15	3.32	0.35

System: 2,3-dimethyl-1-octyl-1H-imidazolium bis(trifluoromethylsulfonyl)amide + hex-1-ene; phases: Liquid
Fixed: Mole fraction of hex-1-ene = 0
Fixed: Pressure, kPa = 101.325
Property: Activity coefficient of hex-1-ene (Liquid); method: Chromatography
Temperature, K	Activity coefficient of hex-1-ene	uncertainty
313.15	4.99	0.52
323.15	4.26	0.45
333.15	3.65	0.38
343.15	3.18	0.33
353.15	2.81	0.3

System: 2,3-dimethyl-1-octyl-1H-imidazolium bis(trifluoromethylsulfonyl)amide + cyclohexene; phases: Liquid
Fixed: Mole fraction of cyclohexene = 0
Fixed: Pressure, kPa = 101.325
Property: Activity coefficient of cyclohexene (Liquid); method: Chromatography
Temperature, K	Activity coefficient of cyclohexene	uncertainty
313.15	3.04	0.32
323.15	2.77	0.29
333.15	2.5	0.26
343.15	2.28	0.24
353.15	2.1	0.22

System: 2,3-dimethyl-1-octyl-1H-imidazolium bis(trifluoromethylsulfonyl)amide + benzene; phases: Liquid
Fixed: Mole fraction of benzene = 0
Fixed: Pressure, kPa = 101.325
Property: Activity coefficient of benzene (Liquid); method: Chromatography
Temperature, K	Activity coefficient of benzene	uncertainty
313.15	0.81	0.08
323.15	0.74	0.08
333.15	0.68	0.07
343.15	0.63	0.07
353.15	0.59	0.06

System: 2,3-dimethyl-1-octyl-1H-imidazolium bis(trifluoromethylsulfonyl)amide + toluene; phases: Liquid
Fixed: Mole fraction of toluene = 0
Fixed: Pressure, kPa = 101.325
Property: Activity coefficient of toluene (Liquid); method: Chromatography
Temperature, K	Activity coefficient of toluene	uncertainty
313.15	1.03	0.1
323.15	0.94	0.1
333.15	0.87	0.09
343.15	0.82	0.08
353.15	0.78	0.08

System: 2,3-dimethyl-1-octyl-1H-imidazolium bis(trifluoromethylsulfonyl)amide + ethylbenzene; phases: Liquid
Fixed: Mole fraction of ethylbenzene = 0
Fixed: Pressure, kPa = 101.325
Property: Activity coefficient of ethylbenzene (Liquid); method: Chromatography
Temperature, K	Activity coefficient of ethylbenzene	uncertainty
313.15	1.37	0.14
323.15	1.29	0.13
333.15	1.2	0.12
343.15	1.14	0.12
353.15	1.08	0.11

System: 2,3-dimethyl-1-octyl-1H-imidazolium bis(trifluoromethylsulfonyl)amide + 1,2-dimethylbenzene; phases: Liquid
Fixed: Mole fraction of 1,2-dimethylbenzene = 0
Fixed: Pressure, kPa = 101.325
Property: Activity coefficient of 1,2-dimethylbenzene (Liquid); method: Chromatography
Temperature, K	Activity coefficient of 1,2-dimethylbenzene	uncertainty
313.15	1.15	0.12
323.15	1.08	0.11
333.15	1.02	0.1
343.15	0.96	0.1
353.15	0.93	0.09

System: 2,3-dimethyl-1-octyl-1H-imidazolium bis(trifluoromethylsulfonyl)amide + 1,3-dimethylbenzene; phases: Liquid
Fixed: Mole fraction of 1,3-dimethylbenzene = 0
Fixed: Pressure, kPa = 101.325
Property: Activity coefficient of 1,3-dimethylbenzene (Liquid); method: Chromatography
Temperature, K	Activity coefficient of 1,3-dimethylbenzene	uncertainty
313.15	1.18	0.12
323.15	1.14	0.12
333.15	1.1	0.11
343.15	1.04	0.11
353.15	1.01	0.1

System: 2,3-dimethyl-1-octyl-1H-imidazolium bis(trifluoromethylsulfonyl)amide + 1,4-dimethylbenzene; phases: Liquid
Fixed: Mole fraction of 1,4-dimethylbenzene = 0
Fixed: Pressure, kPa = 101.325
Property: Activity coefficient of 1,4-dimethylbenzene (Liquid); method: Chromatography
Temperature, K	Activity coefficient of 1,4-dimethylbenzene	uncertainty
313.15	1.17	0.12
323.15	1.11	0.11
333.15	1.06	0.11
343.15	1	0.1
353.15	0.95	0.1

System: 2,3-dimethyl-1-octyl-1H-imidazolium bis(trifluoromethylsulfonyl)amide + acetonitrile; phases: Liquid
Fixed: Mole fraction of acetonitrile = 0
Fixed: Pressure, kPa = 101.325
Property: Activity coefficient of acetonitrile (Liquid); method: Chromatography
Temperature, K	Activity coefficient of acetonitrile	uncertainty
313.15	0.51	0.06
323.15	0.45	0.05
333.15	0.4	0.05
343.15	0.37	0.04
353.15	0.34	0.04

System: 2,3-dimethyl-1-octyl-1H-imidazolium bis(trifluoromethylsulfonyl)amide + acetone; phases: Liquid
Fixed: Mole fraction of acetone = 0
Fixed: Pressure, kPa = 101.325
Property: Activity coefficient of acetone (Liquid); method: Chromatography
Temperature, K	Activity coefficient of acetone	uncertainty
313.15	0.46	0.05
323.15	0.41	0.05
333.15	0.37	0.04
343.15	0.34	0.04
353.15	0.31	0.04

System: 2,3-dimethyl-1-octyl-1H-imidazolium bis(trifluoromethylsulfonyl)amide + tetrahydrofuran; phases: Liquid
Fixed: Mole fraction of tetrahydrofuran = 0
Fixed: Pressure, kPa = 101.325
Property: Activity coefficient of tetrahydrofuran (Liquid); method: Chromatography
Temperature, K	Activity coefficient of tetrahydrofuran	uncertainty
313.15	0.54	0.06
323.15	0.48	0.05
333.15	0.44	0.05
343.15	0.4	0.05
353.15	0.37	0.04

System: 2,3-dimethyl-1-octyl-1H-imidazolium bis(trifluoromethylsulfonyl)amide + ethyl acetate; phases: Liquid
Fixed: Mole fraction of ethyl acetate = 0
Fixed: Pressure, kPa = 101.325
Property: Activity coefficient of ethyl acetate (Liquid); method: Chromatography
Temperature, K	Activity coefficient of ethyl acetate	uncertainty
313.15	0.74	0.08
323.15	0.67	0.07
333.15	0.61	0.07
343.15	0.57	0.06
353.15	0.52	0.06

System: 2,3-dimethyl-1-octyl-1H-imidazolium bis(trifluoromethylsulfonyl)amide + dichloromethane; phases: Liquid
Fixed: Mole fraction of dichloromethane = 0
Fixed: Pressure, kPa = 101.325
Property: Activity coefficient of dichloromethane (Liquid); method: Chromatography
Temperature, K	Activity coefficient of dichloromethane	uncertainty
313.15	0.82	0.08
323.15	0.75	0.08
333.15	0.68	0.07
343.15	0.64	0.07
353.15	0.58	0.06

System: 2,3-dimethyl-1-octyl-1H-imidazolium bis(trifluoromethylsulfonyl)amide + trichloromethane; phases: Liquid
Fixed: Mole fraction of trichloromethane = 0
Fixed: Pressure, kPa = 101.325
Property: Activity coefficient of trichloromethane (Liquid); method: Chromatography
Temperature, K	Activity coefficient of trichloromethane	uncertainty
313.15	0.77	0.08
323.15	0.7	0.07
333.15	0.65	0.07
343.15	0.6	0.06
353.15	0.54	0.06

System: 2,3-dimethyl-1-octyl-1H-imidazolium bis(trifluoromethylsulfonyl)amide + tetrachloromethane; phases: Liquid
Fixed: Mole fraction of tetrachloromethane = 0
Fixed: Pressure, kPa = 101.325
Property: Activity coefficient of tetrachloromethane (Liquid); method: Chromatography
Temperature, K	Activity coefficient of tetrachloromethane	uncertainty
313.15	1.77	0.18
323.15	1.67	0.17
333.15	1.57	0.16
343.15	1.46	0.15
353.15	1.39	0.14

System: 2,3-dimethyl-1-octyl-1H-imidazolium bis(trifluoromethylsulfonyl)amide + 1,4-dioxane; phases: Liquid
Fixed: Mole fraction of 1,4-dioxane = 0
Fixed: Pressure, kPa = 101.325
Property: Activity coefficient of 1,4-dioxane (Liquid); method: Chromatography
Temperature, K	Activity coefficient of 1,4-dioxane	uncertainty
313.15	0.64	0.07
323.15	0.56	0.06
333.15	0.51	0.06
343.15	0.47	0.05
353.15	0.42	0.05

System: 2,3-dimethyl-1-octyl-1H-imidazolium bis(trifluoromethylsulfonyl)amide + methanol; phases: Liquid
Fixed: Mole fraction of methanol = 0
Fixed: Pressure, kPa = 101.325
Property: Activity coefficient of methanol (Liquid); method: Chromatography
Temperature, K	Activity coefficient of methanol	uncertainty
313.15	1.37	0.14
323.15	1.26	0.13
333.15	1.14	0.12
343.15	1.05	0.11
353.15	0.96	0.1

System: 2,3-dimethyl-1-octyl-1H-imidazolium bis(trifluoromethylsulfonyl)amide + ethanol; phases: Liquid
Fixed: Mole fraction of ethanol = 0
Fixed: Pressure, kPa = 101.325
Property: Activity coefficient of ethanol (Liquid); method: Chromatography
Temperature, K	Activity coefficient of ethanol	uncertainty
313.15	1.7	0.18
323.15	1.49	0.15
333.15	1.31	0.13
343.15	1.15	0.12
353.15	1.01	0.1

System: 2,3-dimethyl-1-octyl-1H-imidazolium bis(trifluoromethylsulfonyl)amide + propan-1-ol; phases: Liquid
Fixed: Mole fraction of propan-1-ol = 0
Fixed: Pressure, kPa = 101.325
Property: Activity coefficient of propan-1-ol (Liquid); method: Chromatography
Temperature, K	Activity coefficient of propan-1-ol	uncertainty
313.15	1.94	0.2
323.15	1.67	0.17
333.15	1.42	0.15
343.15	1.22	0.13
353.15	1.05	0.11

System: 2,3-dimethyl-1-octyl-1H-imidazolium bis(trifluoromethylsulfonyl)amide + propan-2-ol; phases: Liquid
Fixed: Mole fraction of propan-2-ol = 0
Fixed: Pressure, kPa = 101.325
Property: Activity coefficient of propan-2-ol (Liquid); method: Chromatography
Temperature, K	Activity coefficient of propan-2-ol	uncertainty
313.15	2.13	0.22
323.15	1.82	0.19
333.15	1.56	0.16
343.15	1.34	0.14
353.15	1.17	0.12

System: 2,3-dimethyl-1-octyl-1H-imidazolium bis(trifluoromethylsulfonyl)amide + butan-1-ol; phases: Liquid
Fixed: Mole fraction of butan-1-ol = 0
Fixed: Pressure, kPa = 101.325
Property: Activity coefficient of butan-1-ol (Liquid); method: Chromatography
Temperature, K	Activity coefficient of butan-1-ol	uncertainty
313.15	2.31	0.24
323.15	1.96	0.21
333.15	1.7	0.18
343.15	1.46	0.15
353.15	1.27	0.13

System: 2,3-dimethyl-1-octyl-1H-imidazolium bis(trifluoromethylsulfonyl)amide + 2-methyl-1-propanol; phases: Liquid
Fixed: Mole fraction of 2-methyl-1-propanol = 0
Fixed: Pressure, kPa = 101.325
Property: Activity coefficient of 2-methyl-1-propanol (Liquid); method: Chromatography
Temperature, K	Activity coefficient of 2-methyl-1-propanol	uncertainty
313.15	2.21	0.23
323.15	1.88	0.2
333.15	1.6	0.17
343.15	1.39	0.14
353.15	1.21	0.12

System: 2,3-dimethyl-1-octyl-1H-imidazolium bis(trifluoromethylsulfonyl)amide + butan-2-ol; phases: Liquid
Fixed: Mole fraction of butan-2-ol = 0
Fixed: Pressure, kPa = 101.325
Property: Activity coefficient of butan-2-ol (Liquid); method: Chromatography
Temperature, K	Activity coefficient of butan-2-ol	uncertainty
313.15	2.03	0.21
323.15	1.74	0.18
333.15	1.5	0.16
343.15	1.29	0.13
353.15	1.11	0.11

System: 2,3-dimethyl-1-octyl-1H-imidazolium bis(trifluoromethylsulfonyl)amide + pentan-1-ol; phases: Liquid
Fixed: Mole fraction of pentan-1-ol = 0
Fixed: Pressure, kPa = 101.325
Property: Activity coefficient of pentan-1-ol (Liquid); method: Chromatography
Temperature, K	Activity coefficient of pentan-1-ol	uncertainty
313.15	2.61	0.27
323.15	2.22	0.23
333.15	1.92	0.2
343.15	1.62	0.17
353.15	1.41	0.15

System: 2,3-dimethyl-1-octyl-1H-imidazolium bis(trifluoromethylsulfonyl)amide + 3-methylbutan-1-ol; phases: Liquid
Fixed: Mole fraction of 3-methylbutan-1-ol = 0
Fixed: Pressure, kPa = 101.325
Property: Activity coefficient of 3-methylbutan-1-ol (Liquid); method: Chromatography
Temperature, K	Activity coefficient of 3-methylbutan-1-ol	uncertainty
313.15	2.46	0.26
323.15	2.11	0.22
333.15	1.79	0.19
343.15	1.55	0.16
353.15	1.32	0.14
