Measured thermophysical data. Chemical bonding and thermodynamic properties of gallium and indium monochalcogenides
Source: J. Chem. Thermodyn., 2019, 10.1016/j.jct.2018.08.013
Compound 1: gallium, Ga, InChI=1S/Ga
Compound 2: indium, In, InChI=1S/In
Compound 3: sulfur, S, InChI=1S/S
Compound 4: selenium, Se, InChI=1S/Se
Compound 5: tellurium, Te, InChI=1S/Te

System: gallium + sulfur; phases: Crystal of intercomponent compound 1
Property: Mass density, kg/m3 (Crystal of intercomponent compound 1); method: X-ray diffraction
Mole fraction of gallium	Pressure, kPa	Temperature, K	Mass density, kg/m3	uncertainty
0.493	100	298	3910	30

System: gallium + sulfur; phases: Crystal of intercomponent compound 1
Fixed: Pressure, kPa = 100
Fixed: Mole fraction of gallium = 0.493
Property: Specific heat capacity at constant pressure, J/K/kg (Crystal of intercomponent compound 1); method: RELAXCAL
Temperature, K	Specific heat capacity at constant pressure, J/K/kg	uncertainty
2.029	0.0142450175	0.011985463
2.03	0.014146776	0.011985463
2.029	0.015129191	0.0114942555
2.031	0.0150309495	0.011592497
2.401	0.022792028	0.016308089
2.405	0.0230867525	0.0162098475
2.406	0.0230867525	0.0162098475
2.407	0.022988511	0.016308089
2.856	0.038510668	0.018862368
2.863	0.038707151	0.018862368
2.864	0.0384124265	0.018862368
2.865	0.0391983585	0.018862368
3.394	0.0631692845	0.0205324735
3.402	0.0641516995	0.0205324735
3.404	0.064249941	0.0205324735
3.405	0.0643481825	0.0205324735
4.042	0.107279718	0.0287847595
4.051	0.1079674085	0.0287847595
4.053	0.108262133	0.0287847595
4.055	0.1081638915	0.028686518
4.801	0.177424149	0.0472541615
4.813	0.1800766695	0.0472541615
4.815	0.1802731525	0.0472541615
4.817	0.180174911	0.0472541615
5.707	0.2993418505	0.067983118
5.72	0.3015031635	0.067983118
5.723	0.3020926125	0.067983118
5.726	0.302780303	0.067983118
6.782	0.507122623	0.100009847
6.799	0.5131153545	0.100009847
6.802	0.5137048035	0.100009847
6.805	0.5142942525	0.100009847
8.071	0.8732686935	0.1629826485
8.091	0.883780534	0.162884407
8.095	0.884566466	0.162884407
8.098	0.8862365715	0.162884407
10.123	1.818450165	0.24756858
10.114	1.80960843	0.24756858
10.112	1.808626015	0.24756858
12.114	3.2616178	0.38117702
12.134	3.28519576	0.38117702
12.13	3.28323093	0.38117702
14.111	5.3836342	0.54818757
14.139	5.435702195	0.549169985
14.139	5.43275495	0.549169985
16.135	8.312213315	0.74074091
16.16	8.3701758	0.741723325
16.159	8.365263725	0.741723325
18.155	12.05423205	0.95294255
18.18	12.1230011	0.95294255
18.18	12.1230011	0.95294255
20.17	16.5242203	1.1592497
20.196	16.6028135	1.1592497
20.195	16.6028135	1.1592497
22.194	21.61313	1.38520515
22.219	21.7113715	1.38520515
22.22	21.72119565	1.38520515
24.209	27.3307853	1.6111606
24.236	27.4290268	1.62098475
24.239	27.43885095	1.62098475
26.238	33.49052735	1.83711605
26.26	33.5789447	1.8469402
26.259	33.5789447	1.8469402
28.241	39.8271041	2.0630715
28.264	39.93516975	2.07289565
28.267	39.95481805	2.07289565
30.291	46.51735025	2.3184994
30.287	46.5075261	2.3184994
30.287	46.5075261	2.3184994
35.278	63.33629505	2.89812425
35.343	63.61137125	2.9079484
35.339	63.51312975	2.9079484
40.317	80.07664665	3.4973974
40.395	80.3222504	3.50722155
40.39	80.21418475	3.50722155
45.376	96.0998353	4.09667055
45.457	96.2570217	4.1064947
45.436	96.0605387	4.09667055
50.442	111.7005855	4.715592
50.507	111.7005855	4.715592
50.469	111.602344	4.715592
55.471	126.2403275	5.2067995
55.549	126.2403275	5.2067995
55.511	125.945603	5.2067995
60.514	140.092379	5.7962485
60.578	139.9941375	5.7962485
60.545	139.9941375	5.7962485
65.569	154.1409135	6.3856975
65.634	154.042672	6.3856975
65.591	154.042672	6.3856975
70.62	167.599999	6.876905
70.66	167.5017575	6.876905
70.627	167.599999	6.876905
75.68	180.8626015	7.466354
75.702	180.4696355	7.3681125
75.652	180.567877	7.3681125
80.726	194.4199285	7.9575615
80.744	194.321687	7.9575615
80.697	194.321687	7.9575615
85.771	207.3878065	8.448769
85.78	207.3878065	8.448769
85.74	207.3878065	8.448769
90.797	220.257443	9.038218
90.801	220.453926	9.038218
90.771	220.5521675	9.038218
95.818	231.84994	9.431184
95.794	231.9481815	9.431184
95.753	232.242906	9.431184
100.911	243.049471	9.9223915
100.859	242.852988	9.9223915
100.804	243.63892	9.9223915
107.027	256.213832	10.413599
106.876	257.0980055	10.5118405
106.876	257.39273	10.5118405
113.662	272.4236795	11.1012895
113.823	273.11137	11.1012895
113.935	271.539506	11.1012895
120.645	286.472214	11.6907385
120.826	286.9634215	11.6907385
120.888	285.096833	11.592497
127.836	298.3594355	12.181946
127.837	298.3594355	12.181946
127.821	298.5559185	12.181946
134.81	310.246657	12.6731535
134.796	310.3448985	12.6731535
134.783	310.9343475	12.6731535
141.608	324.000467	13.164361
141.833	321.9373955	13.0661195
141.747	322.428603	13.0661195
148.611	333.5298925	13.557327
148.838	330.484406	13.4590855
148.72	332.1545115	13.4590855
155.541	342.3716275	13.950293
155.721	339.326141	13.75381
155.637	340.701522	13.8520515
162.611	350.8203965	14.2450175
162.732	349.6414985	14.2450175
162.66	349.73974	14.2450175
169.569	360.2515805	14.6379835
169.722	359.0726825	14.6379835
169.654	358.188509	14.539742
176.688	362.511135	14.736225
176.583	367.7179345	14.932708
176.666	367.7179345	14.932708
183.597	370.6651795	15.0309495
183.458	377.050877	15.325674
183.563	375.871979	15.325674
190.652	378.1315335	15.325674
190.494	383.8295405	15.6203985
190.589	383.534816	15.6203985
197.626	385.2049215	15.6203985
197.476	388.9380985	15.8168815
197.535	389.625789	15.8168815
204.526	392.180068	15.915123
204.388	394.6361055	16.0133645
204.412	396.2079695	16.111606
211.562	397.1903845	16.111606
211.416	400.82532	16.308089
211.462	401.7094935	16.308089
218.449	402.986633	16.4063305
218.303	405.6391535	16.504572
218.336	407.4075005	16.504572
225.507	408.68464	16.6028135
225.379	410.3547455	16.701055
225.379	412.3195755	16.7992965
232.378	412.810783	16.7992965
232.239	414.6773715	16.7992965
232.243	416.6422015	16.897538
239.438	416.936926	16.897538
239.308	418.6070315	16.9957795
239.305	420.5718615	17.094021
246.309	420.9648275	17.094021
246.167	422.43845	17.1922625
253.372	424.6980045	17.290504
253.26	424.992729	17.290504
253.252	426.564593	17.290504
260.22	427.939974	17.3887455
260.112	428.529423	17.3887455
260.114	430.101287	17.486987
267.278	431.280185	17.486987
267.182	432.1643585	17.5852285
267.179	433.245015	17.5852285
274.124	434.3256715	17.68347
274.027	435.602811	17.68347
274.033	437.2729165	17.7817115
281.194	438.353573	17.7817115
281.127	440.12192	17.879953
281.116	440.318403	17.879953
288.021	441.2025765	17.879953
287.947	442.08675	17.9781945
287.939	442.872682	17.9781945
295.085	443.462131	17.9781945
295	443.069165	17.9781945
295.002	444.3463045	18.076436
302.092	445.230478	18.076436
301.996	450.8302435	18.272919
301.988	450.732002	18.272919

System: gallium + sulfur; phases: Crystal of intercomponent compound 1
Fixed: Pressure, kPa = 100
Fixed: Mole fraction of gallium = 0.493
Property: Specific heat capacity at constant pressure, J/K/kg (Crystal of intercomponent compound 1); method: Extra sensitive DSC
Temperature, K	Specific heat capacity at constant pressure, J/K/kg	uncertainty
260.511	429.8065625	16.6028135
263.123	432.2626	16.701055
265.73	432.655566	16.7992965
268.335	434.3256715	16.7992965
270.071	435.406328	16.897538
273.544	436.781709	16.897538
276.149	437.371158	16.897538
279.621	439.0412635	16.9957795
283.093	440.4166445	17.094021
285.697	441.3990595	17.094021
289.169	442.7744405	17.1922625
292.641	444.1498215	17.1922625
295.245	444.641029	17.1922625
297.849	445.7216855	17.290504
300.452	446.605859	17.290504
303.056	447.8829985	17.3887455
305.66	448.767172	17.3887455
308.264	449.749587	17.3887455
310.867	450.4372775	17.486987
313.471	451.517934	17.486987
315.207	452.107383	17.486987
317.811	452.303866	17.486987
320.414	453.089798	17.5852285
323.018	453.286281	17.5852285
325.621	454.1704545	17.5852285
328.225	455.447594	17.68347
329.961	455.3493525	17.68347
332.565	455.84056	17.68347
335.169	456.5282505	17.68347
337.772	457.215941	17.68347
340.375	458.198356	17.7817115
342.979	459.180771	17.7817115
345.583	459.2790125	17.7817115
348.186	460.4579105	17.879953
350.79	461.145601	17.879953
353.394	460.752635	17.879953
355.998	461.931533	17.879953
358.601	462.717465	17.879953

System: gallium + selenium; phases: Crystal of intercomponent compound 1
Property: Mass density, kg/m3 (Crystal of intercomponent compound 1); method: X-ray diffraction
Mole fraction of gallium	Pressure, kPa	Temperature, K	Mass density, kg/m3	uncertainty
0.501	100	298	4995	33

System: gallium + selenium; phases: Crystal of intercomponent compound 1
Fixed: Pressure, kPa = 100
Fixed: Mole fraction of gallium = 0.501
Property: Specific heat capacity at constant pressure, J/K/kg (Crystal of intercomponent compound 1); method: RELAXCAL
Temperature, K	Specific heat capacity at constant pressure, J/K/kg	uncertainty
2.031	0.0237422505	0.017890761
2.031	0.0237422505	0.017890761
2.031	0.023674992	0.0179580195
2.413	0.037530243	0.025692747
2.413	0.037395726	0.0257600055
2.412	0.037261209	0.0257600055
2.872	0.061339752	0.0296609985
2.872	0.0614070105	0.0296609985
2.872	0.0614070105	0.0296609985
3.413	0.101560335	0.0320823045
3.413	0.1016275935	0.0320823045
3.412	0.101560335	0.0320823045
4.062	0.1711728825	0.0532014735
4.062	0.171374658	0.0532014735
4.062	0.171105624	0.0532014735
4.825	0.287059278	0.0764729145
4.825	0.287059278	0.0764729145
4.825	0.2869920195	0.0764729145
5.732	0.484530234	0.109765872
5.732	0.484933785	0.109765872
5.731	0.485068302	0.109765872
6.813	0.821226285	0.15873006
6.814	0.82189887	0.15873006
6.813	0.822571455	0.15873006
8.087	1.39359612	0.250874205
8.088	1.394268705	0.250874205
8.093	1.39763163	0.250874205
10.104	2.802661695	0.37395726
10.108	2.804006865	0.37395726
10.113	2.810732715	0.37395726
12.12	4.98654519	0.55959072
12.127	4.99192587	0.55959072
12.145	5.05111335	0.560263305
14.133	8.05084245	0.7667469
14.135	8.05084245	0.7667469
14.154	8.10464925	0.7667469
16.149	11.9854647	0.9819741
16.147	11.9854647	0.9819741
16.172	11.9989164	0.9819741
18.16	16.6532046	1.1972013
18.165	16.6397529	1.1972013
18.179	16.6935597	1.1972013
20.181	21.86573835	1.39225095
20.174	21.8724642	1.39225095
20.186	21.90609345	1.39225095
22.206	27.42129045	1.5873006
22.202	27.43474215	1.5873006
22.202	27.4952748	1.5873006
24.221	33.3198609	1.8025278
24.217	33.28623165	1.8025278
24.225	33.2795058	1.8025278
26.235	39.36640005	1.99757745
26.228	39.37985175	2.0043033
26.241	39.4000293	2.0043033
28.25	45.36585825	2.18590125
28.249	45.37930995	2.18590125
28.251	45.3860358	2.1926271
30.266	51.28460625	2.40112845
30.269	51.24425115	2.3944026
30.281	51.39221985	2.40112845
35.309	66.3437844	2.93919645
35.309	66.36396195	2.93919645
35.313	66.5321082	2.9459223
40.348	80.844717	3.497442
40.349	80.979234	3.497442
40.348	81.113751	3.497442
45.392	94.969002	4.03551
45.395	95.0362605	4.03551
45.377	95.3052945	4.03551
50.423	108.95877	4.573578
50.442	108.8915115	4.573578
50.398	109.5640965	4.573578
55.455	122.006919	5.0443875
55.486	122.141436	5.0443875
55.429	122.814021	5.111646
60.494	134.9878095	5.5824555
60.524	134.920551	5.5824555
60.458	135.727653	5.5824555
65.53	147.430632	6.053265
65.575	147.296115	6.053265
65.482	148.372251	6.1205235
70.569	159.6044205	6.591333
70.627	159.4699035	6.5240745
70.498	160.9495905	6.591333
75.61	170.971107	6.994884
75.661	170.7693315	6.994884
75.529	172.3835355	7.0621425
80.655	182.270535	7.4656935
80.703	182.3377935	7.4656935
80.546	184.0865145	7.532952
85.698	192.5610855	7.8692445
85.742	192.897378	7.8692445
85.567	194.780616	7.936503
90.72	202.448085	8.2727955
90.779	202.179051	8.2727955
90.59	204.734874	8.340054
95.732	211.326207	8.609088
95.822	210.3173295	8.5418295
95.611	213.209445	8.6763465
100.794	218.590125	8.878122
100.794	218.859159	8.9453805
100.928	219.8680365	8.9453805
105.801	226.5938865	9.2144145
105.858	225.854043	9.2144145
105.727	227.871798	9.281673
113.741	237.3552465	9.685224
113.803	236.077335	9.6179655
113.651	238.8349335	9.685224
121.665	246.973212	10.0215165
121.738	245.8298175	10.0215165
121.578	248.587416	10.088775
129.609	255.447783	10.357809
129.658	254.506164	10.357809
129.508	257.331021	10.492326
137.561	262.577184	10.6941015
137.558	263.3170275	10.6941015
137.438	264.594939	10.76136
145.469	269.1012585	10.9631355
145.446	269.9083605	10.9631355
145.464	268.0251225	10.895877
153.362	275.490816	11.164911
153.344	275.625333	11.2321695
153.322	274.683714	11.164911
161.315	280.602462	11.433945
161.23	282.1494075	11.433945
161.303	279.0555165	11.3666865
169.218	285.2432985	11.568462
169.164	286.1849175	11.6357205
169.224	284.234421	11.568462
177.116	289.615101	11.7702375
177.107	290.018652	11.7702375
177.115	289.077033	11.7702375
185.035	293.5833525	11.9047545
185.046	293.381577	11.9047545
185.024	293.1798015	11.9047545
192.95	296.6772435	12.0392715
192.964	296.8117605	12.0392715
192.929	296.4082095	12.0392715
200.858	299.7711345	12.1737885
200.882	299.703876	12.1737885
200.83	299.5021005	12.1737885
208.759	302.9995425	12.3083055
208.801	302.5959915	12.3083055
208.735	302.932284	12.3083055
216.656	304.8827805	12.375564
216.711	304.6137465	12.375564
216.625	305.2863315	12.375564
224.576	307.7076375	12.510081
224.64	307.1695695	12.510081
224.529	308.3802225	12.510081
232.481	309.8599095	12.5773395
232.56	309.0528075	12.5773395
232.411	310.8015285	12.644598
240.39	310.6670115	12.644598
240.46	310.196202	12.5773395
240.305	311.8776645	12.644598
248.3	312.1466985	12.7118565
248.371	311.4741135	12.644598
248.212	312.886542	12.7118565
256.208	313.2228345	12.7118565
256.269	312.6847665	12.7118565
256.114	314.097195	12.779115
264.108	313.8954195	12.779115
264.166	313.42461	12.7118565
264.007	314.500746	12.779115
272.017	314.500746	12.779115
272.07	314.2989705	12.779115
271.906	315.307848	12.779115
279.917	317.1238275	12.913632
279.963	317.056569	12.8463735
279.809	318.132705	12.913632

System: gallium + selenium; phases: Crystal of intercomponent compound 1
Fixed: Pressure, kPa = 100
Fixed: Mole fraction of gallium = 0.501
Property: Specific heat capacity at constant pressure, J/K/kg (Crystal of intercomponent compound 1); method: Extra sensitive DSC
Temperature, K	Specific heat capacity at constant pressure, J/K/kg	uncertainty
262.021	315.038814	12.1737885
264.998	315.2405895	12.241047
269.996	315.5096235	12.241047
274.997	316.518501	12.241047
279.997	317.191086	12.3083055
284.997	318.1999635	12.3083055
289.997	319.208841	12.375564
294.996	319.9486845	12.375564
299.679	320.554011	12.4428225
307.004	321.2938545	12.4428225
310.003	322.033698	12.4428225
315.002	322.302732	12.510081
320.001	322.9080585	12.510081
325	323.647902	12.510081
329.999	324.5222625	12.5773395
334.998	325.934691	12.644598
339.997	325.934691	12.644598
345	326.9435685	12.644598
350.003	328.0197045	12.7118565
354.612	329.028582	12.7118565
358.601	328.759548	12.7118565

System: gallium + tellurium; phases: Crystal of intercomponent compound 1
Property: Mass density, kg/m3 (Crystal of intercomponent compound 1); method: X-ray diffraction
Mole fraction of gallium	Pressure, kPa	Temperature, K	Mass density, kg/m3	uncertainty
0.486	100	298	5448	53

System: gallium + tellurium; phases: Crystal of intercomponent compound 1
Fixed: Pressure, kPa = 100
Fixed: Mole fraction of gallium = 0.486
Property: Specific heat capacity at constant pressure, J/K/kg (Crystal of intercomponent compound 1); method: RELAXCAL
Temperature, K	Specific heat capacity at constant pressure, J/K/kg	uncertainty
2.031	0.0337016015	0.0329920941
2.03	0.0328400568	0.0333975269
2.03	0.0337522806	0.032941415
2.413	0.057774174	0.0495641598
2.414	0.0581796068	0.0494628016
2.413	0.0580782486	0.0494121225
2.875	0.1032840058	0.058280965
2.875	0.1031826476	0.058280965
2.874	0.1030306103	0.058280965
3.417	0.181937969	0.063348875
3.416	0.1818872899	0.063348875
3.416	0.181937969	0.063348875
4.069	0.3235860535	0.0916784919
4.069	0.3229779043	0.0916784919
4.069	0.3230285834	0.0916784919
4.833	0.555442936	0.150516927
4.833	0.554936145	0.151023718
4.833	0.555442936	0.150516927
5.745	0.945165215	0.211838638
5.745	0.944658424	0.211838638
5.745	0.945165215	0.211838638
6.831	1.590816949	0.296979526
6.831	1.591830531	0.296979526
6.83	1.590816949	0.296979526
8.095	2.641901483	0.441414961
8.095	2.642408274	0.441414961
8.102	2.650010139	0.441414961
10.112	5.059294553	0.606122036
10.112	5.061828508	0.606122036
10.111	5.058787762	0.606122036
12.125	8.38232314	0.8108656
12.126	8.37725523	0.8108656
12.142	8.4127306	0.8108656
14.141	12.48733024	1.013582
14.141	12.49239815	1.013582
14.154	12.52787352	1.013582
16.155	17.21569027	1.20616258
16.155	17.22075818	1.20616258
16.177	17.23596191	1.20616258
18.171	22.39002638	1.38860734
18.172	22.38495847	1.38860734
18.182	22.42550175	1.39367525
20.185	27.77721471	1.55584837
20.187	27.76707889	1.55584837
20.196	27.79241844	1.55584837
22.211	33.20494632	1.73322522
22.21	33.19987841	1.73322522
22.219	33.22015005	1.73322522
24.224	38.73910404	1.92073789
24.222	38.74417195	1.9258058
24.229	38.79485105	1.9258058
26.242	44.35941623	2.10318265
26.238	44.32900877	2.10318265
26.239	44.32394086	2.10318265
28.253	49.69085755	2.27549159
28.251	49.68578964	2.27549159
28.257	49.67058591	2.27549159
30.272	54.9361444	2.4832759
30.271	54.9361444	2.4832759
30.286	54.9868235	2.4832759
35.313	68.0113522	2.9393878
35.316	68.0113522	2.9393878
35.334	68.0620313	2.9393878
40.356	80.5290899	3.3954997
40.348	80.3770526	3.3954997
40.36	80.3770526	3.3954997
45.392	92.1346038	3.8516116
45.388	92.1346038	3.8516116
45.412	91.8812083	3.8516116
50.426	103.4867222	4.3077235
50.415	103.4360431	4.3077235
50.458	103.1319685	4.2570444
55.456	113.9772959	4.7131563
55.445	113.7745795	4.7131563
55.501	113.4705049	4.6624772
60.502	123.5556458	5.06791
60.476	123.5556458	5.06791
60.516	123.0488548	5.06791
65.551	133.0833166	5.4733428
65.511	133.1339957	5.4733428
65.539	132.6272047	5.4226637
70.604	141.6987636	5.7774174
70.551	141.9521591	5.8280965
70.564	141.3440099	5.7774174
75.639	149.8074196	6.1321711
75.581	149.9087778	6.1321711
75.591	149.1992704	6.081492
80.67	157.612001	6.4362457
80.607	157.7640383	6.4362457
80.627	157.10521	6.3855666
85.715	164.6563959	6.6896412
85.633	164.8591123	6.7403203
85.641	164.200284	6.6896412
90.751	171.1433207	6.9937158
90.681	171.4980744	6.9937158
90.682	170.9406043	6.9430367
95.784	176.6166635	7.1964322
95.709	177.2248127	7.1964322
95.713	176.3125889	7.1964322
100.817	184.5226031	7.5005068
100.777	185.0800732	7.5511859
100.857	184.8773568	7.5511859
105.874	191.3136025	7.8045814
105.866	192.073789	7.8045814
105.735	192.7326173	7.8552605
113.789	197.3950945	8.0072978
113.828	197.64849	8.0579769
113.711	198.8647884	8.108656
121.706	204.1354148	8.3113724
121.766	203.729982	8.2606933
121.683	205.0983177	8.3113724
129.625	209.5073994	8.5140888
129.698	208.3924592	8.4634097
129.64	209.9128322	8.5140888
137.553	213.7644438	8.6661261
137.613	212.2440708	8.615447
137.595	213.5617274	8.6661261
145.479	218.933712	8.9195216
145.537	217.3626599	8.8181634
145.529	218.2748837	8.8688425
153.414	222.3798908	9.0208798
153.437	222.0758162	9.0208798
153.422	222.2278535	9.0208798
161.347	224.4070548	9.122238
161.361	224.3056966	9.122238
161.348	224.2550175	9.122238
169.28	227.4984799	9.2235962
169.296	227.042368	9.2235962
169.282	227.0930471	9.2235962
177.196	229.1708902	9.3249544
177.215	228.9174947	9.2742753
177.196	228.8668156	9.2742753
185.14	230.7926214	9.3756335
185.154	230.589905	9.3756335
185.104	230.8939796	9.3756335
193.062	233.3772555	9.4769917
193.079	233.4279346	9.4769917
193.029	233.630651	9.4769917
200.992	233.8840465	9.5276708
201.001	233.6813301	9.5276708
200.953	233.8333674	9.5276708
208.91	236.5193597	9.629029
208.918	236.3673224	9.629029
208.874	236.164606	9.5783499
216.827	238.19177	9.6797081
216.821	238.3944864	9.6797081
216.782	238.3438073	9.6797081
224.765	240.9791205	9.7810663
224.755	241.2831951	9.7810663
224.707	241.1311578	9.7810663
232.683	239.9655385	9.7303872
232.677	240.4723295	9.7810663
232.62	240.4216504	9.7810663
240.598	241.2831951	9.7810663
240.599	241.4859115	9.8317454
240.541	241.5365906	9.8317454
248.526	241.9927025	9.8317454
248.519	242.0940607	9.8317454
248.465	241.7899861	9.8317454
256.437	242.3474562	9.8317454
256.435	242.6515308	9.8317454
256.376	242.1447398	9.8317454
264.35	244.4252993	9.9331036
264.346	244.1719038	9.9331036
264.281	243.9691874	9.9331036
201.437	236.671397	9.8824245
201.417	236.7727552	9.9331036
201.525	234.6949121	9.5276708
206.461	237.8370163	9.6797081
206.432	237.9383745	9.6797081
206.542	236.0125687	9.5783499
211.473	238.9012774	9.7303872
211.457	238.9012774	9.7303872
211.552	236.9754716	9.629029
216.485	239.9148594	9.7303872
216.493	239.9148594	9.7303872
216.551	238.5465237	9.6797081
221.514	241.1818369	9.7810663
221.506	241.3338742	9.7810663
221.593	239.6107848	9.7303872
226.543	242.246098	9.8317454
226.54	242.3474562	9.8317454
226.608	240.725725	9.7810663
231.537	243.25968	9.8824245
231.757	241.4352324	9.8317454
236.758	242.2967771	9.8317454
241.587	244.2225829	9.9837827
241.777	242.8035681	9.8824245
246.622	244.9320903	9.9331036
246.79	243.8678292	9.9331036
251.642	245.6415977	9.9837827
251.809	244.6280157	9.9331036
256.664	246.2497469	9.9837827
256.827	245.0841276	9.9837827
261.659	248.0741945	10.3385364
261.817	246.8578961	10.1864991
266.717	246.4017842	10.0344618
266.711	246.5538215	10.0344618
266.684	246.5538215	10.0344618
271.732	246.7565379	10.0344618
271.83	246.3511051	9.9837827
271.543	248.834381	10.0851409
273.74	246.7058588	10.0344618
273.841	246.5538215	10.0344618
273.536	249.1891347	10.13582
275.745	246.7565379	10.0344618
275.849	246.5031424	10.0344618
275.545	249.1384556	10.13582
277.749	246.7565379	10.0344618
277.854	246.5538215	10.0344618
277.536	249.2904929	10.13582
279.757	246.5031424	10.0344618
279.866	246.4524633	10.0344618
279.538	249.0877765	10.13582
281.761	246.2497469	9.9837827
281.873	246.0977096	9.9837827
281.525	249.0877765	10.13582
283.782	246.1483887	9.9837827
283.866	246.6551797	10.0344618
283.527	248.9864183	10.13582
285.776	246.4017842	10.0344618
285.881	246.6045006	10.0344618
285.53	249.4425302	10.13582
287.776	246.3511051	10.0344618
287.886	246.6551797	10.0344618
287.535	249.5438884	10.13582
289.785	246.5538215	10.0344618
289.89	246.8578961	10.0344618
289.53	249.6452466	10.13582
291.802	247.1619707	10.0344618
291.898	247.5167244	10.0851409
291.528	250.4054331	10.1864991
293.815	248.6823437	10.0851409
293.905	248.8850601	10.13582
293.524	251.3176569	10.2371782
295.843	249.341172	10.13582
295.907	249.341172	10.13582
295.515	251.368336	10.2371782
297.832	250.7095077	10.1864991
297.929	248.6823437	10.0851409
297.518	250.8108659	10.1864991
299.849	250.1520376	10.1864991
299.935	248.6316646	10.0851409
299.528	250.2533958	10.1864991
301.872	250.861545	10.1864991
301.949	249.3918511	10.13582
301.544	251.0642614	10.1864991
303.84	252.3312389	10.2878573
303.872	250.5067913	10.1864991
303.805	250.5574704	10.1864991
221.512	241.1311578	9.7810663
221.527	241.0297996	9.7810663
225.576	241.7899861	9.8317454
225.61	241.8406652	9.8317454
229.653	241.8913443	9.8317454
229.684	241.4352324	9.8317454
233.722	242.0433816	9.8317454
233.746	241.9420234	9.8317454
237.695	243.1076427	9.8824245
237.726	242.4488144	9.8317454
241.86	243.6144337	9.8824245
241.887	243.5130755	9.8824245
245.928	243.4623964	9.8824245
245.972	243.3103591	9.8824245
249.901	242.8542472	9.8824245
249.932	242.9049263	9.8824245
253.962	242.9556054	9.8824245
253.998	243.0569636	9.8824245
258.123	244.1212247	9.9331036
258.159	244.0198665	9.9331036
262.184	245.1348067	9.9837827
262.223	244.9320903	9.9837827
266.135	246.1483887	9.9837827
266.187	245.5909186	9.9837827
270.3	248.7837019	10.0851409
270.345	247.6687617	10.0851409
270.645	247.0606125	10.0851409
270.648	246.6551797	10.0851409
272.788	247.6180826	10.0344618
272.798	247.314008	10.0344618

System: gallium + tellurium; phases: Crystal of intercomponent compound 1
Fixed: Pressure, kPa = 100
Fixed: Mole fraction of gallium = 0.486
Property: Specific heat capacity at constant pressure, J/K/kg (Crystal of intercomponent compound 1); method: Extra sensitive DSC
Temperature, K	Specific heat capacity at constant pressure, J/K/kg	uncertainty
260.511	245.5402395	9.5276708
263.123	246.4017842	9.5276708
265.73	246.300426	9.5276708
268.335	246.807217	9.5783499
270.071	246.9592543	9.5783499
272.675	247.0606125	9.5783499
275.281	247.2633289	9.5783499
277.884	247.7194408	9.5783499
280.488	247.8714781	9.5783499
283.093	248.32759	9.629029
285.697	248.5809855	9.629029
288.301	248.8850601	9.629029
290.037	248.9357392	9.629029
292.641	249.0877765	9.629029
295.245	249.2904929	9.6797081
297.848	249.7466048	9.6797081
300.452	249.8986421	9.6797081
303.056	250.5067913	9.6797081
305.66	250.7601868	9.7303872
307.396	250.8108659	9.7303872
310	251.2162987	9.7303872
312.603	251.4190151	9.7303872
315.207	251.875127	9.7303872
317.81	251.9258061	9.7810663
320.414	252.2298807	9.7810663
323.018	252.4832762	9.7810663
325.622	252.5339553	9.7810663
327.357	252.7366717	9.7810663
329.962	253.0407463	9.7810663
332.565	253.1927836	9.7810663
335.168	253.4968582	9.8317454
337.771	253.6995746	9.8317454
340.375	254.0036492	9.8317454
342.979	254.409082	9.8317454
345.582	254.409082	9.8317454
348.187	254.7638357	9.8824245
349.922	254.7638357	9.8824245
352.526	254.6624775	9.8824245
355.13	255.3213058	9.8824245
356.865	255.0679103	9.8824245
358.601	254.9665521	9.8824245

System: indium + sulfur; phases: Crystal of intercomponent compound 1
Property: Mass density, kg/m3 (Crystal of intercomponent compound 1); method: X-ray diffraction
Mole fraction of indium	Pressure, kPa	Temperature, K	Mass density, kg/m3	uncertainty
0.451	100	298	5211	304

System: indium + sulfur; phases: Crystal of intercomponent compound 1
Fixed: Pressure, kPa = 100
Fixed: Mole fraction of indium = 0.451
Property: Specific heat capacity at constant pressure, J/K/kg (Crystal of intercomponent compound 1); method: RELAXCAL
Temperature, K	Specific heat capacity at constant pressure, J/K/kg	uncertainty
2.033	0.0178376936	0.0157952096
2.033	0.0177696108	0.0158632924
2.033	0.0179738592	0.0157271268
2.418	0.0302287632	0.022467324
2.417	0.029956432	0.0226034896
2.417	0.0298883492	0.0226034896
2.881	0.0513344312	0.0263480436
2.88	0.0512663484	0.0263480436
2.881	0.0513344312	0.0263480436
3.426	0.08680557	0.0284586104
3.426	0.08680557	0.0284586104
3.426	0.0868736528	0.0284586104
4.081	0.1498502428	0.0484749536
4.081	0.1498502428	0.0484749536
4.081	0.1499183256	0.0484749536
4.848	0.25701257	0.0726443476
4.848	0.2568764044	0.0726443476
4.848	0.2568764044	0.0726443476
5.762	0.4500953908	0.1128131996
5.763	0.450027308	0.1128131996
5.763	0.4501634736	0.1128131996
6.85	0.810866148	0.179738592
6.851	0.81018532	0.179738592
6.852	0.809504492	0.179738592
8.109	1.478077588	0.31998916
8.108	1.479439244	0.31998916
8.114	1.482843384	0.31998916
10.122	3.331972232	0.501089408
10.123	3.33265306	0.501089408
10.125	3.334695544	0.501089408
12.143	6.329657916	0.751634112
12.141	6.340551164	0.751634112
12.143	6.335785368	0.751634112
14.158	10.45751808	1.00762544
14.162	10.46432636	1.00762544
14.176	10.51198432	1.00762544
16.172	15.5228784	1.24591524
16.177	15.53649496	1.24591524
16.188	15.5909612	1.24591524
18.196	21.32353296	1.4637802
18.196	21.32353296	1.4637802
18.203	21.36438264	1.4637802
20.212	27.4714098	1.66122032
20.214	27.5054512	1.6680286
20.216	27.56672572	1.6680286
22.234	33.80991848	1.86546872
22.234	33.79630192	1.86546872
22.242	33.85076816	1.86546872
24.248	40.25735964	2.0765254
24.251	40.19608512	2.06971712
24.256	40.27778448	2.0765254
26.266	46.58225176	2.26034896
26.264	46.66395112	2.26715724
26.263	46.67756768	2.26715724
28.281	52.75055344	2.4509808
28.279	52.77097828	2.4509808
28.283	52.80501968	2.45778908
30.297	58.6192908	2.64161264
30.3	58.62609908	2.64161264
30.314	58.70779844	2.64161264
35.342	72.9166788	3.1318088
35.342	72.9166788	3.1318088
35.356	72.9166788	3.1318088
40.381	85.8524108	3.6083884
40.379	85.8524108	3.6083884
40.381	85.8524108	3.6083884
45.426	97.6307352	4.084968
45.425	97.698818	4.084968
45.439	97.6307352	4.084968
50.463	109.272894	4.4934648
50.462	109.4090596	4.5615476
50.477	109.272894	4.4934648
55.496	120.0299764	4.9700444
55.502	120.0980592	4.9700444
55.511	120.166142	4.9700444
60.54	130.378562	5.3785412
60.536	130.2423964	5.3785412
60.538	130.378562	5.3785412
65.582	140.7952304	5.787038
65.579	140.8633132	5.787038
65.593	140.7952304	5.787038
70.625	151.0076504	6.1955348
70.621	151.0757332	6.1955348
70.641	150.9395676	6.1955348
75.66	160.8796564	6.6040316
75.66	160.4711596	6.5359488
75.656	160.675408	6.6040316
80.69	170.8197452	7.0125284
80.694	170.6835796	6.9444456
80.687	170.6154968	6.9444456
85.729	180.2151716	7.3529424
85.728	180.1470888	7.3529424
85.726	179.738592	7.3529424
90.765	189.1340184	7.6933564
90.749	189.4744324	7.7614392
90.765	188.589356	7.6933564
95.791	197.1677888	8.0337704
95.78	197.5762856	8.0337704
95.793	197.099706	8.0337704
100.827	204.588814	8.3061016
100.818	204.929228	8.3741844
100.916	204.1803172	8.3061016
105.867	213.2353296	8.7145984
105.874	212.75875	8.6465156
105.86	212.8268328	8.6465156
113.822	223.1754184	9.0550124
113.817	223.2435012	9.0550124
113.82	222.9030872	9.0550124
121.76	233.1155072	9.4635092
121.752	233.18359	9.4635092
121.718	233.18359	9.4635092
129.688	242.3066852	9.872006
129.69	241.9662712	9.8039232
129.675	241.9662712	9.8039232
137.624	250.0000416	10.1443372
137.616	250.0000416	10.1443372
137.604	249.863876	10.1443372
145.55	257.1487356	10.4847512
145.547	256.8764044	10.4166684
145.514	257.2168184	10.4847512
153.45	264.2293468	10.7570824
153.457	264.0250984	10.7570824
153.435	264.0931812	10.7570824
161.385	270.0163848	10.9613308
161.389	270.0844676	10.9613308
161.36	269.8802192	10.9613308
169.314	275.73534	11.233662
169.32	275.4630088	11.1655792
169.281	275.5991744	11.1655792
177.235	280.2288048	11.3698276
177.24	280.2968876	11.3698276
177.202	280.3649704	11.3698276
185.172	284.7903524	11.574076
185.171	284.8584352	11.574076
185.14	284.5180212	11.574076
193.084	288.7391548	11.7102416
193.086	289.0795688	11.7102416
193.05	288.3987408	11.7102416
201.005	292.8922056	11.91449
201.01	293.0283712	11.91449
200.968	292.6879572	11.91449
208.92	295.9559316	12.0506556
208.922	296.16018	12.0506556
208.875	296.0240144	12.0506556
216.819	299.7004856	12.1868212
216.829	299.7004856	12.1868212
216.781	299.56432	12.1868212
224.739	303.1046256	12.3229868
224.752	302.6961288	12.3229868
224.698	302.5599632	12.3229868
232.655	305.010944	12.3910696
232.663	305.2151924	12.3910696
232.6	305.010944	12.3910696
240.536	307.6661732	12.5272352
240.541	307.5300076	12.4591524
240.514	306.713014	12.4591524
248.454	310.117154	12.595318
248.483	308.8916636	12.5272352
248.404	309.8448228	12.595318
256.397	310.7298992	12.595318
256.402	310.6618164	12.595318
256.338	310.5937336	12.595318
264.301	312.9766316	12.7314836
264.305	312.9766316	12.7314836
264.239	312.4319692	12.6634008

System: indium + sulfur; phases: Crystal of intercomponent compound 1
Fixed: Pressure, kPa = 100
Fixed: Mole fraction of indium = 0.451
Property: Specific heat capacity at constant pressure, J/K/kg (Crystal of intercomponent compound 1); method: Extra sensitive DSC
Temperature, K	Specific heat capacity at constant pressure, J/K/kg	uncertainty
262.242	315.904192	12.254904
265.002	316.7211856	12.254904
270.004	317.7424276	12.3229868
275.001	319.308332	12.3910696
279.997	320.9423192	12.4591524
284.997	322.4401408	12.4591524
289.996	323.9379624	12.5272352
294.996	325.435784	12.595318
299.996	326.5931916	12.6634008
304.999	328.0229304	12.7314836
310.003	329.180338	12.7314836
315.002	329.9292488	12.7995664
320.001	330.541994	12.7995664
325	331.2909048	12.7995664
329.999	332.3121468	12.8676492
334.998	333.1291404	12.935732
337.857	333.4014716	12.935732
340.376	332.924892	12.8676492
343.847	333.4695544	12.935732
345.583	333.7418856	12.935732
348.186	335.30779	13.0038148
350.789	335.5120384	13.0038148
353.393	335.988618	13.0038148
355.129	336.5332804	13.0038148
355.997	335.7843696	13.0038148
358.601	336.3971148	13.0038148

System: indium + selenium; phases: Crystal of intercomponent compound 1
Property: Mass density, kg/m3 (Crystal of intercomponent compound 1); method: X-ray diffraction
Mole fraction of indium	Pressure, kPa	Temperature, K	Mass density, kg/m3	uncertainty
0.477	100	298	5546	59

System: indium + selenium; phases: Crystal of intercomponent compound 1
Fixed: Pressure, kPa = 100
Fixed: Mole fraction of indium = 0.477
Property: Specific heat capacity at constant pressure, J/K/kg (Crystal of intercomponent compound 1); method: RELAXCAL
Temperature, K	Specific heat capacity at constant pressure, J/K/kg	uncertainty
2.03	0.0635772368	0.055733292
2.03	0.0636804466	0.0556816871
2.03	0.0638352613	0.0556300822
2.412	0.1071833773	0.071730811
2.413	0.1071317724	0.0718340208
2.413	0.1074414018	0.071730811
2.871	0.1810299892	0.085664134
2.872	0.1807719647	0.085664134
2.871	0.1809267794	0.085664134
3.411	0.2860459607	0.0919083269
3.411	0.2857879362	0.0919083269
3.411	0.2856847264	0.0919083269
4.064	0.4908142039	0.1391784153
4.064	0.490762599	0.1391784153
4.064	0.4908658088	0.1391784153
4.826	0.869542565	0.264733137
4.826	0.869542565	0.264733137
4.826	0.869026516	0.264733137
5.735	1.580142038	0.420063886
5.735	1.57910994	0.420063886
5.735	1.577045744	0.420063886
6.809	2.91567685	0.61409831
6.817	2.864587999	0.61409831
6.818	2.869748489	0.61409831
8.091	5.113529541	0.927340053
8.091	5.118690031	0.927340053
8.092	5.113529541	0.927340053
10.105	10.207965269	1.2385176
10.105	10.224478837	1.2385176
10.106	10.228607229	1.2385176
12.117	16.854676389	1.569305009
12.122	16.831970233	1.56878896
12.136	16.965110875	1.570853156
14.133	24.444209032	1.838682587
14.135	24.436468297	1.838682587
14.146	24.490653442	1.839714685
16.15	32.558047459	2.098771283
16.148	32.487348746	2.097223136
16.158	32.615844947	2.10031943
18.171	40.887078319	2.34286246
18.169	40.88140178	2.34286246
18.182	40.874693143	2.342346411
20.186	49.098450007	2.570956118
20.186	49.157279593	2.572504265
20.182	49.239847433	2.57508451
22.211	56.9718096	2.7866646
22.202	57.1782292	2.7866646
22.203	57.1266243	2.7866646
24.219	65.022174	3.0446891
24.226	64.8673593	3.0446891
24.222	64.9705691	3.0446891
26.237	72.4532796	3.3027136
26.24	72.4532796	3.3027136
26.237	72.5564894	3.3027136
28.249	79.5747558	3.5091332
28.25	79.5747558	3.5091332
28.252	79.5747558	3.5091332
30.269	86.3349977	3.7671577
30.27	86.3349977	3.7671577
30.275	86.3866026	3.7671577
35.309	102.4873314	4.3348116
35.314	102.4873314	4.3348116
35.307	102.6421461	4.3348116
40.346	116.7302838	4.8508606
40.354	116.6786789	4.8508606
40.339	117.2463328	4.9024655
45.389	129.3218794	5.3669096
45.396	129.2702745	5.3669096
45.377	129.6315088	5.3669096
50.421	140.881377	5.7797488
50.44	140.7265623	5.7797488
50.405	141.5006358	5.8313537
55.458	150.7379129	6.192588
55.48	150.6347031	6.192588
55.432	151.4087766	6.192588
60.495	159.4075361	6.5022174
60.523	159.2527214	6.5022174
60.463	160.1300047	6.5538223
65.532	167.7675299	6.8634517
65.573	167.3030858	6.8118468
65.492	168.8512328	6.9150566
70.555	175.2502404	7.1214762
70.629	173.9601179	7.0698713
70.52	176.2307335	7.1730811
75.603	181.4944333	7.3795007
75.665	180.8235696	7.3795007
75.556	182.681346	7.4311056
80.648	187.9450458	7.6375252
80.707	187.0161576	7.6375252
80.573	189.389983	7.6891301
85.687	193.4151652	7.8955497
85.736	192.6926966	7.8439448
85.606	194.7568926	7.9471546
90.712	198.7820748	8.1019693
90.784	197.5435572	8.0503644
90.629	200.227012	8.1535742
95.738	202.3944178	8.2051791
95.835	201.4139247	8.2051791
95.647	204.0457746	8.3083889
100.786	205.8003412	8.3599938
100.831	205.3358971	8.3599938
100.914	207.4000931	8.4115987
105.837	208.7418205	8.4632036
105.862	208.0709568	8.4632036
113.877	213.5926811	8.6696232
113.929	212.096139	8.6180183
121.939	217.6694682	8.8244379
121.969	216.3793457	8.772833
130.015	220.868972	8.9792526
130.004	220.352923	8.9792526
138.074	223.965266	9.0824624
138.036	223.7588464	9.0824624
146.141	226.7003257	9.2372771
146.075	227.0099551	9.2372771
154.135	230.1062491	9.3404869
154.157	229.0225462	9.288882
162.189	232.3252598	9.4436967
162.214	231.3447667	9.3920918
170.275	234.1314313	9.4953016
170.259	233.5121725	9.4953016
178.339	235.6279734	9.5469065
178.317	235.1635293	9.5469065
186.395	237.2277253	9.6501163
186.372	236.7632812	9.5985114
194.446	238.3114282	9.7017212
194.403	238.0017988	9.6501163
202.497	239.6531556	9.7533261
202.422	239.962785	9.7533261
210.53	241.0464879	9.804931
210.437	241.2013026	9.804931
218.554	241.2013026	9.804931
218.458	241.510932	9.804931
226.593	242.6462398	9.8565359
226.497	242.8526594	9.8565359
234.631	243.3687084	9.9081408
234.522	243.6267329	9.9081408
242.672	244.0395721	9.9081408
242.561	244.4008064	9.9081408
250.706	245.123275	9.9597457
250.603	245.2780897	9.9597457
258.739	245.7941387	9.9597457
258.635	245.9489534	10.0113506
266.768	246.5682122	10.0113506
266.659	246.6198171	10.0113506
274.808	247.70352	10.0629555
274.695	247.70352	10.0629555
282.827	248.3743837	10.1145604
282.722	248.4775935	10.1145604
290.852	248.9420376	10.1145604
290.717	248.7872229	10.1145604
298.859	250.5933944	10.1661653
298.746	248.735618	10.1145604
306.866	252.9672198	10.32098
306.867	252.7608002	10.2693751
32.781	94.5401768	4.0767871
32.789	94.5917817	4.0767871
37.815	109.6604125	4.5928361
37.824	109.8668321	4.5928361
42.867	122.7680571	5.1088851
42.864	123.2325012	5.1088851
47.912	134.8436037	5.5733292
47.899	135.3596527	5.5733292
52.952	145.4226082	5.9861684
52.93	146.0934719	5.9861684
57.986	154.8147	6.3474027
57.973	155.2791441	6.3474027
63.041	162.9682742	6.6570321
63.013	163.7939526	6.708637
68.078	170.9670337	6.9666615
68.054	171.5346876	7.0182664
73.091	177.3144364	7.224686
73.046	178.1401148	7.2762909
78.158	183.8166538	7.4827105
78.128	184.745542	7.5343154
83.2	189.6996124	7.740735
83.169	190.4736859	7.740735
88.241	194.7568926	7.9471546
88.194	195.8405955	7.9987595
93.241	199.4529385	8.1019693
93.179	200.6398512	8.1535742
98.295	202.3428129	8.2051791
98.205	204.1489844	8.3083889
101.875	205.1810824	8.3599938
101.787	206.3679951	8.4115987
109.929	209.1030548	8.5148085
109.825	211.2704606	8.5664134
117.976	213.0766321	8.6696232
117.897	215.2956428	8.772833
125.98	218.3403319	8.8760428
125.976	218.3919368	8.8760428
134.044	219.7852691	8.9276477
133.918	223.1395876	9.0824624
142.103	222.5203288	9.0308575
141.965	225.8230424	9.1856722
150.141	225.7198326	9.1856722
150.018	228.7129168	9.288882
255.572	245.5877191	9.9597457
255.582	246.5166073	10.0113506
264.083	246.1037681	10.0113506
264.042	247.2390759	10.0629555
272.243	248.4775935	10.1145604
272.342	248.4259886	10.1145604
280.716	249.1484572	10.1145604
280.836	248.0647543	10.0629555
288.978	249.7161111	10.1661653
289.062	248.5291984	10.1145604
294.724	248.5808033	10.1145604
294.842	249.251667	10.1145604
297.479	249.251667	10.1145604
297.555	248.735618	10.1145604
303.85	252.1931463	10.2693751
303.858	252.1415414	10.2177702
305.745	251.5222826	10.2177702
305.795	251.1094434	10.2177702

System: indium + selenium; phases: Crystal of intercomponent compound 1
Fixed: Pressure, kPa = 100
Fixed: Mole fraction of indium = 0.477
Property: Specific heat capacity at constant pressure, J/K/kg (Crystal of intercomponent compound 1); method: Extra sensitive DSC
Temperature, K	Specific heat capacity at constant pressure, J/K/kg	uncertainty
265.737	248.3743837	9.5985114
269.996	248.4775935	9.5985114
274.997	248.7872229	9.6501163
279.997	249.0968523	9.6501163
284.997	249.5096915	9.6501163
289.997	249.9225307	9.7017212
294.996	250.0257405	9.7017212
299.996	250.1805552	9.7017212
304.999	250.3869748	9.7017212
310.003	251.4190728	9.7533261
315.002	252.0899365	9.7533261
320.001	251.7803071	9.7533261
325	252.2963561	9.7533261
329.999	253.1220345	9.804931
334.998	254.5153668	9.8565359
339.997	254.8766011	9.8565359
345	255.7022795	9.9081408
350.003	256.8891922	9.9597457
355.002	257.8180804	10.0113506
357.871	258.5921539	10.0113506

System: indium + tellurium; phases: Crystal of intercomponent compound 1
Property: Mass density, kg/m3 (Crystal of intercomponent compound 1); method: X-ray diffraction
Mole fraction of indium	Pressure, kPa	Temperature, K	Mass density, kg/m3	uncertainty
0.542	100	298	6307	44

System: indium + tellurium; phases: Crystal of intercomponent compound 1
Fixed: Pressure, kPa = 100
Fixed: Mole fraction of indium = 0.542
Property: Specific heat capacity at constant pressure, J/K/kg (Crystal of intercomponent compound 1); method: RELAXCAL
Temperature, K	Specific heat capacity at constant pressure, J/K/kg	uncertainty
2.031	0.1286196826	0.1280421728
2.031	0.1286196826	0.1280421728
2.031	0.1286196826	0.1280421728
2.417	0.2350877393	0.1644665409
2.417	0.2353352435	0.1643840395
2.416	0.2351702407	0.1643015381
2.88	0.40013179	0.1798118013
2.88	0.4005030463	0.1798118013
2.88	0.4000905393	0.1798118013
3.423	0.648048497	0.192228262
3.423	0.648048497	0.192228262
3.428	0.65176106	0.192228262
4.076	1.032505021	0.282979802
4.076	1.031680007	0.282979802
4.082	1.036630091	0.282979802
4.84	1.636002762	0.396419227
4.84	1.636002762	0.396419227
4.839	1.63352772	0.396419227
5.749	2.659020122	0.568434646
5.749	2.663970206	0.568434646
5.755	2.67304536	0.568434646
6.856	4.328023444	0.801501101
6.837	4.4138249	0.802326115
6.832	4.401862197	0.802326115
8.094	7.241147878	1.152132051
8.095	7.232485231	1.152544558
8.093	7.225472612	1.152544558
10.106	13.301288215	1.433461825
10.108	13.258387487	1.433049318
10.122	13.29922568	1.433049318
12.122	20.600187073	1.746142131
12.123	20.586574342	1.745729624
12.133	20.652987969	1.746967145
14.138	28.683674245	2.000246443
14.138	28.667173965	1.999833936
14.145	28.691099371	2.000246443
16.154	36.994865281	2.228775321
16.157	36.962689735	2.227950307
16.157	37.065403978	2.230425349
18.171	45.2520179	2.4337913
18.17	45.2520179	2.4337913
18.176	45.2107672	2.4337913
20.184	53.213403	2.6400448
20.193	53.0071495	2.6400448
20.19	53.2546537	2.6400448
22.205	60.8035318	2.887549
22.205	61.0097853	2.887549
22.205	60.8447825	2.887549
24.224	68.0224043	3.0938025
24.223	68.0224043	3.0938025
24.22	68.1049057	3.0938025
26.235	74.9525219	3.300056
26.237	74.9112712	3.300056
26.236	74.9525219	3.300056
28.25	81.263879	3.5063095
28.249	81.3051297	3.5063095
28.248	81.263879	3.5063095
30.267	87.1627291	3.712563
30.267	87.1627291	3.712563
30.269	87.1627291	3.712563
35.307	100.9404629	4.2075714
35.307	100.8992122	4.2075714
35.304	101.0229643	4.2488221
40.343	112.7794138	4.6613291
40.347	112.7381631	4.6613291
40.341	112.9856673	4.6613291
45.384	122.927086	5.0738361
45.389	122.7620832	5.0325854
45.377	123.0920888	5.0738361
50.42	132.1259921	5.4038417
50.43	132.0434907	5.4038417
50.409	132.5384991	5.4450924
55.455	139.9223744	5.7338473
55.469	139.7161209	5.6925966
55.433	140.4173828	5.7338473
60.495	146.3987343	5.9813515
60.505	146.439985	5.9813515
60.468	146.9349934	5.9813515
65.53	152.7925928	6.2288557
65.559	152.5038379	6.2288557
65.49	153.7826096	6.2701064
70.572	158.1551838	6.4351092
70.614	157.7839275	6.4351092
70.513	159.3927048	6.4763599
75.613	162.8577636	6.6413627
75.647	162.6927608	6.6413627
75.551	164.0127832	6.6826134
80.637	167.7665969	6.8476162
80.701	167.0240843	6.8063655
80.583	169.4578756	6.8888669
85.676	172.1391711	7.012619
85.736	170.6541459	6.9301176
85.598	173.1291879	7.0538697
90.72	175.4392271	7.1363711
90.768	175.1917229	7.1363711
90.646	176.6354974	7.1776218
95.755	178.1617733	7.2601232
95.795	177.9555198	7.2188725
95.675	179.5230464	7.3013739
100.785	180.4305618	7.3426246
100.821	179.8943027	7.3013739
100.885	181.7505842	7.3838753
106.855	182.6580996	7.425126
106.882	182.8643531	7.425126
106.775	184.1843755	7.4663767
113.824	185.5456486	7.5488781
113.854	185.1331416	7.5076274
113.767	186.453164	7.5901288
120.837	187.278178	7.5901288
120.802	188.6394511	7.6726302
120.769	188.3919469	7.6726302
127.806	189.5057158	7.7138809
127.778	190.4544819	7.7551316
127.764	189.7944707	7.7138809
134.767	191.3207466	7.7551316
134.734	191.9807578	7.7963823
134.748	191.1144931	7.7551316
141.738	193.0945267	7.837633
141.7	193.5070337	7.8788837
141.732	192.3520141	7.7963823
148.707	194.6208026	7.9201344
148.672	194.8683068	7.9201344
148.712	193.7545379	7.8788837
155.639	195.940825	7.9613851
155.639	195.8170729	7.9613851
155.611	195.6520701	7.9613851
162.617	197.3845995	8.0026358
162.619	197.3845995	8.0026358
162.584	197.2608474	8.0026358
169.584	198.3746163	8.0438865
169.589	198.415867	8.0438865
169.547	198.5396191	8.0851372
176.565	198.828374	8.0851372
176.573	198.8696247	8.0851372
176.533	198.8696247	8.0851372
183.536	199.6946387	8.1263879
183.542	199.6946387	8.1263879
183.499	199.6946387	8.1263879
190.508	200.4371513	8.1263879
190.511	200.478402	8.1263879
190.466	200.3959006	8.1263879
197.468	200.6846555	8.1676386
197.471	200.7671569	8.1676386
197.429	200.5609034	8.1263879
204.433	201.303416	8.1676386
204.437	201.3446667	8.1676386
204.394	201.1796639	8.1676386
211.379	201.7571737	8.2088893
211.392	201.5921709	8.2088893
211.34	201.6746723	8.2088893
218.335	201.9221765	8.2088893
218.34	201.9221765	8.2088893
218.295	201.7571737	8.2088893
225.307	202.2934328	8.25014
225.315	202.1696807	8.2088893
225.266	202.0871793	8.2088893
232.267	202.3346835	8.25014
232.278	202.2934328	8.25014
232.219	202.3759342	8.25014
239.235	202.0871793	8.2088893
239.235	202.0459286	8.2088893
239.174	202.0046779	8.2088893
246.195	202.0871793	8.2088893
246.195	202.0459286	8.2088893
246.14	201.8809258	8.2088893
253.148	202.12843	8.2088893
253.153	202.1696807	8.2088893
253.094	202.1696807	8.2088893
260.099	202.2521821	8.2088893
260.104	202.2934328	8.2088893
260.041	202.2521821	8.2088893
226.535	200.8496583	8.1676386
226.539	201.0146611	8.1676386
231.546	201.303416	8.2088893
231.556	201.2209146	8.2088893
236.562	201.3859174	8.1676386
236.575	201.4684188	8.1676386
241.577	201.6746723	8.2088893
241.605	201.2621653	8.1676386
246.514	201.5096695	8.1676386
246.524	201.9221765	8.2088893
251.634	202.0871793	8.2088893
251.639	202.0046779	8.2088893
256.545	202.2934328	8.2088893
256.557	202.1696807	8.2088893
261.553	202.2521821	8.2088893
261.571	202.12843	8.2088893

System: indium + tellurium; phases: Crystal of intercomponent compound 1
Fixed: Pressure, kPa = 100
Fixed: Mole fraction of indium = 0.542
Property: Specific heat capacity at constant pressure, J/K/kg (Crystal of intercomponent compound 1); method: Extra sensitive DSC
Temperature, K	Specific heat capacity at constant pressure, J/K/kg	uncertainty
266.179	203.9847115	7.9201344
270.004	203.9847115	7.9201344
275.001	204.4797199	7.9201344
279.997	204.8922269	7.9201344
284.997	205.1809818	7.9613851
289.996	205.5934888	7.9613851
294.996	206.0884972	7.9613851
299.996	206.5010042	8.0026358
304.995	207.078514	8.0026358
309.999	207.2847675	8.0438865
315.002	207.2847675	8.0438865
320.001	207.2847675	8.0438865
325	207.491021	8.0438865
328.563	207.6972745	8.0438865
332.564	209.0997983	8.0851372
335.168	209.4298039	8.1263879
336.904	209.3885532	8.1263879
339.508	209.3473025	8.1263879
342.11	209.3885532	8.1263879
344.715	209.1822997	8.0851372
347.318	209.0172969	8.0851372
349.922	208.7697927	8.0851372
352.526	208.3985364	8.0851372
355.129	208.4810378	8.0851372
357.733	208.2747843	8.0851372
358.601	208.1510322	8.0438865
