Measured thermophysical data. Density, sound speed and derived thermophysical properties of n-nonane at temperatures between (283.15 and 473.15)K and at pressures up to 390MPa
Source: J. Chem. Thermodyn., 2018, 10.1016/j.jct.2018.04.019
Compound 1: nonane, C9H20, InChI=1S/C9H20/c1-3-5-7-9-8-6-4-2/h3-9H2,1-2H3, purity 99.8%
Compound 2: toluene, C7H8, InChI=1S/C7H8/c1-7-5-3-2-4-6-7/h2-6H,1H3, purity 99.96%

System: nonane; phases: Liquid
Property: Mass density, kg/m3 (Liquid); method: Vibrating tube method
Temperature, K	Pressure, kPa	Mass density, kg/m3	uncertainty
283.15	1010	726.22	0.62
283.15	5040	729.17	0.63
283.15	10020	732.75	0.64
283.15	15020	736.14	0.66
283.15	20040	739.41	0.68
283.15	25020	742.54	0.7
283.15	30040	745.52	0.72
283.15	35050	748.45	0.74
283.15	40010	751.23	0.77
283.15	45050	753.99	0.79
283.15	50010	756.62	0.81
283.15	55020	759.19	0.84
283.15	60030	761.66	0.87
283.15	65010	764.08	0.89
283.15	5020	729.22	0.63
298.15	1020	714.83	0.62
298.15	5010	718.08	0.63
298.15	10030	721.94	0.65
298.15	15060	725.7	0.66
298.15	20040	729.17	0.68
298.15	25040	732.54	0.7
298.15	30010	735.76	0.73
298.15	35050	738.87	0.75
298.15	40010	741.88	0.78
298.15	45060	744.79	0.8
298.15	50010	747.56	0.83
298.15	55040	750.31	0.85
298.15	60020	752.92	0.88
298.15	65010	755.48	0.91
298.15	5040	718.12	0.63
323.15	1030	695.27	0.62
323.15	5030	699.04	0.63
323.15	10050	703.57	0.65
323.15	15020	707.81	0.67
323.15	20050	711.84	0.69
323.15	25020	715.63	0.72
323.15	30020	719.22	0.74
323.15	35080	722.75	0.77
323.15	40050	726.09	0.79
323.15	45060	729.27	0.82
323.15	50030	732.36	0.85
323.15	55050	735.35	0.88
323.15	60010	738.19	0.91
323.15	65010	741.02	0.94
323.15	5060	699.09	0.63
348.15	1010	675.18	0.63
348.15	5040	679.76	0.64
348.15	10030	685	0.66
348.15	15020	689.84	0.68
348.15	20040	694.44	0.7
348.15	25050	698.79	0.73
348.15	30030	702.84	0.75
348.15	35050	706.74	0.78
348.15	40020	710.4	0.81
348.15	45070	714.01	0.84
348.15	50040	717.37	0.87
348.15	55050	720.67	0.9
348.15	60000	723.79	0.94
348.15	65040	726.84	0.97
348.15	5030	679.76	0.64
373.15	1010	654.52	0.63
373.15	5050	659.99	0.64
373.15	10030	666.13	0.66
373.15	15070	671.78	0.69
373.15	20030	677.04	0.71
373.15	25060	681.94	0.74
373.15	30040	686.51	0.77
373.15	35060	690.83	0.8
373.15	40020	694.95	0.83
373.15	45070	698.87	0.86
373.15	50070	702.65	0.9
373.15	55060	706.23	0.93
373.15	60040	709.66	0.96
373.15	65030	712.95	1
373.15	5050	659.99	0.64
398.15	1020	633.06	0.64
398.15	5020	639.53	0.65
398.15	10050	646.89	0.67
398.15	15070	653.53	0.7
398.15	20020	659.49	0.72
398.15	25030	665.05	0.75
398.15	30050	670.22	0.78
398.15	35050	675.1	0.82
398.15	40020	679.63	0.85
398.15	45070	683.97	0.89
398.15	50020	688.07	0.92
398.15	55040	692.01	0.96
398.15	60030	695.72	0.99
398.15	65040	699.37	1.03
398.15	5030	639.58	0.65
423.15	1020	610.45	0.65
423.15	5030	618.42	0.66
423.15	10030	627.15	0.68
423.15	15030	634.86	0.71
423.15	20040	641.8	0.74
423.15	25040	648.1	0.77
423.15	30020	653.92	0.8
423.15	35050	659.35	0.84
423.15	40020	664.4	0.87
423.15	45020	669.15	0.91
423.15	50040	673.7	0.95
423.15	55020	677.97	0.98
423.15	60030	682.03	1.02
423.15	65040	685.95	1.06
423.15	5030	618.47	0.66
448.15	1000	586.37	0.66
448.15	5020	596.41	0.67
448.15	10040	607.05	0.69
448.15	15010	616.06	0.72
448.15	20010	624	0.75
448.15	25040	631.27	0.79
448.15	30030	637.78	0.82
448.15	35030	643.8	0.86
448.15	40010	649.38	0.9
448.15	45050	654.67	0.93
448.15	50020	659.58	0.97
448.15	55040	664.24	1.01
448.15	60030	668.62	1.05
448.15	65020	672.85	1.09
448.15	5020	596.46	0.67
473.15	5010	573.14	0.69
473.15	10040	586.15	0.71
473.15	15040	596.86	0.74
473.15	20020	606.05	0.77
473.15	25050	614.28	0.81
473.15	30020	621.6	0.84
473.15	35030	628.3	0.88
473.15	40050	634.51	0.92
473.15	45050	640.25	0.96
473.15	50040	645.6	1
473.15	55020	650.62	1.04
473.15	60010	655.39	1.08
473.15	65010	659.92	1.13
473.15	5010	573.14	0.69

System: nonane; phases: Liquid
Fixed: Frequency, MHz = 5
Property: Speed of sound, m/s (Liquid); method: Pulse-echo method
Temperature, K	Pressure, kPa	Speed of sound, m/s	uncertainty
283.13	1090	1273.92	1.77
283.13	30100	1432.4	1.84
283.13	59970	1563.71	1.89
283.13	90370	1676.83	1.96
283.13	120250	1774.65	2.07
283.13	149990	1862.22	2.17
283.13	180130	1943.2	2.28
283.13	210070	2017.34	2.37
283.13	240000	2086.26	2.47
283.13	270320	2151.85	2.55
283.13	300010	2212.51	2.64
283.13	330300	2271.03	2.72
283.13	360220	2325.98	2.79
283.13	389880	2378.05	2.87
283.13	1090	1273.92	1.77
298.15	1040	1212.57	1.77
298.15	30040	1380.17	1.81
298.15	60130	1517.95	1.86
298.15	90110	1633.44	1.93
298.15	120200	1734.73	2.03
298.15	150120	1824.93	2.14
298.15	180370	1907.9	2.25
298.15	210410	1983.68	2.35
298.15	240020	2053.12	2.44
298.15	270230	2119.62	2.53
298.15	300100	2181.4	2.61
298.15	330260	2240.53	2.69
298.15	360030	2295.97	2.77
298.15	390030	2349.18	2.84
298.15	1040	1212.57	1.77
323.14	1020	1112.35	1.77
323.14	30050	1297.76	1.79
323.14	60210	1445.17	1.81
323.14	90150	1566.72	1.88
323.14	120240	1672.31	1.98
323.14	150130	1765.55	2.08
323.14	179980	1850.08	2.2
323.14	210410	1929.2	2.31
323.14	239980	2000.37	2.4
323.14	270330	2068.72	2.49
323.14	300070	2131.55	2.58
323.14	330050	2191.32	2.65
323.14	360040	2247.86	2.73
323.14	390060	2301.72	2.81
323.14	1020	1112.35	1.77
348.14	1060	1018.06	1.79
348.14	30150	1220.84	1.77
348.14	59870	1375.25	1.76
348.14	90060	1503.76	1.83
348.14	120210	1613.8	1.93
348.14	150180	1710.39	2.05
348.14	180310	1798.07	2.16
348.14	210230	1877.75	2.26
348.14	240360	1951.75	2.36
348.14	269990	2019.19	2.45
348.14	300420	2084.34	2.54
348.14	330170	2144.47	2.62
348.14	360170	2202.19	2.69
348.14	390070	2256.51	2.77
348.14	1040	1017.24	1.79
373.14	1020	924.94	1.85
373.14	30120	1147.94	1.77
373.14	60040	1312.4	1.73
373.14	90420	1446.98	1.78
373.14	120190	1559.47	1.89
373.14	150200	1659.02	2
373.14	180540	1749.05	2.12
373.14	210010	1829.26	2.22
373.14	240370	1905.46	2.32
373.14	270130	1974.68	2.41
373.14	300130	2040.35	2.5
373.14	330240	2102.26	2.58
373.14	360090	2160.06	2.65
373.14	389860	2212.89	2.74
373.14	1020	924.94	1.85
398.14	1100	835.44	1.95
398.14	30140	1079.8	1.78
398.14	60240	1254.06	1.7
398.14	90220	1391.91	1.75
398.14	120200	1508.49	1.84
398.14	150150	1610.25	1.96
398.14	180170	1701.67	2.08
398.14	210020	1784.32	2.19
398.14	240150	1861.34	2.29
398.14	270210	1933.08	2.39
398.14	299860	1999.64	2.47
398.14	330010	2063.66	2.56
398.14	360010	2123.99	2.64
398.14	389950	2182.15	2.71
398.14	1100	835.46	1.95
423.14	1110	747.67	2.09
423.14	29690	1013.62	1.81
423.14	60210	1199.1	1.68
423.14	90050	1341.02	1.71
423.14	120570	1462.66	1.81
423.14	150110	1565.38	1.92
423.14	180160	1658.79	2.05
423.14	210180	1744.05	2.16
423.14	239990	1822.32	2.26
423.14	270120	1895.69	2.35
423.14	299980	1964.43	2.44
423.14	330040	2029.42	2.53
423.14	360020	2089.73	2.6
423.14	389720	2146.05	2.69
423.14	1120	747.72	2.09
448.15	1040	660.9	2.3
448.15	30440	960.29	1.86
448.15	60490	1150.48	1.66
448.15	90220	1295.98	1.68
448.15	120320	1418.8	1.77
448.15	150280	1525.01	1.9
448.15	180150	1619.38	2.02
448.15	209900	1704.89	2.12
448.15	239920	1784.34	2.23
448.15	270080	1858.36	2.33
448.15	299830	1929.76	2.43
448.15	330050	1995.92	2.51
448.15	359980	2059.17	2.58
448.15	390310	2115.06	2.65
473.15	1010	574.55	2.59
473.15	30430	906.04	1.92
473.15	60390	1104.62	1.65
473.15	90200	1255.37	1.66
473.15	120100	1381.03	1.75
473.15	150230	1490.59	1.87
473.15	180260	1587.61	1.99
473.15	210230	1675.78	2.1
473.15	240070	1755.44	2.21
473.15	270130	1830.79	2.31
473.15	300080	1901.86	2.4
473.15	330030	1964.77	2.47
473.15	360070	2026.31	2.56
473.15	390060	2083.97	2.64

System: toluene; phases: Liquid
Property: Mass density, kg/m3 (Liquid); method: Vibrating tube method
Temperature, K	Pressure, kPa	Mass density, kg/m3	uncertainty
283.16	1020	876.55	0.61
283.16	5010	879.36	0.61
283.16	10030	882.78	0.61
283.16	15050	886.11	0.62
283.16	20080	889.23	0.62
283.16	25060	892.35	0.62
283.16	30040	895.27	0.63
283.16	35080	898.24	0.63
283.16	40060	901.05	0.64
283.16	45050	903.77	0.64
283.16	50010	906.43	0.64
283.16	55060	909.09	0.65
283.16	60030	911.65	0.65
283.16	65050	914.15	0.65
298.15	1040	862.88	0.61
298.15	5040	865.93	0.61
298.15	10030	869.6	0.61
298.15	15050	873.21	0.62
298.15	20040	876.63	0.62
298.15	25050	879.93	0.63
298.15	30060	883.14	0.63
298.15	35020	886.25	0.64
298.15	40040	889.26	0.64
298.15	45070	892.2	0.65
298.15	50040	895.06	0.65
298.15	55040	897.86	0.66
298.15	60030	900.56	0.66
298.15	65020	903.2	0.67
323.15	1050	839.46	0.61
323.15	5050	843.04	0.61
323.15	10030	847.29	0.62
323.15	15010	851.38	0.62
323.15	20010	855.27	0.63
323.15	25060	859.05	0.64
323.15	30080	862.69	0.64
323.15	35020	866.13	0.65
323.15	40010	869.52	0.66
323.15	45060	872.84	0.66
323.15	50010	875.93	0.67
323.15	55010	879.01	0.68
323.15	60050	882.04	0.68
323.15	65030	884.91	0.69
348.15	1060	815.55	0.61
348.15	5070	819.75	0.62
348.15	10010	824.67	0.62
348.15	15030	829.43	0.63
348.15	20030	833.88	0.64
348.15	25020	838.2	0.64
348.15	30080	842.3	0.65
348.15	35050	846.21	0.66
348.15	40050	849.97	0.67
348.15	45070	853.63	0.68
348.15	50020	857.09	0.69
348.15	55060	860.49	0.7
348.15	60040	863.8	0.7
348.15	65070	867	0.71
373.15	1050	790.86	0.61
373.15	5020	795.87	0.62
373.15	10040	801.74	0.63
373.15	15040	807.26	0.63
373.15	20030	812.38	0.64
373.15	25080	817.35	0.65
373.15	30070	821.93	0.66
373.15	35040	826.36	0.68
373.15	40040	830.59	0.69
373.15	45030	834.57	0.7
373.15	50040	838.5	0.71
373.15	55040	842.23	0.72
373.15	60010	845.81	0.73
398.15	1070	765.25	0.62
398.15	5030	771.26	0.62
398.15	10040	778.22	0.63
398.15	15080	784.74	0.64
398.15	20010	790.62	0.65
398.15	25050	796.25	0.67
398.15	30040	801.49	0.68
398.15	35040	806.48	0.69
398.15	40020	811.17	0.7
398.15	45040	815.71	0.72
398.15	50020	819.96	0.73
398.15	55040	824.15	0.74
398.15	60020	828.11	0.75
398.15	65080	831.99	0.77
423.15	1050	738.06	0.62
423.15	5030	745.45	0.63
423.15	10060	753.93	0.64
423.15	15030	761.54	0.65
423.15	20000	768.41	0.66
423.15	25020	774.89	0.68
423.15	30020	780.87	0.69
423.15	35060	786.56	0.71
423.15	40020	791.82	0.72
423.15	45040	796.87	0.74
423.15	50040	801.63	0.75
423.15	55060	806.24	0.77
423.15	60040	810.55	0.78
423.15	65050	814.77	0.8
448.15	1040	708.96	0.63
448.15	5070	718.48	0.63
448.15	10040	728.71	0.65
448.15	15070	737.86	0.66
448.15	20050	745.94	0.68
448.15	25050	753.39	0.69
448.15	30040	760.21	0.71
448.15	35040	766.59	0.73
448.15	40020	772.48	0.75
448.15	45030	778.13	0.76
448.15	50030	783.39	0.78
448.15	55060	788.44	0.8
448.15	60010	793.17	0.81
448.15	65060	797.83	0.83
473.15	1030	676.8	0.63
473.15	5050	689.34	0.64
473.15	10050	702.19	0.66
473.15	15060	713.2	0.68
473.15	20020	722.73	0.69
473.15	25040	731.39	0.71
473.15	30010	739.18	0.73
473.15	35040	746.42	0.75
473.15	40050	753.09	0.77
473.15	45060	759.38	0.79
473.15	50050	765.18	0.81
473.15	55020	770.69	0.83
473.15	60030	775.95	0.85
473.15	65020	780.92	0.87
