Measured thermophysical data. Thermodynamics of 1-alkanol + linear polyether mixtures
Source: J. Chem. Thermodyn., 2013, 10.1016/j.jct.2012.12.007
Compound 1: diethylene glycol diethyl ether, C8H18O3, InChI=1S/C8H18O3/c1-3-9-5-7-11-8-6-10-4-2/h3-8H2,1-2H3, purity 99%
Compound 2: methanol, CH4O, InChI=1S/CH4O/c1-2/h2H,1H3, purity 99.8%
Compound 3: butan-1-ol, C4H10O, InChI=1S/C4H10O/c1-2-3-4-5/h5H,2-4H2,1H3, purity 99.7%
Compound 4: decan-1-ol, C10H22O, InChI=1S/C10H22O/c1-2-3-4-5-6-7-8-9-10-11/h11H,2-10H2,1H3, purity 99%

System: diethylene glycol diethyl ether; phases: Liquid
Fixed: Pressure, kPa = 101.325
Property: Mass density, kg/m3 (Liquid); method: Vibrating tube method
Temperature, K	Mass density, kg/m3	uncertainty
293.15	906.73	0.23
298.15	902.88	0.23
303.15	897.22	0.23

System: diethylene glycol diethyl ether; phases: Liquid
Fixed: Pressure, kPa = 101.325
Property: Speed of sound, m/s (Liquid); method: Sing-around technique in a fixed-path interferometer
Temperature, K	Speed of sound, m/s	uncertainty
293.15	1259.4	1.2
298.15	1239.9	1.2
303.15	1221.8	1.2

System: methanol; phases: Liquid
Fixed: Pressure, kPa = 101.325
Property: Mass density, kg/m3 (Liquid); method: Vibrating tube method
Temperature, K	Mass density, kg/m3	uncertainty
293.15	791.55	0.12
298.15	787.2	0.12
303.15	782.44	0.12

System: methanol; phases: Liquid
Fixed: Pressure, kPa = 101.325
Property: Speed of sound, m/s (Liquid); method: Sing-around technique in a fixed-path interferometer
Temperature, K	Speed of sound, m/s	uncertainty
293.15	1118	1
298.15	1101.4	0.6
303.15	1086.6	0.6

System: butan-1-ol; phases: Liquid
Fixed: Pressure, kPa = 101.325
Property: Mass density, kg/m3 (Liquid); method: Vibrating tube method
Temperature, K	Mass density, kg/m3	uncertainty
293.15	809.89	0.12
298.15	806.47	0.12
303.15	802.22	0.12

System: butan-1-ol; phases: Liquid
Fixed: Pressure, kPa = 101.325
Property: Speed of sound, m/s (Liquid); method: Sing-around technique in a fixed-path interferometer
Temperature, K	Speed of sound, m/s	uncertainty
293.15	1256.2	0.7
298.15	1239.6	0.7
303.15	1223.8	0.7

System: decan-1-ol; phases: Liquid
Fixed: Pressure, kPa = 101.325
Property: Mass density, kg/m3 (Liquid); method: Vibrating tube method
Temperature, K	Mass density, kg/m3	uncertainty
293.15	829.95	0.24
298.15	826.95	0.24
303.15	823.15	0.24

System: decan-1-ol; phases: Liquid
Fixed: Pressure, kPa = 101.325
Property: Speed of sound, m/s (Liquid); method: Sing-around technique in a fixed-path interferometer
Temperature, K	Speed of sound, m/s	uncertainty
293.15	1397.1	1.2
298.15	1380.3	1.2
303.15	1364.1	1.2

System: methanol + diethylene glycol diethyl ether; phases: Liquid
Fixed: Pressure, kPa = 101.3
Property: Mass density, kg/m3 (Liquid); method: Vibrating tube method
Temperature, K	Mole fraction of methanol	Mass density, kg/m3	uncertainty
293.15	0.1141	904.9	0.2
293.15	0.1553	904.05	0.19
293.15	0.1987	903.07	0.18
293.15	0.249	901.79	0.17
293.15	0.2972	900.38	0.16
293.15	0.3651	898.01	0.15
293.15	0.3841	897.27	0.15
293.15	0.4206	895.72	0.14
293.15	0.4696	893.32	0.14
293.15	0.5133	890.89	0.13
293.15	0.5624	887.61	0.12
293.15	0.6126	883.69	0.12
293.15	0.6545	879.81	0.12
293.15	0.698	875.07	0.11
293.15	0.7575	867.11	0.11
293.15	0.8037	859.25	0.11
293.15	0.8469	850.24	0.12
293.15	0.9023	835.03	0.12
293.15	0.9467	818.74	0.13
298.15	0.1296	900	0.2
298.15	0.1589	899.4	0.19
298.15	0.1917	898.67	0.19
298.15	0.2627	896.83	0.17
298.15	0.2904	896.02	0.17
298.15	0.3505	894.01	0.16
298.15	0.3925	892.41	0.15
298.15	0.4241	891.01	0.14
298.15	0.4639	889.09	0.14
298.15	0.5181	886.01	0.13
298.15	0.5637	882.97	0.13
298.15	0.6132	879.12	0.12
298.15	0.6207	878.44	0.12
298.15	0.6959	870.83	0.11
298.15	0.7434	864.68	0.11
298.15	0.8007	855.37	0.11
298.15	0.8481	845.46	0.12
298.15	0.9005	831.08	0.13
298.15	0.9476	813.97	0.14
303.15	0.1058	895.27	0.21
303.15	0.1571	894.27	0.19
303.15	0.1991	893.31	0.19
303.15	0.2309	892.58	0.18
303.15	0.2886	890.89	0.17
303.15	0.3249	889.71	0.16
303.15	0.3748	887.88	0.15
303.15	0.4216	885.91	0.15
303.15	0.473	883.4	0.14
303.15	0.5164	880.9	0.13
303.15	0.5681	877.47	0.13
303.15	0.6092	874.33	0.12
303.15	0.6548	870.07	0.12
303.15	0.6984	865.35	0.12
303.15	0.7448	859.28	0.12
303.15	0.8012	849.99	0.12
303.15	0.8484	840.19	0.12
303.15	0.9007	825.94	0.13
303.15	0.9489	808.25	0.14

System: methanol + diethylene glycol diethyl ether; phases: Liquid
Fixed: Pressure, kPa = 101.3
Property: Speed of sound, m/s (Liquid); method: Sing-around technique in a fixed-path interferometer
Temperature, K	Mole fraction of methanol	Speed of sound, m/s	uncertainty
293.15	0.1141	1259.4	1.1
293.15	0.1553	1259.4	1.1
293.15	0.1987	1259.2	1.1
293.15	0.249	1258.6	1
293.15	0.2972	1257.7	1
293.15	0.3651	1255.9	1
293.15	0.3841	1255.2	0.9
293.15	0.4206	1253.7	0.9
293.15	0.4696	1251.3	0.9
293.15	0.5133	1248.6	0.9
293.15	0.5624	1244.7	0.8
293.15	0.6126	1240	0.8
293.15	0.6545	1235.1	0.8
293.15	0.698	1229	0.8
293.15	0.7575	1218.6	0.7
293.15	0.8037	1208.1	0.7
293.15	0.8469	1196	0.7
293.15	0.9023	1175.4	0.7
293.15	0.9467	1153.6	0.7
298.15	0.1296	1240	1.1
298.15	0.1589	1239.9	1.1
298.15	0.1917	1239.7	1.1
298.15	0.2627	1239	1
298.15	0.2904	1238.5	1
298.15	0.3505	1237.1	1
298.15	0.3925	1235.8	0.9
298.15	0.4241	1234.4	0.9
298.15	0.4639	1232.6	0.9
298.15	0.5181	1229.3	0.9
298.15	0.5637	1225.8	0.8
298.15	0.6132	1221.2	0.8
298.15	0.6207	1220.4	0.8
298.15	0.6959	1210.9	0.8
298.15	0.7434	1203	0.7
298.15	0.8007	1190.8	0.7
298.15	0.8481	1177.7	0.7
298.15	0.9005	1158.6	0.7
298.15	0.9476	1135.9	0.7
303.15	0.1058	1221.5	1.1
303.15	0.1571	1221.5	1.1
303.15	0.1991	1221.4	1.1
303.15	0.2309	1220.9	1
303.15	0.2886	1220.4	1
303.15	0.3249	1219.5	1
303.15	0.3748	1218.2	0.9
303.15	0.4216	1216.5	0.9
303.15	0.473	1214.1	0.9
303.15	0.5164	1211.5	0.9
303.15	0.5681	1207.7	0.8
303.15	0.6092	1204.1	0.8
303.15	0.6548	1199	0.8
303.15	0.6984	1193.3	0.8
303.15	0.7448	1185.6	0.7
303.15	0.8012	1173.9	0.7
303.15	0.8484	1161.1	0.7
303.15	0.9007	1142.6	0.7
303.15	0.9489	1119.6	0.6

System: butan-1-ol + diethylene glycol diethyl ether; phases: Liquid
Fixed: Pressure, kPa = 101.3
Property: Speed of sound, m/s (Liquid); method: Sing-around technique in a fixed-path interferometer
Temperature, K	Mole fraction of butan-1-ol	Speed of sound, m/s	uncertainty
293.15	0.1284	1262.2	1.1
293.15	0.2205	1263.3	1.1
293.15	0.319	1264.1	1
293.15	0.3623	1264.3	1
293.15	0.4157	1264.5	1
293.15	0.4529	1264.4	0.9
293.15	0.4963	1264.4	0.9
293.15	0.5481	1264.3	0.9
293.15	0.6523	1263.6	0.8
293.15	0.7018	1263.3	0.8
293.15	0.7934	1262.1	0.8
293.15	0.8942	1260.2	0.7
293.15	0.9397	1258.9	0.7
298.15	0.1245	1242.5	1.1
298.15	0.2149	1243.8	1.1
298.15	0.3175	1244.9	1
298.15	0.4078	1245.5	1
298.15	0.4543	1245.6	0.9
298.15	0.5047	1245.7	0.9
298.15	0.5543	1245.7	0.9
298.15	0.6137	1245.5	0.9
298.15	0.6973	1245.3	0.8
298.15	0.7951	1244.5	0.8
298.15	0.8466	1243.9	0.8
298.15	0.9449	1241.7	0.7
303.15	0.0738	1223.5	1.1
303.15	0.1419	1224.8	1.1
303.15	0.218	1225.9	1.1
303.15	0.302	1227	1
303.15	0.3764	1227.7	1
303.15	0.5002	1228.3	0.9
303.15	0.5541	1228.4	0.9
303.15	0.6056	1228.5	0.9
303.15	0.6997	1228.4	0.8
303.15	0.7961	1227.9	0.8
303.15	0.8493	1227.4	0.8
303.15	0.8896	1226.8	0.7
303.15	0.9431	1225.8	0.7

System: butan-1-ol + diethylene glycol diethyl ether; phases: Liquid
Fixed: Pressure, kPa = 101.3
Property: Mass density, kg/m3 (Liquid); method: Vibrating tube method
Temperature, K	Mole fraction of butan-1-ol	Mass density, kg/m3	uncertainty
293.15	0.1284	901.3	0.2
293.15	0.2205	896.11	0.19
293.15	0.319	889.85	0.17
293.15	0.3623	886.86	0.16
293.15	0.4157	882.92	0.16
293.15	0.4529	879.96	0.15
293.15	0.4963	876.35	0.15
293.15	0.5481	871.71	0.14
293.15	0.6523	861.3	0.13
293.15	0.7018	855.73	0.13
293.15	0.7934	844.15	0.12
293.15	0.8942	829.14	0.12
293.15	0.9397	821.36	0.12
298.15	0.1245	896.77	0.2
298.15	0.2149	891.76	0.19
298.15	0.3175	885.38	0.17
298.15	0.4078	879	0.16
298.15	0.4543	875.4	0.15
298.15	0.5047	871.25	0.15
298.15	0.5543	866.84	0.14
298.15	0.6137	861.13	0.14
298.15	0.6973	852.18	0.13
298.15	0.7951	840.07	0.12
298.15	0.8466	832.8	0.12
298.15	0.9449	816.86	0.12
303.15	0.0738	894.47	0.22
303.15	0.1419	890.96	0.2
303.15	0.218	886.73	0.19
303.15	0.302	881.57	0.17
303.15	0.3764	876.51	0.16
303.15	0.5002	866.9	0.15
303.15	0.5541	862.16	0.14
303.15	0.6056	857.29	0.14
303.15	0.6997	847.32	0.13
303.15	0.7961	835.44	0.13
303.15	0.8493	827.96	0.13
303.15	0.8896	821.8	0.13
303.15	0.9431	812.86	0.12

System: decan-1-ol + diethylene glycol diethyl ether; phases: Liquid
Fixed: Pressure, kPa = 101.3
Property: Speed of sound, m/s (Liquid); method: Sing-around technique in a fixed-path interferometer
Temperature, K	Mole fraction of decan-1-ol	Speed of sound, m/s	uncertainty
293.15	0.0632	1267.1	1.2
293.15	0.1084	1272.6	1.2
293.15	0.2052	1284.5	1.2
293.15	0.294	1295.5	1.2
293.15	0.393	1308.1	1.2
293.15	0.4943	1321.4	1.2
293.15	0.543	1327.9	1.2
293.15	0.5932	1334.7	1.2
293.15	0.6872	1348.1	1.2
293.15	0.7863	1363	1.2
293.15	0.8872	1378.8	1.2
293.15	0.9441	1388.1	1.2
298.15	0.0605	1247.8	1.2
298.15	0.111	1254.1	1.2
298.15	0.1588	1260.1	1.2
298.15	0.2062	1266.1	1.2
298.15	0.302	1278.3	1.2
298.15	0.3947	1290.4	1.2
298.15	0.504	1305	1.2
298.15	0.592	1317.3	1.2
298.15	0.6553	1326.4	1.2
298.15	0.7443	1339.5	1.2
298.15	0.7923	1347	1.2
298.15	0.8362	1353.8	1.2
298.15	0.8836	1361.4	1.2
298.15	0.94	1370.4	1.2
303.15	0.0605	1229.6	1.2
303.15	0.1016	1234.8	1.2
303.15	0.154	1241.6	1.2
303.15	0.2064	1248.3	1.2
303.15	0.2953	1260	1.2
303.15	0.3846	1271.7	1.2
303.15	0.5006	1287.6	1.2
303.15	0.5369	1292.7	1.2
303.15	0.6486	1308.7	1.2
303.15	0.7409	1322.6	1.2
303.15	0.7915	1330.4	1.2
303.15	0.8318	1336.7	1.2
303.15	0.8856	1345.4	1.2
303.15	0.9364	1353.5	1.2

System: decan-1-ol + diethylene glycol diethyl ether; phases: Liquid
Fixed: Pressure, kPa = 101.3
Property: Mass density, kg/m3 (Liquid); method: Vibrating tube method
Temperature, K	Mole fraction of decan-1-ol	Mass density, kg/m3	uncertainty
293.15	0.0632	901.86	0.23
293.15	0.1084	897.94	0.23
293.15	0.2052	889.79	0.23
293.15	0.294	882.49	0.23
293.15	0.7863	844.92	0.23
293.15	0.8872	837.76	0.23
293.15	0.9441	833.82	0.23
293.15	0.393	874.57	0.23
293.15	0.4943	866.66	0.23
293.15	0.543	862.92	0.23
293.15	0.5932	859.11	0.23
293.15	0.6872	852.12	0.23
298.15	0.0605	897.98	0.23
298.15	0.111	893.68	0.23
298.15	0.1588	889.69	0.23
298.15	0.2062	885.79	0.23
298.15	0.302	878.08	0.23
298.15	0.3947	870.77	0.23
298.15	0.504	862.39	0.23
298.15	0.592	855.8	0.23
298.15	0.6553	851.16	0.23
298.15	0.7443	844.72	0.23
298.15	0.7923	841.32	0.23
298.15	0.8362	838.23	0.23
298.15	0.8836	834.93	0.23
298.15	0.94	831.05	0.23
303.15	0.0605	893	0.23
303.15	0.1016	889.54	0.23
303.15	0.154	885.23	0.23
303.15	0.2064	880.99	0.23
303.15	0.2953	873.94	0.23
303.15	0.3846	867.02	0.23
303.15	0.5006	858.29	0.23
303.15	0.5369	855.6	0.23
303.15	0.6486	847.46	0.23
303.15	0.7409	840.9	0.23
303.15	0.7915	837.36	0.23
303.15	0.8318	834.56	0.23
303.15	0.8856	830.89	0.23
303.15	0.9364	827.44	0.23
