Measured thermophysical data. Physicochemical study of intermolecular interactions in 1,4-dioxane + aromatic hydrocarbons binary mixtures at different temperatures by using ultrasonic and viscometric methods
Source: J. Chem. Thermodyn., 2017, 10.1016/j.jct.2017.01.016
Compound 1: 1,4-dioxane, C4H8O2, InChI=1S/C4H8O2/c1-2-6-4-3-5-1/h1-4H2, purity 99.5%
Compound 2: benzene, C6H6, InChI=1S/C6H6/c1-2-4-6-5-3-1/h1-6H, purity 99.5%
Compound 3: toluene, C7H8, InChI=1S/C7H8/c1-7-5-3-2-4-6-7/h2-6H,1H3, purity 99.5%
Compound 4: 1,2-dimethylbenzene, C8H10, InChI=1S/C8H10/c1-7-5-3-4-6-8(7)2/h3-6H,1-2H3, purity 99%
Compound 5: 1,3-dimethylbenzene, C8H10, InChI=1S/C8H10/c1-7-4-3-5-8(2)6-7/h3-6H,1-2H3, purity 99%
Compound 6: 1,4-dimethylbenzene, C8H10, InChI=1S/C8H10/c1-7-3-5-8(2)6-4-7/h3-6H,1-2H3, purity 99%
Compound 7: 1,3,5-trimethylbenzene, C9H12, InChI=1S/C9H12/c1-7-4-8(2)6-9(3)5-7/h4-6H,1-3H3, purity 99%

System: 1,4-dioxane; phases: Liquid
Fixed: Pressure, kPa = 101
Fixed: Frequency, MHz = 3
Property: Speed of sound, m/s (Liquid); method: Linear variable-path acoustic interferometer
Temperature, K	Speed of sound, m/s	uncertainty
293.15	1367.2	1.7
298.15	1344.7	1.7
303.15	1323.1	1.7
308.15	1301.2	1.7
313.15	1279.7	1.6
318.15	1258.6	1.6

System: 1,4-dioxane; phases: Liquid
Fixed: Pressure, kPa = 101
Property: Viscosity, Pa*s (Liquid); method: Capillary tube (Ostwald; Ubbelohde) method
Temperature, K	Viscosity, Pa*s	uncertainty
293.15	0.0013064	2.72e-05
298.15	0.0011948	2.49e-05
303.15	0.0010959	2.28e-05
308.15	0.0010145	2.11e-05
313.15	0.000945	1.97e-05
318.15	0.000884	1.84e-05

System: benzene; phases: Liquid
Fixed: Pressure, kPa = 101
Fixed: Frequency, MHz = 3
Property: Speed of sound, m/s (Liquid); method: Linear variable-path acoustic interferometer
Temperature, K	Speed of sound, m/s	uncertainty
293.15	1324.4	1.6
298.15	1299.5	1.6
303.15	1275.7	1.6
308.15	1252.4	1.6
313.15	1229.3	1.6
318.15	1207.8	1.6

System: benzene; phases: Liquid
Fixed: Pressure, kPa = 101
Property: Viscosity, Pa*s (Liquid); method: Capillary tube (Ostwald; Ubbelohde) method
Temperature, K	Viscosity, Pa*s	uncertainty
293.15	0.000647	1.35e-05
298.15	0.0006048	1.27e-05
303.15	0.0005672	1.19e-05
308.15	0.0005322	1.12e-05
313.15	0.000498	1.05e-05
318.15	0.0004672	9.8e-06

System: toluene; phases: Liquid
Fixed: Pressure, kPa = 101
Fixed: Frequency, MHz = 3
Property: Speed of sound, m/s (Liquid); method: Linear variable-path acoustic interferometer
Temperature, K	Speed of sound, m/s	uncertainty
293.15	1328.6	1.6
298.15	1307.3	1.6
303.15	1285.5	1.6
308.15	1264.2	1.6
313.15	1242.4	1.6
318.15	1220.7	1.6

System: toluene; phases: Liquid
Fixed: Pressure, kPa = 101
Property: Viscosity, Pa*s (Liquid); method: Capillary tube (Ostwald; Ubbelohde) method
Temperature, K	Viscosity, Pa*s	uncertainty
293.15	0.0005885	1.23e-05
298.15	0.0005541	1.16e-05
303.15	0.0005232	1.1e-05
308.15	0.000495	1.04e-05
313.15	0.0004662	9.8e-06
318.15	0.0004384	9.2e-06

System: 1,2-dimethylbenzene; phases: Liquid
Fixed: Pressure, kPa = 101
Fixed: Frequency, MHz = 3
Property: Speed of sound, m/s (Liquid); method: Linear variable-path acoustic interferometer
Temperature, K	Speed of sound, m/s	uncertainty
293.15	1367.7	1.7
298.15	1347.5	1.7
303.15	1329.4	1.7
308.15	1313.3	1.7
313.15	1298.5	1.6
318.15	1285.2	1.6

System: 1,2-dimethylbenzene; phases: Liquid
Fixed: Pressure, kPa = 101
Property: Viscosity, Pa*s (Liquid); method: Capillary tube (Ostwald; Ubbelohde) method
Temperature, K	Viscosity, Pa*s	uncertainty
293.15	0.0008066	1.68e-05
298.15	0.0007576	1.58e-05
303.15	0.0007132	1.49e-05
308.15	0.000669	1.4e-05
313.15	0.0006315	1.32e-05
318.15	0.0005972	1.25e-05

System: 1,3-dimethylbenzene; phases: Liquid
Fixed: Pressure, kPa = 101
Fixed: Frequency, MHz = 3
Property: Speed of sound, m/s (Liquid); method: Linear variable-path acoustic interferometer
Temperature, K	Speed of sound, m/s	uncertainty
293.15	1346.7	1.7
298.15	1323.6	1.7
303.15	1302.4	1.7
308.15	1282.3	1.6
313.15	1262.3	1.6
318.15	1243	1.6

System: 1,3-dimethylbenzene; phases: Liquid
Fixed: Pressure, kPa = 101
Property: Viscosity, Pa*s (Liquid); method: Capillary tube (Ostwald; Ubbelohde) method
Temperature, K	Viscosity, Pa*s	uncertainty
293.15	0.0006184	1.3e-05
298.15	0.000584	1.23e-05
303.15	0.0005517	1.16e-05
308.15	0.0005229	1.1e-05
313.15	0.0004938	1.04e-05
318.15	0.000468	9.9e-06

System: 1,4-dimethylbenzene; phases: Liquid
Fixed: Pressure, kPa = 101
Fixed: Frequency, MHz = 3
Property: Speed of sound, m/s (Liquid); method: Linear variable-path acoustic interferometer
Temperature, K	Speed of sound, m/s	uncertainty
293.15	1328.4	1.7
298.15	1307.4	1.7
303.15	1287.3	1.6
308.15	1267.6	1.6
313.15	1248.3	1.6
318.15	1229.8	1.6

System: 1,4-dimethylbenzene; phases: Liquid
Fixed: Pressure, kPa = 101
Property: Viscosity, Pa*s (Liquid); method: Capillary tube (Ostwald; Ubbelohde) method
Temperature, K	Viscosity, Pa*s	uncertainty
293.15	0.0006505	1.36e-05
298.15	0.0006115	1.28e-05
303.15	0.0005766	1.21e-05
308.15	0.000544	1.14e-05
313.15	0.0005132	1.08e-05
318.15	0.0004862	1.02e-05

System: 1,3,5-trimethylbenzene; phases: Liquid
Fixed: Pressure, kPa = 101
Fixed: Frequency, MHz = 3
Property: Speed of sound, m/s (Liquid); method: Linear variable-path acoustic interferometer
Temperature, K	Speed of sound, m/s	uncertainty
293.15	1360.4	1.7
298.15	1339.8	1.7
303.15	1319.6	1.7
308.15	1300.2	1.7
313.15	1280.4	1.7
318.15	1263	1.7

System: 1,3,5-trimethylbenzene; phases: Liquid
Fixed: Pressure, kPa = 101
Property: Viscosity, Pa*s (Liquid); method: Capillary tube (Ostwald; Ubbelohde) method
Temperature, K	Viscosity, Pa*s	uncertainty
293.15	0.0007056	1.48e-05
298.15	0.0006592	1.39e-05
303.15	0.0006188	1.3e-05
308.15	0.0005792	1.22e-05
313.15	0.0005422	1.14e-05
318.15	0.0005066	1.07e-05

System: benzene + 1,4-dioxane; phases: Liquid
Fixed: Pressure, kPa = 101
Fixed: Frequency, MHz = 3
Property: Speed of sound, m/s (Liquid); method: Linear variable-path acoustic interferometer
Temperature, K	Mole fraction of 1,4-dioxane	Speed of sound, m/s	uncertainty
293.15	0	1324.4	1.6
293.15	0.0713	1329.8	1.7
293.15	0.1403	1334.5	1.7
293.15	0.2123	1339.4	1.7
293.15	0.2809	1343.6	1.7
293.15	0.3528	1347.9	1.7
293.15	0.4195	1351.5	1.7
293.15	0.5037	1355.8	1.7
293.15	0.58	1359.2	1.7
293.15	0.6504	1362.2	1.7
293.15	0.7197	1364.2	1.7
293.15	0.7822	1365.4	1.7
293.15	0.8561	1366.9	1.7
293.15	0.9287	1367.4	1.7
293.15	1	1367.2	1.7
298.15	0	1299.5	1.6
298.15	0.0713	1304	1.6
298.15	0.1403	1308.1	1.6
298.15	0.2123	1312.5	1.6
298.15	0.2809	1316.5	1.6
298.15	0.3528	1320.5	1.7
298.15	0.4195	1324	1.7
298.15	0.5037	1328.2	1.7
298.15	0.58	1332	1.7
298.15	0.6504	1335.1	1.7
298.15	0.7197	1337.5	1.7
298.15	0.7822	1339.8	1.7
298.15	0.8561	1342	1.7
298.15	0.9287	1343.7	1.7
298.15	1	1344.7	1.7
303.15	0	1275.7	1.6
303.15	0.0713	1279.4	1.6
303.15	0.1403	1283	1.6
303.15	0.2123	1287	1.6
303.15	0.2809	1290.6	1.6
303.15	0.3528	1294.2	1.6
303.15	0.4195	1297.6	1.6
303.15	0.5037	1301.8	1.6
303.15	0.58	1305.7	1.6
303.15	0.6504	1309.2	1.6
303.15	0.7197	1312.3	1.7
303.15	0.7822	1315.1	1.7
303.15	0.8561	1318.2	1.7
303.15	0.9287	1320.8	1.7
303.15	1	1323.1	1.7
308.15	0	1252.4	1.6
308.15	0.0713	1255.4	1.6
308.15	0.1403	1258.7	1.6
308.15	0.2123	1262	1.6
308.15	0.2809	1265.1	1.6
308.15	0.3528	1268.7	1.6
308.15	0.4195	1272	1.6
308.15	0.5037	1276.1	1.6
308.15	0.58	1280.2	1.6
308.15	0.6504	1284	1.6
308.15	0.7197	1287.4	1.6
308.15	0.7822	1290.8	1.6
308.15	0.8561	1294.5	1.6
308.15	0.9287	1297.9	1.6
308.15	1	1301.2	1.7
313.15	0	1229.3	1.6
313.15	0.0713	1231.7	1.6
313.15	0.1403	1234.3	1.6
313.15	0.2123	1237.2	1.6
313.15	0.2809	1240.5	1.6
313.15	0.3528	1244	1.6
313.15	0.4195	1247.1	1.6
313.15	0.5037	1251.3	1.6
313.15	0.58	1255.5	1.6
313.15	0.6504	1259.4	1.6
313.15	0.7197	1263.5	1.6
313.15	0.7822	1266.8	1.6
313.15	0.8561	1271.2	1.6
313.15	0.9287	1275.3	1.6
313.15	1	1279.7	1.6
318.15	0	1207.8	1.6
318.15	0.0713	1209.6	1.6
318.15	0.1403	1211.9	1.6
318.15	0.2123	1214.5	1.6
318.15	0.2809	1217.2	1.6
318.15	0.3528	1220.5	1.6
318.15	0.4195	1223.6	1.6
318.15	0.5037	1227.9	1.6
318.15	0.58	1232.1	1.6
318.15	0.6504	1236	1.6
318.15	0.7197	1240.1	1.6
318.15	0.7822	1243.9	1.6
318.15	0.8561	1248.8	1.6
318.15	0.9287	1253.6	1.6
318.15	1	1258.6	1.6

System: benzene + 1,4-dioxane; phases: Liquid
Fixed: Pressure, kPa = 101
Property: Viscosity, Pa*s (Liquid); method: Capillary tube (Ostwald; Ubbelohde) method
Temperature, K	Mole fraction of 1,4-dioxane	Viscosity, Pa*s	uncertainty
293.15	0	0.000647	1.35e-05
293.15	0.0713	0.0006955	1.45e-05
293.15	0.1403	0.0007421	1.55e-05
293.15	0.2123	0.0007905	1.65e-05
293.15	0.2809	0.0008364	1.74e-05
293.15	0.3528	0.0008842	1.84e-05
293.15	0.4195	0.0009283	1.93e-05
293.15	0.5037	0.0009838	2.05e-05
293.15	0.58	0.0010338	2.15e-05
293.15	0.6504	0.0010798	2.25e-05
293.15	0.7197	0.0011249	2.34e-05
293.15	0.7822	0.0011655	2.42e-05
293.15	0.8561	0.0012134	2.52e-05
293.15	0.9287	0.0012603	2.62e-05
293.15	1	0.0013064	2.72e-05
298.15	0	0.0006048	1.27e-05
298.15	0.0713	0.0006485	1.36e-05
298.15	0.1403	0.0006905	1.44e-05
298.15	0.2123	0.0007339	1.53e-05
298.15	0.2809	0.000775	1.62e-05
298.15	0.3528	0.0008179	1.71e-05
298.15	0.4195	0.0008574	1.79e-05
298.15	0.5037	0.000907	1.89e-05
298.15	0.58	0.0009517	1.98e-05
298.15	0.6504	0.0009928	2.07e-05
298.15	0.7197	0.0010331	2.15e-05
298.15	0.7822	0.0010693	2.23e-05
298.15	0.8561	0.001112	2.31e-05
298.15	0.9287	0.0011538	2.4e-05
298.15	1	0.0011948	2.49e-05
303.15	0	0.0005672	1.19e-05
303.15	0.0713	0.0006068	1.27e-05
303.15	0.1403	0.0006446	1.35e-05
303.15	0.2123	0.0006836	1.43e-05
303.15	0.2809	0.0007206	1.51e-05
303.15	0.3528	0.0007591	1.58e-05
303.15	0.4195	0.0007946	1.66e-05
303.15	0.5037	0.000839	1.75e-05
303.15	0.58	0.000879	1.83e-05
303.15	0.6504	0.0009157	1.91e-05
303.15	0.7197	0.0009517	1.98e-05
303.15	0.7822	0.0009841	2.05e-05
303.15	0.8561	0.0010222	2.13e-05
303.15	0.9287	0.0010595	2.21e-05
303.15	1	0.0010959	2.28e-05
308.15	0	0.0005322	1.12e-05
308.15	0.0713	0.0005686	1.19e-05
308.15	0.1403	0.0006033	1.26e-05
308.15	0.2123	0.0006392	1.34e-05
308.15	0.2809	0.000673	1.41e-05
308.15	0.3528	0.0007082	1.48e-05
308.15	0.4195	0.0007406	1.55e-05
308.15	0.5037	0.0007812	1.63e-05
308.15	0.58	0.0008176	1.71e-05
308.15	0.6504	0.000851	1.77e-05
308.15	0.7197	0.0008837	1.84e-05
308.15	0.7822	0.0009131	1.9e-05
308.15	0.8561	0.0009477	1.97e-05
308.15	0.9287	0.0009815	2.04e-05
308.15	1	0.0010145	2.11e-05
313.15	0	0.000498	1.05e-05
313.15	0.0713	0.000532	1.12e-05
313.15	0.1403	0.0005644	1.18e-05
313.15	0.2123	0.0005979	1.25e-05
313.15	0.2809	0.0006294	1.32e-05
313.15	0.3528	0.0006621	1.38e-05
313.15	0.4195	0.0006921	1.45e-05
313.15	0.5037	0.0007297	1.52e-05
313.15	0.58	0.0007634	1.59e-05
313.15	0.6504	0.0007943	1.66e-05
313.15	0.7197	0.0008245	1.72e-05
313.15	0.7822	0.0008516	1.78e-05
313.15	0.8561	0.0008835	1.84e-05
313.15	0.9287	0.0009146	1.91e-05
313.15	1	0.000945	1.97e-05
318.15	0	0.0004672	9.8e-06
318.15	0.0713	0.0004993	1.05e-05
318.15	0.1403	0.0005297	1.11e-05
318.15	0.2123	0.0005611	1.18e-05
318.15	0.2809	0.0005906	1.24e-05
318.15	0.3528	0.0006211	1.3e-05
318.15	0.4195	0.0006492	1.36e-05
318.15	0.5037	0.0006842	1.43e-05
318.15	0.58	0.0007156	1.5e-05
318.15	0.6504	0.0007443	1.55e-05
318.15	0.7197	0.0007724	1.61e-05
318.15	0.7822	0.0007975	1.66e-05
318.15	0.8561	0.0008271	1.73e-05
318.15	0.9287	0.0008559	1.79e-05
318.15	1	0.000884	1.84e-05

System: toluene + 1,4-dioxane; phases: Liquid
Fixed: Pressure, kPa = 101
Fixed: Frequency, MHz = 3
Property: Speed of sound, m/s (Liquid); method: Linear variable-path acoustic interferometer
Temperature, K	Mole fraction of 1,4-dioxane	Speed of sound, m/s	uncertainty
293.15	0	1328.6	1.6
293.15	0.0688	1330.1	1.7
293.15	0.1373	1331.5	1.7
293.15	0.2112	1333	1.7
293.15	0.2858	1334.8	1.7
293.15	0.3552	1336.5	1.7
293.15	0.4361	1338.6	1.7
293.15	0.5064	1340.7	1.7
293.15	0.5819	1343.2	1.7
293.15	0.6506	1346	1.7
293.15	0.7212	1349.1	1.7
293.15	0.7903	1352.5	1.7
293.15	0.864	1356.9	1.7
293.15	0.9336	1361.8	1.7
293.15	1	1367.2	1.7
298.15	0	1307.3	1.6
298.15	0.0688	1308.4	1.6
298.15	0.1373	1309.5	1.6
298.15	0.2112	1310.9	1.6
298.15	0.2858	1312.4	1.6
298.15	0.3552	1313.9	1.6
298.15	0.4361	1315.9	1.6
298.15	0.5064	1317.9	1.7
298.15	0.5819	1320.4	1.7
298.15	0.6506	1323.2	1.7
298.15	0.7212	1326.3	1.7
298.15	0.7903	1329.8	1.7
298.15	0.864	1334.2	1.7
298.15	0.9336	1339.1	1.7
298.15	1	1344.7	1.7
303.15	0	1285.5	1.6
303.15	0.0688	1286.3	1.6
303.15	0.1373	1287.2	1.6
303.15	0.2112	1288.4	1.6
303.15	0.2858	1289.7	1.6
303.15	0.3552	1291.2	1.6
303.15	0.4361	1293.2	1.6
303.15	0.5064	1295.2	1.6
303.15	0.5819	1297.8	1.6
303.15	0.6506	1300.6	1.6
303.15	0.7212	1303.9	1.6
303.15	0.7903	1307.5	1.7
303.15	0.864	1312.2	1.7
303.15	0.9336	1317.3	1.7
303.15	1	1323.1	1.7
308.15	0	1264.2	1.6
308.15	0.0688	1264.8	1.6
308.15	0.1373	1265.5	1.6
308.15	0.2112	1266.5	1.6
308.15	0.2858	1267.7	1.6
308.15	0.3552	1269	1.6
308.15	0.4361	1270.9	1.6
308.15	0.5064	1272.9	1.6
308.15	0.5819	1275.4	1.6
308.15	0.6506	1278.2	1.6
308.15	0.7212	1281.6	1.6
308.15	0.7903	1285.3	1.6
308.15	0.864	1290.1	1.6
308.15	0.9336	1295.3	1.6
308.15	1	1301.2	1.7
313.15	0	1242.4	1.6
313.15	0.0688	1242.8	1.6
313.15	0.1373	1243.4	1.6
313.15	0.2112	1244.3	1.6
313.15	0.2858	1245.4	1.6
313.15	0.3552	1246.7	1.6
313.15	0.4361	1248.6	1.6
313.15	0.5064	1250.6	1.6
313.15	0.5819	1253.2	1.6
313.15	0.6506	1256	1.6
313.15	0.7212	1259.4	1.6
313.15	0.7903	1263.3	1.6
313.15	0.864	1268.2	1.6
313.15	0.9336	1273.6	1.6
313.15	1	1279.7	1.6
318.15	0	1220.7	1.6
318.15	0.0688	1221	1.6
318.15	0.1373	1221.5	1.6
318.15	0.2112	1222.3	1.6
318.15	0.2858	1223.3	1.6
318.15	0.3552	1224.6	1.6
318.15	0.4361	1226.5	1.6
318.15	0.5064	1228.6	1.6
318.15	0.5819	1231.2	1.6
318.15	0.6506	1234.1	1.6
318.15	0.7212	1237.6	1.6
318.15	0.7903	1241.6	1.6
318.15	0.864	1246.7	1.6
318.15	0.9336	1252.3	1.6
318.15	1	1258.6	1.6

System: toluene + 1,4-dioxane; phases: Liquid
Fixed: Pressure, kPa = 101
Property: Viscosity, Pa*s (Liquid); method: Capillary tube (Ostwald; Ubbelohde) method
Temperature, K	Mole fraction of 1,4-dioxane	Viscosity, Pa*s	uncertainty
293.15	0	0.0005885	1.23e-05
293.15	0.0688	0.0006346	1.33e-05
293.15	0.1373	0.0006812	1.42e-05
293.15	0.2112	0.000732	1.53e-05
293.15	0.2858	0.000784	1.64e-05
293.15	0.3552	0.0008327	1.74e-05
293.15	0.4361	0.0008901	1.85e-05
293.15	0.5064	0.0009405	1.96e-05
293.15	0.5819	0.0009951	2.07e-05
293.15	0.6506	0.0010452	2.18e-05
293.15	0.7212	0.0010971	2.28e-05
293.15	0.7903	0.0011483	2.39e-05
293.15	0.864	0.0012034	2.5e-05
293.15	0.9336	0.0012558	2.61e-05
293.15	1	0.0013064	2.72e-05
298.15	0	0.0005541	1.16e-05
298.15	0.0688	0.0005952	1.25e-05
298.15	0.1373	0.0006366	1.33e-05
298.15	0.2112	0.000682	1.43e-05
298.15	0.2858	0.0007282	1.52e-05
298.15	0.3552	0.0007716	1.61e-05
298.15	0.4361	0.0008229	1.72e-05
298.15	0.5064	0.0008679	1.81e-05
298.15	0.5819	0.0009166	1.91e-05
298.15	0.6506	0.0009613	2e-05
298.15	0.7212	0.0010077	2.1e-05
298.15	0.7903	0.0010535	2.19e-05
298.15	0.864	0.0011028	2.3e-05
298.15	0.9336	0.0011497	2.39e-05
298.15	1	0.0011948	2.49e-05
303.15	0	0.0005232	1.1e-05
303.15	0.0688	0.00056	1.17e-05
303.15	0.1373	0.000597	1.25e-05
303.15	0.2112	0.0006373	1.33e-05
303.15	0.2858	0.0006785	1.42e-05
303.15	0.3552	0.0007173	1.5e-05
303.15	0.4361	0.0007631	1.59e-05
303.15	0.5064	0.0008033	1.68e-05
303.15	0.5819	0.0008469	1.77e-05
303.15	0.6506	0.000887	1.85e-05
303.15	0.7212	0.0009286	1.94e-05
303.15	0.7903	0.0009696	2.02e-05
303.15	0.864	0.0010137	2.11e-05
303.15	0.9336	0.0010556	2.2e-05
303.15	1	0.0010959	2.28e-05
308.15	0	0.000495	1.04e-05
308.15	0.0688	0.0005284	1.11e-05
308.15	0.1373	0.0005619	1.18e-05
308.15	0.2112	0.0005984	1.25e-05
308.15	0.2858	0.0006357	1.33e-05
308.15	0.3552	0.0006709	1.4e-05
308.15	0.4361	0.0007124	1.49e-05
308.15	0.5064	0.0007489	1.56e-05
308.15	0.5819	0.0007885	1.65e-05
308.15	0.6506	0.0008249	1.72e-05
308.15	0.7212	0.0008627	1.8e-05
308.15	0.7903	0.0008998	1.88e-05
308.15	0.864	0.0009399	1.96e-05
308.15	0.9336	0.000978	2.04e-05
308.15	1	0.0010145	2.11e-05
313.15	0	0.0004662	9.8e-06
313.15	0.0688	0.0004969	1.04e-05
313.15	0.1373	0.0005278	1.11e-05
313.15	0.2112	0.0005615	1.18e-05
313.15	0.2858	0.000596	1.25e-05
313.15	0.3552	0.0006284	1.32e-05
313.15	0.4361	0.0006666	1.39e-05
313.15	0.5064	0.0007003	1.46e-05
313.15	0.5819	0.0007368	1.54e-05
313.15	0.6506	0.0007702	1.61e-05
313.15	0.7212	0.000805	1.68e-05
313.15	0.7903	0.0008393	1.75e-05
313.15	0.864	0.0008762	1.83e-05
313.15	0.9336	0.0009114	1.9e-05
313.15	1	0.000945	1.97e-05
318.15	0	0.0004384	9.2e-06
318.15	0.0688	0.000467	9.8e-06
318.15	0.1373	0.0004958	1.04e-05
318.15	0.2112	0.0005272	1.11e-05
318.15	0.2858	0.0005593	1.17e-05
318.15	0.3552	0.0005895	1.24e-05
318.15	0.4361	0.0006251	1.31e-05
318.15	0.5064	0.0006564	1.37e-05
318.15	0.5819	0.0006903	1.44e-05
318.15	0.6506	0.0007215	1.51e-05
318.15	0.7212	0.0007539	1.57e-05
318.15	0.7903	0.0007857	1.64e-05
318.15	0.864	0.00082	1.71e-05
318.15	0.9336	0.0008527	1.78e-05
318.15	1	0.000884	1.84e-05

System: 1,2-dimethylbenzene + 1,4-dioxane; phases: Liquid
Fixed: Pressure, kPa = 101
Fixed: Frequency, MHz = 3
Property: Speed of sound, m/s (Liquid); method: Linear variable-path acoustic interferometer
Temperature, K	Mole fraction of 1,4-dioxane	Speed of sound, m/s	uncertainty
293.15	0	1367.7	1.7
293.15	0.0672	1361.7	1.7
293.15	0.1391	1355.5	1.7
293.15	0.2103	1350	1.7
293.15	0.2853	1345.3	1.7
293.15	0.3543	1341.7	1.7
293.15	0.4293	1338.8	1.7
293.15	0.5092	1336.9	1.7
293.15	0.581	1336.5	1.7
293.15	0.6518	1337.4	1.7
293.15	0.7248	1339.8	1.7
293.15	0.7888	1343.5	1.7
293.15	0.8595	1349.3	1.7
293.15	0.9298	1357.1	1.7
293.15	1	1367.2	1.7
298.15	0	1347.5	1.7
298.15	0.0672	1341.5	1.7
298.15	0.1391	1335.1	1.7
298.15	0.2103	1329.6	1.7
298.15	0.2853	1324.8	1.7
298.15	0.3543	1321	1.7
298.15	0.4293	1317.9	1.7
298.15	0.5092	1315.9	1.7
298.15	0.581	1315.4	1.7
298.15	0.6518	1316.2	1.7
298.15	0.7248	1318.3	1.7
298.15	0.7888	1321.9	1.7
298.15	0.8595	1327.4	1.7
298.15	0.9298	1334.9	1.7
298.15	1	1344.7	1.7
303.15	0	1329.4	1.7
303.15	0.0672	1323	1.7
303.15	0.1391	1316.5	1.7
303.15	0.2103	1311	1.7
303.15	0.2853	1306	1.7
303.15	0.3543	1302	1.6
303.15	0.4293	1298.6	1.6
303.15	0.5092	1296.3	1.6
303.15	0.581	1295.5	1.6
303.15	0.6518	1296	1.6
303.15	0.7248	1298	1.6
303.15	0.7888	1301.3	1.6
303.15	0.8595	1306.5	1.7
303.15	0.9298	1313.7	1.7
303.15	1	1323.1	1.7
308.15	0	1313.3	1.7
308.15	0.0672	1306.3	1.7
308.15	0.1391	1299.9	1.6
308.15	0.2103	1293.9	1.6
308.15	0.2853	1288.5	1.6
308.15	0.3543	1284.3	1.6
308.15	0.4293	1280.4	1.6
308.15	0.5092	1277.8	1.6
308.15	0.581	1276.7	1.6
308.15	0.6518	1276.8	1.6
308.15	0.7248	1278.4	1.6
308.15	0.7888	1281.2	1.6
308.15	0.8595	1285.9	1.6
308.15	0.9298	1292.5	1.6
308.15	1	1301.2	1.7
313.15	0	1298.5	1.6
313.15	0.0672	1291	1.6
313.15	0.1391	1284	1.6
313.15	0.2103	1277.8	1.6
313.15	0.2853	1272.1	1.6
313.15	0.3543	1267.6	1.6
313.15	0.4293	1263.5	1.6
313.15	0.5092	1260.5	1.6
313.15	0.581	1259	1.6
313.15	0.6518	1258.6	1.6
313.15	0.7248	1259.6	1.6
313.15	0.7888	1262	1.6
313.15	0.8595	1266	1.6
313.15	0.9298	1271.8	1.6
313.15	1	1279.7	1.6
318.15	0	1285.2	1.6
318.15	0.0672	1277.2	1.6
318.15	0.1391	1269.7	1.6
318.15	0.2103	1263	1.6
318.15	0.2853	1256.9	1.6
318.15	0.3543	1252.1	1.6
318.15	0.4293	1247.7	1.6
318.15	0.5092	1244.1	1.6
318.15	0.581	1242.1	1.6
318.15	0.6518	1241.3	1.6
318.15	0.7248	1241.7	1.6
318.15	0.7888	1243.4	1.6
318.15	0.8595	1246.6	1.6
318.15	0.9298	1251.6	1.6
318.15	1	1258.6	1.6

System: 1,2-dimethylbenzene + 1,4-dioxane; phases: Liquid
Fixed: Pressure, kPa = 101
Property: Viscosity, Pa*s (Liquid); method: Capillary tube (Ostwald; Ubbelohde) method
Temperature, K	Mole fraction of 1,4-dioxane	Viscosity, Pa*s	uncertainty
293.15	0	0.0008066	1.68e-05
293.15	0.0672	0.0008314	1.74e-05
293.15	0.1391	0.0008598	1.79e-05
293.15	0.2103	0.0008896	1.86e-05
293.15	0.2853	0.0009224	1.92e-05
293.15	0.3543	0.0009541	1.99e-05
293.15	0.4293	0.0009899	2.06e-05
293.15	0.5092	0.0010296	2.14e-05
293.15	0.581	0.0010665	2.22e-05
293.15	0.6518	0.0011043	2.3e-05
293.15	0.7248	0.0011442	2.38e-05
293.15	0.7888	0.0011802	2.46e-05
293.15	0.8595	0.0012212	2.54e-05
293.15	0.9298	0.0012631	2.63e-05
293.15	1	0.0013064	2.72e-05
298.15	0	0.0007576	1.58e-05
298.15	0.0672	0.0007791	1.63e-05
298.15	0.1391	0.0008033	1.68e-05
298.15	0.2103	0.000829	1.73e-05
298.15	0.2853	0.0008576	1.79e-05
298.15	0.3543	0.0008851	1.85e-05
298.15	0.4293	0.0009162	1.91e-05
298.15	0.5092	0.0009509	1.98e-05
298.15	0.581	0.0009833	2.05e-05
298.15	0.6518	0.0010164	2.12e-05
298.15	0.7248	0.0010516	2.19e-05
298.15	0.7888	0.0010834	2.26e-05
298.15	0.8595	0.0011196	2.33e-05
298.15	0.9298	0.0011565	2.41e-05
298.15	1	0.0011948	2.49e-05
303.15	0	0.0007132	1.49e-05
303.15	0.0672	0.0007321	1.53e-05
303.15	0.1391	0.0007527	1.57e-05
303.15	0.2103	0.0007747	1.62e-05
303.15	0.2853	0.0007992	1.67e-05
303.15	0.3543	0.000823	1.72e-05
303.15	0.4293	0.0008502	1.77e-05
303.15	0.5092	0.0008806	1.84e-05
303.15	0.581	0.000909	1.9e-05
303.15	0.6518	0.0009382	1.96e-05
303.15	0.7248	0.0009693	2.02e-05
303.15	0.7888	0.0009977	2.08e-05
303.15	0.8595	0.0010297	2.14e-05
303.15	0.9298	0.0010626	2.21e-05
303.15	1	0.0010959	2.28e-05
308.15	0	0.000669	1.4e-05
308.15	0.0672	0.0006862	1.44e-05
308.15	0.1391	0.0007045	1.47e-05
308.15	0.2103	0.000724	1.51e-05
308.15	0.2853	0.000746	1.56e-05
308.15	0.3543	0.0007675	1.6e-05
308.15	0.4293	0.000792	1.65e-05
308.15	0.5092	0.0008194	1.71e-05
308.15	0.581	0.0008452	1.76e-05
308.15	0.6518	0.0008715	1.82e-05
308.15	0.7248	0.0008997	1.88e-05
308.15	0.7888	0.0009256	1.93e-05
308.15	0.8595	0.0009546	1.99e-05
308.15	0.9298	0.0009846	2.05e-05
308.15	1	0.0010145	2.11e-05
313.15	0	0.0006315	1.32e-05
313.15	0.0672	0.000647	1.36e-05
313.15	0.1391	0.0006637	1.39e-05
313.15	0.2103	0.0006813	1.43e-05
313.15	0.2853	0.0007012	1.47e-05
313.15	0.3543	0.0007205	1.51e-05
313.15	0.4293	0.0007428	1.55e-05
313.15	0.5092	0.0007677	1.6e-05
313.15	0.581	0.0007912	1.65e-05
313.15	0.6518	0.0008152	1.7e-05
313.15	0.7248	0.0008408	1.75e-05
313.15	0.7888	0.0008642	1.8e-05
313.15	0.8595	0.0008906	1.86e-05
313.15	0.9298	0.0009176	1.91e-05
313.15	1	0.000945	1.97e-05
318.15	0	0.0005972	1.25e-05
318.15	0.0672	0.0006114	1.28e-05
318.15	0.1391	0.0006267	1.31e-05
318.15	0.2103	0.0006427	1.35e-05
318.15	0.2853	0.000661	1.38e-05
318.15	0.3543	0.0006786	1.42e-05
318.15	0.4293	0.000699	1.46e-05
318.15	0.5092	0.0007218	1.51e-05
318.15	0.581	0.000743	1.55e-05
318.15	0.6518	0.0007649	1.6e-05
318.15	0.7248	0.0007884	1.65e-05
318.15	0.7888	0.0008098	1.69e-05
318.15	0.8595	0.000834	1.74e-05
318.15	0.9298	0.000859	1.79e-05
318.15	1	0.000884	1.84e-05

System: 1,3-dimethylbenzene + 1,4-dioxane; phases: Liquid
Fixed: Pressure, kPa = 101
Fixed: Frequency, MHz = 3
Property: Speed of sound, m/s (Liquid); method: Linear variable-path acoustic interferometer
Temperature, K	Mole fraction of 1,4-dioxane	Speed of sound, m/s	uncertainty
293.15	0	1346.7	1.7
293.15	0.0938	1341.2	1.7
293.15	0.1532	1338.2	1.7
293.15	0.2046	1335.9	1.7
293.15	0.2698	1333.4	1.7
293.15	0.3374	1331.4	1.7
293.15	0.4002	1330.1	1.7
293.15	0.4714	1329.3	1.7
293.15	0.5487	1329.6	1.7
293.15	0.63	1331.2	1.7
293.15	0.7182	1335	1.7
293.15	0.8035	1341	1.7
293.15	0.8708	1347.8	1.7
293.15	0.9324	1355.8	1.7
293.15	1	1367.2	1.7
298.15	0	1323.6	1.7
298.15	0.0938	1318.3	1.7
298.15	0.1532	1315.4	1.7
298.15	0.2046	1313.2	1.7
298.15	0.2698	1310.8	1.7
298.15	0.3374	1308.8	1.7
298.15	0.4002	1307.6	1.7
298.15	0.4714	1307	1.7
298.15	0.5487	1307.3	1.7
298.15	0.63	1309.1	1.7
298.15	0.7182	1312.9	1.7
298.15	0.8035	1318.8	1.7
298.15	0.8708	1325.5	1.7
298.15	0.9324	1333.5	1.7
298.15	1	1344.7	1.7
303.15	0	1302.4	1.7
303.15	0.0938	1297.2	1.6
303.15	0.1532	1294.4	1.6
303.15	0.2046	1292.2	1.6
303.15	0.2698	1289.8	1.6
303.15	0.3374	1287.9	1.6
303.15	0.4002	1286.6	1.6
303.15	0.4714	1286	1.6
303.15	0.5487	1286.3	1.6
303.15	0.63	1288.1	1.6
303.15	0.7182	1291.9	1.6
303.15	0.8035	1297.7	1.6
303.15	0.8708	1304.4	1.7
303.15	0.9324	1312.2	1.7
303.15	1	1323.1	1.7
308.15	0	1282.3	1.6
308.15	0.0938	1277.1	1.6
308.15	0.1532	1274.3	1.6
308.15	0.2046	1272.1	1.6
308.15	0.2698	1269.7	1.6
308.15	0.3374	1267.8	1.6
308.15	0.4002	1266.5	1.6
308.15	0.4714	1265.8	1.6
308.15	0.5487	1266	1.6
308.15	0.63	1267.7	1.6
308.15	0.7182	1271.2	1.6
308.15	0.8035	1276.9	1.6
308.15	0.8708	1283.2	1.6
308.15	0.9324	1290.7	1.6
308.15	1	1301.2	1.7
313.15	0	1262.3	1.6
313.15	0.0938	1257.2	1.6
313.15	0.1532	1254.3	1.6
313.15	0.2046	1252.2	1.6
313.15	0.2698	1249.8	1.6
313.15	0.3374	1247.9	1.6
313.15	0.4002	1246.6	1.6
313.15	0.4714	1245.8	1.6
313.15	0.5487	1246	1.6
313.15	0.63	1247.5	1.6
313.15	0.7182	1250.9	1.6
313.15	0.8035	1256.4	1.6
313.15	0.8708	1262.4	1.6
313.15	0.9324	1269.6	1.6
313.15	1	1279.7	1.6
318.15	0	1243	1.6
318.15	0.0938	1237.9	1.6
318.15	0.1532	1235.1	1.6
318.15	0.2046	1232.9	1.6
318.15	0.2698	1230.5	1.6
318.15	0.3374	1228.5	1.6
318.15	0.4002	1227.2	1.6
318.15	0.4714	1226.4	1.6
318.15	0.5487	1226.5	1.6
318.15	0.63	1227.9	1.6
318.15	0.7182	1231.1	1.6
318.15	0.8035	1236.2	1.6
318.15	0.8708	1242	1.6
318.15	0.9324	1248.9	1.6
318.15	1	1258.6	1.6

System: 1,3-dimethylbenzene + 1,4-dioxane; phases: Liquid
Fixed: Pressure, kPa = 101
Property: Viscosity, Pa*s (Liquid); method: Capillary tube (Ostwald; Ubbelohde) method
Temperature, K	Mole fraction of 1,4-dioxane	Viscosity, Pa*s	uncertainty
293.15	0	0.0006184	1.3e-05
293.15	0.0938	0.000674	1.41e-05
293.15	0.1532	0.0007104	1.49e-05
293.15	0.2046	0.0007427	1.55e-05
293.15	0.2698	0.0007843	1.64e-05
293.15	0.3374	0.0008284	1.73e-05
293.15	0.4002	0.0008702	1.82e-05
293.15	0.4714	0.0009186	1.92e-05
293.15	0.5487	0.0009721	2.03e-05
293.15	0.63	0.0010296	2.14e-05
293.15	0.7182	0.0010934	2.28e-05
293.15	0.8035	0.0011562	2.41e-05
293.15	0.8708	0.0012066	2.51e-05
293.15	0.9324	0.0012536	2.61e-05
293.15	1	0.0013064	2.72e-05
298.15	0	0.000584	1.23e-05
298.15	0.0938	0.000633	1.33e-05
298.15	0.1532	0.0006651	1.39e-05
298.15	0.2046	0.0006934	1.45e-05
298.15	0.2698	0.0007303	1.53e-05
298.15	0.3374	0.0007694	1.61e-05
298.15	0.4002	0.0008064	1.68e-05
298.15	0.4714	0.0008493	1.77e-05
298.15	0.5487	0.0008968	1.87e-05
298.15	0.63	0.000948	1.98e-05
298.15	0.7182	0.0010048	2.09e-05
298.15	0.8035	0.0010608	2.21e-05
298.15	0.8708	0.0011059	2.3e-05
298.15	0.9324	0.0011478	2.39e-05
298.15	1	0.0011948	2.49e-05
303.15	0	0.0005517	1.16e-05
303.15	0.0938	0.0005953	1.25e-05
303.15	0.1532	0.0006236	1.31e-05
303.15	0.2046	0.0006487	1.36e-05
303.15	0.2698	0.0006811	1.43e-05
303.15	0.3374	0.0007159	1.5e-05
303.15	0.4002	0.0007488	1.57e-05
303.15	0.4714	0.000787	1.64e-05
303.15	0.5487	0.0008293	1.73e-05
303.15	0.63	0.000875	1.83e-05
303.15	0.7182	0.0009258	1.93e-05
303.15	0.8035	0.000976	2.03e-05
303.15	0.8708	0.0010165	2.12e-05
303.15	0.9324	0.0010541	2.2e-05
303.15	1	0.0010959	2.28e-05
308.15	0	0.0005229	1.1e-05
308.15	0.0938	0.0005621	1.18e-05
308.15	0.1532	0.0005875	1.23e-05
308.15	0.2046	0.0006101	1.28e-05
308.15	0.2698	0.0006392	1.34e-05
308.15	0.3374	0.0006706	1.4e-05
308.15	0.4002	0.0007002	1.46e-05
308.15	0.4714	0.0007347	1.54e-05
308.15	0.5487	0.000773	1.61e-05
308.15	0.63	0.0008144	1.7e-05
308.15	0.7182	0.0008604	1.8e-05
308.15	0.8035	0.0009061	1.89e-05
308.15	0.8708	0.000943	1.97e-05
308.15	0.9324	0.0009769	2.04e-05
308.15	1	0.0010145	2.11e-05
313.15	0	0.0004938	1.04e-05
313.15	0.0938	0.0005297	1.11e-05
313.15	0.1532	0.000553	1.16e-05
313.15	0.2046	0.0005737	1.2e-05
313.15	0.2698	0.0006005	1.26e-05
313.15	0.3374	0.0006291	1.32e-05
313.15	0.4002	0.0006563	1.37e-05
313.15	0.4714	0.000688	1.44e-05
313.15	0.5487	0.0007231	1.51e-05
313.15	0.63	0.0007611	1.59e-05
313.15	0.7182	0.0008034	1.68e-05
313.15	0.8035	0.0008453	1.76e-05
313.15	0.8708	0.0008793	1.83e-05
313.15	0.9324	0.0009105	1.9e-05
313.15	1	0.000945	1.97e-05
318.15	0	0.000468	9.9e-06
318.15	0.0938	0.000501	1.05e-05
318.15	0.1532	0.0005226	1.1e-05
318.15	0.2046	0.0005416	1.14e-05
318.15	0.2698	0.0005665	1.19e-05
318.15	0.3374	0.0005928	1.24e-05
318.15	0.4002	0.0006178	1.29e-05
318.15	0.4714	0.000647	1.36e-05
318.15	0.5487	0.0006794	1.42e-05
318.15	0.63	0.0007144	1.49e-05
318.15	0.7182	0.0007535	1.57e-05
318.15	0.8035	0.0007922	1.65e-05
318.15	0.8708	0.0008232	1.72e-05
318.15	0.9324	0.000852	1.78e-05
318.15	1	0.000884	1.84e-05

System: 1,4-dimethylbenzene + 1,4-dioxane; phases: Liquid
Fixed: Pressure, kPa = 101
Fixed: Frequency, MHz = 3
Property: Speed of sound, m/s (Liquid); method: Linear variable-path acoustic interferometer
Temperature, K	Mole fraction of 1,4-dioxane	Speed of sound, m/s	uncertainty
293.15	0	1328.4	1.7
293.15	0.0716	1326.1	1.7
293.15	0.1445	1324.1	1.7
293.15	0.2132	1322.7	1.7
293.15	0.2871	1321.7	1.7
293.15	0.3582	1321.3	1.7
293.15	0.4358	1321.6	1.7
293.15	0.5042	1322.7	1.7
293.15	0.5846	1325	1.7
293.15	0.6543	1328.1	1.7
293.15	0.7249	1332.5	1.7
293.15	0.7923	1338.1	1.7
293.15	0.8623	1345.6	1.7
293.15	0.9311	1355.2	1.7
293.15	1	1367.2	1.7
298.15	0	1307.4	1.7
298.15	0.0716	1305.1	1.7
298.15	0.1445	1303.2	1.7
298.15	0.2132	1301.9	1.7
298.15	0.2871	1300.9	1.6
298.15	0.3582	1300.5	1.6
298.15	0.4358	1300.8	1.6
298.15	0.5042	1301.8	1.7
298.15	0.5846	1304	1.7
298.15	0.6543	1307	1.7
298.15	0.7249	1311.2	1.7
298.15	0.7923	1316.6	1.7
298.15	0.8623	1323.9	1.7
298.15	0.9311	1333.1	1.7
298.15	1	1344.7	1.7
303.15	0	1287.3	1.6
303.15	0.0716	1285.1	1.6
303.15	0.1445	1283.2	1.6
303.15	0.2132	1281.9	1.6
303.15	0.2871	1280.9	1.6
303.15	0.3582	1280.5	1.6
303.15	0.4358	1280.8	1.6
303.15	0.5042	1281.8	1.6
303.15	0.5846	1283.9	1.6
303.15	0.6543	1286.8	1.6
303.15	0.7249	1290.8	1.6
303.15	0.7923	1296	1.6
303.15	0.8623	1303	1.7
303.15	0.9311	1311.9	1.7
303.15	1	1323.1	1.7
308.15	0	1267.6	1.6
308.15	0.0716	1265.4	1.6
308.15	0.1445	1263.6	1.6
308.15	0.2132	1262.2	1.6
308.15	0.2871	1261.2	1.6
308.15	0.3582	1260.8	1.6
308.15	0.4358	1261	1.6
308.15	0.5042	1261.8	1.6
308.15	0.5846	1263.8	1.6
308.15	0.6543	1266.5	1.6
308.15	0.7249	1270.4	1.6
308.15	0.7923	1275.4	1.6
308.15	0.8623	1282	1.6
308.15	0.9311	1290.5	1.6
308.15	1	1301.2	1.7
313.15	0	1248.3	1.6
313.15	0.0716	1246.2	1.6
313.15	0.1445	1244.3	1.6
313.15	0.2132	1242.9	1.6
313.15	0.2871	1241.9	1.6
313.15	0.3582	1241.4	1.6
313.15	0.4358	1241.6	1.6
313.15	0.5042	1242.3	1.6
313.15	0.5846	1244.1	1.6
313.15	0.6543	1246.7	1.6
313.15	0.7249	1250.3	1.6
313.15	0.7923	1255	1.6
313.15	0.8623	1261.4	1.6
313.15	0.9311	1269.5	1.6
313.15	1	1279.7	1.6
318.15	0	1229.8	1.6
318.15	0.0716	1227.7	1.6
318.15	0.1445	1225.8	1.6
318.15	0.2132	1224.4	1.6
318.15	0.2871	1223.3	1.6
318.15	0.3582	1222.8	1.6
318.15	0.4358	1222.8	1.6
318.15	0.5042	1223.4	1.6
318.15	0.5846	1225	1.6
318.15	0.6543	1227.4	1.6
318.15	0.7249	1230.8	1.6
318.15	0.7923	1235.2	1.6
318.15	0.8623	1241.3	1.6
318.15	0.9311	1248.9	1.6
318.15	1	1258.6	1.6

System: 1,4-dimethylbenzene + 1,4-dioxane; phases: Liquid
Fixed: Pressure, kPa = 101
Property: Viscosity, Pa*s (Liquid); method: Capillary tube (Ostwald; Ubbelohde) method
Temperature, K	Mole fraction of 1,4-dioxane	Viscosity, Pa*s	uncertainty
293.15	0	0.0006505	1.36e-05
293.15	0.0716	0.0006921	1.45e-05
293.15	0.1445	0.0007358	1.54e-05
293.15	0.2132	0.0007779	1.63e-05
293.15	0.2871	0.0008239	1.72e-05
293.15	0.3582	0.0008691	1.81e-05
293.15	0.4358	0.0009192	1.92e-05
293.15	0.5042	0.000964	2.01e-05
293.15	0.5846	0.0010176	2.12e-05
293.15	0.6543	0.0010646	2.22e-05
293.15	0.7249	0.0011128	2.32e-05
293.15	0.7923	0.0011595	2.41e-05
293.15	0.8623	0.0012084	2.51e-05
293.15	0.9311	0.001257	2.61e-05
293.15	1	0.0013064	2.72e-05
298.15	0	0.0006115	1.28e-05
298.15	0.0716	0.0006484	1.36e-05
298.15	0.1445	0.0006871	1.44e-05
298.15	0.2132	0.0007245	1.51e-05
298.15	0.2871	0.0007654	1.6e-05
298.15	0.3582	0.0008054	1.68e-05
298.15	0.4358	0.0008499	1.77e-05
298.15	0.5042	0.0008898	1.86e-05
298.15	0.5846	0.0009374	1.95e-05
298.15	0.6543	0.0009792	2.04e-05
298.15	0.7249	0.0010223	2.13e-05
298.15	0.7923	0.0010639	2.22e-05
298.15	0.8623	0.0011075	2.31e-05
298.15	0.9311	0.0011508	2.39e-05
298.15	1	0.0011948	2.49e-05
303.15	0	0.0005766	1.21e-05
303.15	0.0716	0.0006095	1.28e-05
303.15	0.1445	0.000644	1.35e-05
303.15	0.2132	0.000677	1.42e-05
303.15	0.2871	0.0007133	1.49e-05
303.15	0.3582	0.0007488	1.57e-05
303.15	0.4358	0.0007884	1.65e-05
303.15	0.5042	0.0008239	1.72e-05
303.15	0.5846	0.0008663	1.81e-05
303.15	0.6543	0.0009037	1.88e-05
303.15	0.7249	0.0009422	1.96e-05
303.15	0.7923	0.0009792	2.04e-05
303.15	0.8623	0.0010182	2.12e-05
303.15	0.9311	0.0010566	2.2e-05
303.15	1	0.0010959	2.28e-05
308.15	0	0.000544	1.14e-05
308.15	0.0716	0.0005737	1.2e-05
308.15	0.1445	0.000605	1.27e-05
308.15	0.2132	0.000635	1.33e-05
308.15	0.2871	0.0006677	1.4e-05
308.15	0.3582	0.0006999	1.46e-05
308.15	0.4358	0.0007358	1.54e-05
308.15	0.5042	0.000768	1.6e-05
308.15	0.5846	0.0008064	1.68e-05
308.15	0.6543	0.0008403	1.75e-05
308.15	0.7249	0.000875	1.83e-05
308.15	0.7923	0.0009086	1.89e-05
308.15	0.8623	0.0009441	1.97e-05
308.15	0.9311	0.0009791	2.04e-05
308.15	1	0.0010145	2.11e-05
313.15	0	0.0005132	1.08e-05
313.15	0.0716	0.0005407	1.14e-05
313.15	0.1445	0.0005693	1.19e-05
313.15	0.2132	0.0005968	1.25e-05
313.15	0.2871	0.0006269	1.31e-05
313.15	0.3582	0.0006565	1.37e-05
313.15	0.4358	0.0006894	1.44e-05
313.15	0.5042	0.0007189	1.5e-05
313.15	0.5846	0.0007542	1.58e-05
313.15	0.6543	0.0007853	1.64e-05
313.15	0.7249	0.0008172	1.71e-05
313.15	0.7923	0.0008479	1.77e-05
313.15	0.8623	0.0008802	1.84e-05
313.15	0.9311	0.0009126	1.9e-05
313.15	1	0.000945	1.97e-05
318.15	0	0.0004862	1.02e-05
318.15	0.0716	0.0005116	1.08e-05
318.15	0.1445	0.000538	1.13e-05
318.15	0.2132	0.0005633	1.18e-05
318.15	0.2871	0.0005911	1.24e-05
318.15	0.3582	0.0006185	1.3e-05
318.15	0.4358	0.0006488	1.36e-05
318.15	0.5042	0.000676	1.41e-05
318.15	0.5846	0.0007084	1.48e-05
318.15	0.6543	0.000737	1.54e-05
318.15	0.7249	0.0007663	1.6e-05
318.15	0.7923	0.0007946	1.66e-05
318.15	0.8623	0.0008244	1.72e-05
318.15	0.9311	0.000854	1.78e-05
318.15	1	0.000884	1.84e-05

System: 1,3,5-trimethylbenzene + 1,4-dioxane; phases: Liquid
Fixed: Pressure, kPa = 101
Fixed: Frequency, MHz = 3
Property: Speed of sound, m/s (Liquid); method: Linear variable-path acoustic interferometer
Temperature, K	Mole fraction of 1,4-dioxane	Speed of sound, m/s	uncertainty
293.15	0	1360.4	1.7
293.15	0.0696	1354.2	1.7
293.15	0.1408	1348.2	1.7
293.15	0.2098	1342.8	1.7
293.15	0.28	1337.8	1.7
293.15	0.3558	1333.1	1.7
293.15	0.4276	1329.3	1.7
293.15	0.5066	1326.5	1.7
293.15	0.5801	1325	1.7
293.15	0.6548	1325.4	1.7
293.15	0.7227	1327.5	1.7
293.15	0.7936	1332	1.7
293.15	0.8663	1340	1.7
293.15	0.9319	1351	1.7
293.15	1	1367.2	1.7
298.15	0	1339.8	1.7
298.15	0.0696	1333.4	1.7
298.15	0.1408	1327.5	1.7
298.15	0.2098	1322.1	1.7
298.15	0.28	1317.1	1.7
298.15	0.3558	1312.5	1.7
298.15	0.4276	1308.9	1.7
298.15	0.5066	1306	1.7
298.15	0.5801	1304.5	1.7
298.15	0.6548	1304.7	1.7
298.15	0.7227	1306.5	1.7
298.15	0.7936	1310.8	1.7
298.15	0.8663	1318.5	1.7
298.15	0.9319	1329	1.7
298.15	1	1344.7	1.7
303.15	0	1319.6	1.7
303.15	0.0696	1313.2	1.7
303.15	0.1408	1307.3	1.7
303.15	0.2098	1301.9	1.7
303.15	0.28	1297.1	1.7
303.15	0.3558	1292.5	1.7
303.15	0.4276	1288.9	1.7
303.15	0.5066	1286	1.7
303.15	0.5801	1284.5	1.7
303.15	0.6548	1284.6	1.7
303.15	0.7227	1286.4	1.7
303.15	0.7936	1290.3	1.7
303.15	0.8663	1297.6	1.7
303.15	0.9319	1307.8	1.7
303.15	1	1323.1	1.7
308.15	0	1300.2	1.7
308.15	0.0696	1294	1.7
308.15	0.1408	1287.9	1.7
308.15	0.2098	1282.6	1.7
308.15	0.28	1277.6	1.7
308.15	0.3558	1273	1.7
308.15	0.4276	1269.2	1.7
308.15	0.5066	1266.3	1.7
308.15	0.5801	1264.6	1.6
308.15	0.6548	1264.7	1.6
308.15	0.7227	1266.2	1.6
308.15	0.7936	1270	1.6
308.15	0.8663	1277	1.6
308.15	0.9319	1286.7	1.6
308.15	1	1301.2	1.7
313.15	0	1280.4	1.7
313.15	0.0696	1274.3	1.7
313.15	0.1408	1268.3	1.7
313.15	0.2098	1262.9	1.7
313.15	0.28	1258	1.7
313.15	0.3558	1253.3	1.7
313.15	0.4276	1249.6	1.6
313.15	0.5066	1246.4	1.6
313.15	0.5801	1244.7	1.6
313.15	0.6548	1244.6	1.6
313.15	0.7227	1246.1	1.6
313.15	0.7936	1249.9	1.6
313.15	0.8663	1256.5	1.6
313.15	0.9319	1265.7	1.6
313.15	1	1279.7	1.6
318.15	0	1263	1.7
318.15	0.0696	1256.9	1.7
318.15	0.1408	1250.8	1.7
318.15	0.2098	1245.3	1.7
318.15	0.28	1240.3	1.6
318.15	0.3558	1235.4	1.6
318.15	0.4276	1231.5	1.6
318.15	0.5066	1228.3	1.6
318.15	0.5801	1226.4	1.6
318.15	0.6548	1226	1.6
318.15	0.7227	1227.1	1.6
318.15	0.7936	1230.5	1.6
318.15	0.8663	1236.7	1.6
318.15	0.9319	1245.3	1.6
318.15	1	1258.6	1.6

System: 1,3,5-trimethylbenzene + 1,4-dioxane; phases: Liquid
Fixed: Pressure, kPa = 101
Property: Viscosity, Pa*s (Liquid); method: Capillary tube (Ostwald; Ubbelohde) method
Temperature, K	Mole fraction of 1,4-dioxane	Viscosity, Pa*s	uncertainty
293.15	0	0.0007056	1.48e-05
293.15	0.0696	0.0007332	1.54e-05
293.15	0.1408	0.0007648	1.6e-05
293.15	0.2098	0.0007974	1.67e-05
293.15	0.28	0.0008326	1.74e-05
293.15	0.3558	0.0008728	1.83e-05
293.15	0.4276	0.0009131	1.91e-05
293.15	0.5066	0.0009597	2e-05
293.15	0.5801	0.0010051	2.1e-05
293.15	0.6548	0.0010536	2.2e-05
293.15	0.7227	0.0010995	2.29e-05
293.15	0.7936	0.001149	2.39e-05
293.15	0.8663	0.0012024	2.5e-05
293.15	0.9319	0.001252	2.6e-05
293.15	1	0.0013064	2.72e-05
298.15	0	0.0006592	1.39e-05
298.15	0.0696	0.0006835	1.44e-05
298.15	0.1408	0.0007112	1.49e-05
298.15	0.2098	0.0007398	1.55e-05
298.15	0.28	0.0007712	1.62e-05
298.15	0.3558	0.0008066	1.69e-05
298.15	0.4276	0.0008422	1.76e-05
298.15	0.5066	0.0008838	1.85e-05
298.15	0.5801	0.0009244	1.93e-05
298.15	0.6548	0.0009678	2.02e-05
298.15	0.7227	0.0010088	2.1e-05
298.15	0.7936	0.0010533	2.2e-05
298.15	0.8663	0.001101	2.29e-05
298.15	0.9319	0.001146	2.39e-05
298.15	1	0.0011948	2.49e-05
303.15	0	0.0006188	1.3e-05
303.15	0.0696	0.0006405	1.35e-05
303.15	0.1408	0.0006646	1.4e-05
303.15	0.2098	0.0006896	1.45e-05
303.15	0.28	0.0007168	1.5e-05
303.15	0.3558	0.0007483	1.57e-05
303.15	0.4276	0.00078	1.63e-05
303.15	0.5066	0.0008167	1.71e-05
303.15	0.5801	0.0008532	1.78e-05
303.15	0.6548	0.0008918	1.86e-05
303.15	0.7227	0.0009287	1.94e-05
303.15	0.7936	0.0009688	2.02e-05
303.15	0.8663	0.0010116	2.11e-05
303.15	0.9319	0.001052	2.19e-05
303.15	1	0.0010959	2.28e-05
308.15	0	0.0005792	1.22e-05
308.15	0.0696	0.0005994	1.26e-05
308.15	0.1408	0.0006212	1.31e-05
308.15	0.2098	0.0006438	1.35e-05
308.15	0.28	0.0006685	1.4e-05
308.15	0.3558	0.0006966	1.46e-05
308.15	0.4276	0.0007253	1.52e-05
308.15	0.5066	0.0007589	1.59e-05
308.15	0.5801	0.0007918	1.66e-05
308.15	0.6548	0.0008274	1.73e-05
308.15	0.7227	0.0008612	1.8e-05
308.15	0.7936	0.0008982	1.87e-05
308.15	0.8663	0.0009376	1.96e-05
308.15	0.9319	0.0009752	2.03e-05
308.15	1	0.0010145	2.11e-05
313.15	0	0.0005422	1.14e-05
313.15	0.0696	0.0005609	1.18e-05
313.15	0.1408	0.0005813	1.22e-05
313.15	0.2098	0.0006022	1.27e-05
313.15	0.28	0.0006248	1.31e-05
313.15	0.3558	0.000651	1.37e-05
313.15	0.4276	0.0006774	1.42e-05
313.15	0.5066	0.0007084	1.48e-05
313.15	0.5801	0.0007391	1.55e-05
313.15	0.6548	0.0007717	1.61e-05
313.15	0.7227	0.0008032	1.68e-05
313.15	0.7936	0.0008372	1.75e-05
313.15	0.8663	0.000874	1.82e-05
313.15	0.9319	0.0009088	1.9e-05
313.15	1	0.000945	1.97e-05
318.15	0	0.0005066	1.07e-05
318.15	0.0696	0.0005246	1.11e-05
318.15	0.1408	0.0005436	1.15e-05
318.15	0.2098	0.0005634	1.19e-05
318.15	0.28	0.0005846	1.23e-05
318.15	0.3558	0.0006092	1.28e-05
318.15	0.4276	0.0006342	1.33e-05
318.15	0.5066	0.0006632	1.39e-05
318.15	0.5801	0.000692	1.45e-05
318.15	0.6548	0.0007224	1.51e-05
318.15	0.7227	0.0007515	1.57e-05
318.15	0.7936	0.0007836	1.64e-05
318.15	0.8663	0.0008178	1.71e-05
318.15	0.9319	0.0008501	1.77e-05
318.15	1	0.000884	1.84e-05
