Measured thermophysical data. Thermodynamic equilibrium of hydroxyacetic acid in pure and binary solvent systems
Source: J. Chem. Thermodyn., 2017, 10.1016/j.jct.2017.01.004
Compound 1: 2-hydroxyethanoic acid, C2H4O3, InChI=1S/C2H4O3/c3-1-2(4)5/h3H,1H2,(H,4,5), purity 99.9%
Compound 2: acetonitrile, C2H3N, InChI=1S/C2H3N/c1-2-3/h1H3, purity 99.5%
Compound 3: ethanol, C2H6O, InChI=1S/C2H6O/c1-2-3/h3H,2H2,1H3, purity 99.7%
Compound 4: ethyl acetate, C4H8O2, InChI=1S/C4H8O2/c1-3-6-4(2)5/h3H2,1-2H3, purity 99.5%
Compound 5: butan-1-ol, C4H10O, InChI=1S/C4H10O/c1-2-3-4-5/h5H,2-4H2,1H3, purity 99.5%
Compound 6: propan-2-ol, C3H8O, InChI=1S/C3H8O/c1-3(2)4/h3-4H,1-2H3, purity 99.7%
Compound 7: acetone, C3H6O, InChI=1S/C3H6O/c1-3(2)4/h1-2H3, purity 99.5%

System: 2-hydroxyethanoic acid; phases: Crystal, Liquid, Air at 1 atmosphere
Property: Normal melting temperature, K (Crystal); method: DTA
Normal melting temperature, K	uncertainty
350.75	1.06

System: 2-hydroxyethanoic acid; phases: Crystal, Liquid, Air at 1 atmosphere
Property: Molar enthalpy of transition or fusion, kJ/mol (Crystal); method: DSC
Molar enthalpy of transition or fusion, kJ/mol	uncertainty
19.9	1.1

System: 2-hydroxyethanoic acid + ethyl acetate; phases: Liquid, Crystal
Fixed: Pressure, kPa = 100
Property: Mole fraction of 2-hydroxyethanoic acid (Liquid); method: Titration method
Temperature, K	Mole fraction of 2-hydroxyethanoic acid	uncertainty
273.15	0.0256	0.0026
278.15	0.0289	0.0029
283.15	0.0343	0.0034
288.15	0.0395	0.004
293.15	0.0472	0.0047
298.15	0.058	0.0058
303.15	0.0718	0.0072
308.15	0.0877	0.0088
313.15	0.106	0.011

System: ethanol + 2-hydroxyethanoic acid; phases: Liquid, Crystal
Fixed: Pressure, kPa = 100
Property: Mole fraction of 2-hydroxyethanoic acid (Liquid); method: Titration method
Temperature, K	Mole fraction of 2-hydroxyethanoic acid	uncertainty
273.15	0.179	0.018
278.15	0.197	0.02
283.15	0.224	0.022
288.15	0.254	0.025
293.15	0.286	0.029
298.15	0.319	0.032
303.15	0.363	0.036
308.15	0.413	0.041
313.15	0.474	0.047

System: butan-1-ol + 2-hydroxyethanoic acid; phases: Liquid, Crystal
Fixed: Pressure, kPa = 100
Property: Mole fraction of 2-hydroxyethanoic acid (Liquid); method: Titration method
Temperature, K	Mole fraction of 2-hydroxyethanoic acid	uncertainty
273.15	0.108	0.011
278.15	0.12	0.012
283.15	0.145	0.015
288.15	0.168	0.017
293.15	0.195	0.02
298.15	0.224	0.022
303.15	0.254	0.025
308.15	0.296	0.03
313.15	0.344	0.034

System: propan-2-ol + 2-hydroxyethanoic acid; phases: Liquid, Crystal
Fixed: Pressure, kPa = 100
Property: Mole fraction of 2-hydroxyethanoic acid (Liquid); method: Titration method
Temperature, K	Mole fraction of 2-hydroxyethanoic acid	uncertainty
273.15	0.142	0.014
278.15	0.168	0.017
283.15	0.193	0.019
288.15	0.22	0.022
293.15	0.248	0.025
298.15	0.28	0.028
303.15	0.313	0.031
308.15	0.348	0.035
313.15	0.391	0.039

System: acetonitrile + 2-hydroxyethanoic acid; phases: Liquid, Crystal
Fixed: Pressure, kPa = 100
Property: Mole fraction of 2-hydroxyethanoic acid (Liquid); method: Titration method
Temperature, K	Mole fraction of 2-hydroxyethanoic acid	uncertainty
273.15	0.0226	0.0023
278.15	0.0282	0.0028
283.15	0.0351	0.0035
288.15	0.0457	0.0046
293.15	0.0554	0.0056
298.15	0.0781	0.0078
303.15	0.113	0.011
308.15	0.147	0.015
313.15	0.189	0.019

System: ethanol + 2-hydroxyethanoic acid + ethyl acetate; phases: Liquid, Crystal
Fixed: Pressure, kPa = 100
Property: Mole fraction of 2-hydroxyethanoic acid (Liquid); method: Titration method
Temperature, K	Solvent: Mole fraction of ethanol	Mole fraction of 2-hydroxyethanoic acid	uncertainty
273.15	0.099	0.052	0.0053
273.15	0.201	0.0725	0.0075
273.15	0.299	0.103	0.011
273.15	0.399	0.128	0.013
273.15	0.499	0.147	0.015
273.15	0.61	0.165	0.017
273.15	0.7	0.174	0.017
278.15	0.099	0.0629	0.0064
278.15	0.201	0.0836	0.0087
278.15	0.299	0.121	0.013
278.15	0.399	0.145	0.015
278.15	0.499	0.165	0.017
278.15	0.61	0.181	0.018
278.15	0.7	0.195	0.02
283.15	0.099	0.0711	0.0072
283.15	0.201	0.0961	0.01
283.15	0.299	0.135	0.014
283.15	0.399	0.16	0.016
283.15	0.499	0.181	0.018
283.15	0.61	0.198	0.02
283.15	0.7	0.214	0.021
288.15	0.099	0.0841	0.0085
288.15	0.201	0.111	0.011
288.15	0.299	0.15	0.016
288.15	0.399	0.179	0.018
288.15	0.499	0.202	0.021
288.15	0.61	0.221	0.022
288.15	0.7	0.237	0.024
293.15	0.099	0.0999	0.0101
293.15	0.201	0.126	0.013
293.15	0.299	0.17	0.018
293.15	0.399	0.198	0.02
293.15	0.499	0.223	0.023
293.15	0.61	0.246	0.025
293.15	0.7	0.261	0.026
298.15	0.099	0.115	0.012
298.15	0.201	0.143	0.015
298.15	0.299	0.191	0.02
298.15	0.399	0.22	0.022
298.15	0.499	0.246	0.025
298.15	0.61	0.271	0.027
298.15	0.7	0.286	0.029
303.15	0.099	0.132	0.013
303.15	0.201	0.165	0.017
303.15	0.299	0.214	0.022
303.15	0.399	0.245	0.025
303.15	0.499	0.272	0.028
303.15	0.61	0.297	0.03
303.15	0.7	0.314	0.031
308.15	0.099	0.151	0.015
308.15	0.201	0.189	0.019
308.15	0.299	0.241	0.025
308.15	0.399	0.272	0.028
308.15	0.499	0.302	0.031
308.15	0.61	0.33	0.033
308.15	0.7	0.351	0.035
313.15	0.099	0.176	0.018
313.15	0.201	0.218	0.022
313.15	0.299	0.275	0.028
313.15	0.399	0.304	0.031
313.15	0.499	0.341	0.035
313.15	0.61	0.372	0.037
313.15	0.7	0.396	0.04
273.15	1	0.179	0.018
278.15	1	0.197	0.02
283.15	1	0.224	0.022
288.15	1	0.254	0.025
293.15	1	0.286	0.029
298.15	1	0.319	0.032
303.15	1	0.363	0.036
308.15	1	0.413	0.041
313.15	1	0.474	0.047
273.15	0	0.0256	0.0026
278.15	0	0.0289	0.0029
283.15	0	0.0343	0.0034
288.15	0	0.0395	0.004
293.15	0	0.0472	0.0047
298.15	0	0.058	0.0058
303.15	0	0.0718	0.0072
308.15	0	0.0877	0.0088
313.15	0	0.106	0.011

System: acetone + 2-hydroxyethanoic acid + ethyl acetate; phases: Liquid, Crystal
Fixed: Pressure, kPa = 100
Property: Mole fraction of 2-hydroxyethanoic acid (Liquid); method: Titration method
Temperature, K	Solvent: Mole fraction of acetone	Mole fraction of 2-hydroxyethanoic acid	uncertainty
273.15	0.1	0.0329	0.0033
273.15	0.166	0.0359	0.0036
273.15	0.23	0.0389	0.0039
273.15	0.299	0.0418	0.0042
273.15	0.4	0.0482	0.0049
273.15	0.499	0.0534	0.0055
278.15	0.1	0.0414	0.0042
278.15	0.166	0.0438	0.0044
278.15	0.23	0.0469	0.0047
278.15	0.299	0.0511	0.0052
278.15	0.4	0.0594	0.0061
278.15	0.499	0.0651	0.0066
283.15	0.1	0.0482	0.0048
283.15	0.166	0.0513	0.0051
283.15	0.23	0.0554	0.0056
283.15	0.299	0.0612	0.0062
283.15	0.4	0.07	0.0071
283.15	0.499	0.0777	0.008
288.15	0.1	0.0568	0.0057
288.15	0.166	0.0613	0.0062
288.15	0.23	0.0665	0.0067
288.15	0.299	0.0728	0.0074
288.15	0.4	0.0829	0.0085
288.15	0.499	0.0932	0.0096
293.15	0.1	0.0667	0.0067
293.15	0.166	0.0728	0.0073
293.15	0.23	0.0793	0.008
293.15	0.299	0.0867	0.0088
293.15	0.4	0.0981	0.01
293.15	0.499	0.111	0.011
298.15	0.1	0.0794	0.008
298.15	0.166	0.0862	0.0087
298.15	0.23	0.0933	0.0094
298.15	0.299	0.102	0.01
298.15	0.4	0.115	0.012
298.15	0.499	0.132	0.014
303.15	0.1	0.0941	0.0095
303.15	0.166	0.102	0.01
303.15	0.23	0.11	0.011
303.15	0.299	0.121	0.012
303.15	0.4	0.136	0.014
303.15	0.499	0.155	0.016
308.15	0.1	0.113	0.011
308.15	0.166	0.121	0.012
308.15	0.23	0.13	0.013
308.15	0.299	0.145	0.015
308.15	0.4	0.162	0.017
308.15	0.499	0.184	0.019
313.15	0.1	0.136	0.014
313.15	0.166	0.147	0.015
313.15	0.23	0.158	0.016
313.15	0.299	0.175	0.018
313.15	0.4	0.2	0.02
313.15	0.499	0.228	0.024
273.15	0	0.0256	0.0026
278.15	0	0.0289	0.0029
283.15	0	0.0343	0.0034
288.15	0	0.0395	0.004
293.15	0	0.0472	0.0047
298.15	0	0.058	0.0058
303.15	0	0.0718	0.0072
308.15	0	0.0877	0.0088
313.15	0	0.106	0.011
