Measured thermophysical data. Solubility and phase separation of 4-morpholinepropanesulfonic acid (MOPS), and 3-morpholino-2-hydroxypropanesulfonic acid (MOPSO) in aqueous 1,4-dioxane and ethanol solutions
Source: J. Chem. Thermodyn., 2011, 10.1016/j.jct.2011.05.036
Compound 1: water, H2O, InChI=1S/H2O/h1H2, purity 99.9%
Compound 2: 4-morpholinepropanesulfonic acid, C7H15NO4S, InChI=1S/C7H15NO4S/c9-13(10,11)7-1-2-8-3-5-12-6-4-8/h1-7H2,(H,9,10,11), purity 99.5%
Compound 3: 3-morpholino-2-hydroxypropanesulfonic acid, C7H15NO5S, InChI=1S/C7H15NO5S/c9-7(6-14(10,11)12)5-8-1-3-13-4-2-8/h7,9H,1-6H2,(H,10,11,12), purity 99%
Compound 4: 1,4-dioxane, C4H8O2, InChI=1S/C4H8O2/c1-2-6-4-3-5-1/h1-4H2, purity 99%
Compound 5: ethanol, C2H6O, InChI=1S/C2H6O/c1-2-3/h3H,2H2,1H3, purity 99.8%

System: water + 3-morpholino-2-hydroxypropanesulfonic acid; phases: Liquid
Fixed: Temperature, K = 298.15
Fixed: Pressure, kPa = 101
Property: Mass density, kg/m3 (Liquid); method: Vibrating tube method
Molality, mol/kg of 3-morpholino-2-hydroxypropanesulfonic acid	Mass density, kg/m3	uncertainty
0.1262	1006.93	0.14
0.2647	1017.35	0.14
0.6529	1044.51	0.14
1.0123	1067.2	0.14
1.4772	1093.32	0.15
2.0303	1120.89	0.16
2.5366	1142.98	0.17
3.1959	1168.39	0.19
3.7498	1187	0.2

System: 4-morpholinepropanesulfonic acid + water; phases: Liquid
Fixed: Temperature, K = 298.15
Fixed: Pressure, kPa = 101
Property: Mass density, kg/m3 (Liquid); method: Vibrating tube method
Molality, mol/kg of 4-morpholinepropanesulfonic acid	Mass density, kg/m3	uncertainty
0.0212	998.4	0.13
0.0584	1000.76	0.13
0.1012	1003.44	0.13
0.2396	1011.89	0.13
0.6942	1037.46	0.13
1.2481	1064.7	0.13
2.2728	1106.41	0.14
3.2432	1138.03	0.15
4.3866	1168.14	0.16
5.7812	1195.72	0.17
7.0871	1217.61	0.18

System: 1,4-dioxane + water + 3-morpholino-2-hydroxypropanesulfonic acid; phases: Liquid, Crystal
Fixed: Pressure, kPa = 101
Fixed: Temperature, K = 298.15
Property: Molality, mol/kg of 3-morpholino-2-hydroxypropanesulfonic acid (Liquid); method: visual
Solvent: Mass fraction of 1,4-dioxane	Molality, mol/kg of 3-morpholino-2-hydroxypropanesulfonic acid	uncertainty
0	3.96	0.06
0.1	3.24	0.05
0.2	2.53	0.04
0.3	1.81	0.03
0.4	1.19	0.02
0.5	0.679	0.012
0.6	0.338	0.006
0.7	0.132	0.003
0.8	0.029	0.001

System: 1,4-dioxane + water + 3-morpholino-2-hydroxypropanesulfonic acid; phases: Liquid, Crystal
Fixed: Temperature, K = 298.15
Fixed: Pressure, kPa = 101
Property: Mass density, kg/m3 (Liquid); method: Vibrating tube method
Solvent: Mass fraction of 1,4-dioxane	Mass density, kg/m3	uncertainty
0	1194.63	0.25
0.1	1175.33	0.31
0.2	1154.71	0.32
0.3	1129.69	0.33
0.4	1104.44	0.33
0.5	1079.29	0.3
0.6	1059.87	0.25
0.7	1046.44	0.21
0.8	1037.89	0.2

System: 1,4-dioxane + water + 3-morpholino-2-hydroxypropanesulfonic acid; phases: Liquid
Fixed: Pressure, kPa = 101
Fixed: Temperature, K = 298.15
Property: Mass density, kg/m3 (Liquid); method: Vibrating tube method
Solvent: Mass fraction of 1,4-dioxane	Molality, mol/kg of 3-morpholino-2-hydroxypropanesulfonic acid	Mass density, kg/m3	uncertainty
0.1	0.1735	1019.37	0.18
0.1	0.3051	1029.05	0.19
0.1	0.9413	1067.26	0.2
0.1	1.4721	1100.66	0.21
0.1	2.0895	1130.45	0.22
0.1	2.6073	1151.89	0.23
0.1	3.1296	1171.86	0.25
0.2	0.1743	1027.49	0.19
0.2	0.3038	1036.91	0.19
0.2	0.588	1056.34	0.2
0.2	0.9146	1076.71	0.2
0.2	1.2051	1093	0.21
0.2	1.5289	1110.33	0.22
0.2	1.8362	1125.69	0.22
0.2	2.1694	1140.04	0.23
0.2	2.3726	1148.66	0.23
0.3	0.1142	1030.62	0.19
0.3	0.2185	1038.28	0.19
0.3	0.4167	1051.91	0.19
0.3	0.6752	1069.03	0.2
0.3	1.0941	1093.79	0.21
0.3	1.3124	1105.57	0.21
0.3	1.479	1114.25	0.22
0.3	1.6455	1122.32	0.22
0.3	1.7248	1125.81	0.22
0.4	0.1324	1038.44	0.19
0.4	0.3154	1051.84	0.19
0.4	0.5555	1066.77	0.2
0.4	0.7874	1081.73	0.21
0.4	0.9933	1093.64	0.21
0.4	1.1808	1103.91	0.21
0.5	0.1044	1041.23	0.2
0.5	0.1499	1044.5	0.19
0.5	0.1982	1047.95	0.19
0.5	0.3485	1058.26	0.2
0.5	0.4848	1067.18	0.2
0.5	0.6338	1076.62	0.2
0.6	0.046	1039.76	0.19
0.6	0.0866	1042.77	0.19
0.6	0.1445	1046.98	0.19
0.6	0.1878	1050.02	0.2
0.6	0.2395	1053.53	0.2
0.6	0.2752	1055.96	0.2
0.6	0.3197	1058.78	0.2
0.7	0.0154	1038.17	0.18
0.7	0.0321	1039.41	0.19
0.7	0.0679	1041.99	0.19
0.7	0.0839	1043.12	0.2
0.7	0.1036	1044.5	0.19
0.7	0.1263	1046.11	0.19
0.8	0.0039	1036.01	0.19
0.8	0.0092	1036.39	0.19
0.8	0.0123	1036.64	0.19
0.8	0.0194	1037.12	0.19
0.8	0.0219	1037.36	0.19
0.8	0.0258	1037.64	0.19

System: ethanol + water + 3-morpholino-2-hydroxypropanesulfonic acid; phases: Liquid, Crystal
Fixed: Pressure, kPa = 101
Fixed: Temperature, K = 298.15
Property: Molality, mol/kg of 3-morpholino-2-hydroxypropanesulfonic acid (Liquid); method: visual
Solvent: Mass fraction of ethanol	Molality, mol/kg of 3-morpholino-2-hydroxypropanesulfonic acid	uncertainty
0	3.96	0.06
0.1	3.11	0.05
0.2	2.38	0.04
0.3	1.56	0.03
0.4	1.06	0.02
0.5	0.549	0.01
0.6	0.272	0.005
0.7	0.122	0.002
0.8	0.029	0.001

System: ethanol + water + 3-morpholino-2-hydroxypropanesulfonic acid; phases: Liquid, Crystal
Fixed: Temperature, K = 298.15
Fixed: Pressure, kPa = 101
Property: Mass density, kg/m3 (Liquid); method: Vibrating tube method
Solvent: Mass fraction of ethanol	Mass density, kg/m3	uncertainty
0	1194.63	0.19
0.1	1150.99	0.47
0.2	1107.32	0.51
0.3	1053.28	0.53
0.4	1005.29	0.52
0.5	951.71	0.5
0.6	908.8	0.41
0.7	873.64	0.37
0.8	841.86	0.35

System: ethanol + water + 3-morpholino-2-hydroxypropanesulfonic acid; phases: Liquid
Fixed: Pressure, kPa = 101
Fixed: Temperature, K = 298.15
Property: Mass density, kg/m3 (Liquid); method: Vibrating tube method
Solvent: Mass fraction of ethanol	Molality, mol/kg of 3-morpholino-2-hydroxypropanesulfonic acid	Mass density, kg/m3	uncertainty
0.1	0.1644	993.55	0.15
0.1	0.2407	999.39	0.15
0.1	0.4482	1014.67	0.15
0.1	0.7362	1034.7	0.15
0.1	1.104	1057.47	0.15
0.1	1.6863	1089.91	0.16
0.1	2.069	1108.49	0.16
0.1	2.4979	1126.77	0.17
0.1	2.7971	1139.07	0.17
0.1	3.0874	1150.2	0.18
0.2	0.1516	978.72	0.15
0.2	0.5209	1005.86	0.15
0.2	1.0981	1043.69	0.15
0.2	1.397	1060.16	0.15
0.2	1.8676	1084.55	0.16
0.2	2.1727	1098.47	0.16
0.2	2.3515	1106.98	0.16
0.3	0.152	963.76	0.15
0.3	0.5304	990.92	0.15
0.3	0.8744	1013.44	0.15
0.3	1.0522	1024.7	0.15
0.3	1.1886	1033	0.15
0.3	1.4062	1044.81	0.15
0.3	1.508	1050.38	0.15
0.4	0.1555	944.12	0.16
0.4	0.3293	957.52	0.15
0.4	0.4914	968.92	0.15
0.4	0.6523	980.05	0.15
0.4	0.8304	992.1	0.14
0.4	0.9406	998.29	0.14
0.4	1.0494	1004.48	0.14
0.5	0.0557	915.06	0.16
0.5	0.1022	918.57	0.16
0.5	0.1799	924.74	0.16
0.5	0.2689	931.53	0.16
0.5	0.3494	937.41	0.15
0.5	0.4087	941.69	0.15
0.5	0.4706	946.08	0.15
0.5	0.5159	949.42	0.15
0.6	0.0422	890.57	0.17
0.6	0.079	893.74	0.16
0.6	0.1122	896.31	0.16
0.6	0.1486	899.17	0.17
0.6	0.1769	901.81	0.16
0.6	0.2294	905.57	0.16
0.6	0.2523	907.4	0.16
0.7	0.0117	864.83	0.16
0.7	0.0218	865.55	0.16
0.7	0.0354	866.79	0.17
0.7	0.064	869.02	0.17
0.7	0.0867	870.86	0.17
0.7	0.1029	872.24	0.17
0.7	0.1156	873.13	0.16
0.8	0.0068	840.06	0.18
0.8	0.0108	840.48	0.18
0.8	0.0171	841.04	0.17
0.8	0.0215	841.4	0.17
0.8	0.0255	841.67	0.17
0.8	0.0277	841.81	0.17

System: ethanol + 4-morpholinepropanesulfonic acid + water; phases: Liquid, Crystal
Fixed: Pressure, kPa = 101
Fixed: Temperature, K = 298.15
Property: Molality, mol/kg of 4-morpholinepropanesulfonic acid (Liquid); method: visual
Solvent: Mass fraction of ethanol	Molality, mol/kg of 4-morpholinepropanesulfonic acid	uncertainty
0	7.42	0.12
0.1	6.42	0.1
0.2	5.63	0.09
0.3	5	0.08
0.4	3.89	0.06
0.5	2.69	0.05
0.6	1.68	0.03
0.7	0.846	0.016
0.8	0.213	0.005
0.9	0.036	0.002

System: ethanol + 4-morpholinepropanesulfonic acid + water; phases: Liquid, Crystal
Fixed: Temperature, K = 298.15
Fixed: Pressure, kPa = 101
Property: Mass density, kg/m3 (Liquid); method: Vibrating tube method
Solvent: Mass fraction of ethanol	Mass density, kg/m3	uncertainty
0	1223.83	0.17
0.1	1202.89	0.29
0.2	1176.61	0.32
0.3	1146.97	0.4
0.4	1103.49	0.52
0.5	1046.95	0.61
0.6	983.64	1.28
0.7	791.9	0.7
0.8	854.77	0.19
0.9	817.1	0.4

System: ethanol + 4-morpholinepropanesulfonic acid + water; phases: Liquid
Fixed: Temperature, K = 298.15
Fixed: Pressure, kPa = 101
Property: Mass density, kg/m3 (Liquid); method: Vibrating tube method
Solvent: Mass fraction of ethanol	Molality, mol/kg of 4-morpholinepropanesulfonic acid	Mass density, kg/m3	uncertainty
0.1	0.168	991.48	0.13
0.1	1.0176	1039.99	0.14
0.1	1.6536	1069.44	0.14
0.1	2.6197	1106.44	0.14
0.1	3.6593	1137.96	0.15
0.1	4.7693	1165.61	0.16
0.1	5.3728	1178.39	0.16
0.1	5.9903	1192.91	0.16
0.2	0.167	977.63	0.14
0.2	0.3475	989.08	0.13
0.2	1.0114	1026.19	0.13
0.2	1.7317	1059.93	0.14
0.2	2.8012	1100.39	0.14
0.2	3.4956	1121.1	0.15
0.2	4.3171	1143.73	0.15
0.2	4.9919	1160.27	0.16
0.2	5.3587	1170.03	0.16
0.3	0.2382	966.96	0.14
0.3	0.438	979.2	0.13
0.3	1.0659	1014.04	0.13
0.3	1.8344	1049.12	0.13
0.3	2.8718	1088.31	0.14
0.3	4.0285	1122.89	0.15
0.3	4.8589	1143.65	0.15
0.4	0.1804	943.98	0.14
0.4	0.3478	954.69	0.14
0.4	0.7144	976.33	0.13
0.4	1.0726	995.77	0.13
0.4	1.8537	1032.38	0.13
0.4	2.5522	1060.23	0.13
0.4	3.6008	1095.03	0.14
0.5	0.1828	922.6	0.15
0.5	0.2536	927.57	0.14
0.5	0.4018	936.66	0.14
0.5	0.7339	954.77	0.13
0.5	1.0865	972.87	0.13
0.5	1.4528	993.2	0.13
0.5	1.7848	1009.67	0.13
0.5	2.1578	1025.33	0.13
0.5	2.4853	1038.72	0.13
0.6	0.1831	900.16	0.14
0.6	0.2592	905.23	0.15
0.6	0.362	911.91	0.14
0.6	0.5514	922.99	0.14
0.6	0.7284	934.35	0.14
0.6	1.0684	953.57	0.14
0.6	1.2702	963.98	0.13
0.6	1.4357	972.51	0.13
0.6	1.5573	978.31	0.13
0.7	0.1831	879.26	0.15
0.7	0.2816	883.46	0.15
0.7	0.4021	891.48	0.15
0.7	0.4998	897.84	0.15
0.7	0.5904	903.35	0.14
0.7	0.6836	908.7	0.14
0.7	0.7491	912.79	0.14
0.8	0.0126	840.44	0.17
0.8	0.0282	841.73	0.16
0.8	0.0567	844	0.16
0.8	0.0959	846.57	0.16
0.8	0.1427	849.94	0.16
0.8	0.1762	852.2	0.16
0.8	0.2024	854.31	0.16
0.9	0.0046	814.68	0.17
0.9	0.0069	814.87	0.17
0.9	0.0129	815.41	0.17
0.9	0.0174	815.65	0.17
0.9	0.0219	816	0.17
0.9	0.0261	816.37	0.17
0.9	0.0337	816.94	0.17

System: 1,4-dioxane + 4-morpholinepropanesulfonic acid + water; phases: Liquid, Crystal
Fixed: Pressure, kPa = 101
Fixed: Temperature, K = 298.15
Property: Molality, mol/kg of 4-morpholinepropanesulfonic acid (Liquid); method: visual
Solvent: Mass fraction of 1,4-dioxane	Molality, mol/kg of 4-morpholinepropanesulfonic acid	uncertainty
0	7.42	0.12
0.1	6.39	0.1
0.2	5.54	0.09
0.3	4.59	0.07

System: 1,4-dioxane + 4-morpholinepropanesulfonic acid + water; phases: Liquid, Crystal
Fixed: Temperature, K = 298.15
Fixed: Pressure, kPa = 101
Property: Mass density, kg/m3 (Liquid); method: Vibrating tube method
Solvent: Mass fraction of 1,4-dioxane	Mass density, kg/m3	uncertainty
0	1223.83	0.22
0.1	1213.17	0.23
0.2	1205.26	0.24
0.3	1189.34	0.26

System: 1,4-dioxane + 4-morpholinepropanesulfonic acid + water; phases: Liquid
Fixed: Temperature, K = 298.15
Fixed: Pressure, kPa = 101
Property: Mass density, kg/m3 (Liquid); method: Vibrating tube method
Solvent: Mass fraction of 1,4-dioxane	Molality, mol/kg of 4-morpholinepropanesulfonic acid	Mass density, kg/m3	uncertainty
0.1	0.1664	1016.48	0.15
0.1	0.3754	1029.02	0.16
0.1	0.9269	1058.57	0.16
0.1	1.6289	1090.24	0.17
0.1	2.5821	1125.32	0.18
0.1	3.6029	1158.72	0.19
0.1	4.8717	1184.88	0.2
0.1	5.6764	1201.04	0.21
0.1	6.4544	1213.27	0.21
0.2	0.1597	1024.25	0.15
0.2	0.6247	1050.7	0.16
0.2	1.5447	1093.94	0.17
0.2	2.2361	1120.3	0.18
0.2	3.2692	1152.42	0.19
0.2	4.0981	1173.44	0.2
0.2	4.7991	1188.87	0.2
0.2	5.2826	1199.92	0.21
0.3	0.1831	1033.2	0.16
0.3	0.3396	1042.35	0.16
0.3	0.8642	1070.12	0.17
0.3	1.7254	1107.65	0.18
0.3	2.1969	1124.9	0.18
0.3	3.1317	1153.97	0.19
0.3	4.1189	1178.96	0.2
