Measured thermophysical data. Thermodynamic activity measurements in nickel-base industrial alloys and steels by Knudsen cell  Mass spectrometry
Source: J. Chem. Thermodyn., 2017, 10.1016/j.jct.2017.01.015
Compound 1: copper, Cu, InChI=1S/Cu
Compound 2: nickel, Ni, InChI=1S/Ni
Compound 3: chromium, Cr, InChI=1S/Cr
Compound 4: iron, Fe, InChI=1S/Fe

System: copper; phases: Crystal, Gas
Property: Molar enthalpy of vaporization or sublimation, kJ/mol (Crystal); method: Derived by Second law
Temperature, K	Molar enthalpy of vaporization or sublimation, kJ/mol	uncertainty
298	332.7	11.8

System: nickel; phases: Crystal, Gas
Property: Molar enthalpy of vaporization or sublimation, kJ/mol (Crystal); method: Derived by Second law
Temperature, K	Molar enthalpy of vaporization or sublimation, kJ/mol	uncertainty
298	432.7	12

System: chromium; phases: Crystal, Gas
Property: Molar enthalpy of vaporization or sublimation, kJ/mol (Crystal); method: Derived by Second law
Temperature, K	Molar enthalpy of vaporization or sublimation, kJ/mol	uncertainty
298	371.4	7.1

System: iron; phases: Crystal, Gas
Property: Molar enthalpy of vaporization or sublimation, kJ/mol (Crystal); method: Derived by Second law
Temperature, K	Molar enthalpy of vaporization or sublimation, kJ/mol	uncertainty
298	408.6	12.3
