Measured thermophysical data. Volumetric and viscometric properties of amino acids in aqueous maltitol solutions at T = (293.15-323.15) K
Source: J. Chem. Thermodyn., 2017, 10.1016/j.jct.2017.02.024
Compound 1: 2-aminoacetic acid, C2H5NO2, InChI=1S/C2H5NO2/c3-1-2(4)5/h1,3H2,(H,4,5), purity 99%
Compound 2: (S)-2-aminopropanoic acid, C3H7NO2, InChI=1S/C3H7NO2/c1-2(4)3(5)6/h2H,4H2,1H3,(H,5,6)/t2-/m0/s1, purity 99%
Compound 3: L-valine, C5H11NO2, InChI=1S/C5H11NO2/c1-3(2)4(6)5(7)8/h3-4H,6H2,1-2H3,(H,7,8)/t4-/m0/s1, purity 99%
Compound 4: L-threonine, C4H9NO3, InChI=1S/C4H9NO3/c1-2(6)3(5)4(7)8/h2-3,6H,5H2,1H3,(H,7,8)/t2-,3+/m1/s1, purity 99%
Compound 5: L-arginine, C6H14N4O2, InChI=1S/C6H14N4O2/c7-4(5(11)12)2-1-3-10-6(8)9/h4H,1-3,7H2,(H,11,12)(H4,8,9,10)/t4-/m0/s1, purity 98%
Compound 6: 4-O-.alpha.-D-glucopyranosyl-D-glucitol, C12H24O11, InChI=1S/C12H24O11/c13-1-4(16)7(18)11(5(17)2-14)23-12-10(21)9(20)8(19)6(3-15)22-12/h4-21H,1-3H2/t4-,5+,6+,7+,8+,9-,10+,11+,12+/m0/s1, purity 99%
Compound 7: water, H2O, InChI=1S/H2O/h1H2

System: 2-aminoacetic acid + 4-O-.alpha.-D-glucopyranosyl-D-glucitol + water; phases: Liquid
Fixed: Pressure, kPa = 100
Property: Mass density, kg/m3 (Liquid); method: Vibrating tube method
Solvent: Molality, mol/kg of 4-O-.alpha.-D-glucopyranosyl-D-glucitol	Temperature, K	Molality, mol/kg of 2-aminoacetic acid	Mass density, kg/m3	uncertainty
0	293.15	0	998.18	1.43
0	293.15	0.1	1001.39	1.43
0	293.15	0.2	1004.56	1.43
0	293.15	0.3	1007.67	1.43
0	293.15	0.4	1010.73	1.43
0	293.15	0.5	1013.74	1.43
0	293.15	0.6	1016.72	1.43
0	293.15	0.7	1019.66	1.43
0	303.15	0	995.66	1.43
0	303.15	0.1	998.81	1.43
0	303.15	0.2	1001.91	1.43
0	303.15	0.3	1004.97	1.43
0	303.15	0.4	1007.98	1.43
0	303.15	0.5	1010.94	1.43
0	303.15	0.6	1013.87	1.43
0	303.15	0.7	1016.75	1.43
0	313.15	0	992.24	1.43
0	313.15	0.1	995.34	1.43
0	313.15	0.2	998.41	1.43
0	313.15	0.3	1001.42	1.43
0	313.15	0.4	1004.4	1.43
0	313.15	0.5	1007.32	1.43
0	313.15	0.6	1010.23	1.43
0	313.15	0.7	1013.06	1.43
0	323.15	0	988.02	1.43
0	323.15	0.1	991.09	1.43
0	323.15	0.2	994.12	1.43
0	323.15	0.3	997.11	1.43
0	323.15	0.4	1000.05	1.43
0	323.15	0.5	1002.96	1.43
0	323.15	0.6	1005.85	1.43
0	323.15	0.7	1008.69	1.43
0.2	293.15	0	1022.97	1.43
0.2	293.15	0.1	1026.11	1.43
0.2	293.15	0.2	1029.2	1.43
0.2	293.15	0.3	1032.24	1.43
0.2	293.15	0.4	1035.23	1.43
0.2	293.15	0.5	1038.16	1.43
0.2	293.15	0.6	1041.06	1.43
0.2	293.15	0.7	1043.91	1.43
0.2	303.15	0	1020.13	1.43
0.2	303.15	0.1	1023.21	1.43
0.2	303.15	0.2	1026.25	1.43
0.2	303.15	0.3	1029.23	1.43
0.2	303.15	0.4	1032.17	1.43
0.2	303.15	0.5	1035.06	1.43
0.2	303.15	0.6	1037.91	1.43
0.2	303.15	0.7	1040.71	1.43
0.2	313.15	0	1016.42	1.43
0.2	313.15	0.1	1019.46	1.43
0.2	313.15	0.2	1022.45	1.43
0.2	313.15	0.3	1025.4	1.43
0.2	313.15	0.4	1028.31	1.43
0.2	313.15	0.5	1031.17	1.43
0.2	313.15	0.6	1033.98	1.43
0.2	313.15	0.7	1036.76	1.43
0.2	323.15	0	1012.07	1.43
0.2	323.15	0.1	1015.08	1.43
0.2	323.15	0.2	1018.03	1.43
0.2	323.15	0.3	1020.94	1.43
0.2	323.15	0.4	1023.81	1.43
0.2	323.15	0.5	1026.63	1.43
0.2	323.15	0.6	1029.42	1.43
0.2	323.15	0.7	1032.17	1.43
0.4	293.15	0	1045.59	1.43
0.4	293.15	0.1	1048.67	1.42
0.4	293.15	0.2	1051.7	1.42
0.4	293.15	0.3	1054.68	1.42
0.4	293.15	0.4	1057.6	1.43
0.4	293.15	0.5	1060.49	1.42
0.4	293.15	0.6	1063.3	1.42
0.4	293.15	0.7	1066.1	1.43
0.4	303.15	0	1042.41	1.43
0.4	303.15	0.1	1045.44	1.43
0.4	303.15	0.2	1048.42	1.43
0.4	303.15	0.3	1051.34	1.43
0.4	303.15	0.4	1054.23	1.43
0.4	303.15	0.5	1057.06	1.43
0.4	303.15	0.6	1059.84	1.43
0.4	303.15	0.7	1062.59	1.43
0.4	313.15	0	1038.47	1.43
0.4	313.15	0.1	1041.45	1.42
0.4	313.15	0.2	1044.38	1.42
0.4	313.15	0.3	1047.27	1.43
0.4	313.15	0.4	1050.11	1.43
0.4	313.15	0.5	1052.91	1.43
0.4	313.15	0.6	1055.66	1.43
0.4	313.15	0.7	1058.36	1.42
0.4	323.15	0	1033.97	1.41
0.4	323.15	0.1	1036.91	1.42
0.4	323.15	0.2	1039.8	1.42
0.4	323.15	0.3	1042.65	1.42
0.4	323.15	0.4	1045.46	1.45
0.4	323.15	0.5	1048.22	1.42
0.4	323.15	0.6	1050.93	1.44
0.4	323.15	0.7	1053.61	1.42
0.6	293.15	0	1066.2	1.42
0.6	293.15	0.1	1069.2	1.43
0.6	293.15	0.2	1072.14	1.43
0.6	293.15	0.3	1075.03	1.43
0.6	293.15	0.4	1077.86	1.42
0.6	293.15	0.5	1080.65	1.43
0.6	293.15	0.6	1083.39	1.43
0.6	293.15	0.7	1086.09	1.43
0.6	303.15	0	1062.88	1.42
0.6	303.15	0.1	1065.83	1.42
0.6	303.15	0.2	1068.72	1.42
0.6	303.15	0.3	1071.56	1.42
0.6	303.15	0.4	1074.35	1.42
0.6	303.15	0.5	1077.1	1.42
0.6	303.15	0.6	1079.79	1.42
0.6	303.15	0.7	1082.45	1.42
0.6	313.15	0	1058.71	1.42
0.6	313.15	0.1	1061.62	1.42
0.6	313.15	0.2	1064.49	1.42
0.6	313.15	0.3	1067.31	1.42
0.6	313.15	0.4	1070.08	1.42
0.6	313.15	0.5	1072.82	1.42
0.6	313.15	0.6	1075.51	1.42
0.6	313.15	0.7	1078.15	1.42
0.6	323.15	0	1054.01	1.42
0.6	323.15	0.1	1056.89	1.42
0.6	323.15	0.2	1059.72	1.42
0.6	323.15	0.3	1062.51	1.42
0.6	323.15	0.4	1065.26	1.42
0.6	323.15	0.5	1067.96	1.43
0.6	323.15	0.6	1070.62	1.43
0.6	323.15	0.7	1073.23	1.42
0.8	293.15	0	1085.31	1.42
0.8	293.15	0.1	1088.22	1.42
0.8	293.15	0.2	1091.09	1.42
0.8	293.15	0.3	1093.9	1.42
0.8	293.15	0.4	1096.65	1.43
0.8	293.15	0.5	1099.35	1.43
0.8	293.15	0.6	1102	1.42
0.8	293.15	0.7	1104.61	1.42
0.8	303.15	0	1081.69	1.42
0.8	303.15	0.1	1084.56	1.42
0.8	303.15	0.2	1087.39	1.42
0.8	303.15	0.3	1090.15	1.42
0.8	303.15	0.4	1092.87	1.42
0.8	303.15	0.5	1095.54	1.42
0.8	303.15	0.6	1098.16	1.42
0.8	303.15	0.7	1100.74	1.42
0.8	313.15	0	1077.36	1.42
0.8	313.15	0.1	1080.21	1.42
0.8	313.15	0.2	1083.01	1.42
0.8	313.15	0.3	1085.76	1.42
0.8	313.15	0.4	1088.45	1.42
0.8	313.15	0.5	1091.1	1.42
0.8	313.15	0.6	1093.7	1.42
0.8	313.15	0.7	1096.26	1.42
0.8	323.15	0	1072.55	1.42
0.8	323.15	0.1	1075.37	1.42
0.8	323.15	0.2	1078.15	1.42
0.8	323.15	0.3	1080.88	1.42
0.8	323.15	0.4	1083.56	1.43
0.8	323.15	0.5	1086.21	1.42
0.8	323.15	0.6	1088.8	1.42
0.8	323.15	0.7	1091.36	1.42
1	293.15	0	1102.86	1.42
1	293.15	0.1	1105.73	1.42
1	293.15	0.2	1108.54	1.42
1	293.15	0.3	1111.29	1.42
1	293.15	0.4	1113.99	1.42
1	293.15	0.5	1116.63	1.42
1	293.15	0.6	1119.24	1.42
1	293.15	0.7	1121.77	1.42
1	303.15	0	1099.07	1.42
1	303.15	0.1	1101.89	1.42
1	303.15	0.2	1104.65	1.42
1	303.15	0.3	1107.38	1.42
1	303.15	0.4	1110.02	1.42
1	303.15	0.5	1112.65	1.42
1	303.15	0.6	1115.19	1.42
1	303.15	0.7	1117.71	1.42
1	313.15	0	1094.66	1.42
1	313.15	0.1	1097.45	1.42
1	313.15	0.2	1100.19	1.42
1	313.15	0.3	1102.88	1.42
1	313.15	0.4	1105.5	1.42
1	313.15	0.5	1108.1	1.42
1	313.15	0.6	1110.61	1.42
1	313.15	0.7	1113.09	1.42
1	323.15	0	1089.71	1.42
1	323.15	0.1	1092.47	1.42
1	323.15	0.2	1095.19	1.42
1	323.15	0.3	1097.85	1.42
1	323.15	0.4	1100.48	1.42
1	323.15	0.5	1103.06	1.42
1	323.15	0.6	1105.59	1.42
1	323.15	0.7	1108.1	1.42

System: 2-aminoacetic acid + 4-O-.alpha.-D-glucopyranosyl-D-glucitol + water; phases: Liquid
Fixed: Pressure, kPa = 100
Property: Viscosity, Pa*s (Liquid); method: Capillary tube (Ostwald; Ubbelohde) method
Solvent: Molality, mol/kg of 4-O-.alpha.-D-glucopyranosyl-D-glucitol	Temperature, K	Molality, mol/kg of 2-aminoacetic acid	Viscosity, Pa*s	uncertainty
0	293.15	0	0.001002	4.1e-05
0	293.15	0.1	0.001014	4.1e-05
0	293.15	0.2	0.001027	4.2e-05
0	293.15	0.3	0.001041	4.2e-05
0	293.15	0.4	0.001055	4.3e-05
0	293.15	0.5	0.00107	4.4e-05
0	293.15	0.6	0.001085	4.4e-05
0	293.15	0.7	0.001101	4.5e-05
0	303.15	0	0.000798	3.2e-05
0	303.15	0.1	0.000809	3.3e-05
0	303.15	0.2	0.00082	3.3e-05
0	303.15	0.3	0.000832	3.4e-05
0	303.15	0.4	0.000844	3.4e-05
0	303.15	0.5	0.000856	3.5e-05
0	303.15	0.6	0.000868	3.5e-05
0	303.15	0.7	0.000881	3.6e-05
0	313.15	0	0.000654	2.7e-05
0	313.15	0.1	0.000663	2.7e-05
0	313.15	0.2	0.000673	2.7e-05
0	313.15	0.3	0.000683	2.8e-05
0	313.15	0.4	0.000693	2.8e-05
0	313.15	0.5	0.000704	2.9e-05
0	313.15	0.6	0.000714	2.9e-05
0	313.15	0.7	0.000724	2.9e-05
0	323.15	0	0.000547	2.2e-05
0	323.15	0.1	0.000556	2.3e-05
0	323.15	0.2	0.000565	2.3e-05
0	323.15	0.3	0.000574	2.3e-05
0	323.15	0.4	0.000582	2.4e-05
0	323.15	0.5	0.000591	2.4e-05
0	323.15	0.6	0.0006	2.4e-05
0	323.15	0.7	0.00061	2.5e-05
0.2	293.15	0	0.001202	4.9e-05
0.2	293.15	0.1	0.001219	5e-05
0.2	293.15	0.2	0.001237	5e-05
0.2	293.15	0.3	0.001258	5.1e-05
0.2	293.15	0.4	0.001279	5.2e-05
0.2	293.15	0.5	0.001302	5.3e-05
0.2	293.15	0.6	0.001327	5.4e-05
0.2	293.15	0.7	0.001353	5.5e-05
0.2	303.15	0	0.00095	3.9e-05
0.2	303.15	0.1	0.000963	3.9e-05
0.2	303.15	0.2	0.00098	4e-05
0.2	303.15	0.3	0.000997	4.1e-05
0.2	303.15	0.4	0.001014	4.1e-05
0.2	303.15	0.5	0.001034	4.2e-05
0.2	303.15	0.6	0.001053	4.3e-05
0.2	303.15	0.7	0.001074	4.4e-05
0.2	313.15	0	0.00077	3.1e-05
0.2	313.15	0.1	0.000782	3.2e-05
0.2	313.15	0.2	0.000796	3.2e-05
0.2	313.15	0.3	0.000811	3.3e-05
0.2	313.15	0.4	0.000826	3.4e-05
0.2	313.15	0.5	0.000842	3.4e-05
0.2	313.15	0.6	0.000859	3.5e-05
0.2	313.15	0.7	0.000876	3.6e-05
0.2	323.15	0	0.000641	2.6e-05
0.2	323.15	0.1	0.000652	2.7e-05
0.2	323.15	0.2	0.000664	2.7e-05
0.2	323.15	0.3	0.000676	2.8e-05
0.2	323.15	0.4	0.00069	2.8e-05
0.2	323.15	0.5	0.000704	2.9e-05
0.2	323.15	0.6	0.000718	2.9e-05
0.2	323.15	0.7	0.000733	3e-05
0.4	293.15	0	0.001457	5.9e-05
0.4	293.15	0.1	0.001479	6e-05
0.4	293.15	0.2	0.001501	6.1e-05
0.4	293.15	0.3	0.001525	6.2e-05
0.4	293.15	0.4	0.001549	6.3e-05
0.4	293.15	0.5	0.001574	6.4e-05
0.4	293.15	0.6	0.0016	6.5e-05
0.4	293.15	0.7	0.001627	6.7e-05
0.4	303.15	0	0.001134	4.6e-05
0.4	303.15	0.1	0.001152	4.7e-05
0.4	303.15	0.2	0.001171	4.8e-05
0.4	303.15	0.3	0.00119	4.8e-05
0.4	303.15	0.4	0.001209	4.9e-05
0.4	303.15	0.5	0.001229	5e-05
0.4	303.15	0.6	0.001249	5.1e-05
0.4	303.15	0.7	0.001271	5.2e-05
0.4	313.15	0	0.000909	3.7e-05
0.4	313.15	0.1	0.000925	3.8e-05
0.4	313.15	0.2	0.000941	3.8e-05
0.4	313.15	0.3	0.000957	3.9e-05
0.4	313.15	0.4	0.000973	4e-05
0.4	313.15	0.5	0.00099	4e-05
0.4	313.15	0.6	0.001007	4.1e-05
0.4	313.15	0.7	0.001024	4.2e-05
0.4	323.15	0	0.000747	3e-05
0.4	323.15	0.1	0.00076	3.1e-05
0.4	323.15	0.2	0.000773	3.2e-05
0.4	323.15	0.3	0.000788	3.2e-05
0.4	323.15	0.4	0.000802	3.3e-05
0.4	323.15	0.5	0.000815	3.3e-05
0.4	323.15	0.6	0.00083	3.4e-05
0.4	323.15	0.7	0.000844	3.4e-05
0.6	293.15	0	0.001761	7.1e-05
0.6	293.15	0.1	0.001789	7.3e-05
0.6	293.15	0.2	0.001819	7.4e-05
0.6	293.15	0.3	0.00185	7.5e-05
0.6	293.15	0.4	0.001883	7.7e-05
0.6	293.15	0.5	0.001917	7.8e-05
0.6	293.15	0.6	0.001952	7.9e-05
0.6	293.15	0.7	0.00199	8.1e-05
0.6	303.15	0	0.001353	5.5e-05
0.6	303.15	0.1	0.001376	5.6e-05
0.6	303.15	0.2	0.0014	5.7e-05
0.6	303.15	0.3	0.001425	5.8e-05
0.6	303.15	0.4	0.001452	5.9e-05
0.6	303.15	0.5	0.001479	6e-05
0.6	303.15	0.6	0.001507	6.1e-05
0.6	303.15	0.7	0.001536	6.2e-05
0.6	313.15	0	0.001073	4.4e-05
0.6	313.15	0.1	0.001093	4.4e-05
0.6	313.15	0.2	0.001113	4.5e-05
0.6	313.15	0.3	0.001134	4.6e-05
0.6	313.15	0.4	0.001155	4.7e-05
0.6	313.15	0.5	0.001177	4.8e-05
0.6	313.15	0.6	0.001198	4.9e-05
0.6	313.15	0.7	0.001221	5e-05
0.6	323.15	0	0.000874	3.6e-05
0.6	323.15	0.1	0.000892	3.6e-05
0.6	323.15	0.2	0.000909	3.7e-05
0.6	323.15	0.3	0.000927	3.8e-05
0.6	323.15	0.4	0.000944	3.8e-05
0.6	323.15	0.5	0.000962	3.9e-05
0.6	323.15	0.6	0.00098	4e-05
0.6	323.15	0.7	0.000999	4.1e-05
0.8	293.15	0	0.002142	8.7e-05
0.8	293.15	0.1	0.002178	8.9e-05
0.8	293.15	0.2	0.002218	9e-05
0.8	293.15	0.3	0.002261	9.2e-05
0.8	293.15	0.4	0.002305	9.4e-05
0.8	293.15	0.5	0.002353	9.6e-05
0.8	293.15	0.6	0.002401	9.8e-05
0.8	293.15	0.7	0.00245	0.0001
0.8	303.15	0	0.001626	6.6e-05
0.8	303.15	0.1	0.001657	6.7e-05
0.8	303.15	0.2	0.001689	6.9e-05
0.8	303.15	0.3	0.001722	7e-05
0.8	303.15	0.4	0.001756	7.1e-05
0.8	303.15	0.5	0.001793	7.3e-05
0.8	303.15	0.6	0.001831	7.4e-05
0.8	303.15	0.7	0.001869	7.6e-05
0.8	313.15	0	0.001277	5.2e-05
0.8	313.15	0.1	0.001302	5.3e-05
0.8	313.15	0.2	0.001329	5.4e-05
0.8	313.15	0.3	0.001356	5.5e-05
0.8	313.15	0.4	0.001384	5.6e-05
0.8	313.15	0.5	0.001413	5.7e-05
0.8	313.15	0.6	0.001445	5.9e-05
0.8	313.15	0.7	0.001476	6e-05
0.8	323.15	0	0.001027	4.2e-05
0.8	323.15	0.1	0.001049	4.3e-05
0.8	323.15	0.2	0.001071	4.4e-05
0.8	323.15	0.3	0.001094	4.5e-05
0.8	323.15	0.4	0.001119	4.5e-05
0.8	323.15	0.5	0.001143	4.6e-05
0.8	323.15	0.6	0.001169	4.8e-05
0.8	323.15	0.7	0.001194	4.9e-05
1	293.15	0	0.00261	0.000106
1	293.15	0.1	0.002658	0.000108
1	293.15	0.2	0.002706	0.00011
1	293.15	0.3	0.002756	0.000112
1	293.15	0.4	0.002806	0.000114
1	293.15	0.5	0.002858	0.000116
1	293.15	0.6	0.002911	0.000118
1	293.15	0.7	0.002964	0.00012
1	303.15	0	0.001954	7.9e-05
1	303.15	0.1	0.001993	8.1e-05
1	303.15	0.2	0.002031	8.3e-05
1	303.15	0.3	0.00207	8.4e-05
1	303.15	0.4	0.002108	8.6e-05
1	303.15	0.5	0.002149	8.7e-05
1	303.15	0.6	0.002188	8.9e-05
1	303.15	0.7	0.00223	9.1e-05
1	313.15	0	0.001511	6.1e-05
1	313.15	0.1	0.001542	6.3e-05
1	313.15	0.2	0.001574	6.4e-05
1	313.15	0.3	0.001605	6.5e-05
1	313.15	0.4	0.001638	6.7e-05
1	313.15	0.5	0.001668	6.8e-05
1	313.15	0.6	0.0017	6.9e-05
1	313.15	0.7	0.001733	7e-05
1	323.15	0	0.001204	4.9e-05
1	323.15	0.1	0.001231	5e-05
1	323.15	0.2	0.001257	5.1e-05
1	323.15	0.3	0.001283	5.2e-05
1	323.15	0.4	0.00131	5.3e-05
1	323.15	0.5	0.001336	5.4e-05
1	323.15	0.6	0.001362	5.5e-05
1	323.15	0.7	0.001387	5.6e-05

System: (S)-2-aminopropanoic acid + 4-O-.alpha.-D-glucopyranosyl-D-glucitol + water; phases: Liquid
Fixed: Pressure, kPa = 100
Property: Mass density, kg/m3 (Liquid); method: Vibrating tube method
Solvent: Molality, mol/kg of 4-O-.alpha.-D-glucopyranosyl-D-glucitol	Temperature, K	Molality, mol/kg of (S)-2-aminopropanoic acid	Mass density, kg/m3	uncertainty
0	293.15	0	998.18	1.43
0	293.15	0.1	1001.06	1.43
0	293.15	0.2	1003.89	1.43
0	293.15	0.3	1006.66	1.43
0	293.15	0.401	1009.41	1.43
0	293.15	0.5	1012.07	1.43
0	293.15	0.6	1014.71	1.43
0	293.15	0.7	1017.29	1.43
0	303.15	0	995.66	1.43
0	303.15	0.1	998.5	1.43
0	303.15	0.2	1001.29	1.43
0	303.15	0.3	1004.03	1.43
0	303.15	0.401	1006.73	1.43
0	303.15	0.5	1009.37	1.43
0	303.15	0.6	1011.97	1.43
0	303.15	0.7	1014.52	1.43
0	313.15	0	992.24	1.43
0	313.15	0.1	995.04	1.43
0	313.15	0.2	997.81	1.43
0	313.15	0.3	1000.5	1.43
0	313.15	0.401	1003.18	1.43
0	313.15	0.5	1005.79	1.43
0	313.15	0.6	1008.36	1.43
0	313.15	0.7	1010.9	1.43
0	323.15	0	988.02	1.43
0	323.15	0.1	990.8	1.43
0	323.15	0.2	993.55	1.43
0	323.15	0.3	996.24	1.43
0	323.15	0.401	998.9	1.43
0	323.15	0.5	1001.49	1.43
0	323.15	0.6	1004.08	1.43
0	323.15	0.7	1006.6	1.43
0.2	293.15	0	1022.97	1.43
0.2	293.15	0.1	1025.73	1.43
0.2	293.15	0.2	1028.44	1.43
0.2	293.15	0.3	1031.09	1.43
0.2	293.15	0.401	1033.69	1.43
0.2	293.15	0.5	1036.26	1.43
0.2	293.15	0.6	1038.77	1.43
0.2	293.15	0.7	1041.24	1.43
0.2	303.15	0	1020.13	1.43
0.2	303.15	0.1	1022.84	1.43
0.2	303.15	0.2	1025.5	1.43
0.2	303.15	0.3	1028.12	1.43
0.2	303.15	0.401	1030.69	1.43
0.2	303.15	0.5	1033.21	1.43
0.2	303.15	0.6	1035.69	1.43
0.2	303.15	0.7	1038.14	1.43
0.2	313.15	0	1016.42	1.43
0.2	313.15	0.1	1019.09	1.43
0.2	313.15	0.2	1021.73	1.43
0.2	313.15	0.3	1024.32	1.43
0.2	313.15	0.401	1026.86	1.43
0.2	313.15	0.5	1029.37	1.43
0.2	313.15	0.6	1031.83	1.43
0.2	313.15	0.7	1034.25	1.43
0.2	323.15	0	1012.07	1.43
0.2	323.15	0.1	1014.72	1.43
0.2	323.15	0.2	1017.32	1.43
0.2	323.15	0.3	1019.88	1.43
0.2	323.15	0.401	1022.4	1.43
0.2	323.15	0.5	1024.89	1.43
0.2	323.15	0.6	1027.35	1.43
0.2	323.15	0.7	1029.77	1.43
0.4	293.15	0	1045.59	1.43
0.4	293.15	0.1	1048.23	1.43
0.4	293.15	0.2	1050.81	1.43
0.4	293.15	0.3	1053.36	1.43
0.4	293.15	0.401	1055.84	1.42
0.4	293.15	0.5	1058.28	1.43
0.4	293.15	0.6	1060.66	1.43
0.4	293.15	0.7	1063	1.43
0.4	303.15	0	1042.41	1.43
0.4	303.15	0.1	1045.02	1.43
0.4	303.15	0.2	1047.57	1.43
0.4	303.15	0.3	1050.07	1.42
0.4	303.15	0.401	1052.53	1.42
0.4	303.15	0.5	1054.94	1.42
0.4	303.15	0.6	1057.31	1.42
0.4	303.15	0.7	1059.62	1.42
0.4	313.15	0	1038.47	1.42
0.4	313.15	0.1	1041.04	1.42
0.4	313.15	0.2	1043.55	1.42
0.4	313.15	0.3	1046.04	1.42
0.4	313.15	0.401	1048.47	1.42
0.4	313.15	0.5	1050.87	1.42
0.4	313.15	0.6	1053.22	1.42
0.4	313.15	0.7	1055.54	1.42
0.4	323.15	0	1033.97	1.41
0.4	323.15	0.1	1036.51	1.42
0.4	323.15	0.2	1038.99	1.42
0.4	323.15	0.3	1041.44	1.42
0.4	323.15	0.401	1043.86	1.44
0.4	323.15	0.5	1046.24	1.45
0.4	323.15	0.6	1048.59	1.44
0.4	323.15	0.7	1050.9	1.43
0.6	293.15	0	1066.2	1.43
0.6	293.15	0.1	1068.74	1.42
0.6	293.15	0.2	1071.23	1.43
0.6	293.15	0.3	1073.66	1.43
0.6	293.15	0.401	1076.04	1.42
0.6	293.15	0.5	1078.37	1.43
0.6	293.15	0.6	1080.65	1.43
0.6	293.15	0.7	1082.89	1.42
0.6	303.15	0	1062.88	1.42
0.6	303.15	0.1	1065.39	1.42
0.6	303.15	0.2	1067.84	1.42
0.6	303.15	0.3	1070.24	1.42
0.6	303.15	0.401	1072.59	1.42
0.6	303.15	0.5	1074.9	1.42
0.6	303.15	0.6	1077.16	1.42
0.6	303.15	0.7	1079.37	1.42
0.6	313.15	0	1058.71	1.42
0.6	313.15	0.1	1061.18	1.42
0.6	313.15	0.2	1063.61	1.42
0.6	313.15	0.3	1066	1.42
0.6	313.15	0.401	1068.33	1.42
0.6	313.15	0.5	1070.63	1.42
0.6	313.15	0.6	1072.88	1.42
0.6	313.15	0.7	1075.11	1.42
0.6	323.15	0	1054.01	1.42
0.6	323.15	0.1	1056.45	1.42
0.6	323.15	0.2	1058.86	1.42
0.6	323.15	0.3	1061.22	1.42
0.6	323.15	0.401	1063.56	1.42
0.6	323.15	0.5	1065.85	1.43
0.6	323.15	0.6	1068.11	1.42
0.6	323.15	0.7	1070.34	1.42
0.8	293.15	0	1085.31	1.42
0.8	293.15	0.1	1087.75	1.42
0.8	293.15	0.2	1090.13	1.42
0.8	293.15	0.3	1092.45	1.43
0.8	293.15	0.401	1094.71	1.42
0.8	293.15	0.5	1096.92	1.42
0.8	293.15	0.6	1099.09	1.42
0.8	293.15	0.7	1101.22	1.42
0.8	303.15	0	1081.69	1.42
0.8	303.15	0.1	1084.08	1.42
0.8	303.15	0.2	1086.42	1.42
0.8	303.15	0.3	1088.71	1.42
0.8	303.15	0.401	1090.95	1.42
0.8	303.15	0.5	1093.14	1.42
0.8	303.15	0.6	1095.29	1.42
0.8	303.15	0.7	1097.39	1.42
0.8	313.15	0	1077.36	1.42
0.8	313.15	0.1	1079.73	1.42
0.8	313.15	0.2	1082.04	1.42
0.8	313.15	0.3	1084.32	1.42
0.8	313.15	0.401	1086.55	1.42
0.8	313.15	0.5	1088.75	1.42
0.8	313.15	0.6	1090.9	1.42
0.8	313.15	0.7	1093.01	1.42
0.8	323.15	0	1072.55	1.42
0.8	323.15	0.1	1074.88	1.42
0.8	323.15	0.2	1077.17	1.42
0.8	323.15	0.3	1079.43	1.42
0.8	323.15	0.401	1081.66	1.43
0.8	323.15	0.5	1083.84	1.42
0.8	323.15	0.6	1086	1.43
0.8	323.15	0.7	1088.11	1.42
1	293.15	0	1102.86	1.42
1	293.15	0.1	1105.19	1.42
1	293.15	0.2	1107.46	1.42
1	293.15	0.3	1109.68	1.42
1	293.15	0.401	1111.86	1.42
1	293.15	0.5	1113.98	1.42
1	293.15	0.6	1116.06	1.42
1	293.15	0.7	1118.09	1.42
1	303.15	0	1099.07	1.42
1	303.15	0.1	1101.36	1.42
1	303.15	0.2	1103.6	1.42
1	303.15	0.3	1105.81	1.42
1	303.15	0.401	1107.96	1.42
1	303.15	0.5	1110.07	1.42
1	303.15	0.6	1112.13	1.42
1	303.15	0.7	1114.15	1.42
1	313.15	0	1094.66	1.42
1	313.15	0.1	1096.92	1.42
1	313.15	0.2	1099.13	1.42
1	313.15	0.3	1101.31	1.42
1	313.15	0.401	1103.45	1.42
1	313.15	0.5	1105.54	1.42
1	313.15	0.6	1107.59	1.42
1	313.15	0.7	1109.6	1.42
1	323.15	0	1089.71	1.42
1	323.15	0.1	1091.94	1.42
1	323.15	0.2	1094.13	1.42
1	323.15	0.3	1096.3	1.42
1	323.15	0.401	1098.42	1.42
1	323.15	0.5	1100.51	1.42
1	323.15	0.6	1102.57	1.42
1	323.15	0.7	1104.6	1.42

System: (S)-2-aminopropanoic acid + 4-O-.alpha.-D-glucopyranosyl-D-glucitol + water; phases: Liquid
Fixed: Pressure, kPa = 100
Property: Viscosity, Pa*s (Liquid); method: Capillary tube (Ostwald; Ubbelohde) method
Solvent: Molality, mol/kg of 4-O-.alpha.-D-glucopyranosyl-D-glucitol	Temperature, K	Molality, mol/kg of (S)-2-aminopropanoic acid	Viscosity, Pa*s	uncertainty
0	293.15	0	0.001002	4.1e-05
0	293.15	0.1	0.001027	4.2e-05
0	293.15	0.2	0.001053	4.3e-05
0	293.15	0.3	0.001079	4.4e-05
0	293.15	0.4	0.001106	4.5e-05
0	293.15	0.5	0.001134	4.6e-05
0	293.15	0.6	0.001163	4.7e-05
0	293.15	0.7	0.001193	4.9e-05
0	303.15	0	0.000798	3.2e-05
0	303.15	0.1	0.000817	3.3e-05
0	303.15	0.2	0.000837	3.4e-05
0	303.15	0.3	0.000857	3.5e-05
0	303.15	0.4	0.000878	3.6e-05
0	303.15	0.5	0.000898	3.7e-05
0	303.15	0.6	0.000921	3.7e-05
0	303.15	0.7	0.000943	3.8e-05
0	313.15	0	0.000654	2.7e-05
0	313.15	0.1	0.000669	2.7e-05
0	313.15	0.2	0.000684	2.8e-05
0	313.15	0.3	0.0007	2.8e-05
0	313.15	0.4	0.000716	2.9e-05
0	313.15	0.5	0.000733	3e-05
0	313.15	0.6	0.000751	3.1e-05
0	313.15	0.7	0.000768	3.1e-05
0	323.15	0	0.000547	2.2e-05
0	323.15	0.1	0.000559	2.3e-05
0	323.15	0.2	0.000571	2.3e-05
0	323.15	0.3	0.000584	2.4e-05
0	323.15	0.4	0.000597	2.4e-05
0	323.15	0.5	0.000611	2.5e-05
0	323.15	0.6	0.000624	2.5e-05
0	323.15	0.7	0.000638	2.6e-05
0.2	293.15	0	0.001202	4.9e-05
0.2	293.15	0.1	0.001232	5e-05
0.2	293.15	0.2	0.001264	5.1e-05
0.2	293.15	0.3	0.001297	5.3e-05
0.2	293.15	0.4	0.001331	5.4e-05
0.2	293.15	0.5	0.001365	5.5e-05
0.2	293.15	0.6	0.0014	5.7e-05
0.2	293.15	0.7	0.001434	5.8e-05
0.2	303.15	0	0.00095	3.9e-05
0.2	303.15	0.1	0.000974	4e-05
0.2	303.15	0.2	0.000997	4.1e-05
0.2	303.15	0.3	0.001022	4.2e-05
0.2	303.15	0.4	0.001047	4.3e-05
0.2	303.15	0.5	0.001072	4.4e-05
0.2	303.15	0.6	0.001098	4.5e-05
0.2	303.15	0.7	0.001124	4.6e-05
0.2	313.15	0	0.00077	3.1e-05
0.2	313.15	0.1	0.000788	3.2e-05
0.2	313.15	0.2	0.000807	3.3e-05
0.2	313.15	0.3	0.000826	3.4e-05
0.2	313.15	0.4	0.000846	3.4e-05
0.2	313.15	0.5	0.000865	3.5e-05
0.2	313.15	0.6	0.000886	3.6e-05
0.2	313.15	0.7	0.000906	3.7e-05
0.2	323.15	0	0.000641	2.6e-05
0.2	323.15	0.1	0.000655	2.7e-05
0.2	323.15	0.2	0.00067	2.7e-05
0.2	323.15	0.3	0.000687	2.8e-05
0.2	323.15	0.4	0.000702	2.9e-05
0.2	323.15	0.5	0.000718	2.9e-05
0.2	323.15	0.6	0.000734	3e-05
0.2	323.15	0.7	0.00075	3.1e-05
0.4	293.15	0	0.001457	6e-05
0.4	293.15	0.1	0.001498	6.1e-05
0.4	293.15	0.2	0.001539	6.2e-05
0.4	293.15	0.3	0.001581	6.4e-05
0.4	293.15	0.4	0.001626	6.6e-05
0.4	293.15	0.5	0.001672	6.8e-05
0.4	293.15	0.6	0.001719	7e-05
0.4	293.15	0.7	0.001766	7.2e-05
0.4	303.15	0	0.001134	4.6e-05
0.4	303.15	0.1	0.001165	4.7e-05
0.4	303.15	0.2	0.001195	4.9e-05
0.4	303.15	0.3	0.001228	5e-05
0.4	303.15	0.4	0.001261	5.1e-05
0.4	303.15	0.5	0.001295	5.3e-05
0.4	303.15	0.6	0.00133	5.4e-05
0.4	303.15	0.7	0.001366	5.6e-05
0.4	313.15	0	0.000909	3.7e-05
0.4	313.15	0.1	0.000932	3.8e-05
0.4	313.15	0.2	0.000956	3.9e-05
0.4	313.15	0.3	0.000981	4e-05
0.4	313.15	0.4	0.001007	4.1e-05
0.4	313.15	0.5	0.001033	4.2e-05
0.4	313.15	0.6	0.00106	4.3e-05
0.4	313.15	0.7	0.001087	4.4e-05
0.4	323.15	0	0.000747	3e-05
0.4	323.15	0.1	0.000765	3.1e-05
0.4	323.15	0.2	0.000784	3.2e-05
0.4	323.15	0.3	0.000803	3.3e-05
0.4	323.15	0.4	0.000822	3.4e-05
0.4	323.15	0.5	0.000841	3.4e-05
0.4	323.15	0.6	0.000862	3.5e-05
0.4	323.15	0.7	0.000882	3.6e-05
0.6	293.15	0	0.001761	7.1e-05
0.6	293.15	0.1	0.001812	7.4e-05
0.6	293.15	0.2	0.001868	7.6e-05
0.6	293.15	0.3	0.001924	7.8e-05
0.6	293.15	0.4	0.001983	8.1e-05
0.6	293.15	0.5	0.002043	8.3e-05
0.6	293.15	0.6	0.002105	8.6e-05
0.6	293.15	0.7	0.00217	8.8e-05
0.6	303.15	0	0.001353	5.5e-05
0.6	303.15	0.1	0.001392	5.7e-05
0.6	303.15	0.2	0.001432	5.8e-05
0.6	303.15	0.3	0.001474	6e-05
0.6	303.15	0.4	0.001516	6.2e-05
0.6	303.15	0.5	0.001561	6.3e-05
0.6	303.15	0.6	0.001605	6.5e-05
0.6	303.15	0.7	0.001652	6.7e-05
0.6	313.15	0	0.001073	4.4e-05
0.6	313.15	0.1	0.001102	4.5e-05
0.6	313.15	0.2	0.001133	4.6e-05
0.6	313.15	0.3	0.001165	4.7e-05
0.6	313.15	0.4	0.001197	4.9e-05
0.6	313.15	0.5	0.00123	5e-05
0.6	313.15	0.6	0.001264	5.1e-05
0.6	313.15	0.7	0.001299	5.3e-05
0.6	323.15	0	0.000874	3.6e-05
0.6	323.15	0.1	0.000898	3.7e-05
0.6	323.15	0.2	0.000922	3.8e-05
0.6	323.15	0.3	0.000946	3.8e-05
0.6	323.15	0.4	0.00097	3.9e-05
0.6	323.15	0.5	0.000996	4.1e-05
0.6	323.15	0.6	0.001023	4.2e-05
0.6	323.15	0.7	0.00105	4.3e-05
0.8	293.15	0	0.002142	8.7e-05
0.8	293.15	0.1	0.002212	9e-05
0.8	293.15	0.2	0.00228	9.3e-05
0.8	293.15	0.3	0.002352	9.6e-05
0.8	293.15	0.4	0.002429	9.9e-05
0.8	293.15	0.5	0.002506	0.000102
0.8	293.15	0.6	0.002585	0.000105
0.8	293.15	0.7	0.002668	0.000108
0.8	303.15	0	0.001626	6.6e-05
0.8	303.15	0.1	0.001677	6.8e-05
0.8	303.15	0.2	0.001727	7e-05
0.8	303.15	0.3	0.001779	7.2e-05
0.8	303.15	0.4	0.001835	7.5e-05
0.8	303.15	0.5	0.001891	7.7e-05
0.8	303.15	0.6	0.001948	7.9e-05
0.8	303.15	0.7	0.002007	8.2e-05
0.8	313.15	0	0.001277	5.2e-05
0.8	313.15	0.1	0.001315	5.3e-05
0.8	313.15	0.2	0.001352	5.5e-05
0.8	313.15	0.3	0.001391	5.7e-05
0.8	313.15	0.4	0.001432	5.8e-05
0.8	313.15	0.5	0.001473	6e-05
0.8	313.15	0.6	0.001515	6.2e-05
0.8	313.15	0.7	0.001558	6.3e-05
0.8	323.15	0	0.001027	4.2e-05
0.8	323.15	0.1	0.001055	4.3e-05
0.8	323.15	0.2	0.001086	4.4e-05
0.8	323.15	0.3	0.001116	4.5e-05
0.8	323.15	0.4	0.001146	4.7e-05
0.8	323.15	0.5	0.001178	4.8e-05
0.8	323.15	0.6	0.00121	4.9e-05
0.8	323.15	0.7	0.001243	5.1e-05
1	293.15	0	0.00261	0.000106
1	293.15	0.1	0.0027	0.00011
1	293.15	0.2	0.002793	0.000113
1	293.15	0.3	0.002893	0.000118
1	293.15	0.4	0.002993	0.000122
1	293.15	0.5	0.003098	0.000126
1	293.15	0.6	0.003204	0.00013
1	293.15	0.7	0.003317	0.000135
1	303.15	0	0.001954	7.9e-05
1	303.15	0.1	0.002015	8.2e-05
1	303.15	0.2	0.002081	8.5e-05
1	303.15	0.3	0.002151	8.7e-05
1	303.15	0.4	0.002226	9.1e-05
1	303.15	0.5	0.002299	9.3e-05
1	303.15	0.6	0.002371	9.6e-05
1	303.15	0.7	0.002448	0.0001
1	313.15	0	0.001511	6.1e-05
1	313.15	0.1	0.001557	6.3e-05
1	313.15	0.2	0.001606	6.5e-05
1	313.15	0.3	0.001656	6.7e-05
1	313.15	0.4	0.001708	6.9e-05
1	313.15	0.5	0.001762	7.2e-05
1	313.15	0.6	0.001814	7.4e-05
1	313.15	0.7	0.001868	7.6e-05
1	323.15	0	0.001204	4.9e-05
1	323.15	0.1	0.001241	5e-05
1	323.15	0.2	0.001278	5.2e-05
1	323.15	0.3	0.001316	5.3e-05
1	323.15	0.4	0.001353	5.5e-05
1	323.15	0.5	0.001393	5.7e-05
1	323.15	0.6	0.001433	5.8e-05
1	323.15	0.7	0.001474	6e-05

System: L-threonine + 4-O-.alpha.-D-glucopyranosyl-D-glucitol + water; phases: Liquid
Fixed: Pressure, kPa = 100
Property: Mass density, kg/m3 (Liquid); method: Vibrating tube method
Solvent: Molality, mol/kg of 4-O-.alpha.-D-glucopyranosyl-D-glucitol	Temperature, K	Molality, mol/kg of L-threonine	Mass density, kg/m3	uncertainty
0	293.15	0	998.18	1.43
0	293.15	0.1	1002.4	1.43
0	293.15	0.2	1006.54	1.43
0	293.15	0.3	1010.59	1.43
0	293.15	0.4	1014.57	1.43
0	293.15	0.5	1018.46	1.43
0	293.15	0.6	1022.28	1.43
0	293.15	0.7	1026.03	1.43
0	303.15	0	995.66	1.43
0	303.15	0.1	999.82	1.43
0	303.15	0.2	1003.91	1.43
0	303.15	0.3	1007.91	1.43
0	303.15	0.4	1011.83	1.43
0	303.15	0.5	1015.67	1.43
0	303.15	0.6	1019.43	1.43
0	303.15	0.7	1023.14	1.43
0	313.15	0	992.24	1.43
0	313.15	0.1	996.36	1.43
0	313.15	0.2	1000.4	1.43
0	313.15	0.3	1004.35	1.43
0	313.15	0.4	1008.22	1.43
0	313.15	0.5	1012.03	1.43
0	313.15	0.6	1015.75	1.43
0	313.15	0.7	1019.41	1.43
0	323.15	0	988.02	1.43
0	323.15	0.1	992.09	1.43
0	323.15	0.2	996.09	1.43
0	323.15	0.3	1000.01	1.43
0	323.15	0.4	1003.85	1.43
0	323.15	0.5	1007.62	1.43
0	323.15	0.6	1011.32	1.43
0	323.15	0.7	1014.96	1.43
0.2	293.15	0	1022.97	1.43
0.2	293.15	0.1	1027.08	1.43
0.2	293.15	0.2	1031.1	1.43
0.2	293.15	0.3	1035.03	1.43
0.2	293.15	0.4	1038.87	1.43
0.2	293.15	0.5	1042.62	1.43
0.2	293.15	0.6	1046.3	1.43
0.2	293.15	0.7	1049.91	1.43
0.2	303.15	0	1020.13	1.43
0.2	303.15	0.1	1024.18	1.43
0.2	303.15	0.2	1028.14	1.43
0.2	303.15	0.3	1032.01	1.43
0.2	303.15	0.4	1035.81	1.43
0.2	303.15	0.5	1039.5	1.43
0.2	303.15	0.6	1043.13	1.43
0.2	303.15	0.7	1046.7	1.43
0.2	313.15	0	1016.42	1.43
0.2	313.15	0.1	1020.42	1.43
0.2	313.15	0.2	1024.33	1.43
0.2	313.15	0.3	1028.17	1.43
0.2	313.15	0.4	1031.92	1.43
0.2	313.15	0.5	1035.6	1.43
0.2	313.15	0.6	1039.19	1.43
0.2	313.15	0.7	1042.75	1.43
0.2	323.15	0	1012.07	1.43
0.2	323.15	0.1	1016.01	1.43
0.2	323.15	0.2	1019.88	1.43
0.2	323.15	0.3	1023.67	1.43
0.2	323.15	0.4	1027.38	1.43
0.2	323.15	0.5	1031.02	1.43
0.2	323.15	0.6	1034.58	1.43
0.2	323.15	0.7	1038.07	1.43
0.4	293.15	0	1045.59	1.44
0.4	293.15	0.1	1049.59	1.43
0.4	293.15	0.2	1053.48	1.41
0.4	293.15	0.3	1057.3	1.42
0.4	293.15	0.4	1061.02	1.42
0.4	293.15	0.5	1064.65	1.42
0.4	293.15	0.6	1068.19	1.42
0.4	293.15	0.7	1071.65	1.43
0.4	303.15	0	1042.41	1.43
0.4	303.15	0.1	1046.36	1.43
0.4	303.15	0.2	1050.19	1.43
0.4	303.15	0.3	1053.94	1.43
0.4	303.15	0.4	1057.62	1.43
0.4	303.15	0.5	1061.19	1.43
0.4	303.15	0.6	1064.67	1.43
0.4	303.15	0.7	1068.09	1.43
0.4	313.15	0	1038.47	1.43
0.4	313.15	0.1	1042.36	1.43
0.4	313.15	0.2	1046.15	1.43
0.4	313.15	0.3	1049.85	1.43
0.4	313.15	0.4	1053.47	1.43
0.4	313.15	0.5	1057.03	1.43
0.4	313.15	0.6	1060.47	1.43
0.4	313.15	0.7	1063.84	1.43
0.4	323.15	0	1033.97	1.43
0.4	323.15	0.1	1037.81	1.44
0.4	323.15	0.2	1041.56	1.44
0.4	323.15	0.3	1045.23	1.45
0.4	323.15	0.4	1048.84	1.42
0.4	323.15	0.5	1052.36	1.44
0.4	323.15	0.6	1055.8	1.43
0.4	323.15	0.7	1059.16	1.42
0.6	293.15	0	1066.2	1.43
0.6	293.15	0.1	1070.08	1.42
0.6	293.15	0.2	1073.86	1.43
0.6	293.15	0.3	1077.53	1.42
0.6	293.15	0.4	1081.13	1.43
0.6	293.15	0.5	1084.62	1.43
0.6	293.15	0.6	1088.02	1.42
0.6	293.15	0.7	1091.37	1.42
0.6	303.15	0	1062.88	1.43
0.6	303.15	0.1	1066.69	1.42
0.6	303.15	0.2	1070.42	1.42
0.6	303.15	0.3	1074.05	1.42
0.6	303.15	0.4	1077.6	1.42
0.6	303.15	0.5	1081.05	1.42
0.6	303.15	0.6	1084.42	1.42
0.6	303.15	0.7	1087.72	1.42
0.6	313.15	0	1058.71	1.42
0.6	313.15	0.1	1062.48	1.42
0.6	313.15	0.2	1066.16	1.42
0.6	313.15	0.3	1069.76	1.42
0.6	313.15	0.4	1073.28	1.42
0.6	313.15	0.5	1076.72	1.42
0.6	313.15	0.6	1080.08	1.42
0.6	313.15	0.7	1083.38	1.42
0.6	323.15	0	1054.01	1.42
0.6	323.15	0.1	1057.73	1.42
0.6	323.15	0.2	1061.37	1.42
0.6	323.15	0.3	1064.93	1.41
0.6	323.15	0.4	1068.44	1.43
0.6	323.15	0.5	1071.86	1.42
0.6	323.15	0.6	1075.22	1.43
0.6	323.15	0.7	1078.51	1.42
0.8	293.15	0	1085.31	1.42
0.8	293.15	0.1	1089.04	1.42
0.8	293.15	0.2	1092.68	1.43
0.8	293.15	0.3	1096.23	1.43
0.8	293.15	0.4	1099.69	1.43
0.8	293.15	0.5	1103.05	1.42
0.8	293.15	0.6	1106.34	1.43
0.8	293.15	0.7	1109.55	1.42
0.8	303.15	0	1081.69	1.42
0.8	303.15	0.1	1085.37	1.42
0.8	303.15	0.2	1088.96	1.42
0.8	303.15	0.3	1092.46	1.42
0.8	303.15	0.4	1095.89	1.42
0.8	303.15	0.5	1099.23	1.42
0.8	303.15	0.6	1102.49	1.42
0.8	303.15	0.7	1105.69	1.42
0.8	313.15	0	1077.36	1.42
0.8	313.15	0.1	1080.99	1.42
0.8	313.15	0.2	1084.54	1.42
0.8	313.15	0.3	1088.01	1.42
0.8	313.15	0.4	1091.41	1.42
0.8	313.15	0.5	1094.72	1.42
0.8	313.15	0.6	1097.99	1.42
0.8	313.15	0.7	1101.17	1.42
0.8	323.15	0	1072.55	1.43
0.8	323.15	0.1	1076.13	1.42
0.8	323.15	0.2	1079.64	1.43
0.8	323.15	0.3	1083.09	1.44
0.8	323.15	0.4	1086.45	1.41
0.8	323.15	0.5	1089.76	1.42
0.8	323.15	0.6	1093.01	1.43
0.8	323.15	0.7	1096.19	1.42
1	293.15	0	1102.86	1.42
1	293.15	0.1	1106.48	1.42
1	293.15	0.2	1110.01	1.42
1	293.15	0.3	1113.44	1.42
1	293.15	0.4	1116.8	1.42
1	293.15	0.5	1120.07	1.42
1	293.15	0.6	1123.26	1.43
1	293.15	0.7	1126.37	1.43
1	303.15	0	1099.07	1.42
1	303.15	0.1	1102.64	1.42
1	303.15	0.2	1106.11	1.42
1	303.15	0.3	1109.5	1.42
1	303.15	0.4	1112.81	1.42
1	303.15	0.5	1116.03	1.42
1	303.15	0.6	1119.19	1.42
1	303.15	0.7	1122.25	1.42
1	313.15	0	1094.66	1.42
1	313.15	0.1	1098.17	1.42
1	313.15	0.2	1101.61	1.42
1	313.15	0.3	1104.95	1.42
1	313.15	0.4	1108.24	1.42
1	313.15	0.5	1111.43	1.42
1	313.15	0.6	1114.56	1.42
1	313.15	0.7	1117.64	1.42
1	323.15	0	1089.71	1.42
1	323.15	0.1	1093.17	1.42
1	323.15	0.2	1096.57	1.42
1	323.15	0.3	1099.9	1.42
1	323.15	0.4	1103.17	1.42
1	323.15	0.5	1106.36	1.42
1	323.15	0.6	1109.5	1.42
1	323.15	0.7	1112.57	1.42

System: L-threonine + 4-O-.alpha.-D-glucopyranosyl-D-glucitol + water; phases: Liquid
Fixed: Pressure, kPa = 100
Property: Viscosity, Pa*s (Liquid); method: Capillary tube (Ostwald; Ubbelohde) method
Solvent: Molality, mol/kg of 4-O-.alpha.-D-glucopyranosyl-D-glucitol	Temperature, K	Molality, mol/kg of L-threonine	Viscosity, Pa*s	uncertainty
0	293.15	0	0.001002	4.1e-05
0	293.15	0.1	0.001035	4.2e-05
0	293.15	0.2	0.00107	4.4e-05
0	293.15	0.3	0.001105	4.5e-05
0	293.15	0.4	0.001143	4.6e-05
0	293.15	0.5	0.001182	4.8e-05
0	293.15	0.6	0.001221	5e-05
0	293.15	0.7	0.001263	5.1e-05
0	303.15	0	0.000798	3.2e-05
0	303.15	0.1	0.000823	3.3e-05
0	303.15	0.2	0.00085	3.5e-05
0	303.15	0.3	0.000878	3.6e-05
0	303.15	0.4	0.000907	3.7e-05
0	303.15	0.5	0.000936	3.8e-05
0	303.15	0.6	0.000967	3.9e-05
0	303.15	0.7	0.000999	4.1e-05
0	313.15	0	0.000654	2.7e-05
0	313.15	0.1	0.000673	2.7e-05
0	313.15	0.2	0.000694	2.8e-05
0	313.15	0.3	0.000717	2.9e-05
0	313.15	0.4	0.000739	3e-05
0	313.15	0.5	0.000763	3.1e-05
0	313.15	0.6	0.000787	3.2e-05
0	313.15	0.7	0.000811	3.3e-05
0	323.15	0	0.000547	2.2e-05
0	323.15	0.1	0.000563	2.3e-05
0	323.15	0.2	0.000579	2.4e-05
0	323.15	0.3	0.000596	2.4e-05
0	323.15	0.4	0.000615	2.5e-05
0	323.15	0.5	0.000632	2.6e-05
0	323.15	0.6	0.000651	2.7e-05
0	323.15	0.7	0.00067	2.7e-05
0.2	293.15	0	0.001202	4.9e-05
0.2	293.15	0.1	0.001245	5.1e-05
0.2	293.15	0.2	0.00129	5.2e-05
0.2	293.15	0.3	0.001338	5.4e-05
0.2	293.15	0.4	0.001387	5.6e-05
0.2	293.15	0.5	0.001438	5.8e-05
0.2	293.15	0.6	0.001492	6.1e-05
0.2	293.15	0.7	0.001547	6.3e-05
0.2	303.15	0	0.00095	3.9e-05
0.2	303.15	0.1	0.000983	4e-05
0.2	303.15	0.2	0.001018	4.1e-05
0.2	303.15	0.3	0.001053	4.3e-05
0.2	303.15	0.4	0.00109	4.4e-05
0.2	303.15	0.5	0.00113	4.6e-05
0.2	303.15	0.6	0.00117	4.8e-05
0.2	303.15	0.7	0.001212	4.9e-05
0.2	313.15	0	0.00077	3.1e-05
0.2	313.15	0.1	0.000796	3.2e-05
0.2	313.15	0.2	0.000822	3.3e-05
0.2	313.15	0.3	0.000848	3.4e-05
0.2	313.15	0.4	0.000876	3.6e-05
0.2	313.15	0.5	0.000905	3.7e-05
0.2	313.15	0.6	0.000935	3.8e-05
0.2	313.15	0.7	0.000965	3.9e-05
0.2	323.15	0	0.000641	2.6e-05
0.2	323.15	0.1	0.000661	2.7e-05
0.2	323.15	0.2	0.000682	2.8e-05
0.2	323.15	0.3	0.000702	2.9e-05
0.2	323.15	0.4	0.000723	2.9e-05
0.2	323.15	0.5	0.000747	3e-05
0.2	323.15	0.6	0.00077	3.1e-05
0.2	323.15	0.7	0.000793	3.2e-05
0.4	293.15	0	0.001457	6e-05
0.4	293.15	0.1	0.001513	6.2e-05
0.4	293.15	0.2	0.001572	6.4e-05
0.4	293.15	0.3	0.001632	6.6e-05
0.4	293.15	0.4	0.001698	6.9e-05
0.4	293.15	0.5	0.001764	7.2e-05
0.4	293.15	0.6	0.001834	7.4e-05
0.4	293.15	0.7	0.001908	7.8e-05
0.4	303.15	0	0.001134	4.6e-05
0.4	303.15	0.1	0.001176	4.8e-05
0.4	303.15	0.2	0.00122	5e-05
0.4	303.15	0.3	0.001265	5.1e-05
0.4	303.15	0.4	0.001312	5.3e-05
0.4	303.15	0.5	0.001361	5.5e-05
0.4	303.15	0.6	0.001412	5.7e-05
0.4	303.15	0.7	0.001466	6e-05
0.4	313.15	0	0.000909	3.7e-05
0.4	313.15	0.1	0.000941	3.8e-05
0.4	313.15	0.2	0.000973	4e-05
0.4	313.15	0.3	0.001008	4.1e-05
0.4	313.15	0.4	0.001044	4.2e-05
0.4	313.15	0.5	0.001081	4.4e-05
0.4	313.15	0.6	0.001118	4.5e-05
0.4	313.15	0.7	0.001156	4.7e-05
0.4	323.15	0	0.000747	3e-05
0.4	323.15	0.1	0.000772	3.1e-05
0.4	323.15	0.2	0.000797	3.2e-05
0.4	323.15	0.3	0.000823	3.4e-05
0.4	323.15	0.4	0.000849	3.5e-05
0.4	323.15	0.5	0.000876	3.6e-05
0.4	323.15	0.6	0.000905	3.7e-05
0.4	323.15	0.7	0.000933	3.8e-05
0.6	293.15	0	0.001761	7.2e-05
0.6	293.15	0.1	0.001832	7.4e-05
0.6	293.15	0.2	0.001908	7.8e-05
0.6	293.15	0.3	0.001989	8.1e-05
0.6	293.15	0.4	0.002075	8.4e-05
0.6	293.15	0.5	0.002165	8.8e-05
0.6	293.15	0.6	0.002258	9.2e-05
0.6	293.15	0.7	0.002357	9.6e-05
0.6	303.15	0	0.001353	5.5e-05
0.6	303.15	0.1	0.001407	5.7e-05
0.6	303.15	0.2	0.001462	5.9e-05
0.6	303.15	0.3	0.00152	6.2e-05
0.6	303.15	0.4	0.001583	6.4e-05
0.6	303.15	0.5	0.001648	6.7e-05
0.6	303.15	0.6	0.001713	7e-05
0.6	303.15	0.7	0.001782	7.2e-05
0.6	313.15	0	0.001073	4.4e-05
0.6	313.15	0.1	0.001114	4.5e-05
0.6	313.15	0.2	0.001155	4.7e-05
0.6	313.15	0.3	0.0012	4.9e-05
0.6	313.15	0.4	0.001245	5.1e-05
0.6	313.15	0.5	0.001293	5.3e-05
0.6	313.15	0.6	0.001341	5.5e-05
0.6	313.15	0.7	0.001392	5.7e-05
0.6	323.15	0	0.000874	3.6e-05
0.6	323.15	0.1	0.000906	3.7e-05
0.6	323.15	0.2	0.000938	3.8e-05
0.6	323.15	0.3	0.000973	4e-05
0.6	323.15	0.4	0.001008	4.1e-05
0.6	323.15	0.5	0.001044	4.2e-05
0.6	323.15	0.6	0.001083	4.4e-05
0.6	323.15	0.7	0.00112	4.6e-05
0.8	293.15	0	0.002142	8.7e-05
0.8	293.15	0.1	0.002237	9.1e-05
0.8	293.15	0.2	0.002338	9.5e-05
0.8	293.15	0.3	0.002442	9.9e-05
0.8	293.15	0.4	0.002553	0.000104
0.8	293.15	0.5	0.002676	0.000109
0.8	293.15	0.6	0.002805	0.000114
0.8	293.15	0.7	0.00294	0.000119
0.8	303.15	0	0.001626	6.6e-05
0.8	303.15	0.1	0.001694	6.9e-05
0.8	303.15	0.2	0.001767	7.2e-05
0.8	303.15	0.3	0.001842	7.5e-05
0.8	303.15	0.4	0.001923	7.8e-05
0.8	303.15	0.5	0.002008	8.2e-05
0.8	303.15	0.6	0.002097	8.5e-05
0.8	303.15	0.7	0.002188	8.9e-05
0.8	313.15	0	0.001277	5.2e-05
0.8	313.15	0.1	0.001328	5.4e-05
0.8	313.15	0.2	0.001383	5.6e-05
0.8	313.15	0.3	0.001435	5.8e-05
0.8	313.15	0.4	0.001494	6.1e-05
0.8	313.15	0.5	0.001553	6.3e-05
0.8	313.15	0.6	0.001616	6.6e-05
0.8	313.15	0.7	0.001682	6.8e-05
0.8	323.15	0	0.001027	4.2e-05
0.8	323.15	0.1	0.001066	4.3e-05
0.8	323.15	0.2	0.001107	4.5e-05
0.8	323.15	0.3	0.001149	4.7e-05
0.8	323.15	0.4	0.001193	4.8e-05
0.8	323.15	0.5	0.001235	5e-05
0.8	323.15	0.6	0.001281	5.2e-05
0.8	323.15	0.7	0.00133	5.4e-05
1	293.15	0	0.00261	0.000106
1	293.15	0.1	0.002728	0.000111
1	293.15	0.2	0.00286	0.000116
1	293.15	0.3	0.002995	0.000122
1	293.15	0.4	0.00314	0.000128
1	293.15	0.5	0.003299	0.000134
1	293.15	0.6	0.003461	0.000141
1	293.15	0.7	0.003636	0.000148
1	303.15	0	0.001954	7.9e-05
1	303.15	0.1	0.002038	8.3e-05
1	303.15	0.2	0.002128	8.7e-05
1	303.15	0.3	0.00223	9.1e-05
1	303.15	0.4	0.002331	9.5e-05
1	303.15	0.5	0.002441	9.9e-05
1	303.15	0.6	0.002553	0.000104
1	303.15	0.7	0.002668	0.000109
1	313.15	0	0.001511	6.1e-05
1	313.15	0.1	0.001575	6.4e-05
1	313.15	0.2	0.001643	6.7e-05
1	313.15	0.3	0.001712	7e-05
1	313.15	0.4	0.001787	7.3e-05
1	313.15	0.5	0.001866	7.6e-05
1	313.15	0.6	0.001944	7.9e-05
1	313.15	0.7	0.00203	8.3e-05
1	323.15	0	0.001204	4.9e-05
1	323.15	0.1	0.001254	5.1e-05
1	323.15	0.2	0.001306	5.3e-05
1	323.15	0.3	0.001357	5.5e-05
1	323.15	0.4	0.001413	5.7e-05
1	323.15	0.5	0.001469	6e-05
1	323.15	0.6	0.00153	6.2e-05
1	323.15	0.7	0.001592	6.5e-05

System: L-arginine + 4-O-.alpha.-D-glucopyranosyl-D-glucitol + water; phases: Liquid
Fixed: Pressure, kPa = 100
Property: Mass density, kg/m3 (Liquid); method: Vibrating tube method
Solvent: Molality, mol/kg of 4-O-.alpha.-D-glucopyranosyl-D-glucitol	Temperature, K	Molality, mol/kg of L-arginine	Mass density, kg/m3	uncertainty
0	293.15	0	998.18	1.44
0	293.15	0.1	1003.16	1.44
0	293.15	0.2	1007.98	1.44
0	293.15	0.3	1012.67	1.44
0	293.15	0.4	1017.19	1.44
0	293.15	0.5	1021.57	1.44
0	293.15	0.6	1025.85	1.44
0	293.15	0.7	1030	1.44
0	303.15	0	995.66	1.44
0	303.15	0.1	1000.56	1.44
0	303.15	0.2	1005.3	1.44
0	303.15	0.3	1009.89	1.44
0	303.15	0.4	1014.33	1.44
0	303.15	0.5	1018.66	1.44
0	303.15	0.6	1022.85	1.44
0	303.15	0.7	1026.94	1.44
0	313.15	0	992.24	1.44
0	313.15	0.1	997.08	1.44
0	313.15	0.2	1001.76	1.44
0	313.15	0.3	1006.3	1.44
0	313.15	0.4	1010.71	1.44
0	313.15	0.5	1014.97	1.44
0	313.15	0.6	1019.13	1.44
0	313.15	0.7	1023.18	1.44
0	323.15	0	988.02	1.44
0	323.15	0.1	992.8	1.44
0	323.15	0.2	997.43	1.44
0	323.15	0.3	1001.92	1.44
0	323.15	0.4	1006.3	1.44
0	323.15	0.5	1010.54	1.44
0	323.15	0.6	1014.68	1.44
0	323.15	0.7	1018.67	1.44
0.2	293.15	0	1022.97	1.45
0.2	293.15	0.1	1027.69	1.45
0.2	293.15	0.2	1032.28	1.45
0.2	293.15	0.3	1036.72	1.45
0.2	293.15	0.4	1041.02	1.45
0.2	293.15	0.5	1045.19	1.45
0.2	293.15	0.6	1049.22	1.45
0.2	293.15	0.7	1053.15	1.45
0.2	303.15	0	1020.13	1.45
0.2	303.15	0.1	1024.79	1.44
0.2	303.15	0.2	1029.31	1.44
0.2	303.15	0.3	1033.69	1.44
0.2	303.15	0.4	1037.93	1.44
0.2	303.15	0.5	1042.03	1.44
0.2	303.15	0.6	1046.01	1.45
0.2	303.15	0.7	1049.87	1.44
0.2	313.15	0	1016.42	1.44
0.2	313.15	0.1	1021.02	1.44
0.2	313.15	0.2	1025.48	1.44
0.2	313.15	0.3	1029.81	1.44
0.2	313.15	0.4	1033.99	1.44
0.2	313.15	0.5	1038.06	1.44
0.2	313.15	0.6	1042	1.44
0.2	313.15	0.7	1045.82	1.44
0.2	323.15	0	1012.07	1.44
0.2	323.15	0.1	1016.61	1.44
0.2	323.15	0.2	1021.04	1.44
0.2	323.15	0.3	1025.34	1.44
0.2	323.15	0.4	1029.5	1.44
0.2	323.15	0.5	1033.56	1.44
0.2	323.15	0.6	1037.49	1.44
0.2	323.15	0.7	1041.31	1.44
0.4	293.15	0	1045.59	1.44
0.4	293.15	0.1	1050.11	1.44
0.4	293.15	0.2	1054.48	1.44
0.4	293.15	0.3	1058.71	1.44
0.4	293.15	0.4	1062.8	1.45
0.4	293.15	0.5	1066.74	1.45
0.4	293.15	0.6	1070.57	1.44
0.4	293.15	0.7	1074.25	1.45
0.4	303.15	0	1042.41	1.44
0.4	303.15	0.1	1046.87	1.44
0.4	303.15	0.2	1051.18	1.44
0.4	303.15	0.3	1055.34	1.44
0.4	303.15	0.4	1059.37	1.44
0.4	303.15	0.5	1063.25	1.44
0.4	303.15	0.6	1067.03	1.45
0.4	303.15	0.7	1070.66	1.44
0.4	313.15	0	1038.47	1.44
0.4	313.15	0.1	1042.86	1.44
0.4	313.15	0.2	1047.11	1.44
0.4	313.15	0.3	1051.22	1.44
0.4	313.15	0.4	1055.2	1.44
0.4	313.15	0.5	1059.03	1.44
0.4	313.15	0.6	1062.76	1.44
0.4	313.15	0.7	1066.38	1.44
0.4	323.15	0	1033.97	1.43
0.4	323.15	0.1	1038.31	1.44
0.4	323.15	0.2	1042.52	1.46
0.4	323.15	0.3	1046.59	1.48
0.4	323.15	0.4	1050.53	1.43
0.4	323.15	0.5	1054.35	1.45
0.4	323.15	0.6	1058.06	1.46
0.4	323.15	0.7	1061.66	1.44
0.6	293.15	0	1066.2	1.44
0.6	293.15	0.1	1070.49	1.45
0.6	293.15	0.2	1074.64	1.45
0.6	293.15	0.3	1078.64	1.44
0.6	293.15	0.4	1082.5	1.45
0.6	293.15	0.5	1086.23	1.45
0.6	293.15	0.6	1089.82	1.45
0.6	293.15	0.7	1093.3	1.44
0.6	303.15	0	1062.88	1.45
0.6	303.15	0.1	1067.11	1.44
0.6	303.15	0.2	1071.2	1.44
0.6	303.15	0.3	1075.14	1.45
0.6	303.15	0.4	1078.95	1.45
0.6	303.15	0.5	1082.62	1.45
0.6	303.15	0.6	1086.16	1.45
0.6	303.15	0.7	1089.59	1.45
0.6	313.15	0	1058.71	1.44
0.6	313.15	0.1	1062.88	1.44
0.6	313.15	0.2	1066.92	1.44
0.6	313.15	0.3	1070.81	1.44
0.6	313.15	0.4	1074.57	1.44
0.6	313.15	0.5	1078.21	1.44
0.6	313.15	0.6	1081.71	1.44
0.6	313.15	0.7	1085.13	1.44
0.6	323.15	0	1054.01	1.45
0.6	323.15	0.1	1058.14	1.44
0.6	323.15	0.2	1062.16	1.44
0.6	323.15	0.3	1066.03	1.43
0.6	323.15	0.4	1069.8	1.44
0.6	323.15	0.5	1073.44	1.45
0.6	323.15	0.6	1076.97	1.44
0.6	323.15	0.7	1080.4	1.44
0.8	293.15	0	1085.31	1.45
0.8	293.15	0.1	1089.38	1.45
0.8	293.15	0.2	1093.31	1.45
0.8	293.15	0.3	1097.08	1.45
0.8	293.15	0.4	1100.73	1.45
0.8	293.15	0.5	1104.24	1.45
0.8	293.15	0.6	1107.65	1.45
0.8	293.15	0.7	1110.95	1.44
0.8	303.15	0	1081.69	1.45
0.8	303.15	0.1	1085.7	1.45
0.8	303.15	0.2	1089.56	1.45
0.8	303.15	0.3	1093.29	1.45
0.8	303.15	0.4	1096.89	1.45
0.8	303.15	0.5	1100.34	1.45
0.8	303.15	0.6	1103.7	1.45
0.8	303.15	0.7	1106.96	1.45
0.8	313.15	0	1077.36	1.44
0.8	313.15	0.1	1081.32	1.44
0.8	313.15	0.2	1085.14	1.44
0.8	313.15	0.3	1088.83	1.45
0.8	313.15	0.4	1092.37	1.45
0.8	313.15	0.5	1095.81	1.45
0.8	313.15	0.6	1099.17	1.45
0.8	313.15	0.7	1102.39	1.45
0.8	323.15	0	1072.55	1.45
0.8	323.15	0.1	1076.46	1.44
0.8	323.15	0.2	1080.24	1.45
0.8	323.15	0.3	1083.91	1.45
0.8	323.15	0.4	1087.45	1.44
0.8	323.15	0.5	1090.88	1.45
0.8	323.15	0.6	1094.2	1.45
0.8	323.15	0.7	1097.41	1.45
1	293.15	0	1102.86	1.45
1	293.15	0.1	1106.74	1.45
1	293.15	0.2	1110.47	1.45
1	293.15	0.3	1114.05	1.45
1	293.15	0.4	1117.52	1.45
1	293.15	0.5	1120.85	1.45
1	293.15	0.6	1124.05	1.45
1	293.15	0.7	1127.12	1.45
1	303.15	0	1099.07	1.45
1	303.15	0.1	1102.89	1.45
1	303.15	0.2	1106.56	1.45
1	303.15	0.3	1110.1	1.45
1	303.15	0.4	1113.5	1.45
1	303.15	0.5	1116.76	1.45
1	303.15	0.6	1119.92	1.45
1	303.15	0.7	1122.95	1.45
1	313.15	0	1094.66	1.45
1	313.15	0.1	1098.43	1.45
1	313.15	0.2	1102.07	1.45
1	313.15	0.3	1105.6	1.45
1	313.15	0.4	1109	1.45
1	313.15	0.5	1112.28	1.45
1	313.15	0.6	1115.42	1.45
1	313.15	0.7	1118.48	1.45
1	323.15	0	1089.71	1.45
1	323.15	0.1	1093.44	1.45
1	323.15	0.2	1097.05	1.45
1	323.15	0.3	1100.54	1.45
1	323.15	0.4	1103.93	1.45
1	323.15	0.5	1107.2	1.45
1	323.15	0.6	1110.36	1.45
1	323.15	0.7	1113.42	1.45

System: L-arginine + 4-O-.alpha.-D-glucopyranosyl-D-glucitol + water; phases: Liquid
Fixed: Pressure, kPa = 100
Property: Viscosity, Pa*s (Liquid); method: Capillary tube (Ostwald; Ubbelohde) method
Solvent: Molality, mol/kg of 4-O-.alpha.-D-glucopyranosyl-D-glucitol	Temperature, K	Molality, mol/kg of L-arginine	Viscosity, Pa*s	uncertainty
0	293.15	0	0.001002	4.1e-05
0	293.15	0.1	0.001054	4.3e-05
0	293.15	0.2	0.001109	4.5e-05
0	293.15	0.3	0.001167	4.8e-05
0	293.15	0.4	0.001229	5e-05
0	293.15	0.5	0.001296	5.3e-05
0	293.15	0.6	0.001366	5.6e-05
0	293.15	0.7	0.001435	5.9e-05
0	303.15	0	0.000798	3.3e-05
0	303.15	0.1	0.000837	3.4e-05
0	303.15	0.2	0.000879	3.6e-05
0	303.15	0.3	0.000922	3.8e-05
0	303.15	0.4	0.000969	4e-05
0	303.15	0.5	0.001019	4.2e-05
0	303.15	0.6	0.001069	4.4e-05
0	303.15	0.7	0.001121	4.6e-05
0	313.15	0	0.000654	2.7e-05
0	313.15	0.1	0.000684	2.8e-05
0	313.15	0.2	0.000716	2.9e-05
0	313.15	0.3	0.000751	3.1e-05
0	313.15	0.4	0.000786	3.2e-05
0	313.15	0.5	0.000825	3.4e-05
0	313.15	0.6	0.000863	3.5e-05
0	313.15	0.7	0.000903	3.7e-05
0	323.15	0	0.000547	2.2e-05
0	323.15	0.1	0.000572	2.3e-05
0	323.15	0.2	0.000598	2.4e-05
0	323.15	0.3	0.000625	2.6e-05
0	323.15	0.4	0.000653	2.7e-05
0	323.15	0.5	0.000682	2.8e-05
0	323.15	0.6	0.000713	2.9e-05
0	323.15	0.7	0.000743	3e-05
0.2	293.15	0	0.001202	4.9e-05
0.2	293.15	0.1	0.00127	5.2e-05
0.2	293.15	0.2	0.001344	5.5e-05
0.2	293.15	0.3	0.001425	5.8e-05
0.2	293.15	0.4	0.00151	6.2e-05
0.2	293.15	0.5	0.001601	6.5e-05
0.2	293.15	0.6	0.0017	6.9e-05
0.2	293.15	0.7	0.001803	7.4e-05
0.2	303.15	0	0.00095	3.9e-05
0.2	303.15	0.1	0.001001	4.1e-05
0.2	303.15	0.2	0.001057	4.3e-05
0.2	303.15	0.3	0.001117	4.6e-05
0.2	303.15	0.4	0.001182	4.8e-05
0.2	303.15	0.5	0.001249	5.1e-05
0.2	303.15	0.6	0.001322	5.4e-05
0.2	303.15	0.7	0.001396	5.7e-05
0.2	313.15	0	0.00077	3.1e-05
0.2	313.15	0.1	0.000811	3.3e-05
0.2	313.15	0.2	0.000853	3.5e-05
0.2	313.15	0.3	0.000899	3.7e-05
0.2	313.15	0.4	0.00095	3.9e-05
0.2	313.15	0.5	0.001002	4.1e-05
0.2	313.15	0.6	0.001056	4.3e-05
0.2	313.15	0.7	0.001115	4.6e-05
0.2	323.15	0	0.000641	2.6e-05
0.2	323.15	0.1	0.000672	2.7e-05
0.2	323.15	0.2	0.000707	2.9e-05
0.2	323.15	0.3	0.000744	3e-05
0.2	323.15	0.4	0.000785	3.2e-05
0.2	323.15	0.5	0.000826	3.4e-05
0.2	323.15	0.6	0.000868	3.5e-05
0.2	323.15	0.7	0.000914	3.7e-05
0.4	293.15	0	0.001457	6e-05
0.4	293.15	0.1	0.001548	6.3e-05
0.4	293.15	0.2	0.001646	6.7e-05
0.4	293.15	0.3	0.001754	7.2e-05
0.4	293.15	0.4	0.001871	7.7e-05
0.4	293.15	0.5	0.001999	8.2e-05
0.4	293.15	0.6	0.002131	8.7e-05
0.4	293.15	0.7	0.002277	9.5e-05
0.4	303.15	0	0.001134	4.6e-05
0.4	303.15	0.1	0.001201	4.9e-05
0.4	303.15	0.2	0.001274	5.2e-05
0.4	303.15	0.3	0.001355	5.5e-05
0.4	303.15	0.4	0.001439	5.9e-05
0.4	303.15	0.5	0.001532	6.3e-05
0.4	303.15	0.6	0.001628	6.7e-05
0.4	303.15	0.7	0.001732	7.1e-05
0.4	313.15	0	0.000909	3.7e-05
0.4	313.15	0.1	0.00096	3.9e-05
0.4	313.15	0.2	0.001017	4.2e-05
0.4	313.15	0.3	0.001078	4.4e-05
0.4	313.15	0.4	0.001143	4.7e-05
0.4	313.15	0.5	0.001212	5e-05
0.4	313.15	0.6	0.001284	5.2e-05
0.4	313.15	0.7	0.001364	5.6e-05
0.4	323.15	0	0.000747	3.1e-05
0.4	323.15	0.1	0.000788	3.2e-05
0.4	323.15	0.2	0.000831	3.4e-05
0.4	323.15	0.3	0.000878	3.6e-05
0.4	323.15	0.4	0.000928	3.8e-05
0.4	323.15	0.5	0.000982	4e-05
0.4	323.15	0.6	0.001039	4.2e-05
0.4	323.15	0.7	0.0011	4.5e-05
0.6	293.15	0	0.001761	7.3e-05
0.6	293.15	0.1	0.001878	7.7e-05
0.6	293.15	0.2	0.002011	8.2e-05
0.6	293.15	0.3	0.002146	8.8e-05
0.6	293.15	0.4	0.002303	9.4e-05
0.6	293.15	0.5	0.002468	0.000101
0.6	293.15	0.6	0.002642	0.000108
0.6	293.15	0.7	0.002832	0.000116
0.6	303.15	0	0.001353	5.5e-05
0.6	303.15	0.1	0.001436	5.9e-05
0.6	303.15	0.2	0.001533	6.3e-05
0.6	303.15	0.3	0.00164	6.7e-05
0.6	303.15	0.4	0.00175	7.2e-05
0.6	303.15	0.5	0.001872	7.6e-05
0.6	303.15	0.6	0.001996	8.2e-05
0.6	303.15	0.7	0.002134	8.7e-05
0.6	313.15	0	0.001073	4.4e-05
0.6	313.15	0.1	0.001138	4.6e-05
0.6	313.15	0.2	0.001208	4.9e-05
0.6	313.15	0.3	0.001287	5.3e-05
0.6	313.15	0.4	0.00137	5.6e-05
0.6	313.15	0.5	0.001462	6e-05
0.6	313.15	0.6	0.001553	6.3e-05
0.6	313.15	0.7	0.001653	6.8e-05
0.6	323.15	0	0.000874	3.6e-05
0.6	323.15	0.1	0.000923	3.8e-05
0.6	323.15	0.2	0.000979	4e-05
0.6	323.15	0.3	0.001039	4.2e-05
0.6	323.15	0.4	0.0011	4.5e-05
0.6	323.15	0.5	0.001169	4.8e-05
0.6	323.15	0.6	0.001237	5.1e-05
0.6	323.15	0.7	0.001312	5.4e-05
0.8	293.15	0	0.002142	8.8e-05
0.8	293.15	0.1	0.002296	9.4e-05
0.8	293.15	0.2	0.002465	0.000101
0.8	293.15	0.3	0.00265	0.000109
0.8	293.15	0.4	0.00284	0.000116
0.8	293.15	0.5	0.003052	0.000125
0.8	293.15	0.6	0.003285	0.000134
0.8	293.15	0.7	0.00353	0.000144
0.8	303.15	0	0.001626	6.6e-05
0.8	303.15	0.1	0.001739	7.1e-05
0.8	303.15	0.2	0.001859	7.6e-05
0.8	303.15	0.3	0.001989	8.1e-05
0.8	303.15	0.4	0.00213	8.7e-05
0.8	303.15	0.5	0.002277	9.3e-05
0.8	303.15	0.6	0.002442	0.0001
0.8	303.15	0.7	0.00261	0.000107
0.8	313.15	0	0.001277	5.2e-05
0.8	313.15	0.1	0.001361	5.6e-05
0.8	313.15	0.2	0.001452	5.9e-05
0.8	313.15	0.3	0.00155	6.3e-05
0.8	313.15	0.4	0.001653	6.8e-05
0.8	313.15	0.5	0.001766	7.2e-05
0.8	313.15	0.6	0.001887	7.7e-05
0.8	313.15	0.7	0.002017	8.2e-05
0.8	323.15	0	0.001027	4.2e-05
0.8	323.15	0.1	0.00109	4.5e-05
0.8	323.15	0.2	0.00116	4.7e-05
0.8	323.15	0.3	0.001235	5e-05
0.8	323.15	0.4	0.001313	5.4e-05
0.8	323.15	0.5	0.001397	5.7e-05
0.8	323.15	0.6	0.001487	6.1e-05
0.8	323.15	0.7	0.001583	6.5e-05
1	293.15	0	0.00261	0.000107
1	293.15	0.1	0.002805	0.000115
1	293.15	0.2	0.003024	0.000123
1	293.15	0.3	0.003266	0.000133
1	293.15	0.4	0.003527	0.000144
1	293.15	0.5	0.003809	0.000156
1	293.15	0.6	0.004114	0.000168
1	293.15	0.7	0.004422	0.000181
1	303.15	0	0.001954	8e-05
1	303.15	0.1	0.002094	8.6e-05
1	303.15	0.2	0.002251	9.2e-05
1	303.15	0.3	0.002417	9.9e-05
1	303.15	0.4	0.002603	0.000106
1	303.15	0.5	0.002793	0.000114
1	303.15	0.6	0.003001	0.000123
1	303.15	0.7	0.003219	0.000132
1	313.15	0	0.001511	6.2e-05
1	313.15	0.1	0.001615	6.6e-05
1	313.15	0.2	0.00173	7.1e-05
1	313.15	0.3	0.001853	7.6e-05
1	313.15	0.4	0.001988	8.1e-05
1	313.15	0.5	0.002131	8.7e-05
1	313.15	0.6	0.002284	9.3e-05
1	313.15	0.7	0.002441	0.0001
1	323.15	0	0.001204	4.9e-05
1	323.15	0.1	0.001284	5.2e-05
1	323.15	0.2	0.00137	5.6e-05
1	323.15	0.3	0.001465	6e-05
1	323.15	0.4	0.001567	6.4e-05
1	323.15	0.5	0.001674	6.8e-05
1	323.15	0.6	0.001787	7.3e-05
1	323.15	0.7	0.001906	7.8e-05

System: L-valine + 4-O-.alpha.-D-glucopyranosyl-D-glucitol + water; phases: Liquid
Fixed: Pressure, kPa = 100
Property: Mass density, kg/m3 (Liquid); method: Vibrating tube method
Solvent: Molality, mol/kg of 4-O-.alpha.-D-glucopyranosyl-D-glucitol	Temperature, K	Molality, mol/kg of L-valine	Mass density, kg/m3	uncertainty
0	293.15	0	998.18	1.43
0	293.15	0.1	1000.87	1.43
0	293.15	0.2	1003.5	1.43
0	293.15	0.3	1006.05	1.43
0	293.15	0.4	1008.55	1.43
0	303.15	0	995.66	1.43
0	303.15	0.1	998.32	1.43
0	303.15	0.2	1000.9	1.43
0	303.15	0.3	1003.43	1.43
0	303.15	0.4	1005.9	1.43
0	313.15	0	992.24	1.43
0	313.15	0.1	994.85	1.43
0	313.15	0.2	997.4	1.43
0	313.15	0.3	999.89	1.43
0	313.15	0.4	1002.34	1.43
0	323.15	0	988.02	1.43
0	323.15	0.1	990.59	1.43
0	323.15	0.2	993.09	1.43
0	323.15	0.3	995.54	1.43
0	323.15	0.4	997.95	1.43
0.2	293.15	0	1022.97	1.43
0.2	293.15	0.1	1025.49	1.43
0.2	293.15	0.2	1027.94	1.43
0.2	293.15	0.3	1030.33	1.43
0.2	293.15	0.4	1032.65	1.43
0.2	303.15	0	1020.13	1.43
0.2	303.15	0.1	1022.61	1.43
0.2	303.15	0.2	1025.02	1.43
0.2	303.15	0.3	1027.37	1.43
0.2	303.15	0.4	1029.66	1.43
0.2	313.15	0	1016.42	1.43
0.2	313.15	0.1	1018.85	1.43
0.2	313.15	0.2	1021.22	1.43
0.2	313.15	0.3	1023.53	1.43
0.2	313.15	0.4	1025.78	1.43
0.2	323.15	0	1012.07	1.43
0.2	323.15	0.1	1014.46	1.43
0.2	323.15	0.2	1016.79	1.43
0.2	323.15	0.3	1019.08	1.43
0.2	323.15	0.4	1021.31	1.42
0.4	293.15	0	1045.59	1.44
0.4	293.15	0.1	1047.92	1.43
0.4	293.15	0.2	1050.19	1.43
0.4	293.15	0.3	1052.37	1.42
0.4	293.15	0.4	1054.48	1.43
0.4	303.15	0	1042.41	1.43
0.4	303.15	0.1	1044.71	1.42
0.4	303.15	0.2	1046.95	1.42
0.4	303.15	0.3	1049.11	1.42
0.4	303.15	0.4	1051.22	1.42
0.4	313.15	0	1038.47	1.42
0.4	313.15	0.1	1040.72	1.42
0.4	313.15	0.2	1042.91	1.42
0.4	313.15	0.3	1045.04	1.42
0.4	313.15	0.4	1047.12	1.42
0.4	323.15	0	1033.97	1.43
0.4	323.15	0.1	1036.18	1.42
0.4	323.15	0.2	1038.34	1.42
0.4	323.15	0.3	1040.44	1.44
0.4	323.15	0.4	1042.48	1.42
0.6	293.15	0	1066.2	1.43
0.6	293.15	0.1	1068.36	1.42
0.6	293.15	0.2	1070.45	1.43
0.6	293.15	0.3	1072.48	1.42
0.6	293.15	0.4	1074.45	1.42
0.6	303.15	0	1062.88	1.42
0.6	303.15	0.1	1065	1.42
0.6	303.15	0.2	1067.05	1.42
0.6	303.15	0.3	1069.03	1.42
0.6	303.15	0.4	1070.97	1.42
0.6	313.15	0	1058.71	1.42
0.6	313.15	0.1	1060.78	1.42
0.6	313.15	0.2	1062.79	1.42
0.6	313.15	0.3	1064.76	1.42
0.6	313.15	0.4	1066.67	1.42
0.6	323.15	0	1054.01	1.42
0.6	323.15	0.1	1056.04	1.43
0.6	323.15	0.2	1058.02	1.42
0.6	323.15	0.3	1059.95	1.42
0.6	323.15	0.4	1061.84	1.42
0.8	293.15	0	1085.31	1.42
0.8	293.15	0.1	1087.3	1.42
0.8	293.15	0.2	1089.23	1.42
0.8	293.15	0.3	1091.1	1.43
0.8	293.15	0.4	1092.9	1.42
0.8	303.15	0	1081.69	1.42
0.8	303.15	0.1	1083.65	1.42
0.8	303.15	0.2	1085.55	1.42
0.8	303.15	0.3	1087.4	1.42
0.8	303.15	0.4	1089.19	1.42
0.8	313.15	0	1077.36	1.42
0.8	313.15	0.1	1079.28	1.42
0.8	313.15	0.2	1081.14	1.42
0.8	313.15	0.3	1082.96	1.42
0.8	313.15	0.4	1084.74	1.42
0.8	323.15	0	1072.55	1.43
0.8	323.15	0.1	1074.42	1.43
0.8	323.15	0.2	1076.25	1.42
0.8	323.15	0.3	1078.03	1.42
0.8	323.15	0.4	1079.78	1.43
1	293.15	0	1102.86	1.42
1	293.15	0.1	1104.7	1.42
1	293.15	0.2	1106.47	1.42
1	293.15	0.3	1108.19	1.42
1	293.15	0.4	1109.86	1.42
1	303.15	0	1099.07	1.42
1	303.15	0.1	1100.88	1.42
1	303.15	0.2	1102.62	1.42
1	303.15	0.3	1104.31	1.42
1	303.15	0.4	1105.96	1.42
1	313.15	0	1094.66	1.42
1	313.15	0.1	1096.41	1.42
1	313.15	0.2	1098.11	1.42
1	313.15	0.3	1099.76	1.42
1	313.15	0.4	1101.36	1.42
1	323.15	0	1089.71	1.42
1	323.15	0.1	1091.42	1.42
1	323.15	0.2	1093.1	1.42
1	323.15	0.3	1094.73	1.42
1	323.15	0.4	1096.33	1.42

System: L-valine + 4-O-.alpha.-D-glucopyranosyl-D-glucitol + water; phases: Liquid
Fixed: Pressure, kPa = 100
Property: Viscosity, Pa*s (Liquid); method: Capillary tube (Ostwald; Ubbelohde) method
Solvent: Molality, mol/kg of 4-O-.alpha.-D-glucopyranosyl-D-glucitol	Temperature, K	Molality, mol/kg of L-valine	Viscosity, Pa*s	uncertainty
0	293.15	0	0.001002	4.1e-05
0	293.15	0.1	0.001044	4.2e-05
0	293.15	0.2	0.001088	4.4e-05
0	293.15	0.3	0.001134	4.6e-05
0	293.15	0.4	0.001183	4.8e-05
0	303.15	0	0.000798	3.2e-05
0	303.15	0.1	0.00083	3.4e-05
0	303.15	0.2	0.000864	3.5e-05
0	303.15	0.3	0.000899	3.7e-05
0	303.15	0.4	0.000936	3.8e-05
0	313.15	0	0.000654	2.7e-05
0	313.15	0.1	0.000678	2.8e-05
0	313.15	0.2	0.000704	2.9e-05
0	313.15	0.3	0.000731	3e-05
0	313.15	0.4	0.00076	3.1e-05
0	323.15	0	0.000547	2.2e-05
0	323.15	0.1	0.000567	2.3e-05
0	323.15	0.2	0.000587	2.4e-05
0	323.15	0.3	0.000608	2.5e-05
0	323.15	0.4	0.00063	2.6e-05
0.2	293.15	0	0.001202	4.9e-05
0.2	293.15	0.1	0.001258	5.1e-05
0.2	293.15	0.2	0.001318	5.4e-05
0.2	293.15	0.3	0.00138	5.6e-05
0.2	293.15	0.4	0.001445	5.9e-05
0.2	303.15	0	0.00095	3.9e-05
0.2	303.15	0.1	0.000993	4e-05
0.2	303.15	0.2	0.001037	4.2e-05
0.2	303.15	0.3	0.001082	4.4e-05
0.2	303.15	0.4	0.001129	4.6e-05
0.2	313.15	0	0.00077	3.1e-05
0.2	313.15	0.1	0.000803	3.3e-05
0.2	313.15	0.2	0.000836	3.4e-05
0.2	313.15	0.3	0.000871	3.5e-05
0.2	313.15	0.4	0.000906	3.7e-05
0.2	323.15	0	0.000641	2.6e-05
0.2	323.15	0.1	0.000667	2.7e-05
0.2	323.15	0.2	0.000693	2.8e-05
0.2	323.15	0.3	0.000721	2.9e-05
0.2	323.15	0.4	0.000748	3e-05
0.4	293.15	0	0.001457	6e-05
0.4	293.15	0.1	0.001529	6.2e-05
0.4	293.15	0.2	0.001605	6.5e-05
0.4	293.15	0.3	0.001684	6.8e-05
0.4	293.15	0.4	0.001764	7.3e-05
0.4	303.15	0	0.001134	4.6e-05
0.4	303.15	0.1	0.001188	4.8e-05
0.4	303.15	0.2	0.001243	5.1e-05
0.4	303.15	0.3	0.0013	5.3e-05
0.4	303.15	0.4	0.001358	5.5e-05
0.4	313.15	0	0.000909	3.7e-05
0.4	313.15	0.1	0.00095	3.9e-05
0.4	313.15	0.2	0.000991	4e-05
0.4	313.15	0.3	0.001032	4.2e-05
0.4	313.15	0.4	0.001073	4.4e-05
0.4	323.15	0	0.000747	3.1e-05
0.4	323.15	0.1	0.000778	3.2e-05
0.4	323.15	0.2	0.000809	3.3e-05
0.4	323.15	0.3	0.000841	3.4e-05
0.4	323.15	0.4	0.000872	3.5e-05
0.6	293.15	0	0.001761	7.2e-05
0.6	293.15	0.1	0.001856	7.6e-05
0.6	293.15	0.2	0.001958	8e-05
0.6	293.15	0.3	0.002063	8.4e-05
0.6	293.15	0.4	0.002179	8.8e-05
0.6	303.15	0	0.001353	5.5e-05
0.6	303.15	0.1	0.001421	5.8e-05
0.6	303.15	0.2	0.001496	6.1e-05
0.6	303.15	0.3	0.001571	6.4e-05
0.6	303.15	0.4	0.00165	6.7e-05
0.6	313.15	0	0.001073	4.4e-05
0.6	313.15	0.1	0.001125	4.6e-05
0.6	313.15	0.2	0.001179	4.8e-05
0.6	313.15	0.3	0.001234	5e-05
0.6	313.15	0.4	0.001291	5.3e-05
0.6	323.15	0	0.000874	3.6e-05
0.6	323.15	0.1	0.000915	3.7e-05
0.6	323.15	0.2	0.000956	3.9e-05
0.6	323.15	0.3	0.000998	4.1e-05
0.6	323.15	0.4	0.001041	4.2e-05
0.8	293.15	0	0.002142	8.7e-05
0.8	293.15	0.1	0.002262	9.2e-05
0.8	293.15	0.2	0.002391	9.7e-05
0.8	293.15	0.3	0.002527	0.000103
0.8	293.15	0.4	0.002667	0.000109
0.8	303.15	0	0.001626	6.6e-05
0.8	303.15	0.1	0.001714	7e-05
0.8	303.15	0.2	0.001804	7.3e-05
0.8	303.15	0.3	0.001899	7.7e-05
0.8	303.15	0.4	0.001995	8.1e-05
0.8	313.15	0	0.001277	5.2e-05
0.8	313.15	0.1	0.001341	5.5e-05
0.8	313.15	0.2	0.001407	5.7e-05
0.8	313.15	0.3	0.001474	6e-05
0.8	313.15	0.4	0.001541	6.3e-05
0.8	323.15	0	0.001027	4.2e-05
0.8	323.15	0.1	0.001077	4.4e-05
0.8	323.15	0.2	0.001126	4.6e-05
0.8	323.15	0.3	0.001175	4.8e-05
0.8	323.15	0.4	0.001224	5e-05
1	293.15	0	0.00261	0.000106
1	293.15	0.1	0.002768	0.000112
1	293.15	0.2	0.002953	0.00012
1	293.15	0.3	0.003146	0.000128
1	293.15	0.4	0.00336	0.000137
1	303.15	0	0.001954	7.9e-05
1	303.15	0.1	0.002067	8.4e-05
1	303.15	0.2	0.002193	8.9e-05
1	303.15	0.3	0.002329	9.5e-05
1	303.15	0.4	0.00247	0.000101
1	313.15	0	0.001511	6.1e-05
1	313.15	0.1	0.001592	6.5e-05
1	313.15	0.2	0.001681	6.8e-05
1	313.15	0.3	0.001769	7.2e-05
1	313.15	0.4	0.001864	7.6e-05
1	323.15	0	0.001204	4.9e-05
1	323.15	0.1	0.001266	5.1e-05
1	323.15	0.2	0.00133	5.4e-05
1	323.15	0.3	0.001392	5.7e-05
1	323.15	0.4	0.001457	5.9e-05

System: 2-aminoacetic acid + water; phases: Liquid
Fixed: Pressure, kPa = 100
Property: Mass density, kg/m3 (Liquid); method: Vibrating tube method
Temperature, K	Molality, mol/kg of 2-aminoacetic acid	Mass density, kg/m3	uncertainty
293.15	0.1	1001.39	1.4
293.15	0.2	1004.56	1.4
293.15	0.3	1007.67	1.4
293.15	0.4	1010.73	1.4
293.15	0.5	1013.74	1.4
293.15	0.6	1016.72	1.4
293.15	0.7	1019.66	1.4
303.15	0.1	998.81	1.4
303.15	0.2	1001.91	1.4
303.15	0.3	1004.97	1.4
303.15	0.4	1007.98	1.4
303.15	0.5	1010.94	1.4
303.15	0.6	1013.87	1.4
303.15	0.7	1016.75	1.4
313.15	0.1	995.34	1.4
313.15	0.2	998.41	1.4
313.15	0.3	1001.42	1.4
313.15	0.4	1004.4	1.4
313.15	0.5	1007.32	1.4
313.15	0.6	1010.23	1.4
313.15	0.7	1013.06	1.4
323.15	0.1	991.09	1.4
323.15	0.2	994.12	1.4
323.15	0.3	997.11	1.4
323.15	0.4	1000.05	1.4
323.15	0.5	1002.96	1.4
323.15	0.6	1005.85	1.4
323.15	0.7	1008.69	1.4
293.15	0	998.18	1.4
303.15	0	995.66	1.4
313.15	0	992.24	1.4
323.15	0	988.02	1.4

System: 2-aminoacetic acid + water; phases: Liquid
Fixed: Pressure, kPa = 100
Property: Viscosity, Pa*s (Liquid); method: Capillary tube (Ostwald; Ubbelohde) method
Temperature, K	Molality, mol/kg of 2-aminoacetic acid	Viscosity, Pa*s	uncertainty
293.15	0.1	0.001014	4.1e-05
293.15	0.2	0.001027	4.2e-05
293.15	0.3	0.001041	4.2e-05
293.15	0.4	0.001055	4.3e-05
293.15	0.5	0.00107	4.3e-05
293.15	0.6	0.001085	4.4e-05
293.15	0.7	0.001101	4.5e-05
303.15	0.1	0.000809	3.3e-05
303.15	0.2	0.00082	3.3e-05
303.15	0.3	0.000832	3.4e-05
303.15	0.4	0.000844	3.4e-05
303.15	0.5	0.000856	3.5e-05
303.15	0.6	0.000868	3.5e-05
303.15	0.7	0.000881	3.6e-05
313.15	0.1	0.000663	2.7e-05
313.15	0.2	0.000673	2.7e-05
313.15	0.3	0.000683	2.8e-05
313.15	0.4	0.000693	2.8e-05
313.15	0.5	0.000704	2.9e-05
313.15	0.6	0.000714	2.9e-05
313.15	0.7	0.000724	2.9e-05
323.15	0.1	0.000556	2.3e-05
323.15	0.2	0.000565	2.3e-05
323.15	0.3	0.000574	2.3e-05
323.15	0.4	0.000582	2.4e-05
323.15	0.5	0.000591	2.4e-05
323.15	0.6	0.0006	2.4e-05
323.15	0.7	0.00061	2.5e-05
293.15	0	0.001002	4.1e-05
303.15	0	0.000798	3.2e-05
313.15	0	0.000654	2.6e-05
323.15	0	0.000547	2.2e-05

System: 4-O-.alpha.-D-glucopyranosyl-D-glucitol + water; phases: Liquid
Fixed: Pressure, kPa = 100
Property: Mass density, kg/m3 (Liquid); method: Vibrating tube method
Molality, mol/kg of 4-O-.alpha.-D-glucopyranosyl-D-glucitol	Temperature, K	Mass density, kg/m3	uncertainty
0.2	293.15	1022.97	1.42
0.2	303.15	1020.13	1.42
0.2	313.15	1016.42	1.42
0.2	323.15	1012.07	1.42
0.4	293.15	1045.59	1.42
0.4	303.15	1042.41	1.42
0.4	313.15	1038.47	1.42
0.4	323.15	1033.97	1.41
0.6	293.15	1066.2	1.42
0.6	303.15	1062.88	1.42
0.6	313.15	1058.71	1.42
0.6	323.15	1054.01	1.42
0.8	293.15	1085.31	1.41
0.8	303.15	1081.69	1.41
0.8	313.15	1077.36	1.41
0.8	323.15	1072.55	1.41
1	293.15	1102.86	1.41
1	303.15	1099.07	1.41
1	313.15	1094.66	1.41
1	323.15	1089.71	1.41
0	293.15	998.18	1.42
0	303.15	995.66	1.42
0	313.15	992.24	1.42
0	323.15	988.02	1.42

System: 4-O-.alpha.-D-glucopyranosyl-D-glucitol + water; phases: Liquid
Fixed: Pressure, kPa = 100
Property: Viscosity, Pa*s (Liquid); method: Capillary tube (Ostwald; Ubbelohde) method
Molality, mol/kg of 4-O-.alpha.-D-glucopyranosyl-D-glucitol	Temperature, K	Viscosity, Pa*s	uncertainty
0.2	293.15	0.001202	4.9e-05
0.2	303.15	0.00095	3.8e-05
0.2	313.15	0.00077	3.1e-05
0.2	323.15	0.000641	2.6e-05
0.4	293.15	0.001457	5.9e-05
0.4	303.15	0.001134	4.6e-05
0.4	313.15	0.000909	3.7e-05
0.4	323.15	0.000747	3e-05
0.6	293.15	0.001761	7.1e-05
0.6	303.15	0.001353	5.5e-05
0.6	313.15	0.001073	4.3e-05
0.6	323.15	0.000874	3.5e-05
0.8	293.15	0.002142	8.7e-05
0.8	303.15	0.001626	6.6e-05
0.8	313.15	0.001277	5.2e-05
0.8	323.15	0.001027	4.2e-05
1	293.15	0.00261	0.000106
1	303.15	0.001954	7.9e-05
1	313.15	0.001511	6.1e-05
1	323.15	0.001204	4.9e-05
0	293.15	0.001002	4.1e-05
0	303.15	0.000798	3.2e-05
0	313.15	0.000654	2.7e-05
0	323.15	0.000547	2.2e-05

System: (S)-2-aminopropanoic acid + water; phases: Liquid
Fixed: Pressure, kPa = 100
Property: Mass density, kg/m3 (Liquid); method: Vibrating tube method
Temperature, K	Molality, mol/kg of (S)-2-aminopropanoic acid	Mass density, kg/m3	uncertainty
293.15	0.1	1001.06	1.4
293.15	0.2	1003.89	1.4
293.15	0.3	1006.66	1.4
293.15	0.401	1009.41	1.4
293.15	0.5	1012.07	1.4
293.15	0.6	1014.71	1.4
293.15	0.7	1017.29	1.4
303.15	0.1	998.5	1.4
303.15	0.2	1001.29	1.4
303.15	0.3	1004.03	1.4
303.15	0.401	1006.73	1.4
303.15	0.5	1009.37	1.4
303.15	0.6	1011.97	1.4
303.15	0.7	1014.52	1.4
313.15	0.1	995.04	1.4
313.15	0.2	997.81	1.4
313.15	0.3	1000.5	1.4
313.15	0.401	1003.18	1.4
313.15	0.5	1005.79	1.4
313.15	0.6	1008.36	1.4
313.15	0.7	1010.9	1.4
323.15	0.1	990.8	1.4
323.15	0.2	993.55	1.4
323.15	0.3	996.24	1.4
323.15	0.401	998.9	1.4
323.15	0.5	1001.49	1.4
323.15	0.6	1004.08	1.4
323.15	0.7	1006.6	1.4
293.15	0	998.18	1.4
303.15	0	995.66	1.4
313.15	0	992.24	1.4
323.15	0	988.02	1.4

System: (S)-2-aminopropanoic acid + water; phases: Liquid
Fixed: Pressure, kPa = 100
Property: Viscosity, Pa*s (Liquid); method: Capillary tube (Ostwald; Ubbelohde) method
Temperature, K	Molality, mol/kg of (S)-2-aminopropanoic acid	Viscosity, Pa*s	uncertainty
293.15	0.1	0.001027	4.2e-05
293.15	0.2	0.001053	4.3e-05
293.15	0.3	0.001079	4.4e-05
293.15	0.4	0.001106	4.5e-05
293.15	0.5	0.001134	4.6e-05
293.15	0.6	0.001163	4.7e-05
293.15	0.7	0.001193	4.8e-05
303.15	0.1	0.000817	3.3e-05
303.15	0.2	0.000837	3.4e-05
303.15	0.3	0.000857	3.5e-05
303.15	0.4	0.000878	3.6e-05
303.15	0.5	0.000898	3.6e-05
303.15	0.6	0.000921	3.7e-05
303.15	0.7	0.000943	3.8e-05
313.15	0.1	0.000669	2.7e-05
313.15	0.2	0.000684	2.8e-05
313.15	0.3	0.0007	2.8e-05
313.15	0.4	0.000716	2.9e-05
313.15	0.5	0.000733	3e-05
313.15	0.6	0.000751	3e-05
313.15	0.7	0.000768	3.1e-05
323.15	0.1	0.000559	2.3e-05
323.15	0.2	0.000571	2.3e-05
323.15	0.3	0.000584	2.4e-05
323.15	0.4	0.000597	2.4e-05
323.15	0.5	0.000611	2.5e-05
323.15	0.6	0.000624	2.5e-05
323.15	0.7	0.000638	2.6e-05
293.15	0	0.001002	4.1e-05
303.15	0	0.000798	3.2e-05
313.15	0	0.000654	2.6e-05
323.15	0	0.000547	2.2e-05

System: L-threonine + water; phases: Liquid
Fixed: Pressure, kPa = 100
Property: Mass density, kg/m3 (Liquid); method: Vibrating tube method
Temperature, K	Molality, mol/kg of L-threonine	Mass density, kg/m3	uncertainty
293.15	0.1	1002.4	1.4
293.15	0.2	1006.54	1.4
293.15	0.3	1010.59	1.4
293.15	0.4	1014.57	1.4
293.15	0.5	1018.46	1.4
293.15	0.6	1022.28	1.4
293.15	0.7	1026.03	1.4
303.15	0.1	999.82	1.4
303.15	0.2	1003.91	1.4
303.15	0.3	1007.91	1.4
303.15	0.4	1011.83	1.4
303.15	0.5	1015.67	1.4
303.15	0.6	1019.43	1.4
303.15	0.7	1023.14	1.4
313.15	0.1	996.36	1.4
313.15	0.2	1000.4	1.4
313.15	0.3	1004.35	1.4
313.15	0.4	1008.22	1.4
313.15	0.5	1012.03	1.4
313.15	0.6	1015.75	1.4
313.15	0.7	1019.41	1.4
323.15	0.1	992.09	1.4
323.15	0.2	996.09	1.4
323.15	0.3	1000.01	1.4
323.15	0.4	1003.85	1.4
323.15	0.5	1007.62	1.4
323.15	0.6	1011.32	1.4
323.15	0.7	1014.96	1.4
293.15	0	998.18	1.4
303.15	0	995.66	1.4
313.15	0	992.24	1.4
323.15	0	988.02	1.4

System: L-threonine + water; phases: Liquid
Fixed: Pressure, kPa = 100
Property: Viscosity, Pa*s (Liquid); method: Capillary tube (Ostwald; Ubbelohde) method
Temperature, K	Molality, mol/kg of L-threonine	Viscosity, Pa*s	uncertainty
293.15	0.1	0.001035	4.2e-05
293.15	0.2	0.00107	4.3e-05
293.15	0.3	0.001105	4.5e-05
293.15	0.4	0.001143	4.6e-05
293.15	0.5	0.001182	4.8e-05
293.15	0.6	0.001221	4.9e-05
293.15	0.7	0.001263	5.1e-05
303.15	0.1	0.000823	3.3e-05
303.15	0.2	0.00085	3.4e-05
303.15	0.3	0.000878	3.6e-05
303.15	0.4	0.000907	3.7e-05
303.15	0.5	0.000936	3.8e-05
303.15	0.6	0.000967	3.9e-05
303.15	0.7	0.000999	4e-05
313.15	0.1	0.000673	2.7e-05
313.15	0.2	0.000694	2.8e-05
313.15	0.3	0.000717	2.9e-05
313.15	0.4	0.000739	3e-05
313.15	0.5	0.000763	3.1e-05
313.15	0.6	0.000787	3.2e-05
313.15	0.7	0.000811	3.3e-05
323.15	0.1	0.000563	2.3e-05
323.15	0.2	0.000579	2.3e-05
323.15	0.3	0.000596	2.4e-05
323.15	0.4	0.000615	2.5e-05
323.15	0.5	0.000632	2.6e-05
323.15	0.6	0.000651	2.6e-05
323.15	0.7	0.00067	2.7e-05
293.15	0	0.001002	4.1e-05
303.15	0	0.000798	3.2e-05
313.15	0	0.000654	2.6e-05
323.15	0	0.000547	2.2e-05

System: L-arginine + water; phases: Liquid
Fixed: Pressure, kPa = 100
Property: Mass density, kg/m3 (Liquid); method: Vibrating tube method
Temperature, K	Molality, mol/kg of L-arginine	Mass density, kg/m3	uncertainty
293.15	0.1	1003.16	1.4
293.15	0.2	1007.98	1.4
293.15	0.3	1012.67	1.4
293.15	0.4	1017.19	1.4
293.15	0.5	1021.57	1.4
293.15	0.6	1025.85	1.4
293.15	0.7	1030	1.4
303.15	0.1	1000.56	1.4
303.15	0.2	1005.3	1.4
303.15	0.3	1009.89	1.4
303.15	0.4	1014.33	1.4
303.15	0.5	1018.66	1.4
303.15	0.6	1022.85	1.4
303.15	0.7	1026.94	1.4
313.15	0.1	997.08	1.4
313.15	0.2	1001.76	1.4
313.15	0.3	1006.3	1.4
313.15	0.4	1010.71	1.4
313.15	0.5	1014.97	1.4
313.15	0.6	1019.13	1.4
313.15	0.7	1023.18	1.4
323.15	0.1	992.8	1.4
323.15	0.2	997.43	1.4
323.15	0.3	1001.92	1.4
323.15	0.4	1006.3	1.4
323.15	0.5	1010.54	1.4
323.15	0.6	1014.68	1.4
323.15	0.7	1018.67	1.4
293.15	0	998.18	1.4
303.15	0	995.66	1.4
313.15	0	992.24	1.4
323.15	0	988.02	1.4

System: L-arginine + water; phases: Liquid
Fixed: Pressure, kPa = 100
Property: Viscosity, Pa*s (Liquid); method: Capillary tube (Ostwald; Ubbelohde) method
Temperature, K	Molality, mol/kg of L-arginine	Viscosity, Pa*s	uncertainty
293.15	0.1	0.001054	4.3e-05
293.15	0.2	0.001109	4.5e-05
293.15	0.3	0.001167	4.7e-05
293.15	0.4	0.001229	5e-05
293.15	0.5	0.001296	5.2e-05
293.15	0.6	0.001366	5.5e-05
293.15	0.7	0.001435	5.8e-05
303.15	0.1	0.000837	3.4e-05
303.15	0.2	0.000879	3.6e-05
303.15	0.3	0.000922	3.7e-05
303.15	0.4	0.000969	3.9e-05
303.15	0.5	0.001019	4.1e-05
303.15	0.6	0.001069	4.3e-05
303.15	0.7	0.001121	4.5e-05
313.15	0.1	0.000684	2.8e-05
313.15	0.2	0.000716	2.9e-05
313.15	0.3	0.000751	3e-05
313.15	0.4	0.000786	3.2e-05
313.15	0.5	0.000825	3.3e-05
313.15	0.6	0.000863	3.5e-05
313.15	0.7	0.000903	3.7e-05
323.15	0.1	0.000572	2.3e-05
323.15	0.2	0.000598	2.4e-05
323.15	0.3	0.000625	2.5e-05
323.15	0.4	0.000653	2.6e-05
323.15	0.5	0.000682	2.8e-05
323.15	0.6	0.000713	2.9e-05
323.15	0.7	0.000743	3e-05
293.15	0	0.001002	4.1e-05
303.15	0	0.000798	3.2e-05
313.15	0	0.000654	2.6e-05
323.15	0	0.000547	2.2e-05

System: L-valine + water; phases: Liquid
Fixed: Pressure, kPa = 100
Property: Mass density, kg/m3 (Liquid); method: Vibrating tube method
Temperature, K	Molality, mol/kg of L-valine	Mass density, kg/m3	uncertainty
293.15	0.1	1000.87	1.4
293.15	0.2	1003.5	1.4
293.15	0.3	1006.05	1.4
293.15	0.4	1008.55	1.4
303.15	0.1	998.32	1.4
303.15	0.2	1000.9	1.4
303.15	0.3	1003.43	1.4
303.15	0.4	1005.9	1.4
313.15	0.1	994.85	1.4
313.15	0.2	997.4	1.4
313.15	0.3	999.89	1.4
313.15	0.4	1002.34	1.4
323.15	0.1	990.59	1.4
323.15	0.2	993.09	1.4
323.15	0.3	995.54	1.4
323.15	0.4	997.95	1.4
293.15	0	998.18	1.4
303.15	0	995.66	1.4
313.15	0	992.24	1.4
323.15	0	988.02	1.4

System: L-valine + water; phases: Liquid
Fixed: Pressure, kPa = 100
Property: Viscosity, Pa*s (Liquid); method: Capillary tube (Ostwald; Ubbelohde) method
Temperature, K	Molality, mol/kg of L-valine	Viscosity, Pa*s	uncertainty
293.15	0.1	0.001044	4.2e-05
293.15	0.2	0.001088	4.4e-05
293.15	0.3	0.001134	4.6e-05
293.15	0.4	0.001183	4.8e-05
303.15	0.1	0.00083	3.4e-05
303.15	0.2	0.000864	3.5e-05
303.15	0.3	0.000899	3.6e-05
303.15	0.4	0.000936	3.8e-05
313.15	0.1	0.000678	2.7e-05
313.15	0.2	0.000704	2.9e-05
313.15	0.3	0.000731	3e-05
313.15	0.4	0.00076	3.1e-05
323.15	0.1	0.000567	2.3e-05
323.15	0.2	0.000587	2.4e-05
323.15	0.3	0.000608	2.5e-05
323.15	0.4	0.00063	2.6e-05
293.15	0	0.001002	4.1e-05
303.15	0	0.000798	3.2e-05
313.15	0	0.000654	2.6e-05
323.15	0	0.000547	2.2e-05
