Measured thermophysical data. Thermodynamic measurement of (Al2O3 + B2O3) system by double Knudsen cell mass spectrometry
Source: J. Chem. Thermodyn., 2009, 10.1016/j.jct.2009.06.002
Compound 1: aluminum oxide (Al2O3), Al2O3, InChI=1S/2Al.3O/q2*+3;3*-2, purity 99.9%
Compound 2: boron oxide (B2O3), B2O3, InChI=1S/B2O3/c3-1-5-2-4, purity 99.9%

System: boron oxide (B2O3) + aluminum oxide (Al2O3); phases: Gas, Crystal
Fixed: Mole fraction of aluminum oxide (Al2O3) = 0.8182
Property: Vapor or sublimation pressure, kPa (Gas); method: Double Knudsen cell mass spectrometry
Temperature, K	Vapor or sublimation pressure, kPa	uncertainty
1573	7.1e-05	3.6e-05
1623	0.00025	9e-05
1673	0.00086	0.0002
