Measured thermophysical data. Thermodynamic properties of liquid (antimony + tin) and (gold + antimony + tin) alloys determined from e.m.f. measurements
Source: J. Chem. Thermodyn., 2015, 10.1016/j.jct.2015.01.010
Compound 1: antimony, Sb, InChI=1S/Sb, purity 99.99%
Compound 2: tin, Sn, InChI=1S/Sn, purity 99.99%
Compound 3: gold, Au, InChI=1S/Au, purity 99.9999%

System: tin + antimony; phases: Liquid
Fixed: Pressure, kPa = 101.3
Property: (Relative) activity of tin (Liquid); method: Calculated from EMF cell potential
Temperature, K	Mole fraction of tin	(Relative) activity of tin	uncertainty
973	0.8	0.6799	0.0373
998	0.8	0.7002	0.0392
1023	0.8	0.7201	0.0404
1048	0.8	0.7765	0.044
1073	0.8	0.7956	0.0434
1098	0.8	0.7905	0.0442
1123	0.8	0.7987	0.0428
1146	0.8	0.7819	0.0418
1173	0.8	0.8016	0.0426
1198	0.8	0.8156	0.0425
1223	0.8	0.8291	0.0428
973	0.6	0.3872	0.0353
998	0.6	0.3825	0.0358
1023	0.6	0.3992	0.036
1048	0.6	0.384	0.0379
1073	0.6	0.4122	0.038
1098	0.6	0.4105	0.0376
1123	0.6	0.4209	0.0374
1148	0.6	0.4381	0.036
1173	0.6	0.4341	0.0364
1198	0.6	0.4491	0.0364
1223	0.6	0.4587	0.0379
973	0.4	0.2195	0.033
998	0.4	0.2209	0.0326
1023	0.4	0.2306	0.0331
1048	0.4	0.2338	0.0323
1073	0.4	0.2442	0.0328
1098	0.4	0.2514	0.0326
1123	0.4	0.2627	0.0328
1148	0.4	0.2808	0.0329
1173	0.4	0.2899	0.0325
1198	0.4	0.3013	0.0327
1223	0.4	0.2854	0.0329
1048	0.2	0.072	0.0342
1073	0.2	0.074	0.0345
1098	0.2	0.0796	0.0347
1123	0.2	0.0789	0.0351
1148	0.2	0.0835	0.0359
1173	0.2	0.092	0.036
1198	0.2	0.0939	0.0362
1223	0.2	0.1036	0.0349

System: tin + antimony + gold; phases: Liquid
Fixed: Pressure, kPa = 101.3
Fixed: Solvent: Mole fraction of gold = 0.667
Property: (Relative) activity of tin (Liquid); method: Calculated from EMF cell potential
Mole fraction of tin	Temperature, K	(Relative) activity of tin	uncertainty
0.8	973	0.6006	0.0651
0.8	998	0.6147	0.0637
0.8	1023	0.606	0.0601
0.8	1048	0.6059	0.0614
0.8	1073	0.6137	0.0582
0.8	1098	0.6265	0.0591
0.8	1123	0.6207	0.0585
0.8	1148	0.6203	0.0572
0.8	1173	0.6347	0.0564
0.8	1198	0.634	0.0565
0.8	1223	0.6333	0.0558
0.8	1248	0.6421	0.0549
0.8	1273	0.6436	0.0563
0.7	973	0.2979	0.0532
0.7	998	0.3117	0.0511
0.7	1023	0.333	0.0493
0.7	1048	0.3259	0.0484
0.7	1073	0.3497	0.0483
0.7	1098	0.3496	0.0488
0.7	1123	0.3553	0.0475
0.7	1148	0.3652	0.0471
0.7	1173	0.3735	0.0475
0.7	1198	0.3772	0.0471
0.7	1223	0.3837	0.0466
0.7	1248	0.3915	0.047
0.7	1273	0.3877	0.0469
0.6	973	0.1696	0.0354
0.6	998	0.1834	0.036
0.6	1023	0.1949	0.0367
0.6	1048	0.2056	0.0358
0.6	1073	0.2126	0.0372
0.6	1098	0.2196	0.0367
0.6	1123	0.2292	0.0366
0.6	1148	0.2322	0.0367
0.6	1173	0.2417	0.0367
0.6	1198	0.2454	0.037
0.6	1223	0.2508	0.0369
0.6	1248	0.2534	0.0373
0.6	1273	0.2521	0.0364
0.5	973	0.0943	0.032
0.5	998	0.097	0.0323
0.5	1023	0.1052	0.0324
0.5	1048	0.1101	0.0327
0.5	1073	0.1111	0.0328
0.5	1098	0.117	0.033
0.5	1123	0.1243	0.0333
0.5	1148	0.1318	0.0331
0.5	1173	0.1383	0.0336
0.5	1198	0.1367	0.0337
0.5	1223	0.1447	0.0339
0.5	1248	0.145	0.0339
0.5	1273	0.1564	0.0338
0.4	973	0.0558	0.0311
0.4	998	0.0604	0.0311
0.4	1023	0.0668	0.0312
0.4	1048	0.0685	0.0313
0.4	1073	0.0734	0.0311
0.4	1098	0.0744	0.0313
0.4	1123	0.076	0.0314
0.4	1148	0.0802	0.0316
0.4	1173	0.0789	0.0317
0.4	1198	0.0804	0.0316
0.4	1223	0.0809	0.0318
0.4	1248	0.0824	0.0318
0.4	1273	0.0826	0.0321
0.3	973	0.0241	0.0314
0.3	998	0.0283	0.0314
0.3	1023	0.0287	0.0312
0.3	1048	0.0266	0.0312
0.3	1073	0.0343	0.0312
0.3	1098	0.0301	0.0312
0.3	1123	0.0363	0.0312
0.3	1148	0.0335	0.0313
0.3	1173	0.0378	0.0312
0.3	1198	0.039	0.0312
0.3	1223	0.0394	0.0312
0.3	1248	0.0405	0.0312
0.3	1273	0.0432	0.0311
0.2	1023	0.0106	0.0311
0.2	1048	0.0119	0.0309
0.2	1073	0.0125	0.031
0.2	1098	0.0138	0.0309
0.2	1123	0.014	0.031
0.2	1148	0.0151	0.0309
0.2	1173	0.0153	0.031
0.2	1198	0.0159	0.031
0.2	1223	0.016	0.031
0.2	1248	0.0172	0.031
0.2	1273	0.0174	0.0309
0.1	1048	0.0027	0.031
0.1	1073	0.0031	0.031
0.1	1098	0.0034	0.031
0.1	1123	0.0038	0.031
0.1	1148	0.0041	0.031
0.1	1173	0.0043	0.031
0.1	1198	0.0046	0.031
0.1	1223	0.0047	0.031
0.1	1248	0.005	0.031
0.1	1273	0.0054	0.031

System: tin + antimony + gold; phases: Liquid
Fixed: Pressure, kPa = 101.3
Fixed: Solvent: Mole fraction of gold = 0.333
Property: (Relative) activity of tin (Liquid); method: Calculated from EMF cell potential
Mole fraction of tin	Temperature, K	(Relative) activity of tin	uncertainty
0.8	973	0.5356	0.0342
0.8	998	0.5272	0.0327
0.8	1023	0.5265	0.0325
0.8	1048	0.5595	0.0348
0.8	1073	0.5653	0.0346
0.8	1098	0.5519	0.0346
0.8	1123	0.5668	0.033
0.8	1148	0.5472	0.033
0.8	1173	0.5682	0.035
0.8	1198	0.589	0.0356
0.8	1223	0.5937	0.0349
0.8	1248	0.5872	0.0345
0.8	1273	0.5832	0.0348
0.7	973	0.4179	0.0383
0.7	998	0.4237	0.0379
0.7	1023	0.4332	0.0339
0.7	1048	0.427	0.0354
0.7	1073	0.436	0.0354
0.7	1098	0.4392	0.0347
0.7	1123	0.4441	0.0351
0.7	1148	0.4507	0.0343
0.7	1173	0.4428	0.0349
0.7	1198	0.4526	0.0373
0.7	1223	0.4639	0.0362
0.7	1248	0.4646	0.0378
0.7	1273	0.4585	0.0365
0.6	973	0.2557	0.038
0.6	998	0.2517	0.0371
0.6	1023	0.3082	0.0363
0.6	1048	0.3188	0.0354
0.6	1073	0.3235	0.0358
0.6	1098	0.3212	0.0359
0.6	1123	0.3298	0.036
0.6	1148	0.3209	0.0366
0.6	1173	0.3343	0.0354
0.6	1198	0.3193	0.0361
0.6	1223	0.3373	0.0363
0.6	1248	0.3086	0.0367
0.6	1273	0.3207	0.0362
0.5	973	0.1625	0.0336
0.5	998	0.1817	0.0323
0.5	1023	0.1967	0.0345
0.5	1048	0.2011	0.0349
0.5	1073	0.2036	0.0348
0.5	1098	0.2052	0.0346
0.5	1123	0.2084	0.0349
0.5	1148	0.2065	0.0342
0.5	1173	0.2146	0.0347
0.5	1198	0.2159	0.0337
0.5	1223	0.2213	0.0342
0.5	1248	0.2208	0.0327
0.5	1273	0.2211	0.0335
0.4	973	0.0887	0.0326
0.4	998	0.1069	0.0326
0.4	1023	0.1167	0.0329
0.4	1048	0.1198	0.0329
0.4	1073	0.1254	0.0325
0.4	1098	0.1273	0.0326
0.4	1123	0.1301	0.0325
0.4	1148	0.134	0.0323
0.4	1173	0.1367	0.0325
0.4	1198	0.1399	0.0324
0.4	1223	0.1463	0.0325
0.4	1248	0.1472	0.0325
0.4	1273	0.1427	0.0326
0.3	973	0.0427	0.0311
0.3	998	0.0483	0.0315
0.3	1023	0.0535	0.0316
0.3	1048	0.0574	0.0316
0.3	1073	0.0673	0.0317
0.3	1098	0.0672	0.0316
0.3	1123	0.0726	0.0316
0.3	1148	0.0745	0.0315
0.3	1173	0.0767	0.0317
0.3	1198	0.0795	0.0316
0.3	1223	0.0797	0.0319
0.3	1248	0.0806	0.0317
0.3	1273	0.0794	0.0316
0.2	973	0.0216	0.0309
0.2	998	0.024	0.0309
0.2	1023	0.0283	0.0309
0.2	1048	0.0294	0.0309
0.2	1073	0.0307	0.0311
0.2	1098	0.033	0.031
0.2	1123	0.035	0.0311
0.2	1148	0.042	0.031
0.2	1173	0.0362	0.0311
0.2	1198	0.0439	0.0311
0.2	1223	0.0406	0.0311
0.2	1248	0.0449	0.0311
0.2	1273	0.0478	0.0309
0.1	973	0.01	0.031
0.1	998	0.0113	0.031
0.1	1023	0.0133	0.031
0.1	1048	0.0154	0.0309
0.1	1073	0.0153	0.0309
0.1	1098	0.0171	0.031
0.1	1123	0.017	0.031
0.1	1148	0.0182	0.0312
0.1	1173	0.0177	0.031
0.1	1198	0.0189	0.0312
0.1	1223	0.0189	0.0311
0.1	1248	0.0196	0.0312
0.1	1273	0.0196	0.0313
