Measured thermophysical data. Excess enthalpy HE and massic heat capacity cp of (water + methanol) at temperatures between 323 K and 513 K and pressures up to 10 MPa
Source: J. Chem. Thermodyn., 2006, 10.1016/j.jct.2005.03.012
Compound 1: water, H2O, InChI=1S/H2O/h1H2
Compound 2: methanol, CH4O, InChI=1S/CH4O/c1-2/h2H,1H3

System: methanol; phases: Liquid
Property: Molar heat capacity at constant pressure, J/K/mol (Liquid); method: Flow calorimetry
Temperature, K	Pressure, kPa	Molar heat capacity at constant pressure, J/K/mol	uncertainty
248.15	500	74.0166966	0.259539066
248.15	1000	74.0166966	0.259539066
248.15	2500	73.95261288	0.259539066
248.15	5000	73.88852916	0.259539066
248.15	7500	73.79240358	0.259539066
248.15	10000	73.79240358	0.259539066
248.15	12500	73.76036172	0.259539066
273.15	500	77.02863144	0.259539066
273.15	1000	76.99658958	0.259539066
273.15	2500	76.93250586	0.259539066
273.15	5000	76.83638028	0.259539066
273.15	7500	76.80433842	0.259539066
273.15	10000	76.77229656	0.259539066
273.15	12500	76.7402547	0.259539066
298.15	500	81.3863244	0.291580926
298.15	1000	81.35428254	0.291580926
298.15	2500	81.19407324	0.291580926
298.15	5000	81.0659058	0.291580926
298.15	7500	81.03386394	0.291580926
298.15	10000	80.9056965	0.259539066
298.15	12500	80.9056965	0.259539066
323.15	500	86.86548246	0.291580926
323.15	1000	86.80139874	0.291580926
323.15	2500	86.64118944	0.291580926
323.15	5000	86.44893828	0.291580926
323.15	7500	86.28872898	0.291580926
323.15	10000	86.12851968	0.291580926
323.15	12500	86.00035224	0.291580926
348.15	500	93.65835678	0.3204186
348.15	1000	93.59427306	0.3204186
348.15	2500	93.43406376	0.3204186
348.15	5000	93.17772888	0.3204186
348.15	7500	92.921394	0.3204186
348.15	10000	92.72914284	0.3204186
348.15	12500	92.40872424	0.3204186
373.15	500	101.82903108	0.35246046
373.15	1000	101.76494736	0.35246046
373.15	2500	101.4124869	0.35246046
373.15	5000	100.99594272	0.35246046
373.15	7500	100.64348226	0.35246046
373.15	10000	100.22693808	0.3204186
373.15	12500	99.9706032	0.3204186
398.15	1000	111.85813326	0.38450232
398.15	2500	111.28137978	0.38450232
398.15	5000	110.3842077	0.38450232
398.15	7500	109.5831612	0.35246046
398.15	10000	108.97436586	0.35246046
398.15	12500	108.33352866	0.35246046
423.15	2500	122.97665868	0.41654418
423.15	5000	121.40660754	0.41654418
423.15	7500	120.02880756	0.41654418
423.15	10000	118.84325874	0.38450232
423.15	12500	117.84996108	0.38450232
473.15	5000	162.32406276	0.54471162
473.15	7500	152.93579778	0.51266976
473.15	10000	146.9119281	0.4806279
473.15	12500	142.7464863	0.4806279

System: methanol + water; phases: Liquid
Property: Molar heat capacity at constant pressure, J/K/mol (Liquid); method: Flow calorimetry
Pressure, kPa	Mole fraction of methanol	Temperature, K	Molar heat capacity at constant pressure, J/K/mol	uncertainty
2000	0.2	333.71	86.863526512	0.541335496
2000	0.2	424.77	92.006213724	0.562156092
2000	0.4	334.13	90.156480192	0.567021888
2000	0.4	424.4	102.938098584	0.637899624
2000	0.6	333.52	90.896993092	0.555055788
2000	0.6	424.42	111.486919704	0.687211928
2000	0.8	330.98	89.814663168	0.555494336
2000	0.8	424.59	118.729605184	0.7309136
5000	0.1	331.74	82.215549492	0.504866388
5000	0.1	354.53	82.778669694	0.504866388
5000	0.1	377.92	83.225282268	0.524284326
5000	0.1	425.68	85.14765813	0.524284326
5000	0.1	474.27	89.788545312	0.563120202
5000	0.2	333.43	86.676141148	0.541335496
5000	0.2	355.92	87.321579624	0.541335496
5000	0.2	378.78	88.716559556	0.541335496
5000	0.2	425.05	91.902110744	0.562156092
5000	0.2	474.26	96.836591996	0.603797284
5000	0.3	334	88.537443936	0.55558135
5000	0.3	356.17	90.870885606	0.55558135
5000	0.3	378.77	92.826531958	0.577804604
5000	0.3	424.97	97.582308314	0.600027858
5000	0.3	472.91	104.693749594	0.644474366
5000	0.4	333.95	89.967472896	0.567021888
5000	0.4	356.11	92.660826864	0.567021888
5000	0.4	378.64	96.440972784	0.5906478
5000	0.4	424.22	102.7727172	0.637899624
5000	0.4	472.32	111.75056376	0.685151448
5000	0.5	333.89	90.42822341	0.55062854
5000	0.5	355.86	94.45782318	0.57565711
5000	0.5	378.47	98.56250866	0.60068568
5000	0.5	424.2	107.27245102	0.65074282
5000	0.5	472.56	119.43633604	0.72582853
5000	0.6	333.19	90.870561864	0.555055788
5000	0.6	355.71	95.601751676	0.581487016
5000	0.6	378.34	100.465097628	0.634349472
5000	0.6	424.47	111.249038652	0.687211928
5000	0.6	472.98	127.900712292	0.79293684
5000	0.7	332.15	90.682800588	0.55667772
5000	0.7	355.25	96.110408358	0.584511606
5000	0.7	377.99	101.844188874	0.640179378
5000	0.7	424.24	114.480773118	0.69584715
5000	0.7	473.11	135.077848758	0.83501658
5000	0.8	330.92	90.19473824	0.555494336
5000	0.8	354.08	95.720445056	0.58473088
5000	0.8	377.42	102.591032896	0.643203968
5000	0.8	424.54	118.057164672	0.7309136
5000	0.8	473.16	142.995936704	0.87709632
5000	0.9	329.01	88.914964204	0.551505636
5000	0.9	352.61	95.165361412	0.582144838
5000	0.9	376.69	102.610687498	0.643423242
5000	0.9	424.89	121.269961516	0.735340848
5000	0.9	473.95	153.778154838	0.949815262
8500	0.1	499.19	92.176951686	0.563120202
8500	0.1	508.68	95.380911456	0.58253814
8500	0.1	515.73	95.691598464	0.58253814
8500	0.2	472.78	96.545103652	0.603797284
8500	0.2	497.97	101.625329076	0.62461788
8500	0.2	508.96	103.832312252	0.645438476
8500	0.2	517.62	106.768016288	0.666259072
8500	0.3	497.3	109.44952595	0.66669762
8500	0.3	510.32	114.538651116	0.711144128
8500	0.3	517.97	119.138864694	0.733367382
8500	0.4	472.41	110.522016336	0.685151448
8500	0.4	497.56	118.932841008	0.732403272
8500	0.4	509.58	124.673937624	0.779655096
8500	0.4	519.33	133.935295128	0.82690692
8500	0.5	498.08	128.47164981	0.80091424
8500	0.5	510.29	137.85736356	0.85097138
8500	0.5	520.61	150.12136286	0.92605709
8500	0.6	437.16	124.306065284	0.766505612
8500	0.6	498.33	139.081121736	0.872230524
8500	0.6	511.4	155.15130836	0.951524208
8500	0.6	522.42	186.763057048	1.162974032
8500	0.7	499.85	152.501861394	0.946352124
8500	0.7	511.15	175.965827292	1.085521554
8500	0.7	519.69	212.23338075	1.336026528
8500	0.8	474.92	138.522745472	0.847859776
8500	0.8	499.79	166.326698816	1.02327904
8500	0.8	511.09	204.860463808	1.286407936
8500	0.8	518.82	303.270670912	1.958848448
8500	0.9	500.37	185.796120928	1.194928878
8500	0.9	511.68	268.001099894	1.99154813
8500	0.9	516.4	508.518835594	3.492869028
10000	0.1	514.53	95.011970634	0.58253814
10000	0.2	333.48	86.176446844	0.541335496
10000	0.2	424.7	91.256672268	0.562156092
10000	0.2	473.53	96.732489016	0.603797284
10000	0.2	497	100.230349144	0.62461788
10000	0.2	507.38	104.51939192	0.645438476
10000	0.2	514.91	105.185650992	0.645438476
10000	0.3	514.08	115.360911514	0.711144128
10000	0.4	334.08	89.565832392	0.543395976
10000	0.4	424.36	101.142529272	0.614273712
10000	0.4	471.87	110.238505392	0.685151448
10000	0.4	497	117.77517132	0.732403272
10000	0.4	507.6	122.358598248	0.756029184
10000	0.4	514.03	126.540384672	0.779655096
10000	0.5	513.62	138.48307781	0.85097138
10000	0.6	333.12	89.99833134	0.555055788
10000	0.6	424.53	108.790934448	0.687211928
10000	0.6	471.84	122.64089792	0.766505612
10000	0.6	498.46	136.332274024	0.845799296
10000	0.6	508.54	145.979672244	0.898661752
10000	0.6	514.03	154.88699608	0.951524208
10000	0.7	515.25	174.880305738	1.085521554
10000	0.8	330.62	89.873136256	0.555494336
10000	0.8	424.59	118.70036864	0.7309136
10000	0.8	473.21	135.80374688	0.847859776
10000	0.8	499.83	159.514584064	0.994042496
10000	0.8	509.5	178.63528384	1.110988672
10000	0.8	515.2	198.36995104	1.374117568
10000	0.9	514.98	229.94721101	2.389857756

System: methanol + water; phases: Liquid
Property: Excess molar enthalpy (molar enthalpy of mixing), kJ/mol (Liquid); method: FLOW:UFactor:4
Pressure, kPa	Mole fraction of methanol	Temperature, K	Excess molar enthalpy (molar enthalpy of mixing), kJ/mol	uncertainty
2000	0.2	323.15	-0.6419	0.023
2000	0.2	325.17	-0.6222	0.0224
2000	0.2	330.64	-0.5801	0.0211
2000	0.2	332.42	-0.5555	0.0203
2000	0.2	421.8	0.1095	0.0065
2000	0.2	423.15	0.1162	0.0067
2000	0.2	423.69	0.1207	0.0068
2000	0.2	425	0.128	0.0071
2000	0.4	323.15	-0.7028	0.0249
2000	0.4	325.17	-0.687	0.0244
2000	0.4	331.07	-0.632	0.0227
2000	0.4	332.88	-0.6175	0.0222
2000	0.4	420.97	0.1954	0.0092
2000	0.4	422.86	0.2093	0.0096
2000	0.4	423.15	0.2096	0.0096
2000	0.4	425	0.2258	0.0101
2000	0.6	323.15	-0.5937	0.0215
2000	0.6	325.17	-0.5768	0.021
2000	0.6	329.82	-0.5481	0.0201
2000	0.6	331.66	-0.5327	0.0196
2000	0.6	421.19	0.1914	0.009
2000	0.6	423.08	0.205	0.0095
2000	0.6	423.15	0.2027	0.0094
2000	0.6	425	0.228	0.0102
2000	0.8	323.15	-0.4094	0.0158
2000	0.8	325.17	-0.3979	0.0154
2000	0.8	327.62	-0.3911	0.0152
2000	0.8	329.03	-0.3796	0.0149
2000	0.8	421.97	0.1082	0.0065
2000	0.8	423.15	0.113	0.0066
2000	0.8	423.49	0.1149	0.0067
2000	0.8	425	0.1197	0.0068
5000	0.1	323.15	-0.4448	0.0169
5000	0.1	325.16	-0.4303	0.0164
5000	0.1	328.61	-0.4134	0.0159
5000	0.1	330.39	-0.4	0.0155
5000	0.1	348.15	-0.2947	0.0122
5000	0.1	350.05	-0.282	0.0118
5000	0.1	351.64	-0.2759	0.0116
5000	0.1	353.54	-0.2612	0.0112
5000	0.1	373.15	-0.1616	0.0081
5000	0.1	375.03	-0.1576	0.008
5000	0.1	375.05	-0.1523	0.0078
5000	0.1	376.98	-0.1422	0.0075
5000	0.1	422.53	0.0476	0.0048
5000	0.1	423.15	0.0495	0.0052
5000	0.1	424.45	0.0554	0.0051
5000	0.1	424.96	0.0569	0.0055
5000	0.1	471.22	0.1639	0.0082
5000	0.1	473.15	0.1653	0.0084
5000	0.1	473.36	0.1663	0.0083
5000	0.1	474.92	0.1677	0.0085
5000	0.2	323.15	-0.646	0.0231
5000	0.2	325.16	-0.6267	0.0225
5000	0.2	330.69	-0.5843	0.0212
5000	0.2	332.5	-0.5689	0.0207
5000	0.2	348.15	-0.4255	0.0163
5000	0.2	350.05	-0.409	0.0158
5000	0.2	353.01	-0.3857	0.015
5000	0.2	354.82	-0.3695	0.0145
5000	0.2	373.15	-0.2216	0.01
5000	0.2	375.03	-0.2055	0.0095
5000	0.2	375.68	-0.2024	0.0094
5000	0.2	377.47	-0.187	0.0089
5000	0.2	421.84	0.1126	0.0066
5000	0.2	423.15	0.1199	0.0068
5000	0.2	423.68	0.125	0.007
5000	0.2	424.96	0.1318	0.0072
5000	0.2	469.81	0.2998	0.0124
5000	0.2	473.11	0.302	0.0125
5000	0.2	473.15	0.3009	0.0124
5000	0.2	474.92	0.3017	0.0124
5000	0.3	323.15	-0.7106	0.0251
5000	0.3	325.16	-0.6889	0.0244
5000	0.3	331.23	-0.6377	0.0229
5000	0.3	333.05	-0.6207	0.0223
5000	0.3	348.15	-0.4674	0.0176
5000	0.3	350.05	-0.4434	0.0168
5000	0.3	353.32	-0.419	0.0161
5000	0.3	355.11	-0.4003	0.0155
5000	0.3	373.15	-0.2316	0.0103
5000	0.3	375.03	-0.2124	0.0097
5000	0.3	375.66	-0.2083	0.0096
5000	0.3	377.41	-0.1904	0.009
5000	0.3	421.39	0.1607	0.0081
5000	0.3	423.15	0.1734	0.0085
5000	0.3	423.37	0.1739	0.0085
5000	0.3	424.96	0.1849	0.0088
5000	0.3	469.39	0.3898	0.0152
5000	0.3	471.45	0.3938	0.0153
5000	0.3	473.15	0.3901	0.0152
5000	0.3	474.92	0.392	0.0152
5000	0.4	323.15	-0.7082	0.025
5000	0.4	325.16	-0.6881	0.0244
5000	0.4	331.07	-0.6382	0.0229
5000	0.4	332.9	-0.6197	0.0223
5000	0.4	348.15	-0.4646	0.0175
5000	0.4	350.05	-0.4448	0.0169
5000	0.4	353.16	-0.4162	0.016
5000	0.4	354.97	-0.3974	0.0154
5000	0.4	373.15	-0.2205	0.0099
5000	0.4	375.03	-0.2006	0.0093
5000	0.4	375.45	-0.198	0.0092
5000	0.4	377.26	-0.1788	0.0086
5000	0.4	420.98	0.2021	0.0094
5000	0.4	422.84	0.218	0.0099
5000	0.4	423.15	0.2183	0.0099
5000	0.4	424.96	0.2341	0.0104
5000	0.4	469.29	0.4339	0.0165
5000	0.4	471.24	0.4353	0.0166
5000	0.4	473.15	0.4307	0.0164
5000	0.4	474.92	0.4299	0.0164
5000	0.5	323.15	-0.6592	0.0235
5000	0.5	325.16	-0.6406	0.0229
5000	0.5	330.5	-0.6011	0.0217
5000	0.5	332.3	-0.5838	0.0212
5000	0.5	348.15	-0.4457	0.0169
5000	0.5	350.05	-0.4277	0.0164
5000	0.5	352.88	-0.4017	0.0155
5000	0.5	354.69	-0.3855	0.015
5000	0.5	373.15	-0.207	0.0095
5000	0.5	375.03	-0.1882	0.0089
5000	0.5	375.26	-0.1869	0.0089
5000	0.5	377.07	-0.1688	0.0083
5000	0.5	420.98	0.2134	0.0097
5000	0.5	422.84	0.2289	0.0102
5000	0.5	423.15	0.2297	0.0102
5000	0.5	424.96	0.245	0.0107
5000	0.5	469.49	0.4369	0.0166
5000	0.5	471.36	0.4352	0.0166
5000	0.5	473.15	0.431	0.0165
5000	0.5	474.92	0.4283	0.0164
5000	0.6	323.15	-0.5959	0.0216
5000	0.6	325.16	-0.5802	0.0211
5000	0.6	329.76	-0.5494	0.0201
5000	0.6	331.61	-0.5347	0.0197
5000	0.6	348.15	-0.4076	0.0157
5000	0.6	350.05	-0.3918	0.0152
5000	0.6	352.43	-0.3702	0.0146
5000	0.6	354.25	-0.3566	0.0141
5000	0.6	373.15	-0.1945	0.0091
5000	0.6	375.03	-0.1767	0.0086
5000	0.6	375.09	-0.1774	0.0086
5000	0.6	376.94	-0.1599	0.0081
5000	0.6	421.18	0.2009	0.0093
5000	0.6	423.12	0.2143	0.0097
5000	0.6	423.15	0.2149	0.0098
5000	0.6	424.96	0.2364	0.0104
5000	0.6	469.91	0.4017	0.0155
5000	0.6	471.91	0.3986	0.0154
5000	0.6	473.15	0.3976	0.0154
5000	0.6	474.92	0.3936	0.0153
5000	0.7	323.15	-0.5092	0.0189
5000	0.7	325.16	-0.4991	0.0186
5000	0.7	328.71	-0.4769	0.0179
5000	0.7	330.7	-0.4674	0.0176
5000	0.7	348.15	-0.3637	0.0144
5000	0.7	350.05	-0.3494	0.0139
5000	0.7	351.93	-0.333	0.0134
5000	0.7	353.78	-0.3234	0.0131
5000	0.7	373.15	-0.1778	0.0086
5000	0.7	374.83	-0.1649	0.0082
5000	0.7	375.03	-0.1625	0.0081
5000	0.7	376.69	-0.1499	0.0077
5000	0.7	421.51	0.1691	0.0083
5000	0.7	423.14	0.1807	0.0087
5000	0.7	423.15	0.1761	0.0086
5000	0.7	424.96	0.1887	0.0089
5000	0.7	470.63	0.336	0.0135
5000	0.7	472.04	0.333	0.0134
5000	0.7	473.15	0.3299	0.0133
5000	0.7	474.92	0.3255	0.0132
5000	0.8	323.15	-0.4129	0.0159
5000	0.8	325.16	-0.401	0.0155
5000	0.8	327.47	-0.395	0.0153
5000	0.8	330.07	-0.3827	0.015
5000	0.8	348.15	-0.2908	0.0121
5000	0.8	350.05	-0.279	0.0117
5000	0.8	351.04	-0.2621	0.0112
5000	0.8	352.79	-0.2652	0.0113
5000	0.8	373.15	-0.1509	0.0078
5000	0.8	374.46	-0.1432	0.0075
5000	0.8	375.03	-0.1395	0.0074
5000	0.8	376.12	-0.133	0.0072
5000	0.8	421.98	0.1184	0.0068
5000	0.8	423.15	0.1231	0.0069
5000	0.8	423.39	0.1251	0.007
5000	0.8	424.96	0.133	0.0072
5000	0.8	471.34	0.2386	0.0105
5000	0.8	472.28	0.2346	0.0104
5000	0.8	473.15	0.2323	0.0103
5000	0.8	474.92	0.2242	0.0101
5000	0.9	323.15	-0.2303	0.0102
5000	0.9	325.16	-0.2293	0.0102
5000	0.9	325.45	-0.2246	0.0101
5000	0.9	327.48	-0.2241	0.01
5000	0.9	348.15	-0.1773	0.0087
5000	0.9	349.68	-0.1725	0.0084
5000	0.9	350.05	-0.1708	0.0084
5000	0.9	351.25	-0.1666	0.0083
5000	0.9	373.15	-0.0975	0.0065
5000	0.9	373.82	-0.0949	0.0064
5000	0.9	375.03	-0.0895	0.006
5000	0.9	375.35	-0.0886	0.0059
5000	0.9	422.47	0.059	0.005
5000	0.9	423.15	0.0599	0.0053
5000	0.9	423.76	0.0632	0.0052
5000	0.9	424.96	0.0668	0.0055
5000	0.9	472.23	0.124	0.0069
5000	0.9	473.15	0.1248	0.007
5000	0.9	473.17	0.1192	0.0071
5000	0.9	474.92	0.1161	0.0071
8500	0.1	498.15	0.1854	0.0089
8500	0.1	500.09	0.1864	0.009
8500	0.1	506.59	0.1554	0.0079
8500	0.1	507.86	0.144	0.0076
8500	0.1	508.15	0.1432	0.0076
8500	0.1	509.91	0.1247	0.007
8500	0.1	513.15	0.0461	0.0234
8500	0.1	514.32	-0.0376	0.0504
8500	0.2	469.66	0.3318	0.0134
8500	0.2	471.54	0.3397	0.0136
8500	0.2	473.15	0.3422	0.0137
8500	0.2	475.47	0.3473	0.0141
8500	0.2	498.15	0.3326	0.0134
8500	0.2	500.09	0.3212	0.0131
8500	0.2	506.02	0.2581	0.0111
8500	0.2	508.01	0.222	0.01
8500	0.2	508.15	0.2198	0.0099
8500	0.2	509.91	0.1815	0.0087
8500	0.2	513.15	0.0327	0.0235
8500	0.2	514.32	-0.1683	0.0529
8500	0.3	498.15	0.4097	0.0158
8500	0.3	500.09	0.3937	0.0153
8500	0.3	505.93	0.3148	0.0129
8500	0.3	508.15	0.2537	0.011
8500	0.3	509.15	0.2158	0.0098
8500	0.3	509.91	0.1951	0.0091
8500	0.3	513.15	-0.05	0.0236
8500	0.3	514.32	-0.2799	0.0586
8500	0.4	468.72	0.4831	0.0181
8500	0.4	471.01	0.4945	0.0184
8500	0.4	473.15	0.4982	0.0185
8500	0.4	475.47	0.5055	0.0188
8500	0.4	498.15	0.4436	0.0168
8500	0.4	500.09	0.4222	0.0162
8500	0.4	506.29	0.3079	0.0126
8500	0.4	508.15	0.242	0.0106
8500	0.4	508.68	0.2152	0.0098
8500	0.4	509.91	0.1606	0.0081
8500	0.4	513.15	-0.1232	0.025
8500	0.4	514.32	-0.4926	0.0745
8500	0.5	498.15	0.4321	0.0165
8500	0.5	500.09	0.4093	0.0158
8500	0.5	506.7	0.2524	0.0109
8500	0.5	508.15	0.1904	0.009
8500	0.5	509.29	0.1255	0.007
8500	0.5	509.91	0.0925	0.0061
8500	0.5	513.15	-0.2328	0.0286
8500	0.5	514.32	-0.6677	0.0804
8500	0.6	469.31	0.4622	0.0174
8500	0.6	471.49	0.4717	0.0177
8500	0.6	473.15	0.4742	0.0178
8500	0.6	475.47	0.4803	0.018
8500	0.6	498.15	0.3925	0.0153
8500	0.6	500.09	0.363	0.0143
8500	0.6	507.3	0.1635	0.0084
8500	0.6	508.15	0.1207	0.0075
8500	0.6	509.91	0.0115	0.0053
8500	0.6	510.22	0.0063	0.005
8500	0.6	513.15	-0.3884	0.0354
8500	0.6	514.32	-0.764	0.0825
8500	0.7	498.15	0.317	0.0129
8500	0.7	500.09	0.2856	0.0119
8500	0.7	507.82	0.0686	0.0069
8500	0.7	508.15	0.0504	0.007
8500	0.7	509.91	-0.068	0.0073
8500	0.7	510.17	-0.0888	0.0076
8500	0.7	513.15	-0.5861	0.0423
8500	0.7	514.32	-0.8949	0.0876
8500	0.8	471.06	0.2882	0.012
8500	0.8	473.15	0.2911	0.0121
8500	0.8	473.78	0.2937	0.0122
8500	0.8	475.47	0.2951	0.0122
8500	0.8	498.15	0.2186	0.0099
8500	0.8	500.09	0.1948	0.0093
8500	0.8	508.15	-0.0246	0.0073
8500	0.8	508.29	-0.0349	0.0075
8500	0.8	509.91	-0.1358	0.0095
8500	0.8	510.22	-0.1472	0.0102
8500	0.8	513.15	-0.6873	0.046
8500	0.8	514.32	-1.033	0.0905
8500	0.9	498.15	0.1071	0.0071
8500	0.9	500.09	0.093	0.0068
8500	0.9	508.15	-0.06	0.0075
8500	0.9	508.45	-0.0721	0.0079
8500	0.9	509.91	-0.1549	0.0099
8500	0.9	510.71	-0.1748	0.0106
8500	0.9	513.15	-0.6474	0.0417
8500	0.9	514.32	-1.1724	0.0859
10000	0.1	511.51	0.1778	0.0107
10000	0.1	513.15	0.1658	0.0084
10000	0.1	513.87	0.1609	0.0091
10000	0.1	514.98	0.1481	0.008
10000	0.2	323.15	-0.6483	0.0232
10000	0.2	325.16	-0.6295	0.0226
10000	0.2	330.67	-0.5846	0.0212
10000	0.2	332.4	-0.563	0.0205
10000	0.2	421.69	0.1178	0.0067
10000	0.2	423.15	0.1262	0.007
10000	0.2	423.64	0.1316	0.0072
10000	0.2	425.1	0.1399	0.0074
10000	0.2	469.5	0.3351	0.0135
10000	0.2	472.49	0.3482	0.0139
10000	0.2	473.15	0.346	0.0138
10000	0.2	475.17	0.3575	0.0142
10000	0.2	494.59	0.3735	0.0147
10000	0.2	496.09	0.37	0.0146
10000	0.2	498.15	0.3661	0.0144
10000	0.2	500.24	0.3642	0.0144
10000	0.2	505.01	0.3531	0.014
10000	0.2	506.52	0.3464	0.0138
10000	0.2	508.15	0.3421	0.0137
10000	0.2	509.71	0.329	0.0133
10000	0.2	510.63	0.3068	0.0189
10000	0.2	513.15	0.2772	0.0118
10000	0.2	513.61	0.2683	0.0168
10000	0.2	514.98	0.2455	0.0108
10000	0.3	510.19	0.3797	0.0267
10000	0.3	512.9	0.332	0.0192
10000	0.3	513.15	0.3258	0.0132
10000	0.3	514.98	0.283	0.0119
10000	0.4	323.15	-0.7178	0.0253
10000	0.4	325.16	-0.6958	0.0247
10000	0.4	331.13	-0.6421	0.023
10000	0.4	332.91	-0.6237	0.0224
10000	0.4	420.87	0.2088	0.0096
10000	0.4	422.8	0.2254	0.0101
10000	0.4	423.15	0.2252	0.0101
10000	0.4	425.1	0.2417	0.0106
10000	0.4	468.38	0.4994	0.0186
10000	0.4	470.65	0.5089	0.0189
10000	0.4	473.15	0.5175	0.0191
10000	0.4	475.17	0.5261	0.0194
10000	0.4	493.71	0.5363	0.0197
10000	0.4	495.72	0.5248	0.0194
10000	0.4	498.15	0.5209	0.0192
10000	0.4	500.24	0.5122	0.019
10000	0.4	504.64	0.4629	0.0174
10000	0.4	506.53	0.4521	0.0171
10000	0.4	508.15	0.43	0.0164
10000	0.4	509.71	0.329	0.0133
10000	0.4	510.43	0.3947	0.0306
10000	0.4	512.6	0.3466	0.0223
10000	0.4	513.15	0.3345	0.0135
10000	0.4	514.98	0.2828	0.0119
10000	0.5	510.88	0.3667	0.0322
10000	0.5	512.47	0.321	0.0238
10000	0.5	513.15	0.3045	0.0125
10000	0.5	514.98	0.2437	0.0106
10000	0.6	323.15	-0.5995	0.0217
10000	0.6	325.16	-0.5832	0.0212
10000	0.6	329.7	-0.5514	0.0202
10000	0.6	331.57	-0.5358	0.0197
10000	0.6	421.12	0.2055	0.0095
10000	0.6	423.02	0.221	0.0099
10000	0.6	423.15	0.2221	0.01
10000	0.6	425.1	0.2444	0.0107
10000	0.6	469.1	0.4771	0.0179
10000	0.6	470.78	0.4822	0.018
10000	0.6	473.15	0.4904	0.0183
10000	0.6	475.17	0.4944	0.0184
10000	0.6	494.68	0.4929	0.0184
10000	0.6	497.18	0.4836	0.0181
10000	0.6	498.15	0.4787	0.0179
10000	0.6	500.24	0.4696	0.0176
10000	0.6	505.63	0.4116	0.0159
10000	0.6	507.5	0.3891	0.0152
10000	0.6	508.15	0.3706	0.0146
10000	0.6	509.71	0.3411	0.0137
10000	0.6	511.67	0.2838	0.0284
10000	0.6	513.15	0.2501	0.0112
10000	0.6	513.88	0.2084	0.02
10000	0.6	514.98	0.1721	0.0091
10000	0.7	512.18	0.2027	0.0216
10000	0.7	513.15	0.1709	0.009
10000	0.7	514.48	0.118	0.013
10000	0.7	514.98	0.093	0.007
10000	0.8	323.15	-0.417	0.016
10000	0.8	325.16	-0.4034	0.0156
10000	0.8	327.85	-0.3965	0.0154
10000	0.8	329.82	-0.3852	0.015
10000	0.8	421.92	0.1229	0.0069
10000	0.8	423.15	0.1265	0.007
10000	0.8	423.62	0.1277	0.0071
10000	0.8	425.1	0.1352	0.0073
10000	0.8	470.8	0.2956	0.0123
10000	0.8	472.16	0.299	0.0124
10000	0.8	473.15	0.3075	0.0126
10000	0.8	475.17	0.316	0.0129
10000	0.8	496.33	0.2936	0.0122
10000	0.8	498.15	0.2882	0.012
10000	0.8	498.93	0.2873	0.012
10000	0.8	500.24	0.2843	0.0119
10000	0.8	507.4	0.2143	0.0097
10000	0.8	508.15	0.2044	0.0094
10000	0.8	508.63	0.1976	0.0097
10000	0.8	509.71	0.177	0.0092
10000	0.8	512.67	0.1075	0.013
10000	0.8	513.15	0.0955	0.0072
10000	0.8	514.52	0.0446	0.0074
10000	0.8	514.98	0.0316	0.0058
10000	0.9	512.9	0.024	0.0053
10000	0.9	513.15	0.0238	0.0061
10000	0.9	514.44	-0.0091	0.004
10000	0.9	514.98	-0.013	0.0056
