Measured thermophysical data. Excess volumes and speeds of sound of mixtures of 1,2-dibromoethane with chlorinated ethanes and ethenes at 303.15 K
Source: J. Chem. Thermodyn., 2005, 10.1016/j.jct.2004.11.013
Compound 1: 1,2-dibromoethane, C2H4Br2, InChI=1S/C2H4Br2/c3-1-2-4/h1-2H2
Compound 2: 1,2-dichloroethane, C2H4Cl2, InChI=1S/C2H4Cl2/c3-1-2-4/h1-2H2
Compound 3: 1,1,1-trichloroethane, C2H3Cl3, InChI=1S/C2H3Cl3/c1-2(3,4)5/h1H3
Compound 4: 1,1,2,2-tetrachloroethane, C2H2Cl4, InChI=1S/C2H2Cl4/c3-1(4)2(5)6/h1-2H
Compound 5: trichloroethene, C2HCl3, InChI=1S/C2HCl3/c3-1-2(4)5/h1H
Compound 6: tetrachloroethene, C2Cl4, InChI=1S/C2Cl4/c3-1(4)2(5)6

System: 1,2-dibromoethane; phases: Liquid, Gas
Property: Normal boiling temperature, K (Liquid); method: DISTILL:UFactor:2:FP
Normal boiling temperature, K	uncertainty
404.65	0.21

System: 1,2-dibromoethane; phases: Liquid
Property: Mass density, kg/m3 (Liquid); method: Pycnometric method
Temperature, K	Pressure, kPa	Mass density, kg/m3	uncertainty
303.15	101.325	2159.67	3.53

System: 1,2-dibromoethane; phases: Liquid
Property: Speed of sound, m/s (Liquid); method: Linear variable-path acoustic interferometer
Temperature, K	Pressure, kPa	Speed of sound, m/s	uncertainty
303.15	101.325	984	3.2

System: 1,2-dichloroethane; phases: Liquid, Gas
Property: Normal boiling temperature, K (Liquid); method: DISTILL:UFactor:2:FP
Normal boiling temperature, K	uncertainty
356.7	0.21

System: 1,2-dichloroethane; phases: Liquid
Property: Mass density, kg/m3 (Liquid); method: Pycnometric method
Temperature, K	Pressure, kPa	Mass density, kg/m3	uncertainty
303.15	101.325	1238.28	2.18

System: 1,2-dichloroethane; phases: Liquid
Property: Speed of sound, m/s (Liquid); method: Linear variable-path acoustic interferometer
Temperature, K	Pressure, kPa	Speed of sound, m/s	uncertainty
303.15	101.325	1173.3	3.6

System: 1,1,1-trichloroethane; phases: Liquid, Gas
Property: Normal boiling temperature, K (Liquid); method: DISTILL:UFactor:2:FP
Normal boiling temperature, K	uncertainty
347	0.21

System: 1,1,1-trichloroethane; phases: Liquid
Property: Mass density, kg/m3 (Liquid); method: Pycnometric method
Temperature, K	Pressure, kPa	Mass density, kg/m3	uncertainty
303.15	101.325	1320.92	2.3

System: 1,1,1-trichloroethane; phases: Liquid
Property: Speed of sound, m/s (Liquid); method: Linear variable-path acoustic interferometer
Temperature, K	Pressure, kPa	Speed of sound, m/s	uncertainty
303.15	101.325	943.2	3.3

System: 1,1,2,2-tetrachloroethane; phases: Liquid, Gas
Property: Normal boiling temperature, K (Liquid); method: DISTILL:UFactor:2:FP
Normal boiling temperature, K	uncertainty
419.25	0.21

System: 1,1,2,2-tetrachloroethane; phases: Liquid
Property: Mass density, kg/m3 (Liquid); method: Pycnometric method
Temperature, K	Pressure, kPa	Mass density, kg/m3	uncertainty
303.15	101.325	1578.57	2.67

System: 1,1,2,2-tetrachloroethane; phases: Liquid
Property: Speed of sound, m/s (Liquid); method: Linear variable-path acoustic interferometer
Temperature, K	Pressure, kPa	Speed of sound, m/s	uncertainty
303.15	101.325	1133.1	3.5

System: trichloroethene; phases: Liquid, Gas
Property: Normal boiling temperature, K (Liquid); method: DISTILL:UFactor:2:FP
Normal boiling temperature, K	uncertainty
360.4	0.21

System: trichloroethene; phases: Liquid
Property: Mass density, kg/m3 (Liquid); method: Pycnometric method
Temperature, K	Pressure, kPa	Mass density, kg/m3	uncertainty
303.15	101.325	1451.34	2.48

System: trichloroethene; phases: Liquid
Property: Speed of sound, m/s (Liquid); method: Linear variable-path acoustic interferometer
Temperature, K	Pressure, kPa	Speed of sound, m/s	uncertainty
303.15	101.325	1013.7	3.5

System: tetrachloroethene; phases: Liquid, Gas
Property: Normal boiling temperature, K (Liquid); method: DISTILL:UFactor:2:FP
Normal boiling temperature, K	uncertainty
394.45	0.21

System: tetrachloroethene; phases: Liquid
Property: Mass density, kg/m3 (Liquid); method: Pycnometric method
Temperature, K	Pressure, kPa	Mass density, kg/m3	uncertainty
303.15	101.325	1606.36	2.71

System: tetrachloroethene; phases: Liquid
Property: Speed of sound, m/s (Liquid); method: Linear variable-path acoustic interferometer
Temperature, K	Pressure, kPa	Speed of sound, m/s	uncertainty
303.15	101.325	1027.8	3.5

System: 1,2-dibromoethane + 1,2-dichloroethane; phases: Liquid
Fixed: Temperature, K = 303.15
Fixed: Pressure, kPa = 101.325
Property: Speed of sound, m/s (Liquid); method: Linear variable-path acoustic interferometer
Volume fraction of 1,2-dibromoethane	Speed of sound, m/s	uncertainty
0	1173.3	3.6
0.1012	1149.2	3.6
0.1885	1125	3.6
0.2842	1101.8	3.6
0.3697	1079.6	3.5
0.5106	1047.3	3.5
0.6049	1029.8	3.4
0.7908	1001.3	3.3
0.8724	993	3.3
1	984	3.2

System: 1,2-dibromoethane + 1,2-dichloroethane; phases: Liquid
Fixed: Temperature, K = 303.15
Fixed: Pressure, kPa = 101.325
Property: Excess molar volume, m3/mol (Liquid); method: Direct dilatometry
Mole fraction of 1,2-dibromoethane	Excess molar volume, m3/mol	uncertainty
0.0938	1.7e-08	6e-09
0.1759	3e-08	6e-09
0.2673	4.2e-08	6e-09
0.3502	4.7e-08	6e-09
0.4894	5.2e-08	6e-09
0.5845	5.1e-08	6e-09
0.7764	3.5e-08	6e-09
0.8626	2.5e-08	6e-09

System: 1,1,1-trichloroethane + 1,2-dibromoethane; phases: Liquid
Fixed: Temperature, K = 303.15
Fixed: Pressure, kPa = 101.325
Property: Speed of sound, m/s (Liquid); method: Linear variable-path acoustic interferometer
Volume fraction of 1,2-dibromoethane	Speed of sound, m/s	uncertainty
0	943.2	3.3
0.0787	942.1	3.3
0.1718	942.1	3.3
0.2457	944.6	3.3
0.3811	950.4	3.4
0.4866	958.1	3.4
0.595	961	3.3
0.6486	965.1	3.4
0.8532	973.6	3.4
1	984	3.4

System: 1,1,1-trichloroethane + 1,2-dibromoethane; phases: Liquid
Fixed: Temperature, K = 303.15
Fixed: Pressure, kPa = 101.325
Property: Excess molar volume, m3/mol (Liquid); method: Direct dilatometry
Mole fraction of 1,2-dibromoethane	Excess molar volume, m3/mol	uncertainty
0.0902	-7.3e-08	6e-09
0.1941	-1.2e-07	6e-09
0.2744	-1.33e-07	6e-09
0.4169	-1.11e-07	6e-09
0.5239	-6.4e-08	6e-09
0.6304	-6e-09	6e-09
0.6818	2.1e-08	6e-09
0.8709	6.9e-08	6e-09

System: 1,1,2,2-tetrachloroethane + 1,2-dibromoethane; phases: Liquid
Fixed: Temperature, K = 303.15
Fixed: Pressure, kPa = 101.325
Property: Speed of sound, m/s (Liquid); method: Linear variable-path acoustic interferometer
Volume fraction of 1,2-dibromoethane	Speed of sound, m/s	uncertainty
0	1133.1	3.5
0.0736	1123.4	3.5
0.1308	1112.7	3.5
0.2625	1092.9	3.5
0.3958	1069.6	3.5
0.4864	1054.5	3.5
0.6302	1031.7	3.5
0.7156	1019.7	3.5
0.895	995	3.4
1	984	3.4

System: 1,1,2,2-tetrachloroethane + 1,2-dibromoethane; phases: Liquid
Fixed: Temperature, K = 303.15
Fixed: Pressure, kPa = 101.325
Property: Excess molar volume, m3/mol (Liquid); method: Direct dilatometry
Mole fraction of 1,2-dibromoethane	Excess molar volume, m3/mol	uncertainty
0.0885	-5.2e-08	6e-09
0.1554	-9e-08	6e-09
0.3032	-1.56e-07	6e-09
0.4447	-1.71e-07	6e-09
0.5365	-1.56e-07	6e-09
0.6757	-9.8e-08	6e-09
0.7546	-5.9e-08	6e-09
0.9124	-3e-09	6e-09

System: trichloroethene + 1,2-dibromoethane; phases: Liquid
Fixed: Temperature, K = 303.15
Fixed: Pressure, kPa = 101.325
Property: Speed of sound, m/s (Liquid); method: Linear variable-path acoustic interferometer
Volume fraction of 1,2-dibromoethane	Speed of sound, m/s	uncertainty
0	1013.7	3.5
0.0922	1000.5	3.4
0.2012	990.5	3.4
0.2951	982.5	3.4
0.4462	973.5	3.4
0.54	971.2	3.3
0.6986	968.2	3.3
0.7836	972.4	3.4
0.8885	975.9	3.4
1	984	3.4

System: trichloroethene + 1,2-dibromoethane; phases: Liquid
Fixed: Temperature, K = 303.15
Fixed: Pressure, kPa = 101.325
Property: Excess molar volume, m3/mol (Liquid); method: Direct dilatometry
Mole fraction of 1,2-dibromoethane	Excess molar volume, m3/mol	uncertainty
0.0956	6.3e-08	6e-09
0.2077	1.29e-07	6e-09
0.3035	1.74e-07	6e-09
0.4561	2.09e-07	6e-09
0.5499	2.08e-07	6e-09
0.7069	1.64e-07	6e-09
0.7903	1.25e-07	6e-09
0.8924	6.4e-08	6e-09

System: 1,2-dibromoethane + tetrachloroethene; phases: Liquid
Fixed: Temperature, K = 303.15
Fixed: Pressure, kPa = 101.325
Property: Speed of sound, m/s (Liquid); method: Linear variable-path acoustic interferometer
Volume fraction of 1,2-dibromoethane	Speed of sound, m/s	uncertainty
0	1027.8	3.5
0.0955	1010.1	3.5
0.2327	992.8	3.4
0.321	985.8	3.4
0.4381	980.4	3.4
0.5881	975.3	3.3
0.6802	975.1	3.3
0.7639	973.7	3.3
0.8904	978.1	3.4
1	984	3.4

System: 1,2-dibromoethane + tetrachloroethene; phases: Liquid
Fixed: Temperature, K = 303.15
Fixed: Pressure, kPa = 101.325
Property: Excess molar volume, m3/mol (Liquid); method: Direct dilatometry
Mole fraction of 1,2-dibromoethane	Excess molar volume, m3/mol	uncertainty
0.1133	3e-07	6e-09
0.2647	4.61e-07	7e-09
0.3594	4.72e-07	7e-09
0.4806	4.4e-07	6e-09
0.6289	3.66e-07	6e-09
0.7163	3.1e-07	6e-09
0.7934	2.55e-07	6e-09
0.906	1.43e-07	6e-09
