Measured thermophysical data. High pressure density and speed of sound of hydrofluoroether fluid 1,1,1,2,2,3,4,5,5,5-decafluoro-3-methoxy-4-(trifluoromethyl)-pentane (HFE-7300)
Source: J. Chem. Thermodyn., 2018, 10.1016/j.jct.2018.02.003
Compound 1: 1,1,1,2,2,3,4,5,5,5-decafluoro-3-methoxy-4-(trifluoromethyl)pentane, C7H3F13O, InChI=1S/C7H3F13O/c1-21-4(11,3(9,10)7(18,19)20)2(8,5(12,13)14)6(15,16)17/h1H3, purity 99.5%

System: 1,1,1,2,2,3,4,5,5,5-decafluoro-3-methoxy-4-(trifluoromethyl)pentane; phases: Liquid
Property: Mass density, kg/m3 (Liquid); method: Vibrating tube method
Temperature, K	Pressure, kPa	Mass density, kg/m3	uncertainty
293.15	100	1668.2	0.8
293.15	1000	1670.8	0.8
293.15	5000	1681.9	0.9
293.15	10000	1694.8	1
293.15	15000	1706.6	1.1
293.15	20000	1717.6	1.2
293.15	25000	1727.9	1.3
293.15	30000	1737.7	1.4
293.15	35000	1746.9	1.5
293.15	40000	1755.6	1.7
293.15	45000	1764	1.8
293.15	50000	1772	2
293.15	55000	1779.7	2.2
293.15	60000	1787	2.3
293.15	65000	1794.1	2.5
293.15	70000	1800.9	2.7
293.15	80000	1814	3
293.15	90000	1826.3	3.4
293.15	100000	1837.8	3.8
293.15	110000	1848.8	4.1
293.15	120000	1859.3	4.5
293.15	130000	1869.3	4.9
293.15	140000	1878.8	5.3
298.15	100	1656.7	0.8
298.15	1000	1659.4	0.8
298.15	5000	1671	0.9
298.15	10000	1684.4	1
298.15	15000	1696.6	1
298.15	20000	1708	1.2
298.15	25000	1718.6	1.3
298.15	30000	1728.6	1.4
298.15	35000	1738.1	1.5
298.15	40000	1747.1	1.6
298.15	45000	1755.6	1.8
298.15	50000	1763.8	2
298.15	55000	1771.7	2.1
298.15	60000	1779.3	2.3
298.15	65000	1786.5	2.5
298.15	70000	1793.4	2.6
298.15	80000	1806.7	3
298.15	90000	1819.1	3.4
298.15	100000	1831	3.7
298.15	110000	1842	4.1
298.15	120000	1852.7	4.5
298.15	130000	1862.8	4.9
298.15	140000	1872.5	5.3
313.15	100	1621.3	0.8
313.15	1000	1624.5	0.8
313.15	5000	1637.7	0.9
313.15	10000	1652.7	0.9
313.15	15000	1666.3	1
313.15	20000	1678.8	1.1
313.15	25000	1690.4	1.2
313.15	30000	1701.4	1.4
313.15	35000	1711.6	1.5
313.15	40000	1721.2	1.6
313.15	45000	1730.5	1.7
313.15	50000	1739.2	1.9
313.15	55000	1747.6	2.1
313.15	60000	1755.5	2.2
313.15	65000	1763.3	2.4
313.15	70000	1770.7	2.6
313.15	80000	1784.8	2.9
313.15	90000	1797.9	3.3
313.15	100000	1810.2	3.6
313.15	110000	1822	4
313.15	120000	1832.9	4.4
313.15	130000	1843.5	4.8
313.15	140000	1853.5	5.2
333.15	100	1572.7	0.8
333.15	1000	1576.5	0.8
333.15	5000	1592.3	0.9
333.15	10000	1609.9	0.9
333.15	15000	1625.7	1
333.15	20000	1639.8	1.1
333.15	25000	1653	1.2
333.15	30000	1665.2	1.3
333.15	35000	1676.5	1.4
333.15	40000	1687.3	1.5
333.15	45000	1697.5	1.7
333.15	50000	1707	1.8
333.15	55000	1716.1	2
333.15	60000	1724.7	2.1
333.15	65000	1733.1	2.3
333.15	70000	1741	2.5
333.15	80000	1756.1	2.8
333.15	90000	1770.2	3.2
333.15	100000	1783.3	3.5
333.15	110000	1795.6	3.9
333.15	120000	1807.3	4.3
333.15	130000	1818.5	4.6
333.15	140000	1829.1	5
353.15	100	1521.7	0.8
353.15	1000	1526.5	0.8
353.15	5000	1545.6	0.8
353.15	10000	1566.5	0.9
353.15	15000	1584.7	1
353.15	20000	1601	1.1
353.15	25000	1615.8	1.2
353.15	30000	1629.5	1.3
353.15	35000	1642.1	1.4
353.15	40000	1653.7	1.5
353.15	45000	1664.8	1.6
353.15	50000	1675.2	1.7
353.15	55000	1685.1	1.9
353.15	60000	1694.5	2.1
353.15	65000	1703.5	2.2
353.15	70000	1712.1	2.4
353.15	80000	1728.1	2.7
353.15	90000	1743.1	3.1
353.15	100000	1757	3.4
353.15	110000	1770.1	3.8
353.15	120000	1782.5	4.1
353.15	130000	1794.1	4.5
353.15	140000	1805.2	4.9
373.15	1000	1473.5	0.8
373.15	5000	1497.1	0.8
373.15	10000	1521.9	0.9
373.15	15000	1543.1	0.9
373.15	20000	1561.5	1
373.15	25000	1578.3	1.1
373.15	30000	1593.7	1.2
373.15	35000	1607.7	1.3
373.15	40000	1620.4	1.4
373.15	45000	1632.5	1.5
373.15	50000	1643.9	1.7
373.15	55000	1654.6	1.8
373.15	60000	1664.7	2
373.15	65000	1674.3	2.1
373.15	70000	1683.4	2.3
373.15	80000	1700.6	2.6
373.15	90000	1716.5	3
373.15	100000	1731.3	3.3
373.15	110000	1745.1	3.6
373.15	120000	1758.1	4
373.15	130000	1770.3	4.4
373.15	140000	1782	4.7
393.15	1000	1417.2	0.8
393.15	5000	1446.9	0.8
393.15	10000	1476.7	0.9
393.15	15000	1501.4	0.9
393.15	20000	1522.8	1
393.15	25000	1541.5	1.1
393.15	30000	1558.4	1.2
393.15	35000	1573.8	1.3
393.15	40000	1588	1.4
393.15	45000	1601	1.5
393.15	50000	1613.3	1.6
393.15	55000	1624.9	1.7
393.15	60000	1635.8	1.9
393.15	65000	1646	2
393.15	70000	1655.8	2.2
393.15	80000	1674.1	2.5
393.15	90000	1690.9	2.8
393.15	100000	1706.5	3.2
393.15	110000	1721	3.5
393.15	120000	1734.7	3.9
393.15	130000	1747.5	4.2
393.15	140000	1759.7	4.6

System: 1,1,1,2,2,3,4,5,5,5-decafluoro-3-methoxy-4-(trifluoromethyl)pentane; phases: Liquid
Fixed: Pressure, kPa = 100
Property: Mass density, kg/m3 (Liquid); method: Vibrating tube method
Temperature, K	Mass density, kg/m3	uncertainty
293.15	1668.43	0.98
298.15	1656.79	0.98
303.15	1645.11	0.98
313.15	1621.41	0.97
323.15	1597.04	0.97
333.15	1572.8	0.96

System: 1,1,1,2,2,3,4,5,5,5-decafluoro-3-methoxy-4-(trifluoromethyl)pentane; phases: Liquid
Fixed: Pressure, kPa = 100
Fixed: Frequency, MHz = 3
Property: Speed of sound, m/s (Liquid); method: Single path-length method
Temperature, K	Speed of sound, m/s	uncertainty
293.15	644.5	1.12
298.15	629.44	1.12
303.15	614.76	1.12
313.15	585.65	1.12
323.15	557.04	1.12
333.15	529.01	1.12
