Measured thermophysical data. Experimental investigations on the liquid thermal conductivity of five saturated fatty acid methyl esters components of biodiesel
Source: J. Chem. Thermodyn., 2018, 10.1016/j.jct.2018.05.019
Compound 1: methyl butanoate, C5H10O2, InChI=1S/C5H10O2/c1-3-4-5(6)7-2/h3-4H2,1-2H3, purity 99%
Compound 2: methyl pentanoate, C6H12O2, InChI=1S/C6H12O2/c1-3-4-5-6(7)8-2/h3-5H2,1-2H3, purity 99%
Compound 3: methyl hexanoate, C7H14O2, InChI=1S/C7H14O2/c1-3-4-5-6-7(8)9-2/h3-6H2,1-2H3, purity 99%
Compound 4: methyl octanoate, C9H18O2, InChI=1S/C9H18O2/c1-3-4-5-6-7-8-9(10)11-2/h3-8H2,1-2H3, purity 97%
Compound 5: methyl nonanoate, C10H20O2, InChI=1S/C10H20O2/c1-3-4-5-6-7-8-9-10(11)12-2/h3-9H2,1-2H3, purity 97%
Compound 6: water, H2O, InChI=1S/H2O/h1H2, purity 99.9%
Compound 7: ethanol, C2H6O, InChI=1S/C2H6O/c1-2-3/h3H,2H2,1H3, purity 99.8%

System: methyl butanoate; phases: Liquid
Fixed: Pressure, kPa = 101.325
Property: Thermal conductivity, W/m/K (Liquid); method: THOTW
Temperature, K	Thermal conductivity, W/m/K	uncertainty
283.34	0.1459	0.0059
288.3	0.1442	0.0058
293.39	0.1416	0.0057
297.41	0.1401	0.0056
298.44	0.1397	0.0056
301.3	0.1391	0.0056
305.42	0.1372	0.0055
309.31	0.136	0.0055
313.29	0.1353	0.0054
318.38	0.1333	0.0054
323.35	0.1314	0.0053
328.55	0.1295	0.0052
333.25	0.128	0.0052
338.4	0.1261	0.0051
343.25	0.1249	0.005
348.24	0.1233	0.005
353.35	0.1215	0.0049
358.18	0.1207	0.0049

System: methyl pentanoate; phases: Liquid
Fixed: Pressure, kPa = 101.325
Property: Thermal conductivity, W/m/K (Liquid); method: THOTW
Temperature, K	Thermal conductivity, W/m/K	uncertainty
285.55	0.143	0.0058
290.39	0.1405	0.0057
295.51	0.1385	0.0056
298.99	0.1373	0.0055
305.5	0.1356	0.0055
312.35	0.1336	0.0054
320.42	0.1313	0.0053
327.35	0.1295	0.0052
333.5	0.1272	0.0051
340.41	0.1246	0.005
348.36	0.1229	0.005
355.39	0.1212	0.0049
362.16	0.1194	0.0048

System: methyl hexanoate; phases: Liquid
Fixed: Pressure, kPa = 101.325
Property: Thermal conductivity, W/m/K (Liquid); method: THOTW
Temperature, K	Thermal conductivity, W/m/K	uncertainty
263.83	0.1482	0.006
268.65	0.1472	0.0059
273.7	0.1448	0.0058
278.59	0.1439	0.0058
283.75	0.142	0.0057
288.67	0.1405	0.0057
293.64	0.1395	0.0056
298.72	0.1376	0.0055
303.63	0.1367	0.0055
308.61	0.1344	0.0054
313.6	0.1336	0.0054
321.08	0.1315	0.0053
328.54	0.1301	0.0052
333.52	0.1284	0.0052
338.55	0.1269	0.0051
343.49	0.1259	0.0051
348.48	0.1243	0.005
353.7	0.1231	0.005
358.38	0.1219	0.0049
363.41	0.1205	0.0049
368.5	0.1191	0.0048

System: methyl octanoate; phases: Liquid
Fixed: Pressure, kPa = 101.325
Property: Thermal conductivity, W/m/K (Liquid); method: THOTW
Temperature, K	Thermal conductivity, W/m/K	uncertainty
273.56	0.145	0.0059
278.48	0.1446	0.0059
283.44	0.1428	0.0058
288.35	0.1423	0.0058
293.42	0.1405	0.0057
298.33	0.1395	0.0057
303.21	0.1387	0.0057
308.29	0.1374	0.0056
313.29	0.1361	0.0056
318.22	0.1348	0.0055
323.2	0.1335	0.0055
328.3	0.132	0.0054
333.41	0.1304	0.0053
338.32	0.1294	0.0053
343.27	0.1285	0.0053
348.12	0.1275	0.0052
353.23	0.126	0.0052
358.28	0.1246	0.0051
363.09	0.1238	0.0051
368.27	0.1223	0.005
373.24	0.1212	0.005
378.21	0.1196	0.0049
383.17	0.1189	0.0049
388.44	0.1173	0.0048
393.54	0.116	0.0047

System: methyl nonanoate; phases: Liquid
Fixed: Pressure, kPa = 101.325
Property: Thermal conductivity, W/m/K (Liquid); method: THOTW
Temperature, K	Thermal conductivity, W/m/K	uncertainty
278.44	0.1448	0.0059
283.5	0.1441	0.0059
288.5	0.1428	0.0058
293.36	0.1418	0.0058
298.3	0.141	0.0058
303.31	0.1393	0.0057
308.24	0.1387	0.0057
313.3	0.1371	0.0056
318.29	0.1365	0.0056
323.25	0.1347	0.0055
328.25	0.1337	0.0055
333.06	0.1327	0.0054
338.16	0.1313	0.0054
343.23	0.1299	0.0053
348.07	0.1289	0.0053
353.12	0.1277	0.0052
358.24	0.1263	0.0052
363.07	0.1256	0.0051
368.1	0.1242	0.0051
373.11	0.1227	0.005
378.24	0.1213	0.005
383.21	0.1207	0.0049

System: water; phases: Liquid
Fixed: Pressure, kPa = 101.325
Property: Thermal conductivity, W/m/K (Liquid); method: THOTW
Temperature, K	Thermal conductivity, W/m/K	uncertainty
293.09	0.6056	0.0243
299.55	0.613	0.0246
309.83	0.6313	0.0253
314.96	0.6399	0.0257
319.56	0.6399	0.0257
324.64	0.6492	0.026
332.53	0.6555	0.0263
339.33	0.657	0.0264
340.41	0.6654	0.0267
349.41	0.6723	0.027

System: ethanol; phases: Liquid
Fixed: Pressure, kPa = 101.325
Property: Thermal conductivity, W/m/K (Liquid); method: THOTW
Temperature, K	Thermal conductivity, W/m/K	uncertainty
276.51	0.1719	0.0069
280.8	0.1687	0.0068
284.27	0.1699	0.0068
290.37	0.1677	0.0067
293.43	0.1658	0.0067
