Measured thermophysical data. Vapour pressures, densities, and viscosities of the (water + lithium bromide + potassium acetate) system and (water + lithium bromide + sodium lactate) system
Source: J. Chem. Thermodyn., 2006, 10.1016/j.jct.2005.04.007
Compound 1: water, H2O, InChI=1S/H2O/h1H2
Compound 2: potassium ethanoate, C2H3KO2, InChI=1S/C2H4O2.K/c1-2(3)4;/h1H3,(H,3,4);/q;+1/p-1, purity 98%
Compound 3: sodium lactate, C3H5NaO3, InChI=1S/C3H6O3.Na/c1-2(4)3(5)6;/h2,4H,1H3,(H,5,6);/q;+1/p-1, purity 98%
Compound 4: lithium bromide, BrLi, InChI=1S/BrH.Li/h1H;/q;+1/p-1, purity 98%

System: potassium ethanoate + lithium bromide + water; phases: Liquid
Fixed: Pressure, kPa = 101.32
Property: Viscosity, Pa*s (Liquid); method: CAPTUB:UFactor:3
Temperature, K	Mass fraction of lithium bromide	Mass fraction of potassium ethanoate	Viscosity, Pa*s	uncertainty
298.15	0.1333	0.0667	0.00127	4e-05
298.15	0.2	0.1	0.00169	5e-05
303.15	0.1333	0.0667	0.00114	3e-05
303.15	0.2	0.1	0.00151	4e-05
308.15	0.1333	0.0667	0.00103	3e-05
308.15	0.2	0.1	0.00137	4e-05
313.15	0.1333	0.0667	0.00094	3e-05
313.15	0.2	0.1	0.00124	3e-05
318.15	0.1333	0.0667	0.00086	3e-05
318.15	0.2	0.1	0.00113	3e-05
323.15	0.1333	0.0667	0.00079	2e-05
323.15	0.2	0.1	0.00104	3e-05

System: potassium ethanoate + lithium bromide + water; phases: Liquid, Gas
Property: Vapor or sublimation pressure, kPa (Liquid); method: CCELL:UFactor:8
Temperature, K	Mass fraction of lithium bromide	Mass fraction of potassium ethanoate	Vapor or sublimation pressure, kPa	uncertainty
293.15	0.1333	0.0667	2	0.3
293.15	0.2	0.1	1.9	0.3
293.15	0.2667	0.1333	1.7	0.3
293.15	0.3333	0.1667	1.6	0.3
298.15	0.1333	0.0667	2.5	0.3
298.15	0.2	0.1	2.2	0.3
298.15	0.2667	0.1333	1.9	0.3
298.15	0.3333	0.1667	1.8	0.3
303.15	0.1333	0.0667	3.2	0.3
303.15	0.2	0.1	3	0.3
303.15	0.2667	0.1333	2.4	0.3
303.15	0.3333	0.1667	2.1	0.3
308.15	0.1333	0.0667	4.4	0.3
308.15	0.2	0.1	3.7	0.3
308.15	0.2667	0.1333	3.1	0.3
308.15	0.3333	0.1667	2.7	0.3
313.15	0.1333	0.0667	5.6	0.3
313.15	0.2	0.1	4.8	0.3
313.15	0.2667	0.1333	4.1	0.3
313.15	0.3333	0.1667	3.4	0.3
318.15	0.1333	0.0667	7.1	0.4
318.15	0.2	0.1	6.2	0.3
318.15	0.2667	0.1333	5.3	0.3
318.15	0.3333	0.1667	4.5	0.3
323.15	0.1333	0.0667	9.1	0.4
323.15	0.2	0.1	7.8	0.4
323.15	0.2667	0.1333	6.8	0.3
323.15	0.3333	0.1667	5.6	0.3
328.15	0.1333	0.0667	11.8	0.5
328.15	0.2	0.1	9.3	0.4
328.15	0.2667	0.1333	8.4	0.4
328.15	0.3333	0.1667	7.2	0.4
333.15	0.1333	0.0667	14.6	0.5
333.15	0.2	0.1	11.7	0.5
333.15	0.2667	0.1333	11.3	0.4
333.15	0.3333	0.1667	8.7	0.4

System: potassium ethanoate + lithium bromide + water; phases: Liquid
Fixed: Pressure, kPa = 101.32
Property: Mass density, kg/m3 (Liquid); method: HYBAL:UFactor:4
Temperature, K	Mass fraction of lithium bromide	Mass fraction of potassium ethanoate	Mass density, kg/m3	uncertainty
293.15	0.1333	0.0667	1095	3
293.15	0.2	0.1	1175	3
293.15	0.2667	0.1333	1291	3
293.15	0.3333	0.1667	1344	3
298.15	0.1333	0.0667	1093	3
298.15	0.2	0.1	1172	3
298.15	0.2667	0.1333	1289	3
298.15	0.3333	0.1667	1341	3
303.15	0.1333	0.0667	1092	3
303.15	0.2	0.1	1170	3
303.15	0.2667	0.1333	1285	3
303.15	0.3333	0.1667	1338	3
308.15	0.1333	0.0667	1091	3
308.15	0.2	0.1	1168	3
308.15	0.2667	0.1333	1283	3
308.15	0.3333	0.1667	1336	3
313.15	0.1333	0.0667	1089	3
313.15	0.2	0.1	1167	3
313.15	0.2667	0.1333	1282	3
313.15	0.3333	0.1667	1334	3
318.15	0.1333	0.0667	1089	3
318.15	0.2	0.1	1165	3
318.15	0.2667	0.1333	1280	3
318.15	0.3333	0.1667	1333	3
323.15	0.1333	0.0667	1088	3
323.15	0.2	0.1	1164	3
323.15	0.2667	0.1333	1279	3
323.15	0.3333	0.1667	1331	3

System: sodium lactate + lithium bromide + water; phases: Liquid
Fixed: Pressure, kPa = 101.32
Property: Viscosity, Pa*s (Liquid); method: CAPTUB:UFactor:3
Temperature, K	Mass fraction of lithium bromide	Mass fraction of sodium lactate	Viscosity, Pa*s	uncertainty
298.15	0.1333	0.0667	0.00146	4e-05
298.15	0.2	0.1	0.00203	6e-05
298.15	0.2667	0.1333	0.00317	8e-05
303.15	0.1333	0.0667	0.0013	4e-05
303.15	0.2	0.1	0.00181	5e-05
303.15	0.2667	0.1333	0.00279	7e-05
308.15	0.1333	0.0667	0.00117	3e-05
308.15	0.2	0.1	0.00164	5e-05
308.15	0.2667	0.1333	0.00248	6e-05
313.15	0.1333	0.0667	0.00106	3e-05
313.15	0.2	0.1	0.00148	4e-05
313.15	0.2667	0.1333	0.00223	6e-05
318.15	0.1333	0.0667	0.00097	3e-05
318.15	0.2	0.1	0.00134	4e-05
318.15	0.2667	0.1333	0.00202	5e-05
323.15	0.1333	0.0667	0.00089	3e-05
323.15	0.2	0.1	0.00122	3e-05
323.15	0.2667	0.1333	0.00183	5e-05

System: sodium lactate + lithium bromide + water; phases: Liquid, Gas
Property: Vapor or sublimation pressure, kPa (Liquid); method: EBULLIO:UFactor:8
Temperature, K	Mass fraction of lithium bromide	Mass fraction of sodium lactate	Vapor or sublimation pressure, kPa	uncertainty
298.15	0.1333	0.0667	2.5	0.6
298.15	0.2	0.1	2.1	0.63
298.15	0.2667	0.1333	1.9	0.6
298.15	0.3333	0.1667	1.6	0.6
303.15	0.1333	0.0667	3.5	0.6
303.15	0.2	0.1	2.8	0.64
303.15	0.2667	0.1333	2.3	0.6
303.15	0.3333	0.1667	1.8	0.6
308.15	0.1333	0.0667	4.3	0.7
308.15	0.2	0.1	3.7	0.64
308.15	0.2667	0.1333	3.1	0.6
308.15	0.3333	0.1667	2.4	0.6
313.15	0.1333	0.0667	5.7	0.7
313.15	0.2	0.1	5	0.65
313.15	0.2667	0.1333	4.3	0.7
313.15	0.3333	0.1667	3.1	0.6
318.15	0.1333	0.0667	7.4	0.7
318.15	0.2	0.1	6.7	0.67
318.15	0.2667	0.1333	5.2	0.7
318.15	0.3333	0.1667	4.2	0.6
323.15	0.1333	0.0667	9.2	0.7
323.15	0.2	0.1	8.5	0.68
323.15	0.2667	0.1333	7.3	0.7
323.15	0.3333	0.1667	5.1	0.7
328.15	0.1333	0.0667	11.5	0.7
328.15	0.2	0.1	10.9	0.7
328.15	0.2667	0.1333	9	0.7
328.15	0.3333	0.1667	6.4	0.7
333.15	0.1333	0.0667	14.9	0.7
333.15	0.2	0.1	12.7	0.7
333.15	0.2667	0.1333	11.3	0.7
333.15	0.3333	0.1667	7.8	0.7

System: sodium lactate + lithium bromide + water; phases: Liquid
Fixed: Pressure, kPa = 101.32
Property: Mass density, kg/m3 (Liquid); method: HYBAL:UFactor:4
Temperature, K	Mass fraction of lithium bromide	Mass fraction of sodium lactate	Mass density, kg/m3	uncertainty
293.15	0.1333	0.0667	1146	3
293.15	0.2	0.1	1234	3
293.15	0.2667	0.1333	1315	3
298.15	0.1333	0.0667	1144	3
298.15	0.2	0.1	1231	3
298.15	0.2667	0.1333	1313	3
303.15	0.1333	0.0667	1143	3
303.15	0.2	0.1	1228	3
303.15	0.2667	0.1333	1310	3
308.15	0.1333	0.0667	1140	3
308.15	0.2	0.1	1227	3
308.15	0.2667	0.1333	1308	3
313.15	0.1333	0.0667	1138	3
313.15	0.2	0.1	1225	3
313.15	0.2667	0.1333	1306	3
318.15	0.1333	0.0667	1136	3
318.15	0.2	0.1	1222	3
318.15	0.2667	0.1333	1303	3
323.15	0.1333	0.0667	1133	3
323.15	0.2	0.1	1219	3
323.15	0.2667	0.1333	1301	3
