Measured thermophysical data. Thermophysical properties of aqueous solutions of the 1-ethyl-3-methylimidazolium tricyanomethanide ionic liquid
Source: J. Chem. Thermodyn., 2015, 10.1016/j.jct.2015.05.011
Compound 1: 1-ethyl-3-methyl-1H-imidazolium tricyanomethanide, C10H11N5, InChI=1S/C6H11N2.C4N3/c1-3-8-5-4-7(2)6-8;5-1-4(2-6)3-7/h4-6H,3H2,1-2H3;/q+1;-1, purity 99.5%
Compound 2: water, H2O, InChI=1S/H2O/h1H2

System: 1-ethyl-3-methyl-1H-imidazolium tricyanomethanide; phases: Liquid
Fixed: Pressure, kPa = 101.325
Property: Mass density, kg/m3 (Liquid); method: Vibrating tube method
Temperature, K	Mass density, kg/m3	uncertainty
288.15	1088.49	0.15
293.15	1084.93	0.15
298.15	1081.38	0.15
303.15	1077.84	0.15
308.15	1074.33	0.15
313.15	1070.83	0.15
318.15	1067.35	0.14

System: 1-ethyl-3-methyl-1H-imidazolium tricyanomethanide; phases: Liquid
Fixed: Pressure, kPa = 101.325
Property: Viscosity, Pa*s (Liquid); method: Falling or rolling sphere viscometry
Temperature, K	Viscosity, Pa*s	uncertainty
288.15	0.0199	0.00043
293.15	0.01654	0.00035
298.15	0.014	0.0003
303.15	0.01199	0.00026
308.15	0.01032	0.00022
313.15	0.0089	0.00019
318.15	0.00782	0.00017

System: 1-ethyl-3-methyl-1H-imidazolium tricyanomethanide; phases: Liquid
Property: Refractive index (Na D-line) (Liquid); method: Standard Abbe refractometry
Pressure, kPa	Temperature, K	Refractive index (Na D-line)	uncertainty
100	298.15	1.51227	0.00036

System: water; phases: Liquid
Property: Mass density, kg/m3 (Liquid); method: Vibrating tube method
Pressure, kPa	Temperature, K	Mass density, kg/m3	uncertainty
100	298.15	997.05	0.11

System: water; phases: Liquid
Property: Viscosity, Pa*s (Liquid); method: Falling or rolling sphere viscometry
Pressure, kPa	Temperature, K	Viscosity, Pa*s	uncertainty
100	298.15	0.00089	2e-05

System: water; phases: Liquid
Property: Refractive index (Na D-line) (Liquid); method: Standard Abbe refractometry
Pressure, kPa	Temperature, K	Refractive index (Na D-line)	uncertainty
100	298.15	1.33252	0.00035

System: water + 1-ethyl-3-methyl-1H-imidazolium tricyanomethanide; phases: Liquid
Fixed: Pressure, kPa = 100
Property: (Relative) activity of water (Liquid); method: chilled-mirror dew point method
Temperature, K	Mole fraction of water	(Relative) activity of water	uncertainty
288.16	0.98687	0.99	0.0387
293.17	0.98687	0.9914	0.0387
298.16	0.98687	0.9901	0.0387
303.12	0.98687	0.9895	0.0387
308.1	0.98687	0.9908	0.0387
313.07	0.98687	0.9902	0.0387
318.07	0.98687	0.9897	0.0387
288.15	0.9513	0.9827	0.0387
293.16	0.9513	0.9826	0.0387
298.16	0.9513	0.9814	0.0387
303.12	0.9513	0.9803	0.0387
308.11	0.9513	0.9799	0.0387
313.08	0.9513	0.98	0.0387
318.09	0.9513	0.9783	0.0387
288.18	0.90153	0.9687	0.0387
293.18	0.90153	0.9682	0.0387
298.18	0.90153	0.9666	0.0387
303.13	0.90153	0.9645	0.0387
308.12	0.90153	0.9634	0.0387
313.09	0.90153	0.9624	0.0387
318.09	0.90153	0.9594	0.0387
288.17	0.78902	0.8947	0.0387
293.18	0.78902	0.8928	0.0387
298.18	0.78902	0.8893	0.0387
303.14	0.78902	0.8859	0.0387
308.13	0.78902	0.8826	0.0387
313.1	0.78902	0.8792	0.0387
318.11	0.78902	0.8748	0.0387
288.18	0.70645	0.81	0.0387
293.19	0.70645	0.8066	0.0387
298.18	0.70645	0.8025	0.0387
303.14	0.70645	0.7983	0.0387
308.12	0.70645	0.7933	0.0387
313.1	0.70645	0.7888	0.0387
318.1	0.70645	0.7834	0.0387
288.17	0.60952	0.6975	0.0387
293.18	0.60952	0.6934	0.0387
298.17	0.60952	0.688	0.0387
303.13	0.60952	0.6821	0.0387
308.12	0.60952	0.676	0.0387
313.1	0.60952	0.6699	0.0387
318.1	0.60952	0.6642	0.0387
288.16	0.51277	0.584	0.0387
293.17	0.51277	0.5775	0.0387
298.17	0.51277	0.5709	0.0387
303.13	0.51277	0.5641	0.0387
308.12	0.51277	0.5574	0.0387
313.1	0.51277	0.5505	0.0387
318.1	0.51277	0.5442	0.0387
288.16	0.41447	0.4688	0.0387
293.17	0.41447	0.4613	0.0387
298.16	0.41447	0.4541	0.0387
303.12	0.41447	0.4469	0.0387
308.11	0.41447	0.44	0.0387
313.07	0.41447	0.4328	0.0387
318.08	0.41447	0.4268	0.0387
288.15	0.30583	0.3439	0.0387
293.16	0.30583	0.3364	0.0387
298.15	0.30583	0.329	0.0387
303.11	0.30583	0.322	0.0387
308.09	0.30583	0.316	0.0387
313.07	0.30583	0.3093	0.0387
318.08	0.30583	0.3043	0.0387
288.13	0.20586	0.2252	0.0387
293.14	0.20586	0.2191	0.0387
298.13	0.20586	0.2131	0.0387
303.09	0.20586	0.2076	0.0387
308.07	0.20586	0.203	0.0387
313.05	0.20586	0.1977	0.0387
318.05	0.20586	0.1942	0.0387

System: water + 1-ethyl-3-methyl-1H-imidazolium tricyanomethanide; phases: Liquid
Fixed: Pressure, kPa = 100
Property: Excess molar enthalpy (molar enthalpy of mixing), kJ/mol (Liquid); method: Flow calorimetry
Mole fraction of 1-ethyl-3-methyl-1H-imidazolium tricyanomethanide	Temperature, K	Excess molar enthalpy (molar enthalpy of mixing), kJ/mol	uncertainty
0.002908	288.15	0.03371	0.00168
0.002425	288.15	0.02795	0.00147
0.001941	288.15	0.02217	0.00126
0.001456	288.15	0.01652	0.00107
0.000971	288.15	0.01079	0.0009
0.000486	288.15	0.00516	0.00082
0.002907	298.15	0.03794	0.00185
0.002423	298.15	0.03162	0.0016
0.00194	298.15	0.02524	0.00137
0.001455	298.15	0.01884	0.00115
0.000971	298.15	0.01243	0.00095
0.000486	298.15	0.00598	0.00082
0.002906	308.15	0.04262	0.00203
0.002423	308.15	0.03561	0.00175
0.001939	308.15	0.02855	0.00149
0.001455	308.15	0.0214	0.00123
0.00097	308.15	0.01417	0.001
0.000485	308.15	0.00696	0.00083
0.002905	318.15	0.04729	0.00221
0.002422	318.15	0.03954	0.0019
0.001939	318.15	0.03177	0.00161
0.001455	318.15	0.02382	0.00132
0.00097	318.15	0.01579	0.00105
0.000485	318.15	0.0077	0.00084

System: water + 1-ethyl-3-methyl-1H-imidazolium tricyanomethanide; phases: Liquid
Fixed: Pressure, kPa = 100
Property: Mass density, kg/m3 (Liquid); method: Vibrating tube method
Mole fraction of 1-ethyl-3-methyl-1H-imidazolium tricyanomethanide	Temperature, K	Mass density, kg/m3	uncertainty
0.002908	288.15	1002.684	0.112
0.002425	288.15	1002.134	0.11
0.001941	288.15	1001.568	0.109
0.001456	288.15	1000.988	0.108
0.000971	288.15	1000.377	0.109
0.000486	288.15	999.748	0.106
0.002907	298.15	1000.12	0.107
0.002423	298.15	999.648	0.109
0.00194	298.15	999.158	0.108
0.001455	298.15	998.652	0.107
0.000971	298.15	998.133	0.107
0.000486	298.15	997.586	0.107
0.002906	308.15	996.708	0.107
0.002423	308.15	996.296	0.109
0.001939	308.15	995.873	0.108
0.001455	308.15	995.435	0.108
0.00097	308.15	994.981	0.107
0.000485	308.15	994.509	0.107
0.002905	318.15	992.534	0.109
0.002422	318.15	992.176	0.109
0.001939	318.15	991.809	0.108
0.001455	318.15	991.43	0.108
0.00097	318.15	991.036	0.107
0.000485	318.15	990.626	0.108

System: water + 1-ethyl-3-methyl-1H-imidazolium tricyanomethanide; phases: Liquid
Fixed: Pressure, kPa = 100
Fixed: Temperature, K = 298.15
Property: Mass density, kg/m3 (Liquid); method: Vibrating tube method
Mole fraction of water	Mass density, kg/m3	uncertainty
1	997.05	0.11
0.98687	1008.32	0.12
0.9513	1026.4	0.12
0.90153	1040.72	0.12
0.78902	1056.44	0.12
0.70645	1062.54	0.12
0.60952	1067.4	0.13
0.51277	1070.97	0.13
0.41447	1073.8	0.13
0.30583	1076.34	0.14
0.20586	1078.28	0.14
0.10843	1079.85	0.15
0	1081.38	0.15

System: water + 1-ethyl-3-methyl-1H-imidazolium tricyanomethanide; phases: Liquid
Fixed: Pressure, kPa = 100
Fixed: Temperature, K = 298.15
Property: Viscosity, Pa*s (Liquid); method: Falling or rolling sphere viscometry
Mole fraction of water	Viscosity, Pa*s	uncertainty
1	0.00089	2e-05
0.98687	0.00107	2e-05
0.9513	0.00158	3e-05
0.90153	0.00216	5e-05
0.78902	0.00324	7e-05
0.70645	0.00398	8e-05
0.60952	0.00489	0.0001
0.51277	0.00588	0.00013
0.41447	0.00705	0.00015
0.30583	0.00835	0.00018
0.20586	0.01011	0.00022
0.10843	0.01185	0.00025
0	0.014	0.0003

System: water + 1-ethyl-3-methyl-1H-imidazolium tricyanomethanide; phases: Liquid
Fixed: Pressure, kPa = 100
Fixed: Temperature, K = 298.15
Property: Refractive index (Na D-line) (Liquid); method: Standard Abbe refractometry
Mole fraction of water	Refractive index (Na D-line)	uncertainty
1	1.33252	0.00035
0.98687	1.35455	0.00037
0.9513	1.39433	0.00036
0.90153	1.42697	0.00035
0.78902	1.46324	0.00035
0.70645	1.4765	0.00035
0.60952	1.487	0.00035
0.51277	1.49477	0.00035
0.41447	1.49961	0.00035
0.30583	1.50438	0.00036
0.20586	1.50681	0.00036
0.10843	1.50965	0.00036
0	1.51227	0.00036
