Measured thermophysical data. Solubilities of betulin and betulinic acid in sodium hydroxide aqueous solutions of varied mole fraction at temperatures from 283.2 K to 323.2 K
Source: J. Chem. Thermodyn., 2013, 10.1016/j.jct.2013.07.014
Compound 1: betulin, C30H50O2, InChI=1S/C30H50O2/c1-19(2)20-10-15-30(18-31)17-16-28(6)21(25(20)30)8-9-23-27(5)13-12-24(32)26(3,4)22(27)11-14-29(23,28)7/h20-25,31-32H,1,8-18H2,2-7H3/t20-,21+,22-,23+,24-,25+,27-,28+,29+,30+/m0/s1, purity 95%
Compound 2: betulinic acid, C30H48O3, InChI=1S/C30H48O3/c1-18(2)19-10-15-30(25(32)33)17-16-28(6)20(24(19)30)8-9-22-27(5)13-12-23(31)26(3,4)21(27)11-14-29(22,28)7/h19-24,31H,1,8-17H2,2-7H3,(H,32,33)/t19-,20+,21-,22+,23-,24+,27-,28+,29+,30-/m0/s1, purity 98%
Compound 3: sodium hydroxide, HNaO, InChI=1S/Na.H2O/h;1H2/q+1;/p-1, purity 98%
Compound 4: water, H2O, InChI=1S/H2O/h1H2

System: betulin + sodium hydroxide + water; phases: Liquid, Crystal
Fixed: Pressure, kPa = 101
Property: Mole fraction of betulin (Liquid); method: Chromatography
Solvent: Mole fraction of sodium hydroxide	Temperature, K	Mole fraction of betulin	uncertainty
0.00892	283.2	1.66e-05	6e-07
0.00892	293.2	2.1e-05	4e-07
0.00892	303.2	2.43e-05	8e-07
0.00892	313.2	3.02e-05	3e-07
0.00892	323.2	3.47e-05	3e-07
0.017661	283.2	1.67e-05	1e-06
0.017661	293.2	2.13e-05	2.4e-06
0.017661	303.2	2.61e-05	1.9e-06
0.017661	313.2	3.15e-05	1.5e-06
0.017661	323.2	3.61e-05	8e-07
0.026265	283.2	1.7e-05	1.1e-06
0.026265	293.2	2.17e-05	9e-07
0.026265	303.2	2.72e-05	1.1e-06
0.026265	313.2	3.34e-05	5e-07
0.026265	323.2	3.89e-05	2e-06
0.034738	283.2	1.71e-05	8e-07
0.034738	293.2	2.19e-05	2.6e-06
0.034738	303.2	2.86e-05	1e-06
0.034738	313.2	3.55e-05	1.2e-06
0.034738	323.2	4.28e-05	1.2e-06
0.042939	283.2	1.73e-05	9e-07
0.042939	293.2	2.26e-05	7e-07
0.042939	303.2	3.14e-05	5e-07
0.042939	313.2	3.84e-05	1e-06
0.042939	323.2	4.73e-05	8e-07

System: betulinic acid + sodium hydroxide + water; phases: Liquid, Crystal
Fixed: Pressure, kPa = 101
Property: Mole fraction of betulinic acid (Liquid); method: Chromatography
Solvent: Mole fraction of sodium hydroxide	Temperature, K	Mole fraction of betulinic acid	uncertainty
0.00892	283.2	1.18e-05	7e-07
0.00892	293.2	1.36e-05	2.1e-06
0.00892	303.2	1.59e-05	3e-07
0.00892	313.2	1.85e-05	1.5e-06
0.00892	323.2	2.78e-05	1.2e-06
0.017661	283.2	1.43e-05	5e-07
0.017661	293.2	1.68e-05	1.2e-06
0.017661	303.2	1.93e-05	1e-06
0.017661	313.2	2.02e-05	6e-07
0.017661	323.2	3.03e-05	1e-06
0.026265	283.2	1.86e-05	1.6e-06
0.026265	293.2	1.98e-05	7e-07
0.026265	303.2	2.1e-05	1e-06
0.026265	313.2	2.35e-05	1.5e-06
0.026265	323.2	3.76e-05	9e-07
0.034738	283.2	2.14e-05	7e-07
0.034738	293.2	2.37e-05	5e-07
0.034738	303.2	2.86e-05	4e-07
0.034738	313.2	4.37e-05	6e-07
0.034738	323.2	6.54e-05	7e-07
0.042939	283.2	2.54e-05	2.5e-06
0.042939	293.2	3.06e-05	1e-06
0.042939	303.2	3.67e-05	1.9e-06
0.042939	313.2	5.34e-05	1e-06
0.042939	323.2	7.01e-05	1.5e-06
