Measured thermophysical data. Low-temperature heat capacity measurements on insulating powders sealed under pressure
Source: J. Chem. Thermodyn., 2019, 10.1016/j.jct.2019.05.009
Compound 1: benzoic acid, C7H6O2, InChI=1S/C7H6O2/c8-7(9)6-4-2-1-3-5-6/h1-5H,(H,8,9)
Compound 2: aluminum, Al, InChI=1S/Al

System: benzoic acid; phases: Crystal
Fixed: Pressure, kPa = 101.325
Property: Molar heat capacity at constant pressure, J/K/mol (Crystal); method: RELAXCAL
Temperature, K	Molar heat capacity at constant pressure, J/K/mol	uncertainty
1.8555	0.012048	0.001302
1.9202	0.01371	0.001478
1.9991	0.015441	0.00166
2.0821	0.016804	0.001801
2.168	0.019317	0.002064
2.2604	0.022182	0.002372
2.3573	0.024637	0.002634
2.464	0.028199	0.00301
2.5682	0.034208	0.003644
2.6786	0.037162	0.003957
2.7957	0.041407	0.004408
2.9176	0.046674	0.004968
3.044	0.048294	0.00514
3.1788	0.060504	0.006434
3.3196	0.070954	0.007544
3.4654	0.078977	0.008397
3.6173	0.088141	0.009368
3.7756	0.10304	0.01095
3.9422	0.1157	0.0123
4.1183	0.1296	0.01377
4.3025	0.15344	0.0163
4.4906	0.17197	0.01827
4.6857	0.19663	0.02088
4.8925	0.2248	0.02387
5.109	0.24907	0.02645
5.3357	0.30261	0.03213
5.5722	0.33238	0.03529
5.8228	0.382	0.04056
6.0769	0.45203	0.04798
6.3451	0.50956	0.05409
6.6248	0.58025	0.06159
6.92	0.68782	0.073
7.2252	0.79159	0.08401
7.5454	0.89905	0.09541
7.8785	1.0308	0.1094
8.2272	1.1974	0.1271
8.5958	1.3382	0.142
8.9762	1.541	0.1635
9.3733	1.7628	0.187
9.7887	1.9968	0.2118
10.238	2.2776	0.2416
10.706	2.5793	0.2736
11.183	2.902	0.3079
11.676	3.2619	0.346
12.195	3.6471	0.3869
12.736	4.074	0.4322
13.298	4.535	0.4811
13.886	5.0456	0.5352
14.502	5.5985	0.5939
15.143	6.1879	0.3304
15.643	6.6577	0.3555
17.098	8.0855	0.4317
18.686	9.7162	0.5188
20.407	11.564	0.617
22.322	13.614	0.727
24.398	15.908	0.849
26.657	18.404	0.983
29.133	20.97	1.12
31.839	23.773	1.269
34.796	26.642	1.422
38.029	29.6	1.58
41.559	32.793	1.751
45.416	35.884	1.916
49.631	39.114	2.088
54.242	42.179	2.252
59.282	45.057	2.405
64.78	47.921	2.558
70.787	50.648	2.704
77.365	53.753	2.87
84.513	57.184	3.053
92.379	61.029	3.258
100.95	64.256	3.43
110.98	67.642	3.611
121.09	71.224	3.802
131.21	75.186	4.014
141.28	78.862	4.21
151.34	82.289	4.393
161.49	85.762	4.578
171.59	90.18	4.814
181.67	95.023	5.073
191.74	98.696	5.269
201.82	102.27	5.46
211.92	106.37	5.68
222	112.07	5.98
232.09	117.31	6.26
242.17	119.6	6.38
252.25	124.22	6.63
262.35	128.72	6.87
272.46	133	7.1
282.54	137.8	7.36
292.59	141.72	7.57
302.66	146.37	7.81

System: aluminum; phases: Crystal
Fixed: Pressure, kPa = 101.325
Property: Molar heat capacity at constant pressure, J/K/mol (Crystal); method: RELAXCAL
Temperature, K	Molar heat capacity at constant pressure, J/K/mol	uncertainty
1.8633	0.00260196461703	0.000139737385302
1.9358	0.0027494187222	0.00014758901286
2.0095	0.0028816282584	0.00015460421274
2.0887	0.00299737905642	0.00016080996648
2.1734	0.00317680628412	0.00017025350478
2.2641	0.00332250658932	0.0001780781508
2.3602	0.00353080406268	0.00018914058138
2.4595	0.00377309827392	0.00020209171962
2.5621	0.00390099076404	0.00020883710412
2.6769	0.00413006402166	0.00022097879622
2.7946	0.00437289786366	0.00023392993446
2.9153	0.00459603518292	0.00024580181118
3.0419	0.00476466979542	0.0002549755341
3.1772	0.00505553077506	0.00027035501076
3.3178	0.00541276633818	0.00028951190274
3.464	0.00567880430286	0.00030381211788
3.6147	0.00594052522146	0.00031757270226
3.7756	0.00636062776812	0.00034023719418
3.9427	0.00681041000658	0.000364250763
4.1193	0.00718896098472	0.0003844869165
4.3007	0.007838136789	0.00041902328514
4.4919	0.00827469807384	0.00044222740782
4.6866	0.00891416052444	0.00047649396108
4.8964	0.0095487662982	0.00051049069896
5.1113	0.01025676185532	0.00054826485216
5.3405	0.01095126664344	0.00058522955922
5.5741	0.01157858740194	0.00061868666634
5.8218	0.01268240212152	0.00067777623456
6.0804	0.0135892516137	0.00072607318758
6.3491	0.01457785516602	0.00077895700206
6.6365	0.01572511016178	0.00084020509332
6.9249	0.01714218053754	0.0009160232151
7.2297	0.01865692408086	0.0009969678291
7.5473	0.02043527725044	0.00109194284286
7.8834	0.02257572265998	0.0012060747486
8.2341	0.0246732674241	0.0013180481313
8.5954	0.0264068312406	0.00141059480664
8.9811	0.0294206690352	0.0015703255116
9.3777	0.0323130899088	0.001726818432
9.7952	0.0349707714018	0.0018671224296
10.239	0.0389667371796	0.0015838162806
10.707	0.0431650644924	0.00175379997
11.188	0.0476736794922	0.0019372744284
11.687	0.052843342173	0.0021477304248
12.206	0.0586767506886	0.0023851679592
12.748	0.065376266574	0.002657681493
13.311	0.073039023366	0.00296796918
13.902	0.0814923392214	0.0033133328664
14.516	0.0911247482874	0.0037045651674
15.157	0.1021494047142	0.0041524586982
15.663	0.1115254891692	0.004532898384
17.116	0.1425056911008	0.0057929362086
18.703	0.1841543931576	0.0074846786412
20.439	0.239973798972	0.0097511278332
22.337	0.316979108424	0.012870193626
24.416	0.423016552764	0.017187239706
26.67	0.56688211338	0.023042233452
29.145	0.760690500834	0.03089386101
31.849	1.019983081014	0.041443642368
34.807	1.35636191526	0.055096300596
38.045	1.783776458718	0.072472411068
41.582	2.319306024942	0.094219530696
45.442	2.96742954924	0.12060747486
49.662	3.72803910546	0.15136642818
54.272	4.6151920749	0.1875216891
59.309	5.61296935014	0.2279939961
64.809	6.71759351586	0.27278334918
70.809	7.90936804932	0.32135011758
77.383	9.17021532006	0.37261503978
84.527	10.51119775866	0.42684793116
92.373	11.83032515148	0.48054119178
100.93	13.1184237756	0.5328853755
111.01	14.489085906	0.58846734378
121.1	15.73671222312	0.63919263522
131.22	16.7946583281	0.68209328064
141.3	17.72201378916	0.71986743384
151.36	18.54225254436	0.75332454096
161.49	19.24970847072	0.78192497124
171.61	19.8813462753	0.80755743234
181.69	20.46927398832	0.83157100116
191.79	21.01484068668	0.85369586232
201.89	21.47649480186	0.87231312354
211.98	21.88526510256	0.8890416771
222.08	22.24304029644	0.90361170762
232.18	22.5781509984	0.91710247662
242.28	22.90624650048	0.93032343024
252.36	23.15852388078	0.94057641468
262.46	23.4118805226	0.9510992145
272.56	23.64311230326	0.96027293742
282.64	23.88459706836	0.97025610648
292.73	24.07589617278	0.9780807525
302.81	24.2456100468	0.984826137
