Measured thermophysical data. Thermochemical studies of two N-(diethylaminothiocarbonyl)benzimido derivatives
Source: J. Chem. Thermodyn., 2006, 10.1016/j.jct.2006.01.006
Compound 1: sulfuric acid, H2O4S, InChI=1S/H2O4S/c1-5(2,3)4/h(H2,1,2,3,4)
Compound 2: carbon dioxide, CO2, InChI=1S/CO2/c2-1-3
Compound 3: nitrogen, N2, InChI=1S/N2/c1-2
Compound 4: water, H2O, InChI=1S/H2O/h1H2
Compound 5: oxygen, O2, InChI=1S/O2/c1-2
Compound 6: N-[(diethylamino)thioxomethyl]-N'-ethyl-benzenecarboximidamide, C14H21N3S, InChI=1S/C14H21N3S/c1-4-15-13(12-10-8-7-9-11-12)16-14(18)17(5-2)6-3/h7-11H,4-6H2,1-3H3,(H,15,16,18)
Compound 7: N-[(diethylamino)thioxomethyl]-benzenecarboximidic acid, ethyl ester, C14H20N2OS, InChI=1S/C14H20N2OS/c1-4-16(5-2)14(18)15-13(17-6-3)12-10-8-7-9-11-12/h7-11H,4-6H2,1-3H3

System: N-[(diethylamino)thioxomethyl]-N'-ethyl-benzenecarboximidamide; phases: Gas
Property: Molar enthalpy, kJ/mol (Gas); method: Calvet microcalorimetry - drop method
Temperature, K	Pressure, kPa	Molar enthalpy, kJ/mol	uncertainty
416.8	101	185.2	2.4

System: N-[(diethylamino)thioxomethyl]-benzenecarboximidic acid, ethyl ester; phases: Gas
Property: Molar enthalpy, kJ/mol (Gas); method: Calvet microcalorimetry - drop method
Temperature, K	Pressure, kPa	Molar enthalpy, kJ/mol	uncertainty
401.3	101	172	5.2

Reaction: 1 sulfuric acid + -1 N-[(diethylamino)thioxomethyl]-N'-ethyl-benzenecarboximidamide + 14 carbon dioxide + 1.5 nitrogen + 9.5 water + -20.75 oxygen
Property: Specific internal energy of reaction at constant volume, J/g
-34371.3

Reaction: 1 sulfuric acid + -1 N-[(diethylamino)thioxomethyl]-benzenecarboximidic acid, ethyl ester + 14 carbon dioxide + 1 nitrogen + 9 water + -20 oxygen
Property: Specific internal energy of reaction at constant volume, J/g
-33211.7
