Measured thermophysical data. (Liquid + liquid) equilibria of (water + propionic acid + diethyl succinate or diethyl glutarate or diethyl adipate) ternary systems
Source: J. Chem. Thermodyn., 2007, 10.1016/j.jct.2007.03.004
Compound 1: water, H2O, InChI=1S/H2O/h1H2
Compound 2: propanoic acid, C3H6O2, InChI=1S/C3H6O2/c1-2-3(4)5/h2H2,1H3,(H,4,5), purity 99%
Compound 3: diethyl butanedioate, C8H14O4, InChI=1S/C8H14O4/c1-3-11-7(9)5-6-8(10)12-4-2/h3-6H2,1-2H3, purity 99%
Compound 4: diethyl glutarate, C9H16O4, InChI=1S/C9H16O4/c1-3-12-8(10)6-5-7-9(11)13-4-2/h3-7H2,1-2H3, purity 98%
Compound 5: diethyl hexanedioate, C10H18O4, InChI=1S/C10H18O4/c1-3-13-9(11)7-5-6-8-10(12)14-4-2/h3-8H2,1-2H3, purity 99%

System: propanoic acid; phases: Liquid, Gas
Property: Normal boiling temperature, K (Liquid); method: Distillation
Normal boiling temperature, K	uncertainty
414.5	0.2

System: propanoic acid; phases: Liquid
Property: Refractive index (Na D-line) (Liquid); method: Standard Abbe refractometry
Temperature, K	Pressure, kPa	Refractive index (Na D-line)	uncertainty
293.15	101.325	1.3808	0.0007

System: propanoic acid; phases: Liquid
Property: Mass density, kg/m3 (Liquid); method: VIBTUB:UFactor:6
Temperature, K	Pressure, kPa	Mass density, kg/m3	uncertainty
293.15	101.325	988.04	0.41

System: diethyl butanedioate; phases: Liquid, Gas
Property: Normal boiling temperature, K (Liquid); method: Distillation
Normal boiling temperature, K	uncertainty
490.8	0.2

System: diethyl butanedioate; phases: Liquid
Property: Refractive index (Na D-line) (Liquid); method: Standard Abbe refractometry
Temperature, K	Pressure, kPa	Refractive index (Na D-line)	uncertainty
293.15	101.325	1.42014	0.0007

System: diethyl butanedioate; phases: Liquid
Property: Mass density, kg/m3 (Liquid); method: VIBTUB:UFactor:6
Temperature, K	Pressure, kPa	Mass density, kg/m3	uncertainty
293.15	101.325	1040.22	0.5

System: diethyl glutarate; phases: Liquid, Gas
Property: Normal boiling temperature, K (Liquid); method: Distillation
Normal boiling temperature, K	uncertainty
509.6	0.2

System: diethyl glutarate; phases: Liquid
Property: Refractive index (Na D-line) (Liquid); method: Standard Abbe refractometry
Temperature, K	Pressure, kPa	Refractive index (Na D-line)	uncertainty
293.15	101.325	1.42414	0.00078

System: diethyl glutarate; phases: Liquid
Property: Mass density, kg/m3 (Liquid); method: VIBTUB:UFactor:8
Temperature, K	Pressure, kPa	Mass density, kg/m3	uncertainty
293.15	101.325	1022.04	1.16

System: diethyl hexanedioate; phases: Liquid, Gas
Property: Normal boiling temperature, K (Liquid); method: Distillation
Normal boiling temperature, K	uncertainty
518.4	0.2

System: diethyl hexanedioate; phases: Liquid
Property: Refractive index (Na D-line) (Liquid); method: Standard Abbe refractometry
Temperature, K	Pressure, kPa	Refractive index (Na D-line)	uncertainty
293.15	101.325	1.42725	0.0007

System: diethyl hexanedioate; phases: Liquid
Property: Mass density, kg/m3 (Liquid); method: VIBTUB:UFactor:6
Temperature, K	Pressure, kPa	Mass density, kg/m3	uncertainty
293.15	101.325	1007.63	0.41

System: diethyl butanedioate + water; phases: Liquid mixture 1, Liquid mixture 2
Fixed: Temperature, K = 298.15
Fixed: Pressure, kPa = 101
Property: Mass fraction of water (Liquid mixture 1); method: Titration method
Mass fraction of water	uncertainty
0.9781	0.004
0.025	0.004

System: diethyl glutarate + water; phases: Liquid mixture 1, Liquid mixture 2
Fixed: Temperature, K = 298.15
Fixed: Pressure, kPa = 101
Property: Mass fraction of water (Liquid mixture 1); method: Titration method
Mass fraction of water	uncertainty
0.9847	0.004
0.0248	0.004

System: diethyl hexanedioate + water; phases: Liquid mixture 1, Liquid mixture 2
Fixed: Temperature, K = 298.15
Fixed: Pressure, kPa = 101
Property: Mass fraction of water (Liquid mixture 1); method: Titration method
Mass fraction of water	uncertainty
0.991	0.004
0.0183	0.004

System: propanoic acid + diethyl butanedioate + water; phases: Liquid mixture 1, Liquid mixture 2
Fixed: Pressure, kPa = 101
Fixed: Temperature, K = 298.15
Property: Mass fraction of propanoic acid (Liquid mixture 1); method: Titration method
Mass fraction of water	Mass fraction of propanoic acid	uncertainty
0.025	0	0.0001
0.0849	0.187	0.0129
0.1214	0.2622	0.0105
0.1728	0.3266	0.0108
0.2156	0.3531	0.0111
0.2643	0.3682	0.0114
0.3682	0.3638	0.0113
0.4946	0.3303	0.0103
0.6362	0.2732	0.0089
0.7053	0.2341	0.0081
0.7598	0.1936	0.0075
0.8549	0.1153	0.0063
0.9781	0	0.0001

System: propanoic acid + diethyl butanedioate + water; phases: Liquid mixture 1, Liquid mixture 2
Fixed: Temperature, K = 298.15
Fixed: Pressure, kPa = 101.3
Property: Mass fraction of propanoic acid (Liquid mixture 1); method: CHROM:UFactor:3
Property: Mass fraction of water (Liquid mixture 2); method: CHROM:UFactor:3
Property: Mass fraction of propanoic acid (Liquid mixture 2); method: CHROM:UFactor:3
Mass fraction of water	Mass fraction of propanoic acid	uncertainty	Mass fraction of water	uncertainty	Mass fraction of propanoic acid	uncertainty
0.9229	0.052	0.0041	0.0379	0.0041	0.0856	
0.9003	0.0728	0.0056	0.0551	0.0046	0.1249	
0.8423	0.1253	0.0059	0.1001	0.0051	0.2111	
0.7694	0.1851	0.0056	0.1619	0.0053	0.316	

System: propanoic acid + diethyl glutarate + water; phases: Liquid mixture 1, Liquid mixture 2
Fixed: Pressure, kPa = 101
Fixed: Temperature, K = 298.15
Property: Mass fraction of propanoic acid (Liquid mixture 1); method: Titration method
Mass fraction of water	Mass fraction of propanoic acid	uncertainty
0.0248	0	0.0001
0.0761	0.1965	0.0153
0.1051	0.2695	0.0113
0.152	0.3376	0.0117
0.1816	0.3676	0.0117
0.223	0.3897	0.0121
0.2815	0.4001	0.0124
0.339	0.3983	0.0123
0.3827	0.3927	0.0122
0.4585	0.3677	0.0115
0.5219	0.346	0.0109
0.6489	0.287	0.0094
0.7809	0.1939	0.0076
0.9847	0	0.0001

System: propanoic acid + diethyl glutarate + water; phases: Liquid mixture 1, Liquid mixture 2
Fixed: Temperature, K = 298.15
Fixed: Pressure, kPa = 101.3
Property: Mass fraction of propanoic acid (Liquid mixture 1); method: CHROM:UFactor:3
Property: Mass fraction of water (Liquid mixture 2); method: CHROM:UFactor:3
Property: Mass fraction of propanoic acid (Liquid mixture 2); method: CHROM:UFactor:3
Mass fraction of water	Mass fraction of propanoic acid	uncertainty	Mass fraction of water	uncertainty	Mass fraction of propanoic acid	uncertainty
0.9311	0.0527	0.0042	0.0324	0.0041	0.0932	
0.8911	0.092	0.0059	0.0578	0.0045	0.1518	
0.8312	0.1493	0.0063	0.0879	0.0049	0.2304	
0.7863	0.1897	0.0057	0.1405	0.005	0.3138	

System: propanoic acid + diethyl hexanedioate + water; phases: Liquid mixture 1, Liquid mixture 2
Fixed: Pressure, kPa = 101
Fixed: Temperature, K = 298.15
Property: Mass fraction of propanoic acid (Liquid mixture 1); method: Titration method
Mass fraction of water	Mass fraction of propanoic acid	uncertainty
0.0183	0	0.0001
0.0674	0.184	0.0153
0.0979	0.2716	0.0128
0.1355	0.3463	0.0127
0.1606	0.3754	0.0122
0.1957	0.4039	0.0128
0.216	0.4151	0.013
0.3488	0.4217	0.0131
0.4067	0.4067	0.0127
0.476	0.3832	0.012
0.541	0.3545	0.0112
0.6725	0.2865	0.0094
0.7886	0.1959	0.0077
0.991	0	0.0001

System: propanoic acid + diethyl hexanedioate + water; phases: Liquid mixture 1, Liquid mixture 2
Fixed: Temperature, K = 298.15
Fixed: Pressure, kPa = 101.3
Property: Mass fraction of propanoic acid (Liquid mixture 1); method: CHROM:UFactor:3
Property: Mass fraction of water (Liquid mixture 2); method: CHROM:UFactor:3
Property: Mass fraction of propanoic acid (Liquid mixture 2); method: CHROM:UFactor:3
Mass fraction of water	Mass fraction of propanoic acid	uncertainty	Mass fraction of water	uncertainty	Mass fraction of propanoic acid	uncertainty
0.9225	0.0684	0.0043	0.0359	0.0041	0.0984	
0.8925	0.0976	0.0059	0.0659	0.0045	0.1765	
0.8508	0.1369	0.0062	0.0871	0.0047	0.2458	
0.8083	0.1765	0.0055	0.1199	0.0047	0.3158	
