Measured thermophysical data. Mutual diffusion coefficients of L-glutamic acid and monosodium L-glutamate in aqueous solutions at T = 298.15 K
Source: J. Chem. Thermodyn., 2014, 10.1016/j.jct.2014.01.017
Compound 1: L-glutamic acid, C5H9NO4, InChI=1S/C5H9NO4/c6-3(5(9)10)1-2-4(7)8/h3H,1-2,6H2,(H,7,8)(H,9,10)/t3-/m0/s1, purity 99%
Compound 2: sodium (S)-2-amino-4-carboxybutanoate, C5H8NNaO4, InChI=1S/C5H9NO4.Na/c6-3(5(9)10)1-2-4(7)8;/h3H,1-2,6H2,(H,7,8)(H,9,10);/q;+1/p-1/t3-;/m0./s1, purity 99%
Compound 3: water, H2O, InChI=1S/H2O/h1H2

System: L-glutamic acid + water; phases: Liquid
Fixed: Pressure, kPa = 101
Fixed: Temperature, K = 298.15
Property: Binary diffusion coefficient, m2/s (Liquid); method: Taylor dispersion method
Amount concentration (molarity), mol/dm3 of L-glutamic acid	Binary diffusion coefficient, m2/s	uncertainty
0.001	7.401e-10	0.0261
0.005	7.29e-10	0.031
0.01	7.201e-10	0.0233
0.02	7.079e-10	0.029
0.03	7.01e-10	0.037
0.05	6.993e-10	0.0208

System: sodium (S)-2-amino-4-carboxybutanoate + water; phases: Liquid
Fixed: Pressure, kPa = 101
Fixed: Temperature, K = 298.15
Property: Binary diffusion coefficient, m2/s (Liquid); method: Taylor dispersion method
Amount concentration (molarity), mol/dm3 of sodium (S)-2-amino-4-carboxybutanoate	Binary diffusion coefficient, m2/s	uncertainty
0.001	8.84e-10	0.05
0.005	8.8e-10	0.041
0.01	8.719e-10	0.0223
0.02	8.63e-10	0.041
0.03	8.55e-10	0.041
0.05	8.451e-10	0.0227
0.1	8.36e-10	0.055
