Measured thermophysical data. Excess molar volumes of (octane + benzene, or toluene, or 1,3-xylene, or 1,3,5-trimethylbenzene) at temperatures between (298.15 and 328.15) K
Source: J. Chem. Thermodyn., 2008, 10.1016/j.jct.2007.10.010
Compound 1: octane, C8H18, InChI=1S/C8H18/c1-3-5-7-8-6-4-2/h3-8H2,1-2H3
Compound 2: benzene, C6H6, InChI=1S/C6H6/c1-2-4-6-5-3-1/h1-6H
Compound 3: toluene, C7H8, InChI=1S/C7H8/c1-7-5-3-2-4-6-7/h2-6H,1H3
Compound 4: 1,3-dimethylbenzene, C8H10, InChI=1S/C8H10/c1-7-4-3-5-8(2)6-7/h3-6H,1-2H3
Compound 5: 1,3,5-trimethylbenzene, C9H12, InChI=1S/C9H12/c1-7-4-8(2)6-9(3)5-7/h4-6H,1-3H3

System: octane; phases: Liquid
Property: Refractive index (Na D-line) (Liquid); method: Standard Abbe refractometry
Temperature, K	Pressure, kPa	Refractive index (Na D-line)	uncertainty
298.15	101.325	1.395	0.0007

System: octane; phases: Liquid
Fixed: Pressure, kPa = 101
Property: Mass density, kg/m3 (Liquid); method: VIBTUB:UFactor:4
Temperature, K	Mass density, kg/m3	uncertainty
298.15	698.6	0.62
298.15	698.61	0.62
298.15	698.63	0.62
298.15	698.62	0.62
308.15	690.44	0.63
308.15	690.43	0.63
308.15	690.45	0.63
318.15	682.47	0.64
318.15	682.49	0.64
328.15	674.54	0.66
328.15	674.55	0.66
328.15	674.56	0.66

System: benzene; phases: Liquid
Property: Refractive index (Na D-line) (Liquid); method: Standard Abbe refractometry
Temperature, K	Pressure, kPa	Refractive index (Na D-line)	uncertainty
298.15	101.325	1.4979	0.0007

System: benzene; phases: Liquid
Fixed: Pressure, kPa = 101
Property: Mass density, kg/m3 (Liquid); method: VIBTUB::UFactor:4
Temperature, K	Mass density, kg/m3	uncertainty
298.15	873.62	0.34
308.15	863.01	0.35
318.15	852.16	0.37
328.15	841.49	0.39

System: toluene; phases: Liquid
Property: Refractive index (Na D-line) (Liquid); method: Standard Abbe refractometry
Temperature, K	Pressure, kPa	Refractive index (Na D-line)	uncertainty
298.15	101.325	1.4941	0.0007

System: toluene; phases: Liquid
Fixed: Pressure, kPa = 101
Property: Mass density, kg/m3 (Liquid); method: VIBTUB::UFactor:4
Temperature, K	Mass density, kg/m3	uncertainty
298.15	862.29	0.34
308.15	852.86	0.36
318.15	843.6	0.37
328.15	834.29	0.39

System: 1,3-dimethylbenzene; phases: Liquid
Property: Refractive index (Na D-line) (Liquid); method: Standard Abbe refractometry
Temperature, K	Pressure, kPa	Refractive index (Na D-line)	uncertainty
298.15	101.325	1.4945	0.0008

System: 1,3-dimethylbenzene; phases: Liquid
Fixed: Pressure, kPa = 101
Property: Mass density, kg/m3 (Liquid); method: VIBTUB:UFactor:4
Temperature, K	Mass density, kg/m3	uncertainty
298.15	859.85	0.49
308.15	851.2	0.5
318.15	842.66	0.51
328.15	834.13	0.52

System: 1,3,5-trimethylbenzene; phases: Liquid
Property: Refractive index (Na D-line) (Liquid); method: Standard Abbe refractometry
Temperature, K	Pressure, kPa	Refractive index (Na D-line)	uncertainty
298.15	101.325	1.4967	0.0008

System: 1,3,5-trimethylbenzene; phases: Liquid
Fixed: Pressure, kPa = 101
Property: Mass density, kg/m3 (Liquid); method: VIBTUB::UFactor:4
Temperature, K	Mass density, kg/m3	uncertainty
298.15	861.13	0.49
308.15	852.89	0.5
318.15	844.78	0.51
328.15	836.65	0.52

System: benzene + octane; phases: Liquid
Fixed: Pressure, kPa = 101
Property: Mass density, kg/m3 (Liquid); method: VIBTUB:UFactor:4
Temperature, K	Mole fraction of octane	Mass density, kg/m3	uncertainty
298.15	0	873.62	0.34
298.15	0.06831	850.82	0.37
298.15	0.13579	831.14	0.4
298.15	0.20415	813.51	0.43
298.15	0.26163	800.23	0.45
298.15	0.33215	785.49	0.48
298.15	0.39125	774.33	0.49
298.15	0.45813	762.82	0.51
298.15	0.53879	750.32	0.53
298.15	0.60539	740.95	0.55
298.15	0.66404	733.37	0.56
298.15	0.71158	727.59	0.57
298.15	0.79787	717.91	0.59
298.15	0.86825	710.7	0.6
298.15	0.9264	705.15	0.61
298.15	1	698.6	0.62
308.15	0	863.01	0.35
308.15	0.06734	840.85	0.39
308.15	0.13348	821.8	0.42
308.15	0.19895	804.98	0.44
308.15	0.25624	791.81	0.47
308.15	0.3283	776.91	0.49
308.15	0.3888	765.56	0.51
308.15	0.46819	752.18	0.53
308.15	0.52842	742.95	0.54
308.15	0.5971	733.35	0.56
308.15	0.65918	725.32	0.57
308.15	0.72484	717.54	0.59
308.15	0.81557	707.74	0.6
308.15	0.88516	700.86	0.61
308.15	0.95146	694.77	0.62
308.15	1	690.44	0.63
318.15	0	852.16	0.37
318.15	0.06734	830.41	0.4
318.15	0.13348	811.7	0.43
318.15	0.19323	796.52	0.46
318.15	0.25106	783.28	0.48
318.15	0.32892	767.43	0.5
318.15	0.39372	755.54	0.52
318.15	0.4681	743.19	0.54
318.15	0.53024	733.8	0.56
318.15	0.58656	726.02	0.57
318.15	0.6709	715.36	0.59
318.15	0.72484	709.07	0.6
318.15	0.81557	699.39	0.62
318.15	0.88516	692.61	0.63
318.15	0.95146	686.61	0.64
318.15	1	682.47	0.64
328.15	0	841.49	0.39
328.15	0.06734	820.09	0.42
328.15	0.13348	801.67	0.45
328.15	0.19323	786.83	0.47
328.15	0.25106	773.79	0.49
328.15	0.32892	758.15	0.52
328.15	0.39372	746.47	0.54
328.15	0.4681	734.35	0.56
328.15	0.53024	725.13	0.57
328.15	0.58656	717.46	0.58
328.15	0.6709	706.93	0.6
328.15	0.72484	700.75	0.61
328.15	0.81557	691.2	0.63
328.15	0.88516	684.52	0.64
328.15	0.95146	678.62	0.65
328.15	1	674.54	0.66

System: toluene + octane; phases: Liquid
Fixed: Pressure, kPa = 101
Property: Mass density, kg/m3 (Liquid); method: VIBTUB:UFactor:4
Temperature, K	Mole fraction of octane	Mass density, kg/m3	uncertainty
298.15	0	862.29	0.34
298.15	0.0654	845.89	0.37
298.15	0.12831	831.23	0.39
298.15	0.19794	816.17	0.42
298.15	0.25241	805.13	0.43
298.15	0.31201	793.74	0.45
298.15	0.39305	779.27	0.48
298.15	0.4544	769.05	0.5
298.15	0.54085	755.59	0.52
298.15	0.6029	746.56	0.53
298.15	0.67173	737.09	0.55
298.15	0.72018	730.75	0.56
298.15	0.80637	720.08	0.58
298.15	0.87266	712.36	0.59
298.15	0.93118	705.88	0.61
298.15	1	698.61	0.62
308.15	0	852.86	0.36
308.15	0.0654	836.6	0.38
308.15	0.12831	822.06	0.41
308.15	0.19794	807.1	0.43
308.15	0.25241	796.14	0.45
308.15	0.31201	784.82	0.47
308.15	0.39305	770.46	0.49
308.15	0.4544	760.31	0.51
308.15	0.54085	746.93	0.53
308.15	0.6029	737.98	0.55
308.15	0.67173	728.58	0.56
308.15	0.72018	722.3	0.57
308.15	0.80637	711.7	0.59
308.15	0.87266	704.05	0.61
308.15	0.93118	697.62	0.62
308.15	1	690.44	0.63
318.15	0	843.6	0.37
318.15	0.0675	826.95	0.4
318.15	0.1229	814.22	0.42
318.15	0.20523	796.69	0.45
318.15	0.2613	785.56	0.47
318.15	0.31424	775.67	0.48
318.15	0.39798	761	0.51
318.15	0.45533	751.61	0.52
318.15	0.53876	738.82	0.54
318.15	0.60781	728.94	0.56
318.15	0.66791	720.81	0.57
318.15	0.7262	713.32	0.59
318.15	0.79849	704.51	0.6
318.15	0.86301	697.07	0.62
318.15	0.91435	691.43	0.63
318.15	1	682.49	0.64
328.15	0	834.29	0.39
328.15	0.0675	817.77	0.41
328.15	0.1229	805.12	0.43
328.15	0.20523	787.73	0.46
328.15	0.2613	776.68	0.48
328.15	0.31424	766.87	0.5
328.15	0.39798	752.32	0.52
328.15	0.45533	743.01	0.54
328.15	0.53876	730.32	0.56
328.15	0.60781	720.55	0.57
328.15	0.66791	712.48	0.59
328.15	0.7262	705.06	0.6
328.15	0.79849	696.33	0.62
328.15	0.86301	688.97	0.63
328.15	0.91435	683.39	0.64
328.15	1	674.55	0.66

System: 1,3-dimethylbenzene + octane; phases: Liquid
Fixed: Pressure, kPa = 101
Property: Mass density, kg/m3 (Liquid); method: VIBTUB:UFactor:4
Temperature, K	Mole fraction of octane	Mass density, kg/m3	uncertainty
298.15	0	859.85	0.49
298.15	0.06642	845.86	0.5
298.15	0.13973	831.1	0.51
298.15	0.20521	818.49	0.52
298.15	0.27596	805.42	0.52
298.15	0.32304	797.05	0.53
298.15	0.39818	784.13	0.54
298.15	0.46182	773.65	0.55
298.15	0.54321	760.8	0.56
298.15	0.5993	752.28	0.57
298.15	0.67549	741.14	0.58
298.15	0.72842	733.68	0.58
298.15	0.78511	725.91	0.59
298.15	0.85826	716.27	0.6
298.15	0.92495	707.79	0.61
298.15	1	698.63	0.62
308.15	0	851.2	0.5
308.15	0.06642	837.23	0.51
308.15	0.13973	822.5	0.52
308.15	0.20521	809.92	0.53
308.15	0.27596	796.89	0.54
308.15	0.32304	788.53	0.54
308.15	0.39543	776.12	0.55
308.15	0.46182	765.21	0.56
308.15	0.54321	752.4	0.57
308.15	0.5993	743.9	0.58
308.15	0.67549	732.79	0.59
308.15	0.72842	725.36	0.6
308.15	0.78511	717.64	0.6
308.15	0.85826	708.01	0.61
308.15	0.92495	699.57	0.62
308.15	1	690.43	0.63
318.15	0	842.66	0.51
318.15	0.0687	828.23	0.52
318.15	0.11675	818.54	0.53
318.15	0.20702	801.13	0.54
318.15	0.26506	790.45	0.55
318.15	0.3289	779.13	0.55
318.15	0.40867	765.6	0.56
318.15	0.46718	756.08	0.57
318.15	0.53208	745.88	0.58
318.15	0.60668	734.61	0.59
318.15	0.66336	726.39	0.6
318.15	0.72884	717.2	0.61
318.15	0.79232	708.59	0.62
318.15	0.86337	699.33	0.63
318.15	0.95015	688.48	0.64
318.15	1	682.49	0.64
328.15	0	834.13	0.52
328.15	0.0687	819.75	0.53
328.15	0.11675	810.1	0.54
328.15	0.20702	792.73	0.55
328.15	0.26506	782.09	0.56
328.15	0.3289	770.81	0.56
328.15	0.40867	757.32	0.58
328.15	0.46718	747.81	0.58
328.15	0.52871	738.2	0.59
328.15	0.60668	726.45	0.6
328.15	0.66336	718.26	0.61
328.15	0.72884	709.11	0.62
328.15	0.79232	700.55	0.63
328.15	0.86337	691.33	0.64
328.15	0.95015	680.52	0.65
328.15	1	674.56	0.66

System: 1,3,5-trimethylbenzene + octane; phases: Liquid
Fixed: Pressure, kPa = 101
Property: Mass density, kg/m3 (Liquid); method: VIBTUB:UFactor:4
Temperature, K	Mole fraction of octane	Mass density, kg/m3	uncertainty
298.15	0	861.13	0.49
298.15	0.08503	845.14	0.5
298.15	0.14792	833.6	0.5
298.15	0.21317	821.88	0.51
298.15	0.27175	811.56	0.52
298.15	0.31771	803.61	0.52
298.15	0.38638	791.95	0.53
298.15	0.46303	779.23	0.54
298.15	0.54074	766.69	0.55
298.15	0.60365	756.73	0.56
298.15	0.67251	746.08	0.57
298.15	0.723	738.44	0.58
298.15	0.79686	727.45	0.59
298.15	0.86233	717.95	0.6
298.15	0.94219	706.63	0.61
298.15	1	698.62	0.62
308.15	0	852.89	0.5
308.15	0.08503	836.88	0.51
308.15	0.13865	827.02	0.51
308.15	0.21317	813.6	0.52
308.15	0.27175	803.29	0.53
308.15	0.31771	795.34	0.53
308.15	0.38638	783.69	0.54
308.15	0.46303	770.99	0.55
308.15	0.54074	758.45	0.56
308.15	0.60365	748.49	0.57
308.15	0.67251	737.87	0.58
308.15	0.723	730.2	0.59
308.15	0.79686	719.24	0.6
308.15	0.86233	709.74	0.61
308.15	0.94219	698.43	0.62
308.15	1	690.45	0.63
318.15	0	844.78	0.51
318.15	0.06984	831.58	0.52
318.15	0.13625	819.34	0.52
318.15	0.20007	807.84	0.53
318.15	0.26952	795.59	0.54
318.15	0.34644	782.35	0.55
318.15	0.39796	773.67	0.55
318.15	0.44637	765.65	0.56
318.15	0.53603	751.14	0.57
318.15	0.5995	741.12	0.58
318.15	0.66435	731.1	0.59
318.15	0.73009	721.16	0.6
318.15	0.78388	713.18	0.61
318.15	0.85369	703.03	0.62
318.15	0.95072	689.3	0.64
318.15	1	682.49	0.64
328.15	0	836.65	0.52
328.15	0.06984	823.48	0.53
328.15	0.13625	811.25	0.53
328.15	0.20007	799.75	0.54
328.15	0.26772	787.84	0.55
328.15	0.34644	774.3	0.56
328.15	0.39796	765.62	0.57
328.15	0.46224	755.02	0.57
328.15	0.53681	743	0.58
328.15	0.60223	732.7	0.59
328.15	0.65521	724.51	0.6
328.15	0.73894	711.86	0.61
328.15	0.78388	705.21	0.62
328.15	0.85369	695.07	0.63
328.15	0.95072	681.35	0.65
328.15	1	674.54	0.66
