Measured thermophysical data. Effect of temperature on density, sound velocity, and their derived properties for the binary systems glycerol with water or alcohols
Source: J. Chem. Thermodyn., 2017, 10.1016/j.jct.2017.01.011
Compound 1: glycerol, C3H8O3, InChI=1S/C3H8O3/c4-1-3(6)2-5/h3-6H,1-2H2, purity 99%
Compound 2: water, H2O, InChI=1S/H2O/h1H2, purity 99.9%
Compound 3: methanol, CH4O, InChI=1S/CH4O/c1-2/h2H,1H3, purity 99.6%
Compound 4: ethanol, C2H6O, InChI=1S/C2H6O/c1-2-3/h3H,2H2,1H3, purity 99%

System: glycerol; phases: Liquid
Fixed: Pressure, kPa = 100
Property: Mass density, kg/m3 (Liquid); method: Vibrating tube method
Temperature, K	Mass density, kg/m3	uncertainty
283.15	1267	1
293.15	1261	1
303.15	1255	1
313.15	1248	1

System: glycerol; phases: Liquid
Fixed: Pressure, kPa = 100
Fixed: Frequency, MHz = 3
Property: Speed of sound, m/s (Liquid); method: Single path-length method
Temperature, K	Speed of sound, m/s	uncertainty
283.15	1942.3	6.1
293.15	1922.9	6.1
303.15	1901	6.1
313.15	1879.3	6.1

System: glycerol + water; phases: Liquid
Fixed: Pressure, kPa = 100
Property: Mass density, kg/m3 (Liquid); method: Vibrating tube method
Temperature, K	Mole fraction of water	Mass density, kg/m3	uncertainty
283.15	0	1267	1
283.15	0.1003	1261	1
283.15	0.1998	1254	1
283.15	0.3014	1246	1
283.15	0.4042	1236	1
283.15	0.5011	1224	1
283.15	0.6011	1206	1
283.15	0.7003	1183	1
283.15	0.7999	1148	1
283.15	0.9024	1091	1
283.15	1	1000	1
293.15	0	1261	1
293.15	0.1003	1255	1
293.15	0.1998	1248	1
293.15	0.3014	1240	1
293.15	0.4042	1230	1
293.15	0.5011	1218	1
293.15	0.6011	1201	1
293.15	0.7003	1177	1
293.15	0.7999	1143	1
293.15	0.9024	1087	1
293.15	1	998	1
303.15	0	1255	1
303.15	0.1003	1249	1
303.15	0.1998	1242	1
303.15	0.3014	1234	1
303.15	0.4042	1224	1
303.15	0.5011	1212	1
303.15	0.6011	1194	1
303.15	0.7003	1172	1
303.15	0.7999	1137	1
303.15	0.9024	1083	1
303.15	1	996	1
313.15	0	1248	1
313.15	0.1003	1243	1
313.15	0.1998	1236	1
313.15	0.3014	1228	1
313.15	0.4042	1218	1
313.15	0.5011	1205	1
313.15	0.6011	1188	1
313.15	0.7003	1166	1
313.15	0.7999	1131	1
313.15	0.9024	1078	1
313.15	1	992	1

System: glycerol + water; phases: Liquid
Fixed: Pressure, kPa = 100
Fixed: Frequency, MHz = 3
Property: Speed of sound, m/s (Liquid); method: Single path-length method
Temperature, K	Mole fraction of water	Speed of sound, m/s	uncertainty
283.15	0	1942.3	6.1
283.15	0.1003	1951.7	6.1
283.15	0.1998	1940.9	6.1
283.15	0.3014	1931.5	6.1
283.15	0.4042	1919.2	6
283.15	0.5011	1903.7	6
283.15	0.6011	1879.7	6
283.15	0.7003	1841.6	6
283.15	0.7999	1772.9	6
283.15	0.9024	1648.7	6.1
283.15	1	1448.1	6
293.15	0	1922.9	6.1
293.15	0.1003	1922	6.1
293.15	0.1998	1915.6	6.1
293.15	0.3014	1909	6.1
293.15	0.4042	1899.3	6
293.15	0.5011	1886	6
293.15	0.6011	1864.7	6
293.15	0.7003	1830.6	6
293.15	0.7999	1769.3	6
293.15	0.9024	1659.3	6.1
293.15	1	1482.7	6
303.15	0	1901	6.1
303.15	0.1003	1897.9	6.1
303.15	0.1998	1893.3	6.1
303.15	0.3014	1888	6.1
303.15	0.4042	1879.7	6
303.15	0.5011	1867.9	6
303.15	0.6011	1848.8	6
303.15	0.7003	1818.2	6
303.15	0.7999	1763.5	6
303.15	0.9024	1665.8	6
303.15	1	1509.4	6
313.15	0	1879.3	6.1
313.15	0.1003	1875.7	6.1
313.15	0.1998	1871.9	6.1
313.15	0.3014	1867.3	6.1
313.15	0.4042	1859.8	6
313.15	0.5011	1849.3	6
313.15	0.6011	1832	6
313.15	0.7003	1804.5	6
313.15	0.7999	1755.4	6
313.15	0.9024	1668.4	6
313.15	1	1529.2	6

System: glycerol + methanol; phases: Liquid
Fixed: Pressure, kPa = 100
Property: Mass density, kg/m3 (Liquid); method: Vibrating tube method
Temperature, K	Mole fraction of methanol	Mass density, kg/m3	uncertainty
283.15	0	1267	1
283.15	0.1003	1244	1
283.15	0.1997	1220	1
283.15	0.3002	1192	1
283.15	0.4011	1158	1
283.15	0.4999	1119	1
283.15	0.5998	1075	1
283.15	0.7	1024	1
283.15	0.8002	964	1
283.15	0.8999	892	1
283.15	1	801	1
293.15	0	1261	1
293.15	0.1003	1238	1
293.15	0.1997	1213	1
293.15	0.3002	1186	1
293.15	0.4011	1152	1
293.15	0.4999	1112	1
293.15	0.5998	1068	1
293.15	0.7	1016	1
293.15	0.8002	956	1
293.15	0.8999	883	1
293.15	1	791	1
303.15	0	1255	1
303.15	0.1003	1232	1
303.15	0.1997	1207	1
303.15	0.3002	1179	1
303.15	0.4011	1145	1
303.15	0.4999	1105	1
303.15	0.5998	1060	1
303.15	0.7	1009	1
303.15	0.8002	947	1
303.15	0.8999	874	1
303.15	1	782	1
313.15	0	1248	1
313.15	0.1003	1225	1
313.15	0.1997	1200	1
313.15	0.3002	1172	1
313.15	0.4011	1138	1
313.15	0.4999	1098	1
313.15	0.5998	1053	1
313.15	0.7	1001	1
313.15	0.8002	939	1
313.15	0.8999	865	1
313.15	1	772	1

System: glycerol + methanol; phases: Liquid
Fixed: Pressure, kPa = 100
Fixed: Frequency, MHz = 3
Property: Speed of sound, m/s (Liquid); method: Single path-length method
Temperature, K	Mole fraction of methanol	Speed of sound, m/s	uncertainty
283.15	0	1942.3	4.1
283.15	0.1003	1901.8	4.2
283.15	0.1997	1841.5	4.2
283.15	0.3002	1779.2	4.2
283.15	0.4011	1708.9	4.2
283.15	0.4999	1628.4	4.2
283.15	0.5998	1546.5	4.2
283.15	0.7	1457.7	4.2
283.15	0.8002	1364.5	4.2
283.15	0.8999	1265.5	4.2
283.15	1	1153.3	4.1
293.15	0	1922.9	4.1
293.15	0.1003	1873	4.2
293.15	0.1997	1816.1	4.2
293.15	0.3002	1755.3	4.2
293.15	0.4011	1684.6	4.2
293.15	0.4999	1604	4.2
293.15	0.5998	1521.1	4.2
293.15	0.7	1430.9	4.2
293.15	0.8002	1336.1	4.2
293.15	0.8999	1234.9	4.2
293.15	1	1119.6	4.1
303.15	0	1901	4.1
303.15	0.1003	1848.8	4.2
303.15	0.1997	1792.7	4.2
303.15	0.3002	1732.3	4.2
303.15	0.4011	1660.7	4.2
303.15	0.4999	1579.6	4.2
303.15	0.5998	1495.6	4.2
303.15	0.7	1404.2	4.2
303.15	0.8002	1307.8	4.2
303.15	0.8999	1204.5	4.2
303.15	1	1086.6	4.1
313.15	0	1879.3	4.1
313.15	0.1003	1826.1	4.2
313.15	0.1997	1770	4.2
313.15	0.3002	1709.5	4.2
313.15	0.4011	1637.1	4.2
313.15	0.4999	1555.3	4.2
313.15	0.5998	1470.4	4.2
313.15	0.7	1377.6	4.2
313.15	0.8002	1279.7	4.2
313.15	0.8999	1174.5	4.2
313.15	1	1054.2	4.1

System: glycerol + ethanol; phases: Liquid
Fixed: Pressure, kPa = 100
Property: Mass density, kg/m3 (Liquid); method: Vibrating tube method
Temperature, K	Mole fraction of ethanol	Mass density, kg/m3	uncertainty
283.15	0	1267	1
283.15	0.0999	1233	1
283.15	0.2002	1199	1
283.15	0.2998	1161	1
283.15	0.4001	1120	1
283.15	0.4993	1077	1
283.15	0.6004	1029	1
283.15	0.699	978	1
283.15	0.9002	862	1
283.15	1	798	1
293.15	0	1261	1
293.15	0.0999	1227	1
293.15	0.2002	1193	1
293.15	0.2998	1155	1
293.15	0.4001	1113	1
293.15	0.4993	1069	1
293.15	0.6004	1021	1
293.15	0.699	970	1
293.15	0.9002	854	1
293.15	1	790	1
303.15	0	1255	1
303.15	0.0999	1220	1
303.15	0.2002	1186	1
303.15	0.2998	1148	1
303.15	0.4001	1106	1
303.15	0.4993	1062	1
303.15	0.6004	1014	1
303.15	0.699	963	1
303.15	0.9002	845	1
303.15	1	781	1
313.15	0	1248	1
313.15	0.0999	1214	1
313.15	0.2002	1179	1
313.15	0.2998	1140	1
313.15	0.4001	1099	1
313.15	0.4993	1055	1
313.15	0.6004	1006	1
313.15	0.699	955	1
313.15	0.9002	837	1
313.15	1	772	1

System: glycerol + ethanol; phases: Liquid
Fixed: Pressure, kPa = 100
Fixed: Frequency, MHz = 3
Property: Speed of sound, m/s (Liquid); method: Single path-length method
Temperature, K	Mole fraction of ethanol	Speed of sound, m/s	uncertainty
283.15	0	1942.3	4.1
283.15	0.0999	1882.1	4.2
283.15	0.2002	1804.3	4.2
283.15	0.2998	1721.8	4.2
283.15	0.4001	1639.2	4.2
283.15	0.4993	1557.7	4.2
283.15	0.6004	1476.1	4.2
283.15	0.699	1401.7	4.2
283.15	0.9002	1263.5	4.2
283.15	1	1196.8	4.1
293.15	0	1922.9	4.1
293.15	0.0999	1852.5	4.2
293.15	0.2002	1778.9	4.2
293.15	0.2998	1696.1	4.2
293.15	0.4001	1613.3	4.2
293.15	0.4993	1530.9	4.2
293.15	0.6004	1448.4	4.2
293.15	0.699	1372.8	4.2
293.15	0.9002	1231.4	4.2
293.15	1	1162.3	4.1
303.15	0	1901	4.1
303.15	0.0999	1827.9	4.2
303.15	0.2002	1753.4	4.2
303.15	0.2998	1671.4	4.2
303.15	0.4001	1587.9	4.2
303.15	0.4993	1504.6	4.2
303.15	0.6004	1421.1	4.2
303.15	0.699	1344.2	4.2
303.15	0.9002	1199.4	4.2
303.15	1	1128.2	4.1
313.15	0	1879.3	4.1
313.15	0.0999	1804.6	4.2
313.15	0.2002	1729.7	4.2
313.15	0.2998	1647.2	4.2
313.15	0.4001	1562.8	4.2
313.15	0.4993	1478.5	4.2
313.15	0.6004	1394	4.2
313.15	0.699	1315.8	4.2
313.15	0.9002	1167.7	4.2
313.15	1	1094.5	4.1
