Measured thermophysical data. Thermodynamic properties of calcium-ammonium nitrate decahydrate
Source: J. Chem. Thermodyn., 2018, 10.1016/j.jct.2018.02.024
Compound 1: ammonium calcium nitrate ((NH4)Ca5(NO3)11) decahydrate, Ca5H24N12O43, InChI=1S/5Ca.11NO3.H3N.10H2O/c;;;;;11*2-1(3)4;;;;;;;;;;;/h;;;;;;;;;;;;;;;;1H3;10*1H2/q5*+2;11*-1;;;;;;;;;;;/p+1, purity 99.3%
Compound 2: water, H2O, InChI=1S/H2O/h1H2, purity 99.8%

System: ammonium calcium nitrate ((NH4)Ca5(NO3)11) decahydrate; phases: Crystal 2, Crystal 1, Air at 1 atmosphere
Property: Triple point temperature, K (Crystal 2); method: Adiabatic calorimetry
Triple point temperature, K	uncertainty
323.7	0.4

System: ammonium calcium nitrate ((NH4)Ca5(NO3)11) decahydrate; phases: Crystal 1, Liquid, Air at 1 atmosphere
Property: Molar enthalpy of transition or fusion, kJ/mol (Crystal 1); method: DSC
Molar enthalpy of transition or fusion, kJ/mol	uncertainty
141	5

System: ammonium calcium nitrate ((NH4)Ca5(NO3)11) decahydrate; phases: Crystal 2, Crystal 1, Air at 1 atmosphere
Property: Triple point temperature, K (Crystal 2); method: DSC
Triple point temperature, K	uncertainty
322.9	2.3

System: ammonium calcium nitrate ((NH4)Ca5(NO3)11) decahydrate; phases: Crystal 1, Liquid, Air at 1 atmosphere
Property: Triple point temperature, K (Crystal 1); method: DSC
Triple point temperature, K	uncertainty
373.2	1.9

System: ammonium calcium nitrate ((NH4)Ca5(NO3)11) decahydrate; phases: Crystal 2, Crystal 1, Gas
Property: Molar enthalpy of transition or fusion, kJ/mol (Crystal 2); method: Adiabatic calorimetry
Molar enthalpy of transition or fusion, kJ/mol	uncertainty
0	1

System: ammonium calcium nitrate ((NH4)Ca5(NO3)11) decahydrate; phases: Crystal 2
Fixed: Pressure, kPa = 101.325
Property: Molar heat capacity at constant pressure, J/K/mol (Crystal 2); method: Small (less than 1 g) adiabatic calorimetry
Temperature, K	Molar heat capacity at constant pressure, J/K/mol	uncertainty
5	1.621319661	0.1746036558
10	12.970557288	0.582012186
15	39.327394854	1.579747362
20	76.49303016	3.32578392
25	121.39111308	1.66289196
30	172.94076384	3.32578392
35	226.98475254	3.32578392
40	284.35452516	3.32578392
45	342.55574376	3.32578392
50	402.41985432	3.32578392
60	516.32795358	4.98867588
70	615.2700252	5.82012186
80	705.89763702	5.82012186
90	785.7164511	5.82012186
100	859.71514332	5.82012186
110	927.0622677	5.82012186
120	987.75782424	7.48301382
130	1044.29615088	7.48301382
140	1096.67724762	7.48301382
150	1146.56400642	7.48301382
160	1193.95642728	7.48301382
170	1242.18029412	9.14590578
180	1287.90982302	9.14590578
190	1331.97645996	9.14590578
200	1375.21165092	9.14590578
210	1417.6153959	9.14590578
220	1459.1876949	9.14590578
230	1501.59143988	9.14590578
240	1543.99518486	10.80879774
250	1587.23037582	10.80879774
260	1632.12845874	10.80879774
270	1678.68943362	10.80879774
280	1726.91330046	10.80879774
290	1778.46295122	11.64024372
298.15	1822.52958816	12.4716897
300	1832.50693992	12.4716897
310	1890.70815852	12.4716897
320	1952.23516104	13.30313568
323.7	1976.34709446	13.30313568

System: ammonium calcium nitrate ((NH4)Ca5(NO3)11) decahydrate; phases: Crystal 2
Fixed: Pressure, kPa = 101.325
Property: Molar enthalpy function {Hm(T)-Hm(0)}/T, J/K/mol (Crystal 2); method: Small (less than 1 g) adiabatic calorimetry
Temperature, K	Molar enthalpy function {Hm(T)-Hm(0)}/T, J/K/mol	uncertainty
5	0.40574563824	0.06568423242
10	3.242639322	0.41572299
15	10.559363946	1.413458166
20	22.44904146	3.32578392
25	37.4150691	1.66289196
30	55.70688066	2.49433794
35	76.49303016	3.32578392
40	99.7735176	4.1572299
45	122.22255906	2.49433794
50	147.16593846	3.32578392
60	200.37848118	4.1572299
70	251.92813194	4.98867588
80	303.4777827	5.82012186
90	352.53309552	6.65156784
100	399.92551638	4.98867588
110	444.8235993	4.98867588
120	487.22734428	5.82012186
130	527.9681973	6.65156784
140	567.04615836	6.65156784
150	603.62978148	7.48301382
160	639.38195862	7.48301382
170	673.4712438	8.3144598
180	706.729083	8.3144598
190	737.49258426	9.14590578
200	768.25608552	9.14590578
210	798.1881408	9.97735176
220	827.2887501	9.97735176
230	856.3893594	9.97735176
240	883.82707674	10.80879774
250	911.26479408	10.80879774
260	937.87106544	11.64024372
270	964.4773368	11.64024372
280	991.08360816	11.64024372
290	1016.85843354	12.4716897
298.15	1038.47602902	12.4716897
300	1043.4647049	12.4716897
310	1070.07097626	12.4716897
320	1096.67724762	13.30313568
323.7	1106.65459938	13.30313568

System: ammonium calcium nitrate ((NH4)Ca5(NO3)11) decahydrate; phases: Crystal 2
Fixed: Pressure, kPa = 101.325
Property: Molar entropy, J/K/mol (Crystal 2); method: Small (less than 1 g) adiabatic calorimetry
Temperature, K	Molar entropy, J/K/mol	uncertainty
5	0.54127133298	0.10891942338
10	4.323519096	0.748301382
15	14.13458166	2.49433794
20	30.76350126	4.98867588
25	52.38109674	4.1572299
30	78.9873681	4.98867588
35	109.75086936	6.65156784
40	143.84015454	9.14590578
45	180.42377766	4.98867588
50	219.50173872	6.65156784
60	303.4777827	9.14590578
70	390.7796106	11.64024372
80	478.91288448	14.96602764
90	566.21471238	9.14590578
100	653.51654028	10.80879774
110	738.32403024	11.64024372
120	821.46862824	13.30313568
130	902.95033428	14.13458166
140	981.93770238	15.79747362
150	1059.26217852	16.6289196
160	1134.9237627	14.96602764
170	1208.92245492	15.79747362
180	1281.25825518	17.46036558
190	1351.93116348	18.29181156
200	1421.7726258	18.29181156
210	1489.95119616	19.95470352
220	1556.46687456	20.7861495
230	1622.15110698	20.7861495
240	1687.00389342	22.44904146
250	1751.02523388	24.11193342
260	1814.21512836	24.11193342
270	1876.57357686	24.9433794
280	1938.10057938	26.60627136
290	1999.6275819	26.60627136
298.15	2049.5143407	27.43771734
300	2061.15458442	27.43771734
310	2121.85014096	27.43771734
320	2183.37714348	29.1006093
323.7	2205.82618494	29.1006093

System: ammonium calcium nitrate ((NH4)Ca5(NO3)11) decahydrate; phases: Crystal 1
Fixed: Pressure, kPa = 101.325
Property: Molar heat capacity at constant pressure, J/K/mol (Crystal 1); method: Small (less than 1 g) adiabatic calorimetry
Temperature, K	Molar heat capacity at constant pressure, J/K/mol	uncertainty
323.7	1892.37105048	12.4716897
330	1918.14587586	13.30313568

System: ammonium calcium nitrate ((NH4)Ca5(NO3)11) decahydrate; phases: Crystal 1
Fixed: Pressure, kPa = 101.325
Property: Molar enthalpy function {Hm(T)-Hm(0)}/T, J/K/mol (Crystal 1); method: Small (less than 1 g) adiabatic calorimetry
Temperature, K	Molar enthalpy function {Hm(T)-Hm(0)}/T, J/K/mol	uncertainty
323.7	1106.65459938	13.30313568
330	1121.62062702	13.30313568

System: ammonium calcium nitrate ((NH4)Ca5(NO3)11) decahydrate; phases: Crystal 1
Fixed: Pressure, kPa = 101.325
Property: Molar entropy, J/K/mol (Crystal 1); method: Small (less than 1 g) adiabatic calorimetry
Temperature, K	Molar entropy, J/K/mol	uncertainty
323.7	2205.82618494	29.1006093
330	2242.40980806	29.1006093

System: ammonium calcium nitrate ((NH4)Ca5(NO3)11) decahydrate; phases: Crystal 2
Fixed: Pressure, kPa = 101.325
Property: Molar heat capacity at constant pressure, J/K/mol (Crystal 2); method: Small (less than 1 g) adiabatic calorimetry
Temperature, K	Molar heat capacity at constant pressure, J/K/mol	uncertainty
7.16	4.697669787	0.2244904146
7.43	5.321254272	0.2411193342
7.7	6.069555654	0.2826916332
7.97	6.443706345	0.291006093
8.24	7.4746993602	0.332578392
8.51	7.8322211316	0.3492073116
8.77	8.979616584	0.3990940704
9.03	9.4535407926	0.41572299
9.29	10.4097036696	0.457295289
9.54	11.681816019	0.5071820478
9.8	12.014394411	0.5238109674
10.04	13.0204440468	0.5653832664
10.36	14.4837889716	0.6318989448
10.75	16.254768909	0.6984146232
11.14	17.8594596504	0.7649303016
11.54	20.037848118	0.8563893594
11.93	21.5427653418	0.914590578
12.3	23.7876694878	1.0060496358
12.68	25.8247121388	1.0891942338
13.05	27.1965980058	1.1473954524
13.42	29.1920683578	1.2305400504
13.79	31.6198906194	1.330313568
14.16	34.421863572	1.4467160052
14.52	37.1157485472	1.5548039826
14.89	38.7370682082	1.621319661
15.26	40.5662493642	1.6961497992
15.62	43.3765367766	1.8042377766
15.98	45.9457048548	1.912325754
16.34	47.9162318274	1.995470352
16.7	50.0779913754	2.07861495
17.06	52.8882787878	2.1950173872
17.42	56.3969808234	2.3363632038
17.77	59.2987272936	2.4610801008
18.13	61.7016061758	2.5525391586
18.48	64.6366104852	2.6689415958
18.84	67.34712438	2.7770295732
19.19	70.0326948954	2.8851175506
19.54	72.7182654108	2.993205528
19.89	74.788565901	3.076350126
20.56	81.3403602234	1.371885867
21.33	87.634406292	1.496602764
22.09	94.452263328	1.579747362
22.86	101.43640956	1.66289196
23.62	108.0879774	1.746036558
24.38	116.153003406	1.912325754
25.14	122.804571246	1.995470352
25.9	130.287585066	2.07861495
26.65	138.186321876	2.161759548
27.41	145.5030465	2.244904146
28.17	153.983795496	2.411193342
28.92	161.549953914	2.49433794
29.67	169.531835322	2.577482538
30.43	176.599126152	2.577482538
31.18	184.99673055	2.743771734
31.93	193.31119035	2.826916332
32.69	203.371686708	2.993205528
33.45	210.77155593	3.076350126
34.2	218.171425152	3.159494724
34.95	226.818463344	3.32578392
35.7	234.05204337	3.408928518
36.45	242.865370758	3.575217714
37.2	251.429264352	3.658362312
37.94	260.408880936	3.824651508
38.69	269.38849752	3.907796106
39.44	278.201824908	4.074085302
40.94	295.662190488	2.660627136
41.69	304.30922868	2.743771734
42.44	311.709097902	2.826916332
43.18	321.520160466	2.91006093
43.93	329.66833107	2.91006093
44.68	338.81423685	2.993205528
45.43	347.045552052	3.076350126
46.18	355.526301048	3.159494724
46.93	364.17333924	3.242639322
47.67	375.314715372	3.32578392
48.42	383.961753564	3.408928518
49.17	392.44250256	3.492073116
49.91	401.754697536	3.575217714
50.66	411.815193894	3.658362312
51.41	419.797075302	3.74150691
52.15	427.529522916	3.824651508
52.9	437.922597666	3.907796106
54.38	455.299818648	4.074085302
55.12	463.364844654	4.074085302
55.86	473.50848561	4.240374498
56.61	483.652126566	4.323519096
57.34	492.382309356	4.323519096
58.09	500.364190764	4.406663694
58.83	506.101168026	4.489808292
59.57	514.66506162	4.57295289
60.31	521.399774058	4.57295289
61.05	528.716498682	4.656097488
61.79	531.460270416	4.656097488
62.53	540.606176196	4.739242086
63.27	546.509442654	4.822386684
64.01	554.99019165	4.905531282
64.74	559.729433736	4.905531282
65.48	569.5404963	5.071820478
66.22	577.02351012	5.071820478
66.95	585.421114518	5.154965076
67.69	591.823248564	5.238109674
68.43	600.137708364	5.321254272
69.89	612.526253466	5.40439887
70.77	625.330521558	5.487543468
71.82	634.642716534	5.570688066
72.87	645.035791284	5.653832664
73.91	652.019937516	5.736977262
74.96	658.338926964	5.82012186
76	672.307219428	5.903266458
77.05	683.531740158	5.986411056
78.09	693.84167031	6.069555654
79.14	701.574117924	6.152700252
80.18	708.059396568	4.98867588
80.5	707.061661392	4.98867588
81.23	715.0435428	4.98867588
81.54	714.045807624	4.98867588
82.27	724.60517157	5.071820478
82.58	724.438882374	5.071820478
83.31	733.169065164	5.154965076
83.61	734.915101722	5.154965076
84.65	742.813838532	5.238109674
85.69	750.878864538	5.238109674
86.72	757.696721574	5.321254272
87.75	769.752688284	5.40439887
88.79	777.4019913	5.487543468
89.82	783.554691552	5.487543468
90.86	789.790536402	5.321254272
91.89	800.017321956	5.40439887
92.92	807.250901982	5.40439887
93.95	814.733915802	5.487543468
94.98	823.214664798	5.570688066
96.01	832.776293568	5.570688066
97.04	837.68182485	5.653832664
98.07	848.49062259	5.736977262
99.11	852.065840304	5.736977262
100.14	860.96231229	5.82012186
101.17	869.775639678	5.82012186
102.2	874.930604754	5.903266458
103.22	881.914750986	5.903266458
104.25	888.898897218	5.986411056
105.28	895.88304345	5.986411056
106.31	900.206562546	6.069555654
107.34	907.52328717	6.069555654
108.36	913.010830638	6.152700252
109.38	922.239881016	6.152700252
110.41	929.639750238	6.23584485
111.43	935.543016696	6.23584485
112.45	944.023765692	6.318989448
113.48	947.598983406	6.318989448
114.5	957.243756774	6.402134046
115.52	960.652685292	6.402134046
116.54	967.137963936	6.485278644
117.56	976.367014314	6.568423242
118.58	980.607388812	6.568423242
119.6	986.51065527	6.568423242
120.63	992.33077713	6.65156784
121.65	996.07228404	6.65156784
122.67	1002.640707282	6.734712438
123.68	1010.373154896	6.734712438
124.7	1012.28548065	6.817857036
125.72	1019.186482284	6.817857036
126.74	1024.507736556	6.901001634
127.76	1028.91440025	6.901001634
128.76	1038.392884422	6.984146232
129.78	1044.213006282	6.984146232
130.8	1047.455645604	6.984146232
131.81	1055.52067161	7.06729083
132.83	1058.763310932	7.06729083
133.84	1064.66657739	7.150435428
134.85	1070.90242224	7.150435428
135.87	1074.477639954	7.233580026
136.88	1081.71121998	7.233580026
137.89	1085.619016086	7.233580026
138.91	1090.773981162	7.316724624
139.92	1096.012090836	7.316724624
140.93	1100.917622118	7.399869222
141.94	1104.99170742	7.399869222
142.95	1110.894973878	7.399869222
143.96	1116.964529532	7.48301382
144.95	1122.368928402	7.48301382
145.96	1124.031820362	7.48301382
146.97	1131.847412574	7.566158418
147.98	1135.838353278	7.566158418
148.98	1142.489921118	7.649303016
149.99	1147.728030792	7.649303016
150.99	1153.21557426	7.732447614
152	1155.7099122	7.732447614
153.01	1163.026636824	7.815592212
154.01	1165.68726396	7.815592212
155.01	1171.257952026	7.815592212
156.02	1176.4960617	7.89873681
157.02	1182.233038962	7.89873681
158.02	1182.73190655	7.89873681
159.02	1189.882341978	7.981881408
160.02	1196.201331426	7.981881408
161.01	1198.861958562	7.981881408
162.01	1205.596671	8.065026006
163	1209.837045498	8.065026006
164	1215.15829977	8.148170604
165	1218.234649896	8.148170604
166	1220.313264846	8.148170604
167	1229.209736832	8.231315202
167.99	1230.95577339	8.231315202
168.99	1236.609606054	8.231315202
169.98	1236.027593868	8.231315202
170.98	1244.25890907	8.3144598
171.97	1248.249849774	8.3144598
172.96	1252.905947262	8.397604398
173.96	1257.894623142	8.397604398
174.95	1263.049588218	8.480748996
175.94	1266.874239726	8.480748996
176.91	1268.703420882	8.480748996
177.9	1273.692096762	8.480748996
178.89	1279.512218622	8.563893594
179.88	1285.41548508	8.563893594
180.86	1291.568185332	8.647038192
181.85	1291.983908322	8.647038192
182.84	1295.309692242	8.647038192
183.83	1301.129814102	8.73018279
184.81	1310.275719882	8.73018279
185.8	1307.947671138	8.73018279
186.78	1321.16766222	8.813327388
187.76	1322.664264984	8.813327388
188.75	1332.225893754	8.896471986
191.68	1335.634822272	8.896471986
192.62	1347.441355188	8.979616584
193.6	1351.266006696	9.062761182
194.58	1352.928898656	9.062761182
195.56	1358.083863732	9.062761182
196.54	1362.656816622	9.062761182
197.52	1366.647757326	9.14590578
198.49	1368.892661472	9.14590578
199.47	1375.793663106	9.229050378
200.45	1377.207121272	9.229050378
201.42	1382.944098534	9.229050378
202.39	1387.766485218	9.229050378
203.35	1388.764220394	9.312194976
204.32	1392.838305696	9.312194976
205.29	1398.49213836	9.312194976
206.25	1402.150500672	9.395339574
207.21	1408.635779316	9.395339574
208.14	1409.384080698	9.395339574
209.11	1413.208732206	9.478484172
210.07	1417.449106704	9.478484172
211.03	1421.7726258	9.478484172
211.99	1427.842181454	9.56162877
212.94	1428.83991663	9.56162877
213.9	1430.669097786	9.56162877
214.86	1435.325195274	9.56162877
215.81	1441.976763114	9.644773368
216.77	1447.048583592	9.644773368
217.72	1447.96317417	9.644773368
218.68	1454.365308216	9.727917966
219.63	1461.016876056	9.727917966
220.58	1461.598888242	9.727917966
221.53	1468.832468268	9.811062564
222.48	1469.99649264	9.811062564
223.39	1473.072842766	9.811062564
224.34	1475.567180706	9.811062564
225.28	1479.641266008	9.894207162
226.23	1486.375978446	9.894207162
227.17	1489.701762366	9.97735176
228.12	1492.528678698	9.97735176
229.06	1496.270185608	9.97735176
230	1497.101631588	9.97735176
230.94	1504.168922418	10.060496358
231.88	1514.89457556	10.143640956
232.82	1518.469793274	10.143640956
233.76	1521.96186639	10.143640956
234.7	1515.975455334	10.143640956
235.64	1526.035951692	10.226785554
236.58	1527.033686868	10.226785554
237.5	1539.42223197	10.309930152
238.38	1530.359470788	10.226785554
239.31	1543.496317272	10.309930152
240.23	1543.828895664	10.309930152
241.16	1550.314174308	10.309930152
242.09	1556.799452952	10.39307475
243.01	1556.716308354	10.39307475
243.94	1561.538695038	10.39307475
244.87	1560.873538254	10.39307475
245.79	1568.772275064	10.476219348
246.71	1571.599191396	10.476219348
247.63	1573.51151715	10.476219348
248.54	1581.41025396	10.559363946
249.46	1584.902327076	10.559363946
250.37	1587.978677202	10.559363946
251.28	1594.879678836	10.642508544
252.19	1594.962823434	10.642508544
253.03	1601.531246676	10.725653142
253.93	1608.182814516	10.725653142
254.84	1609.26369429	10.725653142
255.75	1610.760297054	10.725653142
256.65	1614.418659366	10.80879774
257.55	1624.396011126	10.80879774
258.45	1623.481420548	10.80879774
259.35	1626.142047684	10.80879774
260.25	1630.46556678	10.891942338
261.15	1640.692352334	10.975086936
262.04	1640.609207736	10.975086936
262.93	1645.099016028	10.975086936
263.83	1649.256245928	10.975086936
264.72	1653.829198818	11.058231534
265.6	1660.148188266	11.058231534
266.49	1668.71208186	11.141376132
267.29	1668.379503468	11.141376132
268.17	1675.197360504	11.141376132
269.05	1674.033336132	11.141376132
269.93	1678.190566032	11.22452073
270.8	1682.43094053	11.22452073
271.68	1689.49823136	11.307665328
272.56	1694.237473446	11.307665328
273.43	1693.23973827	11.307665328
274.3	1696.648666788	11.307665328
275.17	1707.041741538	11.390809926
276.04	1713.443875584	11.390809926
276.91	1711.94727282	11.390809926
277.77	1721.0931786	11.473954524
278.63	1723.254938148	11.473954524
279.49	1726.580722068	11.557099122
280.35	1732.982856114	11.557099122
281.1	1729.82336139	11.557099122
281.96	1736.89065222	11.557099122
282.81	1740.715303728	11.64024372
283.66	1749.445486518	11.64024372
284.51	1754.849885388	11.723388318
285.36	1757.011644936	11.723388318
286.2	1761.750887022	11.723388318
287.05	1763.829501972	11.723388318
287.89	1764.078935766	11.723388318
288.73	1765.824972324	11.806532916
289.56	1778.46295122	11.889677514
290.38	1776.633770064	11.806532916
291.21	1781.456156748	11.889677514
292.04	1785.53024205	11.889677514
292.87	1792.514388282	11.972822112
293.7	1795.757027604	11.972822112
294.39	1797.918787152	11.972822112
295.21	1807.397271324	12.05596671
296.03	1806.898403736	12.05596671
296.85	1810.05789846	12.05596671
297.67	1818.704936652	12.139111308
298.48	1819.120659642	12.139111308
299.29	1822.612732758	12.139111308
300.1	1832.257506126	12.222255906
301.16	1837.578760398	12.222255906
302.44	1841.902279494	12.305400504
303.71	1844.230328238	12.305400504
304.75	1855.039125978	12.388545102
305.92	1861.274970828	12.388545102
307.1	1870.587165804	12.4716897
308.27	1879.48363779	12.554834298
309.44	1883.474578494	12.554834298
310.59	1890.874447716	12.637978896
311.75	1898.440606134	12.637978896
312.9	1908.58424709	12.721123494
314.05	1914.154935156	12.721123494
314.91	1920.390780006	12.804268092
316.05	1928.040083022	12.88741269
317.18	1936.520832018	12.88741269
318.31	1948.244220336	12.970557288
319.43	1953.731763804	13.053701886
320.55	1962.960814182	13.053701886
321.66	1969.362948228	13.136846484
322.77	1976.929106646	13.136846484

System: ammonium calcium nitrate ((NH4)Ca5(NO3)11) decahydrate; phases: Crystal 1
Fixed: Pressure, kPa = 101.325
Property: Molar heat capacity at constant pressure, J/K/mol (Crystal 1); method: Small (less than 1 g) adiabatic calorimetry
Temperature, K	Molar heat capacity at constant pressure, J/K/mol	uncertainty
323.87	1980.005456772	13.219991082
324.98	1944.170135034	13.053701886
326.08	1909.332548472	12.721123494
327.16	1906.671921336	12.721123494
328.24	1910.829151236	12.721123494
329.3	1914.986381136	12.804268092
330.36	1919.642478624	12.804268092
331.42	1922.053671966	12.804268092
332.13	1927.29178164	12.88741269
333.18	1932.28045752	12.88741269
334.22	1934.35907247	12.88741269
335.25	1941.592652496	12.970557288
336.28	1944.086990436	12.970557288
337.3	1949.408244708	12.970557288
338.32	1948.743087924	12.970557288

System: ammonium calcium nitrate ((NH4)Ca5(NO3)11) decahydrate; phases: Crystal 2
Fixed: Pressure, kPa = 101.325
Property: Molar heat capacity at constant pressure, J/K/mol (Crystal 2); method: Small (less than 1 g) adiabatic calorimetry
Temperature, K	Molar heat capacity at constant pressure, J/K/mol	uncertainty
310.59	1890.9	12.6
311.75	1898.4	12.7
312.9	1908.6	12.7
314.05	1914.2	12.8
314.91	1920.4	12.8
316.05	1928	12.9
317.18	1936.5	12.9
318.31	1948.2	13
319.43	1953.7	13
320.55	1962.9	13.1
321.66	1969.4	13.1
322.77	1977	13.2
310.78	1894.6	12.7
311.98	1903	12.7
313.15	1910.9	12.7
314.34	1920.9	12.8
315.29	1926.1	12.8
316.47	1933.3	12.9
317.64	1943	13
318.82	1953.5	13
319.98	1962.2	13.1
321.15	1970.7	13.1
322.31	1973.9	13.2
323.46	1977	13.2

System: ammonium calcium nitrate ((NH4)Ca5(NO3)11) decahydrate; phases: Crystal 1
Fixed: Pressure, kPa = 101.325
Property: Molar heat capacity at constant pressure, J/K/mol (Crystal 1); method: Small (less than 1 g) adiabatic calorimetry
Temperature, K	Molar heat capacity at constant pressure, J/K/mol	uncertainty
323.87	1980	13.3
324.98	1944.2	13
326.08	1909.3	12.7
327.16	1906.6	12.7
328.24	1910.8	12.8
329.3	1915	12.8
330.36	1919.6	12.8
331.42	1922.1	13.7
332.13	1927.3	12.9
333.18	1932.3	12.9
334.22	1934.3	12.9
335.25	1941.6	12.9
336.28	1944.1	13
337.3	1949.4	13
324.61	1955.2	13.1
325.76	1914.4	12.8
326.9	1910.4	12.7
328.03	1914.6	12.8
329.15	1918.5	12.8
330.26	1921.1	12.8
331.37	1928.1	13.7
332.47	1933.4	12.9
333.26	1934.4	12.9
334.35	1938	13
335.44	1940.1	12.9
336.52	1942.5	12.9
337.59	1950.4	13
338.65	1958.2	13.1

System: ammonium calcium nitrate ((NH4)Ca5(NO3)11) decahydrate + water; phases: Liquid
Property: Molar enthalpy of solution, kJ/mol (Liquid); method: ISOPERIBOL
Mole fraction of ammonium calcium nitrate ((NH4)Ca5(NO3)11) decahydrate	Temperature, K	Pressure, kPa	Molar enthalpy of solution, kJ/mol	uncertainty
0	298.15	100	88.88	0.69
