Measured thermophysical data. Determination of solvation and specific interaction enthalpies of adamantane derivatives in aprotic solvents
Source: J. Chem. Thermodyn., 2007, 10.1016/j.jct.2006.12.002
Compound 1: ethyl acetate, C4H8O2, InChI=1S/C4H8O2/c1-3-6-4(2)5/h3H2,1-2H3
Compound 2: 1,4-dioxane, C4H8O2, InChI=1S/C4H8O2/c1-2-6-4-3-5-1/h1-4H2
Compound 3: toluene, C7H8, InChI=1S/C7H8/c1-7-5-3-2-4-6-7/h2-6H,1H3
Compound 4: cyclohexane, C6H12, InChI=1S/C6H12/c1-2-4-6-5-3-1/h1-6H2
Compound 5: hexane, C6H14, InChI=1S/C6H14/c1-3-5-6-4-2/h3-6H2,1-2H3
Compound 6: aniline, C6H7N, InChI=1S/C6H7N/c7-6-4-2-1-3-5-6/h1-5H,7H2
Compound 7: 1-bromotricyclo[3.3.1.1(3,7)]decane, C10H15Br, InChI=1S/C10H15Br/c11-10-4-7-1-8(5-10)3-9(2-7)6-10/h7-9H,1-6H2
Compound 8: 1-adamantanol, C10H16O, InChI=1S/C10H16O/c11-10-4-7-1-8(5-10)3-9(2-7)6-10/h7-9,11H,1-6H2
Compound 9: 2-adamantanone, C10H14O, InChI=1S/C10H14O/c11-10-8-2-6-1-7(4-8)5-9(10)3-6/h6-9H,1-5H2
Compound 10: N,N-dimethylethanamide, C4H9NO, InChI=1S/C4H9NO/c1-4(6)5(2)3/h1-3H3
Compound 11: acetonitrile, C2H3N, InChI=1S/C2H3N/c1-2-3/h1H3
Compound 12: dimethylformamide, C3H7NO, InChI=1S/C3H7NO/c1-4(2)3-5/h3H,1-2H3
Compound 13: acetone, C3H6O, InChI=1S/C3H6O/c1-3(2)4/h1-2H3
Compound 14: dimethyl sulfoxide, C2H6OS, InChI=1S/C2H6OS/c1-4(2)3/h1-2H3
Compound 15: 4-methyl-1,3-dioxolan-2-one, C4H6O3, InChI=1S/C4H6O3/c1-3-2-6-4(5)7-3/h3H,2H2,1H3
Compound 16: nitromethane, CH3NO2, InChI=1S/CH3NO2/c1-2(3)4/h1H3
Compound 17: tetrachloromethane, CCl4, InChI=1S/CCl4/c2-1(3,4)5

System: nitromethane + 1-adamantanol; phases: Liquid
Property: Molar enthalpy of solution, kJ/mol (Liquid); method: Flow calorimetry
Mole fraction of 1-adamantanol	Temperature, K	Pressure, kPa	Molar enthalpy of solution, kJ/mol	uncertainty
0	298.15	101	32.77	0.28

System: tetrachloromethane + 1-adamantanol; phases: Liquid
Property: Molar enthalpy of solution, kJ/mol (Liquid); method: Flow calorimetry
Mole fraction of 1-adamantanol	Temperature, K	Pressure, kPa	Molar enthalpy of solution, kJ/mol	uncertainty
0	298.15	101	28.35	0.22

System: ethyl acetate + 1-adamantanol; phases: Liquid
Property: Molar enthalpy of solution, kJ/mol (Liquid); method: Flow calorimetry
Mole fraction of 1-adamantanol	Temperature, K	Pressure, kPa	Molar enthalpy of solution, kJ/mol	uncertainty
0	298.15	101	22.89	0.18

System: 1,4-dioxane + 1-adamantanol; phases: Liquid
Property: Molar enthalpy of solution, kJ/mol (Liquid); method: Flow calorimetry
Mole fraction of 1-adamantanol	Temperature, K	Pressure, kPa	Molar enthalpy of solution, kJ/mol	uncertainty
0	298.15	101	22.63	0.18

System: toluene + 1-adamantanol; phases: Liquid
Property: Molar enthalpy of solution, kJ/mol (Liquid); method: Flow calorimetry
Mole fraction of 1-adamantanol	Temperature, K	Pressure, kPa	Molar enthalpy of solution, kJ/mol	uncertainty
0	298.15	101	27.85	0.22

System: cyclohexane + 1-adamantanol; phases: Liquid
Property: Molar enthalpy of solution, kJ/mol (Liquid); method: Flow calorimetry
Mole fraction of 1-adamantanol	Temperature, K	Pressure, kPa	Molar enthalpy of solution, kJ/mol	uncertainty
0	298.15	101	29.1	1.93

System: hexane + 1-adamantanol; phases: Liquid
Property: Molar enthalpy of solution, kJ/mol (Liquid); method: Flow calorimetry
Mole fraction of 1-adamantanol	Temperature, K	Pressure, kPa	Molar enthalpy of solution, kJ/mol	uncertainty
0	298.15	101	32.39	2.31

System: aniline + 1-adamantanol; phases: Liquid
Property: Molar enthalpy of solution, kJ/mol (Liquid); method: Flow calorimetry
Mole fraction of 1-adamantanol	Temperature, K	Pressure, kPa	Molar enthalpy of solution, kJ/mol	uncertainty
0	298.15	101	19.45	0.24

System: N,N-dimethylethanamide + 2-adamantanone; phases: Liquid
Property: Molar enthalpy of solution, kJ/mol (Liquid); method: Flow calorimetry
Mole fraction of 2-adamantanone	Temperature, K	Pressure, kPa	Molar enthalpy of solution, kJ/mol	uncertainty
0	298.15	101	9.98	0.08

System: acetonitrile + 2-adamantanone; phases: Liquid
Property: Molar enthalpy of solution, kJ/mol (Liquid); method: Flow calorimetry
Mole fraction of 2-adamantanone	Temperature, K	Pressure, kPa	Molar enthalpy of solution, kJ/mol	uncertainty
0	298.15	101	10.4	0.1

System: dimethylformamide + 2-adamantanone; phases: Liquid
Property: Molar enthalpy of solution, kJ/mol (Liquid); method: Flow calorimetry
Mole fraction of 2-adamantanone	Temperature, K	Pressure, kPa	Molar enthalpy of solution, kJ/mol	uncertainty
0	298.15	101	9.68	0.08

System: acetone + 2-adamantanone; phases: Liquid
Property: Molar enthalpy of solution, kJ/mol (Liquid); method: Flow calorimetry
Mole fraction of 2-adamantanone	Temperature, K	Pressure, kPa	Molar enthalpy of solution, kJ/mol	uncertainty
0	298.15	101	9.25	0.17

System: dimethyl sulfoxide + 2-adamantanone; phases: Liquid
Property: Molar enthalpy of solution, kJ/mol (Liquid); method: Flow calorimetry
Mole fraction of 2-adamantanone	Temperature, K	Pressure, kPa	Molar enthalpy of solution, kJ/mol	uncertainty
0	298.15	101	12.51	0.1

System: 4-methyl-1,3-dioxolan-2-one + 2-adamantanone; phases: Liquid
Property: Molar enthalpy of solution, kJ/mol (Liquid); method: Flow calorimetry
Mole fraction of 2-adamantanone	Temperature, K	Pressure, kPa	Molar enthalpy of solution, kJ/mol	uncertainty
0	298.15	101	9.91	0.08

System: nitromethane + 2-adamantanone; phases: Liquid
Property: Molar enthalpy of solution, kJ/mol (Liquid); method: Flow calorimetry
Mole fraction of 2-adamantanone	Temperature, K	Pressure, kPa	Molar enthalpy of solution, kJ/mol	uncertainty
0	298.15	101	11.61	0.09

System: tetrachloromethane + 2-adamantanone; phases: Liquid
Property: Molar enthalpy of solution, kJ/mol (Liquid); method: Flow calorimetry
Mole fraction of 2-adamantanone	Temperature, K	Pressure, kPa	Molar enthalpy of solution, kJ/mol	uncertainty
0	298.15	101	4.45	0.04

System: ethyl acetate + 2-adamantanone; phases: Liquid
Property: Molar enthalpy of solution, kJ/mol (Liquid); method: Flow calorimetry
Mole fraction of 2-adamantanone	Temperature, K	Pressure, kPa	Molar enthalpy of solution, kJ/mol	uncertainty
0	298.15	101	8.32	0.06

System: 1,4-dioxane + 2-adamantanone; phases: Liquid
Property: Molar enthalpy of solution, kJ/mol (Liquid); method: Flow calorimetry
Mole fraction of 2-adamantanone	Temperature, K	Pressure, kPa	Molar enthalpy of solution, kJ/mol	uncertainty
0	298.15	101	9.42	0.07

System: toluene + 2-adamantanone; phases: Liquid
Property: Molar enthalpy of solution, kJ/mol (Liquid); method: Flow calorimetry
Mole fraction of 2-adamantanone	Temperature, K	Pressure, kPa	Molar enthalpy of solution, kJ/mol	uncertainty
0	298.15	101	5.82	0.05

System: cyclohexane + 2-adamantanone; phases: Liquid
Property: Molar enthalpy of solution, kJ/mol (Liquid); method: Flow calorimetry
Mole fraction of 2-adamantanone	Temperature, K	Pressure, kPa	Molar enthalpy of solution, kJ/mol	uncertainty
0	298.15	101	11.37	0.16

System: hexane + 2-adamantanone; phases: Liquid
Property: Molar enthalpy of solution, kJ/mol (Liquid); method: Flow calorimetry
Mole fraction of 2-adamantanone	Temperature, K	Pressure, kPa	Molar enthalpy of solution, kJ/mol	uncertainty
0	298.15	101	12.48	0.12

System: aniline + 2-adamantanone; phases: Liquid
Property: Molar enthalpy of solution, kJ/mol (Liquid); method: Flow calorimetry
Mole fraction of 2-adamantanone	Temperature, K	Pressure, kPa	Molar enthalpy of solution, kJ/mol	uncertainty
0	298.15	101	4.2	0.04

System: N,N-dimethylethanamide + 1-bromotricyclo[3.3.1.1(3,7)]decane; phases: Liquid
Property: Molar enthalpy of solution, kJ/mol (Liquid); method: Flow calorimetry
Mole fraction of 1-bromotricyclo[3.3.1.1(3,7)]decane	Temperature, K	Pressure, kPa	Molar enthalpy of solution, kJ/mol	uncertainty
0	298.15	101	17.52	0.14

System: acetonitrile + 1-bromotricyclo[3.3.1.1(3,7)]decane; phases: Liquid
Property: Molar enthalpy of solution, kJ/mol (Liquid); method: Flow calorimetry
Mole fraction of 1-bromotricyclo[3.3.1.1(3,7)]decane	Temperature, K	Pressure, kPa	Molar enthalpy of solution, kJ/mol	uncertainty
0	298.15	101	21.09	0.16

System: dimethylformamide + 1-bromotricyclo[3.3.1.1(3,7)]decane; phases: Liquid
Property: Molar enthalpy of solution, kJ/mol (Liquid); method: Flow calorimetry
Mole fraction of 1-bromotricyclo[3.3.1.1(3,7)]decane	Temperature, K	Pressure, kPa	Molar enthalpy of solution, kJ/mol	uncertainty
0	298.15	101	18.22	0.14

System: acetone + 1-bromotricyclo[3.3.1.1(3,7)]decane; phases: Liquid
Property: Molar enthalpy of solution, kJ/mol (Liquid); method: Flow calorimetry
Mole fraction of 1-bromotricyclo[3.3.1.1(3,7)]decane	Temperature, K	Pressure, kPa	Molar enthalpy of solution, kJ/mol	uncertainty
0	298.15	101	18.02	0.14

System: dimethyl sulfoxide + 1-bromotricyclo[3.3.1.1(3,7)]decane; phases: Liquid
Property: Molar enthalpy of solution, kJ/mol (Liquid); method: Flow calorimetry
Mole fraction of 1-bromotricyclo[3.3.1.1(3,7)]decane	Temperature, K	Pressure, kPa	Molar enthalpy of solution, kJ/mol	uncertainty
0	298.15	101	20.71	0.62

System: 4-methyl-1,3-dioxolan-2-one + 1-bromotricyclo[3.3.1.1(3,7)]decane; phases: Liquid
Property: Molar enthalpy of solution, kJ/mol (Liquid); method: Flow calorimetry
Mole fraction of 1-bromotricyclo[3.3.1.1(3,7)]decane	Temperature, K	Pressure, kPa	Molar enthalpy of solution, kJ/mol	uncertainty
0	298.15	101	19.31	0.24

System: nitromethane + 1-bromotricyclo[3.3.1.1(3,7)]decane; phases: Liquid
Property: Molar enthalpy of solution, kJ/mol (Liquid); method: Flow calorimetry
Mole fraction of 1-bromotricyclo[3.3.1.1(3,7)]decane	Temperature, K	Pressure, kPa	Molar enthalpy of solution, kJ/mol	uncertainty
0	298.15	101	24.13	0.19

System: tetrachloromethane + 1-bromotricyclo[3.3.1.1(3,7)]decane; phases: Liquid
Property: Molar enthalpy of solution, kJ/mol (Liquid); method: Flow calorimetry
Mole fraction of 1-bromotricyclo[3.3.1.1(3,7)]decane	Temperature, K	Pressure, kPa	Molar enthalpy of solution, kJ/mol	uncertainty
0	298.15	101	12.03	0.09

System: ethyl acetate + 1-bromotricyclo[3.3.1.1(3,7)]decane; phases: Liquid
Property: Molar enthalpy of solution, kJ/mol (Liquid); method: Flow calorimetry
Mole fraction of 1-bromotricyclo[3.3.1.1(3,7)]decane	Temperature, K	Pressure, kPa	Molar enthalpy of solution, kJ/mol	uncertainty
0	298.15	101	15.83	0.12

System: 1,4-dioxane + 1-bromotricyclo[3.3.1.1(3,7)]decane; phases: Liquid
Property: Molar enthalpy of solution, kJ/mol (Liquid); method: Flow calorimetry
Mole fraction of 1-bromotricyclo[3.3.1.1(3,7)]decane	Temperature, K	Pressure, kPa	Molar enthalpy of solution, kJ/mol	uncertainty
0	298.15	101	17.46	0.14

System: toluene + 1-bromotricyclo[3.3.1.1(3,7)]decane; phases: Liquid
Property: Molar enthalpy of solution, kJ/mol (Liquid); method: Flow calorimetry
Mole fraction of 1-bromotricyclo[3.3.1.1(3,7)]decane	Temperature, K	Pressure, kPa	Molar enthalpy of solution, kJ/mol	uncertainty
0	298.15	101	12.63	0.1

System: cyclohexane + 1-bromotricyclo[3.3.1.1(3,7)]decane; phases: Liquid
Property: Molar enthalpy of solution, kJ/mol (Liquid); method: Flow calorimetry
Mole fraction of 1-bromotricyclo[3.3.1.1(3,7)]decane	Temperature, K	Pressure, kPa	Molar enthalpy of solution, kJ/mol	uncertainty
0	298.15	101	13.19	0.12

System: hexane + 1-bromotricyclo[3.3.1.1(3,7)]decane; phases: Liquid
Property: Molar enthalpy of solution, kJ/mol (Liquid); method: Flow calorimetry
Mole fraction of 1-bromotricyclo[3.3.1.1(3,7)]decane	Temperature, K	Pressure, kPa	Molar enthalpy of solution, kJ/mol	uncertainty
0	298.15	101	14.74	0.11

System: aniline + 1-bromotricyclo[3.3.1.1(3,7)]decane; phases: Liquid
Property: Molar enthalpy of solution, kJ/mol (Liquid); method: Flow calorimetry
Mole fraction of 1-bromotricyclo[3.3.1.1(3,7)]decane	Temperature, K	Pressure, kPa	Molar enthalpy of solution, kJ/mol	uncertainty
0	298.15	101	18.8	0.16

System: N,N-dimethylethanamide + 1-adamantanol; phases: Liquid
Property: Molar enthalpy of solution, kJ/mol (Liquid); method: Flow calorimetry
Mole fraction of 1-adamantanol	Temperature, K	Pressure, kPa	Molar enthalpy of solution, kJ/mol	uncertainty
0	298.15	101	17.27	0.13

System: acetonitrile + 1-adamantanol; phases: Liquid
Property: Molar enthalpy of solution, kJ/mol (Liquid); method: Flow calorimetry
Mole fraction of 1-adamantanol	Temperature, K	Pressure, kPa	Molar enthalpy of solution, kJ/mol	uncertainty
0	298.15	101	27.27	0.21

System: dimethylformamide + 1-adamantanol; phases: Liquid
Property: Molar enthalpy of solution, kJ/mol (Liquid); method: Flow calorimetry
Mole fraction of 1-adamantanol	Temperature, K	Pressure, kPa	Molar enthalpy of solution, kJ/mol	uncertainty
0	298.15	101	18.29	0.14

System: acetone + 1-adamantanol; phases: Liquid
Property: Molar enthalpy of solution, kJ/mol (Liquid); method: Flow calorimetry
Mole fraction of 1-adamantanol	Temperature, K	Pressure, kPa	Molar enthalpy of solution, kJ/mol	uncertainty
0	298.15	101	22.9	0.2

System: dimethyl sulfoxide + 1-adamantanol; phases: Liquid
Property: Molar enthalpy of solution, kJ/mol (Liquid); method: Flow calorimetry
Mole fraction of 1-adamantanol	Temperature, K	Pressure, kPa	Molar enthalpy of solution, kJ/mol	uncertainty
0	298.15	101	20.74	0.16

System: 4-methyl-1,3-dioxolan-2-one + 1-adamantanol; phases: Liquid
Property: Molar enthalpy of solution, kJ/mol (Liquid); method: Flow calorimetry
Mole fraction of 1-adamantanol	Temperature, K	Pressure, kPa	Molar enthalpy of solution, kJ/mol	uncertainty
0	298.15	101	25.62	0.51
