Measured thermophysical data. Osmotic and activity coefficients in the binary solutions of 1-butyl-3-methylimidazolium chloride and bromide in methanol or ethanol at T = 298.15 K from isopiestic measurements
Source: J. Chem. Thermodyn., 2011, 10.1016/j.jct.2011.06.018
Compound 1: methanol, CH4O, InChI=1S/CH4O/c1-2/h2H,1H3, purity 99.8%
Compound 2: 1-butyl-3-methylimidazolium chloride, C8H15ClN2, InChI=1S/C8H15N2.ClH/c1-3-4-5-10-7-6-9(2)8-10;/h6-8H,3-5H2,1-2H3;1H/q+1;/p-1, purity 98%
Compound 3: 1-butyl-3-methylimidazolium bromide, C8H15BrN2, InChI=1S/C8H15N2.BrH/c1-3-4-5-10-7-6-9(2)8-10;/h6-8H,3-5H2,1-2H3;1H/q+1;/p-1, purity 98%
Compound 4: ethanol, C2H6O, InChI=1S/C2H6O/c1-2-3/h3H,2H2,1H3, purity 99.8%

System: methanol + 1-butyl-3-methylimidazolium chloride; phases: Liquid
Fixed: Temperature, K = 298.15
Fixed: Pressure, kPa = 101
Property: Osmotic coefficient (Liquid); method: ISOPIE
Molality, mol/kg of 1-butyl-3-methylimidazolium chloride	Osmotic coefficient	uncertainty
0	1	0.001
0.1236	0.862	0.007
0.1605	0.826	0.009
0.2205	0.862	0.007
0.2213	0.852	0.007
0.3101	0.885	0.006
0.3102	0.888	0.006
0.3971	0.909	0.005
0.4232	0.906	0.005
0.5456	0.939	0.003
0.5797	0.949	0.003
0.7482	1.002	0.001
0.8051	1.016	0.001
0.9941	1.072	0.004
1.0038	1.084	0.004
1.1592	1.136	0.007
1.4706	1.209	0.01
1.8432	1.32	0.016
2.1654	1.415	0.021
3.2384	1.688	0.034
3.5607	1.78	0.039
3.7817	1.884	0.044
6.0871	2.799	0.09

System: methanol + 1-butyl-3-methylimidazolium chloride; phases: Liquid, Gas
Fixed: Temperature, K = 298.15
Property: Vapor or sublimation pressure, kPa (Liquid); method: Derived from isopiestic experiments
Molality, mol/kg of 1-butyl-3-methylimidazolium chloride	Vapor or sublimation pressure, kPa	uncertainty
0	16.958	0.018
0.1236	16.841	0.019
0.1605	16.812	0.019
0.2205	16.749	0.019
0.2213	16.751	0.019
0.3101	16.658	0.019
0.3102	16.657	0.019
0.3971	16.564	0.02
0.4232	16.54	0.02
0.5456	16.402	0.02
0.5797	16.362	0.02
0.7482	16.151	0.021
0.8051	16.08	0.021
0.9941	15.823	0.022
1.0038	15.8	0.022
1.1592	15.567	0.022
1.4706	15.107	0.023
1.8432	14.479	0.023
2.1654	13.898	0.024
3.2384	11.893	0.023
3.5607	11.244	0.023
3.7817	10.684	0.022
6.0871	5.636	0.014

System: methanol + 1-butyl-3-methylimidazolium bromide; phases: Liquid
Fixed: Temperature, K = 298.15
Fixed: Pressure, kPa = 101
Property: Osmotic coefficient (Liquid); method: ISOPIE
Molality, mol/kg of 1-butyl-3-methylimidazolium bromide	Osmotic coefficient	uncertainty
0	1	0.001
0.1276	0.835	0.008
0.155	0.856	0.007
0.2206	0.854	0.007
0.2213	0.859	0.007
0.307	0.894	0.005
0.3165	0.87	0.007
0.3984	0.906	0.005
0.4239	0.904	0.005
0.5474	0.936	0.003
0.5818	0.946	0.003
0.7503	0.999	0.001
0.8123	1.006	0.001
1.0123	1.052	0.003
1.0143	1.073	0.004
1.1982	1.099	0.005
1.5044	1.182	0.009
1.8834	1.292	0.015
2.21	1.386	0.019
3.232	1.692	0.035
3.5671	1.776	0.039
3.809	1.871	0.044
5.8809	2.897	0.095

System: methanol + 1-butyl-3-methylimidazolium bromide; phases: Liquid, Gas
Fixed: Temperature, K = 298.15
Property: Vapor or sublimation pressure, kPa (Liquid); method: Derived from isopiestic experiments
Molality, mol/kg of 1-butyl-3-methylimidazolium bromide	Vapor or sublimation pressure, kPa	uncertainty
0	16.958	8.563
0.1276	16.841	8.504
0.155	16.812	8.49
0.2206	16.751	8.459
0.2213	16.749	8.458
0.307	16.658	8.412
0.3165	16.657	8.411
0.3984	16.564	8.364
0.4239	16.54	8.352
0.5474	16.402	8.283
0.5818	16.362	8.262
0.7503	16.151	8.156
0.8123	16.08	8.12
1.0123	15.823	7.99
1.0143	15.8	7.979
1.1982	15.567	7.861
1.5044	15.108	7.629
1.8834	14.479	7.312
2.21	13.898	7.018
3.232	11.894	6.006
3.5671	11.244	5.678
3.809	10.684	5.395
5.8809	5.636	2.846

System: ethanol + 1-butyl-3-methylimidazolium chloride; phases: Liquid
Fixed: Temperature, K = 298.15
Fixed: Pressure, kPa = 101
Property: Osmotic coefficient (Liquid); method: ISOPIE
Molality, mol/kg of 1-butyl-3-methylimidazolium chloride	Osmotic coefficient	uncertainty
0	1	0.001
0.1027	0.84	0.008
0.1654	0.952	0.002
0.2455	1.114	0.006
0.2755	1.189	0.009
0.2969	1.222	0.011
0.4758	1.615	0.031
0.5062	1.702	0.035
0.6569	2.054	0.053
0.7211	2.204	0.06
0.7355	2.22	0.061
0.8234	2.407	0.07
0.8797	2.568	0.078
0.9102	2.654	0.083
0.9292	2.669	0.083
0.9908	2.821	0.091
1.1952	3.296	0.115
1.2084	3.295	0.115
1.256	3.391	0.12
1.2744	3.437	0.122
1.3817	3.703	0.135
1.6106	4.168	0.158
1.818	4.574	0.179
1.8573	4.634	0.182
1.9182	4.759	0.188
2.4305	5.65	0.233
2.8686	6.362	0.268

System: ethanol + 1-butyl-3-methylimidazolium chloride; phases: Liquid, Gas
Fixed: Temperature, K = 298.15
Property: Vapor or sublimation pressure, kPa (Liquid); method: Derived from isopiestic experiments
Molality, mol/kg of 1-butyl-3-methylimidazolium chloride	Vapor or sublimation pressure, kPa	uncertainty
0	7.87	3.974
0.1027	7.808	3.943
0.1654	7.757	3.917
0.2455	7.674	3.875
0.2755	7.636	3.856
0.2969	7.612	3.844
0.4758	7.332	3.702
0.5062	7.27	3.671
0.6569	6.95	3.51
0.7211	6.798	3.433
0.7355	6.771	3.419
0.8234	6.556	3.311
0.8797	6.391	3.227
0.9102	6.299	3.181
0.9292	6.262	3.162
0.9908	6.083	3.072
1.1952	5.474	2.764
1.2084	5.453	2.754
1.256	5.315	2.684
1.2744	5.256	2.654
1.3817	4.911	2.48
1.6106	4.239	2.141
1.818	3.658	1.847
1.8573	3.561	1.798
1.9182	3.393	1.713
2.4305	2.22	1.121
2.8686	1.464	0.739

System: ethanol + 1-butyl-3-methylimidazolium bromide; phases: Liquid
Fixed: Temperature, K = 298.15
Fixed: Pressure, kPa = 101
Property: Osmotic coefficient (Liquid); method: ISOPIE
Molality, mol/kg of 1-butyl-3-methylimidazolium bromide	Osmotic coefficient	uncertainty
0	1	0.001
0.0897	0.962	0.002
0.1504	1.047	0.002
0.2307	1.185	0.009
0.2635	1.244	0.012
0.2809	1.291	0.015
0.4629	1.66	0.033
0.4998	1.724	0.036
0.6542	2.062	0.053
0.7195	2.209	0.06
0.7369	2.216	0.061
0.8248	2.403	0.07
0.8941	2.527	0.076
0.9211	2.623	0.081
0.9321	2.661	0.083
1.01	2.767	0.088
1.2306	3.202	0.11
1.2347	3.224	0.111
1.2903	3.301	0.115
1.3106	3.342	0.117
1.4212	3.6	0.13
1.6593	4.046	0.152
1.8923	4.394	0.17
1.9211	4.48	0.174
1.9963	4.573	0.179
2.5654	5.353	0.218
3.1296	5.832	0.242

System: ethanol + 1-butyl-3-methylimidazolium bromide; phases: Liquid, Gas
Fixed: Temperature, K = 298.15
Property: Vapor or sublimation pressure, kPa (Liquid); method: Derived from isopiestic experiments
Molality, mol/kg of 1-butyl-3-methylimidazolium bromide	Vapor or sublimation pressure, kPa	uncertainty
0	7.87	3.974
0.0897	7.808	3.943
0.1504	7.757	3.917
0.2307	7.674	3.875
0.2635	7.636	3.856
0.2809	7.612	3.844
0.4629	7.332	3.702
0.4998	7.27	3.671
0.6542	6.95	3.51
0.7195	6.798	3.433
0.7369	6.771	3.419
0.8248	6.556	3.311
0.8941	6.391	3.227
0.9211	6.299	3.181
0.9321	6.262	3.162
1.01	6.083	3.072
1.2306	5.474	2.764
1.2347	5.453	2.754
1.2903	5.315	2.684
1.3106	5.256	2.654
1.4212	4.911	2.48
1.6593	4.239	2.141
1.8923	3.658	1.847
1.9211	3.561	1.798
1.9963	3.393	1.713
2.5654	2.22	1.121
3.1296	1.464	0.739
