Measured thermophysical data. Liquid-liquid equilibrium and heat capacity for the critical binary solution of {n-decane + benzonitrile}
Source: J. Chem. Thermodyn., 2019, 10.1016/j.jct.2019.03.035
Compound 1: benzonitrile, C7H5N, InChI=1S/C7H5N/c8-6-7-4-2-1-3-5-7/h1-5H, purity 99%
Compound 2: decane, C10H22, InChI=1S/C10H22/c1-3-5-7-9-10-8-6-4-2/h3-10H2,1-2H3, purity 99%

System: benzonitrile; phases: Liquid
Fixed: Pressure, kPa = 100
Fixed: Wavelength, nm = 632.8
Property: Refractive index (other wavelength) (Liquid); method: minimum deviation angle technique
Temperature, K	Refractive index (other wavelength)	uncertainty
285.47	1.5293	0.0003
286.4	1.5288	0.0003
287.49	1.5283	0.0003
288.44	1.5278	0.0003
289.45	1.5274	0.0003
290.7	1.5268	0.0003
291.77	1.5262	0.0003
292.66	1.5258	0.0003
293.89	1.5252	0.0003
288.62	1.5277	0.0003

System: decane; phases: Liquid
Fixed: Pressure, kPa = 100
Fixed: Wavelength, nm = 632.8
Property: Refractive index (other wavelength) (Liquid); method: minimum deviation angle technique
Temperature, K	Refractive index (other wavelength)	uncertainty
285.51	1.4142	0.0003
286.56	1.4137	0.0003
287.57	1.4133	0.0003
288.6	1.4128	0.0003
289.75	1.4123	0.0003
290.67	1.4119	0.0003
291.68	1.4114	0.0003
292.74	1.411	0.0003
293.98	1.4104	0.0003
288.62	1.4128	0.0003

System: benzonitrile + decane; phases: Liquid mixture 1, Liquid mixture 2, Air at 1 atmosphere
Property: Upper consolute temperature, K (Liquid mixture 1); method: equal volume method
Upper consolute temperature, K	uncertainty
286.93	0.1

System: benzonitrile + decane; phases: Liquid mixture 1, Liquid mixture 2, Air at 1 atmosphere
Property: Upper consolute composition: mole fraction of benzonitrile (Liquid mixture 1); method: equal volume method
Upper consolute composition: mole fraction of benzonitrile	uncertainty
0.53	0.002

System: benzonitrile + decane; phases: Liquid mixture 1, Liquid mixture 2
Fixed: Pressure, kPa = 100
Fixed: Wavelength, nm = 632.8
Property: Refractive index (other wavelength) (Liquid mixture 1); method: minimum deviation angle technique
Temperature, K	Refractive index (other wavelength)	uncertainty
286.927	1.4545	0.0023
286.925	1.454	0.0021
286.922	1.4537	0.0019
286.916	1.4531	0.0017
286.913	1.4527	0.0014
286.905	1.4524	0.0012
286.894	1.4519	0.0011
286.89	1.4518	0.0011
286.87	1.4512	0.0012
286.83	1.4502	0.0008
286.805	1.4499	0.0007
286.768	1.4492	0.0006
286.719	1.4486	0.0006
286.675	1.4481	0.0006
286.617	1.4473	0.0005
286.553	1.4469	0.0004
286.493	1.4464	0.0004
286.426	1.4459	0.0004
286.351	1.4454	0.0004
286.207	1.4447	0.0003
286.087	1.4442	0.0003
285.976	1.4437	0.0003
285.881	1.4432	0.0003
285.719	1.4427	0.0003
285.523	1.4421	0.0003
285.247	1.4413	0.0003
284.89	1.4405	0.0003
284.382	1.4394	0.0003
283.692	1.4384	0.0003
282.836	1.4373	0.0003
281.777	1.4363	0.0003
280.765	1.4354	0.0003
279.616	1.4347	0.0003

System: benzonitrile + decane; phases: Liquid mixture 2, Liquid mixture 1
Fixed: Pressure, kPa = 100
Fixed: Wavelength, nm = 632.8
Property: Refractive index (other wavelength) (Liquid mixture 2); method: minimum deviation angle technique
Temperature, K	Refractive index (other wavelength)	uncertainty
286.927	1.4586	0.0024
286.925	1.459	0.0022
286.922	1.4594	0.002
286.916	1.4599	0.0018
286.913	1.4603	0.0016
286.905	1.4607	0.0013
286.894	1.4612	0.0012
286.89	1.4613	0.0012
286.87	1.462	0.0013
286.83	1.463	0.0008
286.805	1.4633	0.0008
286.768	1.464	0.0007
286.719	1.4647	0.0006
286.675	1.4653	0.0006
286.617	1.4661	0.0005
286.553	1.4666	0.0005
286.493	1.4672	0.0005
286.426	1.4678	0.0004
286.351	1.4684	0.0004
286.207	1.4694	0.0004
286.087	1.4701	0.0004
285.976	1.4707	0.0004
285.881	1.4713	0.0004
285.719	1.4721	0.0003
285.523	1.473	0.0003
285.247	1.4742	0.0003
284.89	1.4755	0.0003
284.382	1.4773	0.0003
283.692	1.4793	0.0003
282.836	1.4816	0.0003
281.777	1.4839	0.0003
280.765	1.4862	0.0003
279.616	1.4884	0.0003

System: benzonitrile + decane; phases: Liquid mixture 1, Liquid mixture 2
Fixed: Pressure, kPa = 100
Property: Mole fraction of benzonitrile (Liquid mixture 1); method: Index of refraction calibration data
Temperature, K	Mole fraction of benzonitrile	uncertainty
286.927	0.511	0.025
286.925	0.507	0.023
286.922	0.504	0.022
286.916	0.498	0.019
286.913	0.495	0.018
286.905	0.492	0.016
286.894	0.487	0.016
286.89	0.486	0.016
286.87	0.48	0.016
286.83	0.47	0.013
286.805	0.467	0.013
286.768	0.46	0.012
286.719	0.454	0.012
286.675	0.449	0.012
286.617	0.44	0.011
286.553	0.436	0.011
286.493	0.43	0.011
286.426	0.425	0.01
286.351	0.419	0.01
286.207	0.411	0.01
286.087	0.405	0.01
285.976	0.4	0.01
285.881	0.394	0.009
285.719	0.388	0.009
285.523	0.38	0.009
285.247	0.37	0.009
284.89	0.359	0.008
284.382	0.344	0.008
283.692	0.329	0.008
282.836	0.312	0.007
281.777	0.294	0.007
280.765	0.277	0.006
279.616	0.262	0.006

System: benzonitrile + decane; phases: Liquid mixture 2, Liquid mixture 1
Fixed: Pressure, kPa = 100
Property: Mole fraction of benzonitrile (Liquid mixture 2); method: Index of refraction calibration data
Temperature, K	Mole fraction of benzonitrile	uncertainty
286.927	0.549	0.023
286.925	0.552	0.022
286.922	0.556	0.02
286.916	0.56	0.019
286.913	0.563	0.017
286.905	0.567	0.014
286.894	0.571	0.014
286.89	0.572	0.014
286.87	0.578	0.015
286.83	0.586	0.011
286.805	0.588	0.011
286.768	0.594	0.011
286.719	0.6	0.01
286.675	0.605	0.01
286.617	0.611	0.01
286.553	0.615	0.009
286.493	0.619	0.009
286.426	0.624	0.009
286.351	0.628	0.009
286.207	0.636	0.009
286.087	0.641	0.009
285.976	0.645	0.008
285.881	0.649	0.008
285.719	0.655	0.008
285.523	0.661	0.008
285.247	0.669	0.008
284.89	0.678	0.008
284.382	0.689	0.007
283.692	0.701	0.007
282.836	0.715	0.007
281.777	0.727	0.006
280.765	0.74	0.006
279.616	0.751	0.006

System: benzonitrile + decane; phases: Liquid
Fixed: Pressure, kPa = 100
Fixed: Temperature, K = 288.62
Fixed: Wavelength, nm = 632.8
Property: Refractive index (other wavelength) (Liquid); method: minimum deviation angle technique
Mole fraction of benzonitrile	Refractive index (other wavelength)	uncertainty
0	1.4128	0.0003
0.112	1.4196	0.0003
0.188	1.4249	0.0003
0.34	1.4371	0.0003
0.396	1.4422	0.0003
0.49	1.4514	0.0004
0.608	1.4647	0.0004
0.702	1.4771	0.0004
0.821	1.4952	0.0004
0.912	1.5105	0.0005
1	1.5277	0.0003

System: benzonitrile + decane; phases: Liquid
Fixed: Pressure, kPa = 100
Fixed: Mole fraction of benzonitrile = 0.53
Property: Molar heat capacity at constant pressure, J/K/mol (Liquid); method: DSC
Temperature, K	Molar heat capacity at constant pressure, J/K/mol	uncertainty
325.717	250.1	9.7
325.442	250.1	9.7
325.157	250.2	9.7
324.872	250.1	9.7
324.589	249.9	9.7
324.304	249.7	9.7
324.02	249.6	9.7
323.736	249.5	9.7
323.452	249.5	9.7
323.168	249.3	9.7
322.884	249.3	9.7
322.601	249.1	9.6
322.317	249	9.6
322.032	249	9.6
321.749	248.9	9.6
321.465	248.7	9.6
321.182	248.6	9.6
320.897	248.5	9.6
320.613	248.5	9.6
320.329	248.4	9.6
320.046	248.3	9.6
319.762	248.2	9.6
319.478	248.2	9.6
319.194	248.1	9.6
318.91	248	9.6
318.626	247.8	9.6
318.343	247.7	9.6
318.058	247.7	9.6
317.774	247.6	9.6
317.491	247.5	9.6
317.207	247.5	9.6
316.923	247.4	9.6
316.639	247.3	9.6
316.356	247.1	9.6
316.072	247	9.6
315.788	246.9	9.6
315.504	246.9	9.6
315.221	246.8	9.6
314.936	246.7	9.6
314.652	246.5	9.5
314.369	246.6	9.6
314.084	246.5	9.5
313.801	246.5	9.5
313.517	246.2	9.5
313.233	246.3	9.5
312.949	246.1	9.5
312.666	246	9.5
312.382	246	9.5
312.097	245.9	9.5
311.814	245.8	9.5
311.53	245.7	9.5
311.246	245.7	9.5
310.962	245.5	9.5
310.679	245.5	9.5
310.395	245.5	9.5
310.111	245.4	9.5
309.827	245.2	9.5
309.543	245.1	9.5
309.259	245	9.5
308.975	245.1	9.5
308.691	244.9	9.5
308.408	244.8	9.5
308.124	244.9	9.5
307.84	244.7	9.5
307.556	244.6	9.5
307.272	244.6	9.5
306.989	244.5	9.5
306.704	244.4	9.5
306.421	244.3	9.5
306.137	244.3	9.5
305.853	244.2	9.5
305.569	244	9.5
305.286	244.1	9.5
305.002	244.1	9.5
304.718	243.9	9.4
304.434	243.9	9.4
304.15	243.8	9.4
303.866	243.7	9.4
303.582	243.7	9.4
303.299	243.6	9.4
303.015	243.5	9.4
302.731	243.5	9.4
302.447	243.4	9.4
302.163	243.3	9.4
301.879	243.2	9.4
301.595	243.2	9.4
301.312	243.1	9.4
301.028	243	9.4
300.744	243	9.4
300.46	243.1	9.4
300.177	243	9.4
299.892	242.9	9.4
299.609	242.9	9.4
299.324	242.8	9.4
299.041	242.7	9.4
298.757	242.6	9.4
298.473	242.7	9.4
298.189	242.5	9.4
297.906	242.4	9.4
297.622	242.5	9.4
297.338	242.5	9.4
297.054	242.4	9.4
296.616	241.1	9.3
296.472	241.8	9.4
296.324	242.2	9.4
296.176	242.8	9.4
296.028	242.1	9.4
295.879	242.8	9.4
295.731	242.1	9.4
295.582	242	9.4
295.434	241.7	9.4
295.285	242.1	9.4
295.137	242.2	9.4
294.988	241.7	9.4
294.84	242.3	9.4
294.692	242.1	9.4
294.543	242.1	9.4
294.395	241.8	9.4
294.246	241.9	9.4
294.098	241.7	9.4
293.95	242.1	9.4
293.801	242.2	9.4
293.653	242.3	9.4
293.504	241.7	9.4
293.356	242.4	9.4
293.208	242.1	9.4
293.059	242	9.4
292.911	242.6	9.4
292.762	241.7	9.4
292.614	242.1	9.4
292.465	242.5	9.4
292.317	241.7	9.4
292.168	242.1	9.4
292.02	242.4	9.4
291.872	242.8	9.4
291.724	242.7	9.4
291.575	242.5	9.4
291.426	242.8	9.4
291.278	243.4	9.4
291.13	243	9.4
290.975	241.8	9.4
290.827	243	9.4
290.647	243.1	9.4
290.499	243.2	9.4
290.351	243.1	9.4
290.202	243.2	9.4
290.054	243.5	9.4
289.905	243.5	9.4
289.757	243.4	9.4
289.608	244.1	9.5
289.46	243.9	9.4
289.311	244.2	9.5
289.163	243.6	9.4
289.015	244.3	9.5
288.866	244.5	9.5
288.718	244.8	9.5
288.569	244.9	9.5
288.421	245.6	9.5
288.273	246	9.5
288.124	245.8	9.5
287.976	247.4	9.6
287.828	246.7	9.6
287.679	248.6	9.6
287.531	250.3	9.7
287.382	254	12.5
287.234	307.6	12.6
287.086	285.2	11.4
286.937	285.9	11.1
286.788	282.2	10.9
286.64	283.9	11
286.492	278.6	10.9
286.343	273.4	10.6
286.195	273.2	10.6
286.046	270.5	10.5
285.898	271.1	10.5
285.75	271.8	10.5
285.601	269.8	10.5
285.453	268.9	10.4
285.304	270.2	10.5
285.156	269.9	10.5
285.008	265.8	10.3
284.86	268.5	10.4
284.711	266.6	10.3
284.563	268	10.4
284.414	266.6	10.3
284.265	265.9	10.3
284.117	266.6	10.3
283.969	267.5	10.4
283.82	266.5	10.3
283.672	268.2	10.4
283.523	266.3	10.3
283.375	266.7	10.3
283.227	265.2	10.3
283.078	266.3	10.3
282.93	263.9	10.2
282.782	263.3	10.2
282.633	264	10.2
282.484	263.4	10.2
282.336	264.4	10.2
282.187	264	10.2
282.039	262.8	10.2
281.891	260.4	10.1
281.743	261.8	10.1
