Measured thermophysical data. Thermodynamic properties of the N-butylisoquinolinium bis(trifluoromethylsulfonyl)imide
Source: J. Chem. Thermodyn., 2011, 10.1016/j.jct.2011.02.006
Compound 1: 2-butylisoquinolinium bis[(trifluoromethyl)sulfonyl]amide, C15H16F6N2O4S2, InChI=1S/C13H16N.C2F6NO4S2/c1-2-3-9-14-10-8-12-6-4-5-7-13(12)11-14;3-1(4,5)14(10,11)9-15(12,13)2(6,7)8/h4-8,10-11H,2-3,9H2,1H3;/q+1;-1
Compound 2: benzene, C6H6, InChI=1S/C6H6/c1-2-4-6-5-3-1/h1-6H, purity 98%
Compound 3: toluene, C7H8, InChI=1S/C7H8/c1-7-5-3-2-4-6-7/h2-6H,1H3, purity 98%
Compound 4: ethylbenzene, C8H10, InChI=1S/C8H10/c1-2-8-6-4-3-5-7-8/h3-7H,2H2,1H3, purity 98%
Compound 5: propylbenzene, C9H12, InChI=1S/C9H12/c1-2-6-9-7-4-3-5-8-9/h3-5,7-8H,2,6H2,1H3, purity 98%
Compound 6: butan-1-ol, C4H10O, InChI=1S/C4H10O/c1-2-3-4-5/h5H,2-4H2,1H3, purity 98%
Compound 7: hexan-1-ol, C6H14O, InChI=1S/C6H14O/c1-2-3-4-5-6-7/h7H,2-6H2,1H3, purity 98%
Compound 8: octan-1-ol, C8H18O, InChI=1S/C8H18O/c1-2-3-4-5-6-7-8-9/h9H,2-8H2,1H3, purity 98%
Compound 9: decan-1-ol, C10H22O, InChI=1S/C10H22O/c1-2-3-4-5-6-7-8-9-10-11/h11H,2-10H2,1H3, purity 98%

System: 2-butylisoquinolinium bis[(trifluoromethyl)sulfonyl]amide; phases: Crystal, Liquid, Air at 1 atmosphere
Property: Normal melting temperature, K (Crystal); method: DTA
Normal melting temperature, K	uncertainty
321	0.39

System: 2-butylisoquinolinium bis[(trifluoromethyl)sulfonyl]amide; phases: Crystal, Liquid, Air at 1 atmosphere
Property: Molar enthalpy of transition or fusion, kJ/mol (Crystal); method: DSC
Molar enthalpy of transition or fusion, kJ/mol	uncertainty
46.13	0.99

System: 2-butylisoquinolinium bis[(trifluoromethyl)sulfonyl]amide; phases: Glass, Liquid, Air at 1 atmosphere
Property: Triple point temperature, K (Glass); method: DTA
Triple point temperature, K	uncertainty
217.9	1.1

System: 2-butylisoquinolinium bis[(trifluoromethyl)sulfonyl]amide; phases: Liquid
Fixed: Pressure, kPa = 101.325
Property: Viscosity, Pa*s (Liquid); method: Falling or rolling sphere viscometry
Temperature, K	Viscosity, Pa*s	uncertainty
323.2	0.071069	0.003283
328.2	0.056229	0.002536
333.2	0.04514	0.002052
338.2	0.038458	0.001746
343.2	0.032079	0.001457
348.2	0.027096	0.00123
353.2	0.023015	0.001045
358.2	0.01987	0.000902
363.2	0.016143	0.000735

System: 2-butylisoquinolinium bis[(trifluoromethyl)sulfonyl]amide; phases: Liquid
Fixed: Pressure, kPa = 101.325
Property: Mass density, kg/m3 (Liquid); method: Vibrating tube method
Temperature, K	Mass density, kg/m3	uncertainty
323.2	1413.21	6.91
328.2	1408.78	6.87
333.2	1404.32	6.82
338.2	1399.88	6.78
343.2	1395.47	6.74
348.2	1391.06	6.69
353.2	1386.66	6.65
358.2	1382.26	6.61
363.2	1377.88	6.57

System: benzene + 2-butylisoquinolinium bis[(trifluoromethyl)sulfonyl]amide; phases: Liquid, Crystal
Fixed: Pressure, kPa = 101
Property: Solid-liquid equilibrium temperature, K (Liquid); method: VISOBS
Mole fraction of 2-butylisoquinolinium bis[(trifluoromethyl)sulfonyl]amide	Solid-liquid equilibrium temperature, K	uncertainty
1	321	1
0.935	319.3	1
0.8883	318.2	1
0.7991	314.8	1
0.7324	311.9	1
0.6861	309.9	1
0.644	307.6	1
0.5807	303.6	1
0.5304	300.1	1
0.4743	295	1
0.4317	290.8	1
0.3902	285.9	1
0.3431	280	1
0.3023	273.8	1
0.2654	267.7	1

System: benzene + 2-butylisoquinolinium bis[(trifluoromethyl)sulfonyl]amide; phases: Liquid, Crystal
Fixed: Pressure, kPa = 101
Property: Solid-liquid equilibrium temperature, K (Liquid); method: VISOBS
Mole fraction of 2-butylisoquinolinium bis[(trifluoromethyl)sulfonyl]amide	Solid-liquid equilibrium temperature, K	uncertainty
0.2509	268.8	1
0.2399	270.7	1
0.2268	272.3	1
0.2169	273.1	1
0.208	273.9	1
0.2003	274.4	1
0.1913	275.1	1
0.1839	276.4	1
0.1756	276.8	1
0.1678	277.4	1
0.159	277.9	1
0.1518	278.2	1
0.1454	278.5	1
0.1381	278.6	1
0.1315	278.6	1

System: toluene + 2-butylisoquinolinium bis[(trifluoromethyl)sulfonyl]amide; phases: Crystal, Liquid mixture 1, Liquid mixture 2, Air at 1 atmosphere
Property: Quadruple (quintuple) point temperature, K (Crystal); method: visual
Quadruple (quintuple) point temperature, K	uncertainty
259.7	1.1

System: toluene + 2-butylisoquinolinium bis[(trifluoromethyl)sulfonyl]amide; phases: Liquid, Crystal
Fixed: Pressure, kPa = 101
Property: Solid-liquid equilibrium temperature, K (Liquid); method: VISOBS
Mole fraction of 2-butylisoquinolinium bis[(trifluoromethyl)sulfonyl]amide	Solid-liquid equilibrium temperature, K	uncertainty
1	321	1
0.964	320.3	1
0.931	319.5	1
0.8955	318.3	1
0.8635	316.9	1
0.8187	315.1	1
0.7688	313.2	1
0.7331	311.4	1
0.7048	310.1	1
0.6792	308.6	1
0.6304	305.8	1
0.5881	303	1
0.54	300.1	1
0.5019	297.2	1
0.4749	295.4	1
0.4544	293.1	1
0.4176	289.4	1
0.3805	285.4	1
0.3529	282.2	1
0.3198	278.2	1
0.2937	275.1	1
0.2677	271.4	1
0.2402	267.5	1
0.2149	263.7	1
0.2067	263.2	1
0.1985	262.1	1

System: ethylbenzene + 2-butylisoquinolinium bis[(trifluoromethyl)sulfonyl]amide; phases: Crystal, Liquid mixture 1, Liquid mixture 2, Air at 1 atmosphere
Property: Quadruple (quintuple) point temperature, K (Crystal); method: visual
Quadruple (quintuple) point temperature, K	uncertainty
263.1	1.1

System: ethylbenzene + 2-butylisoquinolinium bis[(trifluoromethyl)sulfonyl]amide; phases: Liquid, Crystal
Fixed: Pressure, kPa = 101
Property: Solid-liquid equilibrium temperature, K (Liquid); method: VISOBS
Mole fraction of 2-butylisoquinolinium bis[(trifluoromethyl)sulfonyl]amide	Solid-liquid equilibrium temperature, K	uncertainty
1	321	1
0.9634	320.3	1
0.9217	319.5	1
0.8915	318.3	1
0.8597	317.5	1
0.8019	314.4	1
0.7964	314.4	1
0.7483	312.3	1
0.6963	309.3	1
0.6448	306.1	1
0.6064	303.3	1
0.5688	301	1
0.5316	298.3	1
0.5048	295.7	1
0.4652	292.7	1
0.4188	288.3	1
0.3717	283.4	1
0.3398	279.1	1
0.3173	276.3	1
0.3048	273.7	1
0.2933	271.1	1
0.2839	268.9	1
0.2731	266.9	1
0.2602	264.6	1

System: propylbenzene + 2-butylisoquinolinium bis[(trifluoromethyl)sulfonyl]amide; phases: Crystal, Liquid mixture 1, Liquid mixture 2, Air at 1 atmosphere
Property: Quadruple (quintuple) point temperature, K (Crystal); method: visual
Quadruple (quintuple) point temperature, K	uncertainty
295.3	1.1

System: propylbenzene + 2-butylisoquinolinium bis[(trifluoromethyl)sulfonyl]amide; phases: Liquid, Crystal
Fixed: Pressure, kPa = 101
Property: Solid-liquid equilibrium temperature, K (Liquid); method: VISOBS
Mole fraction of 2-butylisoquinolinium bis[(trifluoromethyl)sulfonyl]amide	Solid-liquid equilibrium temperature, K	uncertainty
1	321	1
0.9772	320.6	1
0.9447	320.2	1
0.9048	319.3	1
0.8687	318.5	1
0.8247	316.8	1
0.7776	314.9	1
0.7236	312.8	1
0.6828	311.4	1
0.6306	308.9	1
0.5965	307.6	1
0.5839	306.8	1
0.547	305.1	1
0.5052	303	1
0.4721	301.6	1
0.4622	301.1	1
0.4159	298.8	1
0.3909	298.1	1
0.3658	296.4	1
0.3593	296	1

System: butan-1-ol + 2-butylisoquinolinium bis[(trifluoromethyl)sulfonyl]amide; phases: Liquid, Crystal
Fixed: Pressure, kPa = 101
Property: Solid-liquid equilibrium temperature, K (Liquid); method: VISOBS
Mole fraction of 2-butylisoquinolinium bis[(trifluoromethyl)sulfonyl]amide	Solid-liquid equilibrium temperature, K	uncertainty
1	321	1
0.8923	319.8	1
0.8296	317.8	1
0.7291	314.4	1
0.6419	312	1
0.5683	309.6	1
0.5076	308	1
0.4503	306.6	1
0.3824	305	1
0.3242	304.3	1
0.2465	303.4	1
0.1777	303.4	1
0.1294	303.3	1
0.074	303.3	1
0.0381	302.9	1
0.0196	301.7	1
0.0132	301	1

System: hexan-1-ol + 2-butylisoquinolinium bis[(trifluoromethyl)sulfonyl]amide; phases: Crystal, Liquid mixture 1, Liquid mixture 2, Air at 1 atmosphere
Property: Quadruple (quintuple) point temperature, K (Crystal); method: visual
Quadruple (quintuple) point temperature, K	uncertainty
310.9	1.1

System: hexan-1-ol + 2-butylisoquinolinium bis[(trifluoromethyl)sulfonyl]amide; phases: Liquid, Crystal
Fixed: Pressure, kPa = 101
Property: Solid-liquid equilibrium temperature, K (Liquid); method: VISOBS
Mole fraction of 2-butylisoquinolinium bis[(trifluoromethyl)sulfonyl]amide	Solid-liquid equilibrium temperature, K	uncertainty
1	321	1
0.9539	320.3	1
0.8986	319.8	1
0.8421	318.2	1
0.7781	316.6	1
0.7191	315	1
0.6653	313.5	1
0.618	312.6	1
0.5722	311.6	1
0.5279	311.2	1

System: hexan-1-ol + 2-butylisoquinolinium bis[(trifluoromethyl)sulfonyl]amide; phases: Liquid mixture 1, Liquid mixture 2
Fixed: Pressure, kPa = 101
Property: Liquid-liquid equilibrium temperature, K (Liquid mixture 1); method: VISOBS
Mole fraction of 2-butylisoquinolinium bis[(trifluoromethyl)sulfonyl]amide	Liquid-liquid equilibrium temperature, K	uncertainty
0.4569	313.7	1
0.4244	317	1
0.3842	320.8	1
0.3437	323.7	1
0.3008	326.4	1
0.2929	326.9	1
0.267	328	1
0.2402	329.3	1
0.1999	330	1
0.1602	330.5	1
0.1172	330.7	1
0.1091	330.6	1
0.0753	330	1
0.056	328.6	1
0.0503	328.1	1
0.0402	326.1	1
0.0217	320.3	1.1
0.0146	314.7	1.3
0.3008	326.4	1

System: octan-1-ol + 2-butylisoquinolinium bis[(trifluoromethyl)sulfonyl]amide; phases: Crystal, Liquid mixture 1, Liquid mixture 2, Air at 1 atmosphere
Property: Quadruple (quintuple) point temperature, K (Crystal); method: visual
Quadruple (quintuple) point temperature, K	uncertainty
314.9	1.1

System: octan-1-ol + 2-butylisoquinolinium bis[(trifluoromethyl)sulfonyl]amide; phases: Liquid, Crystal
Fixed: Pressure, kPa = 101
Property: Solid-liquid equilibrium temperature, K (Liquid); method: VISOBS
Mole fraction of 2-butylisoquinolinium bis[(trifluoromethyl)sulfonyl]amide	Solid-liquid equilibrium temperature, K	uncertainty
1	321	1
0.956	320.4	1
0.9056	319.7	1
0.843	318	1
0.7797	316.4	1
0.7331	315.4	1

System: octan-1-ol + 2-butylisoquinolinium bis[(trifluoromethyl)sulfonyl]amide; phases: Liquid mixture 1, Liquid mixture 2
Fixed: Pressure, kPa = 101
Property: Liquid-liquid equilibrium temperature, K (Liquid mixture 1); method: VISOBS
Mole fraction of 2-butylisoquinolinium bis[(trifluoromethyl)sulfonyl]amide	Liquid-liquid equilibrium temperature, K	uncertainty
0.66	317.7	1
0.6306	322	1
0.5988	326.3	1
0.5596	331.3	1
0.5169	335.9	1
0.4836	339.3	1
0.4522	342.1	1
0.4221	344.6	1
0.3963	346.8	1
0.3695	348.6	1
0.3424	350.3	1
0.3157	351.7	1
0.2876	353	1
0.2641	353.8	1
0.2409	354.5	1
0.2208	355	1
0.2042	355.3	1
0.1815	355.6	1
0.1456	355.7	1
0.1088	355.8	1
0.088	355.3	1
0.0748	354.8	1
0.0644	354.2	1
0.0573	353.4	1
0.05	352.3	1
0.0426	351.2	1
0.0377	350.2	1
0.0333	349	1.1
0.02	343.1	1.1

System: decan-1-ol + 2-butylisoquinolinium bis[(trifluoromethyl)sulfonyl]amide; phases: Crystal, Liquid mixture 1, Liquid mixture 2, Air at 1 atmosphere
Property: Quadruple (quintuple) point temperature, K (Crystal); method: visual
Quadruple (quintuple) point temperature, K	uncertainty
318	1.1

System: decan-1-ol + 2-butylisoquinolinium bis[(trifluoromethyl)sulfonyl]amide; phases: Liquid, Crystal
Fixed: Pressure, kPa = 101
Property: Solid-liquid equilibrium temperature, K (Liquid); method: VISOBS
Mole fraction of 2-butylisoquinolinium bis[(trifluoromethyl)sulfonyl]amide	Solid-liquid equilibrium temperature, K	uncertainty
1	321	1
0.9211	320.4	1
0.8624	318.9	1

System: decan-1-ol + 2-butylisoquinolinium bis[(trifluoromethyl)sulfonyl]amide; phases: Liquid mixture 1, Liquid mixture 2
Fixed: Pressure, kPa = 101
Property: Liquid-liquid equilibrium temperature, K (Liquid mixture 1); method: VISOBS
Mole fraction of 2-butylisoquinolinium bis[(trifluoromethyl)sulfonyl]amide	Liquid-liquid equilibrium temperature, K	uncertainty
0.7925	324.5	1
0.7699	329.9	1
0.7456	335.4	1
0.6993	342.5	1
0.6555	348.4	1
0.6009	354.8	1
0.5644	359.4	1
0.5299	362	1
0.463	368.3	1
0.4155	371.6	1
0.3481	375.6	1
0.3009	377.9	1
0.2631	380.1	1
0.2037	381.4	1
0.1324	381.5	1
0.0938	381	1
0.0839	380.7	1
0.0651	380.5	1
0.0468	379.4	1
0.0277	373.8	1.3
0.0245	371.1	1.3
