Measured thermophysical data. Cation effect of ammonium imide based ionic liquids in alcohols extraction from alcohol-alkane azeotropic mixtures
Source: J. Chem. Thermodyn., 2014, 10.1016/j.jct.2013.08.023
Compound 1: butyltrimethylammonium bis(trifluoromethylsulfonyl)imide, C9H18F6N2O4S2, InChI=1S/C7H18N.C2F6NO4S2/c1-5-6-7-8(2,3)4;3-1(4,5)14(10,11)9-15(12,13)2(6,7)8/h5-7H2,1-4H3;/q+1;-1, purity 99.9%
Compound 2: tributylmethylammonium bis((trifluoromethyl)sulfonyl)imide, C15H30F6N2O4S2, InChI=1S/C13H30N.C2F6NO4S2/c1-5-8-11-14(4,12-9-6-2)13-10-7-3;3-1(4,5)14(10,11)9-15(12,13)2(6,7)8/h5-13H2,1-4H3;/q+1;-1, purity 99.7%
Compound 3: heptane, C7H16, InChI=1S/C7H16/c1-3-5-7-6-4-2/h3-7H2,1-2H3, purity 99%
Compound 4: hexane, C6H14, InChI=1S/C6H14/c1-3-5-6-4-2/h3-6H2,1-2H3, purity 99%
Compound 5: methanol, CH4O, InChI=1S/CH4O/c1-2/h2H,1H3, purity 99%
Compound 6: ethanol, C2H6O, InChI=1S/C2H6O/c1-2-3/h3H,2H2,1H3, purity 99%

System: butyltrimethylammonium bis(trifluoromethylsulfonyl)imide; phases: Liquid
Property: Mass density, kg/m3 (Liquid); method: Vibrating tube method
Pressure, kPa	Temperature, K	Mass density, kg/m3	uncertainty
101	298.15	1393	0.2

System: butyltrimethylammonium bis(trifluoromethylsulfonyl)imide; phases: Liquid
Property: Refractive index (Na D-line) (Liquid); method: Standard Abbe refractometry
Pressure, kPa	Temperature, K	Refractive index (Na D-line)	uncertainty
101	298.15	1.40806	0.00031

System: tributylmethylammonium bis((trifluoromethyl)sulfonyl)imide; phases: Liquid
Property: Mass density, kg/m3 (Liquid); method: Vibrating tube method
Pressure, kPa	Temperature, K	Mass density, kg/m3	uncertainty
101	298.15	1261.3	0.2

System: tributylmethylammonium bis((trifluoromethyl)sulfonyl)imide; phases: Liquid
Property: Refractive index (Na D-line) (Liquid); method: Standard Abbe refractometry
Pressure, kPa	Temperature, K	Refractive index (Na D-line)	uncertainty
101	298.15	1.42614	0.00032

System: heptane; phases: Liquid
Property: Mass density, kg/m3 (Liquid); method: Vibrating tube method
Pressure, kPa	Temperature, K	Mass density, kg/m3	uncertainty
101	298.15	679.6	0.3

System: heptane; phases: Liquid
Property: Refractive index (Na D-line) (Liquid); method: Standard Abbe refractometry
Pressure, kPa	Temperature, K	Refractive index (Na D-line)	uncertainty
101	298.15	1.38529	0.00037

System: hexane; phases: Liquid
Property: Mass density, kg/m3 (Liquid); method: Vibrating tube method
Pressure, kPa	Temperature, K	Mass density, kg/m3	uncertainty
101	298.15	655.2	0.3

System: hexane; phases: Liquid
Property: Refractive index (Na D-line) (Liquid); method: Standard Abbe refractometry
Pressure, kPa	Temperature, K	Refractive index (Na D-line)	uncertainty
101	298.15	1.37241	0.00037

System: methanol; phases: Liquid
Property: Mass density, kg/m3 (Liquid); method: Vibrating tube method
Pressure, kPa	Temperature, K	Mass density, kg/m3	uncertainty
101	298.15	786.9	0.2

System: methanol; phases: Liquid
Property: Refractive index (Na D-line) (Liquid); method: Standard Abbe refractometry
Pressure, kPa	Temperature, K	Refractive index (Na D-line)	uncertainty
101	298.15	1.32636	0.00037

System: ethanol; phases: Liquid
Property: Mass density, kg/m3 (Liquid); method: Vibrating tube method
Pressure, kPa	Temperature, K	Mass density, kg/m3	uncertainty
101	298.15	785.9	0.2

System: ethanol; phases: Liquid
Property: Refractive index (Na D-line) (Liquid); method: Standard Abbe refractometry
Pressure, kPa	Temperature, K	Refractive index (Na D-line)	uncertainty
101	298.15	1.35936	0.00037

System: ethanol + hexane + butyltrimethylammonium bis(trifluoromethylsulfonyl)imide; phases: Liquid mixture 1, Liquid mixture 2
Fixed: Temperature, K = 298.15
Fixed: Pressure, kPa = 101
Property: Mole fraction of hexane (Liquid mixture 1); method: Density calibration data
Property: Mole fraction of hexane (Liquid mixture 2); method: Density calibration data
Property: Mole fraction of ethanol (Liquid mixture 2); method: Density calibration data
Mole fraction of ethanol	Mole fraction of hexane	uncertainty	Mole fraction of hexane	uncertainty	Mole fraction of ethanol	uncertainty
0.0143	0.9857	0.014	0.0849	0.0141	0.1628	
0.0254	0.9746	0.014	0.0792	0.0141	0.2885	
0.0394	0.9606	0.0198	0.0765	0.0141	0.3379	
0.0679	0.9321	0.0199	0.0752	0.0141	0.3956	
0.0893	0.9107	0.0199	0.0755	0.0141	0.4418	
0.151	0.849	0.0201	0.0753	0.0141	0.5113	
0.201	0.799	0.0146	0.0739	0.0141	0.5578	

System: ethanol + heptane + butyltrimethylammonium bis(trifluoromethylsulfonyl)imide; phases: Liquid mixture 1, Liquid mixture 2
Fixed: Temperature, K = 298.15
Fixed: Pressure, kPa = 101
Property: Mole fraction of heptane (Liquid mixture 1); method: Density calibration data
Property: Mole fraction of heptane (Liquid mixture 2); method: Density calibration data
Property: Mole fraction of ethanol (Liquid mixture 2); method: Density calibration data
Mole fraction of ethanol	Mole fraction of heptane	uncertainty	Mole fraction of heptane	uncertainty	Mole fraction of ethanol	uncertainty
0.0328	0.9672	0.014	0.0688	0.0141	0.2937	
0.0539	0.9461	0.0198	0.0624	0.0141	0.3744	
0.1202	0.8798	0.02	0.0521	0.0141	0.5021	
0.1511	0.8489	0.0201	0.0517	0.014	0.5383	
0.1887	0.8113	0.0202	0.0522	0.014	0.5694	
0.2427	0.7573	0.0149	0.0534	0.014	0.6112	

System: methanol + hexane + butyltrimethylammonium bis(trifluoromethylsulfonyl)imide; phases: Liquid mixture 1, Liquid mixture 2
Fixed: Temperature, K = 298.15
Fixed: Pressure, kPa = 101
Property: Mole fraction of hexane (Liquid mixture 1); method: Density calibration data
Property: Mole fraction of hexane (Liquid mixture 2); method: Density calibration data
Property: Mole fraction of methanol (Liquid mixture 2); method: Density calibration data
Mole fraction of methanol	Mole fraction of hexane	uncertainty	Mole fraction of hexane	uncertainty	Mole fraction of methanol	uncertainty
0.0186	0.9814	0.014	0.0646	0.0141	0.2151	
0.0241	0.9759	0.014	0.0586	0.0141	0.3697	
0.0321	0.9679	0.014	0.056	0.0141	0.5253	
0.0456	0.9544	0.014	0.0536	0.014	0.6569	
0.0544	0.9456	0.014	0.0578	0.0141	0.7063	
0.061	0.939	0.0141	0.0604	0.0141	0.7261	

System: ethanol + hexane + tributylmethylammonium bis((trifluoromethyl)sulfonyl)imide; phases: Liquid mixture 1, Liquid mixture 2
Fixed: Temperature, K = 298.15
Fixed: Pressure, kPa = 101
Property: Mole fraction of hexane (Liquid mixture 1); method: Density calibration data
Property: Mole fraction of hexane (Liquid mixture 2); method: Density calibration data
Property: Mole fraction of ethanol (Liquid mixture 2); method: Density calibration data
Mole fraction of ethanol	Mole fraction of hexane	uncertainty	Mole fraction of hexane	uncertainty	Mole fraction of ethanol	uncertainty
0.0179	0.9821	0.014	0.195	0.0146	0.2259	
0.0285	0.9715	0.014	0.1953	0.0146	0.2869	
0.0421	0.9579	0.0198	0.1906	0.0146	0.3462	
0.0622	0.9378	0.0198	0.1862	0.0146	0.3926	
0.0883	0.9117	0.0199	0.1866	0.0146	0.4376	
0.1201	0.8799	0.02	0.1914	0.0146	0.4846	
0.1475	0.8525	0.02	0.1928	0.0146	0.5175	
0.1909	0.8091	0.0146	0.1866	0.0145	0.5608	

System: ethanol + heptane + tributylmethylammonium bis((trifluoromethyl)sulfonyl)imide; phases: Liquid mixture 1, Liquid mixture 2
Fixed: Temperature, K = 298.15
Fixed: Pressure, kPa = 101
Property: Mole fraction of heptane (Liquid mixture 1); method: Density calibration data
Property: Mole fraction of heptane (Liquid mixture 2); method: Density calibration data
Property: Mole fraction of ethanol (Liquid mixture 2); method: Density calibration data
Mole fraction of ethanol	Mole fraction of heptane	uncertainty	Mole fraction of heptane	uncertainty	Mole fraction of ethanol	uncertainty
0.036	0.964	0.014	0.1629	0.0144	0.2973	
0.0631	0.9369	0.0198	0.1625	0.0144	0.409	
0.0915	0.9085	0.0199	0.1606	0.0144	0.4782	
0.1069	0.8931	0.0199	0.1604	0.0144	0.5035	
0.1443	0.8557	0.02	0.1605	0.0144	0.548	
0.1651	0.8349	0.0201	0.1608	0.0144	0.5695	
0.1943	0.8057	0.0146	0.1596	0.0144	0.5977	

System: methanol + hexane + tributylmethylammonium bis((trifluoromethyl)sulfonyl)imide; phases: Liquid mixture 1, Liquid mixture 2
Fixed: Temperature, K = 298.15
Fixed: Pressure, kPa = 101
Property: Mole fraction of hexane (Liquid mixture 1); method: Density calibration data
Property: Mole fraction of hexane (Liquid mixture 2); method: Density calibration data
Property: Mole fraction of methanol (Liquid mixture 2); method: Density calibration data
Mole fraction of methanol	Mole fraction of hexane	uncertainty	Mole fraction of hexane	uncertainty	Mole fraction of methanol	uncertainty
0.0192	0.9808	0.014	0.1829	0.0145	0.1755	
0.0252	0.9748	0.014	0.1697	0.0146	0.2733	
0.0294	0.9706	0.014	0.153	0.0145	0.4036	
0.0334	0.9666	0.014	0.1432	0.0144	0.4857	
0.0373	0.9627	0.014	0.1357	0.0144	0.5549	
0.062	0.938	0.0141	0.1168	0.0142	0.7024	
0.0768	0.9232	0.0141	0.1122	0.0142	0.7362	
