Measured thermophysical data. Heat capacity of isobutane in liquid phase at temperatures from 303 K to 413 K and pressures up to 12 MPa
Source: J. Chem. Thermodyn., 2017, 10.1016/j.jct.2017.03.033
Compound 1: 2-methylpropane, C4H10, InChI=1S/C4H10/c1-4(2)3/h4H,1-3H3, purity 99.95%

System: 2-methylpropane; phases: Liquid
Property: Molar heat capacity at constant pressure, J/K/mol (Liquid); method: Flow calorimetry
Temperature, K	Pressure, kPa	Molar heat capacity at constant pressure, J/K/mol	uncertainty
303.53	1050	142.5156344	2.8479878
303.55	1540	141.8762902	2.8479878
303.56	2000	141.527557	2.8479878
303.57	2500	140.8300906	2.8479878
303.56	3020	140.1326242	2.7898656
303.7	3480	139.783891	2.7898656
303.62	4030	139.5514022	2.7898656
303.62	4500	139.3189134	2.7898656
303.64	5000	139.0283024	2.7898656
303.65	5520	138.7958136	2.7898656
303.63	6010	138.4470804	2.7898656
303.62	6500	138.0983472	2.7898656
303.63	7030	137.6914918	2.7898656
303.63	7530	137.3427586	2.7317434
303.62	7990	136.877781	2.7317434
303.63	8510	136.7034144	2.7317434
303.64	9000	136.4709256	2.7317434
303.63	9510	136.2384368	2.7317434
303.59	9990	135.7734592	2.7317434
303.86	10530	135.3666038	2.7317434
303.86	11040	134.9597484	2.7317434
303.82	11510	134.3785264	2.6736212
303.82	12000	134.2041598	2.6736212
313.48	1040	142.8062454	2.8479878
313.51	1540	142.4575122	2.8479878
313.51	2020	141.9344124	2.8479878
313.51	2540	141.527557	2.8479878
313.49	3020	141.1207016	2.8479878
313.58	3550	140.946335	2.8479878
313.51	4010	140.5976018	2.8479878
313.52	4500	140.074502	2.7898656
313.54	5080	139.2607912	2.7898656
313.5	5530	139.0864246	2.7898656
313.5	6030	138.5633248	2.7898656
313.48	6480	138.3889582	2.7898656
313.5	7030	138.2727138	2.7898656
313.49	7500	138.0983472	2.7898656
313.5	8040	137.8077362	2.7898656
313.5	8480	137.6914918	2.7898656
313.51	9020	137.5171252	2.7317434
313.52	9480	137.3427586	2.7317434
313.52	10060	137.2846364	2.7317434
313.55	10530	136.58717	2.7317434
313.58	11070	136.4709256	2.7317434
313.57	11480	136.296559	2.7317434
313.57	12050	136.1221924	2.7317434
323.11	1040	146.5260662	2.9642322
323.16	1510	146.2354552	2.90611
323.22	2020	145.7704776	2.90611
323.24	2540	145.014889	2.90611
323.25	3020	144.4917892	2.90611
323.23	3510	144.0268116	2.90611
323.25	4020	143.6199562	2.90611
323.28	4550	143.3293452	2.8479878
323.3	4970	143.0387342	2.8479878
323.32	5500	142.690001	2.8479878
323.32	5980	142.1669012	2.8479878
323.33	6470	141.7019236	2.8479878
323.33	7020	141.2950682	2.8479878
323.35	7470	141.236946	2.8479878
323.37	7990	141.0044572	2.8479878
323.38	8510	140.7719684	2.8479878
323.39	9000	140.4232352	2.7898656
323.37	9480	140.074502	2.7898656
323.38	9990	139.6676466	2.7898656
323.27	10500	139.49328	2.7898656
323.28	10980	139.4351578	2.7898656
323.31	11540	139.3770356	2.7898656
323.34	11990	139.202669	2.7898656
333.64	1050	151.0595978	3.0223544
333.69	1530	150.4783758	3.0223544
333.72	2020	149.8390316	3.0223544
333.72	2520	149.1996874	2.9642322
333.73	3050	148.792832	2.9642322
333.71	3530	147.630388	2.9642322
333.67	4020	147.049166	2.9642322
333.67	4480	146.758555	2.9642322
333.69	5010	146.4098218	2.9642322
333.7	5530	146.1192108	2.90611
333.66	5960	145.6542332	2.90611
333.7	6520	145.5379888	2.90611
333.69	7030	145.3055	2.90611
333.73	7550	145.1311334	2.90611
333.74	8040	145.1311334	2.90611
333.71	8510	144.433667	2.90611
333.72	8970	144.3755448	2.90611
333.67	9460	143.5037118	2.90611
333.68	10010	143.6199562	2.90611
333.65	10550	143.3293452	2.8479878
333.65	10920	143.2131008	2.8479878
333.66	11520	143.1549786	2.8479878
333.67	11930	143.1549786	2.8479878
343.71	1520	159.4873168	3.196721
343.76	2030	157.9180174	3.1385988
343.81	2530	157.3367954	3.1385988
343.81	3030	155.6512516	3.1385988
343.79	3510	155.1281518	3.1385988
343.83	4010	154.02383	3.0804766
343.85	4530	153.6169746	3.0804766
343.84	5010	153.0938748	3.0804766
343.86	5490	151.9314308	3.0223544
343.85	6000	151.0595978	3.0223544
343.86	6530	150.3621314	3.0223544
343.88	7020	150.0715204	3.0223544
343.85	7500	149.4902984	3.0223544
343.85	8000	148.2697322	2.9642322
343.85	8500	147.9791212	2.9642322
343.87	9000	147.5141436	2.9642322
343.88	9490	147.3978992	2.9642322
343.86	10020	146.8166772	2.9642322
343.87	10510	146.467944	2.9642322
343.85	10990	145.7704776	2.90611
343.86	11480	145.4798666	2.90611
343.85	12010	145.0730112	2.90611
353.9	1540	168.3800134	3.3710876
353.88	2000	166.1713698	3.3129654
353.82	2510	163.904604	3.3129654
353.85	3020	162.5677934	3.2548432
353.88	3510	160.9403718	3.2548432
353.9	4000	160.0104166	3.196721
353.86	4510	158.6154838	3.196721
353.87	4990	158.092384	3.196721
353.89	5510	157.0461844	3.1385988
353.87	6010	156.058107	3.1385988
353.89	6510	155.4187628	3.1385988
353.87	7000	153.9657078	3.0804766
353.88	7510	153.151997	3.0804766
353.9	7990	152.7451416	3.0804766
353.87	8520	152.2220418	3.0804766
353.85	9000	152.1639196	3.0804766
353.85	9500	151.698942	3.0223544
353.87	10000	151.3502088	3.0223544
353.87	10510	151.0014756	3.0223544
353.87	10990	150.7108646	3.0223544
353.87	11500	150.4202536	3.0223544
353.88	12010	149.8971538	3.0223544
363.86	2090	174.1922334	3.487332
363.91	2520	171.9254676	3.4292098
363.93	3000	170.007435	3.4292098
363.97	3510	167.2175694	3.3710876
363.96	4040	165.7063922	3.3129654
363.98	4500	164.6601926	3.3129654
363.92	5030	162.8002822	3.2548432
363.94	5510	161.7540826	3.2548432
363.96	6000	160.8822496	3.2548432
363.92	6510	159.4291946	3.196721
363.93	7000	158.4992394	3.196721
363.96	7510	157.9180174	3.1385988
363.92	8020	156.8136956	3.1385988
363.94	8500	156.1162292	3.1385988
363.97	8990	155.1281518	3.1385988
363.98	9510	154.1981966	3.0804766
363.96	9970	153.9075856	3.0804766
363.96	10510	153.0938748	3.0804766
363.97	11000	152.7451416	3.0804766
364	11540	152.3382862	3.0804766
363.95	11990	152.0476752	3.0223544
373.85	2530	186.4560176	3.7198208
373.92	3010	182.3874636	3.6616986
373.97	3530	179.016376	3.6035764
373.93	4020	175.2965552	3.487332
373.92	4500	172.9716672	3.487332
373.95	5020	171.3442456	3.4292098
373.9	5520	169.0193576	3.3710876
373.9	6000	167.4500582	3.3710876
373.94	6520	166.6363474	3.3129654
373.85	7050	164.5439482	3.3129654
373.87	7520	163.7302374	3.2548432
373.89	7980	162.8584044	3.2548432
373.92	8520	162.1028158	3.2548432
373.91	9020	161.2309828	3.2548432
373.89	9480	160.4753942	3.196721
373.9	10000	159.7779278	3.196721
373.98	10490	158.4411172	3.196721
373.95	11010	158.1505062	3.196721
373.95	11470	157.4530398	3.1385988
373.95	11990	157.1043066	3.1385988
383.2	2550	209.821142	4.1847984
383.35	3010	201.0446898	4.0104318
383.42	3490	193.837537	3.8941874
383.3	3960	188.315928	3.777943
383.34	4500	183.7242742	3.6616986
383.32	4990	179.888209	3.6035764
383.44	5490	177.2145878	3.5454542
383.21	6010	173.9597446	3.487332
383.26	6520	171.8092232	3.4292098
383.92	6990	170.6467792	3.4292098
383.96	7520	169.5424574	3.3710876
383.94	7980	168.55438	3.3710876
383.97	8470	166.7525918	3.3710876
383.95	9030	164.9508036	3.3129654
383.94	9460	164.2533372	3.3129654
383.92	9990	163.613993	3.2548432
383.93	10490	161.6959604	3.2548432
383.94	11010	160.707883	3.196721
383.94	11570	159.3710724	3.196721
383.93	12090	159.1385836	3.196721
393.96	3090	248.472405	4.9985092
393.95	3560	222.9567592	4.4754094
394.04	4060	208.368087	4.1847984
393.93	4520	197.5573578	3.9523096
393.99	4980	192.7913374	3.8941874
394.06	5490	187.3278506	3.777943
394.02	6000	183.4917854	3.6616986
394.05	6500	180.5856754	3.6035764
393.99	7000	177.6214432	3.5454542
394.01	7500	176.2846326	3.5454542
394	8010	174.5990888	3.487332
394.03	8510	173.3785226	3.487332
393.99	9000	170.4724126	3.4292098
394	9500	169.6005796	3.4292098
394.05	9990	168.0312802	3.3710876
394.09	10520	167.2756916	3.3710876
394.03	11010	166.7525918	3.3710876
394.05	11510	165.5320256	3.3129654
394.02	12020	165.2995368	3.3129654
403.41	4080	248.6467716	4.9985092
403.41	4510	227.1996798	4.5335316
403.43	5070	209.7630198	4.1847984
403.44	5520	201.9165228	4.068554
403.52	6010	195.9299362	3.9523096
403.51	6500	192.5007264	3.8360652
403.53	6990	189.0133944	3.777943
403.58	7550	184.7704738	3.7198208
403.51	8000	180.8762864	3.6035764
403.5	8500	177.9701764	3.5454542
403.53	8990	175.9358994	3.5454542
403.55	9510	174.5409666	3.487332
403.49	9990	173.1460338	3.487332
403.54	10490	172.913545	3.487332
403.53	10960	172.7973006	3.487332
403.55	11490	172.1579564	3.4292098
403.53	12000	170.6467792	3.4292098

System: 2-methylpropane; phases: Fluid (supercritical or subcritical phases)
Property: Molar heat capacity at constant pressure, J/K/mol (Fluid (supercritical or subcritical phases)); method: Flow calorimetry
Temperature, K	Pressure, kPa	Molar heat capacity at constant pressure, J/K/mol	uncertainty
413.26	4120	593.0208066	11.915051
413.46	4510	315.5454238	6.3353198
413.5	4980	256.4351464	5.1147536
413.47	5490	230.163912	4.5916538
413.48	6060	211.855419	4.2429206
413.51	6500	205.2876104	4.1266762
413.51	7000	197.4992356	3.9523096
413.54	7520	191.2801602	3.8360652
413.53	7980	188.89715	3.777943
413.53	8490	186.0491622	3.7198208
413.55	8990	180.9344086	3.6035764
413.56	9510	178.9001316	3.6035764
413.54	10010	176.9239768	3.5454542
413.53	10480	174.7734554	3.487332
413.52	11000	171.9254676	3.4292098
413.54	11510	170.007435	3.4292098
413.54	11940	169.426213	3.3710876
