Measured thermophysical data. Volumetric, viscometric and 1H NMR spectroscopic studies in (polyhydroxy solute + CTAB + H2O) ternary solutions
Source: J. Chem. Thermodyn., 2017, 10.1016/j.jct.2017.04.001
Compound 1: D-xylose, C5H10O5, InChI=1S/C5H10O5/c6-1-3(8)5(10)4(9)2-7/h1,3-5,7-10H,2H2/t3-,4+,5+/m0/s1, purity 99%
Compound 2: xylitol, C5H12O5, InChI=1S/C5H12O5/c6-1-3(8)5(10)4(9)2-7/h3-10H,1-2H2/t3-,4+,5+, purity 99%
Compound 3: L-sorbose, C6H12O6, InChI=1S/C6H12O6/c7-1-3(9)5(11)6(12)4(10)2-8/h3,5-9,11-12H,1-2H2/t3-,5+,6+/m0/s1, purity 98%
Compound 4: D-sorbitol, C6H14O6, InChI=1S/C6H14O6/c7-1-3(9)5(11)6(12)4(10)2-8/h3-12H,1-2H2/t3-,4+,5-,6-/m1/s1, purity 98%
Compound 5: D-glucose, C6H12O6, InChI=1S/C6H12O6/c7-1-3(9)5(11)6(12)4(10)2-8/h1,3-6,8-12H,2H2/t3-,4+,5+,6+/m0/s1, purity 99%
Compound 6: D-maltose, C12H22O11, InChI=1S/C12H22O11/c13-1-3-5(15)6(16)9(19)12(22-3)23-10-4(2-14)21-11(20)8(18)7(10)17/h3-20H,1-2H2/t3-,4-,5-,6+,7-,8-,9-,10-,11?,12-/m1/s1, purity 95%
Compound 7: N,N,N-trimethyl-1-hexadecanaminium bromide, C19H42BrN, InChI=1S/C19H42N.BrH/c1-5-6-7-8-9-10-11-12-13-14-15-16-17-18-19-20(2,3)4;/h5-19H2,1-4H3;1H/q+1;/p-1, purity 99%
Compound 8: water, H2O, InChI=1S/H2O/h1H2

System: N,N,N-trimethyl-1-hexadecanaminium bromide + D-xylose + water; phases: Liquid
Fixed: Pressure, kPa = 100
Property: Mass density, kg/m3 (Liquid); method: Vibrating tube method
Temperature, K	Molality, mol/kg of D-xylose	Solvent: Molality, mol/kg of N,N,N-trimethyl-1-hexadecanaminium bromide	Mass density, kg/m3	uncertainty
298.15	0	0.0004	997.082	2.004
298.15	0.05	0.0004	999.68	2.004
298.15	0.073	0.0004	1000.906	2.005
298.15	0.0908	0.0004	1001.87	2.005
298.15	0.1071	0.0004	1002.759	2.005
298.15	0.1292	0.0004	1003.99	2.006
298.15	0.1473	0.0004	1005.002	2.006
308.15	0	0.0004	994.093	2.004
308.15	0.05	0.0004	996.675	2.004
308.15	0.073	0.0004	997.92	2.005
308.15	0.0908	0.0004	998.91	2.005
308.15	0.1071	0.0004	999.828	2.005
308.15	0.1292	0.0004	1001.113	2.006
308.15	0.1473	0.0004	1002.189	2.006
318.15	0	0.0004	990.256	2.004
318.15	0.05	0.0004	992.778	2.004
318.15	0.073	0.0004	993.997	2.005
318.15	0.0908	0.0004	994.967	2.005
318.15	0.1071	0.0004	995.872	2.005
318.15	0.1292	0.0004	997.128	2.006
318.15	0.1473	0.0004	998.178	2.006
298.15	0	0.0008	997.112	2.004
298.15	0.0505	0.0008	999.694	2.004
298.15	0.0659	0.0008	1000.511	2.004
298.15	0.0849	0.0008	1001.531	2.005
298.15	0.1092	0.0008	1002.878	2.005
298.15	0.1316	0.0008	1004.152	2.006
298.15	0.1533	0.0008	1005.411	2.006
308.15	0	0.0008	994.099	2.004
308.15	0.0505	0.0008	996.64	2.004
308.15	0.0659	0.0008	997.449	2.004
308.15	0.0849	0.0008	998.479	2.005
308.15	0.1092	0.0008	999.835	2.005
308.15	0.1316	0.0008	1001.119	2.006
308.15	0.1533	0.0008	1002.415	2.006
318.15	0	0.0008	990.264	2.004
318.15	0.0505	0.0008	992.674	2.004
318.15	0.0659	0.0008	993.429	2.004
318.15	0.0849	0.0008	994.375	2.005
318.15	0.1092	0.0008	995.609	2.005
318.15	0.1316	0.0008	996.761	2.006
318.15	0.1533	0.0008	997.904	2.006
298.15	0	0.0012	997.136	2.004
298.15	0.0549	0.0012	999.867	2.004
298.15	0.0743	0.0012	1000.88	2.005
298.15	0.0954	0.0012	1002.008	2.005
298.15	0.1106	0.0012	1002.833	2.005
298.15	0.136	0.0012	1004.262	2.006
298.15	0.1495	0.0012	1005.038	2.006
308.15	0	0.0012	994.106	2.004
308.15	0.0549	0.0012	996.775	2.004
308.15	0.0743	0.0012	997.776	2.005
308.15	0.0954	0.0012	998.897	2.005
308.15	0.1106	0.0012	999.724	2.005
308.15	0.136	0.0012	1001.152	2.006
308.15	0.1495	0.0012	1001.939	2.006
318.15	0	0.0012	990.273	2.004
318.15	0.0549	0.0012	992.818	2.004
318.15	0.0743	0.0012	993.76	2.005
318.15	0.0954	0.0012	994.803	2.005
318.15	0.1106	0.0012	995.569	2.005
318.15	0.136	0.0012	996.878	2.006
318.15	0.1495	0.0012	997.592	2.006

System: N,N,N-trimethyl-1-hexadecanaminium bromide + D-xylose + water; phases: Liquid
Fixed: Pressure, kPa = 100
Property: Viscosity, Pa*s (Liquid); method: Capillary tube (Ostwald; Ubbelohde) method
Temperature, K	Molality, mol/kg of D-xylose	Solvent: Molality, mol/kg of N,N,N-trimethyl-1-hexadecanaminium bromide	Viscosity, Pa*s	uncertainty
298.15	0	0.0004	0.0008961	6.03e-05
298.15	0.05	0.0004	0.0009136	6.03e-05
298.15	0.073	0.0004	0.0009217	6.03e-05
298.15	0.0908	0.0004	0.0009279	6.04e-05
298.15	0.1071	0.0004	0.0009336	6.04e-05
298.15	0.1292	0.0004	0.0009414	6.04e-05
298.15	0.1473	0.0004	0.0009477	6.04e-05
308.15	0	0.0004	0.0007419	6.02e-05
308.15	0.05	0.0004	0.0007561	6.02e-05
308.15	0.073	0.0004	0.0007627	6.02e-05
308.15	0.0908	0.0004	0.0007678	6.03e-05
308.15	0.1071	0.0004	0.0007724	6.03e-05
308.15	0.1292	0.0004	0.0007787	6.03e-05
308.15	0.1473	0.0004	0.0007838	6.07e-05
318.15	0	0.0004	0.0006169	6.02e-05
318.15	0.05	0.0004	0.0006286	6.02e-05
318.15	0.073	0.0004	0.000634	6.02e-05
318.15	0.0908	0.0004	0.0006381	6.02e-05
318.15	0.1071	0.0004	0.0006419	6.02e-05
318.15	0.1292	0.0004	0.0006471	6.02e-05
318.15	0.1473	0.0004	0.0006513	6.02e-05
298.15	0	0.0008	0.0008983	6.03e-05
298.15	0.0505	0.0008	0.0009176	6.03e-05
298.15	0.0659	0.0008	0.0009234	6.03e-05
298.15	0.0849	0.0008	0.0009306	6.04e-05
298.15	0.1092	0.0008	0.0009399	6.04e-05
298.15	0.1316	0.0008	0.0009484	6.04e-05
298.15	0.1533	0.0008	0.0009567	6.04e-05
308.15	0	0.0008	0.0007435	6.02e-05
308.15	0.0505	0.0008	0.0007592	6.02e-05
308.15	0.0659	0.0008	0.000764	6.02e-05
308.15	0.0849	0.0008	0.0007699	6.02e-05
308.15	0.1092	0.0008	0.0007775	6.03e-05
308.15	0.1316	0.0008	0.0007844	6.03e-05
308.15	0.1533	0.0008	0.0007912	6.07e-05
318.15	0	0.0008	0.0006171	6.02e-05
318.15	0.0505	0.0008	0.0006299	6.02e-05
318.15	0.0659	0.0008	0.0006338	6.02e-05
318.15	0.0849	0.0008	0.0006386	6.02e-05
318.15	0.1092	0.0008	0.0006448	6.02e-05
318.15	0.1316	0.0008	0.0006505	6.02e-05
318.15	0.1533	0.0008	0.000656	6.02e-05
298.15	0	0.0012	0.0009002	6.03e-05
298.15	0.0549	0.0012	0.0009225	6.03e-05
298.15	0.0743	0.0012	0.0009304	6.04e-05
298.15	0.0954	0.0012	0.000939	6.04e-05
298.15	0.1106	0.0012	0.0009451	6.04e-05
298.15	0.136	0.0012	0.0009555	6.04e-05
298.15	0.1495	0.0012	0.0009609	6.05e-05
308.15	0	0.0012	0.0007449	6.02e-05
308.15	0.0549	0.0012	0.0007631	6.02e-05
308.15	0.0743	0.0012	0.0007696	6.03e-05
308.15	0.0954	0.0012	0.0007766	6.03e-05
308.15	0.1106	0.0012	0.0007816	6.03e-05
308.15	0.136	0.0012	0.0007901	6.03e-05
308.15	0.1495	0.0012	0.0007946	6.1e-05
318.15	0	0.0012	0.0006172	6.02e-05
318.15	0.0549	0.0012	0.0006321	6.02e-05
318.15	0.0743	0.0012	0.0006374	6.02e-05
318.15	0.0954	0.0012	0.0006432	6.02e-05
318.15	0.1106	0.0012	0.0006473	6.02e-05
318.15	0.136	0.0012	0.0006543	6.02e-05
318.15	0.1495	0.0012	0.000658	6.02e-05

System: N,N,N-trimethyl-1-hexadecanaminium bromide + xylitol + water; phases: Liquid
Fixed: Pressure, kPa = 100
Property: Mass density, kg/m3 (Liquid); method: Vibrating tube method
Temperature, K	Molality, mol/kg of xylitol	Solvent: Molality, mol/kg of N,N,N-trimethyl-1-hexadecanaminium bromide	Mass density, kg/m3	uncertainty
298.15	0.0546	0.0004	999.728	2.01
298.15	0.0675	0.0004	1000.367	2.014
298.15	0.0867	0.0004	1001.334	2.022
298.15	0.113	0.0004	1002.693	2.035
298.15	0.1375	0.0004	1003.976	2.051
298.15	0.1567	0.0004	1005.006	2.067
308.15	0.0546	0.0004	996.664	2.017
308.15	0.0675	0.0004	997.288	2.015
308.15	0.0867	0.0004	998.235	2.021
308.15	0.113	0.0004	999.554	2.033
308.15	0.1375	0.0004	1000.814	2.047
308.15	0.1567	0.0004	1001.822	2.032
318.15	0.0546	0.0004	992.734	2.01
318.15	0.0675	0.0004	993.332	2.013
318.15	0.0867	0.0004	994.24	2.019
318.15	0.113	0.0004	995.505	2.031
318.15	0.1375	0.0004	996.698	2.045
318.15	0.1567	0.0004	997.66	2.059
298.15	0.0475	0.0008	999.345	2.008
298.15	0.0717	0.0008	1000.517	2.015
298.15	0.0832	0.0008	1001.08	2.019
298.15	0.1126	0.0008	1002.546	2.033
298.15	0.1296	0.0008	1003.406	2.044
298.15	0.1653	0.0008	1005.27	2.074
308.15	0.0475	0.0008	996.276	2.008
308.15	0.0717	0.0008	997.438	2.013
308.15	0.0832	0.0008	997.995	2.022
308.15	0.1126	0.0008	999.478	2.031
308.15	0.1296	0.0008	1000.352	2.051
308.15	0.1653	0.0008	1002.27	2.047
318.15	0.0475	0.0008	992.339	2.008
318.15	0.0717	0.0008	993.437	2.014
318.15	0.0832	0.0008	993.965	2.018
318.15	0.1126	0.0008	995.357	2.03
318.15	0.1296	0.0008	996.176	2.04
318.15	0.1653	0.0008	997.955	2.062
298.15	0.052	0.0012	999.528	2.009
298.15	0.069	0.0012	1000.349	2.014
298.15	0.0899	0.0012	1001.38	2.022
298.15	0.1131	0.0012	1002.554	2.034
298.15	0.1315	0.0012	1003.508	2.047
298.15	0.161	0.0012	1005.074	2.069
308.15	0.052	0.0012	996.397	2.008
308.15	0.069	0.0012	997.183	2.014
308.15	0.0899	0.0012	998.166	2.021
308.15	0.1131	0.0012	999.28	2.03
308.15	0.1315	0.0012	1000.191	2.045
308.15	0.161	0.0012	1001.688	2.045
318.15	0.052	0.0012	992.465	2.008
318.15	0.069	0.0012	993.215	2.012
318.15	0.0899	0.0012	994.154	2.019
318.15	0.1131	0.0012	995.223	2.029
318.15	0.1315	0.0012	996.092	2.039
318.15	0.161	0.0012	997.518	2.058
298.15	0	0.0004	997.082	2.005
308.15	0	0.0004	994.093	2.005
318.15	0	0.0004	990.256	2.005
298.15	0	0.0008	997.112	2.004
308.15	0	0.0008	994.099	2.005
318.15	0	0.0008	990.264	2.004
298.15	0	0.0012	997.136	2.004
308.15	0	0.0012	994.106	2.005
318.15	0	0.0012	990.273	2.004

System: N,N,N-trimethyl-1-hexadecanaminium bromide + xylitol + water; phases: Liquid
Fixed: Pressure, kPa = 100
Property: Viscosity, Pa*s (Liquid); method: Capillary tube (Ostwald; Ubbelohde) method
Temperature, K	Molality, mol/kg of xylitol	Solvent: Molality, mol/kg of N,N,N-trimethyl-1-hexadecanaminium bromide	Viscosity, Pa*s	uncertainty
298.15	0.0546	0.0004	0.0009183	6.03e-05
298.15	0.0675	0.0004	0.0009235	6.03e-05
298.15	0.0867	0.0004	0.0009313	6.04e-05
298.15	0.113	0.0004	0.000942	6.04e-05
298.15	0.1375	0.0004	0.0009519	6.04e-05
298.15	0.1567	0.0004	0.0009597	6.05e-05
308.15	0.0546	0.0004	0.0007592	6.03e-05
308.15	0.0675	0.0004	0.0007633	6.02e-05
308.15	0.0867	0.0004	0.0007694	6.03e-05
308.15	0.113	0.0004	0.0007777	6.03e-05
308.15	0.1375	0.0004	0.0007854	6.03e-05
308.15	0.1567	0.0004	0.0007915	6.09e-05
318.15	0.0546	0.0004	0.000631	6.02e-05
318.15	0.0675	0.0004	0.0006344	6.02e-05
318.15	0.0867	0.0004	0.0006393	6.02e-05
318.15	0.113	0.0004	0.0006461	6.02e-05
318.15	0.1375	0.0004	0.0006524	6.02e-05
318.15	0.1567	0.0004	0.0006574	6.02e-05
298.15	0.0475	0.0008	0.000919	6.03e-05
298.15	0.0717	0.0008	0.0009295	6.04e-05
298.15	0.0832	0.0008	0.0009345	6.04e-05
298.15	0.1126	0.0008	0.0009473	6.04e-05
298.15	0.1296	0.0008	0.0009546	6.04e-05
298.15	0.1653	0.0008	0.0009702	6.05e-05
308.15	0.0475	0.0008	0.00076	6.02e-05
308.15	0.0717	0.0008	0.0007684	6.03e-05
308.15	0.0832	0.0008	0.0007724	6.02e-05
308.15	0.1126	0.0008	0.0007826	6.03e-05
308.15	0.1296	0.0008	0.0007885	6.03e-05
308.15	0.1653	0.0008	0.0008009	6.06e-05
318.15	0.0475	0.0008	0.0006306	6.02e-05
318.15	0.0717	0.0008	0.0006375	6.02e-05
318.15	0.0832	0.0008	0.0006408	6.02e-05
318.15	0.1126	0.0008	0.0006492	6.02e-05
318.15	0.1296	0.0008	0.0006541	6.02e-05
318.15	0.1653	0.0008	0.0006643	6.02e-05
298.15	0.052	0.0012	0.0009237	6.03e-05
298.15	0.069	0.0012	0.0009314	6.04e-05
298.15	0.0899	0.0012	0.0009409	6.04e-05
298.15	0.1131	0.0012	0.0009513	6.04e-05
298.15	0.1315	0.0012	0.0009597	6.05e-05
298.15	0.161	0.0012	0.000973	6.05e-05
308.15	0.052	0.0012	0.0007639	6.03e-05
308.15	0.069	0.0012	0.0007701	6.03e-05
308.15	0.0899	0.0012	0.0007778	6.03e-05
308.15	0.1131	0.0012	0.0007863	6.03e-05
308.15	0.1315	0.0012	0.000793	6.03e-05
308.15	0.161	0.0012	0.0008038	6.07e-05
318.15	0.052	0.0012	0.0006328	6.02e-05
318.15	0.069	0.0012	0.000638	6.02e-05
318.15	0.0899	0.0012	0.0006443	6.02e-05
318.15	0.1131	0.0012	0.0006513	6.02e-05
318.15	0.1315	0.0012	0.0006569	6.02e-05
318.15	0.161	0.0012	0.0006657	6.03e-05
298.15	0	0.0004	0.0008961	6.03e-05
308.15	0	0.0004	0.0007419	6.02e-05
318.15	0	0.0004	0.0006169	6.02e-05
298.15	0	0.0008	0.0008983	6.03e-05
308.15	0	0.0008	0.0007435	6.02e-05
318.15	0	0.0008	0.0006171	6.02e-05
298.15	0	0.0012	0.0009002	6.03e-05
308.15	0	0.0012	0.0007449	6.02e-05
318.15	0	0.0012	0.0006172	6.02e-05

System: N,N,N-trimethyl-1-hexadecanaminium bromide + L-sorbose + water; phases: Liquid
Fixed: Pressure, kPa = 100
Property: Mass density, kg/m3 (Liquid); method: Vibrating tube method
Temperature, K	Molality, mol/kg of L-sorbose	Solvent: Molality, mol/kg of N,N,N-trimethyl-1-hexadecanaminium bromide	Mass density, kg/m3	uncertainty
298.15	0.0421	0.0004	999.873	2.021
298.15	0.0666	0.0004	1001.541	2.032
298.15	0.0805	0.0004	1002.509	2.042
298.15	0.1115	0.0004	1004.693	2.069
298.15	0.1278	0.0004	1005.872	2.09
298.15	0.1529	0.0004	1007.707	2.123
308.15	0.0421	0.0004	996.785	2.02
308.15	0.0666	0.0004	998.41	2.03
308.15	0.0805	0.0004	999.348	2.043
308.15	0.1115	0.0004	1001.475	2.063
308.15	0.1278	0.0004	1002.63	2.091
308.15	0.1529	0.0004	1004.427	2.084
318.15	0.0421	0.0004	992.851	2.02
318.15	0.0666	0.0004	994.41	2.03
318.15	0.0805	0.0004	995.315	2.038
318.15	0.1115	0.0004	997.351	2.062
318.15	0.1278	0.0004	998.454	2.08
318.15	0.1529	0.0004	1000.163	2.108
298.15	0.0494	0.0008	1000.297	2.023
298.15	0.072	0.0008	1001.788	2.034
298.15	0.0811	0.0008	1002.391	2.039
298.15	0.11	0.0008	1004.33	2.063
298.15	0.129	0.0008	1005.624	2.082
298.15	0.152	0.0008	1007.2	2.134
308.15	0.0494	0.0008	997.217	2.022
308.15	0.072	0.0008	998.7	2.032
308.15	0.0811	0.0008	999.307	2.042
308.15	0.11	0.0008	1001.264	2.062
308.15	0.129	0.0008	1002.589	2.088
308.15	0.152	0.0008	1004.213	2.084
318.15	0.0494	0.0008	993.282	2.022
318.15	0.072	0.0008	994.711	2.032
318.15	0.0811	0.0008	995.295	2.038
318.15	0.11	0.0008	997.169	2.059
318.15	0.129	0.0008	998.43	2.079
318.15	0.152	0.0008	999.979	2.106
298.15	0.0569	0.0012	1000.799	2.026
298.15	0.0768	0.0012	1002.124	2.037
298.15	0.0923	0.0012	1003.179	2.049
298.15	0.1092	0.0012	1004.34	2.065
298.15	0.1307	0.0012	1005.852	2.089
298.15	0.1511	0.0012	1007.306	2.115
308.15	0.0569	0.0012	997.639	2.024
308.15	0.0768	0.0012	998.914	2.035
308.15	0.0923	0.0012	999.926	2.047
308.15	0.1092	0.0012	1001.04	2.062
308.15	0.1307	0.0012	1002.49	2.083
308.15	0.1511	0.0012	1003.887	2.082
318.15	0.0569	0.0012	993.725	2.024
318.15	0.0768	0.0012	994.97	2.034
318.15	0.0923	0.0012	995.959	2.045
318.15	0.1092	0.0012	997.045	2.058
318.15	0.1307	0.0012	998.461	2.08
318.15	0.1511	0.0012	999.823	2.103
298.15	0	0.0004	997.082	2.015
308.15	0	0.0004	994.093	2.015
318.15	0	0.0004	990.256	2.015
298.15	0	0.0008	997.112	2.015
308.15	0	0.0008	994.099	2.015
318.15	0	0.0008	990.264	2.014
298.15	0	0.0012	997.136	2.015
308.15	0	0.0012	994.106	2.015
318.15	0	0.0012	990.273	2.014

System: N,N,N-trimethyl-1-hexadecanaminium bromide + L-sorbose + water; phases: Liquid
Fixed: Pressure, kPa = 100
Property: Viscosity, Pa*s (Liquid); method: Capillary tube (Ostwald; Ubbelohde) method
Temperature, K	Molality, mol/kg of L-sorbose	Solvent: Molality, mol/kg of N,N,N-trimethyl-1-hexadecanaminium bromide	Viscosity, Pa*s	uncertainty
298.15	0.0421	0.0004	0.0009151	6.04e-05
298.15	0.0666	0.0004	0.0009262	6.05e-05
298.15	0.0805	0.0004	0.0009325	6.05e-05
298.15	0.1115	0.0004	0.0009464	6.05e-05
298.15	0.1278	0.0004	0.0009538	6.06e-05
298.15	0.1529	0.0004	0.0009651	6.06e-05
308.15	0.0421	0.0004	0.0007571	6.03e-05
308.15	0.0666	0.0004	0.000766	6.03e-05
308.15	0.0805	0.0004	0.000771	6.03e-05
308.15	0.1115	0.0004	0.0007822	6.04e-05
308.15	0.1278	0.0004	0.0007882	6.04e-05
308.15	0.1529	0.0004	0.0007972	6.08e-05
318.15	0.0421	0.0004	0.0006293	6.02e-05
318.15	0.0666	0.0004	0.0006365	6.02e-05
318.15	0.0805	0.0004	0.0006406	6.02e-05
318.15	0.1115	0.0004	0.0006497	6.03e-05
318.15	0.1278	0.0004	0.0006545	6.03e-05
318.15	0.1529	0.0004	0.0006619	6.03e-05
298.15	0.0494	0.0008	0.0009219	6.04e-05
298.15	0.072	0.0008	0.0009327	6.05e-05
298.15	0.0811	0.0008	0.0009371	6.05e-05
298.15	0.11	0.0008	0.0009509	6.05e-05
298.15	0.129	0.0008	0.00096	6.06e-05
298.15	0.152	0.0008	0.000971	6.06e-05
308.15	0.0494	0.0008	0.0007626	6.03e-05
308.15	0.072	0.0008	0.0007713	6.03e-05
308.15	0.0811	0.0008	0.0007749	6.03e-05
308.15	0.11	0.0008	0.000786	6.04e-05
308.15	0.129	0.0008	0.0007934	6.04e-05
308.15	0.152	0.0008	0.0008023	6.06e-05
318.15	0.0494	0.0008	0.0006327	6.02e-05
318.15	0.072	0.0008	0.0006399	6.02e-05
318.15	0.0811	0.0008	0.0006428	6.02e-05
318.15	0.11	0.0008	0.000652	6.03e-05
318.15	0.129	0.0008	0.0006581	6.03e-05
318.15	0.152	0.0008	0.0006654	6.03e-05
298.15	0.0569	0.0012	0.0009284	6.05e-05
298.15	0.0768	0.0012	0.0009382	6.05e-05
298.15	0.0923	0.0012	0.0009459	6.05e-05
298.15	0.1092	0.0012	0.0009543	6.05e-05
298.15	0.1307	0.0012	0.000965	6.06e-05
298.15	0.1511	0.0012	0.000975	6.06e-05
308.15	0.0569	0.0012	0.0007676	6.03e-05
308.15	0.0768	0.0012	0.0007755	6.03e-05
308.15	0.0923	0.0012	0.0007817	6.04e-05
308.15	0.1092	0.0012	0.0007885	6.04e-05
308.15	0.1307	0.0012	0.0007971	6.04e-05
308.15	0.1511	0.0012	0.0008052	6.09e-05
318.15	0.0569	0.0012	0.0006359	6.02e-05
318.15	0.0768	0.0012	0.0006424	6.02e-05
318.15	0.0923	0.0012	0.0006475	6.03e-05
318.15	0.1092	0.0012	0.0006531	6.03e-05
318.15	0.1307	0.0012	0.0006602	6.03e-05
318.15	0.1511	0.0012	0.0006669	6.03e-05
298.15	0	0.0004	0.0008961	6.04e-05
308.15	0	0.0004	0.0007419	6.03e-05
318.15	0	0.0004	0.0006169	6.02e-05
298.15	0	0.0008	0.0008983	6.04e-05
308.15	0	0.0008	0.0007435	6.03e-05
318.15	0	0.0008	0.0006171	6.02e-05
298.15	0	0.0012	0.0009002	6.04e-05
308.15	0	0.0012	0.0007449	6.03e-05
318.15	0	0.0012	0.0006172	6.02e-05

System: D-sorbitol + N,N,N-trimethyl-1-hexadecanaminium bromide + water; phases: Liquid
Fixed: Pressure, kPa = 100
Property: Mass density, kg/m3 (Liquid); method: Vibrating tube method
Temperature, K	Molality, mol/kg of D-sorbitol	Solvent: Molality, mol/kg of N,N,N-trimethyl-1-hexadecanaminium bromide	Mass density, kg/m3	uncertainty
298.15	0.0499	0.0004	1000.136	2.022
298.15	0.065	0.0004	1001.077	2.028
298.15	0.0965	0.0004	1003.05	2.047
298.15	0.1038	0.0004	1003.513	2.053
298.15	0.1304	0.0004	1005.21	2.076
298.15	0.1521	0.0004	1006.611	2.099
308.15	0.0499	0.0004	997.019	2.021
308.15	0.065	0.0004	997.923	2.028
308.15	0.0965	0.0004	999.825	2.086
308.15	0.1038	0.0004	1000.272	2.055
308.15	0.1304	0.0004	1001.909	2.07
308.15	0.1521	0.0004	1003.266	2.073
318.15	0.0499	0.0004	993.099	2.021
318.15	0.065	0.0004	993.987	2.027
318.15	0.0965	0.0004	995.874	2.045
318.15	0.1038	0.0004	996.321	2.05
318.15	0.1304	0.0004	997.971	2.072
318.15	0.1521	0.0004	999.348	2.095
298.15	0.0406	0.0008	999.539	2.019
298.15	0.0681	0.0008	1001.251	2.03
298.15	0.0899	0.0008	1002.644	2.043
298.15	0.1106	0.0008	1003.994	2.062
298.15	0.132	0.0008	1005.421	2.085
298.15	0.1478	0.0008	1006.505	2.084
308.15	0.0406	0.0008	996.418	2.019
308.15	0.0681	0.0008	998.078	2.029
308.15	0.0899	0.0008	999.451	2.043
308.15	0.1106	0.0008	1000.789	2.06
308.15	0.132	0.0008	1002.211	2.08
308.15	0.1478	0.0008	1003.297	2.066
318.15	0.0406	0.0008	992.489	2.018
318.15	0.0681	0.0008	994.078	2.028
318.15	0.0899	0.0008	995.381	2.04
318.15	0.1106	0.0008	996.648	2.056
318.15	0.132	0.0008	998.005	2.077
318.15	0.1478	0.0008	999.032	2.089
298.15	0.0411	0.0012	999.537	2.019
298.15	0.0728	0.0012	1001.471	2.032
298.15	0.0923	0.0012	1002.702	2.044
298.15	0.1102	0.0012	1003.844	2.059
298.15	0.1251	0.0012	1004.816	2.075
298.15	0.1521	0.0012	1006.62	2.105
308.15	0.0411	0.0012	996.393	2.018
308.15	0.0728	0.0012	998.258	2.03
308.15	0.0923	0.0012	999.456	2.042
308.15	0.1102	0.0012	1000.577	2.055
308.15	0.1251	0.0012	1001.52	2.077
308.15	0.1521	0.0012	1003.302	2.076
318.15	0.0411	0.0012	992.475	2.018
318.15	0.0728	0.0012	994.267	2.029
318.15	0.0923	0.0012	995.411	2.04
318.15	0.1102	0.0012	996.483	2.053
318.15	0.1251	0.0012	997.393	2.067
318.15	0.1521	0.0012	999.096	2.094
298.15	0	0.0004	997.082	2.015
308.15	0	0.0004	994.093	2.015
318.15	0	0.0004	990.256	2.014
298.15	0	0.0008	997.112	2.014
308.15	0	0.0008	994.099	2.015
318.15	0	0.0008	990.264	2.014
298.15	0	0.0012	997.136	2.014
308.15	0	0.0012	994.106	2.015
318.15	0	0.0012	990.273	2.014

System: D-sorbitol + N,N,N-trimethyl-1-hexadecanaminium bromide + water; phases: Liquid
Fixed: Pressure, kPa = 100
Property: Viscosity, Pa*s (Liquid); method: Capillary tube (Ostwald; Ubbelohde) method
Temperature, K	Molality, mol/kg of D-sorbitol	Solvent: Molality, mol/kg of N,N,N-trimethyl-1-hexadecanaminium bromide	Viscosity, Pa*s	uncertainty
298.15	0.0499	0.0004	0.0009235	6.05e-05
298.15	0.065	0.0004	0.0009318	6.05e-05
298.15	0.0965	0.0004	0.0009491	6.05e-05
298.15	0.1038	0.0004	0.0009531	6.06e-05
298.15	0.1304	0.0004	0.0009677	6.06e-05
298.15	0.1521	0.0004	0.0009797	6.07e-05
308.15	0.0499	0.0004	0.0007638	6.03e-05
308.15	0.065	0.0004	0.0007705	6.03e-05
308.15	0.0965	0.0004	0.0007843	6.06e-05
308.15	0.1038	0.0004	0.0007875	6.03e-05
308.15	0.1304	0.0004	0.0007992	6.04e-05
308.15	0.1521	0.0004	0.0008087	6.09e-05
318.15	0.0499	0.0004	0.0006345	6.02e-05
318.15	0.065	0.0004	0.0006399	6.02e-05
318.15	0.0965	0.0004	0.000651	6.03e-05
318.15	0.1038	0.0004	0.0006535	6.03e-05
318.15	0.1304	0.0004	0.0006629	6.03e-05
318.15	0.1521	0.0004	0.0006706	6.03e-05
298.15	0.0406	0.0008	0.0009211	6.04e-05
298.15	0.0681	0.0008	0.0009366	6.05e-05
298.15	0.0899	0.0008	0.0009488	6.05e-05
298.15	0.1106	0.0008	0.0009604	6.06e-05
298.15	0.132	0.0008	0.0009724	6.06e-05
298.15	0.1478	0.0008	0.0009813	6.09e-05
308.15	0.0406	0.0008	0.0007618	6.03e-05
308.15	0.0681	0.0008	0.0007741	6.03e-05
308.15	0.0899	0.0008	0.0007839	6.04e-05
308.15	0.1106	0.0008	0.0007932	6.04e-05
308.15	0.132	0.0008	0.0008028	6.05e-05
308.15	0.1478	0.0008	0.0008099	6.06e-05
318.15	0.0406	0.0008	0.0006317	6.02e-05
318.15	0.0681	0.0008	0.0006416	6.02e-05
318.15	0.0899	0.0008	0.0006494	6.03e-05
318.15	0.1106	0.0008	0.0006568	6.03e-05
318.15	0.132	0.0008	0.0006645	6.03e-05
318.15	0.1478	0.0008	0.0006702	6.04e-05
298.15	0.0411	0.0012	0.0009241	6.04e-05
298.15	0.0728	0.0012	0.0009425	6.05e-05
298.15	0.0923	0.0012	0.0009538	6.05e-05
298.15	0.1102	0.0012	0.0009642	6.06e-05
298.15	0.1251	0.0012	0.0009729	6.06e-05
298.15	0.1521	0.0012	0.0009886	6.07e-05
308.15	0.0411	0.0012	0.000764	6.03e-05
308.15	0.0728	0.0012	0.0007787	6.04e-05
308.15	0.0923	0.0012	0.0007878	6.04e-05
308.15	0.1102	0.0012	0.0007961	6.04e-05
308.15	0.1251	0.0012	0.0008031	6.04e-05
308.15	0.1521	0.0012	0.0008156	6.08e-05
318.15	0.0411	0.0012	0.0006324	6.02e-05
318.15	0.0728	0.0012	0.0006441	6.02e-05
318.15	0.0923	0.0012	0.0006514	6.03e-05
318.15	0.1102	0.0012	0.000658	6.03e-05
318.15	0.1251	0.0012	0.0006635	6.03e-05
318.15	0.1521	0.0012	0.0006735	6.03e-05
298.15	0	0.0004	0.0008961	6.04e-05
308.15	0	0.0004	0.0007419	6.03e-05
318.15	0	0.0004	0.0006169	6.02e-05
298.15	0	0.0008	0.0008983	6.04e-05
308.15	0	0.0008	0.0007435	6.03e-05
318.15	0	0.0008	0.0006171	6.02e-05
298.15	0	0.0012	0.0009002	6.04e-05
308.15	0	0.0012	0.0007449	6.03e-05
318.15	0	0.0012	0.0006172	6.02e-05

System: D-glucose + N,N,N-trimethyl-1-hexadecanaminium bromide + water; phases: Liquid
Fixed: Pressure, kPa = 100
Property: Mass density, kg/m3 (Liquid); method: Vibrating tube method
Temperature, K	Molality, mol/kg of D-glucose	Solvent: Molality, mol/kg of N,N,N-trimethyl-1-hexadecanaminium bromide	Mass density, kg/m3	uncertainty
298.15	0.0448	0.0004	999.954	2.011
298.15	0.0589	0.0004	1000.886	2.018
298.15	0.0872	0.0004	1002.786	2.035
298.15	0.1091	0.0004	1004.302	2.055
298.15	0.1291	0.0004	1005.709	2.078
298.15	0.1502	0.0004	1007.214	2.105
308.15	0.0448	0.0004	996.892	2.01
308.15	0.0589	0.0004	997.807	2.019
308.15	0.0872	0.0004	999.691	2.034
308.15	0.1091	0.0004	1001.208	2.055
308.15	0.1291	0.0004	1002.617	2.08
308.15	0.1502	0.0004	1004.144	2.056
318.15	0.0448	0.0004	992.934	2.01
318.15	0.0589	0.0004	993.802	2.016
318.15	0.0872	0.0004	995.575	2.031
318.15	0.1091	0.0004	996.987	2.049
318.15	0.1291	0.0004	998.3	2.069
318.15	0.1502	0.0004	999.713	2.093
298.15	0.0542	0.0008	1000.532	2.015
298.15	0.073	0.0008	1001.758	2.024
298.15	0.0879	0.0008	1002.742	2.035
298.15	0.1095	0.0008	1004.206	2.054
298.15	0.1307	0.0008	1005.662	2.076
298.15	0.148	0.0008	1006.869	2.105
308.15	0.0542	0.0008	997.423	2.014
308.15	0.073	0.0008	998.617	2.023
308.15	0.0879	0.0008	999.579	2.034
308.15	0.1095	0.0008	1000.995	2.051
308.15	0.1307	0.0008	1002.419	2.071
308.15	0.148	0.0008	1003.59	2.074
318.15	0.0542	0.0008	993.431	2.013
318.15	0.073	0.0008	994.548	2.021
318.15	0.0879	0.0008	995.439	2.029
318.15	0.1095	0.0008	996.755	2.044
318.15	0.1307	0.0008	998.051	2.061
318.15	0.148	0.0008	999.113	2.104
298.15	0.0547	0.0012	1000.52	2.014
298.15	0.0697	0.0012	1001.487	2.022
298.15	0.0876	0.0012	1002.659	2.034
298.15	0.1092	0.0012	1004.11	2.053
298.15	0.1315	0.0012	1005.642	2.078
298.15	0.1498	0.0012	1006.934	2.102
308.15	0.0547	0.0012	997.358	2.013
308.15	0.0697	0.0012	998.281	2.021
308.15	0.0876	0.0012	999.401	2.032
308.15	0.1092	0.0012	1000.771	2.048
308.15	0.1315	0.0012	1002.23	2.069
308.15	0.1498	0.0012	1003.446	2.063
318.15	0.0547	0.0012	993.402	2.013
318.15	0.0697	0.0012	994.295	2.02
318.15	0.0876	0.0012	995.38	2.03
318.15	0.1092	0.0012	996.708	2.045
318.15	0.1315	0.0012	998.119	2.066
318.15	0.1498	0.0012	999.287	2.084
298.15	0	0.0004	997.082	2.005
308.15	0	0.0004	994.093	2.005
318.15	0	0.0004	990.256	2.005
298.15	0	0.0008	997.112	2.005
308.15	0	0.0008	994.099	2.005
318.15	0	0.0008	990.264	2.005
298.15	0	0.0012	997.136	2.005
308.15	0	0.0012	994.106	2.005
318.15	0	0.0012	990.273	2.005

System: D-glucose + N,N,N-trimethyl-1-hexadecanaminium bromide + water; phases: Liquid
Fixed: Pressure, kPa = 100
Property: Viscosity, Pa*s (Liquid); method: Capillary tube (Ostwald; Ubbelohde) method
Temperature, K	Molality, mol/kg of D-glucose	Solvent: Molality, mol/kg of N,N,N-trimethyl-1-hexadecanaminium bromide	Viscosity, Pa*s	uncertainty
298.15	0.0448	0.0004	0.000918	6.03e-05
298.15	0.0589	0.0004	0.0009249	6.04e-05
298.15	0.0872	0.0004	0.0009387	6.04e-05
298.15	0.1091	0.0004	0.0009494	6.04e-05
298.15	0.1291	0.0004	0.0009592	6.05e-05
298.15	0.1502	0.0004	0.0009695	6.05e-05
308.15	0.0448	0.0004	0.0007598	6.02e-05
308.15	0.0589	0.0004	0.0007654	6.02e-05
308.15	0.0872	0.0004	0.0007766	6.03e-05
308.15	0.1091	0.0004	0.0007854	6.03e-05
308.15	0.1291	0.0004	0.0007933	6.03e-05
308.15	0.1502	0.0004	0.0008017	6.08e-05
318.15	0.0448	0.0004	0.0006314	6.02e-05
318.15	0.0589	0.0004	0.000636	6.02e-05
318.15	0.0872	0.0004	0.0006451	6.02e-05
318.15	0.1091	0.0004	0.0006522	6.02e-05
318.15	0.1291	0.0004	0.0006587	6.02e-05
318.15	0.1502	0.0004	0.0006655	6.03e-05
298.15	0.0542	0.0008	0.0009261	6.04e-05
298.15	0.073	0.0008	0.0009358	6.04e-05
298.15	0.0879	0.0008	0.0009434	6.04e-05
298.15	0.1095	0.0008	0.0009545	6.04e-05
298.15	0.1307	0.0008	0.0009654	6.05e-05
298.15	0.148	0.0008	0.0009742	6.05e-05
308.15	0.0542	0.0008	0.000766	6.03e-05
308.15	0.073	0.0008	0.0007738	6.03e-05
308.15	0.0879	0.0008	0.00078	6.03e-05
308.15	0.1095	0.0008	0.000789	6.03e-05
308.15	0.1307	0.0008	0.0007978	6.04e-05
308.15	0.148	0.0008	0.000805	6.05e-05
318.15	0.0542	0.0008	0.0006354	6.02e-05
318.15	0.073	0.0008	0.0006417	6.02e-05
318.15	0.0879	0.0008	0.0006467	6.02e-05
318.15	0.1095	0.0008	0.000654	6.02e-05
318.15	0.1307	0.0008	0.0006612	6.02e-05
318.15	0.148	0.0008	0.000667	6.02e-05
298.15	0.0547	0.0012	0.0009287	6.04e-05
298.15	0.0697	0.0012	0.0009364	6.04e-05
298.15	0.0876	0.0012	0.0009458	6.04e-05
298.15	0.1092	0.0012	0.0009569	6.04e-05
298.15	0.1315	0.0012	0.0009685	6.05e-05
298.15	0.1498	0.0012	0.000978	6.05e-05
308.15	0.0547	0.0012	0.000768	6.03e-05
308.15	0.0697	0.0012	0.0007743	6.03e-05
308.15	0.0876	0.0012	0.0007818	6.03e-05
308.15	0.1092	0.0012	0.0007909	6.03e-05
308.15	0.1315	0.0012	0.0008003	6.04e-05
308.15	0.1498	0.0012	0.0008081	6.09e-05
318.15	0.0547	0.0012	0.0006359	6.02e-05
318.15	0.0697	0.0012	0.000641	6.02e-05
318.15	0.0876	0.0012	0.0006472	6.02e-05
318.15	0.1092	0.0012	0.0006546	6.02e-05
318.15	0.1315	0.0012	0.0006622	6.02e-05
318.15	0.1498	0.0012	0.0006685	6.03e-05
298.15	0	0.0004	0.0008961	6.03e-05
308.15	0	0.0004	0.0007419	6.02e-05
318.15	0	0.0004	0.0006169	6.02e-05
298.15	0	0.0008	0.0008983	6.03e-05
308.15	0	0.0008	0.0007435	6.02e-05
318.15	0	0.0008	0.0006171	6.02e-05
298.15	0	0.0012	0.0009002	6.03e-05
308.15	0	0.0012	0.0007449	6.02e-05
318.15	0	0.0012	0.0006172	6.02e-05

System: N,N,N-trimethyl-1-hexadecanaminium bromide + D-maltose + water; phases: Liquid
Fixed: Pressure, kPa = 100
Property: Mass density, kg/m3 (Liquid); method: Vibrating tube method
Temperature, K	Molality, mol/kg of D-maltose	Solvent: Molality, mol/kg of N,N,N-trimethyl-1-hexadecanaminium bromide	Mass density, kg/m3	uncertainty
298.15	0.0535	0.000399	1003.795	2.2
298.15	0.071	0.000399	1006.002	2.23
298.15	0.091	0.000398	1008.53	2.274
298.15	0.1092	0.000398	1010.837	2.321
298.15	0.1312	0.000398	1013.613	2.388
298.15	0.1504	0.000397	1016.053	2.456
308.15	0.0535	0.000399	1000.732	2.195
308.15	0.071	0.000399	1002.94	2.229
308.15	0.091	0.000398	1005.486	2.273
308.15	0.1092	0.000398	1007.834	2.329
308.15	0.1312	0.000398	1010.675	2.393
308.15	0.1504	0.000397	1013.194	2.319
318.15	0.0535	0.000399	996.575	2.191
318.15	0.071	0.000399	998.64	2.217
318.15	0.091	0.000398	1001	2.255
318.15	0.1092	0.000398	1003.15	2.296
318.15	0.1312	0.000398	1005.736	2.354
318.15	0.1504	0.000397	1008	2.413
298.15	0.0523	0.000797	1003.639	2.198
298.15	0.0682	0.000796	1005.628	2.224
298.15	0.0885	0.000795	1008.194	2.267
298.15	0.1104	0.000794	1010.96	2.326
298.15	0.1348	0.000792	1014.075	2.401
298.15	0.1478	0.000792	1015.729	2.431
308.15	0.0523	0.000797	1000.462	2.193
308.15	0.0682	0.000796	1002.398	2.222
308.15	0.0885	0.000795	1004.895	2.262
308.15	0.1104	0.000794	1007.576	2.313
308.15	0.1348	0.000792	1010.594	2.385
308.15	0.1478	0.000792	1012.194	2.474
318.15	0.0523	0.000797	996.442	2.19
318.15	0.0682	0.000796	998.33	2.214
318.15	0.0885	0.000795	1000.771	2.253
318.15	0.1104	0.000794	1003.406	2.307
318.15	0.1348	0.000792	1006.373	2.375
318.15	0.1478	0.000792	1007.951	2.394
298.15	0.0475	0.001194	1003.003	2.191
298.15	0.0748	0.001191	1006.387	2.236
298.15	0.0909	0.00119	1008.414	2.272
298.15	0.1096	0.001187	1010.756	2.32
298.15	0.138	0.001184	1014.329	2.41
298.15	0.1498	0.001183	1015.842	2.458
308.15	0.0475	0.001194	999.869	2.187
308.15	0.0748	0.001191	1003.204	2.229
308.15	0.0909	0.00119	1005.199	2.268
308.15	0.1096	0.001187	1007.507	2.318
308.15	0.138	0.001184	1011.043	2.389
308.15	0.1498	0.001183	1012.539	2.342
318.15	0.0475	0.001194	995.863	2.184
318.15	0.0748	0.001191	999.104	2.225
318.15	0.0909	0.00119	1001.051	2.259
318.15	0.1096	0.001187	1003.303	2.305
318.15	0.138	0.001184	1006.763	2.39
318.15	0.1498	0.001183	1008.23	2.437
298.15	0	0.0004	997.082	2.162
308.15	0	0.0004	994.093	2.161
318.15	0	0.0004	990.256	2.159
298.15	0	0.0008	997.112	2.162
308.15	0	0.0008	994.099	2.161
318.15	0	0.0008	990.264	2.159
298.15	0	0.0012	997.136	2.162
308.15	0	0.0012	994.106	2.161
318.15	0	0.0012	990.273	2.159

System: N,N,N-trimethyl-1-hexadecanaminium bromide + D-maltose + water; phases: Liquid
Fixed: Pressure, kPa = 100
Property: Viscosity, Pa*s (Liquid); method: Capillary tube (Ostwald; Ubbelohde) method
Temperature, K	Molality, mol/kg of D-maltose	Solvent: Molality, mol/kg of N,N,N-trimethyl-1-hexadecanaminium bromide	Viscosity, Pa*s	uncertainty
298.15	0.0535	0.000399	0.0009581	6.12e-05
298.15	0.071	0.000399	0.0009783	6.13e-05
298.15	0.091	0.000398	0.0010015	6.15e-05
298.15	0.1092	0.000398	0.0010227	6.17e-05
298.15	0.1312	0.000398	0.0010481	6.19e-05
298.15	0.1504	0.000397	0.0010704	6.22e-05
308.15	0.0535	0.000399	0.0007929	6.08e-05
308.15	0.071	0.000399	0.0008095	6.09e-05
308.15	0.091	0.000398	0.0008286	6.1e-05
308.15	0.1092	0.000398	0.000846	6.11e-05
308.15	0.1312	0.000398	0.0008669	6.14e-05
308.15	0.1504	0.000397	0.0008853	6.25e-05
318.15	0.0535	0.000399	0.0006586	6.06e-05
318.15	0.071	0.000399	0.0006723	6.06e-05
318.15	0.091	0.000398	0.0006879	6.07e-05
318.15	0.1092	0.000398	0.0007021	6.08e-05
318.15	0.1312	0.000398	0.0007192	6.09e-05
318.15	0.1504	0.000397	0.0007342	6.1e-05
298.15	0.0523	0.000797	0.0009601	6.12e-05
298.15	0.0682	0.000796	0.0009788	6.13e-05
298.15	0.0885	0.000795	0.0010029	6.15e-05
298.15	0.1104	0.000794	0.0010287	6.17e-05
298.15	0.1348	0.000792	0.0010576	6.2e-05
298.15	0.1478	0.000792	0.0010729	6.22e-05
308.15	0.0523	0.000797	0.0007946	6.08e-05
308.15	0.0682	0.000796	0.0008101	6.09e-05
308.15	0.0885	0.000795	0.00083	6.1e-05
308.15	0.1104	0.000794	0.0008513	6.12e-05
308.15	0.1348	0.000792	0.0008752	6.15e-05
308.15	0.1478	0.000792	0.0008879	6.19e-05
318.15	0.0523	0.000797	0.0006592	6.06e-05
318.15	0.0682	0.000796	0.000672	6.06e-05
318.15	0.0885	0.000795	0.0006884	6.07e-05
318.15	0.1104	0.000794	0.000706	6.08e-05
318.15	0.1348	0.000792	0.0007257	6.1e-05
318.15	0.1478	0.000792	0.0007361	6.1e-05
298.15	0.0475	0.001194	0.0009574	6.11e-05
298.15	0.0748	0.001191	0.0009901	6.14e-05
298.15	0.0909	0.00119	0.0010096	6.15e-05
298.15	0.1096	0.001187	0.001032	6.17e-05
298.15	0.138	0.001184	0.0010662	6.21e-05
298.15	0.1498	0.001183	0.0010804	6.23e-05
308.15	0.0475	0.001194	0.0007923	6.08e-05
308.15	0.0748	0.001191	0.0008194	6.1e-05
308.15	0.0909	0.00119	0.0008355	6.1e-05
308.15	0.1096	0.001187	0.0008541	6.12e-05
308.15	0.138	0.001184	0.0008824	6.16e-05
308.15	0.1498	0.001183	0.0008942	6.33e-05
318.15	0.0475	0.001194	0.0006562	6.06e-05
318.15	0.0748	0.001191	0.0006785	6.07e-05
318.15	0.0909	0.00119	0.0006918	6.07e-05
318.15	0.1096	0.001187	0.0007071	6.08e-05
318.15	0.138	0.001184	0.0007304	6.1e-05
318.15	0.1498	0.001183	0.0007402	6.11e-05
298.15	0	0.0004	0.0008961	6.09e-05
308.15	0	0.0004	0.0007419	6.06e-05
318.15	0	0.0004	0.0006169	6.05e-05
298.15	0	0.0008	0.0008983	6.09e-05
308.15	0	0.0008	0.0007435	6.06e-05
318.15	0	0.0008	0.0006171	6.05e-05
298.15	0	0.0012	0.0009002	6.09e-05
308.15	0	0.0012	0.0007449	6.07e-05
318.15	0	0.0012	0.0006172	6.05e-05

System: N,N,N-trimethyl-1-hexadecanaminium bromide + water; phases: Liquid
Fixed: Pressure, kPa = 100
Property: Mass density, kg/m3 (Liquid); method: Vibrating tube method
Temperature, K	Molality, mol/kg of N,N,N-trimethyl-1-hexadecanaminium bromide	Mass density, kg/m3	uncertainty
298.15	0.0004	997.082	2.004
308.15	0.0004	994.093	2.004
318.15	0.0004	990.256	2.004
298.15	0.0008	997.112	2.004
308.15	0.0008	994.099	2.004
318.15	0.0008	990.264	2.004
298.15	0.0012	997.136	2.004
308.15	0.0012	994.106	2.004
318.15	0.0012	990.273	2.004

System: N,N,N-trimethyl-1-hexadecanaminium bromide + water; phases: Liquid
Fixed: Pressure, kPa = 100
Property: Viscosity, Pa*s (Liquid); method: Capillary tube (Ostwald; Ubbelohde) method
Temperature, K	Molality, mol/kg of N,N,N-trimethyl-1-hexadecanaminium bromide	Viscosity, Pa*s	uncertainty
298.15	0.0004	0.0008961	6.03e-05
308.15	0.0004	0.0007419	6.02e-05
318.15	0.0004	0.0006169	6.02e-05
298.15	0.0008	0.0008983	6.03e-05
308.15	0.0008	0.0007435	6.02e-05
318.15	0.0008	0.0006171	6.02e-05
298.15	0.0012	0.0009002	6.03e-05
308.15	0.0012	0.0007449	6.02e-05
318.15	0.0012	0.0006172	6.02e-05
