Measured thermophysical data. Thermodynamic properties of liquid Ga-Li alloys: Experiment vs. modeling
Source: J. Chem. Thermodyn., 2016, 10.1016/j.jct.2016.02.015
Compound 1: gallium, Ga, InChI=1S/Ga, purity 99.999%
Compound 2: lithium, Li, InChI=1S/Li, purity 99.9%

System: lithium + gallium; phases: Liquid
Fixed: Pressure, kPa = 100
Property: Excess molar enthalpy (molar enthalpy of mixing), kJ/mol (Liquid); method: Calvet calorimetry
Temperature, K	Mole fraction of lithium	Excess molar enthalpy (molar enthalpy of mixing), kJ/mol	uncertainty
1039	0.4284	-19.8	0.3
1039	0.5421	-21.2	0.3
1039	0.652	-20	0.3
1039	0.7322	-17	0.2
1039	0.7709	-14.8	0.2
1039	0.7991	-12.8	0.2
1039	0.8282	-11.2	0.2
992	0.0908	-5.1	0.5
992	0.1797	-10.2	0.5
992	0.2283	-12.8	0.4
992	0.3064	-16.1	0.4
992	0.3748	-18.7	0.4
873	0.9801	-1.4	0.8
873	0.9468	-4.1	0.8
873	0.9218	-6.4	0.8
873	0.894	-8.5	0.8
873	0.865	-10.5	0.8
873	0.8391	-12.2	0.8
873	0.8058	-14.4	0.8
873	0.7734	-16.2	0.8
873	0.703	-19.4	0.8
