Measured thermophysical data. Vapor-liquid equilibrium of the (water + ethanol + glycerol) system: Experimental and modelling data at normal pressure
Source: J. Chem. Thermodyn., 2013, 10.1016/j.jct.2013.07.012
Compound 1: water, H2O, InChI=1S/H2O/h1H2
Compound 2: ethanol, C2H6O, InChI=1S/C2H6O/c1-2-3/h3H,2H2,1H3
Compound 3: glycerol, C3H8O3, InChI=1S/C3H8O3/c4-1-3(6)2-5/h3-6H,1-2H2

System: water; phases: Liquid, Gas
Property: Normal boiling temperature, K (Liquid); method: Ebulliometric method (Recirculating still)
Normal boiling temperature, K	uncertainty
373.15	0.2

System: ethanol; phases: Liquid, Gas
Property: Normal boiling temperature, K (Liquid); method: Ebulliometric method (Recirculating still)
Normal boiling temperature, K	uncertainty
351.65	0.2

System: glycerol + ethanol + water; phases: Liquid, Gas
Fixed: Pressure, kPa = 101
Property: Mole fraction of water (Liquid); method: Density calibration data
Property: Mole fraction of water (Gas); method: Density calibration data
Property: Mole fraction of ethanol (Gas); method: Density calibration data
Temperature, K	Mole fraction of ethanol	Mole fraction of water	uncertainty	Mole fraction of water	uncertainty	Mole fraction of ethanol	uncertainty
358.15	0.0898	0.8086	0.0004	0.5118	0.001	0.4882	
354.15	0.1773	0.709	0.0005	0.3484	0.0005	0.6516	
353.15	0.2624	0.6122	0.0006	0.3342	0.0005	0.6658	
352.15	0.3452	0.5178	0.0006	0.2721	0.0003	0.7279	
351.65	0.4259	0.4259	0.0004	0.2198	0.0002	0.7802	
351.65	0.5045	0.3364	0.0003	0.1795	0.0001	0.8205	
351.15	0.5812	0.2491	0.0002	0.1031	0.0001	0.8969	
351.15	0.6559	0.164	0.0001	0.0658	0.0001	0.9342	
351.15	0.7288	0.081	0.0001	0.0055	0.0001	0.9945	
356.65	0.0863	0.777	0.0004	0.3914	0.0006	0.6086	
353.15	0.1696	0.6782	0.0005	0.3196	0.0004	0.6804	
352.65	0.2498	0.5829	0.0006	0.2953	0.0004	0.7047	
352.15	0.3273	0.4909	0.0006	0.1995	0.0002	0.8005	
351.75	0.4021	0.4021	0.0004	0.1817	0.0001	0.8183	
351.35	0.4744	0.3162	0.0003	0.174	0.0001	0.826	
351.15	0.5442	0.2332	0.0002	0.1412	0.0001	0.8588	
351.15	0.6118	0.153	0.0001	0.0891	0.0001	0.9109	
351.15	0.6773	0.0753	0.0001	0.074	0.0001	0.926	
360.55	0.0831	0.7478	0.0005	0.529	0.001	0.471	
355.25	0.1625	0.6499	0.0006	0.3327	0.0004	0.6673	
352.98	0.2384	0.5563	0.0006	0.2847	0.0003	0.7153	
352.15	0.3111	0.4667	0.0006	0.2633	0.0003	0.7367	
351.65	0.3808	0.3808	0.0004	0.2113	0.0002	0.7887	
351.15	0.4476	0.2984	0.0003	0.1573	0.0001	0.8427	
351.15	0.5117	0.2193	0.0001	0.1303	0.0001	0.8697	
351.15	0.5733	0.1433	0.0001	0.0736	0.0001	0.9264	
351.15	0.6326	0.0703	0.0001	0.0014	0.0001	0.9986	
