Measured thermophysical data. Heat capacity and standard thermodynamic functions of three ketohexoses in monosaccharides including rare sugars: D-fructose, D-psicose, and D-tagatose
Source: J. Chem. Thermodyn., 2019, 10.1016/j.jct.2018.11.014
Compound 1: D-fructose, C6H12O6, InChI=1S/C6H12O6/c7-1-3(9)5(11)6(12)4(10)2-8/h3,5-9,11-12H,1-2H2/t3-,5-,6-/m1/s1
Compound 2: D-psicose, C6H12O6, InChI=1S/C6H12O6/c7-1-3(9)5(11)6(12)4(10)2-8/h3,5-9,11-12H,1-2H2/t3-,5-,6+/m1/s1, purity 98%
Compound 3: D-(-)-tagatose, C6H12O6, InChI=1S/C6H12O6/c7-1-3(9)5(11)6(12)4(10)2-8/h3,5-9,11-12H,1-2H2/t3-,5+,6-/m1/s1, purity 98%

System: D-fructose; phases: Crystal
Fixed: Pressure, kPa = 101.325
Property: Molar heat capacity at constant pressure, J/K/mol (Crystal); method: Vacuum adiabatic calorimetry
Temperature, K	Molar heat capacity at constant pressure, J/K/mol	uncertainty
14.058	2.815	0.037
14.481	3.13	0.04
14.917	3.379	0.043
15.355	3.634	0.045
15.81	3.919	0.049
16.274	4.218	0.052
16.775	4.66	0.056
17.285	5.05	0.06
17.752	5.334	0.063
18.242	5.753	0.067
18.759	6.186	0.072
19.314	6.585	0.076
19.888	7.065	0.081
20.466	7.626	0.086
21.028	8.082	0.091
21.552	8.514	0.095
22.089	9.015	0.1
22.637	9.566	0.106
23.218	10.103	0.111
23.836	10.614	0.116
24.405	11.215	0.122
24.965	11.668	0.126
25.836	12.666	0.136
26.709	13.497	0.144
27.311	14.066	0.149
28.192	14.91	0.158
29.031	15.698	0.165
29.576	16.156	0.169
30.141	16.839	0.177
30.73	17.428	0.183
31.346	18.052	0.189
31.976	18.532	0.194
32.624	19.186	0.201
33.284	19.893	0.208
33.959	20.59	0.215
34.651	21.26	0.221
35.358	21.954	0.228
36.069	22.666	0.235
36.781	23.424	0.243
37.501	24.106	0.25
38.211	24.829	0.257
38.914	25.517	0.264
39.602	26.206	0.271
40.284	26.891	0.278
40.993	27.59	0.285
41.726	28.295	0.292
42.483	29.023	0.299
43.258	29.784	0.307
44.029	30.535	0.314
44.802	31.291	0.322
45.599	32.066	0.33
46.412	32.85	0.337
47.229	33.616	0.345
48.053	34.433	0.353
48.871	35.181	0.361
49.664	35.98	0.369
50.462	36.724	0.376
51.296	37.501	0.384
52.168	38.33	0.393
53.076	39.162	0.401
53.998	40.033	0.41
54.924	40.882	0.418
55.873	41.747	0.427
56.836	42.647	0.436
57.799	43.537	0.445
58.747	44.394	0.454
59.681	45.249	0.462
60.611	46.086	0.471
61.545	46.937	0.479
62.476	47.761	0.487
63.396	48.612	0.496
64.306	49.429	0.504
65.224	50.22	0.512
66.176	51.079	0.521
67.156	51.944	0.53
68.216	52.897	0.539
69.335	53.877	0.549
70.431	54.827	0.559
71.505	55.792	0.568
72.634	56.77	0.578
73.815	57.78	0.588
74.975	58.797	0.599
76.112	59.771	0.609
77.229	60.739	0.618
78.397	61.724	0.628
79.613	62.762	0.639
80.808	63.767	0.649
81.985	64.8	0.659
83.142	65.76	0.669
84.344	66.769	0.679
85.592	67.836	0.69
86.821	68.833	0.7
88.031	69.876	0.71
89.224	70.89	0.721
90.46	71.892	0.744
91.737	72.987	0.755
92.997	73.987	0.765
94.241	75.029	0.775
95.469	76.033	0.785
96.737	77.103	0.796
98.045	78.134	0.806
99.336	79.203	0.816
100.612	80.233	0.827
101.875	81.252	0.837
103.174	82.302	0.847
104.511	83.383	0.858
105.834	84.42	0.868
107.142	85.496	0.879
108.438	86.511	0.889
109.768	87.552	0.899
111.134	88.694	0.91
112.487	89.722	0.92
113.827	90.787	0.931
115.154	91.822	0.941
116.544	92.944	0.952
117.995	94.071	0.964
119.433	95.209	0.975
120.858	96.287	0.986
122.269	97.422	0.997
123.715	98.534	1.008
125.195	99.726	1.02
126.662	100.86	1.03
128.146	101.99	1.04
129.647	103.12	1.05
131.183	104.32	1.07
132.785	105.56	1.08
134.406	106.79	1.09
136.013	107.97	1.1
137.608	109.25	1.11
139.236	110.5	1.13
140.897	111.75	1.14
142.546	112.96	1.15
144.181	114.21	1.16
145.805	115.47	1.18
147.462	116.73	1.19
149.187	117.96	1.2
150.935	119.3	1.21
152.67	120.61	1.23
154.393	121.92	1.24
156.149	123.22	1.25
157.937	124.55	1.27
159.712	125.9	1.28
161.476	127.16	1.29
163.228	128.53	1.31
165.012	129.85	1.32
166.827	131.22	1.33
168.631	132.53	1.35
170.423	133.87	1.36
172.263	135.21	1.37
174.195	136.66	1.39
176.158	138.12	1.4
178.109	139.54	1.42
180.047	140.98	1.43
181.974	142.44	1.44
183.932	143.86	1.46
185.921	145.37	1.47
187.899	146.78	1.49
189.864	148.24	1.5
191.819	149.62	1.52
193.804	151.13	1.53
195.889	152.65	1.55
198.028	154.23	1.56
200.155	155.79	1.58
202.269	157.38	1.59
204.414	158.97	1.61
206.59	160.59	1.63
208.755	162.27	1.64
210.906	163.79	1.66
213.046	165.43	1.67
215.216	166.88	1.69
217.415	168.61	1.71
219.603	170.28	1.72
221.778	172.01	1.74
223.942	173.59	1.76
226.136	175.1	1.77
228.436	176.89	1.79
230.803	178.65	1.81
233.156	180.52	1.83
235.497	182.33	1.84
237.867	184.07	1.86
240.267	185.87	1.88
242.654	187.7	1.9
245.028	189.43	1.91
247.39	191.32	1.93
249.78	193.01	1.95
252.199	194.95	1.97
254.605	196.74	1.99
256.998	198.58	2.01
259.379	200.5	2.02
261.789	202.31	2.04
264.285	204.15	2.06
266.824	206.25	2.08
269.351	208.09	2.1
271.865	210.03	2.12
274.409	211.71	2.14
276.98	213.84	2.16
279.538	215.75	2.18
282.083	217.72	2.2
284.614	219.77	2.22
287.172	221.78	2.24
289.757	223.86	2.26
292.329	225.93	2.28
294.917	227.98	2.3
297.522	230.08	2.32
300.153	232.18	2.34
302.81	234.38	2.36
305.452	236.46	2.38
308.081	238.4	2.4
310.696	240.73	2.43
313.336	242.98	2.45
316.005	244.99	2.47
318.659	247.19	2.49
321.3	249.35	2.51
323.928	251.32	2.53
326.58	253.53	2.56
329.256	255.9	2.58

System: D-fructose; phases: Crystal
Fixed: Pressure, kPa = 101.325
Property: Molar heat capacity at constant pressure, J/K/mol (Crystal); method: Vacuum adiabatic calorimetry
Temperature, K	Molar heat capacity at constant pressure, J/K/mol	uncertainty
10	0.91	0.02
20	7.19	0.08
30	16.66	0.18
40	26.59	0.27
50	36.27	0.37
60	45.54	0.47
70	54.46	0.55
80	63.1	0.64
90	71.52	0.74
100	79.73	0.82
110	87.77	0.9
120	95.65	0.98
130	103.4	1.06
140	111.05	1.13
150	118.61	1.21
160	126.11	1.28
170	133.55	1.36
180	140.95	1.43
190	148.33	1.5
200	155.71	1.58
210	163.12	1.65
220	170.57	1.73
230	178.09	1.8
240	185.67	1.88
250	193.28	1.95
260	200.91	2.03
270	208.52	2.11
280	216.17	2.18
290	224.03	2.26
300	232.04	2.34
310	240.14	2.42
320	248.27	2.5
330	256.36	2.58
298.15	230.55	2.33

System: D-fructose; phases: Crystal
Fixed: Pressure, kPa = 101.325
Property: Molar enthalpy function {Hm(T)-Hm(0)}/T, J/K/mol (Crystal); method: Vacuum adiabatic calorimetry
Temperature, K	Molar enthalpy function {Hm(T)-Hm(0)}/T, J/K/mol	uncertainty
10	0.18	0.01
20	1.9	0.03
30	5.21	0.06
40	9.31	0.1
50	13.74	0.15
60	18.28	0.19
70	22.81	0.24
80	27.31	0.28
90	31.76	0.36
100	36.14	0.4
110	40.47	0.44
120	44.74	0.48
130	48.96	0.52
140	53.12	0.56
150	57.24	0.6
160	61.31	0.64
170	65.34	0.68
180	69.33	0.72
190	73.3	0.76
200	77.23	0.8
210	81.15	0.84
220	85.04	0.87
230	88.92	0.91
240	92.8	0.95
250	96.66	0.99
260	100.53	1.03
270	104.38	1.07
280	108.24	1.1
290	112.1	1.14
300	115.96	1.18
310	119.84	1.22
320	123.72	1.26
330	127.62	1.3
298.15	115.25	1.17

System: D-fructose; phases: Crystal
Fixed: Pressure, kPa = 101.325
Property: Molar entropy, J/K/mol (Crystal); method: Vacuum adiabatic calorimetry
Temperature, K	Molar entropy, J/K/mol	uncertainty
10	0.22	0.02
20	2.49	0.05
30	7.15	0.12
40	13.3	0.21
50	20.28	0.32
60	27.72	0.43
70	35.42	0.54
80	43.25	0.66
90	51.17	0.81
100	59.14	0.93
110	67.11	1.05
120	75.09	1.16
130	83.05	1.28
140	91	1.4
150	98.92	1.52
160	106.81	1.63
170	114.68	1.75
180	122.52	1.87
190	130.34	1.99
200	138.14	2.1
210	145.91	2.22
220	153.67	2.34
230	161.42	2.45
240	169.16	2.57
250	176.89	2.68
260	184.62	2.8
270	192.35	2.92
280	200.07	3.03
290	207.79	3.15
300	215.52	3.26
310	223.26	3.38
320	231.02	3.5
330	238.78	3.61
298.15	214.09	3.24

System: D-psicose; phases: Crystal
Fixed: Pressure, kPa = 101.325
Property: Molar heat capacity at constant pressure, J/K/mol (Crystal); method: Vacuum adiabatic calorimetry
Temperature, K	Molar heat capacity at constant pressure, J/K/mol	uncertainty
13.988	3.375	0.044
14.284	3.64	0.047
14.657	3.847	0.049
15.129	4.198	0.052
15.643	4.671	0.057
16.15	5.026	0.061
16.658	5.478	0.065
17.18	5.894	0.07
17.709	6.348	0.074
18.232	6.844	0.079
18.751	7.275	0.084
19.277	7.752	0.088
19.799	8.239	0.093
20.304	8.666	0.098
20.827	9.202	0.103
21.369	9.657	0.107
21.921	10.245	0.113
22.487	10.725	0.118
23.054	11.297	0.124
23.618	11.82	0.129
24.147	12.342	0.134
24.647	12.881	0.139
25.161	13.34	0.144
25.692	13.827	0.148
26.239	14.425	0.154
26.806	14.988	0.159
27.393	15.491	0.164
27.978	16.13	0.17
28.564	16.703	0.176
29.154	17.309	0.181
29.747	17.779	0.186
30.364	18.413	0.193
31.01	19.021	0.199
31.662	19.692	0.206
32.318	20.311	0.212
32.985	20.914	0.218
33.665	21.605	0.225
34.353	22.213	0.231
35.049	22.923	0.238
35.761	23.591	0.245
36.485	24.268	0.251
37.214	24.858	0.257
37.957	25.635	0.265
38.674	26.214	0.271
39.353	26.892	0.278
40.051	27.634	0.285
40.768	28.113	0.29
41.493	28.951	0.298
42.231	29.587	0.305
42.981	30.252	0.311
43.745	30.968	0.318
44.52	31.662	0.325
45.301	32.351	0.332
46.09	33.043	0.339
46.882	33.804	0.347
47.679	34.544	0.354
48.487	35.213	0.361
49.308	35.976	0.369
50.143	36.765	0.377
120.395	93.306	0.956
121.695	94.22	0.965
123.062	95.255	0.975
124.496	96.304	0.986
125.918	97.338	0.996
127.329	98.378	1.006
128.729	99.416	1.017
130.16	100.47	1.03
131.62	101.53	1.04
133.07	102.57	1.05
134.51	103.62	1.06
135.939	104.68	1.07
137.398	105.69	1.08
138.886	106.78	1.09
140.363	107.86	1.1
141.83	108.94	1.11
143.289	109.97	1.12
144.777	111.03	1.13
146.293	112.11	1.14
147.842	113.18	1.15
149.422	114.29	1.16
150.993	115.45	1.18
152.593	116.62	1.19
154.221	117.72	1.2
155.869	118.94	1.21
157.537	120.08	1.22
159.194	121.26	1.23
160.882	122.45	1.25
162.649	123.73	1.26
164.456	125	1.27
166.253	126.31	1.28
168.039	127.62	1.3
169.855	128.88	1.31
171.702	130.21	1.32
173.538	131.46	1.34
175.364	132.69	1.35
177.18	134.01	1.36
179.063	135.42	1.37
181.011	136.76	1.39
182.949	138.09	1.4
184.876	139.49	1.42
186.793	140.88	1.43
188.739	142.23	1.44
190.713	143.67	1.46
192.678	145.06	1.47
194.632	146.4	1.48
196.577	147.65	1.5
198.55	149.16	1.51
200.551	150.56	1.53
202.582	152.06	1.54
204.645	153.53	1.56
206.696	154.98	1.57
208.777	156.4	1.58
210.887	157.92	1.6
212.986	159.44	1.61
215.075	160.9	1.63
217.153	162.36	1.64
219.305	163.88	1.66
221.53	165.48	1.67
223.743	167.09	1.69
225.945	168.64	1.71
228.137	170.2	1.72
230.357	171.83	1.74
232.606	173.46	1.75
234.867	174.98	1.77
237.14	176.72	1.79
239.402	178.38	1.8
241.692	179.82	1.82
244.01	181.62	1.84
246.317	183.25	1.85
248.613	184.95	1.87
250.898	186.65	1.89
253.211	188.45	1.9
255.553	189.85	1.92
257.884	191.75	1.94
282.337	209.34	2.11
284.805	211	2.13
287.312	212.9	2.15
289.9	214.79	2.17
292.519	216.73	2.19
295.126	218.64	2.21
260.925	193.78	1.96
263.324	195.6	1.98
265.712	197.22	1.99
268.09	199.02	2.01
270.497	200.87	2.03
272.985	202.45	2.04
275.516	204.17	2.06
278.036	206.05	2.08
280.546	207.87	2.1
283.141	209.63	2.12
285.818	211.74	2.14
288.482	213.7	2.16
291.134	215.63	2.18
293.773	217.6	2.2
296.44	219.94	2.22
299.137	221.01	2.23
301.822	223.5	2.26
304.494	225.49	2.27
307.153	227.47	2.29
309.84	229.4	2.31
312.556	231.38	2.33
315.259	233.4	2.35
318.012	235.4	2.37
320.812	237.33	2.39
323.638	239.66	2.42
326.49	241.59	2.44
329.33	243.86	2.46
82.723	64.371	0.655
83.74	65.189	0.663
84.744	66.035	0.672
85.735	66.804	0.679
86.714	67.552	0.687
87.726	68.445	0.696
88.795	69.225	0.704
89.879	70.111	0.713
90.949	70.984	0.735
92.007	71.784	0.743
93.097	72.722	0.753
94.218	73.578	0.761
95.326	74.472	0.77
96.441	75.315	0.778
97.562	76.242	0.787
98.714	77.106	0.796
99.917	78.036	0.805
101.127	78.975	0.814
102.325	79.858	0.823
103.51	80.734	0.832
104.726	81.748	0.842
105.972	82.655	0.85
107.206	83.555	0.859
108.428	84.599	0.87
109.639	85.406	0.878
110.88	86.328	0.887
112.149	87.32	0.897
113.407	88.292	0.906
114.655	89.153	0.915
115.892	90.079	0.924
117.157	91.027	0.933
118.472	92.105	0.944
119.798	92.978	0.953
121.114	93.951	0.962
122.42	94.915	0.972
123.754	95.916	0.982
125.14	96.918	0.992
126.538	97.928	1.002
127.927	98.985	1.012
129.305	99.932	1.022
130.711	100.99	1.03
132.144	102.08	1.04
133.593	103.04	1.05
135.056	104.17	1.06
136.51	105.24	1.07
137.991	106.23	1.08
139.5	107.37	1.1
140.998	108.43	1.11
142.486	109.66	1.12
143.966	110.56	1.13
145.472	111.62	1.14
147.046	112.77	1.15
148.652	113.9	1.16
150.248	115.05	1.17
151.833	116.23	1.18
153.447	117.32	1.19
155.088	118.5	1.21
156.718	119.64	1.22
158.339	120.83	1.23
159.951	121.9	1.24
161.589	123.12	1.25
163.254	124.33	1.26
164.909	125.57	1.28
166.602	126.8	1.29
168.333	127.92	1.3
170.091	129.15	1.31
171.876	130.42	1.33
173.651	131.69	1.34
175.418	132.94	1.35
177.226	134.2	1.36
179.113	135.51	1.38
181.028	136.92	1.39
182.933	138.2	1.4
184.828	139.53	1.42
186.711	140.84	1.43
188.622	142.21	1.44
190.561	143.63	1.46
192.489	144.97	1.47
194.407	146.37	1.48
196.316	147.62	1.5
198.253	149.1	1.51
200.216	150.43	1.52
202.17	151.83	1.54
204.115	153.18	1.55
79.191	61.65	0.63
80.162	62.267	0.634
81.119	63.074	0.642
82.064	63.872	0.65
83.042	64.715	0.658
84.054	65.436	0.666
85.054	66.257	0.674
86.067	67.062	0.682
87.092	67.955	0.691
88.151	68.718	0.699
89.242	69.63	0.708
90.321	70.446	0.73
91.387	71.325	0.739
92.441	72.095	0.746
93.526	73.056	0.756
94.642	73.828	0.763
95.764	74.707	0.772
96.922	75.66	0.781
98.117	76.552	0.79
99.365	77.576	0.8
100.645	78.575	0.81
101.911	79.488	0.819
103.164	80.396	0.828
104.404	81.448	0.839
105.675	82.373	0.848
106.976	83.322	0.857
108.265	84.281	0.867
109.542	85.267	0.876
110.807	86.254	0.886
112.101	87.186	0.895
113.426	88.235	0.906
114.739	89.177	0.915
116.04	90.203	0.925
117.33	91.115	0.934
118.649	92.133	0.944
119.998	93.095	0.954
14.017	3.439	0.044
14.396	3.754	0.048
14.858	4.085	0.051
15.367	4.483	0.055
15.883	4.798	0.058
16.386	5.238	0.063
16.87	5.647	0.067
17.361	6.237	0.073
17.89	6.508	0.076
18.415	6.995	0.081
18.93	7.521	0.086
19.456	7.915	0.09
19.98	8.416	0.095
20.503	8.908	0.1
21.031	9.391	0.105
21.569	9.861	0.109
22.128	10.422	0.115
22.695	10.962	0.12
23.257	11.483	0.125
23.813	12.257	0.133
24.362	12.535	0.136
24.901	13.064	0.141
25.452	13.611	0.146
26.021	14.148	0.151
26.594	14.756	0.157
27.153	15.338	0.163
27.702	15.88	0.168
28.264	16.42	0.173
28.821	16.949	0.178
29.374	17.414	0.182
29.949	18.063	0.189
30.545	18.625	0.195
31.163	19.165	0.2
31.803	19.88	0.208
32.462	20.435	0.213
33.134	21.087	0.22
33.805	21.782	0.227
34.477	22.3	0.232
35.169	22.97	0.238
35.885	23.741	0.246
36.626	24.383	0.252
37.359	25.09	0.259
38.077	25.782	0.266
38.813	26.515	0.274
39.579	27.163	0.28
40.433	27.952	0.288
41.278	28.772	0.296
42.024	29.396	0.303
42.778	30.126	0.31
43.571	30.791	0.317
44.368	31.594	0.325
45.161	32.248	0.331
45.96	33.049	0.339
46.745	33.715	0.346
47.529	34.416	0.353
48.329	35.154	0.361
49.135	35.86	0.368
49.943	36.622	0.375
50.754	37.332	0.382
51.568	38.053	0.39
52.373	38.741	0.397
53.171	39.437	0.404
53.963	40.143	0.411
54.748	40.849	0.418
55.534	41.563	0.425
56.332	42.229	0.432
57.137	42.923	0.439
57.944	43.516	0.445
58.761	44.304	0.453
59.582	45.033	0.46
60.405	45.786	0.468
61.239	46.573	0.475
62.078	47.206	0.482
62.924	47.954	0.489
63.779	48.659	0.496
64.637	49.466	0.505
65.501	50.217	0.512
66.416	50.914	0.519
67.375	51.707	0.527
68.317	52.507	0.535
69.243	53.267	0.543
70.153	54.042	0.551
71.104	54.879	0.559
72.094	55.673	0.567
73.084	56.506	0.576
74.091	57.322	0.584
75.106	58.143	0.592
76.168	59.033	0.601
77.296	59.963	0.61
78.434	60.886	0.62
79.553	61.796	0.629
80.674	62.638	0.637
81.853	63.651	0.648
83.069	64.592	0.657
84.299	65.597	0.667
85.576	66.725	0.679
86.87	67.596	0.687
88.2	68.718	0.699
89.568	69.806	0.71
90.915	70.895	0.735
92.243	71.949	0.745
93.552	72.932	0.755
94.898	74.009	0.765
96.279	75.124	0.776
97.642	76.122	0.786
98.988	77.217	0.797
100.318	78.218	0.807
101.683	79.267	0.817
103.082	80.34	0.828
104.465	81.419	0.838
105.832	82.472	0.849
107.185	83.495	0.859
108.571	84.513	0.869
109.99	85.607	0.88
111.394	86.667	0.89
112.783	87.696	0.9
114.161	88.71	0.91
115.571	89.775	0.921
117.012	90.832	0.931
118.44	91.896	0.942
119.855	92.953	0.952
121.285	94.007	0.963
122.773	95.151	0.974
124.293	96.234	0.985
125.801	97.357	0.996
127.295	98.492	1.007
128.777	99.541	1.018
130.29	100.63	1.029
131.835	101.76	1.04
133.366	102.87	1.051
134.886	103.97	1.06
136.439	105.12	1.07
138.07	106.25	1.08
139.732	107.46	1.1
141.381	108.63	1.11
143.018	109.81	1.12
144.643	111.02	1.13
146.3	112.15	1.14
147.987	113.34	1.15
149.662	114.52	1.17
151.326	115.73	1.18
152.98	116.92	1.19
154.662	118.11	1.2
156.375	119.3	1.21
158.077	120.68	1.23
159.803	121.76	1.24
161.551	122.94	1.25
163.33	124.2	1.26
165.138	125.56	1.28
166.935	126.82	1.29
168.722	128.08	1.3
170.498	129.38	1.31
172.305	130.62	1.33
174.14	131.92	1.34
175.966	133.17	1.35
177.781	134.49	1.37
179.586	135.75	1.38
181.458	137.08	1.39
183.396	138.47	1.41
185.323	139.84	1.42
187.278	141.21	1.43
189.263	142.58	1.45
191.276	144.05	1.46
193.319	145.45	1.47
195.352	146.92	1.49
197.375	148.33	1.5
199.387	149.76	1.52
201.428	151.19	1.53
203.498	152.67	1.55
205.558	154.09	1.56
207.608	155.56	1.58
209.648	157.04	1.59
211.716	158.49	1.61
213.813	160.01	1.62
215.9	161.43	1.63
217.977	163.06	1.65
220.045	164.46	1.66
222.208	165.84	1.68
224.466	167.6	1.7
226.712	169.21	1.71
228.947	170.75	1.73
231.245	172.46	1.74
233.645	174.15	1.76
236.075	175.9	1.78
238.494	177.45	1.79
240.952	179.37	1.81
243.453	181.14	1.83
245.985	183.07	1.85
248.545	184.87	1.87
251.091	186.81	1.89
253.626	188.66	1.91
256.149	190.4	1.92
258.699	192.25	1.94
281.851	208.9	2.11
284.445	210.76	2.13
287.068	212.81	2.15
289.681	214.75	2.17
292.283	216.49	2.18
294.873	218.44	2.2
297.49	220.33	2.22
300.135	222.34	2.24
302.768	224.25	2.26
305.388	226.09	2.28
307.997	228.01	2.3
310.632	229.95	2.32
313.292	231.87	2.34
315.942	233.92	2.36
318.579	235.78	2.38
321.203	237.81	2.4
323.854	239.71	2.42
326.529	241.79	2.44
329.193	243.75	2.46

System: D-psicose; phases: Crystal
Fixed: Pressure, kPa = 101.325
Property: Molar heat capacity at constant pressure, J/K/mol (Crystal); method: Vacuum adiabatic calorimetry
Temperature, K	Molar heat capacity at constant pressure, J/K/mol	uncertainty
10	1.06	0.02
20	8.42	0.1
30	18.07	0.19
40	27.53	0.28
50	36.64	0.38
60	45.42	0.46
70	53.92	0.55
80	62.17	0.63
90	70.2	0.73
100	78.04	0.8
110	85.65	0.88
120	93.09	0.95
130	100.42	1.03
140	107.65	1.1
150	114.81	1.17
160	121.93	1.24
170	129.01	1.31
180	136.08	1.38
190	143.15	1.45
200	150.21	1.52
210	157.3	1.59
220	164.4	1.66
230	171.54	1.74
240	178.72	1.81
250	185.94	1.88
260	193.15	1.95
270	200.36	2.02
280	207.59	2.1
290	214.85	2.17
300	222.14	2.24
310	229.48	2.31
320	236.88	2.39
330	244.34	2.46
298.15	220.79	2.23

System: D-psicose; phases: Crystal
Fixed: Pressure, kPa = 101.325
Property: Molar enthalpy function {Hm(T)-Hm(0)}/T, J/K/mol (Crystal); method: Vacuum adiabatic calorimetry
Temperature, K	Molar enthalpy function {Hm(T)-Hm(0)}/T, J/K/mol	uncertainty
10	0.2	0.01
20	2.27	0.03
30	5.92	0.07
40	10.15	0.11
50	14.54	0.15
60	18.96	0.2
70	23.35	0.24
80	27.69	0.29
90	31.97	0.36
100	36.19	0.4
110	40.34	0.44
120	44.42	0.48
130	48.45	0.52
140	52.42	0.55
150	56.34	0.59
160	60.22	0.63
170	64.06	0.67
180	67.86	0.7
190	71.64	0.74
200	75.39	0.78
210	79.12	0.82
220	82.84	0.85
230	86.54	0.89
240	90.23	0.93
250	93.91	0.96
260	97.59	1
270	101.26	1.03
280	104.93	1.07
290	108.6	1.11
300	112.26	1.14
310	115.92	1.18
320	119.59	1.22
330	123.25	1.25
298.15	111.58	1.14

System: D-psicose; phases: Crystal
Fixed: Pressure, kPa = 101.325
Property: Molar entropy, J/K/mol (Crystal); method: Vacuum adiabatic calorimetry
Temperature, K	Molar entropy, J/K/mol	uncertainty
10	0.25	0.02
20	2.96	0.05
30	8.19	0.14
40	14.69	0.23
50	21.82	0.34
60	29.28	0.45
70	36.93	0.57
80	44.67	0.68
90	52.46	0.83
100	60.26	0.95
110	68.06	1.06
120	75.83	1.17
130	83.57	1.29
140	91.28	1.4
150	98.95	1.52
160	106.58	1.63
170	114.19	1.75
180	121.76	1.86
190	129.31	1.97
200	136.83	2.08
210	144.33	2.2
220	151.81	2.31
230	159.28	2.42
240	166.73	2.53
250	174.17	2.64
260	181.61	2.75
270	189.03	2.87
280	196.45	2.98
290	203.86	3.09
300	211.27	3.2
310	218.67	3.31
320	226.07	3.42
330	233.48	3.53
298.15	209.9	3.18

System: D-(-)-tagatose; phases: Crystal
Fixed: Pressure, kPa = 101.325
Property: Molar heat capacity at constant pressure, J/K/mol (Crystal); method: Vacuum adiabatic calorimetry
Temperature, K	Molar heat capacity at constant pressure, J/K/mol	uncertainty
14.021	2.674	0.035
14.414	2.87	0.037
14.815	3.123	0.04
15.251	3.307	0.042
15.733	3.601	0.045
16.231	3.917	0.048
16.723	4.241	0.051
17.214	4.591	0.055
17.737	4.922	0.059
18.259	5.33	0.063
18.789	5.733	0.067
19.325	6.103	0.07
19.883	6.523	0.075
20.458	6.946	0.079
21.024	7.413	0.084
21.589	7.933	0.089
22.169	8.327	0.093
22.739	8.872	0.098
23.292	9.326	0.103
23.865	9.837	0.108
24.425	10.342	0.113
24.96	10.794	0.117
25.497	11.351	0.123
26.054	11.752	0.126
26.633	12.359	0.132
27.21	12.841	0.137
27.799	13.389	0.142
28.43	14.043	0.148
29.076	14.606	0.154
29.705	15.2	0.159
30.316	15.746	0.166
30.927	16.365	0.173
31.543	16.953	0.178
32.18	17.492	0.184
32.849	18.201	0.191
33.507	18.788	0.197
34.166	19.455	0.203
34.852	20.137	0.21
35.557	20.805	0.217
36.254	21.423	0.223
36.923	22.119	0.23
37.601	22.72	0.236
38.322	23.45	0.243
39.061	24.193	0.251
39.803	24.863	0.257
40.562	25.591	0.265
41.342	26.389	0.273
42.118	27.166	0.28
42.903	27.838	0.287
43.731	28.655	0.295
44.594	29.455	0.303
45.468	30.307	0.312
46.325	31.153	0.32
47.169	31.931	0.328
48.012	32.721	0.336
48.86	33.491	0.344
49.726	34.489	0.354
50.588	35.104	0.36
51.438	35.897	0.368
52.285	36.698	0.376
53.118	37.43	0.383
53.936	38.194	0.391
54.733	38.964	0.399
55.508	39.604	0.405
56.289	40.337	0.413
57.085	41.062	0.42
57.889	41.796	0.427
58.702	42.514	0.435
59.509	43.277	0.442
60.354	44.056	0.45
61.19	44.775	0.457
62.016	45.553	0.465
62.841	46.279	0.473
63.665	46.991	0.48
64.474	47.708	0.487
65.283	48.44	0.494
66.093	49.12	0.501
66.904	49.844	0.508
67.716	50.534	0.515
68.516	51.296	0.523
69.304	51.992	0.53
70.081	52.627	0.536
70.847	53.292	0.543
71.656	53.999	0.55
72.507	54.754	0.558
73.345	55.432	0.565
74.171	56.154	0.572
74.986	56.783	0.578
75.84	57.553	0.586
76.732	58.367	0.594
77.613	59.047	0.601
78.482	59.831	0.609
79.341	60.575	0.617
80.236	61.323	0.624
81.181	62.126	0.632
82.13	62.93	0.64
83.068	63.682	0.648
84.01	64.466	0.656
85.003	65.338	0.665
86.03	66.112	0.672
87.063	66.913	0.681
88.099	67.793	0.689
89.123	68.688	0.698
90.182	69.573	0.722
91.273	70.49	0.731
92.352	71.335	0.739
93.418	72.218	0.748
94.473	73.05	0.756
95.56	73.96	0.765
96.679	74.836	0.773
97.786	75.754	0.782
98.88	76.689	0.792
99.964	77.458	0.799
101.099	78.369	0.808
102.284	79.317	0.818
103.457	80.267	0.827
104.638	81.161	0.836
105.829	82.135	0.845
107.051	83.091	0.855
108.302	84.089	0.865
109.542	85.067	0.874
110.792	86.047	0.884
112.054	87.008	0.894
113.369	88.063	0.904
114.739	89.111	0.914
116.095	90.163	0.925
117.438	91.226	0.935
118.77	92.197	0.945
120.132	93.303	0.956
121.523	94.392	0.967
122.903	95.402	0.977
124.271	96.478	0.987
125.628	97.471	0.997
127.055	98.591	1.008
128.549	99.745	1.02
130.031	100.83	1.03
131.501	101.97	1.04
132.96	103.07	1.05
134.449	104.19	1.06
135.965	105.29	1.07
137.471	106.45	1.09
138.965	107.56	1.1
140.448	108.68	1.11
141.96	109.8	1.12
143.499	110.93	1.13
145.028	112.09	1.14
146.546	113.1	1.15
148.099	114.27	1.16
149.725	115.49	1.18
151.43	116.75	1.19
153.171	118.02	1.2
154.9	119.31	1.21
156.618	120.56	1.23
158.365	121.84	1.24
160.14	123.23	1.25
161.939	124.54	1.27
163.762	125.92	1.28
165.573	127.19	1.29
167.414	128.53	1.31
169.283	129.9	1.32
171.14	131.27	1.33
172.985	132.6	1.35
174.818	134.01	1.36
176.68	135.37	1.37
178.57	136.72	1.39
180.488	138.21	1.4
182.433	139.62	1.42
184.366	141.02	1.43
186.327	142.53	1.45
188.317	143.96	1.46
190.295	145.43	1.47
192.261	146.89	1.49
194.216	148.2	1.5
196.199	149.78	1.52
198.209	151.32	1.53
200.208	152.77	1.55
202.195	154.24	1.56
204.236	155.8	1.58
206.371	157.27	1.59
208.532	159.03	1.61
210.682	160.61	1.63
212.819	162.18	1.64
214.944	163.84	1.66
217.098	165.39	1.67
219.278	167.07	1.69
221.446	168.71	1.71
223.603	170.37	1.72
225.819	171.99	1.74
228.135	173.74	1.76
230.479	175.53	1.78
232.809	177.33	1.79
235.126	179.15	1.81
237.482	180.87	1.83
239.921	182.64	1.85
242.387	184.45	1.86
244.84	186.37	1.88
247.278	188.22	1.9
249.703	190.03	1.92
252.154	192.06	1.94
254.631	194.03	1.96
257.096	195.94	1.98
259.546	197.81	2
261.984	199.73	2.02
264.448	201.55	2.04
266.939	203.51	2.06
269.417	205.41	2.07
271.881	207.63	2.1
274.332	209.55	2.12
276.806	211.93	2.14
279.305	213.91	2.16
281.791	215.77	2.18
284.263	217.69	2.2
286.726	219.65	2.22
289.213	221.51	2.24
291.725	223.31	2.25
294.223	225.32	2.27
296.708	227.47	2.29
299.181	229.22	2.31
301.764	231.28	2.33
304.46	233.53	2.36
307.143	235.53	2.38
309.811	237.67	2.4
312.465	239.92	2.42
315.142	241.99	2.44
317.843	244.2	2.46
320.529	246.19	2.48
323.201	248.11	2.5
325.859	250.28	2.52
328.543	252.68	2.55
331.249	254.96	2.57

System: D-(-)-tagatose; phases: Crystal
Fixed: Pressure, kPa = 101.325
Property: Molar heat capacity at constant pressure, J/K/mol (Crystal); method: Vacuum adiabatic calorimetry
Temperature, K	Molar heat capacity at constant pressure, J/K/mol	uncertainty
10	0.94	0.02
20	6.61	0.08
30	15.48	0.16
40	25.07	0.26
50	34.58	0.35
60	43.72	0.45
70	52.55	0.54
80	61.11	0.62
90	69.42	0.72
100	77.52	0.8
110	85.43	0.88
120	93.18	0.95
130	100.79	1.03
140	108.3	1.1
150	115.72	1.18
160	123.1	1.25
170	130.45	1.33
180	137.8	1.4
190	145.19	1.47
200	152.62	1.55
210	160.09	1.62
220	167.61	1.7
230	175.16	1.77
240	182.74	1.85
250	190.36	1.92
260	198.11	2
270	206.1	2.08
280	214.24	2.16
290	222.17	2.24
300	229.99	2.32
310	237.81	2.4
320	245.73	2.48
330	253.86	2.56
298.15	228.55	2.31

System: D-(-)-tagatose; phases: Crystal
Fixed: Pressure, kPa = 101.325
Property: Molar enthalpy function {Hm(T)-Hm(0)}/T, J/K/mol (Crystal); method: Vacuum adiabatic calorimetry
Temperature, K	Molar enthalpy function {Hm(T)-Hm(0)}/T, J/K/mol	uncertainty
10	0.19	0.01
20	1.79	0.02
30	4.83	0.06
40	8.69	0.1
50	12.92	0.14
60	17.3	0.18
70	21.71	0.23
80	26.1	0.27
90	30.45	0.35
100	34.76	0.39
110	39	0.43
120	43.2	0.47
130	47.34	0.5
140	51.42	0.54
150	55.46	0.58
160	59.46	0.62
170	63.42	0.66
180	67.35	0.7
190	71.25	0.74
200	75.13	0.78
210	79	0.81
220	82.86	0.85
230	86.71	0.89
240	90.55	0.93
250	94.39	0.97
260	98.23	1
270	102.07	1.04
280	105.94	1.08
290	109.81	1.12
300	113.68	1.16
310	117.56	1.2
320	121.44	1.24
330	125.33	1.27
298.15	112.97	1.15

System: D-(-)-tagatose; phases: Crystal
Fixed: Pressure, kPa = 101.325
Property: Molar entropy, J/K/mol (Crystal); method: Vacuum adiabatic calorimetry
Temperature, K	Molar entropy, J/K/mol	uncertainty
10	0.24	0.02
20	2.37	0.04
30	6.67	0.12
40	12.43	0.2
50	19.05	0.3
60	26.17	0.4
70	33.58	0.52
80	41.15	0.63
90	48.83	0.78
100	56.57	0.89
110	64.33	1
120	72.1	1.12
130	79.86	1.23
140	87.6	1.35
150	95.33	1.46
160	103.03	1.58
170	110.71	1.69
180	118.38	1.81
190	126.03	1.92
200	133.66	2.04
210	141.29	2.15
220	148.91	2.26
230	156.53	2.38
240	164.14	2.49
250	171.76	2.61
260	179.37	2.72
270	187	2.83
280	194.64	2.95
290	202.3	3.06
300	209.96	3.18
310	217.63	3.29
320	225.31	3.41
330	232.99	3.52
298.15	208.54	3.16
