Measured thermophysical data. Experimental density and PC-SAFT modeling of biofuel mixtures (DBE + 1-Heptanol) at temperatures from (298.15 to 393.15) K and at pressures up to 140 MPa
Source: J. Chem. Thermodyn., 2019, 10.1016/j.jct.2018.11.010
Compound 1: heptan-1-ol, C7H16O, InChI=1S/C7H16O/c1-2-3-4-5-6-7-8/h8H,2-7H2,1H3, purity 98%
Compound 2: dibutyl ether, C8H18O, InChI=1S/C8H18O/c1-3-5-7-9-8-6-4-2/h3-8H2,1-2H3, purity 99.3%

System: dibutyl ether; phases: Liquid
Property: Mass density, kg/m3 (Liquid); method: Vibrating tube method
Temperature, K	Pressure, kPa	Mass density, kg/m3	uncertainty
298.15	100	763.8	0.7
298.15	1000	764.7	0.7
298.15	5000	768.2	0.7
298.15	10000	772.4	0.7
298.15	15000	776.4	0.8
298.15	20000	780.2	0.8
298.15	25000	783.7	0.8
298.15	30000	787.3	0.8
298.15	35000	790.6	0.8
298.15	40000	793.8	0.8
298.15	45000	796.9	0.9
298.15	50000	799.8	0.9
298.15	55000	802.8	0.9
298.15	60000	805.6	0.9
298.15	65000	808.3	0.9
298.15	70000	811	0.9
298.15	80000	816.1	1
298.15	90000	821	1
298.15	100000	825.5	1
298.15	110000	830	1.1
298.15	120000	834.2	1.1
298.15	130000	838.3	1.1
298.15	140000	842.1	1.2
313.15	100	750.7	0.7
313.15	1000	751.6	0.7
313.15	5000	755.6	0.7
313.15	10000	760.1	0.7
313.15	15000	764.5	0.8
313.15	20000	768.6	0.8
313.15	25000	772.3	0.8
313.15	30000	776.2	0.8
313.15	35000	779.7	0.8
313.15	40000	783.1	0.8
313.15	45000	786.4	0.9
313.15	50000	789.7	0.9
313.15	55000	792.7	0.9
313.15	60000	795.7	0.9
313.15	65000	798.6	0.9
313.15	70000	801.4	1
313.15	80000	806.7	1
313.15	90000	811.9	1
313.15	100000	816.7	1.1
313.15	110000	821.4	1.1
313.15	120000	825.7	1.1
313.15	130000	830.1	1.2
313.15	140000	834.2	1.2
333.15	100	733	0.7
333.15	1000	734	0.7
333.15	5000	738.5	0.7
333.15	10000	743.6	0.8
333.15	15000	748.6	0.8
333.15	20000	753.1	0.8
333.15	25000	757.5	0.8
333.15	30000	761.5	0.8
333.15	35000	765.5	0.8
333.15	40000	769.2	0.9
333.15	45000	772.7	0.9
333.15	50000	776.2	0.9
333.15	55000	779.6	0.9
333.15	60000	782.7	0.9
333.15	65000	785.8	1
333.15	70000	788.8	1
333.15	80000	794.6	1
333.15	90000	800	1.1
333.15	100000	805.2	1.1
333.15	110000	810	1.1
333.15	120000	814.7	1.2
333.15	130000	819.3	1.2
333.15	140000	823.5	1.2
353.15	100	715	0.7
353.15	1000	716.2	0.7
353.15	5000	721.3	0.7
353.15	10000	727.2	0.8
353.15	15000	732.7	0.8
353.15	20000	737.8	0.8
353.15	25000	742.6	0.8
353.15	30000	747.1	0.8
353.15	35000	751.4	0.9
353.15	40000	755.4	0.9
353.15	45000	759.3	0.9
353.15	50000	763	0.9
353.15	55000	766.6	0.9
353.15	60000	770.1	1
353.15	65000	773.4	1
353.15	70000	776.7	1
353.15	80000	782.7	1
353.15	90000	788.5	1.1
353.15	100000	794	1.1
353.15	110000	799.2	1.2
353.15	120000	804	1.2
353.15	130000	808.7	1.2
353.15	140000	813.3	1.3
373.15	1000	697.9	0.7
373.15	5000	703.8	0.7
373.15	10000	710.5	0.8
373.15	15000	716.7	0.8
373.15	20000	722.4	0.8
373.15	25000	727.7	0.8
373.15	30000	732.7	0.8
373.15	35000	737.4	0.9
373.15	40000	741.9	0.9
373.15	45000	746.1	0.9
373.15	50000	750	0.9
373.15	55000	754	1
373.15	60000	757.7	1
373.15	65000	761.2	1
373.15	70000	764.6	1
373.15	80000	771.2	1.1
373.15	90000	777.3	1.1
373.15	100000	783	1.2
373.15	110000	788.5	1.2
373.15	120000	793.6	1.2
373.15	130000	798.6	1.3
373.15	140000	803.3	1.3
393.15	1000	679	0.7
393.15	5000	685.9	0.8
393.15	10000	693.5	0.8
393.15	15000	700.6	0.8
393.15	20000	706.9	0.8
393.15	25000	712.8	0.8
393.15	30000	718.3	0.9
393.15	35000	723.5	0.9
393.15	40000	728.3	0.9
393.15	45000	732.8	0.9
393.15	50000	737.2	0.9
393.15	55000	741.4	1
393.15	60000	745.3	1
393.15	65000	749.1	1
393.15	70000	752.8	1.1
393.15	80000	759.7	1.1
393.15	90000	766.2	1.1
393.15	100000	772.3	1.2
393.15	110000	778.1	1.2
393.15	120000	783.4	1.3
393.15	130000	788.6	1.3
393.15	140000	793.6	1.4

System: heptan-1-ol + dibutyl ether; phases: Liquid
Property: Mass density, kg/m3 (Liquid); method: Vibrating tube method
Mole fraction of dibutyl ether	Temperature, K	Pressure, kPa	Mass density, kg/m3	uncertainty
0	298.15	100	818.7	0.9
0	298.15	1000	819.3	0.9
0	298.15	5000	821.9	0.9
0	298.15	10000	824.9	1
0	298.15	15000	828	1
0	298.15	20000	830.8	1
0	298.15	25000	833.5	1
0	298.15	30000	836.3	1
0	298.15	35000	838.8	1.1
0	298.15	40000	841.3	1.1
0	298.15	45000	843.8	1.1
0	298.15	50000	846.2	1.1
0	298.15	55000	848.5	1.1
0	298.15	60000	850.8	1.2
0	298.15	65000	853	1.2
0	298.15	70000	855.2	1.2
0	298.15	80000	859.4	1.2
0	298.15	90000	863.5	1.3
0	298.15	100000	867.3	1.3
0	298.15	110000	871.1	1.3
0	298.15	120000	874.6	1.4
0	298.15	130000	878.1	1.4
0	298.15	140000	881.5	1.4
0	313.15	100	808	0.9
0	313.15	1000	808.6	0.9
0	313.15	5000	811.4	0.9
0	313.15	10000	814.7	1
0	313.15	15000	817.9	1
0	313.15	20000	821	1
0	313.15	25000	823.8	1
0	313.15	30000	826.8	1
0	313.15	35000	829.5	1.1
0	313.15	40000	832.1	1.1
0	313.15	45000	834.7	1.1
0	313.15	50000	837.2	1.1
0	313.15	55000	839.7	1.2
0	313.15	60000	842.1	1.2
0	313.15	65000	844.4	1.2
0	313.15	70000	846.7	1.2
0	313.15	80000	851.1	1.3
0	313.15	90000	855.3	1.3
0	313.15	100000	859.3	1.3
0	313.15	110000	863.2	1.4
0	313.15	120000	867	1.4
0	313.15	130000	870.6	1.4
0	313.15	140000	874.2	1.4
0	333.15	100	793.3	0.9
0	333.15	1000	794	0.9
0	333.15	5000	797.1	0.9
0	333.15	10000	800.7	1
0	333.15	15000	804.3	1
0	333.15	20000	807.7	1
0	333.15	25000	810.8	1
0	333.15	30000	813.9	1.1
0	333.15	35000	816.9	1.1
0	333.15	40000	819.8	1.1
0	333.15	45000	822.4	1.1
0	333.15	50000	825.2	1.1
0	333.15	55000	827.8	1.2
0	333.15	60000	830.3	1.2
0	333.15	65000	832.9	1.2
0	333.15	70000	835.3	1.2
0	333.15	80000	839.9	1.3
0	333.15	90000	844.5	1.3
0	333.15	100000	848.7	1.3
0	333.15	110000	852.8	1.4
0	333.15	120000	856.8	1.4
0	333.15	130000	860.5	1.4
0	333.15	140000	864.3	1.5
0	353.15	100	778.1	0.9
0	353.15	1000	778.8	0.9
0	353.15	5000	782.3	0.9
0	353.15	10000	786.3	0.9
0	353.15	15000	790.2	1
0	353.15	20000	793.9	1
0	353.15	25000	797.3	1
0	353.15	30000	800.7	1.1
0	353.15	35000	804	1.1
0	353.15	40000	807.1	1.1
0	353.15	45000	810	1.1
0	353.15	50000	813	1.2
0	353.15	55000	815.8	1.2
0	353.15	60000	818.6	1.2
0	353.15	65000	821.2	1.2
0	353.15	70000	823.8	1.2
0	353.15	80000	828.7	1.3
0	353.15	90000	833.5	1.3
0	353.15	100000	837.9	1.4
0	353.15	110000	842.3	1.4
0	353.15	120000	846.4	1.4
0	353.15	130000	850.3	1.5
0	353.15	140000	854.3	1.5
0	373.15	100	761.9	0.9
0	373.15	1000	762.8	0.9
0	373.15	5000	766.6	0.9
0	373.15	10000	771.1	0.9
0	373.15	15000	775.5	1
0	373.15	20000	779.5	1
0	373.15	25000	783.4	1
0	373.15	30000	787.1	1.1
0	373.15	35000	790.6	1.1
0	373.15	40000	794	1.1
0	373.15	45000	797.2	1.1
0	373.15	50000	800.3	1.2
0	373.15	55000	803.4	1.2
0	373.15	60000	806.3	1.2
0	373.15	65000	809.2	1.2
0	373.15	70000	811.9	1.3
0	373.15	80000	817.2	1.3
0	373.15	90000	822.3	1.4
0	373.15	100000	827	1.4
0	373.15	110000	831.6	1.4
0	373.15	120000	835.9	1.5
0	373.15	130000	840.2	1.5
0	373.15	140000	844.1	1.5
0	393.15	100	744.9	0.9
0	393.15	1000	745.8	0.9
0	393.15	5000	750.2	0.9
0	393.15	10000	755.3	0.9
0	393.15	15000	760.1	1
0	393.15	20000	764.6	1
0	393.15	25000	768.8	1
0	393.15	30000	772.9	1.1
0	393.15	35000	776.8	1.1
0	393.15	40000	780.4	1.1
0	393.15	45000	783.9	1.1
0	393.15	50000	787.3	1.2
0	393.15	55000	790.7	1.2
0	393.15	60000	793.8	1.2
0	393.15	65000	796.8	1.3
0	393.15	70000	799.8	1.3
0	393.15	80000	805.5	1.3
0	393.15	90000	810.9	1.4
0	393.15	100000	815.9	1.4
0	393.15	110000	820.8	1.5
0	393.15	120000	825.3	1.5
0	393.15	130000	829.8	1.5
0	393.15	140000	834	1.6
0.1488	298.15	100	810.1	0.9
0.1488	298.15	1000	810.8	0.9
0.1488	298.15	5000	813.5	0.9
0.1488	298.15	10000	816.7	0.9
0.1488	298.15	15000	819.9	0.9
0.1488	298.15	20000	822.9	1
0.1488	298.15	25000	825.8	1
0.1488	298.15	30000	828.6	1
0.1488	298.15	35000	831.2	1
0.1488	298.15	40000	833.9	1
0.1488	298.15	45000	836.5	1.1
0.1488	298.15	50000	838.9	1.1
0.1488	298.15	55000	841.3	1.1
0.1488	298.15	60000	843.7	1.1
0.1488	298.15	65000	845.9	1.1
0.1488	298.15	70000	848.2	1.1
0.1488	298.15	80000	852.6	1.2
0.1488	298.15	90000	856.7	1.2
0.1488	298.15	100000	860.7	1.2
0.1488	298.15	110000	864.6	1.3
0.1488	298.15	120000	868.2	1.3
0.1488	298.15	130000	871.8	1.3
0.1488	298.15	140000	875.3	1.4
0.1488	313.15	100	799	0.9
0.1488	313.15	1000	799.7	0.9
0.1488	313.15	5000	802.6	0.9
0.1488	313.15	10000	806.1	0.9
0.1488	313.15	15000	809.5	0.9
0.1488	313.15	20000	812.7	1
0.1488	313.15	25000	815.6	1
0.1488	313.15	30000	818.8	1
0.1488	313.15	35000	821.6	1
0.1488	313.15	40000	824.4	1
0.1488	313.15	45000	827	1.1
0.1488	313.15	50000	829.7	1.1
0.1488	313.15	55000	832.3	1.1
0.1488	313.15	60000	834.8	1.1
0.1488	313.15	65000	837.2	1.1
0.1488	313.15	70000	839.6	1.2
0.1488	313.15	80000	844	1.2
0.1488	313.15	90000	848.4	1.2
0.1488	313.15	100000	852.5	1.3
0.1488	313.15	110000	856.6	1.3
0.1488	313.15	120000	860.4	1.3
0.1488	313.15	130000	864.2	1.4
0.1488	313.15	140000	867.8	1.4
0.1488	333.15	100	783.8	0.9
0.1488	333.15	1000	784.6	0.9
0.1488	333.15	5000	787.8	0.9
0.1488	333.15	10000	791.7	0.9
0.1488	333.15	15000	795.4	0.9
0.1488	333.15	20000	798.9	1
0.1488	333.15	25000	802.3	1
0.1488	333.15	30000	805.5	1
0.1488	333.15	35000	808.7	1
0.1488	333.15	40000	811.7	1.1
0.1488	333.15	45000	814.5	1.1
0.1488	333.15	50000	817.4	1.1
0.1488	333.15	55000	820.1	1.1
0.1488	333.15	60000	822.7	1.1
0.1488	333.15	65000	825.3	1.2
0.1488	333.15	70000	827.9	1.2
0.1488	333.15	80000	832.7	1.2
0.1488	333.15	90000	837.4	1.3
0.1488	333.15	100000	841.7	1.3
0.1488	333.15	110000	845.9	1.3
0.1488	333.15	120000	850	1.4
0.1488	333.15	130000	853.9	1.4
0.1488	333.15	140000	857.7	1.4
0.1488	353.15	100	768	0.9
0.1488	353.15	1000	768.8	0.9
0.1488	353.15	5000	772.5	0.9
0.1488	353.15	10000	776.8	0.9
0.1488	353.15	15000	781	1
0.1488	353.15	20000	784.8	1
0.1488	353.15	25000	788.5	1
0.1488	353.15	30000	792.1	1
0.1488	353.15	35000	795.5	1
0.1488	353.15	40000	798.6	1.1
0.1488	353.15	45000	801.8	1.1
0.1488	353.15	50000	804.9	1.1
0.1488	353.15	55000	807.8	1.1
0.1488	353.15	60000	810.7	1.2
0.1488	353.15	65000	813.5	1.2
0.1488	353.15	70000	816.2	1.2
0.1488	353.15	80000	821.2	1.2
0.1488	353.15	90000	826.2	1.3
0.1488	353.15	100000	830.8	1.3
0.1488	353.15	110000	835.3	1.4
0.1488	353.15	120000	839.5	1.4
0.1488	353.15	130000	843.7	1.4
0.1488	353.15	140000	847.6	1.5
0.1488	373.15	1000	752.3	0.9
0.1488	373.15	5000	756.5	0.9
0.1488	373.15	10000	761.3	0.9
0.1488	373.15	15000	765.9	1
0.1488	373.15	20000	770.2	1
0.1488	373.15	25000	774.3	1
0.1488	373.15	30000	778.1	1
0.1488	373.15	35000	781.9	1
0.1488	373.15	40000	785.4	1.1
0.1488	373.15	45000	788.9	1.1
0.1488	373.15	50000	792.1	1.1
0.1488	373.15	55000	795.2	1.1
0.1488	373.15	60000	798.3	1.2
0.1488	373.15	65000	801.3	1.2
0.1488	373.15	70000	804.1	1.2
0.1488	373.15	80000	809.7	1.3
0.1488	373.15	90000	814.9	1.3
0.1488	373.15	100000	819.8	1.3
0.1488	373.15	110000	824.5	1.4
0.1488	373.15	120000	829	1.4
0.1488	373.15	130000	833.4	1.5
0.1488	373.15	140000	837.4	1.5
0.1488	393.15	1000	734.9	0.9
0.1488	393.15	5000	739.7	0.9
0.1488	393.15	10000	745.1	0.9
0.1488	393.15	15000	750.3	1
0.1488	393.15	20000	755.1	1
0.1488	393.15	25000	759.6	1
0.1488	393.15	30000	763.8	1
0.1488	393.15	35000	767.9	1.1
0.1488	393.15	40000	771.8	1.1
0.1488	393.15	45000	775.4	1.1
0.1488	393.15	50000	779	1.1
0.1488	393.15	55000	782.5	1.2
0.1488	393.15	60000	785.7	1.2
0.1488	393.15	65000	788.9	1.2
0.1488	393.15	70000	792	1.2
0.1488	393.15	80000	797.8	1.3
0.1488	393.15	90000	803.5	1.3
0.1488	393.15	100000	808.6	1.4
0.1488	393.15	110000	813.7	1.4
0.1488	393.15	120000	818.3	1.5
0.1488	393.15	130000	822.9	1.5
0.1488	393.15	140000	827.3	1.5
0.3201	298.15	100	800.3	0.8
0.3201	298.15	1000	801	0.8
0.3201	298.15	5000	803.9	0.9
0.3201	298.15	10000	807.3	0.9
0.3201	298.15	15000	810.6	0.9
0.3201	298.15	20000	813.8	0.9
0.3201	298.15	25000	816.9	0.9
0.3201	298.15	30000	819.8	0.9
0.3201	298.15	35000	822.6	1
0.3201	298.15	40000	825.3	1
0.3201	298.15	45000	828	1
0.3201	298.15	50000	830.6	1
0.3201	298.15	55000	833.1	1
0.3201	298.15	60000	835.5	1
0.3201	298.15	65000	837.9	1.1
0.3201	298.15	70000	840.3	1.1
0.3201	298.15	80000	844.8	1.1
0.3201	298.15	90000	849.1	1.1
0.3201	298.15	100000	853.2	1.2
0.3201	298.15	110000	857.2	1.2
0.3201	298.15	120000	861	1.2
0.3201	298.15	130000	864.6	1.3
0.3201	298.15	140000	868.2	1.3
0.3201	313.15	100	788.8	0.8
0.3201	313.15	1000	789.5	0.8
0.3201	313.15	5000	792.5	0.9
0.3201	313.15	10000	796.3	0.9
0.3201	313.15	15000	799.8	0.9
0.3201	313.15	20000	803.3	0.9
0.3201	313.15	25000	806.4	0.9
0.3201	313.15	30000	809.7	0.9
0.3201	313.15	35000	812.7	1
0.3201	313.15	40000	815.5	1
0.3201	313.15	45000	818.3	1
0.3201	313.15	50000	821.1	1
0.3201	313.15	55000	823.8	1
0.3201	313.15	60000	826.4	1.1
0.3201	313.15	65000	828.9	1.1
0.3201	313.15	70000	831.3	1.1
0.3201	313.15	80000	836	1.1
0.3201	313.15	90000	840.6	1.2
0.3201	313.15	100000	844.8	1.2
0.3201	313.15	110000	849.1	1.2
0.3201	313.15	120000	853	1.3
0.3201	313.15	130000	856.9	1.3
0.3201	313.15	140000	860.6	1.3
0.3201	333.15	100	772.9	0.8
0.3201	333.15	1000	773.7	0.8
0.3201	333.15	5000	777.2	0.9
0.3201	333.15	10000	781.4	0.9
0.3201	333.15	15000	785.3	0.9
0.3201	333.15	20000	789.1	0.9
0.3201	333.15	25000	792.6	0.9
0.3201	333.15	30000	796	1
0.3201	333.15	35000	799.3	1
0.3201	333.15	40000	802.5	1
0.3201	333.15	45000	805.5	1
0.3201	333.15	50000	808.5	1
0.3201	333.15	55000	811.3	1.1
0.3201	333.15	60000	814.1	1.1
0.3201	333.15	65000	816.8	1.1
0.3201	333.15	70000	819.5	1.1
0.3201	333.15	80000	824.4	1.2
0.3201	333.15	90000	829.3	1.2
0.3201	333.15	100000	833.8	1.2
0.3201	333.15	110000	838.2	1.3
0.3201	333.15	120000	842.3	1.3
0.3201	333.15	130000	846.4	1.3
0.3201	333.15	140000	850.3	1.4
0.3201	353.15	100	756.6	0.8
0.3201	353.15	1000	757.4	0.8
0.3201	353.15	5000	761.4	0.9
0.3201	353.15	10000	766	0.9
0.3201	353.15	15000	770.4	0.9
0.3201	353.15	20000	774.5	0.9
0.3201	353.15	25000	778.4	0.9
0.3201	353.15	30000	782.3	1
0.3201	353.15	35000	785.8	1
0.3201	353.15	40000	789.2	1
0.3201	353.15	45000	792.5	1
0.3201	353.15	50000	795.8	1.1
0.3201	353.15	55000	798.8	1.1
0.3201	353.15	60000	801.8	1.1
0.3201	353.15	65000	804.7	1.1
0.3201	353.15	70000	807.5	1.1
0.3201	353.15	80000	812.8	1.2
0.3201	353.15	90000	817.9	1.2
0.3201	353.15	100000	822.7	1.3
0.3201	353.15	110000	827.4	1.3
0.3201	353.15	120000	831.8	1.3
0.3201	353.15	130000	836	1.4
0.3201	353.15	140000	840.1	1.4
0.3201	373.15	1000	740.4	0.8
0.3201	373.15	5000	744.8	0.9
0.3201	373.15	10000	750	0.9
0.3201	373.15	15000	754.9	0.9
0.3201	373.15	20000	759.5	0.9
0.3201	373.15	25000	763.9	0.9
0.3201	373.15	30000	768	1
0.3201	373.15	35000	772	1
0.3201	373.15	40000	775.7	1
0.3201	373.15	45000	779.3	1
0.3201	373.15	50000	782.7	1.1
0.3201	373.15	55000	786	1.1
0.3201	373.15	60000	789.2	1.1
0.3201	373.15	65000	792.3	1.1
0.3201	373.15	70000	795.3	1.2
0.3201	373.15	80000	801.1	1.2
0.3201	373.15	90000	806.5	1.2
0.3201	373.15	100000	811.5	1.3
0.3201	373.15	110000	816.5	1.3
0.3201	373.15	120000	821.1	1.4
0.3201	373.15	130000	825.6	1.4
0.3201	373.15	140000	829.8	1.4
0.3201	393.15	1000	722.5	0.9
0.3201	393.15	5000	727.6	0.9
0.3201	393.15	10000	733.5	0.9
0.3201	393.15	15000	739	0.9
0.3201	393.15	20000	744.2	0.9
0.3201	393.15	25000	749	1
0.3201	393.15	30000	753.5	1
0.3201	393.15	35000	757.8	1
0.3201	393.15	40000	761.9	1
0.3201	393.15	45000	765.8	1.1
0.3201	393.15	50000	769.4	1.1
0.3201	393.15	55000	773.2	1.1
0.3201	393.15	60000	776.5	1.1
0.3201	393.15	65000	779.8	1.2
0.3201	393.15	70000	783.1	1.2
0.3201	393.15	80000	789.2	1.2
0.3201	393.15	90000	795	1.3
0.3201	393.15	100000	800.4	1.3
0.3201	393.15	110000	805.6	1.4
0.3201	393.15	120000	810.4	1.4
0.3201	393.15	130000	815.1	1.4
0.3201	393.15	140000	819.7	1.5
0.4944	298.15	100	790.9	0.8
0.4944	298.15	1000	791.6	0.8
0.4944	298.15	5000	794.6	0.8
0.4944	298.15	10000	798.3	0.8
0.4944	298.15	15000	801.8	0.8
0.4944	298.15	20000	805	0.9
0.4944	298.15	25000	808.3	0.9
0.4944	298.15	30000	811.4	0.9
0.4944	298.15	35000	814.3	0.9
0.4944	298.15	40000	817.1	0.9
0.4944	298.15	45000	819.9	0.9
0.4944	298.15	50000	822.6	1
0.4944	298.15	55000	825.3	1
0.4944	298.15	60000	827.8	1
0.4944	298.15	65000	830.3	1
0.4944	298.15	70000	832.7	1
0.4944	298.15	80000	837.3	1.1
0.4944	298.15	90000	841.9	1.1
0.4944	298.15	100000	846.1	1.1
0.4944	298.15	110000	850.2	1.2
0.4944	298.15	120000	854	1.2
0.4944	298.15	130000	857.8	1.2
0.4944	298.15	140000	861.4	1.2
0.4944	313.15	100	778.9	0.8
0.4944	313.15	1000	779.7	0.8
0.4944	313.15	5000	783	0.8
0.4944	313.15	10000	786.9	0.8
0.4944	313.15	15000	790.7	0.8
0.4944	313.15	20000	794.3	0.9
0.4944	313.15	25000	797.5	0.9
0.4944	313.15	30000	801	0.9
0.4944	313.15	35000	804.2	0.9
0.4944	313.15	40000	807.1	0.9
0.4944	313.15	45000	810.1	1
0.4944	313.15	50000	812.9	1
0.4944	313.15	55000	815.7	1
0.4944	313.15	60000	818.4	1
0.4944	313.15	65000	821	1
0.4944	313.15	70000	823.5	1
0.4944	313.15	80000	828.4	1.1
0.4944	313.15	90000	833.2	1.1
0.4944	313.15	100000	837.5	1.2
0.4944	313.15	110000	841.8	1.2
0.4944	313.15	120000	845.9	1.2
0.4944	313.15	130000	849.9	1.2
0.4944	313.15	140000	853.7	1.3
0.4944	333.15	100	762.5	0.8
0.4944	333.15	1000	763.4	0.8
0.4944	333.15	5000	767.1	0.8
0.4944	333.15	10000	771.5	0.8
0.4944	333.15	15000	775.8	0.9
0.4944	333.15	20000	779.6	0.9
0.4944	333.15	25000	783.4	0.9
0.4944	333.15	30000	787	0.9
0.4944	333.15	35000	790.4	0.9
0.4944	333.15	40000	793.7	1
0.4944	333.15	45000	796.9	1
0.4944	333.15	50000	800	1
0.4944	333.15	55000	802.9	1
0.4944	333.15	60000	805.8	1
0.4944	333.15	65000	808.6	1
0.4944	333.15	70000	811.4	1.1
0.4944	333.15	80000	816.6	1.1
0.4944	333.15	90000	821.6	1.1
0.4944	333.15	100000	826.3	1.2
0.4944	333.15	110000	830.8	1.2
0.4944	333.15	120000	835.1	1.3
0.4944	333.15	130000	839.3	1.3
0.4944	333.15	140000	843.3	1.3
0.4944	353.15	100	745.6	0.8
0.4944	353.15	1000	746.6	0.8
0.4944	353.15	5000	750.8	0.8
0.4944	353.15	10000	755.8	0.8
0.4944	353.15	15000	760.4	0.9
0.4944	353.15	20000	764.8	0.9
0.4944	353.15	25000	768.9	0.9
0.4944	353.15	30000	772.9	0.9
0.4944	353.15	35000	776.7	0.9
0.4944	353.15	40000	780.1	1
0.4944	353.15	45000	783.7	1
0.4944	353.15	50000	787.1	1
0.4944	353.15	55000	790.2	1
0.4944	353.15	60000	793.3	1
0.4944	353.15	65000	796.4	1.1
0.4944	353.15	70000	799.3	1.1
0.4944	353.15	80000	804.8	1.1
0.4944	353.15	90000	810.1	1.2
0.4944	353.15	100000	815.1	1.2
0.4944	353.15	110000	819.9	1.2
0.4944	353.15	120000	824.4	1.3
0.4944	353.15	130000	828.7	1.3
0.4944	353.15	140000	833	1.4
0.4944	373.15	1000	729.1	0.8
0.4944	373.15	5000	733.9	0.8
0.4944	373.15	10000	739.6	0.8
0.4944	373.15	15000	744.8	0.9
0.4944	373.15	20000	749.6	0.9
0.4944	373.15	25000	754.3	0.9
0.4944	373.15	30000	758.6	0.9
0.4944	373.15	35000	762.7	1
0.4944	373.15	40000	766.7	1
0.4944	373.15	45000	770.5	1
0.4944	373.15	50000	774	1
0.4944	373.15	55000	777.5	1
0.4944	373.15	60000	780.8	1.1
0.4944	373.15	65000	784	1.1
0.4944	373.15	70000	787.1	1.1
0.4944	373.15	80000	793.1	1.2
0.4944	373.15	90000	798.7	1.2
0.4944	373.15	100000	803.9	1.2
0.4944	373.15	110000	809.1	1.3
0.4944	373.15	120000	813.8	1.3
0.4944	373.15	130000	818.4	1.4
0.4944	373.15	140000	822.8	1.4
0.4944	393.15	1000	710.7	0.8
0.4944	393.15	5000	716.3	0.8
0.4944	393.15	10000	722.7	0.9
0.4944	393.15	15000	728.6	0.9
0.4944	393.15	20000	734	0.9
0.4944	393.15	25000	739.1	0.9
0.4944	393.15	30000	743.9	0.9
0.4944	393.15	35000	748.5	1
0.4944	393.15	40000	752.7	1
0.4944	393.15	45000	756.8	1
0.4944	393.15	50000	760.7	1
0.4944	393.15	55000	764.5	1.1
0.4944	393.15	60000	768	1.1
0.4944	393.15	65000	771.4	1.1
0.4944	393.15	70000	774.9	1.1
0.4944	393.15	80000	781.2	1.2
0.4944	393.15	90000	787.2	1.2
0.4944	393.15	100000	792.8	1.3
0.4944	393.15	110000	798.2	1.3
0.4944	393.15	120000	803.1	1.4
0.4944	393.15	130000	808	1.4
0.4944	393.15	140000	812.7	1.4
0.7014	298.15	100	779.5	0.8
0.7014	298.15	1000	780.2	0.8
0.7014	298.15	5000	783.5	0.8
0.7014	298.15	10000	787.3	0.8
0.7014	298.15	15000	791	0.8
0.7014	298.15	20000	794.5	0.8
0.7014	298.15	25000	797.9	0.8
0.7014	298.15	30000	801.1	0.9
0.7014	298.15	35000	804.2	0.9
0.7014	298.15	40000	807.3	0.9
0.7014	298.15	45000	810.2	0.9
0.7014	298.15	50000	813	0.9
0.7014	298.15	55000	815.7	0.9
0.7014	298.15	60000	818.4	1
0.7014	298.15	65000	820.9	1
0.7014	298.15	70000	823.5	1
0.7014	298.15	80000	828.3	1
0.7014	298.15	90000	833	1.1
0.7014	298.15	100000	837.4	1.1
0.7014	298.15	110000	841.6	1.1
0.7014	298.15	120000	845.6	1.1
0.7014	298.15	130000	849.6	1.2
0.7014	298.15	140000	853.3	1.2
0.7014	313.15	100	767	0.8
0.7014	313.15	1000	767.8	0.8
0.7014	313.15	5000	771.3	0.8
0.7014	313.15	10000	775.6	0.8
0.7014	313.15	15000	779.5	0.8
0.7014	313.15	20000	783.4	0.8
0.7014	313.15	25000	786.8	0.8
0.7014	313.15	30000	790.5	0.9
0.7014	313.15	35000	793.7	0.9
0.7014	313.15	40000	796.9	0.9
0.7014	313.15	45000	800	0.9
0.7014	313.15	50000	803	0.9
0.7014	313.15	55000	805.9	1
0.7014	313.15	60000	808.7	1
0.7014	313.15	65000	811.5	1
0.7014	313.15	70000	814.1	1
0.7014	313.15	80000	819.1	1
0.7014	313.15	90000	824	1.1
0.7014	313.15	100000	828.7	1.1
0.7014	313.15	110000	833.2	1.1
0.7014	313.15	120000	837.3	1.2
0.7014	313.15	130000	841.4	1.2
0.7014	313.15	140000	845.4	1.2
0.7014	333.15	100	749.9	0.8
0.7014	333.15	1000	750.8	0.8
0.7014	333.15	5000	754.8	0.8
0.7014	333.15	10000	759.6	0.8
0.7014	333.15	15000	764.1	0.8
0.7014	333.15	20000	768.3	0.8
0.7014	333.15	25000	772.2	0.9
0.7014	333.15	30000	776.1	0.9
0.7014	333.15	35000	779.7	0.9
0.7014	333.15	40000	783.2	0.9
0.7014	333.15	45000	786.5	0.9
0.7014	333.15	50000	789.8	1
0.7014	333.15	55000	792.9	1
0.7014	333.15	60000	795.9	1
0.7014	333.15	65000	798.9	1
0.7014	333.15	70000	801.7	1
0.7014	333.15	80000	807.1	1.1
0.7014	333.15	90000	812.3	1.1
0.7014	333.15	100000	817.2	1.1
0.7014	333.15	110000	821.9	1.2
0.7014	333.15	120000	826.4	1.2
0.7014	333.15	130000	830.7	1.2
0.7014	333.15	140000	834.8	1.3
0.7014	353.15	100	732.4	0.8
0.7014	353.15	1000	733.4	0.8
0.7014	353.15	5000	738	0.8
0.7014	353.15	10000	743.3	0.8
0.7014	353.15	15000	748.4	0.8
0.7014	353.15	20000	753.1	0.8
0.7014	353.15	25000	757.4	0.9
0.7014	353.15	30000	761.7	0.9
0.7014	353.15	35000	765.6	0.9
0.7014	353.15	40000	769.4	0.9
0.7014	353.15	45000	773	0.9
0.7014	353.15	50000	776.7	1
0.7014	353.15	55000	779.9	1
0.7014	353.15	60000	783.2	1
0.7014	353.15	65000	786.3	1
0.7014	353.15	70000	789.5	1.1
0.7014	353.15	80000	795.2	1.1
0.7014	353.15	90000	800.7	1.1
0.7014	353.15	100000	805.9	1.2
0.7014	353.15	110000	810.9	1.2
0.7014	353.15	120000	815.6	1.2
0.7014	353.15	130000	820.1	1.3
0.7014	353.15	140000	824.5	1.3
0.7014	373.15	1000	715.4	0.8
0.7014	373.15	5000	720.7	0.8
0.7014	373.15	10000	726.7	0.8
0.7014	373.15	15000	732.4	0.8
0.7014	373.15	20000	737.6	0.9
0.7014	373.15	25000	742.5	0.9
0.7014	373.15	30000	747.2	0.9
0.7014	373.15	35000	751.6	0.9
0.7014	373.15	40000	755.7	0.9
0.7014	373.15	45000	759.7	1
0.7014	373.15	50000	763.4	1
0.7014	373.15	55000	767.1	1
0.7014	373.15	60000	770.6	1
0.7014	373.15	65000	774	1.1
0.7014	373.15	70000	777.2	1.1
0.7014	373.15	80000	783.5	1.1
0.7014	373.15	90000	789.3	1.2
0.7014	373.15	100000	794.8	1.2
0.7014	373.15	110000	800	1.2
0.7014	373.15	120000	805	1.3
0.7014	373.15	130000	809.8	1.3
0.7014	373.15	140000	814.3	1.4
0.7014	393.15	1000	696.6	0.8
0.7014	393.15	5000	702.7	0.8
0.7014	393.15	10000	709.7	0.8
0.7014	393.15	15000	716	0.8
0.7014	393.15	20000	721.9	0.9
0.7014	393.15	25000	727.4	0.9
0.7014	393.15	30000	732.4	0.9
0.7014	393.15	35000	737.3	0.9
0.7014	393.15	40000	741.8	1
0.7014	393.15	45000	746	1
0.7014	393.15	50000	750.1	1
0.7014	393.15	55000	754.2	1
0.7014	393.15	60000	757.9	1
0.7014	393.15	65000	761.5	1.1
0.7014	393.15	70000	765	1.1
0.7014	393.15	80000	771.6	1.1
0.7014	393.15	90000	777.9	1.2
0.7014	393.15	100000	783.6	1.2
0.7014	393.15	110000	789.3	1.3
0.7014	393.15	120000	794.3	1.3
0.7014	393.15	130000	799.4	1.4
0.7014	393.15	140000	804.2	1.4
0.8534	298.15	100	771.7	0.8
0.8534	298.15	1000	772.5	0.8
0.8534	298.15	5000	775.8	0.8
0.8534	298.15	10000	779.9	0.8
0.8534	298.15	15000	783.7	0.8
0.8534	298.15	20000	787.4	0.8
0.8534	298.15	25000	790.8	0.8
0.8534	298.15	30000	794.2	0.8
0.8534	298.15	35000	797.4	0.9
0.8534	298.15	40000	800.5	0.9
0.8534	298.15	45000	803.5	0.9
0.8534	298.15	50000	806.4	0.9
0.8534	298.15	55000	809.2	0.9
0.8534	298.15	60000	811.9	0.9
0.8534	298.15	65000	814.6	1
0.8534	298.15	70000	817.2	1
0.8534	298.15	80000	822.2	1
0.8534	298.15	90000	827	1
0.8534	298.15	100000	831.5	1.1
0.8534	298.15	110000	835.8	1.1
0.8534	298.15	120000	839.9	1.1
0.8534	298.15	130000	843.9	1.2
0.8534	298.15	140000	847.8	1.2
0.8534	313.15	100	758.8	0.8
0.8534	313.15	1000	759.7	0.8
0.8534	313.15	5000	763.3	0.8
0.8534	313.15	10000	767.8	0.8
0.8534	313.15	15000	771.9	0.8
0.8534	313.15	20000	775.9	0.8
0.8534	313.15	25000	779.4	0.8
0.8534	313.15	30000	783.3	0.8
0.8534	313.15	35000	786.7	0.9
0.8534	313.15	40000	790	0.9
0.8534	313.15	45000	793.2	0.9
0.8534	313.15	50000	796.3	0.9
0.8534	313.15	55000	799.3	0.9
0.8534	313.15	60000	802.2	0.9
0.8534	313.15	65000	804.9	1
0.8534	313.15	70000	807.7	1
0.8534	313.15	80000	812.9	1
0.8534	313.15	90000	817.9	1.1
0.8534	313.15	100000	822.6	1.1
0.8534	313.15	110000	827.2	1.1
0.8534	313.15	120000	831.5	1.2
0.8534	313.15	130000	835.7	1.2
0.8534	313.15	140000	839.8	1.2
0.8534	333.15	100	741.3	0.8
0.8534	333.15	1000	742.3	0.8
0.8534	333.15	5000	746.5	0.8
0.8534	333.15	10000	751.4	0.8
0.8534	333.15	15000	756.1	0.8
0.8534	333.15	20000	760.5	0.8
0.8534	333.15	25000	764.7	0.8
0.8534	333.15	30000	768.6	0.9
0.8534	333.15	35000	772.4	0.9
0.8534	333.15	40000	776.1	0.9
0.8534	333.15	45000	779.5	0.9
0.8534	333.15	50000	782.9	0.9
0.8534	333.15	55000	786	0.9
0.8534	333.15	60000	789.2	1
0.8534	333.15	65000	792.2	1
0.8534	333.15	70000	795.1	1
0.8534	333.15	80000	800.7	1
0.8534	333.15	90000	806	1.1
0.8534	333.15	100000	811.1	1.1
0.8534	333.15	110000	815.9	1.2
0.8534	333.15	120000	820.5	1.2
0.8534	333.15	130000	824.8	1.2
0.8534	333.15	140000	829	1.3
0.8534	353.15	100	723.4	0.8
0.8534	353.15	1000	724.5	0.8
0.8534	353.15	5000	729.4	0.8
0.8534	353.15	10000	735	0.8
0.8534	353.15	15000	740.3	0.8
0.8534	353.15	20000	745.2	0.8
0.8534	353.15	25000	749.8	0.8
0.8534	353.15	30000	754.1	0.9
0.8534	353.15	35000	758.3	0.9
0.8534	353.15	40000	762.1	0.9
0.8534	353.15	45000	765.9	0.9
0.8534	353.15	50000	769.6	0.9
0.8534	353.15	55000	773.1	1
0.8534	353.15	60000	776.5	1
0.8534	353.15	65000	779.7	1
0.8534	353.15	70000	782.9	1
0.8534	353.15	80000	788.8	1.1
0.8534	353.15	90000	794.4	1.1
0.8534	353.15	100000	799.8	1.2
0.8534	353.15	110000	804.9	1.2
0.8534	353.15	120000	809.7	1.2
0.8534	353.15	130000	814.2	1.3
0.8534	353.15	140000	818.7	1.3
0.8534	373.15	1000	706.3	0.8
0.8534	373.15	5000	711.9	0.8
0.8534	373.15	10000	718.3	0.8
0.8534	373.15	15000	724.2	0.8
0.8534	373.15	20000	729.7	0.8
0.8534	373.15	25000	734.8	0.9
0.8534	373.15	30000	739.6	0.9
0.8534	373.15	35000	744.1	0.9
0.8534	373.15	40000	748.5	0.9
0.8534	373.15	45000	752.7	0.9
0.8534	373.15	50000	756.5	1
0.8534	373.15	55000	760.3	1
0.8534	373.15	60000	763.9	1
0.8534	373.15	65000	767.4	1
0.8534	373.15	70000	770.6	1.1
0.8534	373.15	80000	777.1	1.1
0.8534	373.15	90000	783.1	1.1
0.8534	373.15	100000	788.7	1.2
0.8534	373.15	110000	794	1.2
0.8534	373.15	120000	799.1	1.3
0.8534	373.15	130000	803.9	1.3
0.8534	373.15	140000	808.6	1.3
0.8534	393.15	1000	687.4	0.8
0.8534	393.15	5000	693.9	0.8
0.8534	393.15	10000	701.2	0.8
0.8534	393.15	15000	708	0.8
0.8534	393.15	20000	714	0.8
0.8534	393.15	25000	719.7	0.9
0.8534	393.15	30000	725	0.9
0.8534	393.15	35000	730	0.9
0.8534	393.15	40000	734.8	0.9
0.8534	393.15	45000	739.1	1
0.8534	393.15	50000	743.4	1
0.8534	393.15	55000	747.5	1
0.8534	393.15	60000	751.3	1
0.8534	393.15	65000	755	1.1
0.8534	393.15	70000	758.7	1.1
0.8534	393.15	80000	765.4	1.1
0.8534	393.15	90000	771.8	1.2
0.8534	393.15	100000	777.7	1.2
0.8534	393.15	110000	783.5	1.3
0.8534	393.15	120000	788.7	1.3
0.8534	393.15	130000	793.8	1.3
0.8534	393.15	140000	798.7	1.4
1	298.15	100	763.8	0.7
1	298.15	1000	764.7	0.7
1	298.15	5000	768.2	0.7
1	298.15	10000	772.4	0.7
1	298.15	15000	776.4	0.8
1	298.15	20000	780.2	0.8
1	298.15	25000	783.7	0.8
1	298.15	30000	787.3	0.8
1	298.15	35000	790.6	0.8
1	298.15	40000	793.8	0.8
1	298.15	45000	796.9	0.9
1	298.15	50000	799.8	0.9
1	298.15	55000	802.8	0.9
1	298.15	60000	805.6	0.9
1	298.15	65000	808.3	0.9
1	298.15	70000	811	0.9
1	298.15	80000	816.1	1
1	298.15	90000	821	1
1	298.15	100000	825.5	1
1	298.15	110000	830	1.1
1	298.15	120000	834.2	1.1
1	298.15	130000	838.3	1.1
1	298.15	140000	842.1	1.2
1	313.15	100	750.7	0.7
1	313.15	1000	751.6	0.7
1	313.15	5000	755.6	0.7
1	313.15	10000	760.1	0.7
1	313.15	15000	764.5	0.8
1	313.15	20000	768.6	0.8
1	313.15	25000	772.3	0.8
1	313.15	30000	776.2	0.8
1	313.15	35000	779.7	0.8
1	313.15	40000	783.1	0.8
1	313.15	45000	786.4	0.9
1	313.15	50000	789.7	0.9
1	313.15	55000	792.7	0.9
1	313.15	60000	795.7	0.9
1	313.15	65000	798.6	0.9
1	313.15	70000	801.4	1
1	313.15	80000	806.7	1
1	313.15	90000	811.9	1
1	313.15	100000	816.7	1.1
1	313.15	110000	821.4	1.1
1	313.15	120000	825.7	1.1
1	313.15	130000	830.1	1.2
1	313.15	140000	834.2	1.2
1	333.15	100	733	0.7
1	333.15	1000	734	0.7
1	333.15	5000	738.5	0.7
1	333.15	10000	743.6	0.8
1	333.15	15000	748.6	0.8
1	333.15	20000	753.1	0.8
1	333.15	25000	757.5	0.8
1	333.15	30000	761.5	0.8
1	333.15	35000	765.5	0.8
1	333.15	40000	769.2	0.9
1	333.15	45000	772.7	0.9
1	333.15	50000	776.2	0.9
1	333.15	55000	779.6	0.9
1	333.15	60000	782.7	0.9
1	333.15	65000	785.8	1
1	333.15	70000	788.8	1
1	333.15	80000	794.6	1
1	333.15	90000	800	1.1
1	333.15	100000	805.2	1.1
1	333.15	110000	810	1.1
1	333.15	120000	814.7	1.2
1	333.15	130000	819.3	1.2
1	333.15	140000	823.5	1.2
1	353.15	100	715	0.7
1	353.15	1000	716.2	0.7
1	353.15	5000	721.3	0.7
1	353.15	10000	727.2	0.8
1	353.15	15000	732.7	0.8
1	353.15	20000	737.8	0.8
1	353.15	25000	742.6	0.8
1	353.15	30000	747.1	0.8
1	353.15	35000	751.4	0.9
1	353.15	40000	755.4	0.9
1	353.15	45000	759.3	0.9
1	353.15	50000	763	0.9
1	353.15	55000	766.6	0.9
1	353.15	60000	770.1	1
1	353.15	65000	773.4	1
1	353.15	70000	776.7	1
1	353.15	80000	782.7	1
1	353.15	90000	788.5	1.1
1	353.15	100000	794	1.1
1	353.15	110000	799.2	1.2
1	353.15	120000	804	1.2
1	353.15	130000	808.7	1.2
1	353.15	140000	813.3	1.3
1	373.15	1000	697.9	0.7
1	373.15	5000	703.8	0.7
1	373.15	10000	710.5	0.8
1	373.15	15000	716.7	0.8
1	373.15	20000	722.4	0.8
1	373.15	25000	727.7	0.8
1	373.15	30000	732.7	0.8
1	373.15	35000	737.4	0.9
1	373.15	40000	741.9	0.9
1	373.15	45000	746.1	0.9
1	373.15	50000	750	0.9
1	373.15	55000	754	1
1	373.15	60000	757.7	1
1	373.15	65000	761.2	1
1	373.15	70000	764.6	1
1	373.15	80000	771.2	1.1
1	373.15	90000	777.3	1.1
1	373.15	100000	783	1.2
1	373.15	110000	788.5	1.2
1	373.15	120000	793.6	1.2
1	373.15	130000	798.6	1.3
1	373.15	140000	803.3	1.3
1	393.15	1000	679	0.7
1	393.15	5000	685.9	0.8
1	393.15	10000	693.5	0.8
1	393.15	15000	700.6	0.8
1	393.15	20000	706.9	0.8
1	393.15	25000	712.8	0.8
1	393.15	30000	718.3	0.9
1	393.15	35000	723.5	0.9
1	393.15	40000	728.3	0.9
1	393.15	45000	732.8	0.9
1	393.15	50000	737.2	0.9
1	393.15	55000	741.4	1
1	393.15	60000	745.3	1
1	393.15	65000	749.1	1
1	393.15	70000	752.8	1.1
1	393.15	80000	759.7	1.1
1	393.15	90000	766.2	1.1
1	393.15	100000	772.3	1.2
1	393.15	110000	778.1	1.2
1	393.15	120000	783.4	1.3
1	393.15	130000	788.6	1.3
1	393.15	140000	793.6	1.4
