Measured thermophysical data. The molar surface Gibbs free energy and estimate of polarity for a new ether-functionalized ionic liquid [C22O1IM][DCA]
Source: J. Chem. Thermodyn., 2017, 10.1016/j.jct.2017.03.016
Compound 1: 1-ethyl-3-(2-methoxyethyl)imidazolium dicyanamide, C10H15N5O, InChI=1S/C8H15N2O.C2N3/c1-3-9-4-5-10(8-9)6-7-11-2;3-1-5-2-4/h4-5,8H,3,6-7H2,1-2H3;/q+1;-1
Compound 2: water, H2O, InChI=1S/H2O/h1H2, purity 99.8%

System: 1-ethyl-3-(2-methoxyethyl)imidazolium dicyanamide; phases: Liquid
Fixed: Pressure, kPa = 101.325
Property: Mass density, kg/m3 (Liquid); method: Vibrating tube method
Temperature, K	Mass density, kg/m3	uncertainty
298.15	1113.6	2.32
303.15	1110.21	2.32
308.15	1106.83	2.32
313.15	1103.48	2.32
318.15	1100.15	2.32
323.15	1096.84	2.32
328.15	1093.53	2.32
333.15	1090.26	2.32
338.15	1087	2.32

System: 1-ethyl-3-(2-methoxyethyl)imidazolium dicyanamide; phases: Liquid, Gas
Property: Surface tension liquid-gas, N/m (Liquid); method: Maximal bubble pressure
Temperature, K	Surface tension liquid-gas, N/m	uncertainty
298.15	0.051	0.0005
303.15	0.0507	0.0005
308.15	0.0504	0.0005
313.15	0.0501	0.0005
318.15	0.0498	0.0005
323.15	0.0495	0.0005
328.15	0.0493	0.0005
333.15	0.0491	0.0005
338.15	0.0488	0.0005

System: 1-ethyl-3-(2-methoxyethyl)imidazolium dicyanamide; phases: Liquid
Fixed: Pressure, kPa = 101.325
Property: Refractive index (Na D-line) (Liquid); method: Standard Abbe refractometry
Temperature, K	Refractive index (Na D-line)	uncertainty
298.15	1.5053	0.0031
303.15	1.504	0.0031
308.15	1.5028	0.0031
313.15	1.5017	0.0031
318.15	1.5	0.0031
323.15	1.4989	0.0031
328.15	1.4977	0.0031
333.15	1.496	0.0031
338.15	1.4946	0.0031

System: 1-ethyl-3-(2-methoxyethyl)imidazolium dicyanamide + water; phases: Liquid
Fixed: Pressure, kPa = 100
Property: Mass density, kg/m3 (Liquid); method: Vibrating tube method
Temperature, K	Mass fraction of water	Mass density, kg/m3	uncertainty
298.15	0.00148	1113.35	2.32
303.15	0.00148	1109.96	2.32
308.15	0.00148	1106.58	2.32
313.15	0.00148	1103.23	2.32
318.15	0.00148	1099.89	2.32
323.15	0.00148	1096.58	2.32
328.15	0.00148	1093.27	2.32
333.15	0.00148	1090	2.32
338.15	0.00148	1086.74	2.32
298.15	0.00277	1113.18	2.32
303.15	0.00277	1109.78	2.32
308.15	0.00277	1106.41	2.32
313.15	0.00277	1103.05	2.32
318.15	0.00277	1099.72	2.32
323.15	0.00277	1096.4	2.32
328.15	0.00277	1093.1	2.32
333.15	0.00277	1089.82	2.32
338.15	0.00277	1086.56	2.32
298.15	0.00434	1112.96	2.32
303.15	0.00434	1109.57	2.32
308.15	0.00434	1106.19	2.32
313.15	0.00434	1102.83	2.32
318.15	0.00434	1099.5	2.32
323.15	0.00434	1096.18	2.32
328.15	0.00434	1092.88	2.32
333.15	0.00434	1089.59	2.32
338.15	0.00434	1086.33	2.32
298.15	0.0055	1112.77	2.32
303.15	0.0055	1109.37	2.32
308.15	0.0055	1106	2.32
313.15	0.0055	1102.64	2.32
318.15	0.0055	1099.3	2.32
323.15	0.0055	1095.98	2.32
328.15	0.0055	1092.68	2.32
333.15	0.0055	1089.4	2.32
338.15	0.0055	1086.13	2.32
298.15	0.00719	1112.46	2.32
303.15	0.00719	1109.06	2.32
308.15	0.00719	1105.69	2.32
313.15	0.00719	1102.33	2.32
318.15	0.00719	1098.99	2.32
323.15	0.00719	1095.66	2.32
328.15	0.00719	1092.36	2.32
333.15	0.00719	1089.08	2.32
338.15	0.00719	1085.81	2.32

System: 1-ethyl-3-(2-methoxyethyl)imidazolium dicyanamide + water; phases: Liquid, Gas
Property: Surface tension liquid-gas, N/m (Liquid); method: Maximal bubble pressure
Temperature, K	Mass fraction of water	Surface tension liquid-gas, N/m	uncertainty
298.15	0.00031	0.0511	0.0005
303.15	0.00031	0.0508	0.0005
308.15	0.00031	0.0505	0.0005
313.15	0.00031	0.0502	0.0005
318.15	0.00031	0.0499	0.0005
323.15	0.00031	0.0496	0.0005
328.15	0.00031	0.0494	0.0005
333.15	0.00031	0.0491	0.0005
338.15	0.00031	0.0488	0.0005
298.15	0.00175	0.0513	0.0005
303.15	0.00175	0.0511	0.0005
308.15	0.00175	0.0508	0.0005
313.15	0.00175	0.0505	0.0005
318.15	0.00175	0.0502	0.0005
323.15	0.00175	0.0499	0.0005
328.15	0.00175	0.0497	0.0005
333.15	0.00175	0.0495	0.0005
338.15	0.00175	0.0492	0.0005
298.15	0.00317	0.0517	0.0005
303.15	0.00317	0.0514	0.0005
308.15	0.00317	0.0511	0.0005
313.15	0.00317	0.0508	0.0005
318.15	0.00317	0.0505	0.0005
323.15	0.00317	0.0502	0.0005
328.15	0.00317	0.05	0.0005
333.15	0.00317	0.0498	0.0005
338.15	0.00317	0.0495	0.0005
298.15	0.00461	0.052	0.0005
303.15	0.00461	0.0517	0.0005
308.15	0.00461	0.0514	0.0005
313.15	0.00461	0.0511	0.0005
318.15	0.00461	0.0508	0.0005
323.15	0.00461	0.0506	0.0005
328.15	0.00461	0.0504	0.0005
333.15	0.00461	0.0501	0.0005
338.15	0.00461	0.0498	0.0005
298.15	0.00609	0.0523	0.0005
303.15	0.00609	0.052	0.0005
308.15	0.00609	0.0517	0.0005
313.15	0.00609	0.0514	0.0005
318.15	0.00609	0.0511	0.0005
323.15	0.00609	0.0508	0.0005
328.15	0.00609	0.0506	0.0005
333.15	0.00609	0.0504	0.0005
338.15	0.00609	0.0501	0.0005

System: 1-ethyl-3-(2-methoxyethyl)imidazolium dicyanamide + water; phases: Liquid
Fixed: Pressure, kPa = 100
Property: Refractive index (Na D-line) (Liquid); method: Standard Abbe refractometry
Temperature, K	Mass fraction of water	Refractive index (Na D-line)	uncertainty
298.15	0.00148	1.5049	0.0031
303.15	0.00148	1.5036	0.0031
308.15	0.00148	1.5024	0.0031
313.15	0.00148	1.5012	0.0031
318.15	0.00148	1.4996	0.0031
323.15	0.00148	1.4984	0.0031
328.15	0.00148	1.4971	0.0031
333.15	0.00148	1.4954	0.0031
338.15	0.00148	1.4941	0.0031
298.15	0.00277	1.5045	0.0031
303.15	0.00277	1.5032	0.0031
308.15	0.00277	1.5019	0.0031
313.15	0.00277	1.5007	0.0031
318.15	0.00277	1.4992	0.0031
323.15	0.00277	1.498	0.0031
328.15	0.00277	1.4966	0.0031
333.15	0.00277	1.495	0.0031
338.15	0.00277	1.4935	0.0031
298.15	0.00434	1.5041	0.0031
303.15	0.00434	1.5028	0.0031
308.15	0.00434	1.5015	0.0031
313.15	0.00434	1.5002	0.0031
318.15	0.00434	1.4987	0.0031
323.15	0.00434	1.4975	0.0031
328.15	0.00434	1.496	0.0031
333.15	0.00434	1.4945	0.0031
338.15	0.00434	1.4929	0.0031
298.15	0.0055	1.5037	0.0031
303.15	0.0055	1.5024	0.0031
308.15	0.0055	1.501	0.0031
313.15	0.0055	1.4996	0.0031
318.15	0.0055	1.4982	0.0031
323.15	0.0055	1.497	0.0031
328.15	0.0055	1.4955	0.0031
333.15	0.0055	1.4939	0.0031
338.15	0.0055	1.4923	0.0031
298.15	0.00719	1.5033	0.0031
303.15	0.00719	1.5019	0.0031
308.15	0.00719	1.5006	0.0031
313.15	0.00719	1.4992	0.0031
318.15	0.00719	1.4979	0.0031
323.15	0.00719	1.4965	0.0031
328.15	0.00719	1.4949	0.0031
333.15	0.00719	1.4934	0.0031
338.15	0.00719	1.4919	0.0031
