Measured thermophysical data. Thermodynamics of tetraphenylantimony benzoate Ph4SbOC(O)Ph
Source: J. Chem. Thermodyn., 2019, 10.1016/j.jct.2018.11.011
Compound 1: antimony oxide (Sb2O4), O4Sb2, InChI=1S/4O.2Sb
Compound 2: carbon dioxide, CO2, InChI=1S/CO2/c2-1-3
Compound 3: water, H2O, InChI=1S/H2O/h1H2
Compound 4: oxygen, O2, InChI=1S/O2/c1-2
Compound 5: antimony, Sb, InChI=1S/Sb
Compound 6: hydrogen, H2, InChI=1S/H2/h1H
Compound 7: graphite, C
Compound 8: tetraphenylantimony benzoate, C31H25O2Sb, InChI=1S/C7H6O2.4C6H5.Sb/c8-7(9)6-4-2-1-3-5-6;4*1-2-4-6-5-3-1;/h1-5H,(H,8,9);4*1-5H;/q;;;;;+1/p-1

System: tetraphenylantimony benzoate; phases: Crystal, Liquid, Air at 1 atmosphere
Property: Normal melting temperature, K (Crystal); method: DTA
Normal melting temperature, K	uncertainty
437.5	1.1

System: tetraphenylantimony benzoate; phases: Crystal, Liquid, Air at 1 atmosphere
Property: Molar enthalpy of transition or fusion, kJ/mol (Crystal); method: DSC
Molar enthalpy of transition or fusion, kJ/mol	uncertainty
26.4	1.1

System: tetraphenylantimony benzoate; phases: Crystal
Property: Mass density, kg/m3 (Crystal); method: X-ray diffraction
Temperature, K	Pressure, kPa	Mass density, kg/m3	uncertainty
298.15	101.325	1438	2

System: tetraphenylantimony benzoate; phases: Crystal
Fixed: Pressure, kPa = 101.325
Property: Molar heat capacity at constant pressure, J/K/mol (Crystal); method: Small (less than 1 g) adiabatic calorimetry
Temperature, K	Molar heat capacity at constant pressure, J/K/mol	uncertainty
5.54	2.34	0.11
5.81	2.55	0.12
6.27	3.24	0.14
6.56	3.56	0.16
6.92	4.25	0.18
7.71	5.93	0.26
7.98	6.39	0.27
8.34	7.12	0.31
8.69	7.77	0.33
9.05	8.56	0.33
9.58	9.73	0.42
10.05	10.9	0.5
10.43	12	0.5
10.82	13.1	0.58
11.21	14.2	0.58
11.44	14.8	0.58
11.66	15.5	0.67
12.08	16.7	0.67
12.66	18.5	0.75
13.36	20.5	0.83
14.03	22.5	0.91
14.57	24.4	1
15.26	26.4	0.42
15.94	28.6	0.42
16.62	30.87	0.44
17.29	33.05	0.47
17.96	35.26	0.49
18.62	37.36	0.52
18.8	38.09	0.52
19.31	39.63	0.54
19.97	41.7	0.56
20.6	43.6	0.58
22.51	49.65	0.64
25.94	60.95	0.75
29.45	71.99	0.84
31.45	78.36	0.86
33	82.85	0.91
33.62	84.64	0.91
35.87	91.21	1
36.5	93.12	1
40.06	103.7	0.58
43	111	0.67
46.68	120.9	0.67
49.76	127.9	0.75
53.38	136.9	0.75
57.02	145.6	0.83
60.66	154.2	0.91
64.31	162	0.91
67.97	169.5	0.91
71.63	177	1
75.29	185.6	1.1
78	192	1.1
82.52	200.4	1.1
85.67	207	1.2
90.22	215.5	1.2
83.53	202.5	1.2
85.67	207	1.2
88.37	212.3	1.2
92.48	218.9	1.2
93.76	221	1.2
95.63	223.7	1.2
99.16	228.6	1.2
102.7	234	1.2
106.23	240	1.2
109.78	244.9	1.2
113.32	250.2	1.3
116	255	1.3
119.8	262	1.3
123.36	267.2	1.4
126.75	273.3	1.4
128	275.2	1.4
132.8	282.4	1.5
136	287	1.5
139.71	293.3	1.5
144.47	301.3	1.6
146.16	303.1	1.6
151.28	310.8	1.6
155	315	1.7
158.48	321.9	1.7
161	326	1.7
164.87	332.4	1.7
168.1	336.4	1.7
169.28	338.2	1.7
172.52	344.3	1.7
175	350	1.8
179.52	354.2	1.8
182.77	359.3	1.8
187	368	1.9
190	372	1.9
193.46	377.4	1.9
196.73	382.6	2
200	387	2
203.22	393.1	2
206.89	398.7	2.1
210	402	2.1
212.74	408.9	2.1
216.41	416	2.2
218	417	2.2
221.7	424.2	2.2
226.59	431.9	2.2
230.26	438	2.2
233.93	444.7	2.2
237.6	451.8	2.3
241.26	457.5	2.3
244.92	464.4	2.3
248.56	469.4	2.4
252.2	476.9	2.4
255.84	483.2	2.4
259.46	489.4	2.5
260.21	492.1	2.5
263.38	496.3	2.5
266.99	503.4	2.6
270.59	511.1	2.6
274.19	516.9	2.6
277.77	523.1	2.7
281.34	529.8	2.7
284.91	536.8	2.7
288.45	544.3	2.7
291.98	551.8	2.8
295.51	558.6	2.8
299.02	565.4	2.8
302.51	572.4	2.9
305.98	579.5	2.9
309.1	585.3	3
312.86	594.4	3
316.25	601.1	3
319.65	610.9	3.1
323.03	617.6	3.1
326.38	625.6	3.2
329.73	632	3.2
333.07	638.8	3.2
337.11	646.4	3.2

System: tetraphenylantimony benzoate; phases: Liquid
Fixed: Pressure, kPa = 101.325
Property: Molar heat capacity at constant pressure, J/K/mol (Liquid); method: DSC
Temperature, K	Molar heat capacity at constant pressure, J/K/mol	uncertainty
445.5	989	50
447.5	981	50
450.5	973	50
453.5	973	50
456.5	973	50
459.5	973	50
462.5	973	50
465.5	973	50
468.5	973	50
471.5	973	50
474.5	973	50
477.5	973	50
480.5	973	50

System: tetraphenylantimony benzoate; phases: Crystal
Fixed: Pressure, kPa = 101.325
Property: Molar heat capacity at constant pressure, J/K/mol (Crystal); method: DSC
Temperature, K	Molar heat capacity at constant pressure, J/K/mol	uncertainty
321.5	615	33
324.5	621	33
327.5	627	33
330.5	634	34
333.5	639	34
336.5	645	34
339.5	649	35
342.5	656	35
345.5	660	35
348.5	666	36
351.5	671	36
354.5	678	37
357.5	683	37
360.5	689	37
368.5	709	38
377.2	731	39
387.3	755	41
397.5	780	42
402.5	793	42
405.5	800	42
408.5	806	43
411.5	830	47

System: tetraphenylantimony benzoate; phases: Crystal
Fixed: Pressure, kPa = 101.325
Property: Molar heat capacity at constant pressure, J/K/mol (Crystal); method: Small (less than 1 g) adiabatic calorimetry
Temperature, K	Molar heat capacity at constant pressure, J/K/mol	uncertainty
5	1.72	0.083
10	10.9	0.5
15	25.6	1.1
20	41.81	0.57
25	57.77	0.72
30	73.7	0.81
35	88.8	1
40	102.8	1.1
45	115.8	0.67
50	128	0.75
60	151.4	0.83
70	174.2	1
80	195.9	1.1
90	214.8	1.2
100	229.7	1.2
120	262	1.3
140	293.6	1.5
160	324.2	1.7
180	355.4	1.8
200	387.6	2
220	420.9	2.2
240	455.1	2.3
260	491.6	2.5
273.15	514.4	2.6
280	527.1	2.7
298.15	564.4	2.8
300	568.4	2.9
320	611.4	3.1
340	650	26
360	688	27
380	736	30
400	788	32
420	800	33
437.5	873	33

System: tetraphenylantimony benzoate; phases: Crystal
Fixed: Pressure, kPa = 101.325
Property: Molar enthalpy function {Hm(T)-Hm(0)}/T, J/K/mol (Crystal); method: Small (less than 1 g) adiabatic calorimetry
Temperature, K	Molar enthalpy function {Hm(T)-Hm(0)}/T, J/K/mol	uncertainty
5	0.42	0.029
10	3.03	0.14
15	8.02	0.37
20	14.45	0.25
25	21.51	0.35
30	28.88	0.44
35	36.38	0.55
40	43.82	0.66
45	51.1	0.57
50	58.2	0.65
60	71.81	0.79
70	84.81	0.91
80	97.36	1.08
90	109.3	1.2
100	120.7	1.3
120	141.5	1.5
140	161	1.7
160	179.5	1.9
180	197.3	2.1
200	214.7	2.2
220	231.9	2.4
240	249.1	2.7
260	266.3	2.8
273.15	277.7	2.9
280	283.7	3
298.15	299.6	3.2
300	301.2	3.2
320	319.3	3.3
340	338	15
360	356	16
380	375	17
400	394	17
420	414	18
437.5	432	19

System: tetraphenylantimony benzoate; phases: Crystal
Fixed: Pressure, kPa = 101.325
Property: Molar entropy, J/K/mol (Crystal); method: Small (less than 1 g) adiabatic calorimetry
Temperature, K	Molar entropy, J/K/mol	uncertainty
5	0.567	0.052
10	4.1	0.3
15	11.1	0.83
20	20.79	0.57
25	31.83	0.85
30	43.78	1.11
35	56.29	1.41
40	69.07	1.72
45	81.95	1.57
50	94.78	1.83
60	120.2	2.3
70	145.3	2.7
80	169.9	3.2
90	194.1	3.7
100	217.6	4.1
120	262.3	4.9
140	305.1	5.7
160	346.3	6.5
180	386.3	7.2
200	425.4	7.9
220	463.9	8.6
240	501.9	9.3
260	539.8	10.1
273.15	564.6	10.5
280	577.5	10.7
298.15	611.7	11.4
300	615.3	11.4
320	653.4	12.1
340	691	47
360	729	51
380	768	53
400	807	56
420	848	58
437.5	881	58

System: tetraphenylantimony benzoate; phases: Liquid
Fixed: Pressure, kPa = 101.325
Property: Molar heat capacity at constant pressure, J/K/mol (Liquid); method: DSC
Temperature, K	Molar heat capacity at constant pressure, J/K/mol	uncertainty
437.5	973	50
440	973	50
460	973	50
480	973	50

System: tetraphenylantimony benzoate; phases: Liquid
Fixed: Pressure, kPa = 101.325
Property: Molar enthalpy function {Hm(T)-Hm(0)}/T, J/K/mol (Liquid); method: DSC
Temperature, K	Molar enthalpy function {Hm(T)-Hm(0)}/T, J/K/mol	uncertainty
437.5	492	27
440	495	28
460	515	29
480	535	30

System: tetraphenylantimony benzoate; phases: Liquid
Fixed: Pressure, kPa = 101.325
Property: Molar entropy, J/K/mol (Liquid); method: DSC
Temperature, K	Molar entropy, J/K/mol	uncertainty
437.5	940	83
440	948	83
460	989	83
480	1030	91

Reaction: .5 antimony oxide (Sb2O4) + -1 tetraphenylantimony benzoate + 31 carbon dioxide + 12.5 water + -37.25 oxygen
Property: Molar internal energy of reaction at constant volume, kJ/mol
-16205.3

Reaction: -1 antimony + 1 tetraphenylantimony benzoate + -12.5 hydrogen + -31 graphite + -1 oxygen
Property: Molar enthalpy of reaction, kJ/mol
-5
