Measured thermophysical data. Measurement and correlation of solubility of anthraquinone dyestuffs in supercritical carbon dioxide
Source: J. Chem. Thermodyn., 2014, 10.1016/j.jct.2014.01.015
Compound 1: 1,4-diaminoanthraquinone, C14H10N2O2, InChI=1S/C14H10N2O2/c15-9-5-6-10(16)12-11(9)13(17)7-3-1-2-4-8(7)14(12)18/h1-6H,15-16H2, purity 96%
Compound 2: carbon dioxide, CO2, InChI=1S/CO2/c2-1-3, purity 99.9%
Compound 3: 1,4-bis(ethylamino)-9,10-anthracenedione, C18H18N2O2, InChI=1S/C18H18N2O2/c1-3-19-13-9-10-14(20-4-2)16-15(13)17(21)11-7-5-6-8-12(11)18(16)22/h5-10,19-20H,3-4H2,1-2H3, purity 98%

System: carbon dioxide + 1,4-diaminoanthraquinone; phases: Fluid (supercritical or subcritical phases), Crystal
Property: Mole fraction of 1,4-diaminoanthraquinone (Fluid (supercritical or subcritical phases)); method: UV-visible spectrophotometer
Temperature, K	Pressure, kPa	Mole fraction of 1,4-diaminoanthraquinone	uncertainty
323.15	15000	2.79e-07	3.1e-08
323.15	17500	4.4e-07	4.6e-08
323.15	20000	5.99e-07	6.1e-08
323.15	22500	7.56e-07	7.7e-08
323.15	25000	1.02e-06	1e-07
353.15	15000	1.3e-07	1.8e-08
353.15	17500	3.46e-07	4.2e-08
353.15	20000	7.15e-07	7.7e-08
353.15	22500	1.09e-06	1.2e-07
353.15	25000	1.62e-06	1.7e-07
383.15	15000	1.79e-07	2.6e-08
383.15	17500	4.23e-07	5.1e-08
383.15	20000	8.73e-07	1.01e-07
383.15	22500	1.68e-06	1.8e-07
383.15	25000	2.61e-06	2.7e-07

System: carbon dioxide + 1,4-bis(ethylamino)-9,10-anthracenedione; phases: Fluid (supercritical or subcritical phases), Crystal
Property: Mole fraction of 1,4-bis(ethylamino)-9,10-anthracenedione (Fluid (supercritical or subcritical phases)); method: UV-visible spectrophotometer
Temperature, K	Pressure, kPa	Mole fraction of 1,4-bis(ethylamino)-9,10-anthracenedione	uncertainty
323.15	12500	6.27e-07	9.3e-08
323.15	13500	9.68e-07	1.42e-07
323.15	15000	1.9e-06	2.1e-07
323.15	16500	2.36e-06	2.4e-07
323.15	17500	2.69e-06	2.8e-07
323.15	18500	3.14e-06	3.2e-07
323.15	20000	3.4e-06	3.4e-07
323.15	22500	4e-06	4e-07
323.15	23500	4.38e-06	4.6e-07
323.15	25000	5.72e-06	6e-07
353.15	12500	1.1e-07	3.3e-08
353.15	15000	7.27e-07	9.9e-08
353.15	16500	1.37e-06	1.8e-07
353.15	17500	2.22e-06	2.7e-07
353.15	18500	2.86e-06	3.4e-07
353.15	20000	4.48e-06	5.1e-07
353.15	22500	7.53e-06	7.8e-07
353.15	25000	9.71e-06	9.9e-07
383.15	12500	2.81e-07	6.2e-08
383.15	15000	9.67e-07	1.18e-07
383.15	16500	1.68e-06	1.9e-07
383.15	17500	1.92e-06	2.2e-07
383.15	18500	2.84e-06	4e-07
383.15	20000	5.37e-06	6e-07
383.15	22500	8.2e-06	9e-07
383.15	25000	1.485e-05	1.58e-06
