Measured thermophysical data. Vaporization enthalpy and vapor pressure of (-) Ambroxide and Galaxolide by correlation gas chromatography
Source: J. Chem. Thermodyn., 2019, 10.1016/j.jct.2018.09.012
Compound 1: dibenzo[bd]furan, C12H8O, InChI=1S/C12H8O/c1-3-7-11-9(5-1)10-6-2-4-8-12(10)13-11/h1-8H, purity 98%
Compound 2: (-)-Ambroxide, C16H28O, InChI=1S/C16H28O/c1-14(2)8-5-9-15(3)12(14)6-10-16(4)13(15)7-11-17-16/h12-13H,5-11H2,1-4H3/t12-,13+,15-,16+/m0/s1, purity 99%
Compound 3: Galaxolide, C18H26O, InChI=1S/C18H26O/c1-11-9-19-10-13-7-15-16(8-14(11)13)18(5,6)12(2)17(15,3)4/h7-8,11-12H,9-10H2,1-6H3
Compound 4: naphthalene, C10H8, InChI=1S/C10H8/c1-2-6-10-8-4-3-7-9(10)5-1/h1-8H, purity 99%

System: dibenzo[bd]furan; phases: Metastable liquid, Gas
Property: Molar enthalpy of vaporization or sublimation, kJ/mol (Metastable liquid); method: Correlation gas chromatography
Temperature, K	Molar enthalpy of vaporization or sublimation, kJ/mol	uncertainty
298.15	68.7	2.8

System: dibenzo[bd]furan; phases: Metastable liquid, Gas
Property: Vapor or sublimation pressure, kPa (Metastable liquid); method: Gas chromatography
Temperature, K	Vapor or sublimation pressure, kPa	uncertainty
298.15	0.0011	0.0001
310	0.0031	0.0003
320	0.007	0.0007
330	0.015	0.002
340	0.03	0.003
350	0.058	0.006
360	0.11	0.011
370	0.18	0.018
380	0.31	0.031
390	0.51	0.051
400	0.8	0.08
410	1.2	0.12
420	1.8	0.18
430	2.6	0.26
440	3.7	0.37
450	5.2	0.52

System: (-)-Ambroxide; phases: Crystal, Liquid, Air at 1 atmosphere
Property: Molar enthalpy of transition or fusion, kJ/mol (Crystal); method: DSC
Molar enthalpy of transition or fusion, kJ/mol	uncertainty
20.3	0.8

System: (-)-Ambroxide; phases: Crystal, Liquid, Air at 1 atmosphere
Property: Normal melting temperature, K (Crystal); method: DTA
Normal melting temperature, K	uncertainty
345.8	1.3

System: (-)-Ambroxide; phases: Crystal, Liquid, Air at 1 atmosphere
Property: Normal melting temperature, K (Crystal); method: VISOBS
Normal melting temperature, K	uncertainty
348.15	3

System: (-)-Ambroxide; phases: Metastable liquid, Gas
Property: Molar enthalpy of vaporization or sublimation, kJ/mol (Metastable liquid); method: Correlation gas chromatography
Temperature, K	Molar enthalpy of vaporization or sublimation, kJ/mol	uncertainty
298.15	78.3	2.3

System: (-)-Ambroxide; phases: Metastable liquid, Gas
Property: Vapor or sublimation pressure, kPa (Metastable liquid); method: Gas chromatography
Temperature, K	Vapor or sublimation pressure, kPa	uncertainty
298.15	0.00012	3e-05
310	0.00039	0.00011
320	0.00096	0.00025
330	0.0023	0.0006
340	0.0049	0.0012
350	0.01	0.002
360	0.02	0.004
370	0.038	0.007
380	0.069	0.012
390	0.12	0.018
400	0.2	0.026
410	0.32	0.039
420	0.51	0.057
430	0.77	0.086
440	1.1	0.13
450	1.7	0.2
460	2.4	0.24
470	3.4	0.34
480	4.7	0.47
490	6.3	0.63
500	8.4	0.84

System: Galaxolide; phases: Metastable liquid, Gas
Property: Molar enthalpy of vaporization or sublimation, kJ/mol (Metastable liquid); method: Correlation gas chromatography
Temperature, K	Molar enthalpy of vaporization or sublimation, kJ/mol	uncertainty
298.15	86.7	2.5

System: Galaxolide; phases: Metastable liquid, Gas
Property: Vapor or sublimation pressure, kPa (Metastable liquid); method: Gas chromatography
Temperature, K	Vapor or sublimation pressure, kPa	uncertainty
298.15	2.6e-05	8e-06
310	9.9e-05	2.9e-05
320	0.00027	8e-05
330	0.00071	0.00019
340	0.0017	0.0004
350	0.0038	0.0009
360	0.0081	0.0018
370	0.016	0.003
380	0.032	0.006
390	0.058	0.009
400	0.1	0.014
410	0.16	0.022
420	0.29	0.035
430	0.46	0.055
440	0.72	0.088
450	1.1	0.143
460	1.6	0.16
470	2.4	0.24
480	3.4	0.34
490	4.8	0.481
500	6.6	0.661

System: naphthalene; phases: Crystal, Liquid, Air at 1 atmosphere
Property: Normal melting temperature, K (Crystal); method: DTA
Normal melting temperature, K	uncertainty
352.3	1.4

System: naphthalene; phases: Crystal, Liquid, Air at 1 atmosphere
Property: Molar enthalpy of transition or fusion, kJ/mol (Crystal); method: DSC
Molar enthalpy of transition or fusion, kJ/mol	uncertainty
19.123041584	0.44859682
