Measured thermophysical data. Experimental methodology for precise determination of density of RTILs as a function of temperature and pressure using vibrating tube densimeters
Source: J. Chem. Thermodyn., 2010, 10.1016/j.jct.2009.11.014
Compound 1: 1-hexyl-3-methylimidazolium tetrafluoroborate, C10H19BF4N2, InChI=1S/C10H19N2.BF4/c1-3-4-5-6-7-12-9-8-11(2)10-12;2-1(3,4)5/h8-10H,3-7H2,1-2H3;/q+1;-1
Compound 2: 1-methyl-3-octylimidazolium tetrafluoroborate, C12H23BF4N2, InChI=1S/C12H23N2.BF4/c1-3-4-5-6-7-8-9-14-11-10-13(2)12-14;2-1(3,4)5/h10-12H,3-9H2,1-2H3;/q+1;-1
Compound 3: 1-ethyl-3-methylimidazolium tetrafluoroborate, C6H11BF4N2, InChI=1S/C6H11N2.BF4/c1-3-8-5-4-7(2)6-8;2-1(3,4)5/h4-6H,3H2,1-2H3;/q+1;-1
Compound 4: 1-butyl-3-methylimidazolium tetrafluoroborate, C8H15BF4N2, InChI=1S/C8H15N2.BF4/c1-3-4-5-10-7-6-9(2)8-10;2-1(3,4)5/h6-8H,3-5H2,1-2H3;/q+1;-1

System: 1-hexyl-3-methylimidazolium tetrafluoroborate; phases: Liquid
Property: Viscosity, Pa*s (Liquid); method: Stony Brook Scientific falling needle HPHTV-100 viscometer
Temperature, K	Pressure, kPa	Viscosity, Pa*s	uncertainty
285.09	4270	0.4496	0.0495
285.15	130	0.4205	0.0461
285.15	1400	0.4302	0.0473
285.15	3170	0.437	0.0482
285.15	5380	0.4572	0.0518
285.15	12640	0.4956	0.0544
285.2	5080	0.4479	0.0494
285.22	12000	0.4884	0.0538
285.23	7090	0.4606	0.0509
285.23	10000	0.4816	0.053
285.23	14220	0.5049	0.0558
285.25	8290	0.4685	0.0517
294.65	14670	0.2851	0.0349
294.75	8260	0.2613	0.0322
294.75	10200	0.2705	0.0332
294.75	12300	0.2786	0.0339
294.77	6430	0.2544	0.0279
294.85	140	0.2383	0.0291
294.85	760	0.2382	0.029
294.85	2760	0.2425	0.0299
294.85	4280	0.2466	0.0305
294.91	1460	0.2383	0.0294
300.25	1630	0.1798	0.0207
300.39	2690	0.1805	0.0202
300.42	14380	0.2101	0.0237
300.49	4140	0.1842	0.0206
300.61	6190	0.187	0.021
300.61	12340	0.2025	0.023
300.62	8490	0.1913	0.0215
300.68	10400	0.1961	0.0222
300.75	1410	0.1752	0.0203
300.85	120	0.1681	0.0191
308.25	1850	0.1146	0.0135
308.35	14230	0.1318	0.0148
308.48	12350	0.1287	0.0143
308.55	10300	0.1256	0.0139
308.59	8230	0.1227	0.0136
308.65	110	0.1123	0.0125
308.65	800	0.113	0.0125
308.65	1730	0.1144	0.0135
308.65	2760	0.1151	0.0128
308.65	4300	0.1175	0.0131
308.65	6380	0.1202	0.0133
319.85	2700	0.0701	0.0081
319.89	110	0.0677	0.0079
319.95	700	0.0681	0.0079
319.95	4470	0.0707	0.0082
319.95	6480	0.0729	0.0084
319.95	14430	0.0778	0.0091
319.98	3850	0.0705	0.0082
319.98	12490	0.0761	0.0089
319.99	8440	0.0737	0.0085
320.03	1300	0.0682	0.0079
320.05	2440	0.0692	0.008
320.05	10500	0.0749	0.0087

System: 1-hexyl-3-methylimidazolium tetrafluoroborate; phases: Liquid
Property: Mass density, kg/m3 (Liquid); method: VIBTUB:mpoint
Temperature, K	Pressure, kPa	Mass density, kg/m3	uncertainty
283.15	100	1155.97	0.97
283.15	2000	1156.84	0.96
283.15	4000	1157.76	0.96
283.15	6000	1158.69	0.98
283.15	8000	1159.61	0.96
283.15	10000	1160.53	0.96
283.15	12000	1161.43	0.96
283.15	14000	1162.34	0.96
283.15	20000	1165.02	0.95
283.15	30000	1169.4	0.96
283.15	40000	1173.6	0.96
283.15	50000	1177.7	0.96
283.15	60000	1181.65	0.97
288.15	100	1152.44	0.97
288.15	2000	1153.37	0.96
288.15	4000	1154.32	0.96
288.15	6000	1155.11	0.96
288.15	8000	1156.19	0.96
288.15	10000	1157.11	0.96
288.15	12000	1158.05	0.96
288.15	14000	1158.97	0.96
288.15	20000	1161.68	0.96
288.15	30000	1166.05	0.96
288.15	40000	1170.31	0.96
288.15	50000	1174.45	0.97
288.15	60000	1178.4	0.97
293.15	100	1148.92	0.96
293.15	2000	1149.88	0.97
293.15	4000	1150.84	0.96
293.15	6000	1151.81	0.95
293.15	8000	1152.76	0.96
293.15	10000	1153.7	0.96
293.15	12000	1154.65	0.96
293.15	14000	1155.57	0.96
293.15	20000	1158.32	0.96
293.15	30000	1162.74	0.96
293.15	40000	1167.02	0.96
293.15	50000	1171.16	0.96
293.15	60000	1175.18	0.96
298.15	100	1145.47	0.96
298.15	2000	1146.39	0.96
298.15	4000	1147.43	0.96
298.15	6000	1148.36	0.96
298.15	8000	1149.29	0.96
298.15	10000	1150.27	0.96
298.15	12000	1151.22	0.96
298.15	14000	1152.19	0.96
298.15	20000	1154.94	0.96
298.15	30000	1159.42	0.95
298.15	40000	1163.75	0.95
298.15	50000	1167.96	0.96
298.15	60000	1172.02	0.96
303.15	100	1141.99	0.96
303.15	2000	1142.93	0.96
303.15	4000	1143.92	0.96
303.15	6000	1144.93	0.96
303.15	8000	1145.93	0.96
303.15	10000	1146.85	0.96
303.15	12000	1147.82	0.96
303.15	14000	1148.83	0.96
303.15	20000	1151.57	0.96
303.15	30000	1156.18	0.95
303.15	40000	1160.55	0.96
303.15	50000	1164.76	0.96
303.15	60000	1168.87	0.96
308.15	100	1138.53	0.96
308.15	2000	1139.5	0.96
308.15	4000	1140.49	0.95
308.15	6000	1141.48	0.95
308.15	8000	1142.48	0.95
308.15	10000	1143.45	0.95
308.15	12000	1144.45	0.95
308.15	14000	1145.41	0.95
308.15	20000	1148.24	0.95
308.15	30000	1152.83	0.95
308.15	40000	1157.26	0.95
308.15	50000	1161.57	0.95
308.15	60000	1165.72	0.95
313.15	100	1135.1	0.95
313.15	2000	1136.08	0.95
313.15	4000	1137.11	0.95
313.15	6000	1138.14	0.95
313.15	8000	1139.15	0.95
313.15	10000	1140.14	0.95
313.15	12000	1141.13	0.95
313.15	14000	1142.09	0.95
313.15	20000	1144.98	0.94
313.15	30000	1149.62	0.94
313.15	40000	1154.1	0.94
313.15	50000	1158.44	0.95
313.15	60000	1162.62	0.95
318.15	100	1131.72	0.95
318.15	2000	1132.7	0.95
318.15	4000	1133.74	0.95
318.15	6000	1134.77	0.95
318.15	8000	1135.78	0.95
318.15	10000	1136.79	0.95
318.15	12000	1137.78	0.95
318.15	14000	1138.79	0.95
318.15	20000	1141.71	0.95
318.15	30000	1146.4	0.94
318.15	40000	1150.92	0.98
318.15	50000	1155.3	0.95
318.15	60000	1159.5	0.95
323.15	100	1128.3	0.95
323.15	2000	1129.31	0.95
323.15	4000	1130.36	0.95
323.15	6000	1131.4	0.95
323.15	8000	1132.43	0.95
323.15	10000	1133.45	0.95
323.15	12000	1134.46	0.95
323.15	14000	1135.46	0.95
323.15	20000	1138.4	0.95
323.15	30000	1143.16	0.98
323.15	40000	1147.2	1
323.15	50000	1152.14	0.98
323.15	60000	1156.42	0.95

System: 1-methyl-3-octylimidazolium tetrafluoroborate; phases: Liquid
Property: Viscosity, Pa*s (Liquid); method: Stony Brook Scientific falling needle HPHTV-100 viscometer
Temperature, K	Pressure, kPa	Viscosity, Pa*s	uncertainty
283.53	140	0.7747	0.0858
283.53	680	0.781	0.0864
283.55	1680	0.7939	0.0884
283.55	7960	0.8784	0.0976
283.6	11830	0.9086	0.1014
283.6	14620	0.9501	0.1057
283.61	10090	0.8947	0.0996
283.63	4380	0.8154	0.0907
283.65	4110	0.8114	0.09
283.67	5540	0.8341	0.0931
283.72	2750	0.8037	0.0892
293.65	130	0.4037	0.0488
293.65	2010	0.4097	0.0496
293.65	4090	0.423	0.0568
293.65	4310	0.4187	0.0549
293.65	6110	0.4333	0.0527
293.65	6580	0.4344	0.0476
293.65	8080	0.4476	0.0501
293.65	10200	0.4583	0.0513
293.65	12100	0.4666	0.0522
293.65	14310	0.4788	0.0592
293.65	14330	0.4836	0.0596
303.74	13240	0.2583	0.028
303.8	2750	0.2273	0.0246
303.82	14800	0.2618	0.0311
303.85	4160	0.2306	0.0273
303.85	5600	0.2336	0.0278
303.91	8710	0.2416	0.0262
303.95	11220	0.2507	0.0275
303.96	160	0.2191	0.026
304.01	2040	0.2229	0.0265
304.03	1190	0.2216	0.024
304.05	6140	0.2321	0.0277
304.05	7390	0.2386	0.0259
312.95	650	0.1374	0.0153
312.95	1600	0.1393	0.0156
313.05	130	0.1373	0.0156
313.05	2670	0.1411	0.0158
313.05	4260	0.1428	0.016
313.05	6130	0.1457	0.0163
313.05	8180	0.1502	0.0168
313.05	10130	0.1527	0.0163
313.05	12200	0.1571	0.0168
313.05	14260	0.161	0.018
323.43	140	0.0837	0.0098
323.46	680	0.0843	0.0098
323.55	1710	0.085	0.0099
323.56	13080	0.0963	0.0113
323.58	14330	0.0974	0.0115
323.63	9640	0.0927	0.0109
323.65	130	0.0836	0.0098
323.65	2760	0.0859	0.0101
323.65	6190	0.0882	0.0103
323.65	11060	0.0932	0.0109
323.68	4240	0.0868	0.0102
323.73	8190	0.0902	0.0106
323.75	10400	0.0921	0.0108
323.75	12340	0.094	0.0111

System: 1-methyl-3-octylimidazolium tetrafluoroborate; phases: Liquid
Property: Mass density, kg/m3 (Liquid); method: VIBTUB:mpoint
Temperature, K	Pressure, kPa	Mass density, kg/m3	uncertainty
283.15	100	1114.58	0.96
283.15	2000	1115.49	0.95
283.15	4000	1116.46	0.95
283.15	6000	1117.44	0.95
283.15	8000	1118.4	0.95
283.15	10000	1119.31	0.94
283.15	12000	1120.25	0.94
283.15	14000	1121.19	0.94
283.15	20000	1123.96	0.93
283.15	30000	1128.45	0.94
283.15	40000	1132.79	0.94
283.15	50000	1136.9	0.94
283.15	60000	1140.94	0.95
288.15	100	1111.12	0.95
288.15	2000	1112.07	0.95
288.15	4000	1113.07	0.95
288.15	6000	1114.04	0.95
288.15	8000	1115.03	0.95
288.15	10000	1116.03	0.94
288.15	12000	1116.94	0.94
288.15	14000	1117.9	0.94
288.15	20000	1120.72	0.94
288.15	30000	1125.21	0.94
288.15	40000	1129.56	0.95
288.15	50000	1133.75	0.95
288.15	60000	1137.81	0.95
293.15	100	1107.68	0.95
293.15	2000	1108.68	0.95
293.15	4000	1109.68	0.95
293.15	6000	1110.66	0.95
293.15	8000	1111.66	0.95
293.15	10000	1112.63	0.95
293.15	12000	1113.61	0.94
293.15	14000	1114.55	0.94
293.15	20000	1117.38	0.94
293.15	30000	1121.95	0.94
293.15	40000	1126.31	0.94
293.15	50000	1130.56	0.94
293.15	60000	1134.64	0.95
298.15	100	1104.31	0.94
298.15	2000	1105.26	0.95
298.15	4000	1106.28	0.95
298.15	6000	1107.31	0.94
298.15	8000	1108.29	0.94
298.15	10000	1109.29	0.94
298.15	12000	1110.27	0.94
298.15	14000	1111.29	0.94
298.15	20000	1114.12	0.94
298.15	30000	1118.74	0.94
298.15	40000	1123.16	0.94
298.15	50000	1127.47	0.94
298.15	60000	1131.57	0.94
303.15	100	1100.92	0.95
303.15	2000	1101.88	0.94
303.15	4000	1102.9	0.94
303.15	6000	1103.93	0.94
303.15	8000	1104.97	0.94
303.15	10000	1105.98	0.94
303.15	12000	1107.03	0.94
303.15	14000	1107.96	0.94
303.15	20000	1110.85	0.94
303.15	30000	1115.56	0.94
303.15	40000	1120.01	0.93
303.15	50000	1124.34	0.94
303.15	60000	1128.52	0.93
308.15	100	1097.49	0.95
308.15	2000	1098.5	0.94
308.15	4000	1099.56	0.94
308.15	6000	1100.61	0.94
308.15	8000	1101.64	0.94
308.15	10000	1102.66	0.94
308.15	12000	1103.66	0.94
308.15	14000	1104.66	0.94
308.15	20000	1107.61	0.93
308.15	30000	1112.34	0.93
308.15	40000	1116.89	0.93
308.15	50000	1121.29	0.93
308.15	60000	1125.53	0.93
313.15	100	1094.13	0.94
313.15	2000	1095.13	0.94
313.15	4000	1096.26	0.94
313.15	6000	1097.28	0.94
313.15	8000	1098.3	0.94
313.15	10000	1099.33	0.93
313.15	12000	1100.39	0.93
313.15	14000	1101.41	0.93
313.15	20000	1104.39	0.93
313.15	30000	1109.19	0.93
313.15	40000	1113.81	0.93
313.15	50000	1118.25	0.93
313.15	60000	1122.52	0.93
318.15	100	1090.78	0.94
318.15	2000	1091.83	0.93
318.15	4000	1092.91	0.94
318.15	6000	1094	0.93
318.15	8000	1095.03	0.93
318.15	10000	1096.1	0.93
318.15	12000	1097.15	0.93
318.15	14000	1098.18	0.93
318.15	20000	1101.2	0.93
318.15	30000	1106.06	0.93
318.15	40000	1110.72	0.93
318.15	50000	1115.21	0.93
318.15	60000	1119.54	0.93
323.15	100	1087.45	0.93
323.15	2000	1088.5	0.94
323.15	4000	1089.6	0.94
323.15	6000	1090.68	0.94
323.15	8000	1091.76	0.93
323.15	10000	1092.8	0.93
323.15	12000	1093.87	0.94
323.15	14000	1094.9	0.94
323.15	20000	1097.97	0.94
323.15	30000	1102.88	0.94
323.15	40000	1107.6	0.94
323.15	50000	1112.12	0.94
323.15	60000	1116.48	0.94

System: 1-ethyl-3-methylimidazolium tetrafluoroborate; phases: Liquid
Property: Viscosity, Pa*s (Liquid); method: Stony Brook Scientific falling needle HPHTV-100 viscometer
Pressure, kPa	Temperature, K	Viscosity, Pa*s	uncertainty
100	282.55	0.0678	0.0072
100	293.85	0.0434	0.0047
100	313.85	0.0233	0.0024
100	323.65	0.0184	0.0019
120	304.05	0.0309	0.0033
680	304.05	0.0311	0.0033
700	282.55	0.0691	0.0073
700	293.85	0.0437	0.0047
700	313.85	0.0234	0.0024
700	323.65	0.0186	0.0019
1200	323.75	0.0185	0.0019
1700	282.55	0.0701	0.0074
1700	293.85	0.0441	0.0048
1700	323.65	0.0187	0.002
1730	304.05	0.0312	0.0033
1760	313.75	0.0238	0.0025
2300	323.75	0.0187	0.002
2700	282.55	0.0716	0.0076
2700	293.85	0.0444	0.0048
2710	304.05	0.0314	0.0033
2730	313.75	0.0241	0.0025
4200	293.85	0.0449	0.0049
4200	323.75	0.0189	0.002
4300	304.05	0.0322	0.0034
4350	313.75	0.0245	0.0026
4400	282.55	0.0729	0.0077
4500	323.75	0.0189	0.002
6100	282.55	0.0743	0.0079
6100	323.75	0.019	0.002
6270	313.75	0.0249	0.0026
6300	293.75	0.0461	0.005
6340	304.05	0.0326	0.0034
6600	323.75	0.0194	0.002
8200	282.55	0.0755	0.008
8200	293.75	0.0475	0.0052
8200	323.75	0.0193	0.002
8230	313.75	0.0251	0.0026
8250	304.05	0.0331	0.0035
10100	293.75	0.0484	0.0052
10170	313.65	0.0257	0.0027
10200	323.75	0.0197	0.0021
10300	282.55	0.0761	0.008
10300	303.95	0.0342	0.0036
10300	313.85	0.0256	0.0027
12210	304.05	0.0343	0.0036
12290	313.65	0.026	0.0027
12400	293.75	0.0493	0.0054
12400	323.75	0.0199	0.0021
12900	282.55	0.0779	0.0082
14100	282.55	0.0793	0.0084
14100	313.65	0.0262	0.0027
14300	304.05	0.0352	0.0037
14300	323.75	0.0201	0.0021
14500	293.85	0.0497	0.0054

System: 1-ethyl-3-methylimidazolium tetrafluoroborate; phases: Liquid
Property: Mass density, kg/m3 (Liquid); method: VIBTUB:mpoint
Temperature, K	Pressure, kPa	Mass density, kg/m3	uncertainty
283.15	100	1297.04	1.61
283.15	2000	1297.83	1.61
283.15	4000	1298.68	1.62
283.15	6000	1299.52	1.62
283.15	8000	1300.36	1.62
283.15	10000	1301.22	1.63
283.15	12000	1302.03	1.63
283.15	14000	1302.82	1.63
283.15	20000	1305.3	1.64
283.15	30000	1309.33	1.66
283.15	40000	1313.27	1.69
283.15	50000	1317.06	1.71
283.15	60000	1320.84	1.74
288.15	100	1293.21	1.61
288.15	2000	1294.02	1.61
288.15	4000	1294.88	1.61
288.15	6000	1295.72	1.62
288.15	8000	1296.59	1.62
288.15	10000	1297.45	1.62
288.15	12000	1298.29	1.63
288.15	14000	1299.08	1.63
288.15	20000	1301.58	1.64
288.15	30000	1305.62	1.66
288.15	40000	1309.54	1.68
288.15	50000	1313.39	1.71
288.15	60000	1317.17	1.73
293.15	100	1289.36	1.6
293.15	2000	1290.17	1.61
293.15	4000	1291.05	1.61
293.15	6000	1291.91	1.61
293.15	8000	1292.79	1.61
293.15	10000	1293.63	1.62
293.15	12000	1294.48	1.62
293.15	14000	1295.29	1.62
293.15	20000	1297.8	1.6
293.15	30000	1301.86	1.65
293.15	40000	1305.84	1.67
293.15	50000	1309.69	1.7
293.15	60000	1313.49	1.72
298.15	100	1285.51	1.59
298.15	2000	1286.33	1.6
298.15	4000	1287.22	1.6
298.15	6000	1288.13	1.6
298.15	8000	1289.02	1.61
298.15	10000	1289.83	1.61
298.15	12000	1290.7	1.6
298.15	14000	1291.53	1.61
298.15	20000	1294.05	1.62
298.15	30000	1298.17	1.64
298.15	40000	1302.18	1.66
298.15	50000	1306.09	1.68
298.15	60000	1309.95	1.7
303.15	100	1281.74	1.59
303.15	2000	1282.57	1.59
303.15	4000	1283.44	1.59
303.15	6000	1284.35	1.6
303.15	8000	1285.26	1.6
303.15	10000	1286.08	1.6
303.15	12000	1287	2
303.15	14000	1287.82	1.61
303.15	20000	1290.4	1.6
303.15	30000	1294.54	1.64
303.15	40000	1298.58	1.65
303.15	50000	1302.56	1.68
303.15	60000	1306.43	1.7
308.15	100	1277.93	1.58
308.15	2000	1278.81	1.58
308.15	4000	1279.69	1.58
308.15	6000	1280.58	1.59
308.15	8000	1281.46	1.59
308.15	10000	1282.35	1.59
308.15	12000	1283.22	1.6
308.15	14000	1284.11	1.6
308.15	20000	1286.68	1.61
308.15	30000	1290.85	1.63
308.15	40000	1294.96	1.64
308.15	50000	1298.92	1.67
308.15	60000	1302.82	1.69
313.15	100	1274.17	1.57
313.15	2000	1275.04	1.57
313.15	4000	1275.93	1.58
313.15	6000	1276.8	1.6
313.15	8000	1277.73	1.58
313.15	10000	1278.61	1.59
313.15	12000	1279.51	1.59
313.15	14000	1280.39	1.59
313.15	20000	1283.04	1.6
313.15	30000	1287.29	1.62
313.15	40000	1291.42	1.64
313.15	50000	1295.43	1.66
313.15	60000	1299.37	1.68
318.15	100	1270.39	1.56
318.15	2000	1271.3	1.6
318.15	4000	1272.25	1.57
318.15	6000	1273.14	1.57
318.15	8000	1274.05	1.57
318.15	10000	1274.96	1.58
318.15	12000	1275.87	1.58
318.15	14000	1276.72	1.58
318.15	20000	1279.36	1.6
318.15	30000	1283.7	1.6
318.15	40000	1287.8	1.6
318.15	50000	1291.92	1.65
318.15	60000	1295.92	1.67
323.15	100	1266.69	1.55
323.15	2000	1267.58	1.56
323.15	4000	1268.52	1.57
323.15	6000	1269.45	1.57
323.15	8000	1270.37	1.57
323.15	10000	1271.28	1.57
323.15	12000	1272.19	1.58
323.15	14000	1273.08	1.58
323.15	20000	1275.76	1.59
323.15	30000	1280.1	1.6
323.15	40000	1284.32	1.62
323.15	50000	1288.41	1.65
323.15	60000	1292.42	1.67

System: 1-butyl-3-methylimidazolium tetrafluoroborate; phases: Liquid
Property: Viscosity, Pa*s (Liquid); method: Stony Brook Scientific falling needle HPHTV-100 viscometer
Pressure, kPa	Temperature, K	Viscosity, Pa*s	uncertainty
110	285.05	0.1978	0.0214
110	285.15	0.1975	0.0214
120	293.85	0.1255	0.0143
120	303.15	0.0781	0.0087
120	313.55	0.0512	0.0055
120	324.825	0.0343	0.0037
630	324.8	0.0345	0.0038
660	285.15	0.1978	0.0215
710	293.85	0.1264	0.0142
710	313.55	0.0517	0.0056
770	303.15	0.08	0.0088
1650	313.55	0.0523	0.0057
1660	285.15	0.2002	0.0217
1680	303.15	0.0824	0.0091
1690	293.85	0.1271	0.0143
1700	324.85	0.0348	0.0038
2590	324.85	0.0352	0.0038
2640	293.85	0.1285	0.0145
2660	285.15	0.2027	0.022
2690	313.55	0.0525	0.0057
2700	303.15	0.0833	0.0092
4050	324.85	0.0353	0.0039
4070	285.15	0.2064	0.0224
4150	293.85	0.1309	0.0147
4170	303.15	0.0844	0.0093
4250	313.55	0.0534	0.0058
4260	324.85	0.0358	0.0039
6100	285.15	0.211	0.023
6130	293.85	0.1327	0.015
6160	324.85	0.0365	0.004
6240	303.15	0.0851	0.0094
6260	313.55	0.0543	0.0059
6290	303.15	0.085	0.0094
8160	324.85	0.0367	0.004
8180	285.15	0.2154	0.0235
8180	303.15	0.0883	0.0097
8200	293.85	0.1349	0.0152
8200	313.55	0.0549	0.006
10150	285.15	0.2207	0.0241
10200	293.85	0.1374	0.0155
10200	303.15	0.0898	0.0099
10200	313.55	0.0562	0.0061
10450	324.85	0.0375	0.0041
12000	293.85	0.1421	0.0162
12050	285.15	0.2261	0.0247
12110	303.15	0.091	0.0096
12130	324.85	0.0384	0.0042
12230	293.85	0.1432	0.0163
14150	324.85	0.039	0.0043
14190	285.05	0.2366	0.0259
14200	303.15	0.0925	0.0103
14290	303.15	0.0917	0.0102
14310	313.45	0.0594	0.0064
14330	293.85	0.1461	0.017
14700	293.85	0.146	0.017

System: 1-butyl-3-methylimidazolium tetrafluoroborate; phases: Liquid
Property: Mass density, kg/m3 (Liquid); method: VIBTUB:mpoint
Temperature, K	Pressure, kPa	Mass density, kg/m3	uncertainty
283.15	100	1212.53	1
283.15	2000	1213.37	0.99
283.15	4000	1214.24	0.99
283.15	6000	1215.13	0.99
283.15	8000	1216	0.99
283.15	10000	1216.89	0.99
283.15	12000	1217.77	0.99
283.15	14000	1218.63	0.99
283.15	20000	1221.2	0.98
283.15	30000	1225.42	0.98
283.15	40000	1229.49	0.99
283.15	50000	1233.46	0.99
283.15	60000	1237.32	1
288.15	100	1208.87	0.99
288.15	2000	1209.73	0.99
288.15	4000	1210.65	0.99
288.15	6000	1211.56	0.99
288.15	8000	1212.45	0.99
288.15	10000	1213.34	0.99
288.15	12000	1214.22	0.99
288.15	14000	1215.09	0.99
288.15	20000	1217.71	0.99
288.15	30000	1221.96	0.99
288.15	40000	1226.06	0.99
288.15	50000	1230.05	1
288.15	60000	1233.94	1
293.15	100	1205.25	0.99
293.15	2000	1206.11	0.99
293.15	4000	1207.04	0.99
293.15	6000	1207.96	0.99
293.15	8000	1208.85	0.99
293.15	10000	1209.74	0.99
293.15	12000	1210.69	0.99
293.15	14000	1211.59	0.99
293.15	20000	1214.19	0.99
293.15	30000	1218.46	0.99
293.15	40000	1222.59	0.99
293.15	50000	1226.61	0.99
293.15	60000	1230.53	1
298.15	100	1201.64	0.98
298.15	2000	1202.53	0.98
298.15	4000	1203.45	0.98
298.15	6000	1204.39	0.98
298.15	8000	1205.3	0.98
298.15	10000	1206.22	0.98
298.15	12000	1207.12	0.99
298.15	14000	1208	0.99
298.15	20000	1210.64	0.99
298.15	30000	1214.97	0.99
298.15	40000	1219.15	0.99
298.15	50000	1223.24	0.99
298.15	60000	1227.21	0.99
303.15	100	1198.09	0.98
303.15	2000	1198.98	0.98
303.15	4000	1199.92	0.98
303.15	6000	1200.85	0.98
303.15	8000	1201.78	0.98
303.15	10000	1202.7	0.98
303.15	12000	1203.62	0.98
303.15	14000	1204.52	0.98
303.15	20000	1207.18	0.98
303.15	30000	1211.54	0.98
303.15	40000	1215.79	0.98
303.15	50000	1219.9	0.99
303.15	60000	1223.89	0.99
308.15	100	1194.52	0.98
308.15	2000	1195.44	0.98
308.15	4000	1196.38	0.98
308.15	6000	1197.34	0.97
308.15	8000	1198.26	0.98
308.15	10000	1199.2	0.97
308.15	12000	1200.1	0.98
308.15	14000	1201.03	1.01
308.15	20000	1203.74	0.97
308.15	30000	1208.15	0.97
308.15	40000	1212.4	0.98
308.15	50000	1216.54	0.98
308.15	60000	1220.57	0.98
313.15	100	1191.01	0.97
313.15	2000	1191.92	0.97
313.15	4000	1192.9	0.97
313.15	6000	1193.86	0.97
313.15	8000	1194.8	0.97
313.15	10000	1195.75	0.97
313.15	12000	1196.67	0.97
313.15	14000	1197.1	1
313.15	20000	1200.34	0.97
313.15	30000	1204.81	0.97
313.15	40000	1209.11	0.97
313.15	50000	1213.28	0.97
313.15	60000	1217.34	0.97
318.15	100	1187.48	0.97
318.15	2000	1188.43	0.97
318.15	4000	1189.42	0.97
318.15	6000	1190.39	0.97
318.15	8000	1191.39	0.97
318.15	10000	1192.31	0.97
318.15	12000	1193.27	0.97
318.15	14000	1194.22	0.93
318.15	20000	1196.98	0.97
318.15	30000	1201.46	0.97
318.15	40000	1205.83	0.97
318.15	50000	1210.05	0.97
318.15	60000	1214.15	0.97
323.15	100	1184	0.97
323.15	2000	1184.97	0.97
323.15	4000	1185.97	0.97
323.15	6000	1186.94	0.97
323.15	8000	1187.91	0.97
323.15	10000	1188.88	0.97
323.15	12000	1189.84	0.97
323.15	14000	1190.78	0.97
323.15	20000	1193.6	0.97
323.15	30000	1198.15	0.97
323.15	40000	1202.55	0.97
323.15	50000	1206.8	0.98
323.15	60000	1210.94	0.97
