Measured thermophysical data. Volumetric and conductometric studies on the interactions of dipeptides with potassium perfluoroalkanesulfonate in aqueous solution at different temperatures
Source: J. Chem. Thermodyn., 2016, 10.1016/j.jct.2015.10.004
Compound 1: glycylglycine, C4H8N2O3, InChI=1S/C4H8N2O3/c5-1-3(7)6-2-4(8)9/h1-2,5H2,(H,6,7)(H,8,9), purity 99%
Compound 2: glycyl-L-valine, C7H14N2O3, InChI=1S/C7H14N2O3/c1-4(2)6(7(11)12)9-5(10)3-8/h4,6H,3,8H2,1-2H3,(H,9,10)(H,11,12)/t6-/m0/s1, purity 99%
Compound 3: glycyl-L-leucine, C8H16N2O3, InChI=1S/C8H16N2O3/c1-5(2)3-6(8(12)13)10-7(11)4-9/h5-6H,3-4,9H2,1-2H3,(H,10,11)(H,12,13)/t6-/m0/s1, purity 99%
Compound 4: glycyl-l-glutamine, C7H13N3O4, InChI=1S/C7H13N3O4/c8-3-6(12)10-4(7(13)14)1-2-5(9)11/h4H,1-3,8H2,(H2,9,11)(H,10,12)(H,13,14)/t4-/m0/s1, purity 99.8%
Compound 5: L-alanyl-L-glutamine, C8H15N3O4, InChI=1S/C8H15N3O4/c1-4(9)7(13)11-5(8(14)15)2-3-6(10)12/h4-5H,2-3,9H2,1H3,(H2,10,12)(H,11,13)(H,14,15)/t4-,5-/m0/s1, purity 99.2%
Compound 6: water, H2O, InChI=1S/H2O/h1H2
Compound 7: potassium perfluorobutanesulfonate, C4F9KO3S, InChI=1S/C4HF9O3S.K/c5-1(6,3(9,10)11)2(7,8)4(12,13)17(14,15)16;/h(H,14,15,16);/q;+1/p-1, purity 99%
Compound 8: potassium perfluorooctanesulfonate, C8F17KO3S, InChI=1S/C8HF17O3S.K/c9-1(10,3(13,14)5(17,18)7(21,22)23)2(11,12)4(15,16)6(19,20)8(24,25)29(26,27)28;/h(H,26,27,28);/q;+1/p-1, purity 99%

System: glycylglycine + water + potassium perfluorobutanesulfonate; phases: Liquid
Fixed: Pressure, kPa = 101
Fixed: Solvent: Molality, mol/kg of potassium perfluorobutanesulfonate = 0.04
Property: Mass density, kg/m3 (Liquid); method: Pycnometric method
Molality, mol/kg of glycylglycine	Temperature, K	Mass density, kg/m3	uncertainty
0	288.15	1006.5	0.5
0.0606	288.15	1010.2	0.5
0.1006	288.15	1012.5	0.5
0.1204	288.15	1013.6	0.5
0.141	288.15	1014.8	0.5
0.1602	288.15	1015.9	0.5
0.1813	288.15	1017.2	0.5
0.2131	288.15	1019	0.5
0	293.15	1005.6	0.5
0.0383	293.15	1007.7	0.5
0.0606	293.15	1009	0.5
0.081	293.15	1010.1	0.5
0.1006	293.15	1011.2	0.5
0.1204	293.15	1012.3	0.5
0.141	293.15	1013.5	0.5
0.1602	293.15	1014.6	0.5
0.1813	293.15	1015.7	0.5
0.2131	293.15	1017.5	0.5
0	298.15	1004.3	0.5
0.0202	298.15	1005.4	0.5
0.0383	298.15	1006.4	0.5
0.0606	298.15	1007.7	0.5
0.081	298.15	1008.8	0.5
0.1006	298.15	1009.9	0.5
0.1204	298.15	1011	0.5
0.141	298.15	1012.2	0.5
0.1602	298.15	1013.3	0.5
0.1813	298.15	1014.4	0.5
0.2131	298.15	1016.2	0.5
0	303.15	1002.7	0.5
0.0202	303.15	1003.9	0.5
0.0383	303.15	1004.8	0.5
0.0606	303.15	1006	0.5
0.081	303.15	1007.2	0.5
0.1006	303.15	1008.3	0.5
0.1204	303.15	1009.4	0.5
0.141	303.15	1010.5	0.5
0.1602	303.15	1011.6	0.5
0.1813	303.15	1012.7	0.5
0.2131	303.15	1014.5	0.5

System: glycylglycine + water + potassium perfluorobutanesulfonate; phases: Liquid
Fixed: Pressure, kPa = 101
Property: Electrical conductivity, S/m (Liquid); method: Alternating current cell with electrodes
Temperature, K	Solvent: Molality, mol/kg of glycylglycine	Molality, mol/kg of potassium perfluorobutanesulfonate	Electrical conductivity, S/m	uncertainty
293.15	0.05	0	0.00328	0.00046
293.15	0.05	0.00027	0.0057	0.00048
293.15	0.05	0.00048	0.0076	0.00057
293.15	0.05	0.00071	0.00956	0.00066
293.15	0.05	0.00102	0.01219	0.00081
293.15	0.05	0.00139	0.01533	0.00098
293.15	0.05	0.00185	0.01914	0.0012
293.15	0.05	0.00237	0.0235	0.0014
293.15	0.05	0.00298	0.0286	0.0017
293.15	0.05	0.00364	0.0337	0.002
293.15	0.05	0.00434	0.0393	0.0024
293.15	0.05	0.00513	0.0454	0.0027
293.15	0.05	0.00588	0.0509	0.0031
293.15	0.05	0.00663	0.0564	0.0034
293.15	0.05	0.00741	0.062	0.0037
293.15	0.05	0.00826	0.0681	0.0041
293.15	0.05	0.0091	0.0738	0.0044
298.15	0.05	0	0.00355	0.00048
298.15	0.05	0.00027	0.00624	0.00053
298.15	0.05	0.00048	0.00836	0.00063
298.15	0.05	0.00071	0.01052	0.00073
298.15	0.05	0.00102	0.01344	0.00089
298.15	0.05	0.00139	0.01693	0.00109
298.15	0.05	0.00185	0.0212	0.0013
298.15	0.05	0.00237	0.0261	0.0016
298.15	0.05	0.00298	0.0315	0.0019
298.15	0.05	0.00364	0.0373	0.0023
298.15	0.05	0.00434	0.0435	0.0026
298.15	0.05	0.00513	0.0502	0.003
298.15	0.05	0.00588	0.0563	0.0034
298.15	0.05	0.00663	0.0623	0.0038
298.15	0.05	0.00741	0.0686	0.0041
298.15	0.05	0.00826	0.0756	0.0045
298.15	0.05	0.0091	0.082	0.0049
303.15	0.05	0	0.00385	0.00052
303.15	0.05	0.00027	0.00683	0.00058
303.15	0.05	0.00048	0.00916	0.00069
303.15	0.05	0.00071	0.01155	0.0008
303.15	0.05	0.00102	0.01479	0.00098
303.15	0.05	0.00139	0.01859	0.00119
303.15	0.05	0.00237	0.0287	0.0018
303.15	0.05	0.00298	0.0346	0.0021
303.15	0.05	0.00364	0.041	0.0025
303.15	0.05	0.00434	0.0476	0.0029
303.15	0.05	0.00513	0.0552	0.0033
303.15	0.05	0.00588	0.0619	0.0037
303.15	0.05	0.00663	0.0686	0.0041
303.15	0.05	0.00741	0.0755	0.0045
303.15	0.05	0.00826	0.083	0.005
308.15	0.05	0	0.00429	0.00058
308.15	0.05	0.00027	0.00753	0.00064
308.15	0.05	0.00048	0.01011	0.00077
308.15	0.05	0.00071	0.01277	0.00088
308.15	0.05	0.00102	0.01636	0.00108
308.15	0.05	0.00139	0.0206	0.0013
308.15	0.05	0.00185	0.0258	0.0016
308.15	0.05	0.00237	0.0315	0.0019
308.15	0.05	0.00298	0.038	0.0023
308.15	0.05	0.00364	0.0451	0.0027
308.15	0.05	0.00434	0.0523	0.0032
308.15	0.05	0.00513	0.0606	0.0037
308.15	0.05	0.00588	0.068	0.0041
308.15	0.05	0.00663	0.0753	0.0045
308.15	0.05	0.00741	0.0828	0.005
313.15	0.05	0	0.00474	0.00083
313.15	0.05	8e-05	0.00587	0.00072
313.15	0.05	0.00027	0.00829	0.00069
313.15	0.05	0.00048	0.01107	0.00084
313.15	0.05	0.00071	0.01403	0.00097
313.15	0.05	0.00102	0.01789	0.00119
313.15	0.05	0.00185	0.0282	0.0018
313.15	0.05	0.00237	0.0344	0.0021
313.15	0.05	0.00298	0.0415	0.0025
313.15	0.05	0.00364	0.0492	0.003
313.15	0.05	0.00434	0.0569	0.0034
313.15	0.05	0.00513	0.0661	0.004
313.15	0.05	0.00588	0.074	0.0045
313.15	0.05	0.00663	0.0821	0.0049
313.15	0.05	0.00741	0.0902	0.0054
293.15	0.1	0	0.00543	0.00048
293.15	0.1	0.00049	0.00977	0.00068
293.15	0.1	0.00083	0.01269	0.00083
293.15	0.1	0.00119	0.01572	0.001
293.15	0.1	0.00162	0.01931	0.00121
293.15	0.1	0.00265	0.0278	0.0017
293.15	0.1	0.00327	0.0327	0.002
293.15	0.1	0.00389	0.0374	0.0023
293.15	0.1	0.00454	0.0424	0.0026
293.15	0.1	0.00523	0.0477	0.0029
293.15	0.1	0.00593	0.0528	0.0032
293.15	0.1	0.00667	0.0582	0.0035
293.15	0.1	0.00745	0.0638	0.0038
293.15	0.1	0.00827	0.0696	0.0042
293.15	0.1	0.00914	0.0756	0.0045
293.15	0.1	0.01002	0.0815	0.0049
298.15	0.1	0	0.00593	0.00053
298.15	0.1	0.00049	0.01075	0.00075
298.15	0.1	0.00083	0.014	0.00092
298.15	0.1	0.00119	0.01736	0.00111
298.15	0.1	0.00162	0.0214	0.0013
298.15	0.1	0.0021	0.0258	0.0016
298.15	0.1	0.00265	0.0308	0.0019
298.15	0.1	0.00327	0.0361	0.0022
298.15	0.1	0.00389	0.0414	0.0025
298.15	0.1	0.00454	0.047	0.0028
298.15	0.1	0.00523	0.0528	0.0032
298.15	0.1	0.00593	0.0585	0.0035
298.15	0.1	0.00667	0.0644	0.0039
298.15	0.1	0.00745	0.0706	0.0042
298.15	0.1	0.00827	0.0769	0.0046
298.15	0.1	0.00914	0.0835	0.005
298.15	0.1	0.01002	0.0903	0.0054
303.15	0.1	0	0.00652	0.00059
303.15	0.1	0.00049	0.01185	0.00083
303.15	0.1	0.00083	0.01544	0.00102
303.15	0.1	0.00119	0.01914	0.00122
303.15	0.1	0.0021	0.0284	0.0018
303.15	0.1	0.00265	0.0338	0.0021
303.15	0.1	0.00327	0.0398	0.0024
303.15	0.1	0.00389	0.0457	0.0028
303.15	0.1	0.00454	0.0518	0.0031
303.15	0.1	0.00523	0.0581	0.0035
303.15	0.1	0.00593	0.0643	0.0039
303.15	0.1	0.00667	0.071	0.0043
303.15	0.1	0.00745	0.0777	0.0047
303.15	0.1	0.00827	0.0847	0.0051
303.15	0.1	0.00914	0.092	0.0055
303.15	0.1	0.01002	0.0993	0.006
308.15	0.1	0	0.00724	0.00065
308.15	0.1	0.00049	0.0131	0.00092
308.15	0.1	0.00083	0.01703	0.00112
308.15	0.1	0.00119	0.0211	0.0013
308.15	0.1	0.00162	0.026	0.0016
308.15	0.1	0.0021	0.0313	0.0019
308.15	0.1	0.00265	0.0373	0.0023
308.15	0.1	0.00327	0.0438	0.0027
308.15	0.1	0.00389	0.0502	0.003
308.15	0.1	0.00454	0.0569	0.0034
308.15	0.1	0.00523	0.0638	0.0038
308.15	0.1	0.00593	0.0708	0.0043
308.15	0.1	0.00667	0.0779	0.0047
308.15	0.1	0.00745	0.0853	0.0051
308.15	0.1	0.00827	0.0931	0.0056
313.15	0.1	0	0.00805	0.00071
313.15	0.1	0.00049	0.01445	0.00101
313.15	0.1	0.00083	0.01872	0.00123
313.15	0.1	0.00119	0.0232	0.0015
313.15	0.1	0.00162	0.0285	0.0018
313.15	0.1	0.0021	0.0343	0.0021
313.15	0.1	0.00265	0.0407	0.0025
313.15	0.1	0.00327	0.048	0.0029
313.15	0.1	0.00389	0.0549	0.0033
313.15	0.1	0.00454	0.0622	0.0038
313.15	0.1	0.00523	0.0697	0.0042
313.15	0.1	0.00593	0.0773	0.0047
313.15	0.1	0.00667	0.085	0.0051
313.15	0.1	0.00745	0.0932	0.0056
313.15	0.1	0.00827	0.1014	0.0061
293.15	0.15	0	0.00745	0.00053
293.15	0.15	0.00026	0.00971	0.00068
293.15	0.15	0.00077	0.01409	0.00092
293.15	0.15	0.00115	0.01738	0.0011
293.15	0.15	0.00163	0.0213	0.0013
293.15	0.15	0.0027	0.03	0.0018
293.15	0.15	0.00332	0.0348	0.0021
293.15	0.15	0.004	0.04	0.0024
293.15	0.15	0.00473	0.0455	0.0027
293.15	0.15	0.0055	0.0511	0.0031
293.15	0.15	0.00631	0.057	0.0034
293.15	0.15	0.00714	0.0629	0.0038
293.15	0.15	0.00788	0.0681	0.0041
293.15	0.15	0.0086	0.073	0.0044
293.15	0.15	0.00925	0.0774	0.0047
293.15	0.15	0.00992	0.0818	0.0049
298.15	0.15	0	0.00818	0.0006
298.15	0.15	0.00026	0.01069	0.00075
298.15	0.15	0.00077	0.01555	0.00101
298.15	0.15	0.00115	0.01919	0.00121
298.15	0.15	0.00163	0.0235	0.0015
298.15	0.15	0.00213	0.0282	0.0017
298.15	0.15	0.0027	0.0331	0.002
298.15	0.15	0.00332	0.0385	0.0023
298.15	0.15	0.004	0.0442	0.0027
298.15	0.15	0.00473	0.0504	0.003
298.15	0.15	0.0055	0.0565	0.0034
298.15	0.15	0.00631	0.063	0.0038
298.15	0.15	0.00714	0.0695	0.0042
298.15	0.15	0.00788	0.0753	0.0045
298.15	0.15	0.0086	0.0807	0.0049
298.15	0.15	0.00925	0.0855	0.0051
298.15	0.15	0.00992	0.0906	0.0054
303.15	0.15	0	0.00904	0.00067
303.15	0.15	0.00026	0.01181	0.00083
303.15	0.15	0.00077	0.01719	0.00112
303.15	0.15	0.00115	0.0212	0.0013
303.15	0.15	0.00163	0.0261	0.0016
303.15	0.15	0.00213	0.031	0.0019
303.15	0.15	0.0027	0.0365	0.0022
303.15	0.15	0.00332	0.0424	0.0026
303.15	0.15	0.004	0.0488	0.003
303.15	0.15	0.00473	0.0555	0.0034
303.15	0.15	0.0055	0.0623	0.0038
303.15	0.15	0.00631	0.0693	0.0042
303.15	0.15	0.00714	0.0766	0.0046
303.15	0.15	0.00788	0.0829	0.005
303.15	0.15	0.0086	0.0888	0.0053
303.15	0.15	0.00925	0.0942	0.0057
308.15	0.15	0	0.01008	0.00074
308.15	0.15	0.00026	0.01313	0.00092
308.15	0.15	0.00047	0.01555	0.00104
308.15	0.15	0.00077	0.01903	0.00123
308.15	0.15	0.00115	0.0233	0.0015
308.15	0.15	0.00163	0.0288	0.0018
308.15	0.15	0.00213	0.0342	0.0021
308.15	0.15	0.0027	0.0402	0.0024
308.15	0.15	0.00332	0.0466	0.0028
308.15	0.15	0.004	0.0537	0.0032
308.15	0.15	0.00473	0.061	0.0037
308.15	0.15	0.0055	0.0684	0.0041
308.15	0.15	0.00631	0.0763	0.0046
308.15	0.15	0.00714	0.0841	0.0051
308.15	0.15	0.00788	0.091	0.0055
313.15	0.15	0	0.01129	0.00082
313.15	0.15	0.00026	0.01461	0.00103
313.15	0.15	0.00047	0.01725	0.00114
313.15	0.15	0.00077	0.021	0.0014
313.15	0.15	0.00115	0.0258	0.0016
313.15	0.15	0.00163	0.0316	0.002
313.15	0.15	0.00213	0.0375	0.0023
313.15	0.15	0.0027	0.0441	0.0027
313.15	0.15	0.00332	0.0511	0.0031
313.15	0.15	0.004	0.0588	0.0036
313.15	0.15	0.00473	0.0666	0.004
313.15	0.15	0.0055	0.0749	0.0045
313.15	0.15	0.00631	0.0833	0.005
313.15	0.15	0.00714	0.0915	0.0055
313.15	0.15	0.00788	0.099	0.006
293.15	0.2	0	0.01055	0.00072
293.15	0.2	0.00028	0.01291	0.00084
293.15	0.2	0.00054	0.01503	0.00096
293.15	0.2	0.00083	0.01736	0.00109
293.15	0.2	0.0012	0.0204	0.0013
293.15	0.2	0.00165	0.0238	0.0015
293.15	0.2	0.00216	0.0278	0.0017
293.15	0.2	0.00272	0.0321	0.002
293.15	0.2	0.00332	0.0366	0.0022
293.15	0.2	0.00397	0.0413	0.0025
293.15	0.2	0.00466	0.0464	0.0028
293.15	0.2	0.00543	0.0519	0.0031
293.15	0.2	0.00624	0.0576	0.0035
293.15	0.2	0.00699	0.0627	0.0038
293.15	0.2	0.00774	0.0676	0.0041
293.15	0.2	0.00843	0.0723	0.0043
293.15	0.2	0.00915	0.0769	0.0046
298.15	0.2	0	0.0115	0.00079
298.15	0.2	0.00028	0.01421	0.00093
298.15	0.2	0.00054	0.01662	0.00107
298.15	0.2	0.00083	0.01936	0.00122
298.15	0.2	0.0012	0.0228	0.0014
298.15	0.2	0.00165	0.0268	0.0016
298.15	0.2	0.00216	0.0314	0.0019
298.15	0.2	0.00272	0.0362	0.0022
298.15	0.2	0.00332	0.0416	0.0025
298.15	0.2	0.00397	0.0469	0.0028
298.15	0.2	0.00466	0.0529	0.0032
298.15	0.2	0.00543	0.0591	0.0036
298.15	0.2	0.00624	0.0657	0.004
298.15	0.2	0.00699	0.0716	0.0043
298.15	0.2	0.00774	0.0774	0.0047
298.15	0.2	0.00843	0.0825	0.005
298.15	0.2	0.00915	0.0879	0.0053
303.15	0.2	0	0.0125	0.00083
303.15	0.2	0.00012	0.01374	0.00091
303.15	0.2	0.00028	0.01538	0.001
303.15	0.2	0.00054	0.0179	0.00114
303.15	0.2	0.00083	0.0208	0.0013
303.15	0.2	0.00121	0.0244	0.0015
303.15	0.2	0.00165	0.0287	0.0018
303.15	0.2	0.00216	0.0335	0.002
303.15	0.2	0.00272	0.0386	0.0023
303.15	0.2	0.00333	0.0442	0.0027
303.15	0.2	0.00397	0.0499	0.003
303.15	0.2	0.00467	0.0561	0.0034
303.15	0.2	0.00543	0.0626	0.0038
303.15	0.2	0.00625	0.0696	0.0042
303.15	0.2	0.007	0.0757	0.0046
303.15	0.2	0.00774	0.0822	0.005
308.15	0.2	0	0.014	0.00095
308.15	0.2	0.00234	0.0394	0.0024
308.15	0.2	0.003	0.0462	0.0028
308.15	0.2	0.0037	0.0532	0.0032
308.15	0.2	0.00446	0.0608	0.0037
308.15	0.2	0.00524	0.0684	0.0041
308.15	0.2	0.006	0.0758	0.0046
308.15	0.2	0.00674	0.0828	0.005
308.15	0.2	0.00786	0.0925	0.0056
308.15	0.2	0.00851	0.098	0.0059
308.15	0.2	0.00909	0.1043	0.0063
308.15	0.2	0.01004	0.1126	0.0068
313.15	0.2	0	0.01549	0.00105
313.15	0.2	0.00028	0.01893	0.00123
313.15	0.2	0.0012	0.0298	0.0018
313.15	0.2	0.00165	0.0348	0.0021
313.15	0.2	0.00216	0.0405	0.0025
313.15	0.2	0.00272	0.0466	0.0028
313.15	0.2	0.00332	0.0532	0.0032
313.15	0.2	0.00397	0.0602	0.0036
313.15	0.2	0.00466	0.0674	0.0041
313.15	0.2	0.00543	0.0753	0.0045
313.15	0.2	0.00624	0.0835	0.005
313.15	0.2	0.00699	0.0909	0.0055
313.15	0.2	0.00774	0.0979	0.0059
313.15	0.2	0.00843	0.1047	0.0063
313.15	0.2	0.00915	0.1113	0.0067
293.15	0	0	8.75e-05	0.0003599
293.15	0	0.0003	0.00278	0.0004
293.15	0	0.00054	0.00499	0.00046
293.15	0	0.00087	0.00784	0.00058
293.15	0	0.00125	0.01111	0.00075
293.15	0	0.00164	0.01447	0.00093
293.15	0	0.00207	0.01814	0.00114
293.15	0	0.00259	0.0227	0.0014
293.15	0	0.00315	0.0273	0.0017
293.15	0	0.00374	0.0322	0.002
293.15	0	0.00437	0.0372	0.0023
293.15	0	0.00501	0.0423	0.0026
293.15	0	0.00571	0.0478	0.0029
293.15	0	0.00646	0.0537	0.0032
293.15	0	0.00723	0.0596	0.0036
293.15	0	0.00809	0.0661	0.004
293.15	0	0.00904	0.0731	0.0044
298.15	0	0	9.65e-05	0.0004041
298.15	0	0.0003	0.00312	0.00045
298.15	0	0.00054	0.00562	0.00052
298.15	0	0.00087	0.00882	0.00066
298.15	0	0.00125	0.01252	0.00085
298.15	0	0.00164	0.01629	0.00105
298.15	0	0.00207	0.0203	0.0013
298.15	0	0.00259	0.0253	0.0016
298.15	0	0.00315	0.0304	0.0019
298.15	0	0.00374	0.0357	0.0022
298.15	0	0.00437	0.0415	0.0025
298.15	0	0.00501	0.0471	0.0028
298.15	0	0.00571	0.0532	0.0032
298.15	0	0.00646	0.0596	0.0036
298.15	0	0.00723	0.0662	0.004
298.15	0	0.00809	0.0734	0.0044
298.15	0	0.00904	0.0814	0.0049
303.15	0	0	0.0001062	0.0004457
303.15	0	0.0003	0.00344	0.0005
303.15	0	0.00054	0.00619	0.00058
303.15	0	0.00087	0.00972	0.00072
303.15	0	0.00125	0.0138	0.00093
303.15	0	0.00164	0.01796	0.00116
303.15	0	0.00207	0.0226	0.0014
303.15	0	0.00259	0.0279	0.0017
303.15	0	0.00315	0.0336	0.0021
303.15	0	0.00374	0.0395	0.0024
303.15	0	0.00437	0.0457	0.0028
303.15	0	0.00501	0.0521	0.0032
303.15	0	0.00571	0.0588	0.0035
303.15	0	0.00646	0.0658	0.004
303.15	0	0.00723	0.0732	0.0044
303.15	0	0.00809	0.081	0.0049
308.15	0	0	0.0001122	0.0004903
308.15	0	0.0003	0.00378	0.00055
308.15	0	0.00054	0.00681	0.00063
308.15	0	0.00087	0.01069	0.0008
308.15	0	0.00125	0.01518	0.00103
308.15	0	0.00164	0.01974	0.00128
308.15	0	0.00207	0.0248	0.0016
308.15	0	0.00259	0.0307	0.0019
308.15	0	0.00315	0.0369	0.0023
308.15	0	0.00374	0.0434	0.0026
308.15	0	0.00437	0.0504	0.0031
308.15	0	0.00501	0.0572	0.0035
308.15	0	0.00571	0.0646	0.0039
308.15	0	0.00646	0.0725	0.0044
308.15	0	0.00723	0.0805	0.0048
313.15	0	0	0.0001164	0.0005365
313.15	0	0.0003	0.00413	0.0006
313.15	0	0.00054	0.00742	0.00069
313.15	0	0.00087	0.01167	0.00087
313.15	0	0.00125	0.01657	0.00112
313.15	0	0.00207	0.0271	0.0017
313.15	0	0.00259	0.0335	0.0021
313.15	0	0.00315	0.0403	0.0025
313.15	0	0.00374	0.0474	0.0029
313.15	0	0.00437	0.0549	0.0033
313.15	0	0.00501	0.0625	0.0038
313.15	0	0.00571	0.0705	0.0043
313.15	0	0.00646	0.0792	0.0048
313.15	0	0.00723	0.0878	0.0053
313.15	0	0.00809	0.0976	0.0059

System: glycyl-L-valine + water + potassium perfluorobutanesulfonate; phases: Liquid
Fixed: Pressure, kPa = 101
Fixed: Solvent: Molality, mol/kg of potassium perfluorobutanesulfonate = 0.04
Property: Mass density, kg/m3 (Liquid); method: Pycnometric method
Molality, mol/kg of glycyl-L-valine	Temperature, K	Mass density, kg/m3	uncertainty
0	288.15	1006.5	0.5
0.0197	288.15	1007.5	0.5
0.0304	288.15	1008	0.5
0.0605	288.15	1009.6	0.5
0.0783	288.15	1010.6	0.5
0.1168	288.15	1012.6	0.5
0.1388	288.15	1013.9	0.5
0.1573	288.15	1014.8	0.5
0	293.15	1005.6	0.5
0.0197	293.15	1006.4	0.5
0.0304	293.15	1007	0.5
0.0605	293.15	1008.6	0.5
0.0783	293.15	1009.5	0.5
0.0852	293.15	1009.9	0.5
0.1168	293.15	1011.5	0.5
0.1388	293.15	1012.7	0.5
0	298.15	1004.3	0.5
0.0197	298.15	1005.3	0.5
0.0304	298.15	1005.8	0.5
0.0388	298.15	1006.3	0.5
0.0605	298.15	1007.4	0.5
0.0783	298.15	1008.3	0.5
0.0852	298.15	1008.7	0.5
0.1018	298.15	1009.5	0.5
0.1168	298.15	1010.3	0.5
0.1388	298.15	1011.4	0.5
0.1573	298.15	1012.4	0.5
0	303.15	1002.7	0.5
0.0197	303.15	1003.6	0.5
0.0304	303.15	1004.2	0.5
0.0388	303.15	1004.7	0.5
0.0605	303.15	1005.8	0.5
0.0783	303.15	1006.7	0.5
0.0852	303.15	1007	0.5
0.1018	303.15	1007.9	0.5
0.1168	303.15	1008.7	0.5
0.1388	303.15	1009.9	0.5
0.1573	303.15	1010.8	0.5

System: glycyl-L-valine + water + potassium perfluorobutanesulfonate; phases: Liquid
Fixed: Pressure, kPa = 101
Property: Electrical conductivity, S/m (Liquid); method: Alternating current cell with electrodes
Temperature, K	Solvent: Molality, mol/kg of glycyl-L-valine	Molality, mol/kg of potassium perfluorobutanesulfonate	Electrical conductivity, S/m	uncertainty
293.15	0.05	0	0.00323	0.00039
293.15	0.05	0.00015	0.0045	0.00044
293.15	0.05	0.00033	0.00609	0.0005
293.15	0.05	0.00064	0.00875	0.00063
293.15	0.05	0.00099	0.01171	0.00078
293.15	0.05	0.00142	0.01534	0.00098
293.15	0.05	0.00194	0.01958	0.00122
293.15	0.05	0.00246	0.0238	0.0015
293.15	0.05	0.00303	0.0285	0.0017
293.15	0.05	0.00366	0.0335	0.002
293.15	0.05	0.00421	0.0378	0.0023
293.15	0.05	0.00503	0.0443	0.0027
293.15	0.05	0.00571	0.0495	0.003
293.15	0.05	0.00644	0.0552	0.0033
293.15	0.05	0.00717	0.0605	0.0036
293.15	0.05	0.00792	0.0661	0.004
293.15	0.05	0.00872	0.072	0.0043
298.15	0.05	0	0.00347	0.00043
298.15	0.05	0.00015	0.00488	0.00048
298.15	0.05	0.00033	0.00665	0.00055
298.15	0.05	0.00064	0.0096	0.00069
298.15	0.05	0.00099	0.01291	0.00086
298.15	0.05	0.00142	0.01694	0.00108
298.15	0.05	0.00194	0.0217	0.0014
298.15	0.05	0.00246	0.0264	0.0016
298.15	0.05	0.00303	0.0316	0.0019
298.15	0.05	0.00366	0.0372	0.0023
298.15	0.05	0.00421	0.0419	0.0025
298.15	0.05	0.00503	0.0492	0.003
298.15	0.05	0.00571	0.055	0.0033
298.15	0.05	0.00644	0.0611	0.0037
298.15	0.05	0.00717	0.0673	0.0041
298.15	0.05	0.00792	0.0735	0.0044
298.15	0.05	0.00872	0.0799	0.0048
303.15	0.05	0	0.00374	0.00047
303.15	0.05	0.00015	0.0053	0.00053
303.15	0.05	0.00032	0.00713	0.0006
303.15	0.05	0.00062	0.01028	0.00074
303.15	0.05	0.00099	0.01411	0.00094
303.15	0.05	0.00141	0.01852	0.00119
303.15	0.05	0.00193	0.0238	0.0015
303.15	0.05	0.00244	0.0289	0.0018
303.15	0.05	0.00301	0.0348	0.0021
303.15	0.05	0.00362	0.0407	0.0025
303.15	0.05	0.00428	0.047	0.0028
303.15	0.05	0.00498	0.0537	0.0032
303.15	0.05	0.0057	0.0604	0.0036
303.15	0.05	0.00642	0.0672	0.0041
303.15	0.05	0.00714	0.0739	0.0044
303.15	0.05	0.00789	0.0806	0.0048
303.15	0.05	0.0087	0.0875	0.0053
303.15	0.05	0.00951	0.0944	0.0057
303.15	0.05	0.01029	0.1009	0.0061
308.15	0.05	0	0.00407	0.00052
308.15	0.05	0.00032	0.00783	0.00066
308.15	0.05	0.00062	0.01129	0.00082
308.15	0.05	0.00099	0.01556	0.00104
308.15	0.05	0.00142	0.0205	0.0013
308.15	0.05	0.00194	0.0263	0.0016
308.15	0.05	0.00245	0.032	0.002
308.15	0.05	0.00302	0.0384	0.0023
308.15	0.05	0.00363	0.0452	0.0027
308.15	0.05	0.00429	0.0523	0.0032
308.15	0.05	0.005	0.0599	0.0036
308.15	0.05	0.00571	0.0673	0.0041
308.15	0.05	0.00644	0.0752	0.0045
308.15	0.05	0.00716	0.0824	0.005
308.15	0.05	0.00791	0.0899	0.0054
313.15	0.05	0	0.00456	0.00058
313.15	0.05	0.00032	0.00863	0.00073
313.15	0.05	0.00062	0.01242	0.0009
313.15	0.05	0.00099	0.01707	0.00114
313.15	0.05	0.00142	0.0224	0.0014
313.15	0.05	0.00194	0.0288	0.0018
313.15	0.05	0.00245	0.035	0.0022
313.15	0.05	0.00302	0.042	0.0026
313.15	0.05	0.00363	0.0492	0.003
313.15	0.05	0.00429	0.0569	0.0034
313.15	0.05	0.005	0.0652	0.0039
313.15	0.05	0.00571	0.0736	0.0044
313.15	0.05	0.00644	0.0818	0.0049
313.15	0.05	0.00716	0.0896	0.0054
313.15	0.05	0.00791	0.0981	0.0059
313.15	0.05	0.00872	0.1069	0.0064
293.15	0.1	0	0.00535	0.00047
293.15	0.1	0.00048	0.00944	0.00066
293.15	0.1	0.00071	0.01133	0.00076
293.15	0.1	0.00096	0.01344	0.00087
293.15	0.1	0.00126	0.01594	0.00101
293.15	0.1	0.00195	0.0216	0.0013
293.15	0.1	0.00237	0.0251	0.0015
293.15	0.1	0.00283	0.0287	0.0018
293.15	0.1	0.00335	0.0329	0.002
293.15	0.1	0.0039	0.0373	0.0023
293.15	0.1	0.00457	0.0425	0.0026
293.15	0.1	0.00531	0.0482	0.0029
293.15	0.1	0.0062	0.055	0.0033
293.15	0.1	0.00749	0.0646	0.0039
293.15	0.1	0.00868	0.0734	0.0044
293.15	0.1	0.0099	0.0823	0.0049
298.15	0.1	0	0.00582	0.00052
298.15	0.1	0.00018	0.00757	0.00059
298.15	0.1	0.00032	0.00888	0.00065
298.15	0.1	0.00048	0.01038	0.00073
298.15	0.1	0.00071	0.01246	0.00084
298.15	0.1	0.00096	0.0148	0.00096
298.15	0.1	0.00195	0.024	0.0015
298.15	0.1	0.00237	0.0278	0.0017
298.15	0.1	0.00283	0.0318	0.0019
298.15	0.1	0.00335	0.0364	0.0022
298.15	0.1	0.0039	0.0412	0.0025
298.15	0.1	0.00457	0.047	0.0028
298.15	0.1	0.00531	0.0534	0.0032
298.15	0.1	0.0062	0.0608	0.0037
298.15	0.1	0.00749	0.0716	0.0043
298.15	0.1	0.00868	0.0811	0.0049
298.15	0.1	0.0099	0.0912	0.0055
303.15	0.1	0	0.00636	0.00056
303.15	0.1	6e-05	0.00699	0.0006
303.15	0.1	0.00018	0.00829	0.00067
303.15	0.1	0.00032	0.00977	0.00072
303.15	0.1	0.00048	0.01139	0.00079
303.15	0.1	0.00071	0.01368	0.00092
303.15	0.1	0.00096	0.01625	0.00106
303.15	0.1	0.00126	0.01937	0.00123
303.15	0.1	0.00159	0.0227	0.0014
303.15	0.1	0.00195	0.0263	0.0016
303.15	0.1	0.00237	0.0305	0.0019
303.15	0.1	0.00283	0.035	0.0021
303.15	0.1	0.00335	0.0402	0.0024
303.15	0.1	0.0039	0.0455	0.0028
303.15	0.1	0.00457	0.0518	0.0031
303.15	0.1	0.00531	0.0588	0.0035
303.15	0.1	0.0062	0.067	0.004
303.15	0.1	0.00749	0.0788	0.0047
303.15	0.1	0.00868	0.0893	0.0054
303.15	0.1	0.0099	0.1	0.006
308.15	0.1	0	0.00705	0.00063
308.15	0.1	0.00032	0.01077	0.00079
308.15	0.1	0.00048	0.01258	0.00088
308.15	0.1	0.00096	0.01797	0.00117
308.15	0.1	0.00126	0.0214	0.0014
308.15	0.1	0.00159	0.0251	0.0016
308.15	0.1	0.00195	0.029	0.0018
308.15	0.1	0.00237	0.0336	0.0021
308.15	0.1	0.00283	0.0386	0.0024
308.15	0.1	0.00335	0.0442	0.0027
308.15	0.1	0.0039	0.05	0.003
308.15	0.1	0.00457	0.0569	0.0034
308.15	0.1	0.00531	0.0647	0.0039
308.15	0.1	0.0062	0.0736	0.0044
308.15	0.1	0.00749	0.0866	0.0052
308.15	0.1	0.00868	0.0981	0.0059
308.15	0.1	0.0099	0.1098	0.0066
313.15	0.1	0	0.00783	0.00069
313.15	0.1	0.00032	0.01185	0.00087
313.15	0.1	0.00048	0.0138	0.00096
313.15	0.1	0.00126	0.0234	0.0015
313.15	0.1	0.00158	0.0274	0.0017
313.15	0.1	0.00194	0.0317	0.002
313.15	0.1	0.00236	0.0367	0.0023
313.15	0.1	0.00281	0.042	0.0026
313.15	0.1	0.00334	0.0481	0.0029
313.15	0.1	0.00389	0.0544	0.0033
313.15	0.1	0.00455	0.062	0.0037
313.15	0.1	0.00529	0.0702	0.0042
313.15	0.1	0.00617	0.08	0.0048
313.15	0.1	0.00746	0.0939	0.0057
313.15	0.1	0.00864	0.1066	0.0064
313.15	0.1	0.00985	0.1198	0.0072
293.15	0.15	0	0.00742	0.00054
293.15	0.15	0.00057	0.01218	0.00081
293.15	0.15	0.00092	0.01503	0.00096
293.15	0.15	0.00132	0.0182	0.00114
293.15	0.15	0.00179	0.022	0.0014
293.15	0.15	0.00235	0.0264	0.0016
293.15	0.15	0.00299	0.0315	0.0019
293.15	0.15	0.00371	0.037	0.0022
293.15	0.15	0.00448	0.0427	0.0026
293.15	0.15	0.00529	0.0489	0.003
293.15	0.15	0.00607	0.0547	0.0033
293.15	0.15	0.00683	0.0603	0.0036
293.15	0.15	0.00757	0.0657	0.004
293.15	0.15	0.00826	0.0706	0.0042
293.15	0.15	0.00896	0.0757	0.0046
298.15	0.15	0	0.00811	0.00058
298.15	0.15	0.00016	0.0096	0.00071
298.15	0.15	0.00032	0.01104	0.0007
298.15	0.15	0.00132	0.0201	0.0013
298.15	0.15	0.00179	0.0244	0.0015
298.15	0.15	0.00235	0.0292	0.0018
298.15	0.15	0.00299	0.0347	0.0021
298.15	0.15	0.00371	0.0408	0.0025
298.15	0.15	0.00448	0.047	0.0028
298.15	0.15	0.00529	0.054	0.0033
298.15	0.15	0.00607	0.0603	0.0036
298.15	0.15	0.00683	0.0666	0.004
298.15	0.15	0.00757	0.0728	0.0044
298.15	0.15	0.00826	0.0783	0.0047
298.15	0.15	0.00896	0.0838	0.005
303.15	0.15	0	0.00891	0.00067
303.15	0.15	0.00092	0.01833	0.00117
303.15	0.15	0.00132	0.0222	0.0014
303.15	0.15	0.00179	0.027	0.0017
303.15	0.15	0.00235	0.0323	0.002
303.15	0.15	0.00299	0.0384	0.0023
303.15	0.15	0.00371	0.0453	0.0027
303.15	0.15	0.00448	0.0525	0.0032
303.15	0.15	0.00529	0.06	0.0036
303.15	0.15	0.00607	0.0671	0.004
303.15	0.15	0.00683	0.074	0.0045
303.15	0.15	0.00757	0.0807	0.0049
303.15	0.15	0.00826	0.0868	0.0052
303.15	0.15	0.00896	0.093	0.0056
308.15	0.15	0	0.00989	0.00074
308.15	0.15	0.00057	0.01631	0.00107
308.15	0.15	0.00092	0.0202	0.0013
308.15	0.15	0.00132	0.0244	0.0015
308.15	0.15	0.00179	0.0296	0.0018
308.15	0.15	0.00235	0.0355	0.0022
308.15	0.15	0.00299	0.0422	0.0026
308.15	0.15	0.00371	0.0495	0.003
308.15	0.15	0.00448	0.0573	0.0035
308.15	0.15	0.00529	0.0656	0.004
308.15	0.15	0.00607	0.0734	0.0044
308.15	0.15	0.00683	0.0808	0.0049
308.15	0.15	0.00757	0.0881	0.0053
308.15	0.15	0.00826	0.0948	0.0057
308.15	0.15	0.00896	0.1014	0.0061
313.15	0.15	0	0.01103	0.00081
313.15	0.15	0.00057	0.018	0.00118
313.15	0.15	0.00092	0.0222	0.0014
313.15	0.15	0.00132	0.0268	0.0017
313.15	0.15	0.00179	0.0324	0.002
313.15	0.15	0.00235	0.0389	0.0024
313.15	0.15	0.00299	0.0461	0.0028
313.15	0.15	0.00371	0.0543	0.0033
313.15	0.15	0.00448	0.0627	0.0038
313.15	0.15	0.00529	0.0717	0.0043
313.15	0.15	0.00607	0.0801	0.0048
313.15	0.15	0.00683	0.0883	0.0053
313.15	0.15	0.00757	0.0963	0.0058
313.15	0.15	0.00826	0.1036	0.0062
313.15	0.15	0.00896	0.1109	0.0067
313.15	0.15	0.00965	0.1181	0.0071
293.15	0.2	0	0.01045	0.00071
293.15	0.2	0.00079	0.01687	0.00106
293.15	0.2	0.00107	0.01909	0.00119
293.15	0.2	0.00135	0.0213	0.0013
293.15	0.2	0.00164	0.0236	0.0015
293.15	0.2	0.00201	0.0265	0.0016
293.15	0.2	0.00242	0.0296	0.0018
293.15	0.2	0.00288	0.0331	0.002
293.15	0.2	0.00335	0.0368	0.0022
293.15	0.2	0.00385	0.0405	0.0024
293.15	0.2	0.00442	0.0448	0.0027
293.15	0.2	0.00512	0.0499	0.003
293.15	0.2	0.00592	0.0557	0.0034
293.15	0.2	0.00692	0.063	0.0038
293.15	0.2	0.00785	0.0696	0.0042
293.15	0.2	0.00878	0.0763	0.0046
293.15	0.2	0.00974	0.083	0.005
298.15	0.2	0	0.01135	0.00077
298.15	0.2	0.00164	0.026	0.0016
298.15	0.2	0.00201	0.0292	0.0018
298.15	0.2	0.00242	0.0326	0.002
298.15	0.2	0.00288	0.0365	0.0022
298.15	0.2	0.00335	0.0404	0.0024
298.15	0.2	0.00385	0.0446	0.0027
298.15	0.2	0.00442	0.0495	0.003
298.15	0.2	0.00512	0.0552	0.0033
298.15	0.2	0.00592	0.0616	0.0037
298.15	0.2	0.00692	0.0697	0.0042
298.15	0.2	0.00785	0.0769	0.0046
298.15	0.2	0.00878	0.0844	0.0051
298.15	0.2	0.00974	0.0918	0.0055
303.15	0.2	0	0.01239	0.00084
303.15	0.2	0.00288	0.0402	0.0024
303.15	0.2	0.00335	0.0446	0.0027
303.15	0.2	0.00385	0.0493	0.003
303.15	0.2	0.00442	0.0545	0.0033
303.15	0.2	0.00512	0.0607	0.0037
303.15	0.2	0.00592	0.0679	0.0041
303.15	0.2	0.00692	0.0768	0.0046
303.15	0.2	0.00785	0.0848	0.0051
303.15	0.2	0.00878	0.0931	0.0056
303.15	0.2	0.00974	0.1011	0.0061
308.15	0.2	0	0.01369	0.00093
308.15	0.2	0.00242	0.0398	0.0024
308.15	0.2	0.00288	0.0444	0.0027
308.15	0.2	0.00335	0.0493	0.003
308.15	0.2	0.00385	0.0545	0.0033
308.15	0.2	0.00442	0.0602	0.0036
308.15	0.2	0.00512	0.067	0.004
308.15	0.2	0.00592	0.0749	0.0045
308.15	0.2	0.00692	0.0845	0.0051
308.15	0.2	0.00785	0.0933	0.0056
308.15	0.2	0.00878	0.102	0.0061
308.15	0.2	0.00974	0.1108	0.0067
313.15	0.2	0	0.01522	0.00103
313.15	0.2	0.00135	0.0312	0.0019
313.15	0.2	0.00164	0.0346	0.0021
313.15	0.2	0.00201	0.0387	0.0024
313.15	0.2	0.00242	0.0433	0.0026
313.15	0.2	0.00288	0.0484	0.0029
313.15	0.2	0.00335	0.0538	0.0033
313.15	0.2	0.00385	0.0592	0.0036
313.15	0.2	0.00442	0.0656	0.004
313.15	0.2	0.00512	0.073	0.0044
313.15	0.2	0.00592	0.0816	0.0049
313.15	0.2	0.00692	0.0921	0.0055
313.15	0.2	0.00785	0.1017	0.0061
313.15	0.2	0.00878	0.1113	0.0067
313.15	0.2	0.00974	0.1211	0.0073
293.15	0	0	8.75e-05	0.0003599
293.15	0	0.0003	0.00278	0.0004
293.15	0	0.00054	0.00499	0.00046
293.15	0	0.00087	0.00784	0.00058
293.15	0	0.00125	0.01111	0.00075
293.15	0	0.00164	0.01447	0.00093
293.15	0	0.00207	0.01814	0.00114
293.15	0	0.00259	0.0227	0.0014
293.15	0	0.00315	0.0273	0.0017
293.15	0	0.00374	0.0322	0.002
293.15	0	0.00437	0.0372	0.0023
293.15	0	0.00501	0.0423	0.0026
293.15	0	0.00571	0.0478	0.0029
293.15	0	0.00646	0.0537	0.0032
293.15	0	0.00723	0.0596	0.0036
293.15	0	0.00809	0.0661	0.004
293.15	0	0.00904	0.0731	0.0044
298.15	0	0	9.65e-05	0.0004041
298.15	0	0.0003	0.00312	0.00045
298.15	0	0.00054	0.00562	0.00052
298.15	0	0.00087	0.00882	0.00066
298.15	0	0.00125	0.01252	0.00085
298.15	0	0.00164	0.01629	0.00105
298.15	0	0.00207	0.0203	0.0013
298.15	0	0.00259	0.0253	0.0016
298.15	0	0.00315	0.0304	0.0019
298.15	0	0.00374	0.0357	0.0022
298.15	0	0.00437	0.0415	0.0025
298.15	0	0.00501	0.0471	0.0028
298.15	0	0.00571	0.0532	0.0032
298.15	0	0.00646	0.0596	0.0036
298.15	0	0.00723	0.0662	0.004
298.15	0	0.00809	0.0734	0.0044
298.15	0	0.00904	0.0814	0.0049
303.15	0	0	0.0001062	0.0004457
303.15	0	0.0003	0.00344	0.0005
303.15	0	0.00054	0.00619	0.00058
303.15	0	0.00087	0.00972	0.00072
303.15	0	0.00125	0.0138	0.00093
303.15	0	0.00164	0.01796	0.00116
303.15	0	0.00207	0.0226	0.0014
303.15	0	0.00259	0.0279	0.0017
303.15	0	0.00315	0.0336	0.0021
303.15	0	0.00374	0.0395	0.0024
303.15	0	0.00437	0.0457	0.0028
303.15	0	0.00501	0.0521	0.0032
303.15	0	0.00571	0.0588	0.0035
303.15	0	0.00646	0.0658	0.004
303.15	0	0.00723	0.0732	0.0044
303.15	0	0.00809	0.081	0.0049
308.15	0	0	0.0001122	0.0004903
308.15	0	0.0003	0.00378	0.00055
308.15	0	0.00054	0.00681	0.00063
308.15	0	0.00087	0.01069	0.0008
308.15	0	0.00125	0.01518	0.00103
308.15	0	0.00164	0.01974	0.00128
308.15	0	0.00207	0.0248	0.0016
308.15	0	0.00259	0.0307	0.0019
308.15	0	0.00315	0.0369	0.0023
308.15	0	0.00374	0.0434	0.0026
308.15	0	0.00437	0.0504	0.0031
308.15	0	0.00501	0.0572	0.0035
308.15	0	0.00571	0.0646	0.0039
308.15	0	0.00646	0.0725	0.0044
308.15	0	0.00723	0.0805	0.0048
313.15	0	0	0.0001164	0.0005365
313.15	0	0.0003	0.00413	0.0006
313.15	0	0.00054	0.00742	0.00069
313.15	0	0.00087	0.01167	0.00087
313.15	0	0.00125	0.01657	0.00112
313.15	0	0.00207	0.0271	0.0017
313.15	0	0.00259	0.0335	0.0021
313.15	0	0.00315	0.0403	0.0025
313.15	0	0.00374	0.0474	0.0029
313.15	0	0.00437	0.0549	0.0033
313.15	0	0.00501	0.0625	0.0038
313.15	0	0.00571	0.0705	0.0043
313.15	0	0.00646	0.0792	0.0048
313.15	0	0.00723	0.0878	0.0053
313.15	0	0.00809	0.0976	0.0059

System: glycyl-L-leucine + water + potassium perfluorobutanesulfonate; phases: Liquid
Fixed: Pressure, kPa = 101
Fixed: Solvent: Molality, mol/kg of potassium perfluorobutanesulfonate = 0.04
Property: Mass density, kg/m3 (Liquid); method: Pycnometric method
Molality, mol/kg of glycyl-L-leucine	Temperature, K	Mass density, kg/m3	uncertainty
0	288.15	1006.5	0.5
0.0194	288.15	1007.3	0.5
0.0261	288.15	1007.7	0.5
0.033	288.15	1008	0.5
0.0394	288.15	1008.3	0.5
0.0585	288.15	1009.2	0.5
0.0682	288.15	1009.8	0.5
0.0776	288.15	1010.2	0.5
0.0874	288.15	1010.7	0.5
0.0971	288.15	1011.2	0.5
0	293.15	1005.6	0.5
0.0194	293.15	1006.3	0.5
0.0261	293.15	1006.6	0.5
0.033	293.15	1006.9	0.5
0.0394	293.15	1007.3	0.5
0.0484	293.15	1007.7	0.5
0.0585	293.15	1008.2	0.5
0.0682	293.15	1008.6	0.5
0.0776	293.15	1009.1	0.5
0.0874	293.15	1009.5	0.5
0.0971	293.15	1009.9	0.5
0	298.15	1004.3	0.5
0.0194	298.15	1005.1	0.5
0.0261	298.15	1005.4	0.5
0.033	298.15	1005.7	0.5
0.0394	298.15	1006	1
0.0484	298.15	1006.4	0.5
0.0585	298.15	1006.9	0.5
0.0682	298.15	1007.3	0.5
0.0874	298.15	1008.2	0.5
0.0971	298.15	1008.6	0.5
0	303.15	1002.7	0.5
0.0194	303.15	1003.6	0.5
0.0261	303.15	1003.9	0.5
0.033	303.15	1004.2	0.5
0.0394	303.15	1004.5	0.5
0.0484	303.15	1004.9	0.5
0.0585	303.15	1005.4	0.5
0.0682	303.15	1005.9	0.5
0.0776	303.15	1006.3	0.5

System: glycyl-L-leucine + water + potassium perfluorobutanesulfonate; phases: Liquid
Fixed: Pressure, kPa = 101
Property: Electrical conductivity, S/m (Liquid); method: Alternating current cell with electrodes
Temperature, K	Solvent: Molality, mol/kg of glycyl-L-leucine	Molality, mol/kg of potassium perfluorobutanesulfonate	Electrical conductivity, S/m	uncertainty
293.15	0.05	0	0.00321	0.0004
293.15	0.05	0.00075	0.00968	0.00068
293.15	0.05	0.00108	0.01252	0.00082
293.15	0.05	0.00148	0.01588	0.00101
293.15	0.05	0.00192	0.0195	0.00122
293.15	0.05	0.00245	0.0239	0.0015
293.15	0.05	0.00303	0.0286	0.0017
293.15	0.05	0.00367	0.0337	0.002
293.15	0.05	0.00437	0.0394	0.0024
293.15	0.05	0.00512	0.0452	0.0027
293.15	0.05	0.00594	0.0517	0.0031
293.15	0.05	0.0068	0.0583	0.0035
293.15	0.05	0.00771	0.0649	0.0039
293.15	0.05	0.00863	0.0713	0.0043
293.15	0.05	0.00963	0.0783	0.0047
293.15	0.05	0.01071	0.0859	0.0052
298.15	0.05	0	0.00345	0.00044
298.15	0.05	0.00016	0.00501	0.00048
298.15	0.05	0.00028	0.00612	0.00052
298.15	0.05	0.00049	0.00816	0.00062
298.15	0.05	0.00075	0.01055	0.00073
298.15	0.05	0.00108	0.01362	0.0009
298.15	0.05	0.00148	0.01733	0.0011
298.15	0.05	0.00192	0.0214	0.0013
298.15	0.05	0.00245	0.0261	0.0016
298.15	0.05	0.00303	0.0313	0.0019
298.15	0.05	0.00367	0.037	0.0022
298.15	0.05	0.00437	0.0431	0.0026
298.15	0.05	0.00512	0.0496	0.003
298.15	0.05	0.00594	0.0565	0.0034
298.15	0.05	0.0068	0.0636	0.0038
298.15	0.05	0.00771	0.0711	0.0043
298.15	0.05	0.00863	0.0787	0.0047
298.15	0.05	0.00963	0.087	0.0052
298.15	0.05	0.01071	0.0956	0.0057
303.15	0.05	0	0.00372	0.00048
303.15	0.05	0.00016	0.00545	0.00054
303.15	0.05	0.00028	0.00668	0.00058
303.15	0.05	0.00049	0.00893	0.00068
303.15	0.05	0.00075	0.01159	0.00081
303.15	0.05	0.00108	0.01502	0.00099
303.15	0.05	0.00148	0.01907	0.00121
303.15	0.05	0.00192	0.0235	0.0015
303.15	0.05	0.00245	0.0287	0.0018
303.15	0.05	0.00303	0.0344	0.0021
303.15	0.05	0.00367	0.0407	0.0025
303.15	0.05	0.00437	0.0475	0.0029
303.15	0.05	0.00512	0.0545	0.0033
303.15	0.05	0.00594	0.0623	0.0038
303.15	0.05	0.0068	0.0704	0.0042
303.15	0.05	0.00771	0.0786	0.0047
303.15	0.05	0.00863	0.0864	0.0052
303.15	0.05	0.00963	0.0956	0.0057
303.15	0.05	0.01071	0.1043	0.0063
308.15	0.05	0	0.00406	0.00053
308.15	0.05	0.00016	0.00597	0.00059
308.15	0.05	0.00028	0.00733	0.00063
308.15	0.05	0.0005	0.00983	0.00074
308.15	0.05	0.00076	0.01277	0.00089
308.15	0.05	0.00109	0.01651	0.00109
308.15	0.05	0.0015	0.021	0.0013
308.15	0.05	0.00195	0.0259	0.0016
308.15	0.05	0.00248	0.0317	0.002
308.15	0.05	0.00307	0.038	0.0023
308.15	0.05	0.00371	0.0451	0.0027
308.15	0.05	0.00442	0.0525	0.0032
308.15	0.05	0.00518	0.0605	0.0037
308.15	0.05	0.006	0.0688	0.0041
308.15	0.05	0.00688	0.0779	0.0047
308.15	0.05	0.0078	0.0873	0.0053
308.15	0.05	0.00873	0.0966	0.0058
308.15	0.05	0.00974	0.1064	0.0064
308.15	0.05	0.01083	0.1169	0.007
313.15	0.05	0	0.00455	0.00057
313.15	0.05	0.00016	0.00654	0.00064
313.15	0.05	0.00048	0.01059	0.00081
313.15	0.05	0.00073	0.01367	0.00096
313.15	0.05	0.00105	0.01764	0.00116
313.15	0.05	0.00144	0.0223	0.0014
313.15	0.05	0.00187	0.0275	0.0017
313.15	0.05	0.00238	0.0336	0.0021
313.15	0.05	0.00294	0.0401	0.0025
313.15	0.05	0.00357	0.0473	0.0029
313.15	0.05	0.00425	0.055	0.0033
313.15	0.05	0.00498	0.0634	0.0038
313.15	0.05	0.00577	0.0722	0.0044
313.15	0.05	0.00661	0.0818	0.0049
313.15	0.05	0.00749	0.091	0.0055
313.15	0.05	0.00838	0.101	0.0061
293.15	0.1	0	0.00533	0.00046
293.15	0.1	0.00026	0.00749	0.00056
293.15	0.1	0.00049	0.00943	0.00066
293.15	0.1	0.00075	0.01158	0.00077
293.15	0.1	0.00107	0.01424	0.00092
293.15	0.1	0.00146	0.01745	0.0011
293.15	0.1	0.00196	0.0214	0.0013
293.15	0.1	0.00248	0.0256	0.0016
293.15	0.1	0.00304	0.03	0.0018
293.15	0.1	0.00369	0.035	0.0021
293.15	0.1	0.00441	0.0406	0.0025
293.15	0.1	0.00519	0.0466	0.0028
293.15	0.1	0.00605	0.0531	0.0032
293.15	0.1	0.00696	0.0599	0.0036
293.15	0.1	0.0079	0.0667	0.004
293.15	0.1	0.00868	0.0725	0.0044
293.15	0.1	0.00943	0.0778	0.0047
293.15	0.1	0.0101	0.0827	0.005
298.15	0.1	0	0.0058	0.00052
298.15	0.1	9e-05	0.00666	0.00054
298.15	0.1	0.00049	0.01037	0.00072
298.15	0.1	0.00075	0.01275	0.00085
298.15	0.1	0.00107	0.01575	0.00101
298.15	0.1	0.00146	0.01928	0.00121
298.15	0.1	0.00196	0.0238	0.0015
298.15	0.1	0.00248	0.0283	0.0017
298.15	0.1	0.00304	0.0332	0.002
298.15	0.1	0.00369	0.0388	0.0024
298.15	0.1	0.00441	0.0451	0.0027
298.15	0.1	0.00519	0.0517	0.0031
298.15	0.1	0.00605	0.0588	0.0035
298.15	0.1	0.00696	0.0663	0.004
298.15	0.1	0.0079	0.0741	0.0045
298.15	0.1	0.00868	0.0803	0.0048
298.15	0.1	0.00943	0.0862	0.0052
298.15	0.1	0.0101	0.0916	0.0055
303.15	0.1	0	0.00634	0.00056
303.15	0.1	0.00026	0.009	0.00068
303.15	0.1	0.00049	0.01138	0.0008
303.15	0.1	0.00075	0.01403	0.00094
303.15	0.1	0.00107	0.01733	0.00111
303.15	0.1	0.00146	0.0212	0.0013
303.15	0.1	0.00196	0.0261	0.0016
303.15	0.1	0.00248	0.0311	0.0019
303.15	0.1	0.00304	0.0365	0.0022
303.15	0.1	0.00369	0.0427	0.0026
303.15	0.1	0.00441	0.0496	0.003
303.15	0.1	0.00519	0.0569	0.0034
303.15	0.1	0.00605	0.0647	0.0039
303.15	0.1	0.00696	0.0731	0.0044
303.15	0.1	0.0079	0.0815	0.0049
308.15	0.1	0	0.00703	0.00063
308.15	0.1	9e-05	0.00808	0.00066
308.15	0.1	0.00026	0.00996	0.00075
308.15	0.1	0.00049	0.01259	0.00088
308.15	0.1	0.00075	0.01552	0.00103
308.15	0.1	0.00107	0.01913	0.00123
308.15	0.1	0.00146	0.0234	0.0015
308.15	0.1	0.00196	0.0286	0.0018
308.15	0.1	0.00248	0.0342	0.0021
308.15	0.1	0.00304	0.0403	0.0025
308.15	0.1	0.00369	0.0472	0.0029
308.15	0.1	0.00441	0.0547	0.0033
308.15	0.1	0.00519	0.0626	0.0038
308.15	0.1	0.00605	0.0714	0.0043
308.15	0.1	0.00696	0.0805	0.0048
308.15	0.1	0.0079	0.0899	0.0054
308.15	0.1	0.00943	0.1045	0.0063
308.15	0.1	0.0101	0.1108	0.0067
313.15	0.1	0	0.00781	0.0007
313.15	0.1	9e-05	0.00895	0.00073
313.15	0.1	0.00049	0.01386	0.00097
313.15	0.1	0.00107	0.021	0.0014
313.15	0.1	0.00146	0.0257	0.0016
313.15	0.1	0.00196	0.0314	0.0019
313.15	0.1	0.00248	0.0375	0.0023
313.15	0.1	0.00304	0.044	0.0027
313.15	0.1	0.00369	0.0516	0.0031
313.15	0.1	0.00441	0.0597	0.0036
313.15	0.1	0.00519	0.0684	0.0041
313.15	0.1	0.00605	0.0778	0.0047
313.15	0.1	0.00696	0.0878	0.0053
313.15	0.1	0.0079	0.098	0.0059
313.15	0.1	0.00868	0.1061	0.0064
313.15	0.1	0.00943	0.114	0.0069
293.15	0.15	0	0.0074	0.00054
293.15	0.15	0.00138	0.01858	0.00116
293.15	0.15	0.00183	0.0222	0.0014
293.15	0.15	0.00235	0.0264	0.0016
293.15	0.15	0.00293	0.0309	0.0019
293.15	0.15	0.00357	0.0358	0.0022
293.15	0.15	0.00423	0.0408	0.0025
293.15	0.15	0.00495	0.0462	0.0028
293.15	0.15	0.0057	0.0518	0.0031
293.15	0.15	0.00646	0.0574	0.0035
293.15	0.15	0.00719	0.0626	0.0038
293.15	0.15	0.00792	0.0678	0.0041
293.15	0.15	0.00866	0.0732	0.0044
293.15	0.15	0.0099	0.0818	0.0049
298.15	0.15	0	0.00809	0.0006
298.15	0.15	0.00138	0.0205	0.0013
298.15	0.15	0.00235	0.0292	0.0018
298.15	0.15	0.00293	0.0342	0.0021
298.15	0.15	0.00357	0.0397	0.0024
298.15	0.15	0.00423	0.0453	0.0027
298.15	0.15	0.00495	0.0513	0.0031
298.15	0.15	0.0057	0.0575	0.0035
298.15	0.15	0.00646	0.0637	0.0038
298.15	0.15	0.00719	0.0696	0.0042
298.15	0.15	0.00792	0.0753	0.0045
298.15	0.15	0.00866	0.0811	0.0049
298.15	0.15	0.0099	0.0907	0.0055
303.15	0.15	0	0.00889	0.00066
303.15	0.15	0.00138	0.0226	0.0014
303.15	0.15	0.00183	0.0271	0.0017
303.15	0.15	0.00235	0.0322	0.002
303.15	0.15	0.00293	0.0378	0.0023
303.15	0.15	0.00357	0.0438	0.0027
303.15	0.15	0.00423	0.0501	0.003
303.15	0.15	0.00495	0.0566	0.0034
303.15	0.15	0.0057	0.0634	0.0038
303.15	0.15	0.00646	0.0701	0.0042
303.15	0.15	0.00719	0.0768	0.0046
303.15	0.15	0.00792	0.083	0.005
303.15	0.15	0.00866	0.0894	0.0054
303.15	0.15	0.0099	0.0999	0.006
308.15	0.15	0	0.00987	0.00073
308.15	0.15	0.00183	0.0299	0.0018
308.15	0.15	0.00235	0.0355	0.0022
308.15	0.15	0.00293	0.0416	0.0025
308.15	0.15	0.00357	0.0482	0.0029
308.15	0.15	0.00423	0.0551	0.0033
308.15	0.15	0.00495	0.0623	0.0038
308.15	0.15	0.0057	0.0698	0.0042
308.15	0.15	0.00646	0.0773	0.0047
308.15	0.15	0.00719	0.0844	0.0051
308.15	0.15	0.00792	0.0914	0.0055
308.15	0.15	0.00866	0.0984	0.0059
308.15	0.15	0.0099	0.1098	0.0066
313.15	0.15	0	0.01101	0.00081
313.15	0.15	0.00138	0.0276	0.0017
313.15	0.15	0.00183	0.0329	0.002
313.15	0.15	0.00235	0.0389	0.0024
313.15	0.15	0.00293	0.0456	0.0028
313.15	0.15	0.00357	0.0529	0.0032
313.15	0.15	0.00423	0.0603	0.0036
313.15	0.15	0.00495	0.0682	0.0041
313.15	0.15	0.0057	0.0763	0.0046
313.15	0.15	0.00646	0.0845	0.0051
313.15	0.15	0.00719	0.0922	0.0055
313.15	0.15	0.00792	0.0999	0.006
313.15	0.15	0.00866	0.1075	0.0065
313.15	0.15	0.0099	0.1206	0.0072
293.15	0.2	0	0.01043	0.0007
293.15	0.2	0.00021	0.01212	0.00079
293.15	0.2	0.00043	0.01381	0.00089
293.15	0.2	0.00106	0.01887	0.00118
293.15	0.2	0.00148	0.0221	0.0014
293.15	0.2	0.00196	0.0258	0.0016
293.15	0.2	0.00305	0.0341	0.0021
293.15	0.2	0.00366	0.0386	0.0023
293.15	0.2	0.00432	0.0434	0.0026
293.15	0.2	0.00501	0.0485	0.0029
293.15	0.2	0.00572	0.0536	0.0032
293.15	0.2	0.00644	0.0589	0.0035
293.15	0.2	0.00723	0.0642	0.0039
293.15	0.2	0.00815	0.0706	0.0042
293.15	0.2	0.00923	0.0779	0.0047
293.15	0.2	0.01024	0.0848	0.0051
298.15	0.2	0	0.01133	0.00075
298.15	0.2	7e-05	0.01194	0.00079
298.15	0.2	0.00106	0.0207	0.0013
298.15	0.2	0.00148	0.0243	0.0015
298.15	0.2	0.00196	0.0285	0.0017
298.15	0.2	0.00248	0.033	0.002
298.15	0.2	0.00305	0.0377	0.0023
298.15	0.2	0.00366	0.0427	0.0026
298.15	0.2	0.00432	0.0481	0.0029
298.15	0.2	0.00501	0.0537	0.0032
298.15	0.2	0.00572	0.0593	0.0036
298.15	0.2	0.00644	0.0652	0.0039
298.15	0.2	0.00723	0.0711	0.0043
298.15	0.2	0.00815	0.0782	0.0047
298.15	0.2	0.00923	0.0863	0.0052
298.15	0.2	0.01024	0.0939	0.0056
303.15	0.2	0	0.01237	0.00084
303.15	0.2	0.00148	0.0268	0.0017
303.15	0.2	0.00196	0.0314	0.0019
303.15	0.2	0.00248	0.0362	0.0022
303.15	0.2	0.00305	0.0415	0.0025
303.15	0.2	0.00366	0.047	0.0028
303.15	0.2	0.00432	0.053	0.0032
303.15	0.2	0.00501	0.0591	0.0036
303.15	0.2	0.00572	0.0653	0.0039
303.15	0.2	0.00644	0.0717	0.0043
303.15	0.2	0.00723	0.0783	0.0047
303.15	0.2	0.00815	0.0861	0.0052
303.15	0.2	0.00923	0.0951	0.0057
303.15	0.2	0.01024	0.1033	0.0062
308.15	0.2	0	0.01367	0.00092
308.15	0.2	0.00196	0.0346	0.0021
308.15	0.2	0.00248	0.0399	0.0024
308.15	0.2	0.00305	0.0457	0.0028
308.15	0.2	0.00366	0.0517	0.0031
308.15	0.2	0.00432	0.0584	0.0035
308.15	0.2	0.00501	0.065	0.0039
308.15	0.2	0.00572	0.0718	0.0043
308.15	0.2	0.00644	0.079	0.0048
308.15	0.2	0.00723	0.0861	0.0052
308.15	0.2	0.00815	0.0947	0.0057
308.15	0.2	0.00923	0.1045	0.0063
308.15	0.2	0.01024	0.1137	0.0068
313.15	0.2	0	0.0152	0.00103
313.15	0.2	0.00148	0.0326	0.002
313.15	0.2	0.00196	0.038	0.0023
313.15	0.2	0.00249	0.0439	0.0027
313.15	0.2	0.00305	0.0501	0.003
313.15	0.2	0.00366	0.0569	0.0034
313.15	0.2	0.00432	0.064	0.0039
313.15	0.2	0.00501	0.0713	0.0043
313.15	0.2	0.00572	0.0787	0.0047
313.15	0.2	0.00644	0.0865	0.0052
313.15	0.2	0.00723	0.0943	0.0057
313.15	0.2	0.00815	0.1036	0.0062
313.15	0.2	0.00923	0.1143	0.0069
293.15	0	0	8.75e-05	0.0003599
293.15	0	0.0003	0.00278	0.0004
293.15	0	0.00054	0.00499	0.00046
293.15	0	0.00087	0.00784	0.00058
293.15	0	0.00125	0.01111	0.00075
293.15	0	0.00164	0.01447	0.00093
293.15	0	0.00207	0.01814	0.00114
293.15	0	0.00259	0.0227	0.0014
293.15	0	0.00315	0.0273	0.0017
293.15	0	0.00374	0.0322	0.002
293.15	0	0.00437	0.0372	0.0023
293.15	0	0.00501	0.0423	0.0026
293.15	0	0.00571	0.0478	0.0029
293.15	0	0.00646	0.0537	0.0032
293.15	0	0.00723	0.0596	0.0036
293.15	0	0.00809	0.0661	0.004
293.15	0	0.00904	0.0731	0.0044
298.15	0	0	9.65e-05	0.0004041
298.15	0	0.0003	0.00312	0.00045
298.15	0	0.00054	0.00562	0.00052
298.15	0	0.00087	0.00882	0.00066
298.15	0	0.00125	0.01252	0.00085
298.15	0	0.00164	0.01629	0.00105
298.15	0	0.00207	0.0203	0.0013
298.15	0	0.00259	0.0253	0.0016
298.15	0	0.00315	0.0304	0.0019
298.15	0	0.00374	0.0357	0.0022
298.15	0	0.00437	0.0415	0.0025
298.15	0	0.00501	0.0471	0.0028
298.15	0	0.00571	0.0532	0.0032
298.15	0	0.00646	0.0596	0.0036
298.15	0	0.00723	0.0662	0.004
298.15	0	0.00809	0.0734	0.0044
298.15	0	0.00904	0.0814	0.0049
303.15	0	0	0.0001062	0.0004457
303.15	0	0.0003	0.00344	0.0005
303.15	0	0.00054	0.00619	0.00058
303.15	0	0.00087	0.00972	0.00072
303.15	0	0.00125	0.0138	0.00093
303.15	0	0.00164	0.01796	0.00116
303.15	0	0.00207	0.0226	0.0014
303.15	0	0.00259	0.0279	0.0017
303.15	0	0.00315	0.0336	0.0021
303.15	0	0.00374	0.0395	0.0024
303.15	0	0.00437	0.0457	0.0028
303.15	0	0.00501	0.0521	0.0032
303.15	0	0.00571	0.0588	0.0035
303.15	0	0.00646	0.0658	0.004
303.15	0	0.00723	0.0732	0.0044
303.15	0	0.00809	0.081	0.0049
308.15	0	0	0.0001122	0.0004903
308.15	0	0.0003	0.00378	0.00055
308.15	0	0.00054	0.00681	0.00063
308.15	0	0.00087	0.01069	0.0008
308.15	0	0.00125	0.01518	0.00103
308.15	0	0.00164	0.01974	0.00128
308.15	0	0.00207	0.0248	0.0016
308.15	0	0.00259	0.0307	0.0019
308.15	0	0.00315	0.0369	0.0023
308.15	0	0.00374	0.0434	0.0026
308.15	0	0.00437	0.0504	0.0031
308.15	0	0.00501	0.0572	0.0035
308.15	0	0.00571	0.0646	0.0039
308.15	0	0.00646	0.0725	0.0044
308.15	0	0.00723	0.0805	0.0048
313.15	0	0	0.0001164	0.0005365
313.15	0	0.0003	0.00413	0.0006
313.15	0	0.00054	0.00742	0.00069
313.15	0	0.00087	0.01167	0.00087
313.15	0	0.00125	0.01657	0.00112
313.15	0	0.00207	0.0271	0.0017
313.15	0	0.00259	0.0335	0.0021
313.15	0	0.00315	0.0403	0.0025
313.15	0	0.00374	0.0474	0.0029
313.15	0	0.00437	0.0549	0.0033
313.15	0	0.00501	0.0625	0.0038
313.15	0	0.00571	0.0705	0.0043
313.15	0	0.00646	0.0792	0.0048
313.15	0	0.00723	0.0878	0.0053
313.15	0	0.00809	0.0976	0.0059

System: water + glycyl-l-glutamine + potassium perfluorobutanesulfonate; phases: Liquid
Fixed: Pressure, kPa = 101
Fixed: Solvent: Molality, mol/kg of potassium perfluorobutanesulfonate = 0.04
Property: Mass density, kg/m3 (Liquid); method: Pycnometric method
Molality, mol/kg of glycyl-l-glutamine	Temperature, K	Mass density, kg/m3	uncertainty
0	288.15	1006.5	0.5
0.0201	288.15	1007.9	0.5
0.0406	288.15	1009.4	0.5
0.0612	288.15	1010.9	0.5
0.0816	288.15	1012.4	0.5
0.1015	288.15	1013.8	0.5
0.1207	288.15	1015.2	0.5
0.1417	288.15	1016.7	0.5
0.162	288.15	1018.2	0.5
0.182	288.15	1019.7	0.5
0	293.15	1005.6	0.5
0.0201	293.15	1007	0.5
0.0406	293.15	1008.5	0.5
0.0612	293.15	1009.9	0.5
0.0816	293.15	1011.4	0.5
0.1015	293.15	1012.8	0.5
0.1207	293.15	1014.2	0.5
0.1417	293.15	1015.6	0.5
0.162	293.15	1017.1	0.5
0.182	293.15	1018.6	0.5
0	298.15	1004.3	0.5
0.0612	298.15	1008.6	0.5
0.0816	298.15	1010	0.5
0.1015	298.15	1011.4	0.5
0.1207	298.15	1012.8	0.5
0.1417	298.15	1014.2	0.5
0.162	298.15	1015.7	0.5
0.182	298.15	1017.1	0.5
0.2017	298.15	1018.5	0.5
0	303.15	1002.8	0.5
0.0201	303.15	1004.3	0.5
0.0406	303.15	1005.7	0.5
0.0612	303.15	1007.1	0.5
0.0816	303.15	1008.5	0.5
0.1015	303.15	1009.9	0.5
0.1207	303.15	1011.3	0.5
0.1417	303.15	1012.8	0.5
0.162	303.15	1014.2	0.5
0.182	303.15	1015.6	0.5
0.2017	303.15	1017	0.5

System: water + glycyl-l-glutamine + potassium perfluorobutanesulfonate; phases: Liquid
Fixed: Pressure, kPa = 101
Property: Electrical conductivity, S/m (Liquid); method: Alternating current cell with electrodes
Temperature, K	Solvent: Molality, mol/kg of glycyl-l-glutamine	Molality, mol/kg of potassium perfluorobutanesulfonate	Electrical conductivity, S/m	uncertainty
293.15	0.05	0	0.00342	0.00042
293.15	0.05	0.00017	0.00499	0.00047
293.15	0.05	0.00035	0.00657	0.00053
293.15	0.05	0.00061	0.00882	0.00063
293.15	0.05	0.00093	0.01151	0.00077
293.15	0.05	0.00131	0.01481	0.00095
293.15	0.05	0.00178	0.01874	0.00117
293.15	0.05	0.00235	0.0234	0.0014
293.15	0.05	0.00299	0.0287	0.0018
293.15	0.05	0.00368	0.0342	0.0021
293.15	0.05	0.00439	0.0398	0.0024
293.15	0.05	0.00508	0.0453	0.0027
293.15	0.05	0.00584	0.051	0.0031
293.15	0.05	0.00659	0.0567	0.0034
293.15	0.05	0.00736	0.0624	0.0038
293.15	0.05	0.00816	0.0685	0.0041
293.15	0.05	0.00903	0.0747	0.0045
293.15	0.05	0.00996	0.0815	0.0049
298.15	0.05	0	0.00366	0.00045
298.15	0.05	0.00061	0.00966	0.0007
298.15	0.05	0.00093	0.01263	0.00085
298.15	0.05	0.00131	0.01631	0.00105
298.15	0.05	0.00178	0.0207	0.0013
298.15	0.05	0.00235	0.0258	0.0016
298.15	0.05	0.00299	0.0317	0.0019
298.15	0.05	0.00368	0.0378	0.0023
298.15	0.05	0.00439	0.044	0.0027
298.15	0.05	0.00508	0.05	0.003
298.15	0.05	0.00584	0.0564	0.0034
298.15	0.05	0.00659	0.0626	0.0038
298.15	0.05	0.00736	0.069	0.0042
298.15	0.05	0.00816	0.0755	0.0045
298.15	0.05	0.00903	0.0825	0.005
298.15	0.05	0.00996	0.0899	0.0054
303.15	0.05	0	0.00392	0.00051
303.15	0.05	0.00017	0.00586	0.00056
303.15	0.05	0.00035	0.0078	0.00063
303.15	0.05	0.00061	0.01057	0.00076
303.15	0.05	0.00093	0.01386	0.00093
303.15	0.05	0.00131	0.01793	0.00115
303.15	0.05	0.00235	0.0284	0.0018
303.15	0.05	0.00299	0.0349	0.0021
303.15	0.05	0.00368	0.0417	0.0025
303.15	0.05	0.00439	0.0486	0.0029
303.15	0.05	0.00508	0.0551	0.0033
303.15	0.05	0.00584	0.0621	0.0037
303.15	0.05	0.00659	0.0691	0.0042
303.15	0.05	0.00736	0.0761	0.0046
303.15	0.05	0.00816	0.0835	0.005
303.15	0.05	0.00903	0.0911	0.0055
308.15	0.05	0	0.00428	0.00056
308.15	0.05	0.00017	0.00637	0.00062
308.15	0.05	0.00035	0.0085	0.00069
308.15	0.05	0.00061	0.01155	0.00083
308.15	0.05	0.00093	0.01519	0.00102
308.15	0.05	0.00131	0.01963	0.00127
308.15	0.05	0.00178	0.025	0.0016
308.15	0.05	0.00235	0.0312	0.0019
308.15	0.05	0.00299	0.0383	0.0023
308.15	0.05	0.00368	0.0458	0.0028
308.15	0.05	0.00439	0.0533	0.0032
308.15	0.05	0.00508	0.0605	0.0037
308.15	0.05	0.00584	0.0683	0.0041
308.15	0.05	0.00659	0.0759	0.0046
308.15	0.05	0.00736	0.0836	0.005
308.15	0.05	0.00816	0.0916	0.0055
313.15	0.05	0	0.00464	0.0006
313.15	0.05	0.00017	0.00692	0.00067
313.15	0.05	0.00035	0.00924	0.00076
313.15	0.05	0.00061	0.01256	0.00091
313.15	0.05	0.00093	0.01655	0.00111
313.15	0.05	0.00131	0.0214	0.0014
313.15	0.05	0.00178	0.0272	0.0017
313.15	0.05	0.00235	0.034	0.0021
313.15	0.05	0.00299	0.0417	0.0025
313.15	0.05	0.00368	0.0499	0.003
313.15	0.05	0.00439	0.058	0.0035
313.15	0.05	0.00508	0.0659	0.004
313.15	0.05	0.00584	0.0743	0.0045
313.15	0.05	0.00659	0.0827	0.005
313.15	0.05	0.00736	0.091	0.0055
313.15	0.05	0.00816	0.0998	0.006
293.15	0.1	0	0.00556	0.00048
293.15	0.1	0.00022	0.00745	0.00057
293.15	0.1	0.00041	0.00911	0.00065
293.15	0.1	0.00066	0.01124	0.00076
293.15	0.1	0.00096	0.0138	0.0009
293.15	0.1	0.0013	0.01665	0.00105
293.15	0.1	0.00168	0.0198	0.00123
293.15	0.1	0.00263	0.0276	0.0017
293.15	0.1	0.00322	0.0323	0.002
293.15	0.1	0.00388	0.0375	0.0023
293.15	0.1	0.0046	0.043	0.0026
293.15	0.1	0.00539	0.0492	0.003
293.15	0.1	0.00625	0.0557	0.0034
293.15	0.1	0.00719	0.0626	0.0038
293.15	0.1	0.00814	0.0696	0.0042
293.15	0.1	0.00913	0.0768	0.0046
298.15	0.1	0	0.006	0.00053
298.15	0.1	0.00041	0.00995	0.00071
298.15	0.1	0.00066	0.01232	0.00083
298.15	0.1	0.00096	0.01518	0.00099
298.15	0.1	0.0013	0.01835	0.00116
298.15	0.1	0.00168	0.0219	0.0014
298.15	0.1	0.00213	0.026	0.0016
298.15	0.1	0.00263	0.0306	0.0019
298.15	0.1	0.00322	0.0357	0.0022
298.15	0.1	0.00388	0.0415	0.0025
298.15	0.1	0.0046	0.0478	0.0029
298.15	0.1	0.00539	0.0545	0.0033
298.15	0.1	0.00625	0.0617	0.0037
298.15	0.1	0.00719	0.0695	0.0042
298.15	0.1	0.00814	0.0772	0.0046
298.15	0.1	0.00913	0.085	0.0051
298.15	0.1	0.01001	0.092	0.0055
303.15	0.1	0	0.00649	0.0006
303.15	0.1	6e-05	0.00718	0.00062
303.15	0.1	0.00041	0.01084	0.00077
303.15	0.1	0.00066	0.01345	0.00091
303.15	0.1	0.00096	0.01662	0.00108
303.15	0.1	0.0013	0.0201	0.0013
303.15	0.1	0.00213	0.0286	0.0018
303.15	0.1	0.00263	0.0335	0.002
303.15	0.1	0.00322	0.0392	0.0024
303.15	0.1	0.00388	0.0456	0.0028
303.15	0.1	0.0046	0.0525	0.0032
303.15	0.1	0.00539	0.0599	0.0036
303.15	0.1	0.00625	0.0678	0.0041
303.15	0.1	0.00719	0.0763	0.0046
303.15	0.1	0.00814	0.0848	0.0051
303.15	0.1	0.00913	0.0936	0.0056
303.15	0.1	0.01001	0.101	0.0061
308.15	0.1	0	0.00708	0.00063
308.15	0.1	0.00041	0.01186	0.00085
308.15	0.1	0.00066	0.01474	0.001
308.15	0.1	0.00096	0.01824	0.00119
308.15	0.1	0.0013	0.022	0.0014
308.15	0.1	0.00168	0.0264	0.0016
308.15	0.1	0.00213	0.0313	0.0019
308.15	0.1	0.00263	0.0368	0.0023
308.15	0.1	0.00322	0.0431	0.0026
308.15	0.1	0.00388	0.0502	0.003
308.15	0.1	0.0046	0.0576	0.0035
308.15	0.1	0.00539	0.0657	0.004
308.15	0.1	0.00625	0.0745	0.0045
308.15	0.1	0.00719	0.0837	0.005
308.15	0.1	0.00814	0.0931	0.0056
308.15	0.1	0.00913	0.1024	0.0062
313.15	0.1	0	0.00773	0.00072
313.15	0.1	6e-05	0.00856	0.00072
313.15	0.1	0.00022	0.01051	0.00081
313.15	0.1	0.00041	0.01296	0.00093
313.15	0.1	0.00066	0.01611	0.00109
313.15	0.1	0.00096	0.0199	0.00129
313.15	0.1	0.0013	0.0241	0.0015
313.15	0.1	0.00168	0.0288	0.0018
313.15	0.1	0.00213	0.0341	0.0021
313.15	0.1	0.00263	0.0401	0.0025
313.15	0.1	0.00322	0.0469	0.0029
313.15	0.1	0.00388	0.0547	0.0033
313.15	0.1	0.0046	0.0627	0.0038
313.15	0.1	0.00539	0.0717	0.0043
313.15	0.1	0.00625	0.0811	0.0049
313.15	0.1	0.00719	0.0913	0.0055
293.15	0.15	0	0.00768	0.00049
293.15	0.15	6e-05	0.00823	0.00056
293.15	0.15	0.0002	0.00935	0.00065
293.15	0.15	0.00055	0.01234	0.00081
293.15	0.15	0.00084	0.01467	0.00094
293.15	0.15	0.00117	0.01736	0.00109
293.15	0.15	0.00158	0.0207	0.0013
293.15	0.15	0.00207	0.0246	0.0015
293.15	0.15	0.00264	0.0291	0.0018
293.15	0.15	0.00326	0.0338	0.0021
293.15	0.15	0.00395	0.0391	0.0024
293.15	0.15	0.00469	0.0452	0.0027
293.15	0.15	0.00546	0.0507	0.0031
293.15	0.15	0.00623	0.0563	0.0034
293.15	0.15	0.00701	0.0619	0.0037
293.15	0.15	0.00782	0.0676	0.0041
298.15	0.15	0	0.00832	0.00057
298.15	0.15	6e-05	0.00894	0.00064
298.15	0.15	0.0002	0.0102	0.00071
298.15	0.15	0.00036	0.01175	0.0008
298.15	0.15	0.00055	0.01354	0.00089
298.15	0.15	0.00084	0.01619	0.00104
298.15	0.15	0.00117	0.01918	0.00121
298.15	0.15	0.00158	0.023	0.0014
298.15	0.15	0.00207	0.0274	0.0017
298.15	0.15	0.00264	0.0324	0.002
298.15	0.15	0.00326	0.0377	0.0023
298.15	0.15	0.00395	0.0436	0.0026
298.15	0.15	0.00469	0.0499	0.003
298.15	0.15	0.00546	0.0561	0.0034
298.15	0.15	0.00623	0.0624	0.0038
298.15	0.15	0.00701	0.0686	0.0041
298.15	0.15	0.00782	0.075	0.0045
303.15	0.15	0	0.00902	0.00065
303.15	0.15	0.0002	0.01109	0.00079
303.15	0.15	0.00036	0.01282	0.00088
303.15	0.15	0.00055	0.01479	0.00098
303.15	0.15	0.00084	0.01771	0.00114
303.15	0.15	0.00117	0.021	0.0013
303.15	0.15	0.00158	0.0252	0.0016
303.15	0.15	0.00207	0.03	0.0018
303.15	0.15	0.00264	0.0355	0.0022
303.15	0.15	0.00326	0.0414	0.0025
303.15	0.15	0.00395	0.048	0.0029
303.15	0.15	0.00469	0.0548	0.0033
303.15	0.15	0.00546	0.0616	0.0037
303.15	0.15	0.00623	0.0685	0.0041
303.15	0.15	0.00701	0.0755	0.0045
303.15	0.15	0.00782	0.0824	0.005
303.15	0.15	0.0087	0.09	0.0054
303.15	0.15	0.00983	0.0994	0.006
308.15	0.15	0	0.00999	0.00068
308.15	0.15	6e-05	0.01062	0.00076
308.15	0.15	0.0002	0.01214	0.00082
308.15	0.15	0.00084	0.01942	0.00125
308.15	0.15	0.00117	0.023	0.0015
308.15	0.15	0.00158	0.0277	0.0017
308.15	0.15	0.00207	0.0329	0.002
308.15	0.15	0.00264	0.039	0.0024
308.15	0.15	0.00326	0.0455	0.0028
308.15	0.15	0.00395	0.0527	0.0032
308.15	0.15	0.00469	0.0601	0.0036
308.15	0.15	0.00546	0.0677	0.0041
308.15	0.15	0.00623	0.0752	0.0045
308.15	0.15	0.00701	0.0828	0.005
308.15	0.15	0.00782	0.0905	0.0054
308.15	0.15	0.0087	0.0988	0.0059
313.15	0.15	0	0.01082	0.00074
313.15	0.15	6e-05	0.01164	0.00083
313.15	0.15	0.0002	0.0133	0.00095
313.15	0.15	0.00036	0.01537	0.00105
313.15	0.15	0.00055	0.01776	0.00117
313.15	0.15	0.00084	0.0212	0.0014
313.15	0.15	0.00117	0.0253	0.0016
313.15	0.15	0.00158	0.0303	0.0019
313.15	0.15	0.00207	0.036	0.0022
313.15	0.15	0.00264	0.0425	0.0026
313.15	0.15	0.00326	0.0496	0.003
313.15	0.15	0.00395	0.0574	0.0035
313.15	0.15	0.00469	0.0655	0.004
313.15	0.15	0.00546	0.0739	0.0045
313.15	0.15	0.00623	0.0821	0.0049
313.15	0.15	0.00701	0.0902	0.0054
293.15	0.2	0	0.01074	0.00072
293.15	0.2	0.0003	0.01322	0.00086
293.15	0.2	0.00048	0.01468	0.00094
293.15	0.2	0.00073	0.01674	0.00106
293.15	0.2	0.00097	0.01873	0.00117
293.15	0.2	0.0013	0.0213	0.0013
293.15	0.2	0.00166	0.0241	0.0015
293.15	0.2	0.00204	0.0272	0.0017
293.15	0.2	0.00249	0.0307	0.0019
293.15	0.2	0.00303	0.0348	0.0021
293.15	0.2	0.00363	0.0393	0.0024
293.15	0.2	0.00432	0.0443	0.0027
293.15	0.2	0.00505	0.0498	0.003
293.15	0.2	0.00584	0.0554	0.0033
293.15	0.2	0.00669	0.0614	0.0037
293.15	0.2	0.00768	0.0683	0.0041
293.15	0.2	0.00876	0.0758	0.0046
293.15	0.2	0.01006	0.0843	0.0051
298.15	0.2	0	0.01156	0.00078
298.15	0.2	9e-05	0.01241	0.00085
298.15	0.2	0.0003	0.01433	0.00093
298.15	0.2	0.00097	0.0204	0.0013
298.15	0.2	0.0013	0.0233	0.0014
298.15	0.2	0.00166	0.0265	0.0016
298.15	0.2	0.00204	0.0299	0.0018
298.15	0.2	0.00249	0.0338	0.0021
298.15	0.2	0.00303	0.0383	0.0023
298.15	0.2	0.00363	0.0433	0.0026
298.15	0.2	0.00432	0.0489	0.003
298.15	0.2	0.00505	0.0549	0.0033
298.15	0.2	0.00584	0.0612	0.0037
298.15	0.2	0.00669	0.0679	0.0041
298.15	0.2	0.00768	0.0756	0.0045
298.15	0.2	0.00876	0.0837	0.005
298.15	0.2	0.01006	0.0934	0.0056
303.15	0.2	0	0.01246	0.00084
303.15	0.2	0.0003	0.01552	0.00102
303.15	0.2	0.00048	0.01732	0.00111
303.15	0.2	0.00073	0.01986	0.00126
303.15	0.2	0.00097	0.0223	0.0014
303.15	0.2	0.0013	0.0254	0.0016
303.15	0.2	0.00166	0.029	0.0018
303.15	0.2	0.00204	0.0327	0.002
303.15	0.2	0.00249	0.0369	0.0022
303.15	0.2	0.00303	0.0419	0.0025
303.15	0.2	0.00363	0.0474	0.0029
303.15	0.2	0.00432	0.0537	0.0032
303.15	0.2	0.00505	0.0602	0.0036
303.15	0.2	0.00584	0.0671	0.004
303.15	0.2	0.00669	0.0745	0.0045
303.15	0.2	0.00768	0.0829	0.005
303.15	0.2	0.00876	0.0919	0.0055
303.15	0.2	0.01006	0.1025	0.0062
308.15	0.2	0	0.01386	0.00092
308.15	0.2	9e-05	0.01459	0.00096
308.15	0.2	0.00048	0.01891	0.00122
308.15	0.2	0.00073	0.0217	0.0014
308.15	0.2	0.00097	0.0243	0.0015
308.15	0.2	0.0013	0.0279	0.0017
308.15	0.2	0.00166	0.0318	0.002
308.15	0.2	0.00204	0.0358	0.0022
308.15	0.2	0.00249	0.0404	0.0025
308.15	0.2	0.00303	0.0458	0.0028
308.15	0.2	0.00363	0.0518	0.0031
308.15	0.2	0.00432	0.0589	0.0036
308.15	0.2	0.00505	0.066	0.004
308.15	0.2	0.00584	0.0736	0.0044
308.15	0.2	0.00669	0.0817	0.0049
308.15	0.2	0.00768	0.091	0.0055
313.15	0.2	0	0.01477	0.00101
313.15	0.2	0.0003	0.01847	0.00121
313.15	0.2	0.00048	0.0206	0.0013
313.15	0.2	0.00073	0.0236	0.0015
313.15	0.2	0.00097	0.0265	0.0017
313.15	0.2	0.0013	0.0304	0.0019
313.15	0.2	0.00166	0.0346	0.0021
313.15	0.2	0.00204	0.0389	0.0024
313.15	0.2	0.00249	0.044	0.0027
313.15	0.2	0.00303	0.0499	0.003
313.15	0.2	0.00363	0.0567	0.0034
313.15	0.2	0.00432	0.0641	0.0039
313.15	0.2	0.00505	0.072	0.0043
313.15	0.2	0.00584	0.0802	0.0048
313.15	0.2	0.00669	0.0891	0.0054
313.15	0.2	0.00768	0.0991	0.006
293.15	0	0	8.75e-05	0.0003599
293.15	0	0.0003	0.00278	0.0004
293.15	0	0.00054	0.00499	0.00046
293.15	0	0.00087	0.00784	0.00058
293.15	0	0.00125	0.01111	0.00075
293.15	0	0.00164	0.01447	0.00093
293.15	0	0.00207	0.01814	0.00114
293.15	0	0.00259	0.0227	0.0014
293.15	0	0.00315	0.0273	0.0017
293.15	0	0.00374	0.0322	0.002
293.15	0	0.00437	0.0372	0.0023
293.15	0	0.00501	0.0423	0.0026
293.15	0	0.00571	0.0478	0.0029
293.15	0	0.00646	0.0537	0.0032
293.15	0	0.00723	0.0596	0.0036
293.15	0	0.00809	0.0661	0.004
293.15	0	0.00904	0.0731	0.0044
298.15	0	0	9.65e-05	0.0004041
298.15	0	0.0003	0.00312	0.00045
298.15	0	0.00054	0.00562	0.00052
298.15	0	0.00087	0.00882	0.00066
298.15	0	0.00125	0.01252	0.00085
298.15	0	0.00164	0.01629	0.00105
298.15	0	0.00207	0.0203	0.0013
298.15	0	0.00259	0.0253	0.0016
298.15	0	0.00315	0.0304	0.0019
298.15	0	0.00374	0.0357	0.0022
298.15	0	0.00437	0.0415	0.0025
298.15	0	0.00501	0.0471	0.0028
298.15	0	0.00571	0.0532	0.0032
298.15	0	0.00646	0.0596	0.0036
298.15	0	0.00723	0.0662	0.004
298.15	0	0.00809	0.0734	0.0044
298.15	0	0.00904	0.0814	0.0049
303.15	0	0	0.0001062	0.0004457
303.15	0	0.0003	0.00344	0.0005
303.15	0	0.00054	0.00619	0.00058
303.15	0	0.00087	0.00972	0.00072
303.15	0	0.00125	0.0138	0.00093
303.15	0	0.00164	0.01796	0.00116
303.15	0	0.00207	0.0226	0.0014
303.15	0	0.00259	0.0279	0.0017
303.15	0	0.00315	0.0336	0.0021
303.15	0	0.00374	0.0395	0.0024
303.15	0	0.00437	0.0457	0.0028
303.15	0	0.00501	0.0521	0.0032
303.15	0	0.00571	0.0588	0.0035
303.15	0	0.00646	0.0658	0.004
303.15	0	0.00723	0.0732	0.0044
303.15	0	0.00809	0.081	0.0049
308.15	0	0	0.0001122	0.0004903
308.15	0	0.0003	0.00378	0.00055
308.15	0	0.00054	0.00681	0.00063
308.15	0	0.00087	0.01069	0.0008
308.15	0	0.00125	0.01518	0.00103
308.15	0	0.00164	0.01974	0.00128
308.15	0	0.00207	0.0248	0.0016
308.15	0	0.00259	0.0307	0.0019
308.15	0	0.00315	0.0369	0.0023
308.15	0	0.00374	0.0434	0.0026
308.15	0	0.00437	0.0504	0.0031
308.15	0	0.00501	0.0572	0.0035
308.15	0	0.00571	0.0646	0.0039
308.15	0	0.00646	0.0725	0.0044
308.15	0	0.00723	0.0805	0.0048
313.15	0	0	0.0001164	0.0005365
313.15	0	0.0003	0.00413	0.0006
313.15	0	0.00054	0.00742	0.00069
313.15	0	0.00087	0.01167	0.00087
313.15	0	0.00125	0.01657	0.00112
313.15	0	0.00207	0.0271	0.0017
313.15	0	0.00259	0.0335	0.0021
313.15	0	0.00315	0.0403	0.0025
313.15	0	0.00374	0.0474	0.0029
313.15	0	0.00437	0.0549	0.0033
313.15	0	0.00501	0.0625	0.0038
313.15	0	0.00571	0.0705	0.0043
313.15	0	0.00646	0.0792	0.0048
313.15	0	0.00723	0.0878	0.0053
313.15	0	0.00809	0.0976	0.0059

System: water + potassium perfluorobutanesulfonate + L-alanyl-L-glutamine; phases: Liquid
Fixed: Pressure, kPa = 101
Fixed: Solvent: Molality, mol/kg of potassium perfluorobutanesulfonate = 0.04
Property: Mass density, kg/m3 (Liquid); method: Pycnometric method
Molality, mol/kg of L-alanyl-L-glutamine	Temperature, K	Mass density, kg/m3	uncertainty
0	288.15	1006.5	0.5
0.0401	288.15	1009.5	0.5
0.0602	288.15	1011	0.5
0.08	288.15	1012.4	0.5
0.0995	288.15	1013.9	0.5
0.1196	288.15	1015.5	0.5
0.14	288.15	1016.9	0.5
0.1598	288.15	1018.5	0.5
0.1796	288.15	1019.9	0.5
0.1995	288.15	1021.4	0.5
0	293.15	1005.6	0.5
0.0401	293.15	1008.5	0.5
0.0602	293.15	1010	0.5
0.08	293.15	1011.4	0.5
0.0995	293.15	1012.9	0.5
0.1196	293.15	1014.4	0.5
0.14	293.15	1015.9	0.5
0.1598	293.15	1017.4	0.5
0.1796	293.15	1018.9	0.5
0.1995	293.15	1020.2	0.5
0	298.15	1004.3	0.5
0.0401	298.15	1007.2	0.5
0.0602	298.15	1008.6	0.5
0.08	298.15	1010	0.5
0.0995	298.15	1011.5	0.5
0.1196	298.15	1013	0.5
0.14	298.15	1014.4	0.5
0.1598	298.15	1016	0.5
0.1796	298.15	1017.3	0.5
0.1995	298.15	1018.9	0.5
0	303.15	1002.8	0.5
0.0401	303.15	1005.7	0.5
0.0602	303.15	1007.2	0.5
0.08	303.15	1008.6	0.5
0.0995	303.15	1010.1	0.5
0.1196	303.15	1011.6	0.5
0.14	303.15	1013.1	0.5
0.1598	303.15	1014.5	0.5
0.1796	303.15	1015.9	0.5
0.1995	303.15	1017.4	0.5

System: water + potassium perfluorobutanesulfonate + L-alanyl-L-glutamine; phases: Liquid
Fixed: Pressure, kPa = 101
Property: Electrical conductivity, S/m (Liquid); method: Alternating current cell with electrodes
Temperature, K	Solvent: Molality, mol/kg of L-alanyl-L-glutamine	Molality, mol/kg of potassium perfluorobutanesulfonate	Electrical conductivity, S/m	uncertainty
293.15	0.05	0	0.0034	0.0004
293.15	0.05	0.00024	0.00544	0.00048
293.15	0.05	0.0005	0.00772	0.00058
293.15	0.05	0.00077	0.01001	0.00069
293.15	0.05	0.0011	0.01276	0.00083
293.15	0.05	0.00151	0.01613	0.00102
293.15	0.05	0.00199	0.02	0.0012
293.15	0.05	0.00252	0.0244	0.0015
293.15	0.05	0.00311	0.029	0.0018
293.15	0.05	0.00377	0.0341	0.0021
293.15	0.05	0.00447	0.0394	0.0024
293.15	0.05	0.00524	0.0455	0.0027
293.15	0.05	0.00604	0.0515	0.0031
293.15	0.05	0.00689	0.0575	0.0035
293.15	0.05	0.00777	0.0642	0.0039
293.15	0.05	0.00863	0.0702	0.0042
293.15	0.05	0.00945	0.076	0.0046
298.15	0.05	0	0.00364	0.00043
298.15	0.05	0.00024	0.00587	0.00052
298.15	0.05	0.0005	0.00836	0.00064
298.15	0.05	0.00077	0.01105	0.00076
298.15	0.05	0.0011	0.01407	0.00094
298.15	0.05	0.00151	0.01851	0.00118
298.15	0.05	0.00199	0.0228	0.0014
298.15	0.05	0.00252	0.0274	0.0017
298.15	0.05	0.00311	0.0325	0.002
298.15	0.05	0.00377	0.039	0.0024
298.15	0.05	0.00447	0.0447	0.0027
298.15	0.05	0.00524	0.051	0.0031
298.15	0.05	0.00604	0.0572	0.0034
298.15	0.05	0.00689	0.0638	0.0038
298.15	0.05	0.00777	0.0715	0.0043
298.15	0.05	0.00863	0.0782	0.0047
303.15	0.05	0	0.00391	0.00049
303.15	0.05	0.0001	0.00501	0.00051
303.15	0.05	0.00024	0.00641	0.00057
303.15	0.05	0.0005	0.00922	0.0007
303.15	0.05	0.00077	0.01206	0.00083
303.15	0.05	0.0011	0.01541	0.00101
303.15	0.05	0.00151	0.01953	0.00124
303.15	0.05	0.00199	0.0243	0.0015
303.15	0.05	0.00252	0.0296	0.0018
303.15	0.05	0.00311	0.0363	0.0022
303.15	0.05	0.00377	0.0425	0.0026
303.15	0.05	0.00447	0.0489	0.003
303.15	0.05	0.00524	0.056	0.0034
303.15	0.05	0.00604	0.0631	0.0038
303.15	0.05	0.00689	0.0709	0.0043
303.15	0.05	0.00777	0.0785	0.0047
308.15	0.05	0	0.00427	0.00054
308.15	0.05	0.0001	0.00547	0.00056
308.15	0.05	0.00024	0.00703	0.00063
308.15	0.05	0.0005	0.01011	0.00077
308.15	0.05	0.00077	0.01321	0.00091
308.15	0.05	0.0011	0.01691	0.00111
308.15	0.05	0.00151	0.0215	0.0014
308.15	0.05	0.00199	0.0267	0.0017
308.15	0.05	0.00252	0.0324	0.002
308.15	0.05	0.00311	0.0387	0.0024
308.15	0.05	0.00377	0.0455	0.0028
308.15	0.05	0.00447	0.0526	0.0032
308.15	0.05	0.00524	0.0604	0.0036
308.15	0.05	0.00604	0.0686	0.0041
308.15	0.05	0.00689	0.0773	0.0047
308.15	0.05	0.00777	0.0857	0.0052
308.15	0.05	0.00863	0.0937	0.0056
313.15	0.05	0	0.00463	0.0006
313.15	0.05	0.0001	0.00595	0.00062
313.15	0.05	0.00024	0.00764	0.00069
313.15	0.05	0.0005	0.01103	0.00084
313.15	0.05	0.00077	0.01438	0.00099
313.15	0.05	0.0011	0.01841	0.00121
313.15	0.05	0.00151	0.0234	0.0015
313.15	0.05	0.00199	0.0291	0.0018
313.15	0.05	0.00252	0.0354	0.0022
313.15	0.05	0.00311	0.0422	0.0026
313.15	0.05	0.00377	0.0496	0.003
313.15	0.05	0.00447	0.0584	0.0035
313.15	0.05	0.00524	0.0667	0.004
313.15	0.05	0.00604	0.0757	0.0046
313.15	0.05	0.00689	0.0848	0.0051
313.15	0.05	0.00777	0.0943	0.0057
293.15	0.1	0	0.00555	0.00046
293.15	0.1	5e-05	0.00593	0.00049
293.15	0.1	0.00022	0.00742	0.00056
293.15	0.1	0.00041	0.00898	0.00063
293.15	0.1	0.00064	0.01089	0.00073
293.15	0.1	0.00092	0.0131	0.00085
293.15	0.1	0.00131	0.01624	0.00103
293.15	0.1	0.00175	0.01969	0.00122
293.15	0.1	0.00228	0.0239	0.0015
293.15	0.1	0.00284	0.0282	0.0017
293.15	0.1	0.00348	0.0331	0.002
293.15	0.1	0.00419	0.0389	0.0024
293.15	0.1	0.00496	0.0445	0.0027
293.15	0.1	0.00581	0.0507	0.0031
293.15	0.1	0.00672	0.0575	0.0035
293.15	0.1	0.00768	0.0644	0.0039
293.15	0.1	0.00869	0.0712	0.0043
298.15	0.1	0	0.00599	0.00066
298.15	0.1	0.00022	0.00906	0.00071
298.15	0.1	0.00041	0.0108	0.00076
298.15	0.1	0.00064	0.0129	0.00086
298.15	0.1	0.00092	0.01536	0.00099
298.15	0.1	0.00131	0.01885	0.00119
298.15	0.1	0.00175	0.0228	0.0014
298.15	0.1	0.00228	0.0274	0.0017
298.15	0.1	0.00284	0.0322	0.002
298.15	0.1	0.00348	0.0386	0.0023
298.15	0.1	0.00419	0.0445	0.0027
298.15	0.1	0.00496	0.0507	0.0031
298.15	0.1	0.00581	0.0575	0.0035
298.15	0.1	0.00672	0.0647	0.0039
298.15	0.1	0.00768	0.0721	0.0043
298.15	0.1	0.00869	0.0797	0.0048
303.15	0.1	0	0.00648	0.0006
303.15	0.1	0.00041	0.01121	0.00081
303.15	0.1	0.00064	0.01351	0.00091
303.15	0.1	0.00092	0.01621	0.00105
303.15	0.1	0.00175	0.0245	0.0015
303.15	0.1	0.00228	0.0295	0.0018
303.15	0.1	0.00284	0.0348	0.0021
303.15	0.1	0.00348	0.0408	0.0025
303.15	0.1	0.00419	0.0476	0.0029
303.15	0.1	0.00496	0.0546	0.0033
303.15	0.1	0.00581	0.0621	0.0037
303.15	0.1	0.00672	0.07	0.0042
303.15	0.1	0.00768	0.0781	0.0047
303.15	0.1	0.00869	0.0865	0.0052
303.15	0.1	0.0097	0.0948	0.0057
308.15	0.1	0	0.00707	0.00069
308.15	0.1	0.00022	0.01011	0.0008
308.15	0.1	0.00041	0.01222	0.00087
308.15	0.1	0.00064	0.01473	0.001
308.15	0.1	0.00092	0.01772	0.00114
308.15	0.1	0.00131	0.0221	0.0014
308.15	0.1	0.00175	0.0267	0.0017
308.15	0.1	0.00228	0.0323	0.002
308.15	0.1	0.00284	0.0381	0.0023
308.15	0.1	0.00348	0.0448	0.0027
308.15	0.1	0.00419	0.0517	0.0031
308.15	0.1	0.00496	0.0594	0.0036
308.15	0.1	0.00581	0.0676	0.0041
308.15	0.1	0.00672	0.0762	0.0046
308.15	0.1	0.00768	0.0853	0.0051
308.15	0.1	0.00869	0.0947	0.0057
313.15	0.1	0	0.00792	0.00078
313.15	0.1	5e-05	0.00869	0.00075
313.15	0.1	0.00022	0.01091	0.00083
313.15	0.1	0.00041	0.01321	0.00095
313.15	0.1	0.00064	0.01602	0.00107
313.15	0.1	0.00092	0.01926	0.00125
313.15	0.1	0.00131	0.024	0.0015
313.15	0.1	0.00175	0.029	0.0018
313.15	0.1	0.00228	0.0351	0.0022
313.15	0.1	0.00284	0.0415	0.0025
313.15	0.1	0.00348	0.0487	0.003
313.15	0.1	0.00419	0.0572	0.0035
313.15	0.1	0.00496	0.0656	0.004
313.15	0.1	0.00581	0.0746	0.0045
313.15	0.1	0.00672	0.0844	0.0051
313.15	0.1	0.00768	0.094	0.0057
293.15	0.15	0	0.00766	0.00052
293.15	0.15	0.00013	0.00874	0.00062
293.15	0.15	0.00032	0.01029	0.00069
293.15	0.15	0.00057	0.01229	0.0008
293.15	0.15	0.00087	0.01468	0.00093
293.15	0.15	0.00164	0.0208	0.0013
293.15	0.15	0.0021	0.0243	0.0015
293.15	0.15	0.00259	0.0281	0.0017
293.15	0.15	0.00315	0.0322	0.002
293.15	0.15	0.00381	0.0371	0.0022
293.15	0.15	0.00447	0.0417	0.0025
293.15	0.15	0.00513	0.0471	0.0028
293.15	0.15	0.00582	0.0518	0.0031
293.15	0.15	0.00654	0.0569	0.0034
293.15	0.15	0.0073	0.062	0.0037
293.15	0.15	0.00819	0.0681	0.0041
293.15	0.15	0.00915	0.0743	0.0045
298.15	0.15	0	0.0084	0.0007
298.15	0.15	0.00013	0.01009	0.0009
298.15	0.15	0.00124	0.0202	0.0013
298.15	0.15	0.00164	0.0235	0.0015
298.15	0.15	0.0021	0.0276	0.0017
298.15	0.15	0.00259	0.0316	0.0019
298.15	0.15	0.00315	0.037	0.0022
298.15	0.15	0.00447	0.0477	0.0029
298.15	0.15	0.00513	0.053	0.0032
298.15	0.15	0.00582	0.058	0.0035
298.15	0.15	0.00654	0.064	0.0039
298.15	0.15	0.0073	0.0695	0.0042
298.15	0.15	0.00819	0.0764	0.0046
298.15	0.15	0.00915	0.0833	0.005
303.15	0.15	0	0.009	0.00071
303.15	0.15	0.00087	0.01939	0.00125
303.15	0.15	0.00124	0.0229	0.0014
303.15	0.15	0.00164	0.0275	0.0017
303.15	0.15	0.0021	0.0316	0.0019
303.15	0.15	0.00259	0.0361	0.0022
303.15	0.15	0.00315	0.041	0.0025
303.15	0.15	0.0037	0.0459	0.0028
303.15	0.15	0.00447	0.0522	0.0032
303.15	0.15	0.00513	0.0587	0.0035
303.15	0.15	0.00582	0.0645	0.0039
303.15	0.15	0.00654	0.0704	0.0042
303.15	0.15	0.0073	0.0764	0.0046
303.15	0.15	0.00819	0.0836	0.005
303.15	0.15	0.00915	0.0907	0.0055
303.15	0.15	0.01009	0.0981	0.0059
308.15	0.15	0	0.00985	0.00079
308.15	0.15	0.00087	0.0217	0.0014
308.15	0.15	0.00124	0.0255	0.0016
308.15	0.15	0.00164	0.0295	0.0018
308.15	0.15	0.0021	0.0345	0.0021
308.15	0.15	0.00259	0.0394	0.0024
308.15	0.15	0.00315	0.0447	0.0027
308.15	0.15	0.0037	0.05	0.003
308.15	0.15	0.00447	0.0566	0.0034
308.15	0.15	0.00513	0.0631	0.0038
308.15	0.15	0.00582	0.0693	0.0042
308.15	0.15	0.00654	0.0757	0.0046
308.15	0.15	0.0073	0.0806	0.0049
308.15	0.15	0.00819	0.0907	0.0055
308.15	0.15	0.00915	0.0988	0.0059
313.15	0.15	0	0.0112	0.00088
313.15	0.15	0.00057	0.01956	0.00129
313.15	0.15	0.00087	0.0229	0.0015
313.15	0.15	0.00124	0.0271	0.0017
313.15	0.15	0.00164	0.0314	0.0019
313.15	0.15	0.0021	0.0363	0.0022
313.15	0.15	0.00259	0.0416	0.0025
313.15	0.15	0.00315	0.0475	0.0029
313.15	0.15	0.0037	0.0532	0.0032
313.15	0.15	0.00447	0.0615	0.0037
313.15	0.15	0.00513	0.0689	0.0042
313.15	0.15	0.00582	0.0759	0.0046
313.15	0.15	0.00654	0.0833	0.005
313.15	0.15	0.0073	0.0909	0.0055
313.15	0.15	0.00819	0.099	0.006
313.15	0.15	0.00915	0.1082	0.0065
293.15	0.2	0	0.01072	0.00072
293.15	0.2	0.00023	0.01251	0.00081
293.15	0.2	0.00045	0.01421	0.00091
293.15	0.2	0.00075	0.01653	0.00104
293.15	0.2	0.0015	0.0222	0.0014
293.15	0.2	0.00198	0.0258	0.0016
293.15	0.2	0.0025	0.0297	0.0018
293.15	0.2	0.00309	0.0339	0.0021
293.15	0.2	0.00372	0.0384	0.0023
293.15	0.2	0.00438	0.0429	0.0026
293.15	0.2	0.00504	0.0475	0.0029
293.15	0.2	0.00576	0.0528	0.0032
293.15	0.2	0.00651	0.058	0.0035
293.15	0.2	0.00731	0.0632	0.0038
293.15	0.2	0.00815	0.0687	0.0041
293.15	0.2	0.00904	0.0742	0.0045
293.15	0.2	0.00992	0.08	0.0048
298.15	0.2	0	0.01154	0.00079
298.15	0.2	0.00109	0.0219	0.0014
298.15	0.2	0.0015	0.0254	0.0016
298.15	0.2	0.00198	0.0293	0.0018
298.15	0.2	0.0025	0.0336	0.002
298.15	0.2	0.00309	0.0383	0.0023
298.15	0.2	0.00372	0.0432	0.0026
298.15	0.2	0.00438	0.0482	0.0029
298.15	0.2	0.00504	0.0534	0.0032
298.15	0.2	0.00576	0.0588	0.0035
298.15	0.2	0.00651	0.0643	0.0039
298.15	0.2	0.00731	0.0706	0.0042
298.15	0.2	0.00815	0.0767	0.0046
298.15	0.2	0.00904	0.083	0.005
298.15	0.2	0.00992	0.0892	0.0054
303.15	0.2	0	0.01244	0.00086
303.15	0.2	0.00075	0.0207	0.0013
303.15	0.2	0.00109	0.0238	0.0015
303.15	0.2	0.0015	0.027	0.0017
303.15	0.2	0.00198	0.0313	0.0019
303.15	0.2	0.0025	0.036	0.0022
303.15	0.2	0.00309	0.0412	0.0025
303.15	0.2	0.00372	0.0472	0.0029
303.15	0.2	0.00438	0.0527	0.0032
303.15	0.2	0.00504	0.0588	0.0035
303.15	0.2	0.00576	0.0648	0.0039
303.15	0.2	0.00651	0.0709	0.0043
303.15	0.2	0.00731	0.0773	0.0046
303.15	0.2	0.00815	0.084	0.0051
303.15	0.2	0.00904	0.0909	0.0055
303.15	0.2	0.00992	0.0976	0.0059
308.15	0.2	0	0.01385	0.00093
308.15	0.2	0.00109	0.0254	0.0016
308.15	0.2	0.0015	0.0295	0.0018
308.15	0.2	0.00198	0.0343	0.0021
308.15	0.2	0.0025	0.0394	0.0024
308.15	0.2	0.00309	0.0451	0.0027
308.15	0.2	0.00372	0.0511	0.0031
308.15	0.2	0.00438	0.0573	0.0035
308.15	0.2	0.00504	0.0634	0.0038
308.15	0.2	0.00576	0.0704	0.0042
308.15	0.2	0.00651	0.0771	0.0046
308.15	0.2	0.00731	0.0842	0.0051
308.15	0.2	0.00815	0.0915	0.0055
308.15	0.2	0.00904	0.0991	0.006
308.15	0.2	0.00992	0.1066	0.0064
313.15	0.2	0	0.01533	0.00102
313.15	0.2	0.00045	0.0204	0.0013
313.15	0.2	0.00075	0.0238	0.0015
313.15	0.2	0.00109	0.0275	0.0017
313.15	0.2	0.0015	0.0319	0.002
313.15	0.2	0.00198	0.037	0.0023
313.15	0.2	0.0025	0.0425	0.0026
313.15	0.2	0.00309	0.0486	0.0029
313.15	0.2	0.00372	0.0551	0.0033
313.15	0.2	0.00438	0.062	0.0037
313.15	0.2	0.00504	0.0697	0.0042
313.15	0.2	0.00576	0.0766	0.0046
313.15	0.2	0.00651	0.0844	0.0051
313.15	0.2	0.00731	0.0919	0.0055
313.15	0.2	0.00815	0.0998	0.006
313.15	0.2	0.00904	0.108	0.0065
313.15	0.2	0.00992	0.1163	0.007
293.15	0	0	8.75e-05	0.0003599
293.15	0	0.0003	0.00278	0.0004
293.15	0	0.00054	0.00499	0.00046
293.15	0	0.00087	0.00784	0.00058
293.15	0	0.00125	0.01111	0.00075
293.15	0	0.00164	0.01447	0.00093
293.15	0	0.00207	0.01814	0.00114
293.15	0	0.00259	0.0227	0.0014
293.15	0	0.00315	0.0273	0.0017
293.15	0	0.00374	0.0322	0.002
293.15	0	0.00437	0.0372	0.0023
293.15	0	0.00501	0.0423	0.0026
293.15	0	0.00571	0.0478	0.0029
293.15	0	0.00646	0.0537	0.0032
293.15	0	0.00723	0.0596	0.0036
293.15	0	0.00809	0.0661	0.004
293.15	0	0.00904	0.0731	0.0044
298.15	0	0	9.65e-05	0.0004041
298.15	0	0.0003	0.00312	0.00045
298.15	0	0.00054	0.00562	0.00052
298.15	0	0.00087	0.00882	0.00066
298.15	0	0.00125	0.01252	0.00085
298.15	0	0.00164	0.01629	0.00105
298.15	0	0.00207	0.0203	0.0013
298.15	0	0.00259	0.0253	0.0016
298.15	0	0.00315	0.0304	0.0019
298.15	0	0.00374	0.0357	0.0022
298.15	0	0.00437	0.0415	0.0025
298.15	0	0.00501	0.0471	0.0028
298.15	0	0.00571	0.0532	0.0032
298.15	0	0.00646	0.0596	0.0036
298.15	0	0.00723	0.0662	0.004
298.15	0	0.00809	0.0734	0.0044
298.15	0	0.00904	0.0814	0.0049
303.15	0	0	0.0001062	0.0004457
303.15	0	0.0003	0.00344	0.0005
303.15	0	0.00054	0.00619	0.00058
303.15	0	0.00087	0.00972	0.00072
303.15	0	0.00125	0.0138	0.00093
303.15	0	0.00164	0.01796	0.00116
303.15	0	0.00207	0.0226	0.0014
303.15	0	0.00259	0.0279	0.0017
303.15	0	0.00315	0.0336	0.0021
303.15	0	0.00374	0.0395	0.0024
303.15	0	0.00437	0.0457	0.0028
303.15	0	0.00501	0.0521	0.0032
303.15	0	0.00571	0.0588	0.0035
303.15	0	0.00646	0.0658	0.004
303.15	0	0.00723	0.0732	0.0044
303.15	0	0.00809	0.081	0.0049
308.15	0	0	0.0001122	0.0004903
308.15	0	0.0003	0.00378	0.00055
308.15	0	0.00054	0.00681	0.00063
308.15	0	0.00087	0.01069	0.0008
308.15	0	0.00125	0.01518	0.00103
308.15	0	0.00164	0.01974	0.00128
308.15	0	0.00207	0.0248	0.0016
308.15	0	0.00259	0.0307	0.0019
308.15	0	0.00315	0.0369	0.0023
308.15	0	0.00374	0.0434	0.0026
308.15	0	0.00437	0.0504	0.0031
308.15	0	0.00501	0.0572	0.0035
308.15	0	0.00571	0.0646	0.0039
308.15	0	0.00646	0.0725	0.0044
308.15	0	0.00723	0.0805	0.0048
313.15	0	0	0.0001164	0.0005365
313.15	0	0.0003	0.00413	0.0006
313.15	0	0.00054	0.00742	0.00069
313.15	0	0.00087	0.01167	0.00087
313.15	0	0.00125	0.01657	0.00112
313.15	0	0.00207	0.0271	0.0017
313.15	0	0.00259	0.0335	0.0021
313.15	0	0.00315	0.0403	0.0025
313.15	0	0.00374	0.0474	0.0029
313.15	0	0.00437	0.0549	0.0033
313.15	0	0.00501	0.0625	0.0038
313.15	0	0.00571	0.0705	0.0043
313.15	0	0.00646	0.0792	0.0048
313.15	0	0.00723	0.0878	0.0053
313.15	0	0.00809	0.0976	0.0059

System: glycylglycine + potassium perfluorooctanesulfonate + water; phases: Liquid
Fixed: Pressure, kPa = 101
Fixed: Solvent: Molality, mol/kg of potassium perfluorooctanesulfonate = 0.0005
Property: Mass density, kg/m3 (Liquid); method: Pycnometric method
Molality, mol/kg of glycylglycine	Temperature, K	Mass density, kg/m3	uncertainty
0	288.15	999.3	0.5
0.0204	288.15	1000.5	0.5
0.0401	288.15	1001.6	0.5
0.0598	288.15	1002.7	0.5
0.0803	288.15	1003.8	0.5
0.1006	288.15	1005	0.5
0.12	288.15	1006.1	0.5
0.1506	288.15	1007.9	0.5
0.1677	288.15	1008.9	0.5
0.2092	288.15	1011.3	0.5
0.2502	288.15	1013.6	0.5
0	293.15	998.3	0.5
0.0204	293.15	999.4	0.5
0.0401	293.15	1000.5	0.5
0.0598	293.15	1001.7	0.5
0.0803	293.15	1002.8	0.5
0.1006	293.15	1004	0.5
0.12	293.15	1005.1	0.5
0.1506	293.15	1006.8	0.5
0.1677	293.15	1007.8	0.5
0.2092	293.15	1010.2	0.5
0.2502	293.15	1012.5	0.5
0	298.15	997.1	0.5
0.0204	298.15	998.2	0.5
0.0401	298.15	999.4	0.5
0.0598	298.15	1000.4	0.5
0.0803	298.15	1001.6	0.5
0.1006	298.15	1002.7	0.5
0.12	298.15	1003.8	0.5
0.1506	298.15	1005.5	0.5
0.1677	298.15	1006.5	0.5
0.2092	298.15	1008.8	0.5
0.2502	298.15	1011.1	0.5
0	303.15	995.7	0.5
0.0204	303.15	996.8	0.5
0.0401	303.15	997.9	0.5
0.0598	303.15	999	1
0.0803	303.15	1000.1	0.5
0.1006	303.15	1001.3	0.5
0.12	303.15	1002.3	0.5
0.1506	303.15	1004.1	0.5
0.1677	303.15	1005.1	0.5
0.2092	303.15	1007.4	0.5
0.2502	303.15	1009.7	0.5

System: glycylglycine + potassium perfluorooctanesulfonate + water; phases: Liquid
Fixed: Pressure, kPa = 101
Property: Electrical conductivity, S/m (Liquid); method: Alternating current cell with electrodes
Temperature, K	Solvent: Molality, mol/kg of glycylglycine	Molality, mol/kg of potassium perfluorooctanesulfonate	Electrical conductivity, S/m	uncertainty
293.15	0	0	8.75e-05	0.0003347
293.15	0	0.00033	0.00284	0.00033
293.15	0	0.00036	0.00306	0.00038
293.15	0	0.00039	0.00326	0.00036
293.15	0	0.00041	0.00347	0.00038
293.15	0	0.00044	0.00366	0.00038
293.15	0	0.00046	0.00384	0.00037
293.15	0	0.00049	0.00404	0.00041
293.15	0	0.00052	0.00427	0.0004
293.15	0	0.00054	0.00447	0.00041
293.15	0	0.00057	0.00468	0.00044
293.15	0	0.0006	0.0049	0.00041
293.15	0	0.00062	0.0051	0.00043
293.15	0	0.00066	0.00534	0.00045
293.15	0	0.00069	0.00559	0.00044
293.15	0	0.00071	0.0058	0.00051
298.15	0	0	9.65e-05	0.0003895
298.15	0	0.0003	0.00301	0.00041
298.15	0	0.00033	0.00326	0.00042
298.15	0	0.00036	0.00352	0.00041
298.15	0	0.00039	0.00376	0.00041
298.15	0	0.00041	0.00399	0.00044
298.15	0	0.00044	0.00421	0.00044
298.15	0	0.00046	0.00444	0.00043
298.15	0	0.00049	0.00466	0.00047
298.15	0	0.00052	0.00492	0.00046
298.15	0	0.00054	0.00516	0.00047
298.15	0	0.00057	0.00541	0.00051
298.15	0	0.0006	0.00564	0.00048
298.15	0	0.00062	0.00589	0.00049
298.15	0	0.00066	0.00616	0.00052
298.15	0	0.00069	0.00643	0.00051
298.15	0	0.00071	0.00669	0.00054
298.15	0	0.00075	0.00698	0.00051
298.15	0	0.00078	0.00721	0.00053
303.15	0	0	0.0001062	0.0004205
303.15	0	0.0003	0.00325	0.0004
303.15	0	0.00033	0.00353	0.0004
303.15	0	0.00036	0.00381	0.00045
303.15	0	0.00039	0.00407	0.00045
303.15	0	0.00041	0.00432	0.00048
303.15	0	0.00044	0.00456	0.00048
303.15	0	0.00046	0.00481	0.00047
303.15	0	0.00049	0.00506	0.00051
303.15	0	0.00052	0.00534	0.0005
303.15	0	0.00054	0.00559	0.00051
303.15	0	0.00057	0.00586	0.00055
303.15	0	0.0006	0.00612	0.00052
303.15	0	0.00062	0.00638	0.00053
303.15	0	0.00066	0.00667	0.00055
303.15	0	0.00069	0.00697	0.00056
303.15	0	0.00071	0.00724	0.00059
303.15	0	0.00075	0.00756	0.00061
303.15	0	0.00078	0.00782	0.00061
308.15	0	0	0.0001122	0.000465
308.15	0	0.0003	0.00359	0.00046
308.15	0	0.00033	0.0039	0.00046
308.15	0	0.00036	0.0042	0.0005
308.15	0	0.00039	0.00449	0.00049
308.15	0	0.00041	0.00478	0.00053
308.15	0	0.00044	0.00504	0.00054
308.15	0	0.00046	0.00531	0.00052
308.15	0	0.00049	0.0056	0.00058
308.15	0	0.00052	0.00592	0.00056
308.15	0	0.00054	0.00621	0.00057
308.15	0	0.00057	0.0065	0.00061
308.15	0	0.0006	0.00679	0.00057
308.15	0	0.00062	0.00709	0.00059
308.15	0	0.00066	0.00742	0.00063
308.15	0	0.00069	0.00775	0.00062
308.15	0	0.00071	0.00806	0.00066
308.15	0	0.00075	0.00841	0.00059
308.15	0	0.00078	0.00871	0.00063
313.15	0	0	0.0001164	0.0005085
313.15	0	0.0003	0.00392	0.00051
313.15	0	0.00033	0.00427	0.0005
313.15	0	0.00036	0.0046	0.00055
313.15	0	0.00039	0.00492	0.00054
313.15	0	0.00041	0.00522	0.00057
313.15	0	0.00044	0.0055	0.00058
313.15	0	0.00046	0.0058	0.00056
313.15	0	0.00049	0.0061	0.00061
313.15	0	0.00052	0.00644	0.0006
313.15	0	0.00054	0.00673	0.00061
313.15	0	0.00057	0.00706	0.00066
313.15	0	0.0006	0.00737	0.00062
313.15	0	0.00062	0.00769	0.00064
313.15	0	0.00066	0.00805	0.00068
313.15	0	0.00069	0.00843	0.00067
313.15	0	0.00071	0.00875	0.00072
313.15	0	0.00075	0.00914	0.00067
293.15	0.05	0	0.00328	0.00041
293.15	0.05	0.00036	0.00615	0.00055
293.15	0.05	0.00039	0.0064	0.00063
293.15	0.05	0.00042	0.0066	0.0005
293.15	0.05	0.00045	0.00681	0.00051
293.15	0.05	0.00048	0.007	0.00048
293.15	0.05	0.00051	0.00722	0.00051
293.15	0.05	0.00054	0.00742	0.00054
293.15	0.05	0.00057	0.00766	0.00054
293.15	0.05	0.0006	0.0079	0.00053
293.15	0.05	0.00064	0.00814	0.00056
293.15	0.05	0.00067	0.00839	0.00057
293.15	0.05	0.0007	0.00861	0.00065
293.15	0.05	0.00073	0.00885	0.00061
293.15	0.05	0.00077	0.00911	0.00061
293.15	0.05	0.00081	0.00938	0.00062
298.15	0.05	0	0.00355	0.00044
298.15	0.05	0.00033	0.00653	0.00068
298.15	0.05	0.00036	0.00679	0.0005
298.15	0.05	0.00039	0.00706	0.00053
298.15	0.05	0.00042	0.0073	0.00055
298.15	0.05	0.00045	0.00753	0.00058
298.15	0.05	0.00048	0.00775	0.00054
298.15	0.05	0.00051	0.00801	0.00057
298.15	0.05	0.00054	0.00823	0.0006
298.15	0.05	0.00057	0.0085	0.00061
298.15	0.05	0.0006	0.00878	0.0006
298.15	0.05	0.00064	0.00905	0.00062
298.15	0.05	0.00067	0.00933	0.00064
298.15	0.05	0.0007	0.00959	0.00069
298.15	0.05	0.00073	0.00986	0.00069
298.15	0.05	0.00077	0.01014	0.00066
298.15	0.05	0.00081	0.01044	0.00073
298.15	0.05	0.00084	0.01074	0.00073
298.15	0.05	0.00087	0.0109	0.00071
303.15	0.05	0	0.00385	0.00048
303.15	0.05	0.00033	0.00717	0.00063
303.15	0.05	0.00036	0.00747	0.00054
303.15	0.05	0.00039	0.00778	0.00059
303.15	0.05	0.00042	0.00804	0.00062
303.15	0.05	0.00045	0.0083	0.00064
303.15	0.05	0.00048	0.00855	0.0006
303.15	0.05	0.00051	0.00884	0.00063
303.15	0.05	0.00054	0.00909	0.00067
303.15	0.05	0.00057	0.00939	0.00067
303.15	0.05	0.0006	0.00969	0.00066
303.15	0.05	0.00064	0.01001	0.00068
303.15	0.05	0.00067	0.01031	0.00071
303.15	0.05	0.0007	0.01058	0.00076
303.15	0.05	0.00073	0.01089	0.00077
303.15	0.05	0.00077	0.01121	0.00073
303.15	0.05	0.00081	0.01156	0.00079
308.15	0.05	0	0.00429	0.00053
308.15	0.05	0.00033	0.0079	0.0007
308.15	0.05	0.00036	0.00824	0.00061
308.15	0.05	0.00039	0.00858	0.00065
308.15	0.05	0.00042	0.00889	0.00068
308.15	0.05	0.00045	0.00916	0.0007
308.15	0.05	0.00048	0.00944	0.00066
308.15	0.05	0.00051	0.00975	0.0007
308.15	0.05	0.00054	0.01002	0.00073
308.15	0.05	0.00057	0.01035	0.00074
308.15	0.05	0.0006	0.01069	0.00074
308.15	0.05	0.00064	0.01103	0.00076
308.15	0.05	0.00067	0.01138	0.00078
308.15	0.05	0.0007	0.01169	0.00084
308.15	0.05	0.00073	0.01202	0.00085
308.15	0.05	0.00077	0.01239	0.00081
308.15	0.05	0.00081	0.01276	0.00091
308.15	0.05	0.00084	0.01312	0.0009
308.15	0.05	0.00087	0.01341	0.00091
313.15	0.05	0	0.00474	0.00061
313.15	0.05	0.00033	0.0087	0.00088
313.15	0.05	0.00036	0.00906	0.00094
313.15	0.05	0.00039	0.00944	0.00072
313.15	0.05	0.00042	0.00978	0.00075
313.15	0.05	0.00045	0.01009	0.00078
313.15	0.05	0.00048	0.0104	0.00073
313.15	0.05	0.00051	0.01074	0.00077
313.15	0.05	0.00054	0.01104	0.00081
313.15	0.05	0.00057	0.01142	0.00082
313.15	0.05	0.0006	0.0118	0.00081
313.15	0.05	0.00064	0.01217	0.00084
313.15	0.05	0.00067	0.01256	0.00086
313.15	0.05	0.0007	0.01289	0.00095
313.15	0.05	0.00073	0.01327	0.00092
313.15	0.05	0.00077	0.01367	0.00095
313.15	0.05	0.00081	0.01408	0.00096
313.15	0.05	0.00084	0.0145	0.00099
313.15	0.05	0.00087	0.0148	0.00101
293.15	0.1	0	0.00543	0.00045
293.15	0.1	0.0004	0.00851	0.00064
293.15	0.1	0.00042	0.00866	0.00066
293.15	0.1	0.00044	0.00882	0.0006
293.15	0.1	0.00046	0.00898	0.00062
293.15	0.1	0.00049	0.00914	0.00062
293.15	0.1	0.00051	0.00931	0.00062
293.15	0.1	0.00054	0.00951	0.00064
293.15	0.1	0.00057	0.00972	0.00064
293.15	0.1	0.00061	0.00996	0.00066
293.15	0.1	0.00064	0.01023	0.00067
293.15	0.1	0.00069	0.01051	0.00068
293.15	0.1	0.00073	0.01082	0.00073
293.15	0.1	0.00077	0.01112	0.00072
293.15	0.1	0.00082	0.01142	0.00073
293.15	0.1	0.00086	0.01171	0.00076
298.15	0.1	0	0.00593	0.0005
298.15	0.1	0.0004	0.00941	0.00068
298.15	0.1	0.00042	0.00958	0.00069
298.15	0.1	0.00044	0.00975	0.00066
298.15	0.1	0.00046	0.00993	0.00069
298.15	0.1	0.00049	0.01012	0.00069
298.15	0.1	0.00051	0.01032	0.00069
298.15	0.1	0.00054	0.01055	0.00071
298.15	0.1	0.00057	0.01079	0.00071
298.15	0.1	0.00061	0.01106	0.00073
298.15	0.1	0.00064	0.01136	0.00075
298.15	0.1	0.00069	0.01168	0.00076
298.15	0.1	0.00073	0.01201	0.00081
298.15	0.1	0.00077	0.01235	0.0008
298.15	0.1	0.00082	0.01269	0.00082
298.15	0.1	0.00086	0.013	0.00086
303.15	0.1	0	0.00652	0.00055
303.15	0.1	0.0004	0.01041	0.00076
303.15	0.1	0.00042	0.0106	0.00077
303.15	0.1	0.00044	0.0108	0.00074
303.15	0.1	0.00046	0.011	0.00077
303.15	0.1	0.00049	0.01121	0.00076
303.15	0.1	0.00051	0.01143	0.00077
303.15	0.1	0.00054	0.01168	0.00079
303.15	0.1	0.00057	0.01195	0.00079
303.15	0.1	0.00061	0.01225	0.00081
303.15	0.1	0.00064	0.01258	0.00083
303.15	0.1	0.00069	0.01294	0.00084
303.15	0.1	0.00073	0.01332	0.00091
303.15	0.1	0.00077	0.01371	0.00089
303.15	0.1	0.00082	0.01409	0.00091
303.15	0.1	0.00086	0.01444	0.00096
308.15	0.1	0	0.00724	0.00061
308.15	0.1	0.0004	0.01151	0.00084
308.15	0.1	0.00042	0.01174	0.00085
308.15	0.1	0.00044	0.01197	0.00083
308.15	0.1	0.00046	0.01219	0.00086
308.15	0.1	0.00049	0.01245	0.00085
308.15	0.1	0.00051	0.01269	0.00086
308.15	0.1	0.00054	0.01298	0.00088
308.15	0.1	0.00057	0.01328	0.00088
308.15	0.1	0.00061	0.01362	0.00091
308.15	0.1	0.00064	0.01399	0.00092
308.15	0.1	0.00069	0.01441	0.00094
308.15	0.1	0.00073	0.01483	0.001
308.15	0.1	0.00077	0.01525	0.00099
308.15	0.1	0.00082	0.01568	0.00101
308.15	0.1	0.00086	0.01608	0.00104
313.15	0.1	0	0.00805	0.00068
313.15	0.1	0.00035	0.01217	0.00088
313.15	0.1	0.00037	0.01247	0.00091
313.15	0.1	0.0004	0.01273	0.0009
313.15	0.1	0.00042	0.01298	0.00089
313.15	0.1	0.00044	0.01322	0.00091
313.15	0.1	0.00046	0.01347	0.00094
313.15	0.1	0.00049	0.01374	0.00094
313.15	0.1	0.00051	0.01401	0.00095
313.15	0.1	0.00054	0.01433	0.00097
313.15	0.1	0.00057	0.01468	0.00097
313.15	0.1	0.00061	0.01503	0.001
313.15	0.1	0.00064	0.01545	0.00101
313.15	0.1	0.00069	0.0159	0.00104
313.15	0.1	0.00073	0.01639	0.00112
313.15	0.1	0.00077	0.01687	0.0011
313.15	0.1	0.00082	0.01735	0.00111
293.15	0.15	0	0.00745	0.00051
293.15	0.15	0.00036	0.01009	0.00066
293.15	0.15	0.00038	0.01023	0.00061
293.15	0.15	0.0004	0.01035	0.00067
293.15	0.15	0.00042	0.01047	0.00067
293.15	0.15	0.00043	0.01059	0.00067
293.15	0.15	0.00045	0.01071	0.00068
293.15	0.15	0.00047	0.01082	0.00068
293.15	0.15	0.00049	0.01094	0.0007
293.15	0.15	0.00051	0.01107	0.00073
293.15	0.15	0.00053	0.01119	0.00072
293.15	0.15	0.00055	0.01133	0.00072
293.15	0.15	0.00057	0.01146	0.00075
293.15	0.15	0.00059	0.01159	0.00076
293.15	0.15	0.00061	0.01172	0.00077
293.15	0.15	0.00063	0.01186	0.00075
293.15	0.15	0.00065	0.01202	0.00076
293.15	0.15	0.00068	0.01216	0.00084
293.15	0.15	0.0007	0.01232	0.00078
298.15	0.15	0	0.00818	0.00058
298.15	0.15	0.00036	0.01117	0.00082
298.15	0.15	0.00038	0.01134	0.00072
298.15	0.15	0.0004	0.01149	0.00075
298.15	0.15	0.00042	0.01162	0.00075
298.15	0.15	0.00043	0.01175	0.00076
298.15	0.15	0.00045	0.01188	0.00076
298.15	0.15	0.00047	0.01201	0.00076
298.15	0.15	0.00049	0.01215	0.00078
298.15	0.15	0.00051	0.0123	0.00081
298.15	0.15	0.00053	0.01243	0.0008
298.15	0.15	0.00055	0.01258	0.0008
298.15	0.15	0.00057	0.01273	0.00083
298.15	0.15	0.00059	0.01288	0.00085
298.15	0.15	0.00061	0.01302	0.00086
298.15	0.15	0.00063	0.01319	0.00084
298.15	0.15	0.00065	0.01336	0.00084
298.15	0.15	0.00068	0.01353	0.00088
298.15	0.15	0.0007	0.01371	0.00088
303.15	0.15	0	0.00904	0.00064
303.15	0.15	0.00036	0.01238	0.00086
303.15	0.15	0.00038	0.01257	0.00079
303.15	0.15	0.0004	0.01274	0.00084
303.15	0.15	0.00042	0.01288	0.00084
303.15	0.15	0.00043	0.01303	0.00084
303.15	0.15	0.00045	0.01318	0.00085
303.15	0.15	0.00047	0.01332	0.00085
303.15	0.15	0.00049	0.01347	0.00086
303.15	0.15	0.00051	0.01363	0.00089
303.15	0.15	0.00053	0.01379	0.00089
303.15	0.15	0.00055	0.01396	0.00089
303.15	0.15	0.00057	0.01413	0.00092
303.15	0.15	0.00059	0.0143	0.00093
303.15	0.15	0.00061	0.01447	0.00094
303.15	0.15	0.00063	0.01463	0.00093
303.15	0.15	0.00065	0.01483	0.00094
303.15	0.15	0.00068	0.01502	0.00098
303.15	0.15	0.0007	0.01522	0.00099
308.15	0.15	0	0.01009	0.00072
308.15	0.15	0.00036	0.01378	0.00099
308.15	0.15	0.00038	0.01399	0.0009
308.15	0.15	0.0004	0.01418	0.00093
308.15	0.15	0.00042	0.01435	0.00093
308.15	0.15	0.00043	0.01451	0.00094
308.15	0.15	0.00045	0.01467	0.00094
308.15	0.15	0.00047	0.01483	0.00094
308.15	0.15	0.00049	0.01501	0.00097
308.15	0.15	0.00051	0.01519	0.001
308.15	0.15	0.00053	0.01537	0.00099
308.15	0.15	0.00055	0.01556	0.00099
308.15	0.15	0.00057	0.01574	0.00103
308.15	0.15	0.00059	0.01593	0.00105
308.15	0.15	0.00061	0.01613	0.00106
308.15	0.15	0.00063	0.01634	0.00105
308.15	0.15	0.00065	0.01655	0.00105
308.15	0.15	0.00068	0.01677	0.00107
308.15	0.15	0.0007	0.01699	0.00107
313.15	0.15	0	0.01129	0.00079
313.15	0.15	0.00036	0.01528	0.00092
313.15	0.15	0.00038	0.01549	0.00093
313.15	0.15	0.0004	0.01569	0.00102
313.15	0.15	0.00042	0.01587	0.00103
313.15	0.15	0.00043	0.01605	0.00103
313.15	0.15	0.00045	0.01622	0.00104
313.15	0.15	0.00047	0.0164	0.00104
313.15	0.15	0.00049	0.01659	0.00107
313.15	0.15	0.00051	0.01678	0.00109
313.15	0.15	0.00053	0.01698	0.00109
313.15	0.15	0.00055	0.01718	0.00109
313.15	0.15	0.00057	0.01738	0.00113
313.15	0.15	0.00059	0.01758	0.00114
313.15	0.15	0.00061	0.01779	0.00116
313.15	0.15	0.00063	0.018	0.00115
313.15	0.15	0.00065	0.01824	0.00115
313.15	0.15	0.00068	0.01848	0.00124
313.15	0.15	0.0007	0.0187	0.00118
293.15	0.2	0	0.01055	0.00069
293.15	0.2	0.00029	0.01253	0.00079
293.15	0.2	0.0003	0.01261	0.0008
293.15	0.2	0.00031	0.01268	0.00079
293.15	0.2	0.00033	0.01276	0.0008
293.15	0.2	0.00034	0.01286	0.0008
293.15	0.2	0.00036	0.01295	0.00081
293.15	0.2	0.00038	0.01306	0.00081
293.15	0.2	0.0004	0.01317	0.00082
293.15	0.2	0.00042	0.01329	0.00083
293.15	0.2	0.00044	0.01342	0.00084
293.15	0.2	0.00047	0.01356	0.00085
293.15	0.2	0.00049	0.01369	0.00085
293.15	0.2	0.00052	0.01387	0.00086
293.15	0.2	0.00055	0.01404	0.00087
293.15	0.2	0.00058	0.0142	0.00088
293.15	0.2	0.00062	0.01439	0.00088
293.15	0.2	0.00065	0.01456	0.0009
298.15	0.2	0	0.0115	0.00076
298.15	0.2	0.00029	0.01378	0.00087
298.15	0.2	0.0003	0.01386	0.00089
298.15	0.2	0.00031	0.01394	0.00088
298.15	0.2	0.00033	0.01404	0.00088
298.15	0.2	0.00034	0.01415	0.00089
298.15	0.2	0.00036	0.01426	0.00089
298.15	0.2	0.00038	0.01438	0.0009
298.15	0.2	0.0004	0.01451	0.00091
298.15	0.2	0.00042	0.01464	0.00091
298.15	0.2	0.00044	0.01478	0.00093
298.15	0.2	0.00047	0.01494	0.00094
298.15	0.2	0.00049	0.01511	0.00094
298.15	0.2	0.00052	0.01531	0.00096
298.15	0.2	0.00055	0.0155	0.00096
298.15	0.2	0.00058	0.01569	0.00097
298.15	0.2	0.00062	0.01589	0.00096
298.15	0.2	0.00065	0.0161	0.00099
303.15	0.2	0	0.0125	0.00081
303.15	0.2	0.00029	0.01496	0.0009
303.15	0.2	0.0003	0.01506	0.00091
303.15	0.2	0.00031	0.01515	0.00091
303.15	0.2	0.00033	0.01525	0.00096
303.15	0.2	0.00034	0.01535	0.00095
303.15	0.2	0.00036	0.01548	0.00097
303.15	0.2	0.00038	0.01561	0.00098
303.15	0.2	0.0004	0.01575	0.00099
303.15	0.2	0.00042	0.01589	0.00099
303.15	0.2	0.00044	0.01604	0.001
303.15	0.2	0.00047	0.01622	0.00102
303.15	0.2	0.00049	0.0164	0.00102
303.15	0.2	0.00052	0.01661	0.00103
303.15	0.2	0.00055	0.01681	0.00104
303.15	0.2	0.00058	0.01701	0.00106
303.15	0.2	0.00062	0.01722	0.00115
303.15	0.2	0.00065	0.01744	0.00113
308.15	0.2	0	0.014	0.00092
308.15	0.2	0.00029	0.01678	0.00107
308.15	0.2	0.0003	0.0169	0.00109
308.15	0.2	0.00031	0.017	0.00108
308.15	0.2	0.00033	0.01712	0.00108
308.15	0.2	0.00034	0.01725	0.00109
308.15	0.2	0.00036	0.01739	0.00109
308.15	0.2	0.00038	0.01755	0.0011
308.15	0.2	0.0004	0.01771	0.00111
308.15	0.2	0.00042	0.01788	0.00112
308.15	0.2	0.00044	0.01805	0.00113
308.15	0.2	0.00047	0.01825	0.00114
308.15	0.2	0.00049	0.01845	0.00115
308.15	0.2	0.00052	0.01869	0.00117
308.15	0.2	0.00055	0.01894	0.00118
308.15	0.2	0.00058	0.01917	0.00119
308.15	0.2	0.00062	0.01942	0.00118
308.15	0.2	0.00065	0.01969	0.00121
313.15	0.2	0	0.01549	0.00102
313.15	0.2	0.00029	0.01853	0.00117
313.15	0.2	0.0003	0.01864	0.00119
313.15	0.2	0.00031	0.01877	0.00118
313.15	0.2	0.00033	0.01889	0.00119
313.15	0.2	0.00034	0.01904	0.0012
313.15	0.2	0.00036	0.01919	0.0012
313.15	0.2	0.00038	0.01937	0.00121
313.15	0.2	0.0004	0.01954	0.00123
313.15	0.2	0.00042	0.01972	0.00123
313.15	0.2	0.00044	0.01991	0.00125
313.15	0.2	0.00047	0.02013	0.00126
313.15	0.2	0.00049	0.02035	0.00127
313.15	0.2	0.00052	0.02062	0.00129
313.15	0.2	0.00055	0.02089	0.0013
313.15	0.2	0.00058	0.02117	0.00131
313.15	0.2	0.00062	0.02146	0.00132
313.15	0.2	0.00065	0.02175	0.00135

System: glycyl-L-valine + potassium perfluorooctanesulfonate + water; phases: Liquid
Fixed: Pressure, kPa = 101
Fixed: Solvent: Molality, mol/kg of potassium perfluorooctanesulfonate = 0.0005
Property: Mass density, kg/m3 (Liquid); method: Pycnometric method
Molality, mol/kg of glycyl-L-valine	Temperature, K	Mass density, kg/m3	uncertainty
0	288.15	999.3	0.5
0.0204	288.15	1000.4	0.5
0.04	288.15	1001.5	0.5
0.0605	288.15	1002.5	0.5
0.0802	288.15	1003.6	0.5
0.0999	288.15	1004.6	0.5
0.12	288.15	1005.7	0.5
0.1399	288.15	1006.8	0.5
0.1591	288.15	1007.8	0.5
0.1799	288.15	1008.9	0.5
0.1997	288.15	1010	0.5
0	293.15	998.3	0.5
0.0204	293.15	999.3	0.5
0.04	293.15	1000.3	0.5
0.0605	293.15	1001.4	0.5
0.0802	293.15	1002.5	0.5
0.0999	293.15	1003.5	0.5
0.12	293.15	1004.6	0.5
0.1399	293.15	1005.6	0.5
0.1591	293.15	1006.7	0.5
0.1799	293.15	1007.8	0.5
0.1997	293.15	1008.8	0.5
0	298.15	997.1	0.5
0.0204	298.15	998.2	0.5
0.04	298.15	999.2	0.5
0.0605	298.15	1000.3	0.5
0.0802	298.15	1001.3	0.5
0.0999	298.15	1002.3	0.5
0.12	298.15	1003.4	0.5
0.1399	298.15	1004.4	0.5
0.1591	298.15	1005.4	0.5
0.1799	298.15	1006.6	0.5
0.1997	298.15	1007.5	0.5
0	303.15	995.8	0.5
0.0204	303.15	996.8	0.5
0.04	303.15	997.8	0.5
0.0605	303.15	998.9	0.5
0.0802	303.15	999.9	0.5
0.0999	303.15	1001	0.5
0.12	303.15	1002	0.5
0.1399	303.15	1003.1	0.5
0.1591	303.15	1004.1	0.5
0.1799	303.15	1005.1	0.5
0.1997	303.15	1006.2	0.5

System: glycyl-L-valine + potassium perfluorooctanesulfonate + water; phases: Liquid
Fixed: Pressure, kPa = 101
Property: Electrical conductivity, S/m (Liquid); method: Alternating current cell with electrodes
Temperature, K	Solvent: Molality, mol/kg of glycyl-L-valine	Molality, mol/kg of potassium perfluorooctanesulfonate	Electrical conductivity, S/m	uncertainty
293.15	0.05	0	0.00323	0.00037
293.15	0.05	0.00031	0.00564	0.00043
293.15	0.05	0.00033	0.00575	0.00044
293.15	0.05	0.00034	0.00587	0.00042
293.15	0.05	0.00036	0.00598	0.00046
293.15	0.05	0.00038	0.00609	0.00046
293.15	0.05	0.00039	0.00621	0.00046
293.15	0.05	0.00041	0.00634	0.00046
293.15	0.05	0.00043	0.00648	0.00047
293.15	0.05	0.00046	0.00664	0.00048
293.15	0.05	0.00048	0.00681	0.00049
293.15	0.05	0.00051	0.00699	0.00051
293.15	0.05	0.00054	0.0072	0.00051
293.15	0.05	0.00057	0.00742	0.00053
293.15	0.05	0.0006	0.00764	0.00054
293.15	0.05	0.00064	0.0079	0.00054
293.15	0.05	0.00068	0.00816	0.00055
293.15	0.05	0.00072	0.0084	0.00056
298.15	0.05	0	0.00347	0.00041
298.15	0.05	0.00031	0.00621	0.00047
298.15	0.05	0.00033	0.00632	0.00048
298.15	0.05	0.00034	0.00646	0.00048
298.15	0.05	0.00036	0.00657	0.0005
298.15	0.05	0.00038	0.0067	0.00051
298.15	0.05	0.00039	0.00684	0.00052
298.15	0.05	0.00041	0.00699	0.00052
298.15	0.05	0.00043	0.00716	0.00052
298.15	0.05	0.00046	0.00733	0.00053
298.15	0.05	0.00048	0.00752	0.00054
298.15	0.05	0.00051	0.00774	0.00057
298.15	0.05	0.00054	0.00797	0.00058
298.15	0.05	0.00057	0.00822	0.00058
298.15	0.05	0.0006	0.00848	0.0006
298.15	0.05	0.00064	0.00875	0.0006
298.15	0.05	0.00068	0.00905	0.00062
298.15	0.05	0.00072	0.00934	0.00063
303.15	0.05	0	0.00374	0.00045
303.15	0.05	0.00031	0.0068	0.00051
303.15	0.05	0.00033	0.00693	0.00053
303.15	0.05	0.00034	0.00708	0.00053
303.15	0.05	0.00036	0.00721	0.00056
303.15	0.05	0.00038	0.00736	0.00056
303.15	0.05	0.00039	0.00751	0.00057
303.15	0.05	0.00041	0.00768	0.00057
303.15	0.05	0.00043	0.00786	0.00058
303.15	0.05	0.00046	0.00806	0.00059
303.15	0.05	0.00048	0.00827	0.0006
303.15	0.05	0.00051	0.00852	0.00062
303.15	0.05	0.00054	0.00877	0.00063
303.15	0.05	0.00057	0.00905	0.00064
303.15	0.05	0.0006	0.00933	0.00067
303.15	0.05	0.00064	0.00965	0.00066
303.15	0.05	0.00068	0.00997	0.00068
303.15	0.05	0.00072	0.01029	0.00073
308.15	0.05	0	0.00407	0.0005
308.15	0.05	0.00031	0.00746	0.00056
308.15	0.05	0.00033	0.00761	0.00056
308.15	0.05	0.00034	0.00777	0.00055
308.15	0.05	0.00036	0.00792	0.00062
308.15	0.05	0.00038	0.00808	0.00063
308.15	0.05	0.00039	0.00825	0.00063
308.15	0.05	0.00041	0.00845	0.00063
308.15	0.05	0.00043	0.00866	0.00065
308.15	0.05	0.00046	0.00887	0.00066
308.15	0.05	0.00048	0.00912	0.00066
308.15	0.05	0.00051	0.00941	0.0007
308.15	0.05	0.00054	0.0097	0.00071
308.15	0.05	0.00057	0.01002	0.00072
308.15	0.05	0.0006	0.01034	0.00075
308.15	0.05	0.00064	0.01071	0.00074
308.15	0.05	0.00068	0.01109	0.00076
308.15	0.05	0.00072	0.01144	0.00079
313.15	0.05	0	0.00456	0.00055
313.15	0.05	0.00034	0.00858	0.00065
313.15	0.05	0.00036	0.00881	0.0007
313.15	0.05	0.00038	0.00898	0.00071
313.15	0.05	0.00039	0.00917	0.00072
313.15	0.05	0.00041	0.00939	0.00071
313.15	0.05	0.00043	0.00962	0.00072
313.15	0.05	0.00046	0.00988	0.00073
313.15	0.05	0.00048	0.01015	0.00074
313.15	0.05	0.00051	0.01046	0.00078
313.15	0.05	0.00054	0.01078	0.00079
313.15	0.05	0.00057	0.01114	0.0008
313.15	0.05	0.0006	0.0115	0.00083
313.15	0.05	0.00064	0.01191	0.00083
313.15	0.05	0.00068	0.01233	0.00085
313.15	0.05	0.00072	0.01274	0.00087
293.15	0.1	0	0.00535	0.00044
293.15	0.1	0.00036	0.00807	0.00056
293.15	0.1	0.00039	0.00827	0.00062
293.15	0.1	0.00042	0.00841	0.00057
293.15	0.1	0.00043	0.00853	0.00057
293.15	0.1	0.00045	0.00865	0.00057
293.15	0.1	0.00047	0.00877	0.00059
293.15	0.1	0.00049	0.0089	0.00059
293.15	0.1	0.00051	0.00902	0.0006
293.15	0.1	0.00053	0.00915	0.00061
293.15	0.1	0.00055	0.00929	0.00062
293.15	0.1	0.00057	0.00942	0.00062
293.15	0.1	0.00059	0.00954	0.00064
293.15	0.1	0.00061	0.00969	0.00064
293.15	0.1	0.00063	0.00984	0.00064
293.15	0.1	0.00066	0.00998	0.00066
293.15	0.1	0.00068	0.01014	0.00065
293.15	0.1	0.00071	0.0103	0.00064
293.15	0.1	0.00074	0.01048	0.00066
298.15	0.1	0	0.00582	0.00049
298.15	0.1	0.00036	0.00885	0.00061
298.15	0.1	0.00039	0.00908	0.00067
298.15	0.1	0.00042	0.00925	0.00063
298.15	0.1	0.00043	0.00939	0.00063
298.15	0.1	0.00045	0.00953	0.00063
298.15	0.1	0.00047	0.00965	0.00064
298.15	0.1	0.00049	0.00978	0.00065
298.15	0.1	0.00051	0.00993	0.00066
298.15	0.1	0.00053	0.01007	0.00067
298.15	0.1	0.00055	0.01022	0.00068
298.15	0.1	0.00057	0.01036	0.00068
298.15	0.1	0.00059	0.01051	0.0007
298.15	0.1	0.00061	0.01066	0.0007
298.15	0.1	0.00063	0.01083	0.00071
298.15	0.1	0.00066	0.011	0.00073
298.15	0.1	0.00068	0.01118	0.00072
298.15	0.1	0.00071	0.01137	0.00072
298.15	0.1	0.00074	0.01156	0.00075
303.15	0.1	0	0.00636	0.00053
303.15	0.1	0.00036	0.00969	0.00064
303.15	0.1	0.00039	0.00995	0.00067
303.15	0.1	0.00042	0.01012	0.00069
303.15	0.1	0.00043	0.01027	0.00068
303.15	0.1	0.00045	0.01041	0.0007
303.15	0.1	0.00047	0.01056	0.0007
303.15	0.1	0.00049	0.01071	0.00071
303.15	0.1	0.00051	0.01087	0.00072
303.15	0.1	0.00053	0.01102	0.00073
303.15	0.1	0.00055	0.01119	0.00074
303.15	0.1	0.00057	0.01134	0.00075
303.15	0.1	0.00059	0.0115	0.00077
303.15	0.1	0.00061	0.01167	0.00076
303.15	0.1	0.00063	0.01185	0.00078
303.15	0.1	0.00066	0.01202	0.00078
303.15	0.1	0.00068	0.01223	0.00079
303.15	0.1	0.00071	0.01244	0.00086
303.15	0.1	0.00074	0.01266	0.00085
308.15	0.1	0	0.00705	0.00059
308.15	0.1	0.00036	0.01079	0.00074
308.15	0.1	0.00039	0.01108	0.00081
308.15	0.1	0.00042	0.01128	0.00077
308.15	0.1	0.00043	0.01145	0.00077
308.15	0.1	0.00045	0.01161	0.00077
308.15	0.1	0.00047	0.01178	0.00079
308.15	0.1	0.00049	0.01194	0.0008
308.15	0.1	0.00051	0.01213	0.00081
308.15	0.1	0.00053	0.01231	0.00083
308.15	0.1	0.00055	0.0125	0.00084
308.15	0.1	0.00057	0.01268	0.00085
308.15	0.1	0.00059	0.01287	0.00087
308.15	0.1	0.00061	0.01307	0.00086
308.15	0.1	0.00063	0.01328	0.00087
308.15	0.1	0.00066	0.01348	0.00089
308.15	0.1	0.00068	0.01371	0.00089
308.15	0.1	0.00071	0.01394	0.0009
308.15	0.1	0.00074	0.0142	0.00093
313.15	0.1	0	0.00783	0.00066
313.15	0.1	0.00036	0.01198	0.00082
313.15	0.1	0.00039	0.0123	0.00088
313.15	0.1	0.00042	0.01252	0.00085
313.15	0.1	0.00043	0.01271	0.00086
313.15	0.1	0.00045	0.01289	0.00086
313.15	0.1	0.00047	0.01309	0.00088
313.15	0.1	0.00049	0.01327	0.00089
313.15	0.1	0.00051	0.01348	0.00091
313.15	0.1	0.00053	0.01369	0.00092
313.15	0.1	0.00055	0.0139	0.00093
313.15	0.1	0.00057	0.0141	0.00095
313.15	0.1	0.00059	0.01431	0.00096
313.15	0.1	0.00061	0.01453	0.00095
313.15	0.1	0.00063	0.01476	0.00098
313.15	0.1	0.00066	0.01498	0.00098
313.15	0.1	0.00068	0.01524	0.00099
313.15	0.1	0.00071	0.01551	0.00105
313.15	0.1	0.00074	0.0158	0.00102
293.15	0.15	0	0.00742	0.00051
293.15	0.15	0.00032	0.00969	0.00071
293.15	0.15	0.00034	0.00978	0.00059
293.15	0.15	0.00035	0.00987	0.00061
293.15	0.15	0.00037	0.00997	0.00063
293.15	0.15	0.00039	0.01008	0.00065
293.15	0.15	0.00041	0.01019	0.00067
293.15	0.15	0.00043	0.01032	0.00065
293.15	0.15	0.00045	0.01044	0.00068
293.15	0.15	0.00047	0.01057	0.00068
293.15	0.15	0.00049	0.01071	0.00066
293.15	0.15	0.00052	0.01086	0.00067
293.15	0.15	0.00055	0.01101	0.00071
293.15	0.15	0.00058	0.01121	0.00072
293.15	0.15	0.00061	0.0114	0.00073
293.15	0.15	0.00064	0.01159	0.00076
293.15	0.15	0.00068	0.0118	0.00097
293.15	0.15	0.00071	0.012	0.00087
298.15	0.15	0	0.00811	0.00057
298.15	0.15	0.00032	0.01064	0.00077
298.15	0.15	0.00034	0.01073	0.00069
298.15	0.15	0.00035	0.01083	0.00067
298.15	0.15	0.00037	0.01095	0.0007
298.15	0.15	0.00039	0.01108	0.00071
298.15	0.15	0.00041	0.0112	0.00074
298.15	0.15	0.00043	0.01134	0.00072
298.15	0.15	0.00045	0.01148	0.00075
298.15	0.15	0.00047	0.01162	0.00075
298.15	0.15	0.00049	0.01177	0.00073
298.15	0.15	0.00052	0.01195	0.00075
298.15	0.15	0.00055	0.01212	0.00077
298.15	0.15	0.00058	0.01232	0.00078
298.15	0.15	0.00061	0.01252	0.00079
298.15	0.15	0.00064	0.01273	0.00082
298.15	0.15	0.00068	0.01295	0.00097
298.15	0.15	0.00071	0.01317	0.00091
303.15	0.15	0	0.00891	0.00063
303.15	0.15	0.00032	0.01183	0.00081
303.15	0.15	0.00034	0.01195	0.00075
303.15	0.15	0.00035	0.01207	0.00076
303.15	0.15	0.00037	0.01222	0.00079
303.15	0.15	0.00039	0.01236	0.0008
303.15	0.15	0.00041	0.01251	0.00083
303.15	0.15	0.00043	0.01268	0.00082
303.15	0.15	0.00045	0.01286	0.00085
303.15	0.15	0.00047	0.01304	0.00086
303.15	0.15	0.00049	0.01323	0.00084
303.15	0.15	0.00052	0.01343	0.00085
303.15	0.15	0.00055	0.01365	0.00088
303.15	0.15	0.00058	0.01388	0.00089
303.15	0.15	0.00061	0.01413	0.00091
303.15	0.15	0.00064	0.01438	0.00093
303.15	0.15	0.00068	0.01466	0.001
303.15	0.15	0.00071	0.01491	0.00099
308.15	0.15	0	0.00989	0.0007
308.15	0.15	0.00032	0.01307	0.00082
308.15	0.15	0.00034	0.01319	0.00083
308.15	0.15	0.00035	0.01332	0.00094
308.15	0.15	0.00037	0.01348	0.00089
308.15	0.15	0.00039	0.01362	0.00088
308.15	0.15	0.00041	0.01378	0.00091
308.15	0.15	0.00043	0.01395	0.00089
308.15	0.15	0.00045	0.01413	0.00093
308.15	0.15	0.00047	0.01432	0.00093
308.15	0.15	0.00049	0.01453	0.00091
308.15	0.15	0.00052	0.01475	0.00093
308.15	0.15	0.00055	0.01497	0.00096
308.15	0.15	0.00058	0.01523	0.00098
308.15	0.15	0.00061	0.01551	0.00099
308.15	0.15	0.00064	0.01578	0.00103
308.15	0.15	0.00068	0.01607	0.00122
308.15	0.15	0.00071	0.01634	0.00114
313.15	0.15	0	0.01103	0.00078
313.15	0.15	0.00032	0.01462	0.001
313.15	0.15	0.00034	0.01477	0.00091
313.15	0.15	0.00035	0.01493	0.0009
313.15	0.15	0.00037	0.01512	0.00098
313.15	0.15	0.00039	0.0153	0.001
313.15	0.15	0.00041	0.0155	0.00103
313.15	0.15	0.00043	0.0157	0.00102
313.15	0.15	0.00045	0.01592	0.00105
313.15	0.15	0.00047	0.01614	0.00106
313.15	0.15	0.00049	0.01638	0.00104
313.15	0.15	0.00052	0.01664	0.00105
313.15	0.15	0.00055	0.0169	0.00109
313.15	0.15	0.00058	0.01719	0.00111
313.15	0.15	0.00061	0.01752	0.00113
313.15	0.15	0.00064	0.01785	0.00117
313.15	0.15	0.00068	0.01821	0.00131
313.15	0.15	0.00071	0.01857	0.00126
293.15	0.2	0	0.01045	0.00069
293.15	0.2	0.00035	0.01288	0.0008
293.15	0.2	0.00037	0.01297	0.00081
293.15	0.2	0.00039	0.01308	0.00082
293.15	0.2	0.00041	0.0132	0.00083
293.15	0.2	0.00043	0.01332	0.00083
293.15	0.2	0.00045	0.01345	0.00084
293.15	0.2	0.00048	0.0136	0.00085
293.15	0.2	0.00051	0.01376	0.00086
293.15	0.2	0.00053	0.0139	0.00087
293.15	0.2	0.00056	0.01407	0.00088
293.15	0.2	0.00059	0.01423	0.00088
293.15	0.2	0.00062	0.01441	0.00089
293.15	0.2	0.00066	0.01462	0.00091
293.15	0.2	0.00069	0.01481	0.00092
293.15	0.2	0.00073	0.01504	0.00093
298.15	0.2	0	0.01135	0.00074
298.15	0.2	0.00035	0.01394	0.00084
298.15	0.2	0.00037	0.01403	0.00084
298.15	0.2	0.00039	0.01413	0.00087
298.15	0.2	0.00041	0.01424	0.00089
298.15	0.2	0.00043	0.01436	0.00089
298.15	0.2	0.00045	0.0145	0.00089
298.15	0.2	0.00048	0.01466	0.00091
298.15	0.2	0.00051	0.01481	0.00092
298.15	0.2	0.00053	0.01498	0.00092
298.15	0.2	0.00056	0.01513	0.00094
298.15	0.2	0.00059	0.01529	0.00094
298.15	0.2	0.00062	0.01546	0.00096
298.15	0.2	0.00066	0.01567	0.00096
298.15	0.2	0.00069	0.01586	0.00099
298.15	0.2	0.00073	0.0161	0.00117
303.15	0.2	0	0.01239	0.00082
303.15	0.2	0.00032	0.01527	0.00097
303.15	0.2	0.00033	0.01533	0.00097
303.15	0.2	0.00034	0.01542	0.00096
303.15	0.2	0.00035	0.01554	0.00096
303.15	0.2	0.00037	0.01567	0.00099
303.15	0.2	0.00039	0.01581	0.00099
303.15	0.2	0.00041	0.01596	0.00101
303.15	0.2	0.00043	0.01613	0.00102
303.15	0.2	0.00045	0.01631	0.00103
303.15	0.2	0.00048	0.01651	0.00104
303.15	0.2	0.00051	0.01672	0.00105
303.15	0.2	0.00053	0.01692	0.00106
303.15	0.2	0.00056	0.01713	0.00108
303.15	0.2	0.00059	0.01736	0.00108
303.15	0.2	0.00062	0.01759	0.00109
303.15	0.2	0.00066	0.01784	0.00112
303.15	0.2	0.00069	0.01808	0.00112
303.15	0.2	0.00073	0.0184	0.00112
308.15	0.2	0	0.01369	0.0009
308.15	0.2	0.00039	0.0174	0.00106
308.15	0.2	0.00041	0.01756	0.00108
308.15	0.2	0.00043	0.01774	0.00111
308.15	0.2	0.00045	0.01793	0.00112
308.15	0.2	0.00048	0.01816	0.00114
308.15	0.2	0.00051	0.01839	0.00115
308.15	0.2	0.00053	0.01861	0.00116
308.15	0.2	0.00056	0.01884	0.00118
308.15	0.2	0.00059	0.01908	0.00118
308.15	0.2	0.00062	0.0193	0.0012
308.15	0.2	0.00066	0.01958	0.00121
308.15	0.2	0.00069	0.01985	0.00124
308.15	0.2	0.00073	0.0202	0.0013
313.15	0.2	0	0.01522	0.00101
313.15	0.2	0.00034	0.01893	0.00119
313.15	0.2	0.00035	0.01905	0.00119
313.15	0.2	0.00037	0.01922	0.00121
313.15	0.2	0.00039	0.01939	0.00122
313.15	0.2	0.00041	0.01957	0.00124
313.15	0.2	0.00043	0.01978	0.00125
313.15	0.2	0.00045	0.02	0.0013
313.15	0.2	0.00048	0.0203	0.0013
313.15	0.2	0.00051	0.0205	0.0013
313.15	0.2	0.00053	0.0208	0.0013
313.15	0.2	0.00056	0.0211	0.0013
313.15	0.2	0.00059	0.0214	0.0013
313.15	0.2	0.00062	0.0217	0.0014
313.15	0.2	0.00066	0.022	0.0014
313.15	0.2	0.00069	0.0223	0.0014
313.15	0.2	0.00073	0.0227	0.0014
293.15	0	0	8.75e-05	0.0003347
293.15	0	0.00033	0.00284	0.00033
293.15	0	0.00036	0.00306	0.00038
293.15	0	0.00039	0.00326	0.00036
293.15	0	0.00041	0.00347	0.00038
293.15	0	0.00044	0.00366	0.00038
293.15	0	0.00046	0.00384	0.00037
293.15	0	0.00049	0.00404	0.00041
293.15	0	0.00052	0.00427	0.0004
293.15	0	0.00054	0.00447	0.00041
293.15	0	0.00057	0.00468	0.00044
293.15	0	0.0006	0.0049	0.00041
293.15	0	0.00062	0.0051	0.00043
293.15	0	0.00066	0.00534	0.00045
293.15	0	0.00069	0.00559	0.00044
293.15	0	0.00071	0.0058	0.00051
298.15	0	0	9.65e-05	0.0003895
298.15	0	0.0003	0.00301	0.00041
298.15	0	0.00033	0.00326	0.00042
298.15	0	0.00036	0.00352	0.00041
298.15	0	0.00039	0.00376	0.00041
298.15	0	0.00041	0.00399	0.00044
298.15	0	0.00044	0.00421	0.00044
298.15	0	0.00046	0.00444	0.00043
298.15	0	0.00049	0.00466	0.00047
298.15	0	0.00052	0.00492	0.00046
298.15	0	0.00054	0.00516	0.00047
298.15	0	0.00057	0.00541	0.00051
298.15	0	0.0006	0.00564	0.00048
298.15	0	0.00062	0.00589	0.00049
298.15	0	0.00066	0.00616	0.00052
298.15	0	0.00069	0.00643	0.00051
298.15	0	0.00071	0.00669	0.00054
298.15	0	0.00075	0.00698	0.00051
298.15	0	0.00078	0.00721	0.00053
303.15	0	0	0.0001062	0.0004205
303.15	0	0.0003	0.00325	0.0004
303.15	0	0.00033	0.00353	0.0004
303.15	0	0.00036	0.00381	0.00045
303.15	0	0.00039	0.00407	0.00045
303.15	0	0.00041	0.00432	0.00048
303.15	0	0.00044	0.00456	0.00048
303.15	0	0.00046	0.00481	0.00047
303.15	0	0.00049	0.00506	0.00051
303.15	0	0.00052	0.00534	0.0005
303.15	0	0.00054	0.00559	0.00051
303.15	0	0.00057	0.00586	0.00055
303.15	0	0.0006	0.00612	0.00052
303.15	0	0.00062	0.00638	0.00053
303.15	0	0.00066	0.00667	0.00055
303.15	0	0.00069	0.00697	0.00056
303.15	0	0.00071	0.00724	0.00059
303.15	0	0.00075	0.00756	0.00061
303.15	0	0.00078	0.00782	0.00061
308.15	0	0	0.0001122	0.000465
308.15	0	0.0003	0.00359	0.00046
308.15	0	0.00033	0.0039	0.00046
308.15	0	0.00036	0.0042	0.0005
308.15	0	0.00039	0.00449	0.00049
308.15	0	0.00041	0.00478	0.00053
308.15	0	0.00044	0.00504	0.00054
308.15	0	0.00046	0.00531	0.00052
308.15	0	0.00049	0.0056	0.00058
308.15	0	0.00052	0.00592	0.00056
308.15	0	0.00054	0.00621	0.00057
308.15	0	0.00057	0.0065	0.00061
308.15	0	0.0006	0.00679	0.00057
308.15	0	0.00062	0.00709	0.00059
308.15	0	0.00066	0.00742	0.00063
308.15	0	0.00069	0.00775	0.00062
308.15	0	0.00071	0.00806	0.00066
308.15	0	0.00075	0.00841	0.00059
308.15	0	0.00078	0.00871	0.00063
313.15	0	0	0.0001164	0.0005085
313.15	0	0.0003	0.00392	0.00051
313.15	0	0.00033	0.00427	0.0005
313.15	0	0.00036	0.0046	0.00055
313.15	0	0.00039	0.00492	0.00054
313.15	0	0.00041	0.00522	0.00057
313.15	0	0.00044	0.0055	0.00058
313.15	0	0.00046	0.0058	0.00056
313.15	0	0.00049	0.0061	0.00061
313.15	0	0.00052	0.00644	0.0006
313.15	0	0.00054	0.00673	0.00061
313.15	0	0.00057	0.00706	0.00066
313.15	0	0.0006	0.00737	0.00062
313.15	0	0.00062	0.00769	0.00064
313.15	0	0.00066	0.00805	0.00068
313.15	0	0.00069	0.00843	0.00067
313.15	0	0.00071	0.00875	0.00072
313.15	0	0.00075	0.00914	0.00067

System: glycyl-L-leucine + potassium perfluorooctanesulfonate + water; phases: Liquid
Fixed: Pressure, kPa = 101
Fixed: Solvent: Molality, mol/kg of potassium perfluorooctanesulfonate = 0.0005
Property: Mass density, kg/m3 (Liquid); method: Pycnometric method
Molality, mol/kg of glycyl-L-leucine	Temperature, K	Mass density, kg/m3	uncertainty
0	288.15	999.3	0.5
0.02	288.15	1000.2	0.5
0.0262	288.15	1000.5	0.5
0.0328	288.15	1000.9	0.5
0.0393	288.15	1001.2	0.5
0.0493	288.15	1001.7	0.5
0.0588	288.15	1002.2	0.5
0.0687	288.15	1002.7	0.5
0.0785	288.15	1003.2	0.5
0.0882	288.15	1003.8	0.5
0	293.15	998.3	0.5
0.02	293.15	999.3	0.5
0.0262	293.15	999.6	0.5
0.0328	293.15	999.9	0.5
0.0393	293.15	1000.2	0.5
0.0493	293.15	1000.7	0.5
0.0588	293.15	1001.2	0.5
0.0687	293.15	1001.7	0.5
0.0785	293.15	1002.2	0.5
0.0882	293.15	1002.7	0.5
0.098	293.15	1003.1	0.5
0	298.15	997.1	0.5
0.02	298.15	998.1	0.5
0.0262	298.15	998.4	0.5
0.0328	298.15	998.7	0.5
0.0393	298.15	999	1
0.0493	298.15	999.5	0.5
0.0588	298.15	1000	0.5
0.0687	298.15	1000.4	0.5
0.0785	298.15	1000.8	0.5
0.0882	298.15	1001.3	0.5
0.098	298.15	1001.7	0.5
0	303.15	995.8	0.5
0.02	303.15	996.7	0.5
0.0262	303.15	996.9	0.5
0.0328	303.15	997.3	0.5
0.0393	303.15	997.6	0.5
0.0493	303.15	998	1
0.0588	303.15	998.5	0.5
0.0687	303.15	998.9	0.5
0.0785	303.15	999.4	0.5
0.0882	303.15	999.9	0.5
0.098	303.15	1000.3	0.5

System: glycyl-L-leucine + potassium perfluorooctanesulfonate + water; phases: Liquid
Fixed: Pressure, kPa = 101
Property: Electrical conductivity, S/m (Liquid); method: Alternating current cell with electrodes
Temperature, K	Solvent: Molality, mol/kg of glycyl-L-leucine	Molality, mol/kg of potassium perfluorooctanesulfonate	Electrical conductivity, S/m	uncertainty
293.15	0.05	0	0.00321	0.00036
293.15	0.05	0.00037	0.00603	0.00045
293.15	0.05	0.00038	0.00615	0.00044
293.15	0.05	0.0004	0.00628	0.00045
293.15	0.05	0.00043	0.00644	0.00047
293.15	0.05	0.00045	0.00659	0.00048
293.15	0.05	0.00047	0.00676	0.00049
293.15	0.05	0.0005	0.00694	0.0005
293.15	0.05	0.00053	0.00715	0.00051
293.15	0.05	0.00056	0.00735	0.00052
293.15	0.05	0.00059	0.00756	0.00053
293.15	0.05	0.00062	0.00779	0.00054
293.15	0.05	0.00066	0.00801	0.00053
293.15	0.05	0.00069	0.00825	0.00056
298.15	0.05	0	0.00345	0.0004
298.15	0.05	0.00037	0.0066	0.00048
298.15	0.05	0.00038	0.00672	0.00048
298.15	0.05	0.0004	0.00688	0.00048
298.15	0.05	0.00043	0.00704	0.00052
298.15	0.05	0.00045	0.00722	0.00053
298.15	0.05	0.00047	0.00741	0.00054
298.15	0.05	0.0005	0.00762	0.00055
298.15	0.05	0.00053	0.00783	0.00056
298.15	0.05	0.00056	0.00805	0.00058
298.15	0.05	0.00059	0.00831	0.00058
298.15	0.05	0.00062	0.00857	0.0006
298.15	0.05	0.00066	0.00881	0.0006
298.15	0.05	0.00069	0.00908	0.00063
303.15	0.05	0	0.00373	0.00044
303.15	0.05	0.00037	0.00724	0.00055
303.15	0.05	0.00038	0.0074	0.00055
303.15	0.05	0.0004	0.00757	0.00054
303.15	0.05	0.00043	0.00776	0.00058
303.15	0.05	0.00045	0.00796	0.00058
303.15	0.05	0.00047	0.00817	0.0006
303.15	0.05	0.0005	0.00841	0.00061
303.15	0.05	0.00053	0.00865	0.00062
303.15	0.05	0.00056	0.0089	0.00064
303.15	0.05	0.00059	0.00918	0.00064
303.15	0.05	0.00062	0.00946	0.00066
303.15	0.05	0.00066	0.00974	0.00066
303.15	0.05	0.00069	0.01004	0.0007
308.15	0.05	0	0.00406	0.00048
308.15	0.05	0.00037	0.00795	0.00058
308.15	0.05	0.00038	0.00811	0.00057
308.15	0.05	0.0004	0.00831	0.00058
308.15	0.05	0.00043	0.00851	0.00064
308.15	0.05	0.00045	0.00874	0.00064
308.15	0.05	0.00047	0.00898	0.00067
308.15	0.05	0.0005	0.00924	0.00067
308.15	0.05	0.00053	0.00952	0.00069
308.15	0.05	0.00056	0.0098	0.00071
308.15	0.05	0.00059	0.01012	0.00071
308.15	0.05	0.00062	0.01043	0.00074
308.15	0.05	0.00066	0.01074	0.00075
308.15	0.05	0.00069	0.01109	0.00078
313.15	0.05	0	0.00455	0.00054
313.15	0.05	0.00038	0.00901	0.00065
313.15	0.05	0.0004	0.00922	0.00067
313.15	0.05	0.00043	0.00946	0.00071
313.15	0.05	0.00045	0.0097	0.00072
313.15	0.05	0.00047	0.00997	0.00074
313.15	0.05	0.0005	0.01026	0.00075
313.15	0.05	0.00053	0.01056	0.00076
313.15	0.05	0.00056	0.01088	0.00079
313.15	0.05	0.00059	0.01123	0.00079
313.15	0.05	0.00062	0.01158	0.00081
313.15	0.05	0.00066	0.01193	0.0008
313.15	0.05	0.00069	0.0123	0.00085
293.15	0.1	0	0.00533	0.00044
293.15	0.1	0.00037	0.00807	0.00058
293.15	0.1	0.00038	0.0082	0.00058
293.15	0.1	0.0004	0.00833	0.00058
293.15	0.1	0.00042	0.00845	0.00057
293.15	0.1	0.00044	0.00859	0.00058
293.15	0.1	0.00046	0.00871	0.00059
293.15	0.1	0.00048	0.00885	0.0006
293.15	0.1	0.0005	0.00899	0.00061
293.15	0.1	0.00052	0.00913	0.00062
293.15	0.1	0.00054	0.00929	0.00062
293.15	0.1	0.00056	0.00943	0.00062
293.15	0.1	0.00059	0.00959	0.00063
293.15	0.1	0.00061	0.00972	0.00064
293.15	0.1	0.00063	0.00987	0.00066
293.15	0.1	0.00065	0.01001	0.00065
293.15	0.1	0.00067	0.01015	0.00065
293.15	0.1	0.0007	0.0103	0.00066
298.15	0.1	0	0.0058	0.00048
298.15	0.1	0.00037	0.00885	0.00062
298.15	0.1	0.00038	0.00899	0.00062
298.15	0.1	0.0004	0.00913	0.00061
298.15	0.1	0.00042	0.00927	0.00063
298.15	0.1	0.00044	0.00942	0.00064
298.15	0.1	0.00046	0.00957	0.00065
298.15	0.1	0.00048	0.00971	0.00066
298.15	0.1	0.0005	0.00986	0.00067
298.15	0.1	0.00052	0.01003	0.00068
298.15	0.1	0.00054	0.01019	0.00068
298.15	0.1	0.00056	0.01036	0.00068
298.15	0.1	0.00059	0.01052	0.00069
298.15	0.1	0.00061	0.01067	0.0007
298.15	0.1	0.00063	0.01083	0.00072
298.15	0.1	0.00065	0.01099	0.00072
298.15	0.1	0.00067	0.01114	0.00076
298.15	0.1	0.0007	0.01134	0.00075
303.15	0.1	0	0.00634	0.00053
303.15	0.1	0.00037	0.00977	0.00068
303.15	0.1	0.00038	0.00992	0.00068
303.15	0.1	0.0004	0.01008	0.00067
303.15	0.1	0.00042	0.01023	0.00069
303.15	0.1	0.00044	0.0104	0.00071
303.15	0.1	0.00046	0.01056	0.00072
303.15	0.1	0.00048	0.01074	0.00073
303.15	0.1	0.0005	0.0109	0.00074
303.15	0.1	0.00052	0.01109	0.00075
303.15	0.1	0.00054	0.01127	0.00075
303.15	0.1	0.00056	0.01146	0.00076
303.15	0.1	0.00059	0.01165	0.00077
303.15	0.1	0.00061	0.01182	0.00078
303.15	0.1	0.00063	0.01201	0.0008
303.15	0.1	0.00065	0.01217	0.0008
303.15	0.1	0.00067	0.01235	0.00085
303.15	0.1	0.0007	0.01256	0.00084
308.15	0.1	0	0.00703	0.00059
308.15	0.1	0.00037	0.01086	0.00078
308.15	0.1	0.00038	0.01103	0.00078
308.15	0.1	0.0004	0.01121	0.00078
308.15	0.1	0.00042	0.01139	0.00078
308.15	0.1	0.00044	0.01159	0.00079
308.15	0.1	0.00046	0.01177	0.00081
308.15	0.1	0.00048	0.01196	0.00082
308.15	0.1	0.0005	0.01215	0.00083
308.15	0.1	0.00052	0.01236	0.00085
308.15	0.1	0.00054	0.01257	0.00085
308.15	0.1	0.00056	0.01279	0.00085
308.15	0.1	0.00059	0.013	0.00086
308.15	0.1	0.00061	0.0132	0.00087
308.15	0.1	0.00063	0.01341	0.0009
308.15	0.1	0.00065	0.0136	0.0009
308.15	0.1	0.00067	0.01382	0.00092
308.15	0.1	0.0007	0.01406	0.00092
313.15	0.1	0	0.00781	0.00066
313.15	0.1	0.00037	0.01202	0.00086
313.15	0.1	0.00038	0.01221	0.00085
313.15	0.1	0.0004	0.0124	0.00087
313.15	0.1	0.00042	0.01259	0.00086
313.15	0.1	0.00044	0.01281	0.00088
313.15	0.1	0.00046	0.01302	0.00089
313.15	0.1	0.00048	0.01323	0.0009
313.15	0.1	0.0005	0.01343	0.00092
313.15	0.1	0.00052	0.01366	0.00093
313.15	0.1	0.00054	0.0139	0.00093
313.15	0.1	0.00056	0.01413	0.00094
313.15	0.1	0.00059	0.01436	0.00096
313.15	0.1	0.00061	0.01459	0.00097
313.15	0.1	0.00063	0.01483	0.00101
313.15	0.1	0.00065	0.01506	0.001
313.15	0.1	0.00067	0.01529	0.00099
313.15	0.1	0.0007	0.01556	0.00099
293.15	0.15	0	0.0074	0.00051
293.15	0.15	0.00036	0.00998	0.0006
293.15	0.15	0.00037	0.01008	0.00061
293.15	0.15	0.00039	0.0102	0.00061
293.15	0.15	0.00041	0.01032	0.00065
293.15	0.15	0.00042	0.01043	0.00068
293.15	0.15	0.00044	0.01054	0.00069
293.15	0.15	0.00046	0.01065	0.00068
293.15	0.15	0.00048	0.01076	0.00069
293.15	0.15	0.0005	0.01089	0.0007
293.15	0.15	0.00052	0.01103	0.00072
293.15	0.15	0.00054	0.01116	0.00072
293.15	0.15	0.00056	0.0113	0.00073
293.15	0.15	0.00058	0.01144	0.00075
293.15	0.15	0.0006	0.01157	0.00073
293.15	0.15	0.00062	0.0117	0.00074
293.15	0.15	0.00064	0.01183	0.00083
293.15	0.15	0.00067	0.01199	0.00085
298.15	0.15	0	0.00809	0.00057
298.15	0.15	0.00036	0.01105	0.00068
298.15	0.15	0.00037	0.01116	0.00069
298.15	0.15	0.00039	0.01128	0.00069
298.15	0.15	0.00041	0.01141	0.00072
298.15	0.15	0.00042	0.01154	0.00076
298.15	0.15	0.00044	0.01168	0.00077
298.15	0.15	0.00046	0.01181	0.00077
298.15	0.15	0.00048	0.01196	0.00078
298.15	0.15	0.0005	0.01212	0.00079
298.15	0.15	0.00052	0.01228	0.0008
298.15	0.15	0.00054	0.01243	0.00081
298.15	0.15	0.00056	0.01258	0.00081
298.15	0.15	0.00058	0.01273	0.00083
298.15	0.15	0.0006	0.01289	0.00083
298.15	0.15	0.00062	0.01303	0.00083
298.15	0.15	0.00064	0.0132	0.00083
298.15	0.15	0.00067	0.01336	0.00089
298.15	0.15	0.0007	0.01357	0.00088
303.15	0.15	0	0.00889	0.00064
303.15	0.15	0.00036	0.01221	0.00076
303.15	0.15	0.00037	0.01235	0.00076
303.15	0.15	0.00039	0.0125	0.00077
303.15	0.15	0.00041	0.01265	0.00081
303.15	0.15	0.00042	0.0128	0.00084
303.15	0.15	0.00044	0.01294	0.00085
303.15	0.15	0.00046	0.01308	0.00085
303.15	0.15	0.00048	0.01325	0.00086
303.15	0.15	0.0005	0.01343	0.00088
303.15	0.15	0.00052	0.01361	0.00089
303.15	0.15	0.00054	0.01378	0.0009
303.15	0.15	0.00056	0.01396	0.00091
303.15	0.15	0.00058	0.01414	0.00092
303.15	0.15	0.0006	0.01432	0.00093
303.15	0.15	0.00062	0.01448	0.00092
303.15	0.15	0.00064	0.01467	0.00092
303.15	0.15	0.00067	0.01487	0.00098
303.15	0.15	0.0007	0.01509	0.00097
308.15	0.15	0	0.00987	0.00071
308.15	0.15	0.00036	0.01359	0.00086
308.15	0.15	0.00037	0.01375	0.00087
308.15	0.15	0.00039	0.01392	0.00087
308.15	0.15	0.00041	0.01408	0.0009
308.15	0.15	0.00042	0.01426	0.00094
308.15	0.15	0.00044	0.01442	0.00095
308.15	0.15	0.00046	0.01457	0.00094
308.15	0.15	0.00048	0.01477	0.00096
308.15	0.15	0.0005	0.01496	0.00098
308.15	0.15	0.00052	0.01516	0.00099
308.15	0.15	0.00054	0.01536	0.00101
308.15	0.15	0.00056	0.01557	0.00102
308.15	0.15	0.00058	0.01577	0.00104
308.15	0.15	0.0006	0.01598	0.00103
308.15	0.15	0.00062	0.01616	0.00104
308.15	0.15	0.00064	0.01637	0.00103
308.15	0.15	0.00067	0.0166	0.00108
308.15	0.15	0.0007	0.01685	0.00106
313.15	0.15	0	0.01101	0.00078
313.15	0.15	0.00036	0.01499	0.00092
313.15	0.15	0.00037	0.01516	0.00091
313.15	0.15	0.00039	0.01535	0.00094
313.15	0.15	0.00041	0.01552	0.00099
313.15	0.15	0.00042	0.0157	0.00103
313.15	0.15	0.00044	0.01588	0.00104
313.15	0.15	0.00046	0.01606	0.00104
313.15	0.15	0.00048	0.01625	0.00105
313.15	0.15	0.0005	0.01646	0.00107
313.15	0.15	0.00052	0.01667	0.00109
313.15	0.15	0.00054	0.01688	0.0011
313.15	0.15	0.00056	0.0171	0.00111
313.15	0.15	0.00058	0.01731	0.00114
313.15	0.15	0.0006	0.01753	0.00113
313.15	0.15	0.00062	0.01774	0.00113
313.15	0.15	0.00064	0.01796	0.00113
313.15	0.15	0.00067	0.01821	0.00123
313.15	0.15	0.0007	0.01848	0.0012
293.15	0.2	0	0.01043	0.00068
293.15	0.2	0.00035	0.01277	0.00081
293.15	0.2	0.00036	0.01288	0.0008
293.15	0.2	0.00038	0.01299	0.00081
293.15	0.2	0.0004	0.01309	0.00082
293.15	0.2	0.00042	0.0132	0.00082
293.15	0.2	0.00044	0.01332	0.00083
293.15	0.2	0.00046	0.01342	0.00084
293.15	0.2	0.00048	0.01355	0.00084
293.15	0.2	0.0005	0.01366	0.00085
293.15	0.2	0.00052	0.01377	0.00086
293.15	0.2	0.00054	0.01389	0.00087
293.15	0.2	0.00056	0.01401	0.00088
293.15	0.2	0.00058	0.01414	0.00088
293.15	0.2	0.0006	0.01427	0.00089
293.15	0.2	0.00063	0.0144	0.00089
293.15	0.2	0.00065	0.01453	0.0009
293.15	0.2	0.00068	0.01466	0.0009
298.15	0.2	0	0.01133	0.00074
298.15	0.2	0.00035	0.014	0.00088
298.15	0.2	0.00036	0.01412	0.00088
298.15	0.2	0.00038	0.01424	0.00088
298.15	0.2	0.0004	0.01437	0.0009
298.15	0.2	0.00042	0.01449	0.00091
298.15	0.2	0.00044	0.01463	0.00092
298.15	0.2	0.00046	0.01475	0.00092
298.15	0.2	0.00048	0.0149	0.00093
298.15	0.2	0.0005	0.01502	0.00094
298.15	0.2	0.00052	0.01514	0.00095
298.15	0.2	0.00054	0.01527	0.00096
298.15	0.2	0.00056	0.01542	0.00097
298.15	0.2	0.00058	0.01557	0.00097
298.15	0.2	0.0006	0.01571	0.00098
298.15	0.2	0.00063	0.01586	0.00098
298.15	0.2	0.00065	0.01602	0.001
298.15	0.2	0.00068	0.01618	0.00101
303.15	0.2	0	0.01237	0.00081
303.15	0.2	0.00035	0.01537	0.00096
303.15	0.2	0.00036	0.01551	0.00096
303.15	0.2	0.00038	0.01564	0.00096
303.15	0.2	0.0004	0.01578	0.00098
303.15	0.2	0.00042	0.01592	0.001
303.15	0.2	0.00044	0.01605	0.00101
303.15	0.2	0.00046	0.0162	0.00102
303.15	0.2	0.00048	0.01636	0.00103
303.15	0.2	0.0005	0.01651	0.00104
303.15	0.2	0.00052	0.01665	0.00104
303.15	0.2	0.00054	0.01681	0.00106
303.15	0.2	0.00056	0.01697	0.00107
303.15	0.2	0.00058	0.01713	0.00107
303.15	0.2	0.0006	0.01729	0.00108
303.15	0.2	0.00063	0.01746	0.00108
303.15	0.2	0.00065	0.01764	0.00112
303.15	0.2	0.00068	0.01781	0.00113
308.15	0.2	0	0.01367	0.0009
308.15	0.2	0.00035	0.01702	0.00107
308.15	0.2	0.00036	0.01718	0.00108
308.15	0.2	0.00038	0.01733	0.00107
308.15	0.2	0.0004	0.0175	0.0011
308.15	0.2	0.00042	0.01766	0.00111
308.15	0.2	0.00044	0.01782	0.00112
308.15	0.2	0.00046	0.01799	0.00113
308.15	0.2	0.00048	0.01816	0.00114
308.15	0.2	0.0005	0.01833	0.00115
308.15	0.2	0.00052	0.01849	0.00116
308.15	0.2	0.00054	0.01867	0.00118
308.15	0.2	0.00056	0.01886	0.00119
308.15	0.2	0.00058	0.01904	0.00119
308.15	0.2	0.0006	0.01922	0.0012
308.15	0.2	0.00063	0.01941	0.00121
308.15	0.2	0.00065	0.01961	0.00123
308.15	0.2	0.00068	0.01981	0.00124
313.15	0.2	0	0.0152	0.001
313.15	0.2	0.00035	0.01886	0.00121
313.15	0.2	0.00036	0.01903	0.00119
313.15	0.2	0.00038	0.01921	0.00121
313.15	0.2	0.0004	0.01938	0.00121
313.15	0.2	0.00042	0.01956	0.00123
313.15	0.2	0.00044	0.01973	0.00124
313.15	0.2	0.00046	0.01993	0.00125
313.15	0.2	0.00048	0.0201	0.0013
313.15	0.2	0.0005	0.0203	0.0013
313.15	0.2	0.00052	0.0205	0.0013
313.15	0.2	0.00054	0.0207	0.0013
313.15	0.2	0.00056	0.0209	0.0013
313.15	0.2	0.00058	0.0211	0.0013
313.15	0.2	0.0006	0.0213	0.0013
313.15	0.2	0.00063	0.0215	0.0013
313.15	0.2	0.00065	0.0217	0.0013
313.15	0.2	0.00068	0.0219	0.0014
293.15	0	0	8.75e-05	0.0003347
293.15	0	0.00033	0.00284	0.00033
293.15	0	0.00036	0.00306	0.00038
293.15	0	0.00039	0.00326	0.00036
293.15	0	0.00041	0.00347	0.00038
293.15	0	0.00044	0.00366	0.00038
293.15	0	0.00046	0.00384	0.00037
293.15	0	0.00049	0.00404	0.00041
293.15	0	0.00052	0.00427	0.0004
293.15	0	0.00054	0.00447	0.00041
293.15	0	0.00057	0.00468	0.00044
293.15	0	0.0006	0.0049	0.00041
293.15	0	0.00062	0.0051	0.00043
293.15	0	0.00066	0.00534	0.00045
293.15	0	0.00069	0.00559	0.00044
293.15	0	0.00071	0.0058	0.00051
298.15	0	0	9.65e-05	0.0003895
298.15	0	0.0003	0.00301	0.00041
298.15	0	0.00033	0.00326	0.00042
298.15	0	0.00036	0.00352	0.00041
298.15	0	0.00039	0.00376	0.00041
298.15	0	0.00041	0.00399	0.00044
298.15	0	0.00044	0.00421	0.00044
298.15	0	0.00046	0.00444	0.00043
298.15	0	0.00049	0.00466	0.00047
298.15	0	0.00052	0.00492	0.00046
298.15	0	0.00054	0.00516	0.00047
298.15	0	0.00057	0.00541	0.00051
298.15	0	0.0006	0.00564	0.00048
298.15	0	0.00062	0.00589	0.00049
298.15	0	0.00066	0.00616	0.00052
298.15	0	0.00069	0.00643	0.00051
298.15	0	0.00071	0.00669	0.00054
298.15	0	0.00075	0.00698	0.00051
298.15	0	0.00078	0.00721	0.00053
303.15	0	0	0.0001062	0.0004205
303.15	0	0.0003	0.00325	0.0004
303.15	0	0.00033	0.00353	0.0004
303.15	0	0.00036	0.00381	0.00045
303.15	0	0.00039	0.00407	0.00045
303.15	0	0.00041	0.00432	0.00048
303.15	0	0.00044	0.00456	0.00048
303.15	0	0.00046	0.00481	0.00047
303.15	0	0.00049	0.00506	0.00051
303.15	0	0.00052	0.00534	0.0005
303.15	0	0.00054	0.00559	0.00051
303.15	0	0.00057	0.00586	0.00055
303.15	0	0.0006	0.00612	0.00052
303.15	0	0.00062	0.00638	0.00053
303.15	0	0.00066	0.00667	0.00055
303.15	0	0.00069	0.00697	0.00056
303.15	0	0.00071	0.00724	0.00059
303.15	0	0.00075	0.00756	0.00061
303.15	0	0.00078	0.00782	0.00061
308.15	0	0	0.0001122	0.000465
308.15	0	0.0003	0.00359	0.00046
308.15	0	0.00033	0.0039	0.00046
308.15	0	0.00036	0.0042	0.0005
308.15	0	0.00039	0.00449	0.00049
308.15	0	0.00041	0.00478	0.00053
308.15	0	0.00044	0.00504	0.00054
308.15	0	0.00046	0.00531	0.00052
308.15	0	0.00049	0.0056	0.00058
308.15	0	0.00052	0.00592	0.00056
308.15	0	0.00054	0.00621	0.00057
308.15	0	0.00057	0.0065	0.00061
308.15	0	0.0006	0.00679	0.00057
308.15	0	0.00062	0.00709	0.00059
308.15	0	0.00066	0.00742	0.00063
308.15	0	0.00069	0.00775	0.00062
308.15	0	0.00071	0.00806	0.00066
308.15	0	0.00075	0.00841	0.00059
308.15	0	0.00078	0.00871	0.00063
313.15	0	0	0.0001164	0.0005085
313.15	0	0.0003	0.00392	0.00051
313.15	0	0.00033	0.00427	0.0005
313.15	0	0.00036	0.0046	0.00055
313.15	0	0.00039	0.00492	0.00054
313.15	0	0.00041	0.00522	0.00057
313.15	0	0.00044	0.0055	0.00058
313.15	0	0.00046	0.0058	0.00056
313.15	0	0.00049	0.0061	0.00061
313.15	0	0.00052	0.00644	0.0006
313.15	0	0.00054	0.00673	0.00061
313.15	0	0.00057	0.00706	0.00066
313.15	0	0.0006	0.00737	0.00062
313.15	0	0.00062	0.00769	0.00064
313.15	0	0.00066	0.00805	0.00068
313.15	0	0.00069	0.00843	0.00067
313.15	0	0.00071	0.00875	0.00072
313.15	0	0.00075	0.00914	0.00067

System: potassium perfluorooctanesulfonate + water + glycyl-l-glutamine; phases: Liquid
Fixed: Pressure, kPa = 101
Fixed: Solvent: Molality, mol/kg of potassium perfluorooctanesulfonate = 0.0005
Property: Mass density, kg/m3 (Liquid); method: Pycnometric method
Molality, mol/kg of glycyl-l-glutamine	Temperature, K	Mass density, kg/m3	uncertainty
0	288.15	999.3	0.5
0.0204	288.15	1000.8	0.5
0.0402	288.15	1002.4	0.5
0.0609	288.15	1004	0.5
0.0812	288.15	1005.6	0.5
0.1011	288.15	1007.2	0.5
0.1211	288.15	1008.7	0.5
0.1407	288.15	1010.3	0.5
0.1607	288.15	1011.9	0.5
0.18	288.15	1013.5	0.5
0.2002	288.15	1015.1	0.5
0	293.15	998.3	0.5
0.0204	293.15	999.8	0.5
0.0402	293.15	1001.4	0.5
0.0609	293.15	1003	1
0.0812	293.15	1004.6	0.5
0.1011	293.15	1006.1	0.5
0.1211	293.15	1007.7	0.5
0.1407	293.15	1009.2	0.5
0.1607	293.15	1010.9	0.5
0.18	293.15	1012.4	0.5
0.2002	293.15	1013.9	0.5
0	298.15	997.2	0.5
0.0204	298.15	998.7	0.5
0.0402	298.15	1000.3	0.5
0.0609	298.15	1001.8	0.5
0.0812	298.15	1003.4	0.5
0.1011	298.15	1005	0.5
0.1211	298.15	1006.5	0.5
0.1407	298.15	1008	0.5
0.1607	298.15	1009.6	0.5
0.18	298.15	1011.1	0.5
0.2002	298.15	1012.7	0.5
0	303.15	995.7	0.5
0.0204	303.15	997.3	0.5
0.0402	303.15	998.8	0.5
0.0609	303.15	1000.3	0.5
0.0812	303.15	1001.9	0.5
0.1011	303.15	1003.4	0.5
0.1211	303.15	1004.9	0.5
0.1407	303.15	1006.5	0.5
0.1607	303.15	1008	0.5
0.18	303.15	1009.5	0.5
0.2002	303.15	1011	0.5

System: potassium perfluorooctanesulfonate + water + glycyl-l-glutamine; phases: Liquid
Fixed: Pressure, kPa = 101
Property: Electrical conductivity, S/m (Liquid); method: Alternating current cell with electrodes
Temperature, K	Solvent: Molality, mol/kg of glycyl-l-glutamine	Molality, mol/kg of potassium perfluorooctanesulfonate	Electrical conductivity, S/m	uncertainty
293.15	0.05	0	0.00342	0.00038
293.15	0.05	0.00036	0.00631	0.00051
293.15	0.05	0.00038	0.00645	0.00051
293.15	0.05	0.00039	0.00658	0.00049
293.15	0.05	0.00041	0.00673	0.00051
293.15	0.05	0.00043	0.00687	0.00051
293.15	0.05	0.00045	0.00701	0.00051
293.15	0.05	0.00046	0.00713	0.00052
293.15	0.05	0.00048	0.00726	0.00053
293.15	0.05	0.0005	0.00739	0.00052
293.15	0.05	0.00052	0.00753	0.00055
293.15	0.05	0.00054	0.00767	0.00056
293.15	0.05	0.00055	0.0078	0.00057
293.15	0.05	0.00057	0.00795	0.00056
293.15	0.05	0.00059	0.00811	0.00057
293.15	0.05	0.00062	0.00827	0.00058
293.15	0.05	0.00064	0.00845	0.00058
293.15	0.05	0.00066	0.00863	0.00063
293.15	0.05	0.00069	0.00881	0.0006
298.15	0.05	0	0.00366	0.00042
298.15	0.05	0.00036	0.00693	0.00056
298.15	0.05	0.00038	0.00709	0.00056
298.15	0.05	0.00039	0.00725	0.00057
298.15	0.05	0.00041	0.00741	0.00057
298.15	0.05	0.00043	0.00756	0.00057
298.15	0.05	0.00045	0.00771	0.00057
298.15	0.05	0.00046	0.00785	0.00057
298.15	0.05	0.00048	0.00801	0.00058
298.15	0.05	0.0005	0.00814	0.00058
298.15	0.05	0.00052	0.0083	0.00061
298.15	0.05	0.00054	0.00846	0.00063
298.15	0.05	0.00055	0.00862	0.00064
298.15	0.05	0.00057	0.00879	0.00063
298.15	0.05	0.00059	0.00897	0.00063
298.15	0.05	0.00062	0.00916	0.00064
298.15	0.05	0.00064	0.00935	0.00064
298.15	0.05	0.00066	0.00954	0.0007
298.15	0.05	0.00069	0.00975	0.00067
303.15	0.05	0	0.00392	0.00047
303.15	0.05	0.00036	0.00757	0.00062
303.15	0.05	0.00038	0.00775	0.00062
303.15	0.05	0.00039	0.00793	0.00062
303.15	0.05	0.00041	0.00811	0.00063
303.15	0.05	0.00043	0.00828	0.00062
303.15	0.05	0.00045	0.00845	0.00063
303.15	0.05	0.00046	0.00861	0.00064
303.15	0.05	0.00048	0.00877	0.00065
303.15	0.05	0.0005	0.00894	0.00064
303.15	0.05	0.00052	0.00912	0.00067
303.15	0.05	0.00054	0.00929	0.00069
303.15	0.05	0.00055	0.00947	0.0007
303.15	0.05	0.00057	0.00965	0.00069
303.15	0.05	0.00059	0.00985	0.00069
303.15	0.05	0.00062	0.01007	0.00071
303.15	0.05	0.00064	0.01029	0.00071
303.15	0.05	0.00066	0.01051	0.00078
303.15	0.05	0.00069	0.01075	0.00075
308.15	0.05	0	0.00428	0.00051
308.15	0.05	0.00036	0.00827	0.00068
308.15	0.05	0.00038	0.00847	0.00069
308.15	0.05	0.00039	0.00867	0.00068
308.15	0.05	0.00041	0.00887	0.00069
308.15	0.05	0.00043	0.00906	0.00069
308.15	0.05	0.00045	0.00924	0.00069
308.15	0.05	0.00046	0.00943	0.0007
308.15	0.05	0.00048	0.00961	0.00071
308.15	0.05	0.0005	0.00979	0.00069
308.15	0.05	0.00052	0.00998	0.00074
308.15	0.05	0.00054	0.01017	0.00076
308.15	0.05	0.00055	0.01037	0.00077
308.15	0.05	0.00057	0.01058	0.00076
308.15	0.05	0.00059	0.0108	0.00076
308.15	0.05	0.00062	0.01104	0.00078
308.15	0.05	0.00064	0.01128	0.00078
308.15	0.05	0.00066	0.01152	0.00086
308.15	0.05	0.00069	0.01177	0.00082
313.15	0.05	0	0.00464	0.00056
313.15	0.05	0.00036	0.00902	0.00076
313.15	0.05	0.00038	0.00924	0.00076
313.15	0.05	0.00039	0.00945	0.00072
313.15	0.05	0.00041	0.00968	0.00075
313.15	0.05	0.00043	0.00989	0.00075
313.15	0.05	0.00045	0.01009	0.00075
313.15	0.05	0.00046	0.0103	0.00077
313.15	0.05	0.00048	0.01049	0.00078
313.15	0.05	0.0005	0.01069	0.00076
313.15	0.05	0.00052	0.01091	0.00081
313.15	0.05	0.00054	0.01112	0.00083
313.15	0.05	0.00055	0.01134	0.00084
313.15	0.05	0.00057	0.01157	0.00084
313.15	0.05	0.00059	0.01181	0.00084
313.15	0.05	0.00062	0.01207	0.00086
313.15	0.05	0.00064	0.01234	0.00086
313.15	0.05	0.00066	0.01261	0.00093
313.15	0.05	0.00069	0.01289	0.00089
293.15	0.1	0	0.00556	0.00046
293.15	0.1	0.00036	0.00838	0.00059
293.15	0.1	0.00037	0.00851	0.0006
293.15	0.1	0.00039	0.00864	0.00061
293.15	0.1	0.00041	0.00878	0.0006
293.15	0.1	0.00043	0.00893	0.00061
293.15	0.1	0.00045	0.00908	0.00063
293.15	0.1	0.00047	0.00924	0.00064
293.15	0.1	0.00049	0.0094	0.00065
293.15	0.1	0.00051	0.00955	0.00065
293.15	0.1	0.00053	0.00971	0.00066
293.15	0.1	0.00055	0.00986	0.00066
293.15	0.1	0.00057	0.01001	0.00066
293.15	0.1	0.0006	0.01018	0.00067
293.15	0.1	0.00062	0.01033	0.00069
293.15	0.1	0.00064	0.0105	0.00069
293.15	0.1	0.00066	0.01068	0.00071
293.15	0.1	0.00069	0.01084	0.0007
298.15	0.1	0	0.006	0.0005
298.15	0.1	0.00036	0.00918	0.00066
298.15	0.1	0.00037	0.00934	0.00066
298.15	0.1	0.00039	0.00948	0.00066
298.15	0.1	0.00041	0.00963	0.00066
298.15	0.1	0.00043	0.00979	0.00067
298.15	0.1	0.00045	0.00996	0.00069
298.15	0.1	0.00047	0.01013	0.0007
298.15	0.1	0.00049	0.01031	0.00071
298.15	0.1	0.00051	0.01049	0.00073
298.15	0.1	0.00053	0.01067	0.00073
298.15	0.1	0.00055	0.01084	0.00072
298.15	0.1	0.00057	0.01101	0.00073
298.15	0.1	0.0006	0.01119	0.00074
298.15	0.1	0.00062	0.01137	0.00076
298.15	0.1	0.00064	0.01156	0.00077
298.15	0.1	0.00066	0.01175	0.00078
298.15	0.1	0.00069	0.01195	0.00078
303.15	0.1	0	0.00649	0.00055
303.15	0.1	0.00036	0.00999	0.0007
303.15	0.1	0.00037	0.01017	0.00069
303.15	0.1	0.00039	0.01033	0.0007
303.15	0.1	0.00041	0.01049	0.00072
303.15	0.1	0.00043	0.01067	0.00073
303.15	0.1	0.00045	0.01086	0.00075
303.15	0.1	0.00047	0.01104	0.00077
303.15	0.1	0.00049	0.01123	0.00078
303.15	0.1	0.00051	0.01144	0.0008
303.15	0.1	0.00053	0.01164	0.00081
303.15	0.1	0.00055	0.01183	0.00079
303.15	0.1	0.00057	0.01202	0.0008
303.15	0.1	0.0006	0.01221	0.00081
303.15	0.1	0.00062	0.01241	0.00083
303.15	0.1	0.00064	0.01262	0.00084
303.15	0.1	0.00066	0.01284	0.0009
303.15	0.1	0.00069	0.01306	0.0009
308.15	0.1	0	0.00708	0.00061
308.15	0.1	0.00036	0.01103	0.00078
308.15	0.1	0.00037	0.01123	0.00078
308.15	0.1	0.00039	0.01141	0.00079
308.15	0.1	0.00041	0.0116	0.0008
308.15	0.1	0.00043	0.01181	0.00082
308.15	0.1	0.00045	0.01203	0.00084
308.15	0.1	0.00047	0.01224	0.00086
308.15	0.1	0.00049	0.01246	0.00087
308.15	0.1	0.00051	0.01269	0.00089
308.15	0.1	0.00053	0.01291	0.0009
308.15	0.1	0.00055	0.01313	0.00089
308.15	0.1	0.00057	0.01334	0.00089
308.15	0.1	0.0006	0.01358	0.00091
308.15	0.1	0.00062	0.0138	0.00093
308.15	0.1	0.00064	0.01404	0.00095
308.15	0.1	0.00066	0.01431	0.00098
308.15	0.1	0.00069	0.01456	0.00098
313.15	0.1	0	0.00793	0.00068
313.15	0.1	0.00036	0.01226	0.00089
313.15	0.1	0.00037	0.01249	0.0009
313.15	0.1	0.00039	0.01268	0.00093
313.15	0.1	0.00041	0.01289	0.00089
313.15	0.1	0.00043	0.01313	0.00091
313.15	0.1	0.00045	0.01336	0.00094
313.15	0.1	0.00047	0.0136	0.00095
313.15	0.1	0.00049	0.01386	0.00097
313.15	0.1	0.00051	0.01411	0.00099
313.15	0.1	0.00053	0.01435	0.00099
313.15	0.1	0.00055	0.0146	0.00099
313.15	0.1	0.00057	0.01483	0.00099
313.15	0.1	0.0006	0.01509	0.00101
313.15	0.1	0.00062	0.01533	0.00103
313.15	0.1	0.00064	0.0156	0.00105
313.15	0.1	0.00066	0.01587	0.00104
313.15	0.1	0.00069	0.01616	0.00104
293.15	0.15	0	0.00768	0.00054
293.15	0.15	0.00035	0.01039	0.00063
293.15	0.15	0.00037	0.01052	0.00064
293.15	0.15	0.00039	0.01067	0.00068
293.15	0.15	0.0004	0.01079	0.0007
293.15	0.15	0.00042	0.0109	0.00071
293.15	0.15	0.00044	0.01102	0.0007
293.15	0.15	0.00045	0.01114	0.00072
293.15	0.15	0.00047	0.01127	0.00073
293.15	0.15	0.00049	0.01139	0.00072
293.15	0.15	0.00051	0.01153	0.00074
293.15	0.15	0.00053	0.01166	0.00075
293.15	0.15	0.00054	0.01179	0.00077
293.15	0.15	0.00056	0.01192	0.00077
293.15	0.15	0.00058	0.01206	0.00077
293.15	0.15	0.0006	0.01221	0.00079
293.15	0.15	0.00062	0.01236	0.00079
293.15	0.15	0.00064	0.01251	0.00088
293.15	0.15	0.00067	0.01267	0.00085
298.15	0.15	0	0.00832	0.0006
298.15	0.15	0.00035	0.01136	0.00074
298.15	0.15	0.00037	0.01152	0.00071
298.15	0.15	0.00039	0.01167	0.00075
298.15	0.15	0.0004	0.0118	0.00077
298.15	0.15	0.00042	0.01192	0.00078
298.15	0.15	0.00044	0.01205	0.00077
298.15	0.15	0.00045	0.01219	0.00079
298.15	0.15	0.00047	0.01233	0.0008
298.15	0.15	0.00049	0.01247	0.00079
298.15	0.15	0.00051	0.01262	0.00081
298.15	0.15	0.00053	0.01277	0.00082
298.15	0.15	0.00054	0.01291	0.00085
298.15	0.15	0.00056	0.01306	0.00085
298.15	0.15	0.00058	0.01322	0.00085
298.15	0.15	0.0006	0.01339	0.00087
298.15	0.15	0.00062	0.01355	0.00087
298.15	0.15	0.00064	0.01372	0.00093
298.15	0.15	0.00067	0.01391	0.00091
303.15	0.15	0	0.00902	0.00065
303.15	0.15	0.00035	0.0124	0.00078
303.15	0.15	0.00037	0.01258	0.00078
303.15	0.15	0.00039	0.01275	0.00083
303.15	0.15	0.0004	0.0129	0.00085
303.15	0.15	0.00042	0.01303	0.00086
303.15	0.15	0.00044	0.01318	0.00085
303.15	0.15	0.00045	0.01333	0.00086
303.15	0.15	0.00047	0.01348	0.00088
303.15	0.15	0.00049	0.01364	0.00087
303.15	0.15	0.00051	0.01381	0.00089
303.15	0.15	0.00053	0.01398	0.00091
303.15	0.15	0.00054	0.01413	0.00092
303.15	0.15	0.00056	0.01429	0.00094
303.15	0.15	0.00058	0.01448	0.00093
303.15	0.15	0.0006	0.01465	0.00095
303.15	0.15	0.00062	0.01484	0.00095
303.15	0.15	0.00064	0.01503	0.00105
303.15	0.15	0.00067	0.01523	0.00102
308.15	0.15	0	0.00999	0.00072
308.15	0.15	0.00035	0.01378	0.00089
308.15	0.15	0.00037	0.01397	0.00087
308.15	0.15	0.00039	0.01417	0.00092
308.15	0.15	0.0004	0.01434	0.00095
308.15	0.15	0.00042	0.0145	0.00096
308.15	0.15	0.00044	0.01466	0.00095
308.15	0.15	0.00045	0.01484	0.00097
308.15	0.15	0.00047	0.01502	0.00098
308.15	0.15	0.00049	0.01521	0.00098
308.15	0.15	0.00051	0.0154	0.001
308.15	0.15	0.00053	0.01558	0.00101
308.15	0.15	0.00054	0.01576	0.00104
308.15	0.15	0.00056	0.01594	0.00105
308.15	0.15	0.00058	0.01615	0.00104
308.15	0.15	0.0006	0.01636	0.00107
308.15	0.15	0.00062	0.01656	0.00106
308.15	0.15	0.00064	0.01678	0.00113
308.15	0.15	0.00067	0.01702	0.00111
313.15	0.15	0	0.01122	0.0008
313.15	0.15	0.00035	0.01536	0.00095
313.15	0.15	0.00037	0.01557	0.00095
313.15	0.15	0.00039	0.01579	0.00102
313.15	0.15	0.0004	0.01598	0.00105
313.15	0.15	0.00042	0.01615	0.00106
313.15	0.15	0.00044	0.01633	0.00105
313.15	0.15	0.00045	0.01651	0.00107
313.15	0.15	0.00047	0.01671	0.00109
313.15	0.15	0.00049	0.01691	0.00108
313.15	0.15	0.00051	0.01713	0.00111
313.15	0.15	0.00053	0.01732	0.00112
313.15	0.15	0.00054	0.01752	0.00115
313.15	0.15	0.00056	0.01773	0.00116
313.15	0.15	0.00058	0.01796	0.00116
313.15	0.15	0.0006	0.01818	0.00118
313.15	0.15	0.00062	0.01841	0.00117
313.15	0.15	0.00064	0.01864	0.00132
313.15	0.15	0.00067	0.01889	0.00128
293.15	0.2	0	0.01074	0.0007
293.15	0.2	0.00036	0.01327	0.00084
293.15	0.2	0.00037	0.01333	0.00084
293.15	0.2	0.00038	0.01343	0.00084
293.15	0.2	0.0004	0.01354	0.00085
293.15	0.2	0.00042	0.01365	0.00085
293.15	0.2	0.00044	0.01374	0.00085
293.15	0.2	0.00046	0.01386	0.00086
293.15	0.2	0.00048	0.01399	0.00087
293.15	0.2	0.0005	0.0141	0.00088
293.15	0.2	0.00052	0.01423	0.00089
293.15	0.2	0.00054	0.01435	0.0009
293.15	0.2	0.00056	0.01449	0.00091
293.15	0.2	0.00058	0.01461	0.00092
293.15	0.2	0.0006	0.01476	0.00092
293.15	0.2	0.00062	0.01489	0.00093
293.15	0.2	0.00065	0.01503	0.00093
293.15	0.2	0.00067	0.01518	0.00094
298.15	0.2	0	0.01156	0.00076
298.15	0.2	0.00036	0.01438	0.0009
298.15	0.2	0.00037	0.01444	0.0009
298.15	0.2	0.00038	0.01457	0.0009
298.15	0.2	0.0004	0.01468	0.00092
298.15	0.2	0.00042	0.01481	0.00092
298.15	0.2	0.00044	0.01492	0.00093
298.15	0.2	0.00046	0.01505	0.00094
298.15	0.2	0.00048	0.01518	0.00095
298.15	0.2	0.0005	0.01532	0.00096
298.15	0.2	0.00052	0.01546	0.00097
298.15	0.2	0.00054	0.0156	0.00098
298.15	0.2	0.00056	0.01575	0.00099
298.15	0.2	0.00058	0.01589	0.001
298.15	0.2	0.0006	0.01604	0.001
298.15	0.2	0.00062	0.01618	0.001
298.15	0.2	0.00065	0.01633	0.00102
298.15	0.2	0.00067	0.01648	0.00104
303.15	0.2	0	0.01246	0.00082
303.15	0.2	0.00036	0.01565	0.00096
303.15	0.2	0.00037	0.01572	0.00096
303.15	0.2	0.00038	0.01585	0.00096
303.15	0.2	0.0004	0.01599	0.00101
303.15	0.2	0.00042	0.01613	0.00101
303.15	0.2	0.00044	0.01626	0.00102
303.15	0.2	0.00046	0.01641	0.00103
303.15	0.2	0.00048	0.01655	0.00104
303.15	0.2	0.0005	0.01671	0.00105
303.15	0.2	0.00052	0.01686	0.00106
303.15	0.2	0.00054	0.01704	0.00107
303.15	0.2	0.00056	0.0172	0.00109
303.15	0.2	0.00058	0.01737	0.00109
303.15	0.2	0.0006	0.01753	0.00109
303.15	0.2	0.00062	0.0177	0.0011
303.15	0.2	0.00065	0.01787	0.00115
303.15	0.2	0.00067	0.01805	0.00116
308.15	0.2	0	0.01386	0.00091
308.15	0.2	0.00036	0.0174	0.00106
308.15	0.2	0.00037	0.01748	0.00107
308.15	0.2	0.00038	0.01762	0.00107
308.15	0.2	0.0004	0.01777	0.00112
308.15	0.2	0.00042	0.01792	0.00112
308.15	0.2	0.00044	0.01809	0.00113
308.15	0.2	0.00046	0.01824	0.00114
308.15	0.2	0.00048	0.01841	0.00116
308.15	0.2	0.0005	0.01858	0.00117
308.15	0.2	0.00052	0.01877	0.00118
308.15	0.2	0.00054	0.01895	0.0012
308.15	0.2	0.00056	0.01913	0.00121
308.15	0.2	0.00058	0.01932	0.00122
308.15	0.2	0.0006	0.01951	0.00122
308.15	0.2	0.00062	0.0197	0.00123
308.15	0.2	0.00065	0.0199	0.00128
308.15	0.2	0.00067	0.0201	0.0013
313.15	0.2	0	0.01577	0.00104
313.15	0.2	0.00036	0.01968	0.00125
313.15	0.2	0.00037	0.01977	0.00126
313.15	0.2	0.00038	0.01994	0.00125
313.15	0.2	0.0004	0.0201	0.0013
313.15	0.2	0.00042	0.0203	0.0013
313.15	0.2	0.00044	0.0204	0.0013
313.15	0.2	0.00046	0.0206	0.0013
313.15	0.2	0.00048	0.0208	0.0013
313.15	0.2	0.0005	0.021	0.0013
313.15	0.2	0.00052	0.0212	0.0013
313.15	0.2	0.00054	0.0214	0.0013
313.15	0.2	0.00056	0.0216	0.0014
313.15	0.2	0.00058	0.0218	0.0014
313.15	0.2	0.0006	0.022	0.0014
313.15	0.2	0.00062	0.0222	0.0014
313.15	0.2	0.00065	0.0225	0.0014
313.15	0.2	0.00067	0.0227	0.0014
293.15	0	0	8.75e-05	0.0003347
293.15	0	0.00033	0.00284	0.00033
293.15	0	0.00036	0.00306	0.00038
293.15	0	0.00039	0.00326	0.00036
293.15	0	0.00041	0.00347	0.00038
293.15	0	0.00044	0.00366	0.00038
293.15	0	0.00046	0.00384	0.00037
293.15	0	0.00049	0.00404	0.00041
293.15	0	0.00052	0.00427	0.0004
293.15	0	0.00054	0.00447	0.00041
293.15	0	0.00057	0.00468	0.00044
293.15	0	0.0006	0.0049	0.00041
293.15	0	0.00062	0.0051	0.00043
293.15	0	0.00066	0.00534	0.00045
293.15	0	0.00069	0.00559	0.00044
293.15	0	0.00071	0.0058	0.00051
298.15	0	0	9.65e-05	0.0003895
298.15	0	0.0003	0.00301	0.00041
298.15	0	0.00033	0.00326	0.00042
298.15	0	0.00036	0.00352	0.00041
298.15	0	0.00039	0.00376	0.00041
298.15	0	0.00041	0.00399	0.00044
298.15	0	0.00044	0.00421	0.00044
298.15	0	0.00046	0.00444	0.00043
298.15	0	0.00049	0.00466	0.00047
298.15	0	0.00052	0.00492	0.00046
298.15	0	0.00054	0.00516	0.00047
298.15	0	0.00057	0.00541	0.00051
298.15	0	0.0006	0.00564	0.00048
298.15	0	0.00062	0.00589	0.00049
298.15	0	0.00066	0.00616	0.00052
298.15	0	0.00069	0.00643	0.00051
298.15	0	0.00071	0.00669	0.00054
298.15	0	0.00075	0.00698	0.00051
298.15	0	0.00078	0.00721	0.00053
303.15	0	0	0.0001062	0.0004205
303.15	0	0.0003	0.00325	0.0004
303.15	0	0.00033	0.00353	0.0004
303.15	0	0.00036	0.00381	0.00045
303.15	0	0.00039	0.00407	0.00045
303.15	0	0.00041	0.00432	0.00048
303.15	0	0.00044	0.00456	0.00048
303.15	0	0.00046	0.00481	0.00047
303.15	0	0.00049	0.00506	0.00051
303.15	0	0.00052	0.00534	0.0005
303.15	0	0.00054	0.00559	0.00051
303.15	0	0.00057	0.00586	0.00055
303.15	0	0.0006	0.00612	0.00052
303.15	0	0.00062	0.00638	0.00053
303.15	0	0.00066	0.00667	0.00055
303.15	0	0.00069	0.00697	0.00056
303.15	0	0.00071	0.00724	0.00059
303.15	0	0.00075	0.00756	0.00061
303.15	0	0.00078	0.00782	0.00061
308.15	0	0	0.0001122	0.000465
308.15	0	0.0003	0.00359	0.00046
308.15	0	0.00033	0.0039	0.00046
308.15	0	0.00036	0.0042	0.0005
308.15	0	0.00039	0.00449	0.00049
308.15	0	0.00041	0.00478	0.00053
308.15	0	0.00044	0.00504	0.00054
308.15	0	0.00046	0.00531	0.00052
308.15	0	0.00049	0.0056	0.00058
308.15	0	0.00052	0.00592	0.00056
308.15	0	0.00054	0.00621	0.00057
308.15	0	0.00057	0.0065	0.00061
308.15	0	0.0006	0.00679	0.00057
308.15	0	0.00062	0.00709	0.00059
308.15	0	0.00066	0.00742	0.00063
308.15	0	0.00069	0.00775	0.00062
308.15	0	0.00071	0.00806	0.00066
308.15	0	0.00075	0.00841	0.00059
308.15	0	0.00078	0.00871	0.00063
313.15	0	0	0.0001164	0.0005085
313.15	0	0.0003	0.00392	0.00051
313.15	0	0.00033	0.00427	0.0005
313.15	0	0.00036	0.0046	0.00055
313.15	0	0.00039	0.00492	0.00054
313.15	0	0.00041	0.00522	0.00057
313.15	0	0.00044	0.0055	0.00058
313.15	0	0.00046	0.0058	0.00056
313.15	0	0.00049	0.0061	0.00061
313.15	0	0.00052	0.00644	0.0006
313.15	0	0.00054	0.00673	0.00061
313.15	0	0.00057	0.00706	0.00066
313.15	0	0.0006	0.00737	0.00062
313.15	0	0.00062	0.00769	0.00064
313.15	0	0.00066	0.00805	0.00068
313.15	0	0.00069	0.00843	0.00067
313.15	0	0.00071	0.00875	0.00072
313.15	0	0.00075	0.00914	0.00067

System: potassium perfluorooctanesulfonate + water + L-alanyl-L-glutamine; phases: Liquid
Fixed: Pressure, kPa = 101
Fixed: Solvent: Molality, mol/kg of potassium perfluorooctanesulfonate = 0.0005
Property: Mass density, kg/m3 (Liquid); method: Pycnometric method
Molality, mol/kg of L-alanyl-L-glutamine	Temperature, K	Mass density, kg/m3	uncertainty
0	288.15	999.3	0.5
0.0204	288.15	1000.8	0.5
0.0403	288.15	1002.2	0.5
0.0605	288.15	1003.7	0.5
0.0807	288.15	1005.3	0.5
0.1009	288.15	1006.8	0.5
0.1208	288.15	1008.4	0.5
0.1402	288.15	1009.8	0.5
0.1601	288.15	1011.4	0.5
0.18	288.15	1012.9	0.5
0.1998	288.15	1014.4	0.5
0	293.15	998.3	0.5
0.0204	293.15	999.8	0.5
0.0403	293.15	1001.2	0.5
0.0605	293.15	1002.7	0.5
0.0807	293.15	1004.3	0.5
0.1009	293.15	1005.7	0.5
0.1208	293.15	1007.2	0.5
0.1402	293.15	1008.8	0.5
0.1601	293.15	1010.4	0.5
0.18	293.15	1011.8	0.5
0.1998	293.15	1013.4	0.5
0	298.15	997.1	0.5
0.0204	298.15	998.6	0.5
0.0403	298.15	1000	0.5
0.0605	298.15	1001.5	0.5
0.0807	298.15	1003	0.5
0.1009	298.15	1004.5	0.5
0.1208	298.15	1005.9	0.5
0.1402	298.15	1007.3	0.5
0.1601	298.15	1008.8	0.5
0.18	298.15	1010.3	0.5
0.1998	298.15	1011.7	0.5
0	303.15	995.7	0.5
0.0204	303.15	997.2	0.5
0.0403	303.15	998.6	0.5
0.0605	303.15	1000	0.5
0.0807	303.15	1001.5	0.5
0.1009	303.15	1003	1
0.1208	303.15	1004.5	0.5
0.1402	303.15	1005.9	0.5
0.1601	303.15	1007.4	0.5
0.18	303.15	1008.8	0.5
0.1998	303.15	1010.3	0.5

System: potassium perfluorooctanesulfonate + water + L-alanyl-L-glutamine; phases: Liquid
Fixed: Pressure, kPa = 101
Property: Electrical conductivity, S/m (Liquid); method: Alternating current cell with electrodes
Temperature, K	Solvent: Molality, mol/kg of L-alanyl-L-glutamine	Molality, mol/kg of potassium perfluorooctanesulfonate	Electrical conductivity, S/m	uncertainty
293.15	0.05	0	0.0034	0.00037
293.15	0.05	0.00036	0.00613	0.00046
293.15	0.05	0.00037	0.00622	0.00045
293.15	0.05	0.00039	0.00635	0.00047
293.15	0.05	0.00041	0.00647	0.00047
293.15	0.05	0.00042	0.00658	0.00048
293.15	0.05	0.00044	0.0067	0.00049
293.15	0.05	0.00046	0.00682	0.00049
293.15	0.05	0.00048	0.00696	0.00049
293.15	0.05	0.0005	0.0071	0.00051
293.15	0.05	0.00052	0.00723	0.00051
293.15	0.05	0.00054	0.00737	0.00052
293.15	0.05	0.00056	0.0075	0.00053
293.15	0.05	0.00058	0.00763	0.00053
293.15	0.05	0.0006	0.00777	0.00054
293.15	0.05	0.00062	0.00791	0.00056
293.15	0.05	0.00064	0.00805	0.00055
293.15	0.05	0.00066	0.00821	0.00058
293.15	0.05	0.00069	0.00836	0.00056
298.15	0.05	0	0.00364	0.0004
298.15	0.05	0.00036	0.00668	0.00048
298.15	0.05	0.00037	0.00678	0.00048
298.15	0.05	0.00039	0.00691	0.0005
298.15	0.05	0.00041	0.00705	0.00051
298.15	0.05	0.00042	0.00716	0.00052
298.15	0.05	0.00044	0.0073	0.00053
298.15	0.05	0.00046	0.00743	0.00053
298.15	0.05	0.00048	0.00759	0.00054
298.15	0.05	0.0005	0.00773	0.00056
298.15	0.05	0.00052	0.00789	0.00056
298.15	0.05	0.00054	0.00804	0.00057
298.15	0.05	0.00056	0.00819	0.00058
298.15	0.05	0.00058	0.00834	0.00059
298.15	0.05	0.0006	0.0085	0.00059
298.15	0.05	0.00062	0.00865	0.00061
298.15	0.05	0.00064	0.0088	0.0006
298.15	0.05	0.00066	0.00898	0.00066
298.15	0.05	0.00069	0.00915	0.00064
303.15	0.05	0	0.00391	0.00044
303.15	0.05	0.00036	0.00733	0.00054
303.15	0.05	0.00037	0.00743	0.00053
303.15	0.05	0.00039	0.00759	0.00056
303.15	0.05	0.00041	0.00774	0.00057
303.15	0.05	0.00042	0.00787	0.00058
303.15	0.05	0.00044	0.00803	0.00059
303.15	0.05	0.00046	0.00819	0.00059
303.15	0.05	0.00048	0.00835	0.0006
303.15	0.05	0.0005	0.00852	0.00061
303.15	0.05	0.00052	0.00869	0.00062
303.15	0.05	0.00054	0.00886	0.00063
303.15	0.05	0.00056	0.00903	0.00064
303.15	0.05	0.00058	0.0092	0.00065
303.15	0.05	0.0006	0.00937	0.00066
303.15	0.05	0.00062	0.00955	0.00068
303.15	0.05	0.00064	0.00973	0.00067
303.15	0.05	0.00066	0.00992	0.00073
303.15	0.05	0.00069	0.01012	0.00071
308.15	0.05	0	0.00427	0.00049
308.15	0.05	0.00036	0.00807	0.00062
308.15	0.05	0.00037	0.0082	0.00062
308.15	0.05	0.00039	0.00838	0.00064
308.15	0.05	0.00041	0.00856	0.00064
308.15	0.05	0.00042	0.00871	0.00065
308.15	0.05	0.00044	0.00888	0.00066
308.15	0.05	0.00046	0.00906	0.00066
308.15	0.05	0.00048	0.00925	0.00067
308.15	0.05	0.0005	0.00944	0.00068
308.15	0.05	0.00052	0.00963	0.00069
308.15	0.05	0.00054	0.00982	0.0007
308.15	0.05	0.00056	0.01001	0.00071
308.15	0.05	0.00058	0.0102	0.00073
308.15	0.05	0.0006	0.0104	0.00074
308.15	0.05	0.00062	0.01061	0.00076
308.15	0.05	0.00064	0.01082	0.00076
308.15	0.05	0.00066	0.01104	0.00079
308.15	0.05	0.00069	0.01128	0.00077
313.15	0.05	0	0.00463	0.00054
313.15	0.05	0.00036	0.00884	0.00068
313.15	0.05	0.00037	0.00899	0.00067
313.15	0.05	0.00039	0.00919	0.00071
313.15	0.05	0.00041	0.00938	0.00071
313.15	0.05	0.00042	0.00956	0.00072
313.15	0.05	0.00044	0.00975	0.00073
313.15	0.05	0.00046	0.00996	0.00073
313.15	0.05	0.00048	0.01018	0.00074
313.15	0.05	0.0005	0.01039	0.00076
313.15	0.05	0.00052	0.0106	0.00077
313.15	0.05	0.00054	0.01083	0.00077
313.15	0.05	0.00056	0.01103	0.00079
313.15	0.05	0.00058	0.01123	0.0008
313.15	0.05	0.0006	0.01145	0.00082
313.15	0.05	0.00062	0.01168	0.00084
313.15	0.05	0.00064	0.01192	0.00084
313.15	0.05	0.00066	0.01216	0.00087
313.15	0.05	0.00069	0.01243	0.00085
293.15	0.1	0	0.00555	0.00045
293.15	0.1	0.00036	0.00823	0.00056
293.15	0.1	0.00038	0.00834	0.00057
293.15	0.1	0.0004	0.00844	0.00057
293.15	0.1	0.00041	0.00853	0.00058
293.15	0.1	0.00043	0.00863	0.00058
293.15	0.1	0.00044	0.00875	0.0006
293.15	0.1	0.00046	0.00888	0.00059
293.15	0.1	0.00048	0.009	0.00059
293.15	0.1	0.00051	0.00915	0.0006
293.15	0.1	0.00053	0.00929	0.00061
293.15	0.1	0.00055	0.00944	0.00063
293.15	0.1	0.00058	0.00959	0.00064
293.15	0.1	0.0006	0.00975	0.00064
293.15	0.1	0.00062	0.00991	0.00066
293.15	0.1	0.00065	0.01006	0.00065
293.15	0.1	0.00067	0.01021	0.00066
293.15	0.1	0.0007	0.01037	0.00067
293.15	0.1	0.00072	0.01053	0.00069
298.15	0.1	0	0.00599	0.00049
298.15	0.1	0.00036	0.00895	0.00058
298.15	0.1	0.00038	0.00906	0.0006
298.15	0.1	0.0004	0.00918	0.00062
298.15	0.1	0.00041	0.00926	0.00062
298.15	0.1	0.00043	0.00939	0.00064
298.15	0.1	0.00044	0.00952	0.00064
298.15	0.1	0.00046	0.00966	0.00064
298.15	0.1	0.00048	0.00979	0.00065
298.15	0.1	0.00051	0.00995	0.00066
298.15	0.1	0.00053	0.01011	0.00066
298.15	0.1	0.00055	0.01028	0.00068
298.15	0.1	0.00058	0.01045	0.0007
298.15	0.1	0.0006	0.01061	0.00069
298.15	0.1	0.00062	0.01079	0.00071
298.15	0.1	0.00065	0.01096	0.00071
298.15	0.1	0.00067	0.01114	0.00072
298.15	0.1	0.0007	0.0113	0.00077
298.15	0.1	0.00072	0.01146	0.00074
303.15	0.1	0	0.00648	0.00054
303.15	0.1	0.00036	0.00982	0.00066
303.15	0.1	0.00038	0.00995	0.00068
303.15	0.1	0.0004	0.01009	0.00069
303.15	0.1	0.00041	0.01019	0.00069
303.15	0.1	0.00043	0.01032	0.00071
303.15	0.1	0.00044	0.01046	0.00072
303.15	0.1	0.00046	0.01063	0.00071
303.15	0.1	0.00048	0.01078	0.00072
303.15	0.1	0.00051	0.01096	0.00073
303.15	0.1	0.00053	0.01114	0.00073
303.15	0.1	0.00055	0.01133	0.00076
303.15	0.1	0.00058	0.01151	0.00077
303.15	0.1	0.0006	0.01171	0.00077
303.15	0.1	0.00062	0.01192	0.0008
303.15	0.1	0.00065	0.01211	0.0008
303.15	0.1	0.00067	0.01231	0.00081
303.15	0.1	0.0007	0.01251	0.00083
303.15	0.1	0.00072	0.0127	0.00082
308.15	0.1	0	0.00707	0.00059
308.15	0.1	0.00036	0.01076	0.0007
308.15	0.1	0.00038	0.01091	0.00073
308.15	0.1	0.0004	0.01106	0.00076
308.15	0.1	0.00041	0.01118	0.00076
308.15	0.1	0.00043	0.01133	0.00078
308.15	0.1	0.00044	0.01149	0.00078
308.15	0.1	0.00046	0.01167	0.00078
308.15	0.1	0.00048	0.01184	0.00079
308.15	0.1	0.00051	0.01204	0.00081
308.15	0.1	0.00053	0.01224	0.00081
308.15	0.1	0.00055	0.01246	0.00084
308.15	0.1	0.00058	0.01267	0.00085
308.15	0.1	0.0006	0.01289	0.00085
308.15	0.1	0.00062	0.0131	0.00088
308.15	0.1	0.00065	0.01334	0.00088
308.15	0.1	0.00067	0.01356	0.00089
308.15	0.1	0.0007	0.01379	0.00097
308.15	0.1	0.00072	0.014	0.00093
313.15	0.1	0	0.00792	0.00066
313.15	0.1	0.00036	0.01209	0.00084
313.15	0.1	0.00038	0.01225	0.00085
313.15	0.1	0.0004	0.01241	0.00085
313.15	0.1	0.00041	0.01254	0.00086
313.15	0.1	0.00043	0.01271	0.00087
313.15	0.1	0.00044	0.01288	0.00089
313.15	0.1	0.00046	0.01309	0.00088
313.15	0.1	0.00048	0.01329	0.00089
313.15	0.1	0.00051	0.01351	0.0009
313.15	0.1	0.00053	0.01376	0.00091
313.15	0.1	0.00055	0.01399	0.00095
313.15	0.1	0.00058	0.01425	0.00096
313.15	0.1	0.0006	0.01448	0.00096
313.15	0.1	0.00062	0.01475	0.00099
313.15	0.1	0.00065	0.015	0.00099
313.15	0.1	0.00067	0.01526	0.001
313.15	0.1	0.0007	0.01551	0.00101
313.15	0.1	0.00072	0.01575	0.00103
293.15	0.15	0	0.00766	0.00052
293.15	0.15	0.00034	0.01008	0.00064
293.15	0.15	0.00036	0.01017	0.00062
293.15	0.15	0.00038	0.01029	0.00063
293.15	0.15	0.0004	0.0104	0.00067
293.15	0.15	0.00042	0.01052	0.00066
293.15	0.15	0.00043	0.01063	0.00068
293.15	0.15	0.00045	0.01074	0.00068
293.15	0.15	0.00047	0.01084	0.00068
293.15	0.15	0.00049	0.01096	0.00069
293.15	0.15	0.0005	0.01107	0.00072
293.15	0.15	0.00052	0.01118	0.00071
293.15	0.15	0.00054	0.0113	0.00071
293.15	0.15	0.00056	0.01143	0.00072
293.15	0.15	0.00058	0.01154	0.00073
293.15	0.15	0.0006	0.01166	0.00073
293.15	0.15	0.00062	0.01179	0.00074
293.15	0.15	0.00065	0.01192	0.00086
293.15	0.15	0.00067	0.01204	0.00087
298.15	0.15	0	0.0084	0.00058
298.15	0.15	0.00034	0.01098	0.00077
298.15	0.15	0.00036	0.01107	0.00067
298.15	0.15	0.00038	0.01121	0.00069
298.15	0.15	0.0004	0.01135	0.00073
298.15	0.15	0.00042	0.01147	0.00073
298.15	0.15	0.00043	0.01159	0.00075
298.15	0.15	0.00045	0.01171	0.00074
298.15	0.15	0.00047	0.01183	0.00074
298.15	0.15	0.00049	0.01195	0.00075
298.15	0.15	0.0005	0.01207	0.00079
298.15	0.15	0.00052	0.0122	0.00077
298.15	0.15	0.00054	0.01233	0.00077
298.15	0.15	0.00056	0.01245	0.00078
298.15	0.15	0.00058	0.01259	0.0008
298.15	0.15	0.0006	0.01273	0.0008
298.15	0.15	0.00062	0.01287	0.00082
298.15	0.15	0.00065	0.01301	0.00088
298.15	0.15	0.00067	0.01316	0.00091
303.15	0.15	0	0.009	0.00063
303.15	0.15	0.00034	0.01198	0.00083
303.15	0.15	0.00036	0.01209	0.00073
303.15	0.15	0.00038	0.01223	0.00076
303.15	0.15	0.0004	0.01238	0.0008
303.15	0.15	0.00042	0.01252	0.00079
303.15	0.15	0.00043	0.01265	0.00082
303.15	0.15	0.00045	0.01278	0.00081
303.15	0.15	0.00047	0.01292	0.00081
303.15	0.15	0.00049	0.01305	0.00083
303.15	0.15	0.0005	0.01318	0.00086
303.15	0.15	0.00052	0.01332	0.00084
303.15	0.15	0.00054	0.01347	0.00085
303.15	0.15	0.00056	0.01362	0.00086
303.15	0.15	0.00058	0.01376	0.00088
303.15	0.15	0.0006	0.01392	0.00087
303.15	0.15	0.00062	0.01407	0.00089
303.15	0.15	0.00065	0.01423	0.00096
303.15	0.15	0.00067	0.01439	0.00099
308.15	0.15	0	0.00985	0.00068
308.15	0.15	0.00034	0.01312	0.00085
308.15	0.15	0.00036	0.01324	0.0008
308.15	0.15	0.00038	0.0134	0.00083
308.15	0.15	0.0004	0.01356	0.00087
308.15	0.15	0.00042	0.01371	0.00087
308.15	0.15	0.00043	0.01386	0.00089
308.15	0.15	0.00045	0.014	0.00088
308.15	0.15	0.00047	0.01416	0.00089
308.15	0.15	0.00049	0.01429	0.0009
308.15	0.15	0.0005	0.01445	0.00094
308.15	0.15	0.00052	0.0146	0.00092
308.15	0.15	0.00054	0.01477	0.00092
308.15	0.15	0.00056	0.01493	0.00094
308.15	0.15	0.00058	0.01508	0.00096
308.15	0.15	0.0006	0.01525	0.00095
308.15	0.15	0.00062	0.0154	0.00098
308.15	0.15	0.00065	0.01558	0.00116
308.15	0.15	0.00067	0.01577	0.0012
313.15	0.15	0	0.0112	0.00078
313.15	0.15	0.00034	0.01491	0.00095
313.15	0.15	0.00036	0.01504	0.0009
313.15	0.15	0.00038	0.01522	0.00095
313.15	0.15	0.0004	0.01542	0.001
313.15	0.15	0.00042	0.01559	0.00099
313.15	0.15	0.00043	0.01577	0.00102
313.15	0.15	0.00045	0.01593	0.00101
313.15	0.15	0.00047	0.01609	0.00102
313.15	0.15	0.00049	0.01626	0.00103
313.15	0.15	0.0005	0.01644	0.00107
313.15	0.15	0.00052	0.01662	0.00106
313.15	0.15	0.00054	0.0168	0.00106
313.15	0.15	0.00056	0.01699	0.00107
313.15	0.15	0.00058	0.01719	0.0011
313.15	0.15	0.0006	0.01737	0.00109
313.15	0.15	0.00062	0.01756	0.00111
313.15	0.15	0.00065	0.01776	0.00126
313.15	0.15	0.00067	0.01795	0.0013
293.15	0.2	0	0.01072	0.0007
293.15	0.2	0.00036	0.01317	0.00081
293.15	0.2	0.0004	0.01336	0.00083
293.15	0.2	0.00042	0.01347	0.00084
293.15	0.2	0.00044	0.01358	0.00085
293.15	0.2	0.00045	0.01367	0.00085
293.15	0.2	0.00047	0.01377	0.00086
293.15	0.2	0.00049	0.01387	0.00086
293.15	0.2	0.00051	0.01397	0.00087
293.15	0.2	0.00052	0.01408	0.00088
293.15	0.2	0.00054	0.01418	0.00088
293.15	0.2	0.00056	0.01429	0.00089
293.15	0.2	0.00058	0.0144	0.00089
293.15	0.2	0.0006	0.01453	0.0009
293.15	0.2	0.00063	0.01467	0.00091
293.15	0.2	0.00065	0.01481	0.00091
293.15	0.2	0.00068	0.01495	0.00093
293.15	0.2	0.00071	0.01511	0.00093
293.15	0.2	0.00073	0.01525	0.00095
298.15	0.2	0	0.01154	0.00076
298.15	0.2	0.00036	0.0143	0.00088
298.15	0.2	0.0004	0.01451	0.0009
298.15	0.2	0.00042	0.01463	0.00091
298.15	0.2	0.00044	0.01475	0.00092
298.15	0.2	0.00045	0.01484	0.00092
298.15	0.2	0.00047	0.01496	0.00093
298.15	0.2	0.00049	0.01506	0.00094
298.15	0.2	0.00051	0.01519	0.00095
298.15	0.2	0.00052	0.01531	0.00096
298.15	0.2	0.00054	0.01542	0.00097
298.15	0.2	0.00056	0.01555	0.00097
298.15	0.2	0.00058	0.01568	0.00097
298.15	0.2	0.0006	0.01581	0.00098
298.15	0.2	0.00063	0.01596	0.00099
298.15	0.2	0.00065	0.01612	0.001
298.15	0.2	0.00068	0.01628	0.00101
298.15	0.2	0.00071	0.01646	0.00101
298.15	0.2	0.00073	0.01663	0.00103
303.15	0.2	0	0.01244	0.00081
303.15	0.2	0.00036	0.01546	0.00093
303.15	0.2	0.0004	0.01569	0.00097
303.15	0.2	0.00042	0.01581	0.00099
303.15	0.2	0.00044	0.01596	0.00099
303.15	0.2	0.00045	0.01606	0.00099
303.15	0.2	0.00047	0.01618	0.00101
303.15	0.2	0.00049	0.01629	0.00101
303.15	0.2	0.00051	0.01642	0.00102
303.15	0.2	0.00052	0.01654	0.00102
303.15	0.2	0.00054	0.01667	0.00105
303.15	0.2	0.00056	0.01681	0.00105
303.15	0.2	0.00058	0.01694	0.00104
303.15	0.2	0.0006	0.01709	0.00106
303.15	0.2	0.00063	0.01725	0.00107
303.15	0.2	0.00065	0.01743	0.00107
303.15	0.2	0.00068	0.0176	0.00109
303.15	0.2	0.00071	0.01778	0.00115
303.15	0.2	0.00073	0.01796	0.00121
308.15	0.2	0	0.01385	0.00091
308.15	0.2	0.00036	0.01724	0.00106
308.15	0.2	0.0004	0.01753	0.0011
308.15	0.2	0.00042	0.0177	0.00111
308.15	0.2	0.00044	0.01786	0.00112
308.15	0.2	0.00045	0.01799	0.00113
308.15	0.2	0.00047	0.01812	0.00114
308.15	0.2	0.00049	0.01826	0.00114
308.15	0.2	0.00051	0.01842	0.00116
308.15	0.2	0.00052	0.01857	0.00117
308.15	0.2	0.00054	0.01872	0.00118
308.15	0.2	0.00056	0.01888	0.00118
308.15	0.2	0.00058	0.01905	0.00118
308.15	0.2	0.0006	0.01922	0.0012
308.15	0.2	0.00063	0.01941	0.0012
308.15	0.2	0.00065	0.0196	0.00121
308.15	0.2	0.00068	0.01978	0.00123
308.15	0.2	0.00071	0.02001	0.00124
308.15	0.2	0.00073	0.02023	0.00128
313.15	0.2	0	0.01533	0.00102
313.15	0.2	0.00036	0.01919	0.0012
313.15	0.2	0.0004	0.01952	0.00122
313.15	0.2	0.00042	0.0197	0.00124
313.15	0.2	0.00044	0.01987	0.00126
313.15	0.2	0.00045	0.02	0.0013
313.15	0.2	0.00047	0.0202	0.0013
313.15	0.2	0.00049	0.0204	0.0013
313.15	0.2	0.00051	0.0205	0.0013
313.15	0.2	0.00052	0.0207	0.0013
313.15	0.2	0.00054	0.0209	0.0013
313.15	0.2	0.00056	0.0211	0.0013
313.15	0.2	0.00058	0.0213	0.0013
313.15	0.2	0.0006	0.0215	0.0013
313.15	0.2	0.00063	0.0217	0.0014
313.15	0.2	0.00065	0.0219	0.0014
313.15	0.2	0.00068	0.0222	0.0014
313.15	0.2	0.00071	0.0224	0.0014
313.15	0.2	0.00073	0.0227	0.0014
293.15	0	0	8.75e-05	0.0003347
293.15	0	0.00033	0.00284	0.00033
293.15	0	0.00036	0.00306	0.00038
293.15	0	0.00039	0.00326	0.00036
293.15	0	0.00041	0.00347	0.00038
293.15	0	0.00044	0.00366	0.00038
293.15	0	0.00046	0.00384	0.00037
293.15	0	0.00049	0.00404	0.00041
293.15	0	0.00052	0.00427	0.0004
293.15	0	0.00054	0.00447	0.00041
293.15	0	0.00057	0.00468	0.00044
293.15	0	0.0006	0.0049	0.00041
293.15	0	0.00062	0.0051	0.00043
293.15	0	0.00066	0.00534	0.00045
293.15	0	0.00069	0.00559	0.00044
293.15	0	0.00071	0.0058	0.00051
298.15	0	0	9.65e-05	0.0003895
298.15	0	0.0003	0.00301	0.00041
298.15	0	0.00033	0.00326	0.00042
298.15	0	0.00036	0.00352	0.00041
298.15	0	0.00039	0.00376	0.00041
298.15	0	0.00041	0.00399	0.00044
298.15	0	0.00044	0.00421	0.00044
298.15	0	0.00046	0.00444	0.00043
298.15	0	0.00049	0.00466	0.00047
298.15	0	0.00052	0.00492	0.00046
298.15	0	0.00054	0.00516	0.00047
298.15	0	0.00057	0.00541	0.00051
298.15	0	0.0006	0.00564	0.00048
298.15	0	0.00062	0.00589	0.00049
298.15	0	0.00066	0.00616	0.00052
298.15	0	0.00069	0.00643	0.00051
298.15	0	0.00071	0.00669	0.00054
298.15	0	0.00075	0.00698	0.00051
298.15	0	0.00078	0.00721	0.00053
303.15	0	0	0.0001062	0.0004205
303.15	0	0.0003	0.00325	0.0004
303.15	0	0.00033	0.00353	0.0004
303.15	0	0.00036	0.00381	0.00045
303.15	0	0.00039	0.00407	0.00045
303.15	0	0.00041	0.00432	0.00048
303.15	0	0.00044	0.00456	0.00048
303.15	0	0.00046	0.00481	0.00047
303.15	0	0.00049	0.00506	0.00051
303.15	0	0.00052	0.00534	0.0005
303.15	0	0.00054	0.00559	0.00051
303.15	0	0.00057	0.00586	0.00055
303.15	0	0.0006	0.00612	0.00052
303.15	0	0.00062	0.00638	0.00053
303.15	0	0.00066	0.00667	0.00055
303.15	0	0.00069	0.00697	0.00056
303.15	0	0.00071	0.00724	0.00059
303.15	0	0.00075	0.00756	0.00061
303.15	0	0.00078	0.00782	0.00061
308.15	0	0	0.0001122	0.000465
308.15	0	0.0003	0.00359	0.00046
308.15	0	0.00033	0.0039	0.00046
308.15	0	0.00036	0.0042	0.0005
308.15	0	0.00039	0.00449	0.00049
308.15	0	0.00041	0.00478	0.00053
308.15	0	0.00044	0.00504	0.00054
308.15	0	0.00046	0.00531	0.00052
308.15	0	0.00049	0.0056	0.00058
308.15	0	0.00052	0.00592	0.00056
308.15	0	0.00054	0.00621	0.00057
308.15	0	0.00057	0.0065	0.00061
308.15	0	0.0006	0.00679	0.00057
308.15	0	0.00062	0.00709	0.00059
308.15	0	0.00066	0.00742	0.00063
308.15	0	0.00069	0.00775	0.00062
308.15	0	0.00071	0.00806	0.00066
308.15	0	0.00075	0.00841	0.00059
308.15	0	0.00078	0.00871	0.00063
313.15	0	0	0.0001164	0.0005085
313.15	0	0.0003	0.00392	0.00051
313.15	0	0.00033	0.00427	0.0005
313.15	0	0.00036	0.0046	0.00055
313.15	0	0.00039	0.00492	0.00054
313.15	0	0.00041	0.00522	0.00057
313.15	0	0.00044	0.0055	0.00058
313.15	0	0.00046	0.0058	0.00056
313.15	0	0.00049	0.0061	0.00061
313.15	0	0.00052	0.00644	0.0006
313.15	0	0.00054	0.00673	0.00061
313.15	0	0.00057	0.00706	0.00066
313.15	0	0.0006	0.00737	0.00062
313.15	0	0.00062	0.00769	0.00064
313.15	0	0.00066	0.00805	0.00068
313.15	0	0.00069	0.00843	0.00067
313.15	0	0.00071	0.00875	0.00072
313.15	0	0.00075	0.00914	0.00067

System: water + potassium perfluorobutanesulfonate; phases: Liquid
Fixed: Pressure, kPa = 101
Fixed: Molality, mol/kg of potassium perfluorobutanesulfonate = 0.04
Property: Mass density, kg/m3 (Liquid); method: Pycnometric method
Temperature, K	Mass density, kg/m3	uncertainty
288.15	1006.5	0.5
293.15	1005.6	0.5
298.15	1004.3	0.5
303.15	1002.7	0.5
303.15	1002.8	0.5

System: water + potassium perfluorobutanesulfonate; phases: Liquid
Fixed: Pressure, kPa = 101
Property: Electrical conductivity, S/m (Liquid); method: Alternating current cell with electrodes
Temperature, K	Molality, mol/kg of potassium perfluorobutanesulfonate	Electrical conductivity, S/m	uncertainty
293.15	0.0003	0.00278	0.0004
293.15	0.00054	0.00499	0.00046
293.15	0.00087	0.00784	0.00058
293.15	0.00125	0.01111	0.00075
293.15	0.00164	0.01447	0.00093
293.15	0.00207	0.01814	0.00114
293.15	0.00259	0.0227	0.0014
293.15	0.00315	0.0273	0.0017
293.15	0.00374	0.0322	0.002
293.15	0.00437	0.0372	0.0023
293.15	0.00501	0.0423	0.0026
293.15	0.00571	0.0478	0.0029
293.15	0.00646	0.0537	0.0032
293.15	0.00723	0.0596	0.0036
293.15	0.00809	0.0661	0.004
293.15	0.00904	0.0731	0.0044
298.15	0.0003	0.00312	0.00045
298.15	0.00054	0.00562	0.00052
298.15	0.00087	0.00882	0.00066
298.15	0.00125	0.01252	0.00085
298.15	0.00164	0.01629	0.00105
298.15	0.00207	0.0203	0.0013
298.15	0.00259	0.0253	0.0016
298.15	0.00315	0.0304	0.0019
298.15	0.00374	0.0357	0.0022
298.15	0.00437	0.0415	0.0025
298.15	0.00501	0.0471	0.0028
298.15	0.00571	0.0532	0.0032
298.15	0.00646	0.0596	0.0036
298.15	0.00723	0.0662	0.004
298.15	0.00809	0.0734	0.0044
298.15	0.00904	0.0814	0.0049
303.15	0.0003	0.00344	0.0005
303.15	0.00054	0.00619	0.00058
303.15	0.00087	0.00972	0.00072
303.15	0.00125	0.0138	0.00093
303.15	0.00164	0.01796	0.00116
303.15	0.00207	0.0226	0.0014
303.15	0.00259	0.0279	0.0017
303.15	0.00315	0.0336	0.0021
303.15	0.00374	0.0395	0.0024
303.15	0.00437	0.0457	0.0028
303.15	0.00501	0.0521	0.0032
303.15	0.00571	0.0588	0.0035
303.15	0.00646	0.0658	0.004
303.15	0.00723	0.0732	0.0044
303.15	0.00809	0.081	0.0049
308.15	0.0003	0.00378	0.00055
308.15	0.00054	0.00681	0.00063
308.15	0.00087	0.01069	0.0008
308.15	0.00125	0.01518	0.00103
308.15	0.00164	0.01974	0.00128
308.15	0.00207	0.0248	0.0016
308.15	0.00259	0.0307	0.0019
308.15	0.00315	0.0369	0.0023
308.15	0.00374	0.0434	0.0026
308.15	0.00437	0.0504	0.0031
308.15	0.00501	0.0572	0.0035
308.15	0.00571	0.0646	0.0039
308.15	0.00646	0.0725	0.0044
308.15	0.00723	0.0805	0.0048
313.15	0.0003	0.00413	0.0006
313.15	0.00054	0.00742	0.00069
313.15	0.00087	0.01167	0.00087
313.15	0.00125	0.01657	0.00112
313.15	0.00207	0.0271	0.0017
313.15	0.00259	0.0335	0.0021
313.15	0.00315	0.0403	0.0025
313.15	0.00374	0.0474	0.0029
313.15	0.00437	0.0549	0.0033
313.15	0.00501	0.0625	0.0038
313.15	0.00571	0.0705	0.0043
313.15	0.00646	0.0792	0.0048
313.15	0.00723	0.0878	0.0053
313.15	0.00809	0.0976	0.0059

System: potassium perfluorooctanesulfonate + water; phases: Liquid
Fixed: Pressure, kPa = 101
Fixed: Molality, mol/kg of potassium perfluorooctanesulfonate = 0.0005
Property: Mass density, kg/m3 (Liquid); method: Pycnometric method
Temperature, K	Mass density, kg/m3	uncertainty
288.15	999.3	0.5
293.15	998.3	0.5
298.15	997.1	0.5
303.15	995.7	0.5
303.15	995.8	0.5
298.15	997.2	0.5

System: potassium perfluorooctanesulfonate + water; phases: Liquid
Fixed: Pressure, kPa = 101
Property: Electrical conductivity, S/m (Liquid); method: Alternating current cell with electrodes
Temperature, K	Molality, mol/kg of potassium perfluorooctanesulfonate	Electrical conductivity, S/m	uncertainty
293.15	0.00033	0.00284	0.00033
293.15	0.00036	0.00306	0.00038
293.15	0.00039	0.00326	0.00036
293.15	0.00041	0.00347	0.00038
293.15	0.00044	0.00366	0.00038
293.15	0.00046	0.00384	0.00037
293.15	0.00049	0.00404	0.00041
293.15	0.00052	0.00427	0.0004
293.15	0.00054	0.00447	0.00041
293.15	0.00057	0.00468	0.00044
293.15	0.0006	0.0049	0.00041
293.15	0.00062	0.0051	0.00043
293.15	0.00066	0.00534	0.00045
293.15	0.00069	0.00559	0.00044
293.15	0.00071	0.0058	0.00051
298.15	0.0003	0.00301	0.00041
298.15	0.00033	0.00326	0.00042
298.15	0.00036	0.00352	0.00041
298.15	0.00039	0.00376	0.00041
298.15	0.00041	0.00399	0.00044
298.15	0.00044	0.00421	0.00044
298.15	0.00046	0.00444	0.00043
298.15	0.00049	0.00466	0.00047
298.15	0.00052	0.00492	0.00046
298.15	0.00054	0.00516	0.00047
298.15	0.00057	0.00541	0.00051
298.15	0.0006	0.00564	0.00048
298.15	0.00062	0.00589	0.00049
298.15	0.00066	0.00616	0.00052
298.15	0.00069	0.00643	0.00051
298.15	0.00071	0.00669	0.00054
298.15	0.00075	0.00698	0.00051
298.15	0.00078	0.00721	0.00053
303.15	0.0003	0.00325	0.0004
303.15	0.00033	0.00353	0.0004
303.15	0.00036	0.00381	0.00045
303.15	0.00039	0.00407	0.00045
303.15	0.00041	0.00432	0.00048
303.15	0.00044	0.00456	0.00048
303.15	0.00046	0.00481	0.00047
303.15	0.00049	0.00506	0.00051
303.15	0.00052	0.00534	0.0005
303.15	0.00054	0.00559	0.00051
303.15	0.00057	0.00586	0.00055
303.15	0.0006	0.00612	0.00052
303.15	0.00062	0.00638	0.00053
303.15	0.00066	0.00667	0.00055
303.15	0.00069	0.00697	0.00056
303.15	0.00071	0.00724	0.00059
303.15	0.00075	0.00756	0.00061
303.15	0.00078	0.00782	0.00061
308.15	0.0003	0.00359	0.00046
308.15	0.00033	0.0039	0.00046
308.15	0.00036	0.0042	0.0005
308.15	0.00039	0.00449	0.00049
308.15	0.00041	0.00478	0.00053
308.15	0.00044	0.00504	0.00054
308.15	0.00046	0.00531	0.00052
308.15	0.00049	0.0056	0.00058
308.15	0.00052	0.00592	0.00056
308.15	0.00054	0.00621	0.00057
308.15	0.00057	0.0065	0.00061
308.15	0.0006	0.00679	0.00057
308.15	0.00062	0.00709	0.00059
308.15	0.00066	0.00742	0.00063
308.15	0.00069	0.00775	0.00062
308.15	0.00071	0.00806	0.00066
308.15	0.00075	0.00841	0.00059
308.15	0.00078	0.00871	0.00063
313.15	0.0003	0.00392	0.00051
313.15	0.00033	0.00427	0.0005
313.15	0.00036	0.0046	0.00055
313.15	0.00039	0.00492	0.00054
313.15	0.00041	0.00522	0.00057
313.15	0.00044	0.0055	0.00058
313.15	0.00046	0.0058	0.00056
313.15	0.00049	0.0061	0.00061
313.15	0.00052	0.00644	0.0006
313.15	0.00054	0.00673	0.00061
313.15	0.00057	0.00706	0.00066
313.15	0.0006	0.00737	0.00062
313.15	0.00062	0.00769	0.00064
313.15	0.00066	0.00805	0.00068
313.15	0.00069	0.00843	0.00067
313.15	0.00071	0.00875	0.00072
313.15	0.00075	0.00914	0.00067

System: glycylglycine + water; phases: Liquid
Fixed: Pressure, kPa = 101
Property: Electrical conductivity, S/m (Liquid); method: Alternating current cell with electrodes
Temperature, K	Molality, mol/kg of glycylglycine	Electrical conductivity, S/m	uncertainty
293.15	0.05	0.00328	0.00046
298.15	0.05	0.00355	0.00048
303.15	0.05	0.00385	0.00052
308.15	0.05	0.00429	0.00058
313.15	0.05	0.00474	0.00083
293.15	0.1	0.00543	0.00048
298.15	0.1	0.00593	0.00053
303.15	0.1	0.00652	0.00059
308.15	0.1	0.00724	0.00065
313.15	0.1	0.00805	0.00071
293.15	0.15	0.00745	0.00053
298.15	0.15	0.00818	0.0006
303.15	0.15	0.00904	0.00067
308.15	0.15	0.01008	0.00074
313.15	0.15	0.01129	0.00082
293.15	0.2	0.01055	0.00072
298.15	0.2	0.0115	0.00079
303.15	0.2	0.0125	0.00083
308.15	0.2	0.014	0.00095
313.15	0.2	0.01549	0.00105
308.15	0.15	0.01009	0.00072

System: glycyl-L-valine + water; phases: Liquid
Fixed: Pressure, kPa = 101
Property: Electrical conductivity, S/m (Liquid); method: Alternating current cell with electrodes
Temperature, K	Molality, mol/kg of glycyl-L-valine	Electrical conductivity, S/m	uncertainty
293.15	0.05	0.00323	0.00039
298.15	0.05	0.00347	0.00043
303.15	0.05	0.00374	0.00047
308.15	0.05	0.00407	0.00052
313.15	0.05	0.00456	0.00058
293.15	0.1	0.00535	0.00047
298.15	0.1	0.00582	0.00052
303.15	0.1	0.00636	0.00056
308.15	0.1	0.00705	0.00063
313.15	0.1	0.00783	0.00069
293.15	0.15	0.00742	0.00054
298.15	0.15	0.00811	0.00058
303.15	0.15	0.00891	0.00067
308.15	0.15	0.00989	0.00074
313.15	0.15	0.01103	0.00081
293.15	0.2	0.01045	0.00071
298.15	0.2	0.01135	0.00077
303.15	0.2	0.01239	0.00084
308.15	0.2	0.01369	0.00093
313.15	0.2	0.01522	0.00103

System: glycyl-L-leucine + water; phases: Liquid
Fixed: Pressure, kPa = 101
Property: Electrical conductivity, S/m (Liquid); method: Alternating current cell with electrodes
Temperature, K	Molality, mol/kg of glycyl-L-leucine	Electrical conductivity, S/m	uncertainty
293.15	0.05	0.00321	0.0004
298.15	0.05	0.00345	0.00044
303.15	0.05	0.00372	0.00048
308.15	0.05	0.00406	0.00053
313.15	0.05	0.00455	0.00057
293.15	0.1	0.00533	0.00046
298.15	0.1	0.0058	0.00052
303.15	0.1	0.00634	0.00056
308.15	0.1	0.00703	0.00063
313.15	0.1	0.00781	0.0007
293.15	0.15	0.0074	0.00054
298.15	0.15	0.00809	0.0006
303.15	0.15	0.00889	0.00066
308.15	0.15	0.00987	0.00073
313.15	0.15	0.01101	0.00081
293.15	0.2	0.01043	0.0007
298.15	0.2	0.01133	0.00075
303.15	0.2	0.01237	0.00084
308.15	0.2	0.01367	0.00092
313.15	0.2	0.0152	0.00103
303.15	0.05	0.00373	0.00044

System: water + glycyl-l-glutamine; phases: Liquid
Fixed: Pressure, kPa = 101
Property: Electrical conductivity, S/m (Liquid); method: Alternating current cell with electrodes
Temperature, K	Molality, mol/kg of glycyl-l-glutamine	Electrical conductivity, S/m	uncertainty
293.15	0.05	0.00342	0.00042
298.15	0.05	0.00366	0.00045
303.15	0.05	0.00392	0.00051
308.15	0.05	0.00428	0.00056
313.15	0.05	0.00464	0.0006
293.15	0.1	0.00556	0.00048
298.15	0.1	0.006	0.00053
303.15	0.1	0.00649	0.0006
308.15	0.1	0.00708	0.00063
313.15	0.1	0.00773	0.00072
293.15	0.15	0.00768	0.00049
298.15	0.15	0.00832	0.00057
303.15	0.15	0.00902	0.00065
308.15	0.15	0.00999	0.00068
313.15	0.15	0.01082	0.00074
293.15	0.2	0.01074	0.00072
298.15	0.2	0.01156	0.00078
303.15	0.2	0.01246	0.00084
308.15	0.2	0.01386	0.00092
313.15	0.2	0.01477	0.00101
313.15	0.1	0.00793	0.00068
313.15	0.15	0.01122	0.0008
313.15	0.2	0.01577	0.00104

System: water + L-alanyl-L-glutamine; phases: Liquid
Fixed: Pressure, kPa = 101
Property: Electrical conductivity, S/m (Liquid); method: Alternating current cell with electrodes
Temperature, K	Molality, mol/kg of L-alanyl-L-glutamine	Electrical conductivity, S/m	uncertainty
293.15	0.05	0.0034	0.0004
298.15	0.05	0.00364	0.00043
303.15	0.05	0.00391	0.00049
308.15	0.05	0.00427	0.00054
313.15	0.05	0.00463	0.0006
293.15	0.1	0.00555	0.00046
298.15	0.1	0.00599	0.00066
303.15	0.1	0.00648	0.0006
308.15	0.1	0.00707	0.00069
313.15	0.1	0.00792	0.00078
293.15	0.15	0.00766	0.00052
298.15	0.15	0.0084	0.0007
303.15	0.15	0.009	0.00071
308.15	0.15	0.00985	0.00079
313.15	0.15	0.0112	0.00088
293.15	0.2	0.01072	0.00072
298.15	0.2	0.01154	0.00079
303.15	0.2	0.01244	0.00086
308.15	0.2	0.01385	0.00093
313.15	0.2	0.01533	0.00102
