Measured thermophysical data. Solubility of CO2 in 1-(2-hydroxyethyl)-3-methylimidazolium ionic liquids with different anions
Source: J. Chem. Thermodyn., 2010, 10.1016/j.jct.2010.02.002
Compound 1: carbon dioxide, CO2, InChI=1S/CO2/c2-1-3, purity 99.95%
Compound 2: 3-(2-hydroxyethyl)-1-methylimidazolium hexafluorophosphate, C6H11F6N2OP, InChI=1S/C6H11N2O.F6P/c1-7-2-3-8(6-7)4-5-9;1-7(2,3,4,5)6/h2-3,6,9H,4-5H2,1H3;/q+1;-1
Compound 3: 3-(2-hydroxyethyl)-1-methylimidazolium 1,1,1-trifluoromethanesulfonate, C7H11F3N2O4S, InChI=1S/C6H11N2O.CHF3O3S/c1-7-2-3-8(6-7)4-5-9;2-1(3,4)8(5,6)7/h2-3,6,9H,4-5H2,1H3;(H,5,6,7)/q+1;/p-1
Compound 4: 1-(2-hydroxyethyl)-3-methylimidazolium bis[(trifluoromethyl)sulfonyl]imide, C8H11F6N3O5S2, InChI=1S/C6H11N2O.C2F6NO4S2/c1-7-2-3-8(6-7)4-5-9;3-1(4,5)14(10,11)9-15(12,13)2(6,7)8/h2-3,6,9H,4-5H2,1H3;/q+1;-1

System: carbon dioxide + 3-(2-hydroxyethyl)-1-methylimidazolium hexafluorophosphate; phases: Liquid, Gas
Property: Mole fraction of carbon dioxide (Liquid); method: Phase equilibration
Temperature, K	Pressure, kPa	Mole fraction of carbon dioxide	uncertainty
303.15	133.3	0.013	0.012
313.15	139	0.012	0.012
323.15	145.2	0.01	0.01
333.15	152.2	0.009	0.009
343.15	160.5	0.006	0.006
353.15	169	0.009	0.004
303.15	310.6	0.035	0.016
313.15	324.5	0.033	0.016
323.15	341.3	0.028	0.016
333.15	355.9	0.026	0.016
343.15	370.4	0.023	0.016
353.15	386	0.02	0.008
313.15	459.5	0.045	0.014
323.15	482.4	0.04	0.014
333.15	502.3	0.037	0.014
343.15	523.4	0.033	0.014
353.15	542	0.032	0.012
303.15	579.4	0.064	0.018
313.15	606.3	0.06	0.018
323.15	634.2	0.055	0.018
333.15	663.2	0.049	0.018
303.15	667	0.075	0.016
343.15	687.2	0.048	0.018
313.15	699.9	0.068	0.016
353.15	717	0.042	0.016
323.15	733.1	0.062	0.018
303.15	745.2	0.084	0.018
333.15	762.1	0.059	0.018
313.15	783.7	0.076	0.018
343.15	794.1	0.054	0.018
323.15	819.2	0.07	0.018
353.15	827.1	0.049	0.018
333.15	853.2	0.066	0.018
313.15	854.2	0.085	0.02
343.15	889.3	0.061	0.018
323.15	897	0.076	0.02
303.15	906.3	0.104	0.022
353.15	926.2	0.055	0.02
333.15	935.8	0.07	0.02
343.15	973	0.066	0.02
323.15	986.2	0.086	0.022
313.15	1001	0.101	0.022
353.15	1008	0.064	0.022
353.15	1127	0.07	0.026

System: carbon dioxide + 3-(2-hydroxyethyl)-1-methylimidazolium 1,1,1-trifluoromethanesulfonate; phases: Liquid, Gas
Property: Mole fraction of carbon dioxide (Liquid); method: Phase equilibration
Temperature, K	Pressure, kPa	Mole fraction of carbon dioxide	uncertainty
303.15	101.2	0.017	0.01
313.15	105.6	0.016	0.01
323.15	110.4	0.015	0.01
333.15	115.2	0.014	0.01
343.15	119.2	0.013	0.01
353.15	123.6	0.013	0.01
303.15	251.6	0.044	0.016
313.15	263.8	0.04	0.016
323.15	275.2	0.038	0.016
333.15	286.8	0.036	0.016
343.15	297.2	0.034	0.016
353.15	307.2	0.034	0.016
303.15	432	0.073	0.02
313.15	452	0.068	0.02
323.15	472.6	0.064	0.022
333.15	492	0.061	0.022
343.15	510.8	0.058	0.022
353.15	558.4	0.058	0.022
303.15	652.8	0.107	0.026
313.15	684.8	0.1	0.028
323.15	715.6	0.094	0.028
333.15	745.4	0.089	0.028
343.15	772.8	0.087	0.028
353.15	801.2	0.083	0.028
303.15	895.6	0.144	0.032
313.15	939	0.135	0.032
323.15	981.6	0.128	0.032
333.15	1021	0.123	0.032
343.15	1063	0.118	0.034
353.15	1105	0.112	0.034
303.15	1157	0.188	0.038
313.15	1216	0.176	0.038
323.15	1280	0.162	0.038

System: carbon dioxide + 1-(2-hydroxyethyl)-3-methylimidazolium bis[(trifluoromethyl)sulfonyl]imide; phases: Liquid, Gas
Property: Mole fraction of carbon dioxide (Liquid); method: Phase equilibration
Temperature, K	Pressure, kPa	Mole fraction of carbon dioxide	uncertainty
303.15	97.3	0.022	0.01
303.15	243.7	0.054	0.016
303.15	443.6	0.093	0.022
303.15	564.1	0.119	0.018
303.15	654	0.139	0.018
303.15	795.4	0.164	0.022
303.15	954.1	0.191	0.026
313.15	102.7	0.021	0.012
313.15	256.7	0.05	0.02
313.15	468.4	0.086	0.028
313.15	597.4	0.109	0.024
313.15	693.5	0.127	0.024
313.15	843.3	0.151	0.032
313.15	1011	0.177	0.036
323.15	107.5	0.019	0.01
323.15	269.3	0.046	0.016
323.15	491.8	0.08	0.022
323.15	627.5	0.102	0.018
323.15	730	0.118	0.018
323.15	888.1	0.141	0.024
323.15	1064	0.166	0.028
333.15	112.5	0.018	0.01
333.15	281.9	0.043	0.016
333.15	514.9	0.075	0.022
333.15	656.8	0.096	0.018
333.15	764.2	0.111	0.018
333.15	930.4	0.132	0.024
333.15	1114.3	0.158	0.028
343.15	117.1	0.017	0.01
343.15	293.3	0.041	0.016
343.15	535.6	0.072	0.022
343.15	683.7	0.092	0.018
343.15	796.8	0.106	0.02
343.15	968.8	0.127	0.024
353.15	121.7	0.016	0.01
353.15	305	0.039	0.016
353.15	556.7	0.069	0.022
353.15	710.9	0.088	0.018
353.15	828.7	0.102	0.02
353.15	1007.5	0.122	0.024
