Measured thermophysical data. (p, v,T,x) Measurements of {(1 - x)H2O + xC2H5OH} mixtures in the near-critical and supercritical regions
Source: J. Chem. Thermodyn., 2007, 10.1016/j.jct.2006.08.002
Compound 1: ethanol, C2H6O, InChI=1S/C2H6O/c1-2-3/h3H,2H2,1H3
Compound 2: water, H2O, InChI=1S/H2O/h1H2

System: ethanol + water; phases: Liquid, Gas
Fixed: Mole fraction of ethanol = 0.5
Property: Vapor or sublimation pressure, kPa (Liquid); method: CCELL:UFactor:8
Temperature, K	Vapor or sublimation pressure, kPa	uncertainty
456.86	2130	50
458.15	2100	50
473.15	2820	70
483.15	3460	90
483.56	3450	90
493.15	4120	100
498.15	4500	110
498.15	4500	110
503.15	4830	120
503.15	4850	120
508.15	5310	130
510.15	5450	140
510.68	5450	140
513.15	5750	140
521.15	6560	160
521.15	6560	160
523.15	6710	170
533.15	7700	190
533.15	7650	190
533.15	7650	190
537.45	8280	210
543.15	9020	220
543.15	9120	230
546.05	9650	240
546.15	9520	240

System: ethanol + water; phases: Liquid, Gas
Fixed: Mole fraction of ethanol = 0.5
Property: Mass density, kg/m3 (Liquid); method: Derived from isochoric and isothermal break points
Temperature, K	Mass density, kg/m3	uncertainty
456.86	664.33	0.12
458.15	664.26	0.12
483.15	617.97	0.11
483.56	618.12	0.11
498.15	584.08	0.2
498.15	583.65	0.2
503.15	570.54	0.21
503.15	570.54	0.21
508.15	557.48	0.23
510.15	549.73	0.25
510.68	550.06	0.09
521.15	523.14	0.3
521.15	523.14	0.3
533.15	464.96	0.3
537.45	465.05	0.33
543.15	425.01	0.24
543.5	423.96	0.24
546.05	425.77	101.15
546.15	298.56	101.17

System: ethanol + water; phases: Gas, Liquid
Fixed: Mole fraction of ethanol = 0.5
Property: Mass density, kg/m3 (Gas); method: Derived from isochoric and isothermal break points
Temperature, K	Mass density, kg/m3	uncertainty
513.15	69.41	2.78
523.15	84.56	3.38
533.15	117.12	4.69
543.15	147.5	5.9

System: ethanol + water; phases: Fluid (supercritical or subcritical phases)
Property: Mass density, kg/m3 (Fluid (supercritical or subcritical phases)); method: Constant-volume piezometry
Temperature, K	Pressure, kPa	Mole fraction of ethanol	Mass density, kg/m3	uncertainty
524.15	7270	0.8	383.33	2.57
525.15	7460	0.8	383.31	2.99
526.15	7550	0.8	367.95	10.22
528.15	7710	0.8	312.86	34.51
528.15	7870	0.8	367.91	21.29
528.15	8040	0.8	383.24	7.17
528.15	8410	0.8	406.33	6.34
531.15	8420	0.8	367.86	5.97
533.15	4750	0.8	53.24	2.639
533.15	7070	0.5	84.52	4.651
533.15	7100	0.8	115.14	5.51
533.15	8140	0.8	188.77	42.65
533.15	8270	0.8	244.11	44.38
533.15	8350	0.8	284.34	28.3
533.15	8420	0.8	312.77	24.34
533.15	8440	0.8	307.44	25.06
533.15	8750	0.8	367.82	14.06
533.15	8990	0.8	383.14	5.49
533.15	9460	0.8	406.22	4.02
533.15	10480	0.8	440.21	3.31
533.15	10860	0.8	446.58	2.38
533.15	17410	0.8	516.16	1
533.15	8270	0.8	260.96	44.09
533.15	10480	0.8	440.21	3.31
533.15	10860	0.8	446.58	2.38
538.15	9170	0.8	312.69	2.01
538.15	27310	0.8	553.51	0.79
538.15	27310	0.8	553.51	0.79
543.15	4920	0.8	53.21	2.303
543.15	7570	0.5	84.48	8.601
543.15	7610	0.8	115.08	3.09
543.15	9020	0.8	188.68	7.13
543.15	9530	0.8	260.83	14.55
543.15	9680	0.8	284.19	10.95
543.15	9920	0.8	312.61	8.61
543.15	10630	0.8	367.62	6.92
543.15	10940	0.8	382.93	4.54
543.15	11670	0.8	406	3.23
548.15	7850	0.8	115.06	4.68
548.15	9420	0.8	188.63	5.79
548.15	9680	0.5	294.01	18.05
548.15	9720	0.5	327.56	14.15
548.15	9980	0.8	243.92	9.98
548.15	10390	0.5	421.66	6.2
548.15	10630	0.8	307.19	6.6
548.15	10680	0.8	312.53	6.61
548.15	11790	0.5	464.07	1.48
548.15	11950	0.8	382.83	3.26
548.15	14420	0.8	439.83	1.79
548.15	14800	0.8	446.2	1.79
548.15	17240	0.5	522.28	0.91
548.15	26570	0.5	568.89	0.72
548.15	30490	0.5	581.74	0.73
548.15	14420	0.8	439.83	1.79
548.15	14800	0.8	446.2	1.79
553.15	5080	0.8	53.19	4.092
553.15	6130	0.5	55.97	1.219
553.15	7190	0.5	69.28	1.711
553.15	7970	0.5	84.44	2.428
553.15	9210	0.5	117.47	4.78
553.15	10090	0.5	171.33	14.94
553.15	10330	0.5	234.67	25.71
553.15	10520	0.5	327.48	14.97
553.15	10600	0.5	293.93	10.98
553.15	10890	0.5	385.77	8.54
553.15	11430	0.8	312.45	5
553.15	11790	0.5	424.77	3.03
553.15	11850	0.5	419.86	3.09
553.15	12540	0.8	367.42	5.19
553.15	13460	0.5	463.93	1.39
553.15	19450	0.5	522.11	0.97
553.15	25160	0.8	515.53	1.16
553.15	25720	0.5	555.9	0.71
553.15	47100	0.5	614.98	0.72
558.15	8310	0.8	115	3.62
558.15	10340	0.8	188.54	4.61
558.15	11380	0.8	260.63	7.44
558.15	11700	0.8	283.97	5.67
558.15	13990	0.8	382.62	3.73
558.15	15170	0.8	405.66	2
563.15	6360	0.5	55.95	1.547
563.15	7510	0.5	69.25	1.594
563.15	8400	0.5	84.4	2.051
563.15	8830	0.2	67.68	2.775
563.15	9900	0.5	117.41	3.19
563.15	11080	0.5	171.24	8.76
563.15	12360	0.5	327.3	9.02
563.15	12940	0.8	312.28	3.55
563.15	12970	0.8	312.28	3.56
563.15	13290	0.5	385.56	3.29
563.15	14460	0.8	367.22	3.83
563.15	16510	0.5	463.66	1.33
563.15	23620	0.5	521.79	0.76
568.15	9040	0.2	67.66	2.775
573.15	5420	0.8	53.14	1.73
573.15	6590	0.5	55.92	0.966
573.15	7820	0.5	69.21	1.451
573.15	8780	0.5	84.36	1.837
573.15	8990	0.8	114.92	2.16
573.15	10460	0.5	117.35	2.67
573.15	11580	0.8	188.4	3.29
573.15	12050	0.5	171.15	5.4
573.15	12840	0.8	243.61	5.15
573.15	13010	0.5	234.43	7.64
573.15	13190	0.8	260.43	4.06
573.15	13610	0.5	293.62	4.87
573.15	13720	0.8	283.75	4.57
573.15	14410	0.8	306.79	2.81
573.15	14490	0.8	312.12	2.79
573.15	15660	0.5	385.34	3.95
573.15	16440	0.8	367.02	2.6
573.15	16820	0.5	419.39	3.51
573.15	17060	0.5	421.07	3
573.15	17150	0.8	382.31	1.85
573.15	17210	0.5	424.29	3.17
573.15	18650	0.8	405.32	1.49
573.15	20120	0.5	463.38	1.06
573.15	21340	0.8	439.21	1.32
573.15	22500	0.8	451.39	1.18
573.15	28040	0.5	521.47	0.82
573.15	39960	0.5	567.95	0.73
573.15	44900	0.5	580.76	0.7
573.15	21340	0.8	439.21	1.32
573.15	22500	0.8	451.39	1.18
577.15	45760	0.8	552.13	0.71
577.15	45760	0.8	552.13	0.71
578.15	23390	0.8	445.43	0.87
578.15	35170	0.8	514.74	0.76
578.15	38000	0.5	555.01	0.71
578.15	23390	0.8	445.43	0.87
593.15	50760	0.5	567.2	0.7
598.15	5820	0.8	53.08	1.458
598.15	7080	0.5	55.85	0.728
598.15	8560	0.5	69.13	1.163
598.15	9720	0.5	84.26	1.43
598.15	10060	0.8	114.78	1.73
598.15	11840	0.5	117.21	2.68
598.15	12030	0.2	90.05	2.128
598.15	13600	0.8	188.16	2.31
598.15	14290	0.2	138.08	3.72
598.15	15290	0.2	221.72	38.26
598.15	15460	0.2	286.74	29.45
598.15	15540	0.2	308.36	34.67
598.15	15600	0.8	243.3	3.29
598.15	15640	0.2	325.01	21.28
598.15	16230	0.8	260.09	1.97
598.15	16810	0.2	420.24	8.18
598.15	17080	0.8	283.38	2.92
598.15	18140	0.8	306.39	5.4
598.15	18350	0.8	311.71	5.4
598.15	19160	0.5	326.69	0.6
598.15	21410	0.8	366.53	1.82
598.15	21610	0.5	384.81	2.73
598.15	21850	0.5	418.8	14.18
598.15	22460	0.8	381.79	1.28
598.15	24130	0.5	420.47	1.22
598.15	24210	0.5	423.68	1.21
598.15	24610	0.8	404.76	1.02
598.15	27590	0.2	547.13	0.86
598.15	28350	0.8	438.59	1.03
598.15	28670	0.5	462.7	0.79
598.15	38940	0.5	520.65	0.75
598.15	48240	0.2	617.36	0.78
598.15	48500	0.5	554.28	0.73
598.15	28350	0.8	438.59	1.03
603.15	10470	0.2	67.54	4.411
603.15	12120	0.5	117.18	2.01
603.15	14860	0.5	170.89	2.09
603.15	16860	0.2	350.86	2.22
603.15	16940	0.5	234.07	3.44
603.15	18730	0.5	293.15	0.91
613.15	23290	0.2	452.8	4.17
623.15	6210	0.8	53.01	1.272
623.15	7610	0.5	55.79	0.811
623.15	9230	0.5	69.05	0.965
623.15	10590	0.5	84.15	0.99
623.15	11070	0.8	114.64	1.46
623.15	13180	0.5	117.07	1.25
623.15	13400	0.2	89.94	1.343
623.15	15510	0.8	187.93	1.79
623.15	16770	0.2	137.9	2.19
623.15	18300	0.8	242.99	1.92
623.15	19450	0.2	221.42	3.76
623.15	20470	0.8	283.01	1.81
623.15	20590	0.2	286.35	5.62
623.15	21000	0.2	307.94	4.86
623.15	21380	0.2	324.56	4.66
623.15	21860	0.8	305.99	1.61
623.15	21920	0.2	350.47	4.82
623.15	22240	0.8	311.3	2.9
623.15	24920	0.2	420.24	2.39
623.15	26360	0.8	366.04	1.35
623.15	27820	0.8	381.27	0.99
623.15	27940	0.5	384.27	0.57
623.15	30710	0.8	404.2	0.84
623.15	31220	0.5	418.2	0.8
623.15	31480	0.5	419.87	1.08
623.15	31720	0.5	423.08	0.83
623.15	36430	0.8	444.29	0.86
623.15	37340	0.5	462.02	0.73
623.15	41330	0.2	546.22	0.99
623.15	50360	0.5	519.83	0.77
623.15	36430	0.8	444.29	0.86
628.15	19790	0.8	259.69	1.45
628.15	36970	0.8	437.84	0.85
628.15	36970	0.8	437.84	0.85
633.15	11600	0.2	67.45	1.869
633.15	13740	0.5	117.01	1.37
633.15	17410	0.5	170.64	1.66
633.15	23850	0.5	292.69	2.07
633.15	26000	0.5	326.07	2.19
638.15	21420	0.5	233.65	1.25
643.15	35160	0.2	451.97	1.41
648.15	6600	0.8	52.95	1.133
648.15	8080	0.5	55.72	0.737
648.15	9890	0.5	68.96	0.848
648.15	11430	0.5	84.05	1.02
648.15	12050	0.8	114.5	1.26
648.15	14470	0.5	116.92	1.1
648.15	14680	0.2	89.83	1.085
648.15	17440	0.8	187.69	1.43
648.15	19110	0.2	137.73	1.51
648.15	23400	0.2	221.13	2.2
648.15	25670	0.8	305.59	0.57
648.15	25860	0.2	285.96	2.63
648.15	26120	0.8	310.89	1.24
648.15	26740	0.2	307.52	2.31
648.15	28730	0.2	349.97	1.64
648.15	31420	0.8	365.54	1.08
648.15	33230	0.8	380.75	0.83
648.15	33660	0.2	420.24	1.51
648.15	34330	0.5	383.73	0.6
648.15	36760	0.8	403.64	0.83
648.15	39020	0.5	419.27	0.9
653.15	19550	0.2	137.7	1.87
653.15	21530	0.8	242.62	1.41
653.15	22750	0.8	259.36	1.43
653.15	24460	0.8	282.58	1.26
653.15	26990	0.8	310.81	1.04
653.15	28660	0.2	324.03	1.49
653.15	34300	0.8	380.65	0.86
653.15	35620	0.5	383.63	0.64
653.15	40110	0.5	417.48	0.74
653.15	40890	0.5	422.34	0.79
653.15	44100	0.8	437.21	0.74
653.15	48080	0.5	461.19	0.75
653.15	44100	0.8	437.21	0.74
673.15	6990	0.8	52.89	1.025
673.15	8570	0.5	55.65	0.675
673.15	10540	0.5	68.88	0.813
673.15	12250	0.5	83.95	0.931
673.15	12980	0.2	67.32	0.761
673.15	13010	0.8	114.36	1.11
673.15	15740	0.5	116.78	1.06
673.15	15940	0.2	89.72	0.856
673.15	19310	0.8	187.46	1.24
673.15	20680	0.5	170.3	1.19
673.15	21310	0.2	137.56	1.16
673.15	23620	0.8	242.38	1.28
673.15	25130	0.8	259.1	1.16
673.15	25740	0.5	233.23	1.26
673.15	27230	0.8	282.28	1.12
673.15	27430	0.2	220.84	1.51
673.15	29500	0.8	305.19	1.05
673.15	30040	0.8	310.49	1.05
673.15	30620	0.5	292.07	1.18
673.15	31230	0.2	285.57	1.74
673.15	32510	0.2	307.09	1.57
673.15	33730	0.2	323.66	1.47
673.15	34050	0.5	325.37	0.96
673.15	35510	0.2	349.48	1.51
673.15	36420	0.8	365.05	0.92
673.15	38700	0.8	380.23	0.72
673.15	40850	0.5	383.2	0.92
673.15	42660	0.2	420.24	1.01
673.15	42950	0.8	403.08	0.71
673.15	46620	0.5	418.66	0.88
673.15	47140	0.2	451.15	0.87
