Measured thermophysical data. Does the variation of the alkyl chain length on N1 and N3 of imidazole ring affect physicochemical features of ionic liquids in the same way?
Source: J. Chem. Thermodyn., 2016, 10.1016/j.jct.2015.09.025
Compound 1: water, H2O, InChI=1S/H2O/h1H2, purity 99.8%
Compound 2: 1-butyl-3-ethylimidazolium bromide, C9H17BrN2, InChI=1S/C9H17N2.BrH/c1-3-5-6-11-8-7-10(4-2)9-11;/h7-9H,3-6H2,1-2H3;1H/q+1;/p-1

System: water; phases: Liquid
Fixed: Pressure, kPa = 100
Property: Mass density, kg/m3 (Liquid); method: Vibrating tube method
Temperature, K	Mass density, kg/m3	uncertainty
293.15	998.21	1.52
298.15	997.05	1.52
303.15	995.65	1.52
308.15	994.04	1.52
313.15	992.22	1.52
318.15	990.22	1.52
323.15	988.05	1.52

System: 1-butyl-3-ethylimidazolium bromide; phases: Liquid
Fixed: Pressure, kPa = 101.325
Property: Viscosity, Pa*s (Liquid); method: Cone and plate viscometry
Temperature, K	Viscosity, Pa*s	uncertainty
293.15	0.04031	0.00085
298.15	0.03026	0.00064
303.15	0.02104	0.00045
308.15	0.01503	0.00032
313.15	0.01085	0.00023
318.15	0.00814	0.00017
323.15	0.00634	0.00013

System: 1-butyl-3-ethylimidazolium bromide; phases: Liquid
Fixed: Pressure, kPa = 101.325
Property: Electrical conductivity, S/m (Liquid); method: Direct current cell with electrodes
Temperature, K	Electrical conductivity, S/m	uncertainty
293.15	0.0372	0.0011
298.15	0.0502	0.0015
303.15	0.0696	0.0021
308.15	0.1047	0.0031
313.15	0.1459	0.0044
318.15	0.1951	0.0059
323.15	0.2635	0.0079

System: 1-butyl-3-ethylimidazolium bromide; phases: Liquid
Fixed: Pressure, kPa = 100
Property: Mass density, kg/m3 (Liquid); method: Vibrating tube method
Temperature, K	Mass density, kg/m3	uncertainty
293.15	1263.23	1.57
298.15	1259.4	1.57
303.15	1255.95	1.57
308.15	1252.45	1.57
313.15	1248.92	1.57
318.15	1245.45	1.57
323.15	1241.93	1.57

System: water + 1-butyl-3-ethylimidazolium bromide; phases: Liquid
Fixed: Pressure, kPa = 100
Property: Mass density, kg/m3 (Liquid); method: Vibrating tube method
Temperature, K	Mole fraction of 1-butyl-3-ethylimidazolium bromide	Mass density, kg/m3	uncertainty
293.15	0	998.21	1.52
293.15	0.0508	1097.96	2.73
293.15	0.0989	1147.31	1.81
293.15	0.2035	1201.02	1.64
293.15	0.2952	1223.67	1.56
293.15	0.3401	1230.84	1.54
293.15	0.3992	1238.09	1.54
293.15	0.47	1244.46	1.54
293.15	0.5253	1248.15	1.54
293.15	0.5747	1250.9	1.54
293.15	0.671	1254.81	1.55
293.15	0.765	1257.65	1.55
293.15	0.7897	1258.27	1.55
293.15	0.8941	1260.82	1.56
293.15	1	1263.23	1.57
298.15	0	997.05	1.52
298.15	0.0508	1095.66	2.72
298.15	0.0989	1144.64	1.79
298.15	0.2035	1197.79	1.63
298.15	0.2952	1220.14	1.56
298.15	0.3401	1227.29	1.54
298.15	0.3992	1234.49	1.54
298.15	0.47	1240.87	1.54
298.15	0.5253	1244.64	1.54
298.15	0.5747	1247.35	1.54
298.15	0.671	1251.34	1.54
298.15	0.765	1254.16	1.55
298.15	0.7897	1254.77	1.55
298.15	0.8941	1257.22	1.56
298.15	1	1259.4	1.57
303.15	0	995.65	1.52
303.15	0.0508	1092.83	2.69
303.15	0.0989	1141.12	1.78
303.15	0.2035	1194	1.63
303.15	0.2952	1216.54	1.56
303.15	0.3401	1223.73	1.54
303.15	0.3992	1231.07	1.54
303.15	0.47	1237.46	1.54
303.15	0.5253	1241.28	1.54
303.15	0.5747	1243.9	1.54
303.15	0.671	1247.89	1.54
303.15	0.765	1250.7	1.55
303.15	0.7897	1251.34	1.55
303.15	0.8941	1253.73	1.56
303.15	1	1255.95	1.57
308.15	0	994.04	1.52
308.15	0.0508	1089.54	2.66
308.15	0.0989	1137.52	1.78
308.15	0.2035	1190.2	1.63
308.15	0.2952	1212.84	1.57
308.15	0.3401	1220.21	1.54
308.15	0.3992	1227.64	1.54
308.15	0.47	1234.11	1.54
308.15	0.5253	1237.88	1.54
308.15	0.5747	1240.51	1.54
308.15	0.671	1244.4	1.54
308.15	0.765	1247.07	1.55
308.15	0.7897	1247.66	1.55
308.15	0.8941	1250.08	1.56
308.15	1	1252.45	1.57
313.15	0	992.22	1.52
313.15	0.0508	1086.74	2.64
313.15	0.0989	1133.9	1.78
313.15	0.2035	1186.43	1.63
313.15	0.2952	1209.21	1.57
313.15	0.3401	1216.55	1.54
313.15	0.3992	1224.07	1.54
313.15	0.47	1230.53	1.54
313.15	0.5253	1234.38	1.54
313.15	0.5747	1237.12	1.54
313.15	0.671	1240.97	1.54
313.15	0.765	1243.6	1.55
313.15	0.7897	1244.22	1.55
313.15	0.8941	1246.56	1.56
313.15	1	1248.92	1.57
318.15	0	990.22	1.52
318.15	0.0508	1083.47	2.62
318.15	0.0989	1130.24	1.77
318.15	0.2035	1182.5	1.63
318.15	0.2952	1205.44	1.57
318.15	0.3401	1212.91	1.54
318.15	0.3992	1220.51	1.54
318.15	0.47	1227.04	1.54
318.15	0.5253	1230.93	1.54
318.15	0.5747	1233.7	1.54
318.15	0.671	1237.53	1.54
318.15	0.765	1240.11	1.55
318.15	0.7897	1240.64	1.55
318.15	0.8941	1243.04	1.56
318.15	1	1245.45	1.57
323.15	0	988.05	1.52
323.15	0.0508	1080.4	2.6
323.15	0.0989	1126.65	1.79
323.15	0.2035	1178.87	1.63
323.15	0.2952	1201.69	1.57
323.15	0.3401	1209.38	1.54
323.15	0.3992	1216.89	1.54
323.15	0.47	1223.51	1.54
323.15	0.5253	1227.36	1.54
323.15	0.5747	1230.09	1.54
323.15	0.671	1233.89	1.54
323.15	0.765	1236.47	1.55
323.15	0.7897	1237.07	1.55
323.15	0.8941	1239.4	1.56
323.15	1	1241.93	1.57

System: water + 1-butyl-3-ethylimidazolium bromide; phases: Liquid
Fixed: Pressure, kPa = 100
Property: Mass density, kg/m3 (Liquid); method: Vibrating tube method
Temperature, K	Molality, mol/kg of 1-butyl-3-ethylimidazolium bromide	Mass density, kg/m3	uncertainty
293.15	0.01301	998.77	1.52
293.15	0.0143	998.83	1.52
293.15	0.01484	998.86	1.52
293.15	0.01635	998.93	1.52
293.15	0.02002	999.1	1.52
293.15	0.02142	999.17	1.52
293.15	0.02516	999.35	1.52
293.15	0.02922	999.55	1.52
293.15	0.03199	999.68	1.52
293.15	0.03589	999.88	1.52
293.15	0.039	1000.04	1.52
298.15	0.01301	997.55	1.53
298.15	0.0143	997.61	1.53
298.15	0.01484	997.63	1.52
298.15	0.01635	997.7	1.52
298.15	0.02002	997.86	1.52
298.15	0.02142	997.93	1.52
298.15	0.02516	998.1	1.52
298.15	0.02922	998.3	1.52
298.15	0.03199	998.44	1.52
298.15	0.03589	998.63	1.52
298.15	0.039	998.8	1.52
303.15	0.01301	996.05	1.52
303.15	0.0143	996.1	1.52
303.15	0.01484	996.12	1.52
303.15	0.01635	996.18	1.52
303.15	0.02002	996.34	1.52
303.15	0.02142	996.4	1.52
303.15	0.02516	996.58	1.52
303.15	0.02922	996.77	1.52
303.15	0.03199	996.92	1.52
303.15	0.03589	997.11	1.52
303.15	0.039	997.29	1.52
308.15	0.01301	994.32	1.52
308.15	0.0143	994.37	1.52
308.15	0.01484	994.39	1.52
308.15	0.01635	994.45	1.52
308.15	0.02002	994.59	1.52
308.15	0.02142	994.65	1.52
308.15	0.02516	994.82	1.52
308.15	0.02922	995.02	1.52
308.15	0.03199	995.16	1.52
308.15	0.03589	995.36	1.52
308.15	0.039	995.54	1.52
