Measured thermophysical data. Phase equilibria of the water + 1-butanol + 2-pentanol ternary system at 101.3 kPa
Source: J. Chem. Thermodyn., 2018, 10.1016/j.jct.2018.03.024
Compound 1: butan-1-ol, C4H10O, InChI=1S/C4H10O/c1-2-3-4-5/h5H,2-4H2,1H3, purity 99.5%
Compound 2: pentan-2-ol, C5H12O, InChI=1S/C5H12O/c1-3-4-5(2)6/h5-6H,3-4H2,1-2H3, purity 98%
Compound 3: water, H2O, InChI=1S/H2O/h1H2, purity 99.8%

System: water + butan-1-ol + pentan-2-ol; phases: Liquid mixture 2, Gas, Liquid mixture 1
Fixed: Pressure, kPa = 101.3
Property: Mole fraction of butan-1-ol (Liquid mixture 2); method: Chromatography
Property: Mole fraction of water (Liquid mixture 2); method: Chromatography
Property: Mole fraction of butan-1-ol (Liquid mixture 1); method: Chromatography
Property: Mole fraction of water (Liquid mixture 1); method: Chromatography
Property: Mole fraction of butan-1-ol (Gas); method: Chromatography
Property: Mole fraction of water (Gas); method: Chromatography
Temperature, K	Mole fraction of butan-1-ol	uncertainty	Mole fraction of water	uncertainty	Mole fraction of butan-1-ol	uncertainty	Mole fraction of water	uncertainty	Mole fraction of butan-1-ol	uncertainty	Mole fraction of water	uncertainty
365.85	0.021	0.002	0.979	0.002	0.362	0.029	0.638	0.029	0.246	0.02	0.754	0.02
365.68	0.02	0.002	0.979	0.002	0.372	0.03	0.55	0.036	0.196	0.016	0.757	0.02
365.61	0.01	0.001	0.987	0.001	0.346	0.028	0.496	0.04	0.165	0.013	0.754	0.02
365.59	0.009	0.001	0.987	0.001	0.303	0.024	0.468	0.038	0.131	0.011	0.755	0.02
365.53	0.007	0.001	0.989	0.001	0.261	0.021	0.463	0.037	0.116	0.009	0.753	0.02
365.52	0.006	0.001	0.99	0.001	0.234	0.019	0.452	0.036	0.1	0.008	0.751	0.02
365.49	0.005	0.001	0.991	0.001	0.196	0.016	0.452	0.036	0.084	0.007	0.752	0.02
365.48	0.004	0.001	0.991	0.001	0.159	0.013	0.45	0.036	0.069	0.006	0.753	0.02
365.48	0.003	0.001	0.992	0.001	0.127	0.01	0.449	0.036	0.054	0.004	0.754	0.02
365.47	0.002	0.001	0.992	0.001	0.106	0.009	0.446	0.036	0.045	0.004	0.751	0.02
365.41	0.002	0.001	0.992	0.001	0.085	0.007	0.434	0.035	0.035	0.003	0.751	0.02
365.39	0.002	0.001	0.992	0.001	0.055	0.004	0.444	0.036	0.022	0.002	0.754	0.02
365.37	0		0.993	0.001	0		0.429	0.034	0		0.75	0.02

System: water + butan-1-ol + pentan-2-ol; phases: Liquid mixture 1, Liquid mixture 2
Fixed: Pressure, kPa = 101.3
Property: Mole fraction of water (Liquid mixture 1); method: Chromatography
Property: Mole fraction of water (Liquid mixture 2); method: Chromatography
Property: Mole fraction of butan-1-ol (Liquid mixture 2); method: Chromatography
Temperature, K	Mole fraction of butan-1-ol	Mole fraction of water	uncertainty	Mole fraction of water	uncertainty	Mole fraction of butan-1-ol	uncertainty
303.15	0.496	0.504	0.281	0.983	0.002	0.017	
303.15	0.078	0.34	0.027	0.991	0.001	0.002	
303.15	0	0.364	0.029	0.992	0.001	0	
313.15	0.484	0.516	0.202	0.981	0.002	0.019	
313.15	0.476	0.475	0.082	0.984	0.002	0.015	
313.15	0.452	0.448	0.044	0.985	0.001	0.013	
313.15	0.415	0.43	0.038	0.986	0.001	0.011	
313.15	0.373	0.409	0.034	0.987	0.001	0.01	
313.15	0.319	0.405	0.033	0.988	0.001	0.008	
313.15	0.258	0.406	0.033	0.988	0.001	0.007	
313.15	0.205	0.386	0.031	0.989	0.001	0.005	
303.15	0.49	0.462	0.129	0.984	0.002	0.015	
313.15	0.14	0.384	0.031	0.989	0.001	0.004	
313.15	0.071	0.372	0.03	0.991	0.001	0.002	
313.15	0	0.38	0.031	0.993	0.001	0	
303.15	0.473	0.425	0.039	0.985	0.001	0.013	
303.15	0.423	0.419	0.034	0.986	0.001	0.012	
303.15	0.376	0.407	0.034	0.987	0.001	0.01	
303.15	0.325	0.395	0.033	0.988	0.001	0.008	
365.85	0.362	0.638	0.084	0.979	0.002	0.021	
365.68	0.372	0.55	0.263	0.979	0.002	0.02	
365.61	0.346	0.496	0.078	0.987	0.001	0.01	
365.59	0.303	0.468	0.039	0.987	0.001	0.009	
365.53	0.261	0.463	0.037	0.989	0.001	0.007	
303.15	0.272	0.377	0.031	0.989	0.001	0.007	
365.52	0.234	0.452	0.036	0.99	0.001	0.006	
365.49	0.196	0.452	0.036	0.991	0.001	0.005	
365.48	0.159	0.45	0.036	0.991	0.001	0.004	
365.48	0.127	0.449	0.036	0.992	0.001	0.003	
365.47	0.106	0.446	0.036	0.992	0.001	0.002	
365.41	0.085	0.434	0.035	0.992	0.001	0.002	
365.39	0.055	0.444	0.036	0.992	0.001	0.002	
365.37	0	0.429	0.034	0.993	0.001	0	
303.15	0.211	0.362	0.029	0.99	0.001	0.005	
303.15	0.148	0.35	0.028	0.991	0.001	0.003	

System: water + butan-1-ol + pentan-2-ol; phases: Liquid, Gas
Fixed: Pressure, kPa = 101.3
Property: Mole fraction of water (Liquid); method: Chromatography
Property: Mole fraction of water (Gas); method: Chromatography
Property: Mole fraction of butan-1-ol (Gas); method: Chromatography
Temperature, K	Mole fraction of butan-1-ol	Mole fraction of water	uncertainty	Mole fraction of water	uncertainty	Mole fraction of butan-1-ol	uncertainty
372.89	0.748	0.194	0.016	0.651	0.028	0.324	
375.13	0.8	0.155	0.012	0.598	0.032	0.38	
378.91	0.858	0.112	0.009	0.512	0.039	0.471	
381.9	0.911	0.069	0.006	0.396	0.032	0.589	
365.85	0.362	0.638	0.029	0.754	0.02	0.246	
365.68	0.372	0.55	0.036	0.757	0.02	0.196	
365.61	0.346	0.496	0.04	0.754	0.02	0.165	
365.59	0.303	0.468	0.038	0.755	0.02	0.131	
365.53	0.261	0.463	0.037	0.753	0.02	0.116	
365.52	0.234	0.452	0.036	0.751	0.02	0.1	
365.49	0.196	0.452	0.036	0.752	0.02	0.084	
365.48	0.159	0.45	0.036	0.753	0.02	0.069	
365.48	0.127	0.449	0.036	0.754	0.02	0.054	
365.47	0.106	0.446	0.036	0.751	0.02	0.045	
365.41	0.085	0.434	0.035	0.751	0.02	0.035	
365.39	0.055	0.444	0.036	0.754	0.02	0.022	
365.37	0	0.429	0.034	0.75	0.02	0	
365.85	0.021	0.979	0.002	0.754	0.02	0.246	
365.68	0.02	0.979	0.002	0.757	0.02	0.196	
365.61	0.01	0.987	0.001	0.754	0.02	0.165	
365.59	0.009	0.987	0.001	0.755	0.02	0.131	
365.53	0.007	0.989	0.001	0.753	0.02	0.116	
365.52	0.006	0.99	0.001	0.751	0.02	0.1	
365.49	0.005	0.991	0.001	0.752	0.02	0.084	
365.48	0.004	0.991	0.001	0.753	0.02	0.069	
365.48	0.003	0.992	0.001	0.754	0.02	0.054	
365.47	0.002	0.992	0.001	0.751	0.02	0.045	
365.41	0.002	0.992	0.001	0.751	0.02	0.035	
365.39	0.002	0.992	0.001	0.754	0.02	0.022	
365.37	0	0.993	0.001	0.75	0.02	0	
365.61	0.425	0.478	0.038	0.756	0.02	0.197	
372.71	0.7	0.178	0.014	0.674	0.026	0.279	
380.39	0.814	0.073	0.006	0.652	0.028	0.306	
373.33	0.738	0.157	0.013	0.712	0.023	0.254	
377.99	0.721	0.1	0.008	0.713	0.023	0.233	
381.88	0.659	0.059	0.005	0.619	0.031	0.274	
384.59	0.595	0.047	0.004	0.341	0.027	0.422	
386.15	0.526	0.034	0.003	0.314	0.025	0.386	
388.41	0.477	0.023	0.002	0.319	0.026	0.347	
377.05	0.396	0.12	0.01	0.555	0.036	0.204	
371.61	0.327	0.209	0.017	0.678	0.026	0.134	
375.42	0.248	0.14	0.011	0.602	0.032	0.115	
377.61	0.211	0.114	0.009	0.537	0.037	0.112	
369.02	0.144	0.26	0.021	0.719	0.023	0.054	
376.98	0.099	0.113	0.009	0.547	0.037	0.051	
366.13	0.385	0.347	0.028	0.751	0.02	0.146	
368.87	0.504	0.271	0.022	0.74	0.021	0.18	
370.23	0.488	0.235	0.019	0.715	0.023	0.183	
371.23	0.527	0.214	0.017	0.704	0.024	0.201	
374.91	0.634	0.146	0.012	0.653	0.028	0.261	
383.65	0.8	0.033	0.003	0.314	0.025	0.569	
367.78	0.558	0.322	0.026	0.752	0.02	0.217	
366.58	0.512	0.417	0.033	0.752	0.02	0.217	
367.21	0.56	0.368	0.03	0.749	0.02	0.222	
368.58	0.634	0.298	0.024	0.724	0.022	0.249	

System: water + butan-1-ol; phases: Liquid mixture 2, Liquid mixture 1
Property: Mole fraction of water (Liquid mixture 2); method: Chromatography
Temperature, K	Pressure, kPa	Mole fraction of water	uncertainty
303.15	101.3	0.983	0.001

System: water + butan-1-ol; phases: Liquid mixture 1, Liquid mixture 2
Property: Mole fraction of water (Liquid mixture 1); method: Chromatography
Temperature, K	Pressure, kPa	Mole fraction of water	uncertainty
303.15	101.3	0.504	0.04

System: water + pentan-2-ol; phases: Liquid mixture 2, Liquid mixture 1
Fixed: Pressure, kPa = 101.3
Property: Mole fraction of water (Liquid mixture 2); method: Chromatography
Temperature, K	Mole fraction of water	uncertainty
313.15	0.993	0.001
303.15	0.992	0.001
365.37	0.993	0.001

System: water + pentan-2-ol; phases: Liquid mixture 1, Liquid mixture 2
Fixed: Pressure, kPa = 101.3
Property: Mole fraction of water (Liquid mixture 1); method: Chromatography
Temperature, K	Mole fraction of water	uncertainty
313.15	0.38	0.031
303.15	0.364	0.029
365.37	0.429	0.034

System: water + pentan-2-ol; phases: Liquid, Gas
Fixed: Pressure, kPa = 101.3
Property: Boiling temperature at pressure P, K (Liquid); method: Ebulliometric method (Recirculating still)
Mole fraction of water	Boiling temperature at pressure P, K	uncertainty
0.993	365.37	0.15
0.429	365.37	0.16

System: water + pentan-2-ol; phases: Gas, Liquid
Fixed: Pressure, kPa = 101.3
Property: Mole fraction of water (Gas); method: Chromatography
Mole fraction of water	Mole fraction of water	uncertainty
0.993	0.75	0.02
0.429	0.75	0.02
