Measured thermophysical data. High-pressure phase behavior of propyl lactate and butyl lactate in supercritical carbon dioxide
Source: J. Chem. Thermodyn., 2012, 10.1016/j.jct.2011.10.010
Compound 1: propyl 2-hydroxypropanoate, C6H12O3, InChI=1S/C6H12O3/c1-3-4-9-6(8)5(2)7/h5,7H,3-4H2,1-2H3, purity 97%
Compound 2: butyl 2-hydroxypropanoate, C7H14O3, InChI=1S/C7H14O3/c1-3-4-5-10-7(9)6(2)8/h6,8H,3-5H2,1-2H3, purity 98%
Compound 3: carbon dioxide, CO2, InChI=1S/CO2/c2-1-3, purity 99.999%

System: carbon dioxide + propyl 2-hydroxypropanoate; phases: Liquid, Gas
Property: Vapor or sublimation pressure, kPa (Liquid); method: Closed cell (Static) method
Temperature, K	Mole fraction of carbon dioxide	Vapor or sublimation pressure, kPa	uncertainty
323.2	0.568	6200	30
323.2	0.608	6520	30
323.2	0.643	6650	30
323.2	0.705	7380	40
323.2	0.744	7790	40
323.2	0.784	8280	40
323.2	0.825	8500	30
323.2	0.864	8810	30
323.2	0.901	8960	30
323.2	0.926	9250	40
333.2	0.568	7040	40
333.2	0.608	7450	40
333.2	0.643	7710	40
333.2	0.705	8600	40
333.2	0.744	9060	40
333.2	0.784	9660	40
333.2	0.825	10020	40
333.2	0.864	10420	40
333.2	0.901	10550	40
343.2	0.568	7910	40
343.2	0.608	8440	40
343.2	0.643	8770	40
343.2	0.705	9720	50
343.2	0.744	10370	50
343.2	0.784	11080	50
343.2	0.825	11520	50
343.2	0.864	12010	40
343.2	0.901	12140	40
353.2	0.568	8820	50
353.2	0.608	9380	50
353.2	0.643	9900	50
353.2	0.705	10700	50
353.2	0.744	11680	60
353.2	0.784	12460	50
353.2	0.825	13020	50
353.2	0.864	13490	50
353.2	0.901	13710	50
363.2	0.568	9720	50
363.2	0.608	10390	50
363.2	0.643	10930	50
363.2	0.705	11910	60
363.2	0.744	12920	60
363.2	0.784	13710	60
363.2	0.825	14310	60
363.2	0.864	14820	60

System: carbon dioxide + propyl 2-hydroxypropanoate; phases: Gas, Liquid
Property: Vapor or sublimation pressure, kPa (Gas); method: Closed cell (Static) method
Temperature, K	Mole fraction of carbon dioxide	Vapor or sublimation pressure, kPa	uncertainty
323.2	0.946	9560	40
323.2	0.962	9650	40
333.2	0.926	10840	50
333.2	0.946	11100	40
333.2	0.962	11110	40
343.2	0.926	12420	50
343.2	0.946	12570	40
343.2	0.962	12450	40
353.2	0.926	13820	50
353.2	0.946	13930	50
353.2	0.962	13710	60
363.2	0.901	14970	50
363.2	0.926	15020	50
363.2	0.946	15040	50
363.2	0.962	14760	60

System: carbon dioxide + butyl 2-hydroxypropanoate; phases: Liquid, Gas
Property: Vapor or sublimation pressure, kPa (Liquid); method: Closed cell (Static) method
Temperature, K	Mole fraction of carbon dioxide	Vapor or sublimation pressure, kPa	uncertainty
323.2	0.518	5070	40
323.2	0.541	5460	40
323.2	0.588	6320	40
323.2	0.634	6940	30
323.2	0.683	7260	30
323.2	0.709	7340	30
323.2	0.743	7760	40
323.2	0.776	8070	30
323.2	0.805	8330	40
323.2	0.839	8870	40
323.2	0.888	9230	40
323.2	0.906	9320	30
323.2	0.928	9360	30
333.2	0.518	5850	40
333.2	0.541	6200	40
333.2	0.588	7030	40
333.2	0.603	7210	50
333.2	0.634	7920	40
333.2	0.683	8410	40
333.2	0.709	8530	40
333.2	0.743	9060	40
333.2	0.776	9430	40
333.2	0.805	9770	50
333.2	0.839	10420	40
333.2	0.888	10880	40
333.2	0.906	10960	40
343.2	0.518	6620	40
343.2	0.541	6990	40
343.2	0.588	7870	50
343.2	0.603	8140	60
343.2	0.634	8950	50
343.2	0.683	9610	40
343.2	0.709	9770	40
343.2	0.743	10430	50
343.2	0.776	10890	50
343.2	0.805	11280	50
343.2	0.839	12050	50
343.2	0.888	12580	50
343.2	0.906	12640	40
353.2	0.518	7330	50
353.2	0.541	7800	50
353.2	0.588	8730	50
353.2	0.603	9030	60
353.2	0.634	9930	50
353.2	0.683	10730	50
353.2	0.709	10960	50
353.2	0.743	11710	60
353.2	0.776	12280	50
353.2	0.805	12770	60
353.2	0.839	13610	70
363.2	0.518	8070	60
363.2	0.541	8600	50
363.2	0.588	9550	50
363.2	0.603	9910	70
363.2	0.634	10870	60
363.2	0.683	11730	50
363.2	0.709	12110	60
363.2	0.743	13010	60
363.2	0.776	13700	60
363.2	0.805	14210	70
363.2	0.839	15100	70

System: carbon dioxide + butyl 2-hydroxypropanoate; phases: Gas, Liquid
Property: Vapor or sublimation pressure, kPa (Gas); method: Closed cell (Static) method
Temperature, K	Mole fraction of carbon dioxide	Vapor or sublimation pressure, kPa	uncertainty
323.2	0.964	9610	30
333.2	0.928	11130	40
333.2	0.964	11170	40
343.2	0.928	12740	40
343.2	0.964	12710	40
353.2	0.888	14030	50
353.2	0.906	14170	50
353.2	0.913	14190	50
353.2	0.928	14210	50
353.2	0.941	14130	50
353.2	0.964	14050	50
363.2	0.888	15470	50
363.2	0.906	15490	50
363.2	0.928	15500	50
363.2	0.941	15410	50
363.2	0.964	15120	50
