Measured thermophysical data. Thermodynamic behaviour of alkyl lactate-alkanol systems
Source: J. Chem. Thermodyn., 2018, 10.1016/j.jct.2018.07.013
Compound 1: methyl 2-hydroxypropanoate, C4H8O3, InChI=1S/C4H8O3/c1-3(5)4(6)7-2/h3,5H,1-2H3, purity 99.7%
Compound 2: DL-ethyl lactate, C5H10O3, InChI=1S/C5H10O3/c1-3-8-5(7)4(2)6/h4,6H,3H2,1-2H3, purity 99.7%
Compound 3: methanol, CH4O, InChI=1S/CH4O/c1-2/h2H,1H3, purity 99.8%
Compound 4: ethanol, C2H6O, InChI=1S/C2H6O/c1-2-3/h3H,2H2,1H3, purity 99.8%
Compound 5: propan-1-ol, C3H8O, InChI=1S/C3H8O/c1-2-3-4/h4H,2-3H2,1H3, purity 99.8%
Compound 6: butan-1-ol, C4H10O, InChI=1S/C4H10O/c1-2-3-4-5/h5H,2-4H2,1H3, purity 99.9%

System: methyl 2-hydroxypropanoate; phases: Liquid
Property: Mass density, kg/m3 (Liquid); method: Vibrating tube method
Temperature, K	Pressure, kPa	Mass density, kg/m3	uncertainty
298.15	100	1087.35	0.13

System: methyl 2-hydroxypropanoate; phases: Liquid
Property: Speed of sound, m/s (Liquid); method: Single path-length method
Temperature, K	Pressure, kPa	Frequency, MHz	Speed of sound, m/s	uncertainty
298.15	100	3	1339.3	0.59

System: DL-ethyl lactate; phases: Liquid
Property: Mass density, kg/m3 (Liquid); method: Vibrating tube method
Temperature, K	Pressure, kPa	Mass density, kg/m3	uncertainty
298.15	100	1028.45	0.12

System: DL-ethyl lactate; phases: Liquid
Property: Speed of sound, m/s (Liquid); method: Single path-length method
Temperature, K	Pressure, kPa	Frequency, MHz	Speed of sound, m/s	uncertainty
298.15	100	3	1279.34	0.59

System: methanol; phases: Liquid
Property: Mass density, kg/m3 (Liquid); method: Vibrating tube method
Temperature, K	Pressure, kPa	Mass density, kg/m3	uncertainty
298.15	100	786.53	0.15

System: methanol; phases: Liquid
Property: Speed of sound, m/s (Liquid); method: Single path-length method
Temperature, K	Pressure, kPa	Frequency, MHz	Speed of sound, m/s	uncertainty
298.15	100	3	1103.95	0.55

System: ethanol; phases: Liquid
Property: Mass density, kg/m3 (Liquid); method: Vibrating tube method
Temperature, K	Pressure, kPa	Mass density, kg/m3	uncertainty
298.15	100	785.16	0.15

System: ethanol; phases: Liquid
Property: Speed of sound, m/s (Liquid); method: Single path-length method
Temperature, K	Pressure, kPa	Frequency, MHz	Speed of sound, m/s	uncertainty
298.15	100	3	1143.25	0.55

System: propan-1-ol; phases: Liquid
Property: Mass density, kg/m3 (Liquid); method: Vibrating tube method
Temperature, K	Pressure, kPa	Mass density, kg/m3	uncertainty
298.15	100	799.66	0.15

System: propan-1-ol; phases: Liquid
Property: Speed of sound, m/s (Liquid); method: Single path-length method
Temperature, K	Pressure, kPa	Frequency, MHz	Speed of sound, m/s	uncertainty
298.15	100	3	1205.97	0.55

System: butan-1-ol; phases: Liquid
Property: Mass density, kg/m3 (Liquid); method: Vibrating tube method
Temperature, K	Pressure, kPa	Mass density, kg/m3	uncertainty
298.15	100	805.95	0.14

System: butan-1-ol; phases: Liquid
Property: Speed of sound, m/s (Liquid); method: Single path-length method
Temperature, K	Pressure, kPa	Frequency, MHz	Speed of sound, m/s	uncertainty
298.15	100	3	1240.43	0.52

System: methyl 2-hydroxypropanoate + methanol; phases: Liquid
Fixed: Temperature, K = 298.15
Fixed: Pressure, kPa = 100
Property: Mass density, kg/m3 (Liquid); method: Vibrating tube method
Mole fraction of methyl 2-hydroxypropanoate	Mass density, kg/m3	uncertainty
0	786.53	0.15
0.0565	826.67	0.19
0.0945	850.35	0.17
0.1933	902.12	0.15
0.3029	947.03	0.14
0.3844	974.04	0.13
0.5099	1008.1	0.12
0.6105	1029.88	0.12
0.7215	1049.84	0.12
0.8206	1064.82	0.13
0.9225	1078.13	0.13
0.9601	1082.7	0.13
1	1087.35	0.13

System: methyl 2-hydroxypropanoate + methanol; phases: Liquid
Fixed: Temperature, K = 298.15
Fixed: Pressure, kPa = 100
Fixed: Frequency, MHz = 3
Property: Speed of sound, m/s (Liquid); method: Single path-length method
Mole fraction of methyl 2-hydroxypropanoate	Speed of sound, m/s	uncertainty
0	1103.95	0.55
0.0565	1134.49	0.56
0.0945	1152.93	0.56
0.1933	1196.39	0.56
0.3029	1234.1	0.56
0.3844	1254.69	0.57
0.5099	1282.43	0.57
0.6105	1301.44	0.57
0.7215	1318.23	0.58
0.8206	1329.75	0.58
0.9225	1337.11	0.59
0.9601	1338.83	0.59
1	1339.3	0.59

System: methyl 2-hydroxypropanoate + methanol; phases: Liquid
Fixed: Temperature, K = 298.15
Fixed: Pressure, kPa = 100
Property: Excess molar enthalpy (molar enthalpy of mixing), kJ/mol (Liquid); method: Power-compensation calorimetry
Mole fraction of methyl 2-hydroxypropanoate	Excess molar enthalpy (molar enthalpy of mixing), kJ/mol	uncertainty
0.104	0.0159	0.0009
0.151	0.0164	0.0009
0.262	0.0049	0.0009
0.287	0.0009	0.0009
0.316	-0.004	0.0009
0.399	-0.0173	0.001
0.482	-0.0301	0.001
0.595	-0.0378	0.0011
0.687	-0.0392	0.0011
0.798	-0.0287	0.001
0.879	-0.0184	0.001
0.945	-0.0081	0.0009

System: methyl 2-hydroxypropanoate + ethanol; phases: Liquid
Fixed: Temperature, K = 298.15
Fixed: Pressure, kPa = 100
Property: Mass density, kg/m3 (Liquid); method: Vibrating tube method
Mole fraction of methyl 2-hydroxypropanoate	Mass density, kg/m3	uncertainty
0	785.16	0.15
0.0492	809.35	0.17
0.0968	831.45	0.16
0.2099	879.28	0.15
0.3161	918.72	0.14
0.3921	944.17	0.13
0.4987	976.29	0.13
0.5872	1000.2	0.12
0.6963	1026.72	0.12
0.8007	1049.53	0.13
0.8814	1065.65	0.13
0.9535	1079.11	0.13
1	1087.35	0.13

System: methyl 2-hydroxypropanoate + ethanol; phases: Liquid
Fixed: Temperature, K = 298.15
Fixed: Pressure, kPa = 100
Fixed: Frequency, MHz = 3
Property: Speed of sound, m/s (Liquid); method: Single path-length method
Mole fraction of methyl 2-hydroxypropanoate	Speed of sound, m/s	uncertainty
0	1143.25	0.55
0.0492	1158.05	0.55
0.0968	1172.28	0.55
0.2099	1203.66	0.56
0.3161	1229.41	0.56
0.3921	1245.16	0.57
0.4987	1266.11	0.57
0.5872	1283.31	0.57
0.6963	1300.78	0.58
0.8007	1316.38	0.58
0.8814	1326.54	0.59
0.9535	1334.38	0.59
1	1339.3	0.59

System: methyl 2-hydroxypropanoate + ethanol; phases: Liquid
Fixed: Temperature, K = 298.15
Fixed: Pressure, kPa = 100
Property: Excess molar enthalpy (molar enthalpy of mixing), kJ/mol (Liquid); method: Power-compensation calorimetry
Mole fraction of methyl 2-hydroxypropanoate	Excess molar enthalpy (molar enthalpy of mixing), kJ/mol	uncertainty
0.056	0.116	0.004
0.104	0.208	0.005
0.185	0.335	0.005
0.225	0.39	0.006
0.281	0.439	0.006
0.464	0.461	0.006
0.543	0.425	0.006
0.666	0.345	0.005
0.794	0.238	0.004
0.903	0.118	0.003
0.952	0.063	0.0026

System: methyl 2-hydroxypropanoate + propan-1-ol; phases: Liquid
Fixed: Temperature, K = 298.15
Fixed: Pressure, kPa = 100
Property: Mass density, kg/m3 (Liquid); method: Vibrating tube method
Mole fraction of methyl 2-hydroxypropanoate	Mass density, kg/m3	uncertainty
0	799.66	0.15
0.045	815.93	0.16
0.1025	836.2	0.15
0.2047	870.81	0.15
0.3	901.52	0.14
0.4004	932.31	0.13
0.5012	961.71	0.13
0.5911	986.71	0.12
0.6935	1013.88	0.12
0.7978	1040.2	0.13
0.9	1064.67	0.13
0.945	1075.04	0.13
1	1087.35	0.13

System: methyl 2-hydroxypropanoate + propan-1-ol; phases: Liquid
Fixed: Temperature, K = 298.15
Fixed: Pressure, kPa = 100
Fixed: Frequency, MHz = 3
Property: Speed of sound, m/s (Liquid); method: Single path-length method
Mole fraction of methyl 2-hydroxypropanoate	Speed of sound, m/s	uncertainty
0	1205.97	0.55
0.045	1211.52	0.55
0.1025	1218.9	0.55
0.2047	1232.45	0.56
0.3	1245.42	0.56
0.4004	1259.75	0.56
0.5012	1274.08	0.57
0.5911	1286.89	0.57
0.6935	1300.82	0.58
0.7978	1315.14	0.58
0.9	1327.62	0.59
0.945	1333.14	0.59
1	1339.3	0.59

System: methyl 2-hydroxypropanoate + propan-1-ol; phases: Liquid
Fixed: Temperature, K = 298.15
Fixed: Pressure, kPa = 100
Property: Excess molar enthalpy (molar enthalpy of mixing), kJ/mol (Liquid); method: Power-compensation calorimetry
Mole fraction of methyl 2-hydroxypropanoate	Excess molar enthalpy (molar enthalpy of mixing), kJ/mol	uncertainty
0.05	0.191	0.006
0.104	0.348	0.007
0.207	0.562	0.008
0.309	0.676	0.009
0.411	0.721	0.009
0.501	0.713	0.009
0.607	0.655	0.009
0.707	0.556	0.008
0.802	0.421	0.007
0.902	0.222	0.005
0.95	0.108	0.005

System: methyl 2-hydroxypropanoate + butan-1-ol; phases: Liquid
Fixed: Temperature, K = 298.15
Fixed: Pressure, kPa = 100
Property: Mass density, kg/m3 (Liquid); method: Vibrating tube method
Mole fraction of methyl 2-hydroxypropanoate	Mass density, kg/m3	uncertainty
0	805.95	0.14
0.0589	822.83	0.15
0.1088	837.09	0.15
0.1905	860.37	0.14
0.2973	890.71	0.14
0.3887	916.62	0.13
0.4999	948.04	0.13
0.5977	975.58	0.13
0.6976	1003.57	0.12
0.7926	1030.02	0.13
0.9107	1062.72	0.13
0.9577	1075.69	0.14
1	1087.35	0.13

System: methyl 2-hydroxypropanoate + butan-1-ol; phases: Liquid
Fixed: Temperature, K = 298.15
Fixed: Pressure, kPa = 100
Fixed: Frequency, MHz = 3
Property: Speed of sound, m/s (Liquid); method: Single path-length method
Mole fraction of methyl 2-hydroxypropanoate	Speed of sound, m/s	uncertainty
0	1240.43	0.52
0.0589	1242.78	0.52
0.1088	1245.12	0.52
0.1905	1249.8	0.53
0.2973	1257.24	0.54
0.3887	1265.01	0.54
0.4999	1275.8	0.55
0.5977	1286.39	0.56
0.6976	1298.35	0.56
0.7926	1310.61	0.57
0.9107	1326.64	0.58
0.9577	1333.24	0.59
1	1339.3	0.59

System: methyl 2-hydroxypropanoate + butan-1-ol; phases: Liquid
Fixed: Temperature, K = 298.15
Fixed: Pressure, kPa = 100
Property: Excess molar enthalpy (molar enthalpy of mixing), kJ/mol (Liquid); method: Power-compensation calorimetry
Mole fraction of methyl 2-hydroxypropanoate	Excess molar enthalpy (molar enthalpy of mixing), kJ/mol	uncertainty
0.054	0.222	0.007
0.132	0.457	0.008
0.174	0.577	0.009
0.287	0.778	0.01
0.384	0.855	0.011
0.487	0.865	0.011
0.552	0.837	0.011
0.705	0.671	0.009
0.75	0.571	0.009
0.864	0.321	0.006
0.934	0.163	0.005

System: DL-ethyl lactate + methanol; phases: Liquid
Fixed: Temperature, K = 298.15
Fixed: Pressure, kPa = 100
Property: Mass density, kg/m3 (Liquid); method: Vibrating tube method
Mole fraction of DL-ethyl lactate	Mass density, kg/m3	uncertainty
0	786.53	0.15
0.0432	816.63	0.19
0.0935	846.09	0.17
0.1911	890.78	0.15
0.2979	926.51	0.13
0.3976	951.94	0.12
0.5018	972.85	0.12
0.5789	985.46	0.12
0.695	1000.96	0.11
0.8045	1012.66	0.12
0.9018	1021.2	0.12
0.9622	1025.79	0.12
1	1028.45	0.12

System: DL-ethyl lactate + methanol; phases: Liquid
Fixed: Temperature, K = 298.15
Fixed: Pressure, kPa = 100
Fixed: Frequency, MHz = 3
Property: Speed of sound, m/s (Liquid); method: Single path-length method
Mole fraction of DL-ethyl lactate	Speed of sound, m/s	uncertainty
0	1103.95	0.55
0.0432	1125.5	0.6
0.0935	1149.11	0.56
0.1911	1187.02	0.56
0.2979	1215.43	0.56
0.3976	1234.51	0.57
0.5018	1250.53	0.57
0.5789	1258.98	0.57
0.695	1270.32	0.58
0.8045	1275.92	0.58
0.9018	1278.25	0.59
0.9622	1278.96	0.59
1	1279.34	0.59

System: DL-ethyl lactate + methanol; phases: Liquid
Fixed: Temperature, K = 298.15
Fixed: Pressure, kPa = 100
Property: Excess molar enthalpy (molar enthalpy of mixing), kJ/mol (Liquid); method: Power-compensation calorimetry
Mole fraction of DL-ethyl lactate	Excess molar enthalpy (molar enthalpy of mixing), kJ/mol	uncertainty
0.051	-0.0368	0.0016
0.104	-0.0696	0.0018
0.209	-0.125	0.002
0.327	-0.151	0.002
0.437	-0.158	0.002
0.569	-0.149	0.002
0.621	-0.131	0.002
0.763	-0.0833	0.0017
0.83	-0.0562	0.0015
0.905	-0.0281	0.0012
0.958	-0.011	0.0011

System: DL-ethyl lactate + ethanol; phases: Liquid
Fixed: Temperature, K = 298.15
Fixed: Pressure, kPa = 100
Property: Mass density, kg/m3 (Liquid); method: Vibrating tube method
Mole fraction of DL-ethyl lactate	Mass density, kg/m3	uncertainty
0	785.16	0.15
0.0522	809.88	0.17
0.0957	828.74	0.16
0.1946	866.53	0.15
0.2902	897.43	0.14
0.4011	927.58	0.13
0.4995	950.3	0.12
0.6076	971.75	0.12
0.6931	986.54	0.12
0.7965	1002.43	0.12
0.9047	1017.03	0.12
0.9511	1022.75	0.12
1	1028.45	0.12

System: DL-ethyl lactate + ethanol; phases: Liquid
Fixed: Temperature, K = 298.15
Fixed: Pressure, kPa = 100
Fixed: Frequency, MHz = 3
Property: Speed of sound, m/s (Liquid); method: Single path-length method
Mole fraction of DL-ethyl lactate	Speed of sound, m/s	uncertainty
0	1143.25	0.55
0.0522	1158.13	0.55
0.0957	1169.73	0.55
0.1946	1192.82	0.56
0.2902	1211.32	0.56
0.4011	1229.32	0.56
0.4995	1240.82	0.57
0.6076	1252.82	0.57
0.6931	1261.43	0.58
0.7965	1268.65	0.58
0.9047	1275.15	0.59
0.9511	1277.29	0.59
1	1279.34	0.59

System: DL-ethyl lactate + ethanol; phases: Liquid
Fixed: Temperature, K = 298.15
Fixed: Pressure, kPa = 100
Property: Excess molar enthalpy (molar enthalpy of mixing), kJ/mol (Liquid); method: Power-compensation calorimetry
Mole fraction of DL-ethyl lactate	Excess molar enthalpy (molar enthalpy of mixing), kJ/mol	uncertainty
0.054	0.0739	0.0027
0.114	0.141	0.003
0.225	0.21	0.003
0.312	0.232	0.003
0.42	0.24	0.003
0.511	0.225	0.003
0.635	0.191	0.003
0.737	0.146	0.003
0.829	0.0908	0.002
0.93	0.0406	0.0015
0.96	0.02	0.0017

System: DL-ethyl lactate + propan-1-ol; phases: Liquid
Fixed: Temperature, K = 298.15
Fixed: Pressure, kPa = 100
Property: Mass density, kg/m3 (Liquid); method: Vibrating tube method
Mole fraction of DL-ethyl lactate	Mass density, kg/m3	uncertainty
0	799.66	0.15
0.0489	816.57	0.16
0.1025	834.15	0.15
0.2027	864.58	0.14
0.3036	892.35	0.14
0.3973	915.89	0.13
0.4963	938.64	0.13
0.6012	960.68	0.12
0.6951	978.76	0.12
0.8061	998.37	0.12
0.9076	1014.74	0.12
0.9482	1020.9	0.12
1	1028.45	0.12

System: DL-ethyl lactate + propan-1-ol; phases: Liquid
Fixed: Temperature, K = 298.15
Fixed: Pressure, kPa = 100
Fixed: Frequency, MHz = 3
Property: Speed of sound, m/s (Liquid); method: Single path-length method
Mole fraction of DL-ethyl lactate	Speed of sound, m/s	uncertainty
0	1205.97	0.55
0.0489	1211.14	0.55
0.1025	1216.4	0.55
0.2027	1225.85	0.56
0.3036	1235.22	0.56
0.3973	1242.53	0.56
0.4963	1250.16	0.57
0.6012	1257.83	0.57
0.6951	1263.89	0.58
0.8061	1270.38	0.58
0.9076	1275.56	0.59
0.9482	1277.3	0.59
1	1279.34	0.59

System: DL-ethyl lactate + propan-1-ol; phases: Liquid
Fixed: Temperature, K = 298.15
Fixed: Pressure, kPa = 100
Property: Excess molar enthalpy (molar enthalpy of mixing), kJ/mol (Liquid); method: Power-compensation calorimetry
Mole fraction of DL-ethyl lactate	Excess molar enthalpy (molar enthalpy of mixing), kJ/mol	uncertainty
0.025	0.096	0.0072
0.054	0.198	0.006
0.117	0.341	0.006
0.216	0.455	0.006
0.309	0.502	0.007
0.404	0.507	0.007
0.517	0.481	0.006
0.612	0.421	0.006
0.712	0.32	0.005
0.814	0.192	0.004
0.905	0.0878	0.0028

System: DL-ethyl lactate + butan-1-ol; phases: Liquid
Fixed: Temperature, K = 298.15
Fixed: Pressure, kPa = 100
Property: Mass density, kg/m3 (Liquid); method: Vibrating tube method
Mole fraction of DL-ethyl lactate	Mass density, kg/m3	uncertainty
0	805.95	0.14
0.0502	819.65	0.15
0.0914	830.65	0.15
0.1929	856.89	0.14
0.3041	884.31	0.13
0.4061	908.31	0.13
0.4991	929.27	0.13
0.6037	951.84	0.12
0.707	973.11	0.12
0.7968	990.82	0.12
0.8927	1008.98	0.12
0.9527	1019.97	0.12
1	1028.45	0.12

System: DL-ethyl lactate + butan-1-ol; phases: Liquid
Fixed: Temperature, K = 298.15
Fixed: Pressure, kPa = 100
Fixed: Frequency, MHz = 3
Property: Speed of sound, m/s (Liquid); method: Single path-length method
Mole fraction of DL-ethyl lactate	Speed of sound, m/s	uncertainty
0	1240.43	0.52
0.0502	1241.3	0.52
0.0914	1242.13	0.52
0.1929	1244.73	0.53
0.3041	1248.3	0.54
0.4061	1252.27	0.54
0.4991	1256.04	0.55
0.6037	1260.75	0.56
0.707	1265.87	0.56
0.7968	1270.07	0.57
0.8927	1274.63	0.58
0.9527	1277.34	0.59
1	1279.34	0.59

System: DL-ethyl lactate + butan-1-ol; phases: Liquid
Fixed: Temperature, K = 298.15
Fixed: Pressure, kPa = 100
Property: Excess molar enthalpy (molar enthalpy of mixing), kJ/mol (Liquid); method: Power-compensation calorimetry
Mole fraction of DL-ethyl lactate	Excess molar enthalpy (molar enthalpy of mixing), kJ/mol	uncertainty
0.048	0.197	0.006
0.103	0.352	0.006
0.233	0.567	0.008
0.314	0.625	0.008
0.414	0.645	0.008
0.527	0.61	0.008
0.626	0.53	0.007
0.714	0.415	0.006
0.82	0.246	0.005
0.91	0.125	0.004
0.951	0.054	0.0037
