Measured thermophysical data. The low-temperature heat capacity and ideal gas thermodynamic properties of isobutyl tert-butyl ether
Source: J. Chem. Thermodyn., 2006, 10.1016/j.jct.2005.02.003
Compound 1: isobutyl tert-butyl ether, C8H18O, InChI=1S/C8H18O/c1-7(2)6-9-8(3,4)5/h7H,6H2,1-5H3

System: isobutyl tert-butyl ether; phases: Crystal, Liquid, Gas
Property: Molar enthalpy of transition or fusion, kJ/mol (Crystal); method: Adiabatic calorimetry
Molar enthalpy of transition or fusion, kJ/mol	uncertainty
8.65	0.05

System: isobutyl tert-butyl ether; phases: Crystal, Liquid, Gas
Property: Triple point temperature, K (Crystal); method: Adiabatic calorimetry
Triple point temperature, K	uncertainty
162.33	0.05

System: isobutyl tert-butyl ether; phases: Crystal
Fixed: Pressure, kPa = 101.325
Property: Molar heat capacity at constant pressure, J/K/mol (Crystal); method: SMALLAD:UFactor:2
Temperature, K	Molar heat capacity at constant pressure, J/K/mol	uncertainty
5	0.38	0.055
10	3.042	0.139
15	9.221	0.299
20	16.85	0.45
25	24.7	0.53
30	32.07	0.52
35	38.76	0.59
40	44.8	0.65
45	50.39	0.71
50	55.71	0.76
55	60.91	0.81
60	66.03	0.86
65	71.08	0.91
70	76.09	0.96
75	81.05	1.01
80	85.97	1.08
85	90.88	1.08
90	95.78	1.16
95	100.6	1.2
100	105.4	1.2
110	114.9	1.3
120	124	1.4
130	132.7	1.5
140	140.5	1.5
150	147.3	1.6
160	152.6	1.6
162.33	153.6	1.7

System: isobutyl tert-butyl ether; phases: Crystal
Fixed: Pressure, kPa = 101.325
Property: Molar heat capacity at constant pressure, J/K/mol (Crystal); method: SMALLAD:UFactor:2
Temperature, K	Molar heat capacity at constant pressure, J/K/mol	uncertainty
7.68	1.339	0.086
8.33	1.743	0.099
8.97	2.217	0.114
9.61	2.779	0.131
10.26	3.32	0.147
11.02	4.139	0.17
11.92	5.166	0.199
12.83	6.289	0.229
13.74	7.45	0.258
14.65	8.714	0.291
15.57	10.02	0.32
16.48	11.42	0.35
17.41	12.82	0.37
18.34	14.27	0.4
19.27	15.69	0.42
20.2	17.2	0.45
21.22	18.77	0.47
22.29	20.45	0.49
23.35	22.1	0.52
24.42	23.8	0.53
25.49	25.53	0.54
26.55	27.09	0.55
27.63	28.56	0.55
28.7	30.12	0.56
29.77	31.74	0.56
30.84	33.37	0.53
31.91	34.71	0.55
32.98	36.13	0.56
34.05	37.59	0.57
35.12	38.89	0.59
36.19	40.25	0.61
37.26	41.63	0.61
38.34	42.83	0.63
39.41	44.07	0.64
40.47	45.31	0.66
41.54	46.53	0.67
42.6	47.83	0.68
43.66	48.91	0.69
44.72	50.25	0.71
45.78	51.18	0.71
46.84	52.39	0.72
47.9	53.45	0.73
48.96	54.66	0.75
50.01	55.57	0.76
51.07	56.57	0.77
52.12	57.81	0.78
53.17	59.02	0.79
54.22	60.27	0.81
55.27	61.56	0.81
56.31	63.16	0.83
57.36	64.51	0.85
58.41	64.56	0.85
59.46	65.29	0.86
63.63	70.22	0.91
64.68	70.75	0.91
65.72	72.16	0.92
66.76	73.11	0.93
67.8	74.04	0.94
68.84	74.44	0.95
69.88	75.46	0.96
70.92	76.66	0.96
71.95	77.53	0.97
74.01	79.84	1
75.04	81.32	1.01
76.07	82.23	1.02
77.1	83.09	1.03
79.16	85.64	1.08
80.19	86.55	1.08
80.56	86.3	1.08
81.22	87.3	1.08
82.25	88.55	1.08
83.28	89.21	1.08
83.57	89.05	1.08
86.51	92.54	1.16
87.51	93.29	1.16
88.51	93.95	1.16
89.5	95.12	1.16
90.5	96.03	1.16
91.51	97.11	1.16
92.51	98.28	1.16
93.5	99.11	1.16
94.49	100.2	1.2
95.48	101.4	1.2
96.48	102.4	1.2
97.47	103.3	1.2
98.47	104.1	1.2
99.46	105	1.2
100.45	105.8	1.2
101.44	106.9	1.2
102.44	108.1	1.2
103.44	108.7	1.2
104.44	109.5	1.2
105.43	110.5	1.2
106.41	111.5	1.3
107.39	112.7	1.3
108.37	113.4	1.3
109.35	114.2	1.3
110.32	115.2	1.3
111.31	116	1.3
112.29	117	1.3
113.28	117.8	1.3
114.26	118.6	1.3
115.24	119.6	1.3
116.22	120.5	1.3
117.2	121.3	1.3
118.17	122.1	1.4
119.15	123.1	1.4
120.12	124.2	1.4
121.09	124.8	1.4
123.02	126.6	1.4
123.99	127.8	1.4
124.96	128.5	1.4
125.92	129.5	1.4
126.91	130.2	1.4
127.1	130.5	1.4
127.9	130.9	1.4
128.89	131.3	1.4
129.13	131.9	1.5
130.13	132.5	1.5
132.12	134.9	1.5
133.1	135.4	1.5
134.08	135.9	1.5
136.02	137.6	1.5
136.98	138.6	1.5
137.94	138.9	1.5
138.89	140	1.5
139.84	140.1	1.5
140.78	140.8	1.5
141.71	142	1.5
142.63	142.5	1.6
143.56	143.4	1.6
144.49	143.5	1.6
145.41	144.2	1.6
146.33	144.7	1.6
147.24	145.3	1.6
149.06	146.4	1.6
150.86	147.4	1.6
151.76	148.4	1.6
152.66	149	1.6
153.55	149.9	1.6
156.22	153.2	1.7
157.08	153.7	1.7
157.95	155.8	1.7

System: isobutyl tert-butyl ether; phases: Liquid
Fixed: Pressure, kPa = 101.325
Property: Molar heat capacity at constant pressure, J/K/mol (Liquid); method: VADIAC:UFactor:2
Temperature, K	Molar heat capacity at constant pressure, J/K/mol	uncertainty
115.82	198.1	0.83
116.8	199.6	0.83
117.8	200	0.83
118.8	200.4	0.83
119.8	200.7	0.83
120.79	201	0.83
121.77	201.5	0.83
122.76	202	0.83
123.76	202.1	0.83
124.76	202.3	0.83
125.75	202.9	0.83
126.75	202.9	0.83
127.74	203.5	0.83
128.73	204.2	0.83
129.7	204.7	0.83
130.64	204.9	0.83
131.57	205	0.83
132.51	205.5	0.83
133.45	205.9	0.83
134.39	206.2	0.83
135.33	206.4	0.83
136.26	206.9	0.83
137.2	207.9	0.83
149.71	210	0.83
151.77	210.7	0.83
153.82	211.9	0.83
155.87	212.5	0.83
157.9	213.3	0.83
159.92	214	0.83
161.93	214.7	0.83
163.93	215.4	0.83
163.93	215.4	0.83
165.92	216.2	0.83
165.92	216.2	0.83
167.9	216.8	0.83
167.9	216.8	0.83
169.88	217.5	0.83
169.88	217.5	0.83
171.84	218.3	0.83
173.8	219.3	0.83
175.75	220.1	0.83
177.69	220.3	0.83
179.63	221.1	0.83
181.56	221.9	0.83
183.49	222.7	0.83
185.4	223.2	0.83
187.31	224.1	0.83
189.21	224.7	0.83
191.11	225.4	0.83
193	226	0.83
194.89	226.8	0.83
196.77	227.4	0.83
198.65	227.8	0.83
200.52	228.5	0.83
201.82	229.6	0.83
202.53	229.1	0.83
203.25	229.2	0.83
203.96	229.6	0.83
204.67	230.4	0.83
205.41	230.1	0.83
206.12	230.8	0.83
206.84	231.4	0.83
207.55	231.1	0.83
208.27	231.1	0.83
208.98	232.1	0.83
209.69	232	0.83
210.4	232.3	0.83
211.12	232.6	0.83
211.83	233	0.83
212.55	233.1	0.83
213.26	233.6	0.83
213.97	233.7	0.83
214.69	233.6	0.83
215.4	234.1	0.83
216.12	234.1	0.83
216.87	233.8	0.83
217.59	234.2	0.83
218.3	234.6	0.83
219.02	235.9	0.92
219.73	236	0.92
220.45	236.2	0.92
221.17	236	0.92
221.89	237	0.92
222.6	237	0.92
223.33	236.7	0.92
224.04	237.6	0.92
224.76	237.8	0.92
225.48	237.8	0.92
226.2	238	0.92
226.92	238.6	0.92
227.65	238.6	0.92
228.42	239.6	0.92
229.14	239.3	0.92
229.86	239.6	0.92
230.59	239.5	0.92
231.31	240.6	0.92
232.04	240.4	0.92
233.48	240.4	0.92
234.2	240.9	0.92
235.65	242	0.92
236.37	242.7	0.92
237.1	242.3	0.92
237.82	242.2	0.92
238.55	243.6	0.92
239.27	243.4	0.92
240.05	243.3	0.92
240.77	243.8	0.92
241.5	243.9	0.92
242.22	244.6	0.92
242.94	245.2	0.92
243.67	244.9	0.92
244.39	244.9	0.92
245.12	245.9	0.92
246.57	247	0.92
247.3	245.8	0.92
248.03	247	0.92
248.76	247.9	0.92
249.49	247.9	0.92
250.22	248.3	0.92
251.77	248	0.92
252.51	248.4	0.92
253.24	249	0.92
253.98	249.8	0.92
254.72	250.5	0.92
255.46	250.1	0.92
256.2	251	0.92
256.95	251.3	0.92
257.7	250.7	0.92
258.45	251.2	0.92
259.2	251.6	0.92
259.95	252.5	0.92
260.71	252.3	0.92
261.46	252.8	0.92
262.22	253.6	0.92
263.85	253.7	0.92
264.62	254.4	0.92
265.39	254.4	0.92
266.16	255.3	0.92
266.93	255.3	0.92
267.7	255.9	0.92
268.48	256.3	0.92
269.26	256.4	0.92
270.82	256.8	0.92
273.2	258	0.92
274	258.2	0.92
274.8	258.2	0.92
275.61	258.9	0.92
276.58	259.7	0.92
277.39	259.4	0.92
279.03	261.1	0.92
279.86	261.4	0.92
280.69	261	0.92
282.66	262.3	0.92
283.22	262.3	0.92
284.18	262.8	0.92
284.95	263.7	0.92
285.74	263.4	0.92
287.3	264	0.92
287.56	264.4	0.92
288.43	264.7	0.92
288.86	264.2	0.92
290.42	264.9	0.92
290.43	265.6	0.92
291.99	265.5	0.92
295.17	266.9	0.92
298.38	268.5	0.92
299.98	269.1	0.92
301.59	269.8	0.92
303.21	270.6	0.92
304.86	271.6	0.92
306.49	272.2	0.92
308.3	273.1	0.92
309.95	274	0.92
311.6	274.4	0.92
313.27	275.7	0.92
314.92	276.5	0.92
316.58	277.2	0.92
318.24	278.5	1
319.91	278.9	1
321.57	279.3	1
323.26	280.8	1
324.94	281.6	1
326.61	282.4	1
328.29	283.1	1
329.99	283.8	1
331.66	284.7	1
333.33	285.5	1
335.19	285.9	1
336.85	286.8	1
338.51	287.9	1
340.16	289	1
341.81	290	1
343.47	291.2	1
345.13	291.6	1
346.78	292.3	1
348.44	293	1
350.08	294.6	1
351.76	295.7	1
353.42	296.9	1

System: isobutyl tert-butyl ether; phases: Glass
Fixed: Pressure, kPa = 101.325
Property: Molar heat capacity at constant pressure, J/K/mol (Glass); method: VADIAC:UFactor:8
Temperature, K	Molar heat capacity at constant pressure, J/K/mol	uncertainty
80.42	91.54	1.75
81.39	92.71	1.83
82.32	93.45	1.83
83.29	95.2	1.83
84.28	95.95	1.83
85.22	97.36	1.91
86.13	97.2	1.91
87.04	98.86	1.91
87.98	100.5	1.9
88.93	101.4	1.9
89.88	102.9	2
90.83	103.8	2.4
91.79	104.5	2.4
92.74	105.8	2.4
93.68	107.3	2.5
94.62	107.9	2.5
95.55	107.9	2.5
96.51	109.8	2.5
97.47	111.7	2.5
98.41	112.7	2.5
99.31	114.5	2.5
100.2	113.8	2.5
101.1	115.2	2.5
101.97	117.3	2.6
102.84	117.8	2.6
103.72	119	2.6
104.61	120.2	2.6
105.51	121.5	2.6
106.42	123.1	2.6
107.34	124.7	2.6
108.29	126.4	2.6
109.25	128.9	2.7
110.23	130	2.7
111.21	134	2.7
112.18	138.9	2.7
113.14	146.1	2.7
114.06	162.4	2.9
114.91	193.9	3.2

System: isobutyl tert-butyl ether; phases: Liquid
Fixed: Pressure, kPa = 101.325
Property: Molar heat capacity at constant pressure, J/K/mol (Liquid); method: SMALLAD:UFactor:2
Temperature, K	Molar heat capacity at constant pressure, J/K/mol	uncertainty
162.33	214.8	2.1
170	217.7	2.2
180	221.4	2.2
190	225	2.2
200	228.5	2.2
210	232.1	2.2
220	235.8	2.3
230	239.7	2.3
240	243.7	2.3
250	247.9	2.4
260	252.2	2.4
270	256.6	2.5
280	260.9	2.5
290	265.2	2.5
298.15	268.7	2.6
300	269.6	2.6
310	274	2.6
320	278.7	2.7
330	283.7	2.7
340	289	2.7
350	294.5	2.7

System: isobutyl tert-butyl ether; phases: Crystal
Fixed: Pressure, kPa = 101.325
Property: Molar enthalpy function {Hm(T)-Hm(0)}/T, J/K/mol (Crystal); method: SMALLAD:UFactor:2
Temperature, K	Molar enthalpy function {Hm(T)-Hm(0)}/T, J/K/mol	uncertainty
5	0.0956	0.043
10	0.76	0.065
15	2.494	0.11
20	5.114	0.163
25	8.252	0.205
30	11.62	0.32
35	15.07	0.35
40	18.38	0.38
45	21.63	0.42
50	24.76	0.45
55	27.82	0.48
60	30.78	0.51
65	33.69	0.54
70	36.54	0.56
75	39.34	0.59
80	42.1	0.62
85	44.83	0.65
90	47.53	0.78
95	50.19	0.8
100	52.83	0.82
110	58.04	0.86
120	63.17	0.91
130	68.19	0.95
140	73.07	0.98
150	77.8	1.02
160	82.31	1.06
162.33	83.31	1.08

System: isobutyl tert-butyl ether; phases: Liquid
Fixed: Pressure, kPa = 101.325
Property: Molar enthalpy function {Hm(T)-Hm(0)}/T, J/K/mol (Liquid); method: SMALLAD:UFactor:2
Temperature, K	Molar enthalpy function {Hm(T)-Hm(0)}/T, J/K/mol	uncertainty
162.33	136.6	1.5
170	140.3	1.5
180	144.6	1.6
190	148.7	1.6
200	152.7	1.7
210	156.4	1.7
220	159.9	1.7
230	163.3	1.7
240	166.5	1.7
250	169.7	1.7
260	172.8	1.7
270	175.9	1.8
280	178.8	1.8
290	181.7	1.8
298.15	184	1.9
300	184.5	1.9
310	187.3	1.9
320	190.2	1.9
330	192.9	1.9
340	195.6	2
350	198.4	2

System: isobutyl tert-butyl ether; phases: Crystal
Fixed: Pressure, kPa = 101.325
Property: Molar entropy, J/K/mol (Crystal); method: SMALLAD:UFactor:2
Temperature, K	Molar entropy, J/K/mol	uncertainty
5	0.126	0.067
10	1.014	0.109
15	3.348	0.201
20	7.028	0.314
25	11.64	0.41
30	16.8	0.55
35	22.26	0.63
40	27.83	0.71
45	33.44	0.8
50	39.02	0.89
55	44.58	0.97
60	50.1	1.06
65	55.58	1.13
70	61.03	1.21
75	66.45	1.3
80	71.84	1.38
85	77.2	1.46
90	82.53	1.59
95	87.88	1.66
100	93.12	1.75
110	103.6	1.8
120	114	2
130	124.3	2.1
140	134.4	2.2
150	144.3	2.3
160	154	2.4
162.33	156.2	2.5

System: isobutyl tert-butyl ether; phases: Liquid
Fixed: Pressure, kPa = 101.325
Property: Molar entropy, J/K/mol (Liquid); method: SMALLAD:UFactor:2
Temperature, K	Molar entropy, J/K/mol	uncertainty
162.33	209.5	3.1
170	219.5	3.2
180	232.1	3.4
190	244.1	3.5
200	255.8	3.7
210	267	3.8
220	277.9	3.9
230	288.4	4.1
240	298.7	4.2
250	308.8	4.3
260	318.6	4.4
270	328.2	4.6
280	337.6	4.7
290	346.8	4.7
298.15	354.1	4.8
300	355.9	4.9
310	364.8	5
320	373.6	5.1
330	382.2	5.2
340	390.8	5.3
350	399.2	5.4
