Measured thermophysical data. Thermophysical property characterization of tris(hydroxymethyl)aminomethane
Source: J. Chem. Thermodyn., 2011, 10.1016/j.jct.2010.08.016
Compound 1: 2-amino-2-(hydroxymethyl)-1,3-propanediol, C4H11NO3, InChI=1S/C4H11NO3/c5-4(1-6,2-7)3-8/h6-8H,1-3,5H2, purity 99.9%
Compound 2: water, H2O, InChI=1S/H2O/h1H2, purity 99.9%

System: 2-amino-2-(hydroxymethyl)-1,3-propanediol + water; phases: Liquid
Fixed: Pressure, kPa = 101
Property: Electrical conductivity, S/m (Liquid); method: Alternating current cell with electrodes
Mole fraction of 2-amino-2-(hydroxymethyl)-1,3-propanediol	Temperature, K	Electrical conductivity, S/m	uncertainty
0.01	293.15	0.01579	0.00032
0.01	303.15	0.0195	0.00039
0.01	313.15	0.02413	0.00048
0.01	323.15	0.0287	0.00057
0.01	333.15	0.0333	0.00067
0.01	343.15	0.03783	0.00076
0.01	353.15	0.04233	0.00085
0.02	293.15	0.0179	0.00036
0.02	303.15	0.02293	0.00046
0.02	313.15	0.0287	0.00057
0.02	323.15	0.0346	0.00069
0.02	333.15	0.04033	0.00081
0.02	343.15	0.046	0.00092
0.02	353.15	0.0514	0.00103
0.03	293.15	0.01893	0.00038
0.03	303.15	0.02473	0.00049
0.03	313.15	0.03103	0.00062
0.03	323.15	0.03727	0.00075
0.03	333.15	0.0435	0.00087
0.03	343.15	0.04967	0.00099
0.03	353.15	0.05553	0.00111
0.04	293.15	0.01927	0.00039
0.04	303.15	0.0253	0.00051
0.04	313.15	0.0318	0.00064
0.04	323.15	0.0385	0.00077
0.04	333.15	0.04523	0.0009
0.04	343.15	0.05177	0.00104
0.04	353.15	0.0579	0.00116
0.05	293.15	0.0205	0.00041
0.05	303.15	0.0271	0.00054
0.05	313.15	0.03407	0.00068
0.05	323.15	0.0411	0.00082
0.05	333.15	0.04817	0.00096
0.05	343.15	0.0552	0.0011
0.05	353.15	0.06187	0.00124
0.06	293.15	0.0205	0.00041
0.06	303.15	0.0271	0.00054
0.06	313.15	0.03407	0.00068
0.06	323.15	0.0411	0.00082
0.06	333.15	0.04817	0.00096
0.06	343.15	0.0552	0.0011
0.06	353.15	0.06187	0.00124
0.07	293.15	0.018	0.00036
0.07	303.15	0.02347	0.00047
0.07	313.15	0.02997	0.0006
0.07	323.15	0.03673	0.00073
0.07	333.15	0.04353	0.00087
0.07	343.15	0.05027	0.00101
0.07	353.15	0.05667	0.00113

System: 2-amino-2-(hydroxymethyl)-1,3-propanediol + water; phases: Liquid
Fixed: Pressure, kPa = 101
Property: Refractive index (Na D-line) (Liquid); method: Standard Abbe refractometry
Mole fraction of 2-amino-2-(hydroxymethyl)-1,3-propanediol	Temperature, K	Refractive index (Na D-line)	uncertainty
0.01	293.15	1.342261	0.000311
0.01	298.15	1.341731	0.000311
0.01	303.15	1.341114	0.000311
0.01	308.15	1.340421	0.000311
0.01	313.15	1.339723	0.000311
0.01	318.15	1.338987	0.000311
0.01	323.15	1.338097	0.000311
0.01	328.15	1.337228	0.000311
0.02	293.15	1.350888	0.000311
0.02	298.15	1.350291	0.000311
0.02	303.15	1.349608	0.000311
0.02	308.15	1.34889	0.000311
0.02	313.15	1.348215	0.000311
0.02	318.15	1.347422	0.000311
0.02	323.15	1.346676	0.000311
0.02	328.15	1.346029	0.000311
0.03	293.15	1.358835	0.000313
0.03	298.15	1.358192	0.000312
0.03	303.15	1.357456	0.000312
0.03	308.15	1.356674	0.000312
0.03	313.15	1.355958	0.000312
0.03	318.15	1.355198	0.000312
0.03	323.15	1.354465	0.000312
0.03	328.15	1.353885	0.000312
0.04	293.15	1.371179	0.000313
0.04	298.15	1.370483	0.000313
0.04	303.15	1.369703	0.000313
0.04	308.15	1.368877	0.000313
0.04	313.15	1.368152	0.000313
0.04	318.15	1.367388	0.000313
0.04	323.15	1.366734	0.000312
0.04	328.15	1.366263	0.000314
0.05	293.15	1.376355	0.000311
0.05	298.15	1.375648	0.000311
0.05	303.15	1.374849	0.000311
0.05	308.15	1.374057	0.000311
0.05	313.15	1.373469	0.000311
0.05	318.15	1.372472	0.000311
0.05	323.15	1.371756	0.000311
0.05	328.15	1.371153	0.000311
0.06	293.15	1.379697	0.000313
0.06	298.15	1.37896	0.000312
0.06	303.15	1.37816	0.000312
0.06	308.15	1.37728	0.000312
0.06	313.15	1.376733	0.000312
0.06	318.15	1.375809	0.000312
0.06	323.15	1.375067	0.000312
0.06	328.15	1.37453	0.000312
0.07	293.15	1.385875	0.000314
0.07	298.15	1.385094	0.000314
0.07	303.15	1.38425	0.000314
0.07	308.15	1.383343	0.000314
0.07	313.15	1.382709	0.000313
0.07	318.15	1.381816	0.000314
0.07	323.15	1.381244	0.000314
0.07	328.15	1.380895	0.000314

System: 2-amino-2-(hydroxymethyl)-1,3-propanediol + water; phases: Liquid
Fixed: Pressure, kPa = 101
Property: Mass density, kg/m3 (Liquid); method: Vibrating tube method
Mole fraction of 2-amino-2-(hydroxymethyl)-1,3-propanediol	Temperature, K	Mass density, kg/m3	uncertainty
0.01	293.15	1022.2	0.8
0.01	303.15	1019.5	0.8
0.01	313.15	1016	0.8
0.01	323.15	1011.6	0.8
0.01	333.15	1006	0.8
0.01	343.15	998.9	0.8
0.01	353.15	989.9	0.8
0.02	293.15	1036.6	0.8
0.02	303.15	1033.6	0.8
0.02	313.15	1029.9	0.8
0.02	323.15	1025.5	0.8
0.02	333.15	1020	0.8
0.02	343.15	1013.2	0.8
0.02	353.15	1004.9	0.8
0.03	293.15	1049.4	0.8
0.03	303.15	1046.2	0.8
0.03	313.15	1042.4	0.8
0.03	323.15	1037.8	0.8
0.03	333.15	1032.7	0.8
0.03	343.15	1027	0.8
0.03	353.15	1020.8	0.8
0.04	293.15	1056.4	0.8
0.04	303.15	1053.3	0.8
0.04	313.15	1049.3	0.8
0.04	323.15	1044.7	0.8
0.04	333.15	1039.6	0.8
0.04	343.15	1033.9	0.8
0.04	353.15	1027.6	0.8
0.05	293.15	1073.8	0.8
0.05	303.15	1070.3	0.8
0.05	313.15	1066.1	0.8
0.05	323.15	1061.3	0.8
0.05	333.15	1056	0.8
0.05	343.15	1050.2	0.8
0.05	353.15	1044	0.8
0.06	293.15	1079.9	0.8
0.06	303.15	1076.2	0.8
0.06	313.15	1071.8	0.8
0.06	323.15	1067	0.8
0.06	333.15	1061.7	0.8
0.06	343.15	1055.9	0.8
0.06	353.15	1049.5	0.8
0.07	293.15	1090	0.8
0.07	303.15	1086.3	0.8
0.07	313.15	1081.8	0.8
0.07	323.15	1076.9	0.8
0.07	333.15	1071.4	0.8
0.07	343.15	1065.6	0.8
0.07	353.15	1059.2	0.8
