Measured thermophysical data. Volumetric properties of binary mixtures of ionic liquid with tributyl phosphate and dimethyl carbonate
Source: J. Chem. Thermodyn., 2018, 10.1016/j.jct.2018.04.005
Compound 1: 1-butyl-3-methylimidazolium hexafluorophosphate, C8H15F6N2P, InChI=1S/C8H15N2.F6P/c1-3-4-5-10-7-6-9(2)8-10;1-7(2,3,4,5)6/h6-8H,3-5H2,1-2H3;/q+1;-1, purity 99%
Compound 2: 1-butyl-3-methylimidazolium bis(trifluoromethylsulfonyl)imide, C10H15F6N3O4S2, InChI=1S/C8H15N2.C2F6NO4S2/c1-3-4-5-10-7-6-9(2)8-10;3-1(4,5)14(10,11)9-15(12,13)2(6,7)8/h6-8H,3-5H2,1-2H3;/q+1;-1, purity 99%
Compound 3: 1-butyl-3-methylimidazolium tetrafluoroborate, C8H15BF4N2, InChI=1S/C8H15N2.BF4/c1-3-4-5-10-7-6-9(2)8-10;2-1(3,4)5/h6-8H,3-5H2,1-2H3;/q+1;-1, purity 99%
Compound 4: tributyl phosphate, C12H27O4P, InChI=1S/C12H27O4P/c1-4-7-10-14-17(13,15-11-8-5-2)16-12-9-6-3/h4-12H2,1-3H3, purity 99%
Compound 5: dimethyl carbonate, C3H6O3, InChI=1S/C3H6O3/c1-5-3(4)6-2/h1-2H3, purity 99%

System: 1-butyl-3-methylimidazolium hexafluorophosphate; phases: Liquid
Fixed: Pressure, kPa = 100
Property: Mass density, kg/m3 (Liquid); method: Vibrating tube method
Temperature, K	Mass density, kg/m3	uncertainty
293.15	1370.73	4.03
298.15	1366.5	4.03
303.15	1361.63	4.03
308.15	1359.45	4.03
313.15	1355.23	4.03
318.15	1351.63	4.03
323.15	1347.23	4.03

System: 1-butyl-3-methylimidazolium bis(trifluoromethylsulfonyl)imide; phases: Liquid
Fixed: Pressure, kPa = 100
Property: Mass density, kg/m3 (Liquid); method: Vibrating tube method
Temperature, K	Mass density, kg/m3	uncertainty
293.15	1442.3	4.04
298.15	1435.96	4.04
303.15	1431.96	4.04
308.15	1427.23	4.04
313.15	1422.19	4.04
318.15	1417.89	4.04
323.15	1412.96	4.04

System: 1-butyl-3-methylimidazolium tetrafluoroborate; phases: Liquid
Fixed: Pressure, kPa = 100
Property: Mass density, kg/m3 (Liquid); method: Vibrating tube method
Temperature, K	Mass density, kg/m3	uncertainty
293.15	1202.47	4.02
298.15	1200.1	4.02
303.15	1195.48	4.02
308.15	1191.65	4.02
313.15	1187.83	4.02
318.15	1184.13	4.02
323.15	1180.33	4.02

System: tributyl phosphate; phases: Liquid
Fixed: Pressure, kPa = 100
Property: Mass density, kg/m3 (Liquid); method: Vibrating tube method
Temperature, K	Mass density, kg/m3	uncertainty
293.15	976.92	4.01
298.15	972.79	4.01
303.15	968.59	4.01
308.15	964.16	4.01
313.15	959.93	4.01
318.15	956.18	4.01
323.15	951.94	4.01

System: dimethyl carbonate; phases: Liquid
Fixed: Pressure, kPa = 100
Property: Mass density, kg/m3 (Liquid); method: Vibrating tube method
Temperature, K	Mass density, kg/m3	uncertainty
293.15	1069.83	4.01
298.15	1063.25	4.01
303.15	1056.63	4.01
308.15	1050.08	4.01
313.15	1043.44	4.01
318.15	1036.62	4.01
323.15	1029.88	4.01

System: 1-butyl-3-methylimidazolium hexafluorophosphate + tributyl phosphate; phases: Liquid
Fixed: Pressure, kPa = 100
Property: Mass density, kg/m3 (Liquid); method: Vibrating tube method
Temperature, K	Mole fraction of 1-butyl-3-methylimidazolium hexafluorophosphate	Mass density, kg/m3	uncertainty
293.15	0.0943	1008.07	7.78
293.15	0.1898	1040.16	7.93
293.15	0.2866	1073.81	8.14
293.15	0.3845	1109.17	8.38
293.15	0.4838	1146.37	8.62
293.15	0.5843	1185.43	8.93
293.15	0.6862	1227.12	9.33
293.15	0.7894	1271.78	9.78
293.15	0.894	1319.74	10.22
298.15	0.0943	1003.9	7.79
298.15	0.1898	1036.19	7.94
298.15	0.2866	1069.75	8.15
298.15	0.3845	1105.29	8.38
298.15	0.4838	1142.27	8.6
298.15	0.5843	1181.27	8.94
298.15	0.6862	1223.12	9.34
298.15	0.7894	1267.68	9.78
298.15	0.894	1315.73	10.21
303.15	0.0943	999.76	7.82
303.15	0.1898	1032.32	7.95
303.15	0.2866	1065.81	8.14
303.15	0.3845	1101.31	8.36
303.15	0.4838	1138.1	8.59
303.15	0.5843	1177.16	8.93
303.15	0.6862	1218.81	9.32
303.15	0.7894	1263.41	9.75
303.15	0.894	1311.14	10.16
308.15	0.0943	995.49	7.86
308.15	0.1898	1028.3	8
308.15	0.2866	1062.11	8.18
308.15	0.3845	1097.75	8.37
308.15	0.4838	1134.52	8.63
308.15	0.5843	1174.02	9
308.15	0.6862	1216.07	9.39
308.15	0.7894	1261.02	9.78
308.15	0.894	1308.69	10.18
313.15	0.0943	991.31	7.88
313.15	0.1898	1024.36	8.02
313.15	0.2866	1058.14	8.19
313.15	0.3845	1093.87	8.38
313.15	0.4838	1130.69	8.64
313.15	0.5843	1170.3	9.01
313.15	0.6862	1212.26	9.39
313.15	0.7894	1257.36	9.77
313.15	0.894	1304.77	10.13
318.15	0.0943	987.58	7.92
318.15	0.1898	1020.97	8.06
318.15	0.2866	1054.82	8.2
318.15	0.3845	1090.64	8.39
318.15	0.4838	1127.5	8.63
318.15	0.5843	1167	9
318.15	0.6862	1208.99	9.38
318.15	0.7894	1253.95	9.77
318.15	0.894	1301.47	10.11
323.15	0.0943	983.55	7.94
323.15	0.1898	1016.95	8.07
323.15	0.2866	1050.96	8.2
323.15	0.3845	1086.64	8.39
323.15	0.4838	1123.66	8.63
323.15	0.5843	1162.96	8.99
323.15	0.6862	1205.06	9.39
323.15	0.7894	1250.04	9.76
323.15	0.894	1297.49	10.07
293.15	1	1370.73	4.03
298.15	1	1366.5	4.03
303.15	1	1361.63	4.03
308.15	1	1359.45	4.03
313.15	1	1355.23	4.03
318.15	1	1351.63	4.03
323.15	1	1347.23	4.03
293.15	0	976.92	4.01
298.15	0	972.79	4.01
303.15	0	968.59	4.01
308.15	0	964.16	4.01
313.15	0	959.93	4.01
318.15	0	956.18	4.01
323.15	0	951.94	4.01

System: 1-butyl-3-methylimidazolium hexafluorophosphate + dimethyl carbonate; phases: Liquid
Fixed: Pressure, kPa = 100
Property: Mass density, kg/m3 (Liquid); method: Vibrating tube method
Temperature, K	Mole fraction of 1-butyl-3-methylimidazolium hexafluorophosphate	Mass density, kg/m3	uncertainty
293.15	0.034	1099.2	16.49
293.15	0.0734	1128.63	14.7
293.15	0.1196	1159.82	12.58
293.15	0.1744	1189.04	10.71
293.15	0.2407	1220.08	9.07
293.15	0.3222	1249.42	7.52
293.15	0.4251	1278.97	6.42
293.15	0.559	1308.93	5.56
293.15	0.7404	1339.9	4.89
298.15	0.034	1092.76	16.7
298.15	0.0734	1122.91	15
298.15	0.1196	1154.74	12.61
298.15	0.1744	1183.63	10.55
298.15	0.2407	1214.03	9.09
298.15	0.3222	1244.28	7.64
298.15	0.4251	1274.43	6.4
298.15	0.559	1303.88	5.55
298.15	0.7404	1335.38	4.9
303.15	0.034	1086.29	16.66
303.15	0.0734	1116.15	15
303.15	0.1196	1148.32	12.72
303.15	0.1744	1177.52	10.68
303.15	0.2407	1208.51	9.18
303.15	0.3222	1238.99	7.67
303.15	0.4251	1269.31	6.42
303.15	0.559	1298.92	5.55
303.15	0.7404	1330.3	4.9
308.15	0.034	1080.03	16.96
308.15	0.0734	1110.74	15.1
308.15	0.1196	1142.49	12.94
308.15	0.1744	1173.19	10.78
308.15	0.2407	1203.38	9.16
308.15	0.3222	1234.34	7.78
308.15	0.4251	1265.31	6.5
308.15	0.559	1295.41	5.61
308.15	0.7404	1327.51	4.94
313.15	0.034	1073.79	17.19
313.15	0.0734	1104.95	15.03
313.15	0.1196	1136.01	12.9
313.15	0.1744	1167.14	10.91
313.15	0.2407	1197.82	9.25
313.15	0.3222	1229.08	7.81
313.15	0.4251	1260.15	6.55
313.15	0.559	1290.91	5.63
313.15	0.7404	1322.98	4.94
318.15	0.034	1067.23	17.29
318.15	0.0734	1098.5	15.2
318.15	0.1196	1130.22	13.09
318.15	0.1744	1161.77	11.05
318.15	0.2407	1192.91	9.33
318.15	0.3222	1224.39	7.83
318.15	0.4251	1255.4	6.59
318.15	0.559	1286.76	5.66
318.15	0.7404	1318.91	4.96
323.15	0.034	1060.39	17.45
323.15	0.0734	1092.27	15.72
323.15	0.1196	1125.56	13.38
323.15	0.1744	1156.96	11.03
323.15	0.2407	1187.95	9.35
323.15	0.3222	1219.55	7.89
323.15	0.4251	1250.82	6.62
323.15	0.559	1282.14	5.66
323.15	0.7404	1314.13	4.98
293.15	1	1370.73	4.03
298.15	1	1366.5	4.03
303.15	1	1361.63	4.03
308.15	1	1359.45	4.03
313.15	1	1355.23	4.03
318.15	1	1351.63	4.03
323.15	1	1347.23	4.03
293.15	0	1069.83	4.01
298.15	0	1063.25	4.01
303.15	0	1056.63	4.01
308.15	0	1050.08	4.01
313.15	0	1043.44	4.01
318.15	0	1036.62	4.01
323.15	0	1029.88	4.01

System: 1-butyl-3-methylimidazolium tetrafluoroborate + tributyl phosphate; phases: Liquid
Fixed: Pressure, kPa = 100
Property: Mass density, kg/m3 (Liquid); method: Vibrating tube method
Temperature, K	Mole fraction of 1-butyl-3-methylimidazolium tetrafluoroborate	Mass density, kg/m3	uncertainty
293.15	0.1158	997.05	5.38
293.15	0.2275	1017.74	5.5
293.15	0.3355	1038.48	5.66
293.15	0.4399	1060.2	5.9
293.15	0.5409	1082.55	6.06
293.15	0.6387	1105.34	6.25
293.15	0.7333	1128.65	6.46
293.15	0.825	1152.49	6.67
293.15	0.9138	1176.71	6.98
298.15	0.1158	993.14	5.39
298.15	0.2275	1013.9	5.53
298.15	0.3355	1034.98	5.69
298.15	0.4399	1056.79	5.89
298.15	0.5409	1079.35	6.08
298.15	0.6387	1102.22	6.27
298.15	0.7333	1125.69	6.48
298.15	0.825	1149.65	6.7
298.15	0.9138	1174.08	7.02
303.15	0.1158	989.13	5.39
303.15	0.2275	1009.67	5.51
303.15	0.3355	1030.66	5.68
303.15	0.4399	1052.49	5.89
303.15	0.5409	1075.04	6.08
303.15	0.6387	1097.96	6.26
303.15	0.7333	1121.34	6.48
303.15	0.825	1145.4	6.68
303.15	0.9138	1169.51	6.99
308.15	0.1158	984.91	5.4
308.15	0.2275	1005.38	5.5
308.15	0.3355	1026.38	5.69
308.15	0.4399	1048.24	5.91
308.15	0.5409	1070.94	6.1
308.15	0.6387	1093.9	6.28
308.15	0.7333	1117.42	6.5
308.15	0.825	1141.61	6.69
308.15	0.9138	1165.77	6.99
313.15	0.1158	980.71	5.41
313.15	0.2275	1001.24	5.51
313.15	0.3355	1022.34	5.69
313.15	0.4399	1044.17	5.91
313.15	0.5409	1066.94	6.11
313.15	0.6387	1090.05	6.29
313.15	0.7333	1113.55	6.51
313.15	0.825	1137.88	6.72
313.15	0.9138	1162.16	6.98
318.15	0.1158	977.02	5.41
318.15	0.2275	997.5	5.52
318.15	0.3355	1018.69	5.69
318.15	0.4399	1040.49	5.9
318.15	0.5409	1063.21	6.11
318.15	0.6387	1086.31	6.29
318.15	0.7333	1109.86	6.52
318.15	0.825	1134.17	6.72
318.15	0.9138	1158.5	6.98
323.15	0.1158	972.79	5.41
323.15	0.2275	993.29	5.53
323.15	0.3355	1014.65	5.71
323.15	0.4399	1036.54	5.91
323.15	0.5409	1059.29	6.11
323.15	0.6387	1082.36	6.3
323.15	0.7333	1106.1	6.55
323.15	0.825	1130.56	6.74
323.15	0.9138	1154.99	6.96
293.15	1	1202.47	4.02
298.15	1	1200.1	4.02
303.15	1	1195.48	4.02
308.15	1	1191.65	4.02
313.15	1	1187.83	4.02
318.15	1	1184.13	4.02
323.15	1	1180.33	4.02
293.15	0	976.92	4.01
298.15	0	972.79	4.01
303.15	0	968.59	4.01
308.15	0	964.16	4.01
313.15	0	959.93	4.01
318.15	0	956.18	4.01
323.15	0	951.94	4.01

System: 1-butyl-3-methylimidazolium bis(trifluoromethylsulfonyl)imide + tributyl phosphate; phases: Liquid
Fixed: Pressure, kPa = 100
Property: Mass density, kg/m3 (Liquid); method: Vibrating tube method
Temperature, K	Mole fraction of 1-butyl-3-methylimidazolium bis(trifluoromethylsulfonyl)imide	Mass density, kg/m3	uncertainty
293.15	0.0659	1009.68	10.66
293.15	0.137	1044.63	10.59
293.15	0.2139	1082.25	10.4
293.15	0.2974	1121.58	10.24
293.15	0.3884	1164.45	10.18
293.15	0.4879	1210.73	10.06
293.15	0.5971	1260.68	9.92
293.15	0.7175	1314.9	9.9
293.15	0.8511	1375.5	9.88
298.15	0.0659	1005.53	10.65
298.15	0.137	1040.39	10.56
298.15	0.2139	1077.87	10.36
298.15	0.2974	1117.07	10.23
298.15	0.3884	1159.94	10.16
298.15	0.4879	1205.98	10.01
298.15	0.5971	1255.68	9.88
298.15	0.7175	1309.6	9.85
298.15	0.8511	1369.84	9.81
303.15	0.0659	1001.37	10.65
303.15	0.137	1036.18	10.56
303.15	0.2139	1073.68	10.37
303.15	0.2974	1112.92	10.23
303.15	0.3884	1155.77	10.16
303.15	0.4879	1201.85	10.03
303.15	0.5971	1251.66	9.89
303.15	0.7175	1305.63	9.87
303.15	0.8511	1366.03	9.81
308.15	0.0659	996.93	10.64
308.15	0.137	1031.72	10.56
308.15	0.2139	1069.25	10.37
308.15	0.2974	1108.44	10.22
308.15	0.3884	1151.25	10.15
308.15	0.4879	1197.24	10.02
308.15	0.5971	1247.04	9.9
308.15	0.7175	1301.11	9.86
308.15	0.8511	1361.36	9.79
313.15	0.0659	992.72	10.63
313.15	0.137	1027.43	10.55
313.15	0.2139	1064.92	10.36
313.15	0.2974	1104.11	10.2
313.15	0.3884	1146.79	10.13
313.15	0.4879	1192.76	10.01
313.15	0.5971	1242.51	9.87
313.15	0.7175	1296.33	9.84
313.15	0.8511	1356.59	9.78
318.15	0.0659	988.96	10.62
318.15	0.137	1023.57	10.53
318.15	0.2139	1061.02	10.36
318.15	0.2974	1100.24	10.2
318.15	0.3884	1142.87	10.12
318.15	0.4879	1188.7	10
318.15	0.5971	1238.42	9.86
318.15	0.7175	1292.14	9.83
318.15	0.8511	1352.27	9.77
323.15	0.0659	984.71	10.61
323.15	0.137	1019.22	10.51
323.15	0.2139	1056.6	10.35
323.15	0.2974	1095.81	10.2
323.15	0.3884	1138.41	10.1
323.15	0.4879	1184.09	9.99
323.15	0.5971	1233.83	9.85
323.15	0.7175	1287.39	9.81
323.15	0.8511	1347.43	9.76
293.15	1	1442.3	4.04
298.15	1	1435.96	4.04
303.15	1	1431.96	4.04
308.15	1	1427.23	4.04
313.15	1	1422.19	4.04
318.15	1	1417.89	4.04
323.15	1	1412.96	4.04
293.15	0	976.92	4.01
298.15	0	972.79	4.01
303.15	0	968.59	4.01
308.15	0	964.16	4.01
313.15	0	959.93	4.01
318.15	0	956.18	4.01
323.15	0	951.94	4.01
