Measured thermophysical data. Densities, speeds of sound, and refractive indices of the ternary mixtures (toluene + methyl acetate + butyl acetate) and (toluene + methyl acetate + methyl heptanoate) at 298.15 K
Source: J. Chem. Thermodyn., 2007, 10.1016/j.jct.2006.07.013
Compound 1: toluene, C7H8, InChI=1S/C7H8/c1-7-5-3-2-4-6-7/h2-6H,1H3
Compound 2: butyl ethanoate, C6H12O2, InChI=1S/C6H12O2/c1-3-4-5-8-6(2)7/h3-5H2,1-2H3
Compound 3: methyl ethanoate, C3H6O2, InChI=1S/C3H6O2/c1-3(4)5-2/h1-2H3
Compound 4: methyl heptanoate, C8H16O2, InChI=1S/C8H16O2/c1-3-4-5-6-7-8(9)10-2/h3-7H2,1-2H3

System: toluene; phases: Liquid
Property: Refractive index (Na D-line) (Liquid); method: Standard Abbe refractometry
Temperature, K	Pressure, kPa	Refractive index (Na D-line)	uncertainty
298.15	101.325	1.4939	0.00031

System: toluene; phases: Liquid
Property: Mass density, kg/m3 (Liquid); method: VIBTUB:UFactor:2
Temperature, K	Pressure, kPa	Mass density, kg/m3	uncertainty
298.15	101.325	862.34	0.18

System: toluene; phases: Liquid
Property: Speed of sound, m/s (Liquid); method: Sing-around technique in a fixed-path interferometer
Temperature, K	Pressure, kPa	Speed of sound, m/s	uncertainty
298.15	101.325	1306.3	0.7

System: butyl ethanoate; phases: Liquid
Property: Refractive index (Na D-line) (Liquid); method: Standard Abbe refractometry
Temperature, K	Pressure, kPa	Refractive index (Na D-line)	uncertainty
298.15	101.325	1.39191	0.00051

System: butyl ethanoate; phases: Liquid
Property: Mass density, kg/m3 (Liquid); method: VIBTUB:UFactor:16
Temperature, K	Pressure, kPa	Mass density, kg/m3	uncertainty
298.15	101.325	876.35	1.9

System: butyl ethanoate; phases: Liquid
Property: Speed of sound, m/s (Liquid); method: Sing-around technique in a fixed-path interferometer
Temperature, K	Pressure, kPa	Speed of sound, m/s	uncertainty
298.15	101.325	1193.1	2.1

System: methyl ethanoate; phases: Liquid
Property: Refractive index (Na D-line) (Liquid); method: Standard Abbe refractometry
Temperature, K	Pressure, kPa	Refractive index (Na D-line)	uncertainty
298.15	101.325	1.35893	0.00037

System: methyl ethanoate; phases: Liquid
Property: Mass density, kg/m3 (Liquid); method: VIBTUB:UFactor:8
Temperature, K	Pressure, kPa	Mass density, kg/m3	uncertainty
298.15	101.325	927.36	0.65

System: methyl ethanoate; phases: Liquid
Property: Speed of sound, m/s (Liquid); method: Sing-around technique in a fixed-path interferometer
Temperature, K	Pressure, kPa	Speed of sound, m/s	uncertainty
298.15	101.325	1154	1.2

System: methyl heptanoate; phases: Liquid
Property: Refractive index (Na D-line) (Liquid); method: REFRACT
Temperature, K	Pressure, kPa	Refractive index (Na D-line)	uncertainty
298.15	101.325	1.40945	0.00021

System: methyl heptanoate; phases: Liquid
Property: Mass density, kg/m3 (Liquid); method: Vibrating tube method
Temperature, K	Pressure, kPa	Mass density, kg/m3	uncertainty
298.15	101.325	875.88	0.23

System: methyl heptanoate; phases: Liquid
Property: Speed of sound, m/s (Liquid); method: Sing-around technique in a fixed-path interferometer
Temperature, K	Pressure, kPa	Speed of sound, m/s	uncertainty
298.15	101.325	1254.6	1.2

System: methyl ethanoate + toluene + butyl ethanoate; phases: Liquid
Fixed: Temperature, K = 298.15
Fixed: Pressure, kPa = 101
Property: Refractive index (Na D-line) (Liquid); method: Standard Abbe refractometry
Mole fraction of toluene	Mole fraction of methyl ethanoate	Refractive index (Na D-line)	uncertainty
0.0799	0.5197	1.38688	0.00041
0.0823	0.0639	1.3975	0.00047
0.0839	0.2806	1.39325	0.00044
0.0914	0.6024	1.3858	0.0004
0.0917	0.2845	1.39383	0.00044
0.0984	0.7981	1.38007	0.00037
0.0989	0.0873	1.39854	0.00047
0.101	0.1945	1.39668	0.00045
0.1017	0.7938	1.38056	0.00037
0.1062	0.6009	1.38757	0.00039
0.1065	0.6908	1.38497	0.00038
0.1086	0.3718	1.39354	0.00042
0.1784	0.1984	1.40361	0.00043
0.1879	0.7253	1.39312	0.00036
0.188	0.4979	1.39953	0.00039
0.1891	0.3937	1.40131	0.0004
0.191	0.0592	1.40708	0.00045
0.1942	0.3922	1.40186	0.0004
0.1973	0.1805	1.4058	0.00043
0.2025	0.5974	1.39824	0.00037
0.209	0.5824	1.39932	0.00037
0.2201	0.2784	1.40647	0.00041
0.2496	0.6693	1.40232	0.00036
0.2902	0.0829	1.41593	0.00042
0.2965	0.2883	1.41395	0.00039
0.2976	0.1231	1.41622	0.00041
0.3003	0.2752	1.41465	0.00039
0.301	0.4896	1.41165	0.00037
0.3034	0.3814	1.41342	0.00038
0.3065	0.4018	1.41367	0.00038
0.3146	0.1846	1.41729	0.0004
0.3168	0.5752	1.41259	0.00036
0.4014	0.3881	1.42474	0.00036
0.4034	0.2663	1.42571	0.00037
0.4041	0.1839	1.42627	0.00038
0.4084	0.2799	1.42596	0.00037
0.4089	0.5009	1.42439	0.00035
0.4108	0.1006	1.42762	0.00039
0.4133	0.3885	1.42593	0.00036
0.4528	0.1008	1.432	0.00038
0.4917	0.3104	1.43551	0.00035
0.5026	0.0885	1.43725	0.00037
0.5129	0.1731	1.43828	0.00036
0.5182	0.3907	1.43842	0.00034
0.5825	0.3134	1.44603	0.00034
0.5902	0.2086	1.44709	0.00035
0.5976	0.1187	1.44771	0.00035
0.5986	0.2986	1.44853	0.00034
0.6085	0.0886	1.44905	0.00035
0.6188	0.1813	1.45049	0.00034
0.7094	0.1891	1.46121	0.00033
0.712	0.0912	1.46056	0.00034
0.8021	0.0968	1.47153	0.00032
0.8036	0.0916	1.47145	0.00032

System: methyl ethanoate + toluene + butyl ethanoate; phases: Liquid
Fixed: Temperature, K = 298.15
Fixed: Pressure, kPa = 101
Property: Speed of sound, m/s (Liquid); method: FPINT:UFactor:2
Mole fraction of toluene	Mole fraction of methyl ethanoate	Speed of sound, m/s	uncertainty
0.0792	0.4105	1183.8	1.9
0.0876	0.7072	1173.2	1.7
0.0914	0.6023	1177.5	1.7
0.0917	0.2845	1190.6	2
0.0922	0.5041	1181.4	1.8
0.095	0.1994	1194.2	2
0.0989	0.0873	1199.2	2.1
0.1017	0.7938	1172.2	1.6
0.1916	0.106	1208.1	2
0.1921	0.7027	1186.2	1.6
0.1942	0.3921	1197.2	1.8
0.1973	0.1805	1206.1	1.9
0.1979	0.5018	1193.6	1.7
0.199	0.2994	1201.5	1.8
0.209	0.5824	1192.1	1.6
0.2496	0.6694	1194.6	1.5
0.292	0.4971	1205.2	1.6
0.2965	0.2883	1212.9	1.7
0.2974	0.2083	1216	1.8
0.2976	0.1231	1218.7	1.8
0.3034	0.3814	1210.5	1.6
0.3934	0.5073	1217.7	1.5
0.4003	0.1	1231.2	1.7
0.4041	0.1839	1229.2	1.7
0.4084	0.2799	1226.5	1.6
0.4133	0.3885	1223.7	1.5
0.4928	0.2924	1236.9	1.5
0.4929	0.1104	1241.8	1.6
0.4937	0.4062	1233.5	1.5
0.4993	0.2021	1240	1.6
0.5986	0.2987	1249.8	1.4
0.6085	0.0886	1256.3	1.5
0.6188	0.1812	1255.3	1.5
0.691	0.1083	1265.9	1.4
0.6926	0.194	1264.4	1.4
0.8021	0.0968	1280.1	1.4

System: methyl ethanoate + toluene + butyl ethanoate; phases: Liquid
Fixed: Temperature, K = 298.15
Fixed: Pressure, kPa = 101
Property: Mass density, kg/m3 (Liquid); method: VIBTUB:UFactor:8
Mole fraction of toluene	Mole fraction of methyl ethanoate	Mass density, kg/m3	uncertainty
0.0792	0.4105	889.6	0.92
0.0876	0.7072	904.52	0.76
0.0914	0.6023	898.55	0.81
0.0917	0.2845	884.59	0.99
0.0922	0.5041	893.62	0.86
0.095	0.1994	881.58	1.03
0.0989	0.0873	878.08	1.09
0.1017	0.7938	910.06	0.7
0.1916	0.106	877.76	1
0.1921	0.7027	903.14	0.7
0.1942	0.3921	887.66	0.85
0.1973	0.1805	879.92	0.96
0.1979	0.5018	892.34	0.79
0.199	0.2994	884.02	0.89
0.209	0.5824	896.19	0.75
0.2496	0.6694	900.56	0.68
0.292	0.4971	891	0.74
0.2965	0.2883	882.48	0.83
0.2974	0.2083	879.79	0.87
0.2976	0.1231	877.14	0.91
0.3034	0.3814	885.88	0.78
0.3934	0.5073	890.17	0.69
0.4003	0.1	875.16	0.85
0.4041	0.1839	877.61	0.81
0.4084	0.2799	880.72	0.77
0.4133	0.3885	884.82	0.72
0.4928	0.2924	879.89	0.73
0.4929	0.1104	874.22	0.79
0.4937	0.4062	884.27	0.69
0.4993	0.2021	876.88	0.76
0.5986	0.2987	878.55	0.69
0.6085	0.0886	871.92	0.75
0.6188	0.1812	874.39	0.72
0.691	0.1083	871.06	0.71
0.6926	0.194	873.41	0.69
0.8021	0.0968	868.78	0.69

System: methyl ethanoate + methyl heptanoate + toluene; phases: Liquid
Fixed: Temperature, K = 298.15
Fixed: Pressure, kPa = 101
Property: Refractive index (Na D-line) (Liquid); method: Standard Abbe refractometry
Mole fraction of toluene	Mole fraction of methyl ethanoate	Refractive index (Na D-line)	uncertainty
0.0681	0.369	1.40218	0.00036
0.0766	0.3757	1.40258	0.00036
0.0872	0.0613	1.41274	0.00036
0.0891	0.6006	1.39401	0.00036
0.0895	0.2801	1.4067	0.00036
0.0906	0.6018	1.39437	0.00036
0.091	0.0733	1.41272	0.00036
0.0982	0.4887	1.39989	0.00036
0.1027	0.7947	1.38404	0.00036
0.1045	0.7945	1.3842	0.00036
0.1098	0.6804	1.3918	0.00036
0.1556	0.7395	1.39219	0.00036
0.165	0.5149	1.40371	0.00036
0.1777	0.1684	1.41559	0.00035
0.186	0.1229	1.41727	0.00035
0.1918	0.5973	1.40235	0.00035
0.1923	0.1888	1.41608	0.00035
0.1932	0.0622	1.41923	0.00035
0.1936	0.3887	1.4103	0.00035
0.1983	0.2673	1.41459	0.00035
0.1987	0.3705	1.41156	0.00035
0.2137	0.5809	1.40474	0.00035
0.29	0.3889	1.41806	0.00035
0.2928	0.0662	1.42577	0.00035
0.2931	0.5177	1.41508	0.00035
0.2989	0.2733	1.42183	0.00035
0.3073	0.3826	1.41947	0.00035
0.3082	0.0781	1.42663	0.00035
0.3094	0.5877	1.41347	0.00034
0.3123	0.5864	1.41339	0.00034
0.3161	0.236	1.42383	0.00035
0.3514	0.0804	1.4297	0.00034
0.3659	0.5292	1.42073	0.00034
0.3804	0.4312	1.42468	0.00034
0.4	0.2905	1.42966	0.00034
0.4044	0.2749	1.43057	0.00034
0.4055	0.1757	1.43224	0.00034
0.4076	0.1609	1.4328	0.00034
0.4145	0.3833	1.429	0.00034
0.4558	0.4407	1.43185	0.00034
0.4613	0.0822	1.4383	0.00034
0.4661	0.3088	1.4354	0.00034
0.528	0.1576	1.44343	0.00033
0.5978	0.2107	1.44964	0.00033
0.6053	0.3086	1.44872	0.00033
0.6137	0.0781	1.45178	0.00033
0.6156	0.0745	1.45241	0.00033
0.6158	0.2882	1.45127	0.00033
0.6219	0.1784	1.45234	0.00033
0.6745	0.0888	1.45769	0.00033
0.7042	0.1951	1.46116	0.00032
0.8043	0.0932	1.47182	0.00032
0.8053	0.0914	1.47199	0.00032

System: methyl ethanoate + methyl heptanoate + toluene; phases: Liquid
Fixed: Temperature, K = 298.15
Fixed: Pressure, kPa = 101
Property: Speed of sound, m/s (Liquid); method: FPINT:UFactor:2
Mole fraction of toluene	Mole fraction of methyl ethanoate	Speed of sound, m/s	uncertainty
0.0895	0.2801	1234.1	1.6
0.0906	0.6018	1202	1.6
0.091	0.0733	1252.1	1.6
0.1006	0.2013	1241.4	1.6
0.1012	0.7003	1192.1	1.5
0.1037	0.3966	1222.9	1.6
0.1045	0.7945	1181.3	1.5
0.1051	0.4963	1213.7	1.6
0.1923	0.1888	1246	1.5
0.1936	0.3887	1227.6	1.5
0.197	0.7005	1195.6	1.5
0.1985	0.503	1216.2	1.5
0.203	0.0981	1253.4	1.5
0.2052	0.2968	1237	1.5
0.2137	0.5809	1208.9	1.5
0.3021	0.5	1221.9	1.5
0.3057	0.1975	1250	1.5
0.3073	0.3826	1233.2	1.5
0.3082	0.0781	1260.5	1.5
0.3123	0.5864	1213	1.5
0.3161	0.236	1246.7	1.5
0.3946	0.5033	1226	1.4
0.4	0.2905	1246.3	1.5
0.4022	0.0998	1262.3	1.5
0.4055	0.1757	1256.7	1.5
0.4145	0.3833	1238.4	1.4
0.4942	0.306	1250.1	1.4
0.4969	0.2026	1259.4	1.4
0.4985	0.4018	1241.7	1.4
0.5041	0.0972	1268.4	1.4
0.6137	0.0781	1275.6	1.4
0.6158	0.2882	1258.5	1.4
0.6219	0.1784	1268.1	1.4
0.701	0.1991	1272	1.4
0.7011	0.0984	1279.7	1.4
0.8053	0.0914	1286.3	1.4

System: methyl ethanoate + methyl heptanoate + toluene; phases: Liquid
Fixed: Temperature, K = 298.15
Fixed: Pressure, kPa = 101
Property: Mass density, kg/m3 (Liquid); method: VIBTUB:UFactor:8
Mole fraction of toluene	Mole fraction of methyl ethanoate	Mass density, kg/m3	uncertainty
0.0895	0.2801	882.46	0.75
0.0906	0.6018	895.45	0.71
0.091	0.0733	876.91	0.76
0.1006	0.2013	880.16	0.75
0.1012	0.7003	901.27	0.69
0.1037	0.3966	886.33	0.73
0.1045	0.7945	908.24	0.67
0.1051	0.4963	890.32	0.72
0.1923	0.1888	879.09	0.74
0.1936	0.3887	885.43	0.72
0.197	0.7005	901.5	0.67
0.1985	0.503	890.18	0.7
0.203	0.0981	876.68	0.74
0.2052	0.2968	882.22	0.72
0.2137	0.5809	894.05	0.69
0.3021	0.5	889.51	0.68
0.3057	0.1975	878.38	0.72
0.3073	0.3826	884.44	0.7
0.3082	0.0781	875.23	0.72
0.3123	0.5864	894.11	0.67
0.3161	0.236	879.27	0.71
0.3946	0.5033	889.14	0.67
0.4	0.2905	880.28	0.69
0.4022	0.0998	874.88	0.71
0.4055	0.1757	876.74	0.7
0.4145	0.3833	883.5	0.68
0.4942	0.306	879.83	0.68
0.4969	0.2026	876.46	0.69
0.4985	0.4018	883.48	0.67
0.5041	0.0972	873.57	0.7
0.6137	0.0781	871.63	0.69
0.6158	0.2882	877.64	0.67
0.6219	0.1784	874.14	0.68
0.701	0.1991	873.45	0.67
0.7011	0.0984	870.77	0.68
0.8053	0.0914	868.71	0.68
