Measured thermophysical data. Experimental and computational study on the energetics of 10,11-dihydro-5H-dibenzo[a,d]cycloheptene (dibenzosuberane)
Source: J. Chem. Thermodyn., 2011, 10.1016/j.jct.2010.10.009
Compound 1: carbon dioxide, CO2, InChI=1S/CO2/c2-1-3
Compound 2: water, H2O, InChI=1S/H2O/h1H2
Compound 3: oxygen, O2, InChI=1S/O2/c1-2
Compound 4: hydrogen, H2, InChI=1S/H2/h1H
Compound 5: graphite, C
Compound 6: 1,2:4,5-dibenzocycloheptane, C15H14, InChI=1S/C15H14/c1-3-7-14-11-15-8-4-2-6-13(15)10-9-12(14)5-1/h1-8H,9-11H2, purity 99.6%

System: 1,2:4,5-dibenzocycloheptane; phases: Crystal, Gas
Property: Molar enthalpy of transition or fusion, kJ/mol (Crystal); method: Vacuum Sublimation Drop (Calvet Microcalorimeter)
Temperature, K	Molar enthalpy of transition or fusion, kJ/mol	uncertainty
298.15	103.6	4

Reaction: -1 1,2:4,5-dibenzocycloheptane + 15 carbon dioxide + 7 water + -18.5 oxygen
Property: Specific internal energy of reaction at constant volume, J/g
-40935.6

Reaction: 1 1,2:4,5-dibenzocycloheptane + -7 hydrogen + -15 graphite
Property: Molar enthalpy of reaction, kJ/mol
57.8

Reaction: 1 1,2:4,5-dibenzocycloheptane + -7 hydrogen + -15 graphite
Property: Molar enthalpy of reaction, kJ/mol
161.4
