Measured thermophysical data. Properties for binary mixtures of (acetamide + KSCN) eutectic ionic liquid with ethanol at several temperatures
Source: J. Chem. Thermodyn., 2016, 10.1016/j.jct.2015.08.036
Compound 1: potassium thiocyanate, CKNS, InChI=1S/CHNS.K/c2-1-3;/h3H;/q;+1/p-1, purity 98.5%
Compound 2: ethanol, C2H6O, InChI=1S/C2H6O/c1-2-3/h3H,2H2,1H3, purity 99.8%
Compound 3: ethanamide, C2H5NO, InChI=1S/C2H5NO/c1-2(3)4/h1H3,(H2,3,4), purity 98.5%

System: ethanol; phases: Liquid
Fixed: Pressure, kPa = 101.325
Property: Mass density, kg/m3 (Liquid); method: Pycnometric method
Temperature, K	Mass density, kg/m3	uncertainty
298.15	785.2	2
303.15	781	2
308.15	776.7	2
313.15	772.3	2
318.15	766.3	2

System: ethanol; phases: Liquid
Fixed: Pressure, kPa = 101.325
Property: Viscosity, Pa*s (Liquid); method: Capillary tube (Ostwald; Ubbelohde) method
Temperature, K	Viscosity, Pa*s	uncertainty
298.15	0.001096	6.6e-05
303.15	0.001003	6e-05
308.15	0.000914	5.5e-05
313.15	0.000834	5e-05
318.15	0.000764	4.6e-05

System: ethanamide + ethanol + potassium thiocyanate; phases: Liquid
Fixed: Pressure, kPa = 100
Fixed: Solvent: Mole fraction of potassium thiocyanate = 0.25
Property: Mass density, kg/m3 (Liquid); method: Pycnometric method
Temperature, K	Mole fraction of ethanol	Mass density, kg/m3	uncertainty
298.15	0	1197.1	2.1
298.15	0.1339	1188.2	2.1
298.15	0.207	1182.4	2.1
298.15	0.2782	1176.2	2.1
298.15	0.3982	1160.4	2.1
298.15	0.5981	1110.3	2.1
298.15	0.7184	1063.7	2.1
298.15	0.7988	1011.4	2.1
298.15	0.8562	969.7	2
298.15	0.8993	930.2	2
298.15	0.9328	890.4	2
298.15	0.9597	856.1	2
298.15	0.9817	818.5	2.1
298.15	1	785.2	2
303.15	0	1193.7	2.1
303.15	0.1339	1184.9	2.1
303.15	0.207	1179.2	2.1
303.15	0.2782	1173.9	2.1
303.15	0.3982	1156.6	2.1
303.15	0.5981	1107.3	2.1
303.15	0.7184	1060.5	2.1
303.15	0.7988	1007.7	2.1
303.15	0.8562	965.2	2
303.15	0.8993	926.3	2
303.15	0.9328	887	2
303.15	0.9597	852.7	2.1
303.15	0.9817	814.7	2.1
303.15	1	781	2
308.15	0	1190.5	2.1
308.15	0.1339	1181.7	2.1
308.15	0.207	1175.8	2.1
308.15	0.2782	1169.6	2.1
308.15	0.3982	1153.4	2.1
308.15	0.5981	1103.8	2.1
308.15	0.7184	1056.6	2.1
308.15	0.7988	1005.6	2.1
308.15	0.8562	961.8	2.1
308.15	0.8993	922.3	2.1
308.15	0.9328	883.1	2
308.15	0.9597	849.1	2.1
308.15	0.9817	812.3	2.1
308.15	1	776.7	2
313.15	0	1187.7	2.1
313.15	0.1339	1178.5	2.1
313.15	0.207	1172.1	2.1
313.15	0.2782	1167	2.1
313.15	0.3982	1150.5	2.1
313.15	0.5981	1100.6	2.1
313.15	0.7184	1053.9	2.1
313.15	0.7988	1001.7	2.1
313.15	0.8562	959.3	2.1
313.15	0.8993	918.8	2.1
313.15	0.9328	880	2.1
313.15	0.9597	845.7	2.1
313.15	0.9817	808	2.1
313.15	1	772.3	2
318.15	0	1184.5	2.1
318.15	0.1339	1175.1	2.1
318.15	0.207	1169.8	2.1
318.15	0.2782	1164.4	2.1
318.15	0.3982	1147.3	2.1
318.15	0.5981	1097.5	2.1
318.15	0.7184	1050.8	2.1
318.15	0.7988	998.2	2.1
318.15	0.8562	955.6	2.1
318.15	0.8993	916.3	2.1
318.15	0.9328	876.3	2.1
318.15	0.9597	842.2	2.1
318.15	0.9817	803.6	2.1
318.15	1	766.3	2

System: ethanamide + ethanol + potassium thiocyanate; phases: Liquid
Fixed: Pressure, kPa = 100
Fixed: Solvent: Mole fraction of potassium thiocyanate = 0.25
Property: Viscosity, Pa*s (Liquid); method: Capillary tube (Ostwald; Ubbelohde) method
Temperature, K	Mole fraction of ethanol	Viscosity, Pa*s	uncertainty
298.15	0	0.19016	0.012116
298.15	0.1339	0.05234	0.003161
298.15	0.207	0.04422	0.002669
298.15	0.2782	0.037854	0.002285
298.15	0.3982	0.032762	0.001977
298.15	0.5981	0.015509	0.000937
298.15	0.7184	0.008701	0.000526
298.15	0.7988	0.005135	0.00031
298.15	0.8562	0.00322	0.000195
298.15	0.8993	0.002262	0.000137
298.15	0.9328	0.001716	0.000104
298.15	0.9597	0.00147	8.9e-05
298.15	0.9817	0.00115	7e-05
298.15	1	0.001096	6.6e-05
303.15	0	0.12731	0.007893
303.15	0.1339	0.039518	0.002387
303.15	0.207	0.03334	0.002013
303.15	0.2782	0.029729	0.001795
303.15	0.3982	0.025793	0.001557
303.15	0.5981	0.01278	0.000772
303.15	0.7184	0.007545	0.000456
303.15	0.7988	0.004543	0.000275
303.15	0.8562	0.002923	0.000177
303.15	0.8993	0.00211	0.000128
303.15	0.9328	0.001606	9.7e-05
303.15	0.9597	0.001368	8.3e-05
303.15	0.9817	0.001042	6.3e-05
303.15	1	0.001003	6.1e-05
308.15	0	0.08881	0.005411
308.15	0.1339	0.029806	0.0018
308.15	0.207	0.02647	0.001598
308.15	0.2782	0.023305	0.001407
308.15	0.3982	0.020304	0.001226
308.15	0.5981	0.010435	0.00063
308.15	0.7184	0.006516	0.000394
308.15	0.7988	0.00392	0.000237
308.15	0.8562	0.002597	0.000157
308.15	0.8993	0.001913	0.000116
308.15	0.9328	0.001393	8.4e-05
308.15	0.9597	0.001209	7.3e-05
308.15	0.9817	0.000936	5.7e-05
308.15	1	0.000914	5.5e-05
313.15	0	0.06377	0.00385
313.15	0.1339	0.023972	0.001448
313.15	0.207	0.0218	0.001316
313.15	0.2782	0.018993	0.001147
313.15	0.3982	0.0167	0.001008
313.15	0.5981	0.009155	0.000553
313.15	0.7184	0.00539	0.000326
313.15	0.7988	0.003469	0.00021
313.15	0.8562	0.002373	0.000144
313.15	0.8993	0.001755	0.000106
313.15	0.9328	0.001327	8e-05
313.15	0.9597	0.001123	6.8e-05
313.15	0.9817	0.000868	5.3e-05
313.15	1	0.000834	5e-05
318.15	0	0.04811	0.002904
318.15	0.1339	0.019479	0.001176
318.15	0.207	0.01711	0.001033
318.15	0.2782	0.014715	0.000888
318.15	0.3982	0.013627	0.000823
318.15	0.5981	0.007784	0.00047
318.15	0.7184	0.004717	0.000285
318.15	0.7988	0.003063	0.000185
318.15	0.8562	0.002188	0.000132
318.15	0.8993	0.001586	9.6e-05
318.15	0.9328	0.001204	7.3e-05
318.15	0.9597	0.001059	6.4e-05
318.15	0.9817	0.000795	4.8e-05
318.15	1	0.000764	4.6e-05

System: ethanamide + ethanol + potassium thiocyanate; phases: Liquid
Fixed: Pressure, kPa = 100
Fixed: Solvent: Mole fraction of potassium thiocyanate = 0.25
Property: Electrical conductivity, S/m (Liquid); method: Alternating current cell with electrodes
Temperature, K	Mole fraction of ethanol	Electrical conductivity, S/m	uncertainty
298.15	0	0.1172	0.0047
298.15	0.1339	0.3529	0.0141
298.15	0.207	0.401	0.016
298.15	0.2782	0.4409	0.0176
298.15	0.3982	0.4679	0.0187
298.15	0.5981	0.72	0.0288
298.15	0.7184	0.9418	0.0377
298.15	0.7988	1.108	0.0443
298.15	0.8562	1.2535	0.0501
298.15	0.8993	1.2442	0.0498
298.15	0.9328	1.1362	0.0455
298.15	0.9597	0.9108	0.0365
298.15	0.9817	0.6197	0.0252
298.15	1	0	0.0001
303.15	0	0.205	0.0082
303.15	0.1339	0.4501	0.018
303.15	0.207	0.505	0.0202
303.15	0.2782	0.5573	0.0223
303.15	0.3982	0.5784	0.0231
303.15	0.5981	0.8676	0.0347
303.15	0.7184	1.1086	0.0444
303.15	0.7988	1.2629	0.0505
303.15	0.8562	1.4273	0.0571
303.15	0.8993	1.4085	0.0563
303.15	0.9328	1.2676	0.0507
303.15	0.9597	1.0047	0.0403
303.15	0.9817	0.6855	0.0278
303.15	1	0	0.0001
308.15	0	0.3108	0.0124
308.15	0.1339	0.5715	0.0229
308.15	0.207	0.648	0.0259
308.15	0.2782	0.693	0.0277
308.15	0.3982	0.7232	0.0289
308.15	0.5981	1.0326	0.0413
308.15	0.7184	1.2842	0.0514
308.15	0.7988	1.4554	0.0582
308.15	0.8562	1.6057	0.0642
308.15	0.8993	1.5775	0.0631
308.15	0.9328	1.4085	0.0564
308.15	0.9597	1.1033	0.0442
308.15	0.9817	0.7512	0.0305
308.15	1	0	0.0001
313.15	0	0.429	0.0172
313.15	0.1339	0.7122	0.0285
313.15	0.207	0.782	0.0313
313.15	0.2782	0.8543	0.0342
313.15	0.3982	0.8639	0.0346
313.15	0.5981	1.2086	0.0484
313.15	0.7184	1.4808	0.0592
313.15	0.7988	1.6667	0.0667
313.15	0.8562	1.7982	0.0719
313.15	0.8993	1.7559	0.0702
313.15	0.9328	1.5446	0.0618
313.15	0.9597	1.2019	0.0482
313.15	0.9817	0.8263	0.0336
313.15	1	0	0.0001
318.15	0	0.5741	0.023
318.15	0.1339	0.8722	0.0349
318.15	0.207	0.924	0.037
318.15	0.2782	0.978	0.0391
318.15	0.3982	1.0431	0.0417
318.15	0.5981	1.4006	0.056
318.15	0.7184	1.704	0.0682
318.15	0.7988	1.9061	0.0763
318.15	0.8562	2	0.08
318.15	0.8993	1.9343	0.0774
318.15	0.9328	1.6996	0.068
318.15	0.9597	1.3146	0.0527
318.15	0.9817	0.9014	0.0366
318.15	1	0	0.0001

System: ethanamide + potassium thiocyanate; phases: Liquid
Fixed: Pressure, kPa = 100
Fixed: Mole fraction of potassium thiocyanate = 0.25
Property: Mass density, kg/m3 (Liquid); method: Pycnometric method
Temperature, K	Mass density, kg/m3	uncertainty
298.15	1197.1	2.1
303.15	1193.7	2.1
308.15	1190.5	2.1
313.15	1187.7	2.1
318.15	1184.5	2.1

System: ethanamide + potassium thiocyanate; phases: Liquid
Fixed: Pressure, kPa = 100
Fixed: Mole fraction of potassium thiocyanate = 0.25
Property: Viscosity, Pa*s (Liquid); method: Capillary tube (Ostwald; Ubbelohde) method
Temperature, K	Viscosity, Pa*s	uncertainty
298.15	0.19016	0.012116
303.15	0.12731	0.007893
308.15	0.08881	0.005411
313.15	0.06377	0.00385
318.15	0.04811	0.002904

System: ethanamide + potassium thiocyanate; phases: Liquid
Fixed: Pressure, kPa = 100
Fixed: Mole fraction of potassium thiocyanate = 0.25
Property: Electrical conductivity, S/m (Liquid); method: Alternating current cell with electrodes
Temperature, K	Electrical conductivity, S/m	uncertainty
298.15	0.1172	0.0047
303.15	0.205	0.0082
308.15	0.3108	0.0124
313.15	0.429	0.0172
318.15	0.5741	0.023
