Measured thermophysical data. Experimental and computational study of the thermochemistry of the three iodonitrobenzene  isomers
Source: J. Chem. Thermodyn., 2013, 10.1016/j.jct.2012.09.031
Compound 1: iodine, I2, InChI=1S/I2/c1-2
Compound 2: carbon dioxide, CO2, InChI=1S/CO2/c2-1-3
Compound 3: nitrogen, N2, InChI=1S/N2/c1-2
Compound 4: water, H2O, InChI=1S/H2O/h1H2
Compound 5: oxygen, O2, InChI=1S/O2/c1-2
Compound 6: 1-iodo-2-nitrobenzene, C6H4INO2, InChI=1S/C6H4INO2/c7-5-3-1-2-4-6(5)8(9)10/h1-4H, purity 97%
Compound 7: 1-iodo-3-nitrobenzene, C6H4INO2, InChI=1S/C6H4INO2/c7-5-2-1-3-6(4-5)8(9)10/h1-4H, purity 99%
Compound 8: 1-iodo-4-nitrobenzene, C6H4INO2, InChI=1S/C6H4INO2/c7-5-1-3-6(4-2-5)8(9)10/h1-4H, purity 98%

System: 1-iodo-2-nitrobenzene; phases: Crystal, Gas
Property: Molar enthalpy of vaporization or sublimation, kJ/mol (Crystal); method: Static calorimetry
Temperature, K	Molar enthalpy of vaporization or sublimation, kJ/mol	uncertainty
298.15	89.9	3.2

System: 1-iodo-2-nitrobenzene; phases: Crystal, Gas
Property: Vapor or sublimation pressure, kPa (Crystal); method: Calculated from knudsen effusion weight loss
Temperature, K	Vapor or sublimation pressure, kPa	uncertainty
289.14	0.000107	2e-05
291.13	0.000141	2.1e-05
293.14	0.000184	2.1e-05
295.15	0.00023	2.2e-05
297.14	0.000288	2.2e-05
299.14	0.000374	2.4e-05
301.14	0.000479	2.6e-05
305.14	0.000777	3.4e-05
307.14	0.000998	4.1e-05
287.15	8.5e-05	2e-05
291.13	0.000139	2.1e-05
293.14	0.000175	2.1e-05
295.15	0.000224	2.2e-05
297.14	0.000283	2.2e-05
299.14	0.000373	2.4e-05
301.14	0.000458	2.6e-05
303.13	0.000609	2.9e-05
305.14	0.000767	3.4e-05
307.14	0.000974	4e-05
287.15	8.2e-05	2e-05
289.14	0.000103	2e-05
291.13	0.000135	2.1e-05
293.14	0.000178	2.1e-05
295.15	0.000226	2.2e-05
297.14	0.000289	2.2e-05
299.14	0.000375	2.4e-05
301.14	0.000466	2.6e-05
303.13	0.000616	3e-05
305.14	0.000768	3.4e-05
307.14	0.000975	4e-05

System: 1-iodo-3-nitrobenzene; phases: Crystal, Gas
Property: Molar enthalpy of vaporization or sublimation, kJ/mol (Crystal); method: Static calorimetry
Temperature, K	Molar enthalpy of vaporization or sublimation, kJ/mol	uncertainty
298.15	89.4	3

System: 1-iodo-3-nitrobenzene; phases: Crystal, Gas
Property: Vapor or sublimation pressure, kPa (Crystal); method: Calculated from knudsen effusion weight loss
Temperature, K	Vapor or sublimation pressure, kPa	uncertainty
287.14	0.000148	2.1e-05
289.15	0.000191	2.1e-05
291.13	0.000238	2.2e-05
293.13	0.000314	2.3e-05
295.15	0.0004	2.5e-05
297.14	0.000506	2.7e-05
299.14	0.000643	3e-05
301.14	0.000812	3.5e-05
303.13	0.001074	8.5e-05
287.14	0.000145	2.1e-05
289.15	0.000187	2.1e-05
291.13	0.000238	2.2e-05
293.13	0.000309	2.3e-05
295.15	0.000392	2.4e-05
297.14	0.000508	2.7e-05
299.14	0.000641	3e-05
301.14	0.000812	3.5e-05
303.13	0.001033	8.1e-05

System: 1-iodo-4-nitrobenzene; phases: Crystal, Gas
Property: Molar enthalpy of vaporization or sublimation, kJ/mol (Crystal); method: Static calorimetry
Temperature, K	Molar enthalpy of vaporization or sublimation, kJ/mol	uncertainty
298.15	98.2	3.4

System: 1-iodo-4-nitrobenzene; phases: Crystal, Gas
Property: Vapor or sublimation pressure, kPa (Crystal); method: Calculated from knudsen effusion weight loss
Temperature, K	Vapor or sublimation pressure, kPa	uncertainty
311.18	9.7e-05	2e-05
313.17	0.000114	2e-05
315.11	0.000152	2.1e-05
317.18	0.000193	2.1e-05
319.13	0.00023	2.2e-05
321.1	0.000283	2.2e-05
323.18	0.000359	2.4e-05
325.18	0.000455	2.6e-05
327.12	0.000552	2.8e-05
331.18	0.000857	3.6e-05
333.11	0.001045	8.2e-05
311.18	9.4e-05	2e-05
313.17	0.000121	2e-05
315.11	0.000151	2.1e-05
317.18	0.000179	2.1e-05
319.13	0.00023	2.2e-05
321.1	0.000282	2.2e-05
323.18	0.000355	2.4e-05
325.18	0.000451	2.6e-05
327.12	0.00055	2.8e-05
329.18	0.000672	3.1e-05
331.18	0.000856	3.6e-05
333.11	0.001036	8.1e-05
311.18	9.3e-05	2e-05
313.17	0.000118	2e-05
315.11	0.00015	2.1e-05
317.18	0.000179	2.1e-05
319.13	0.000226	2.2e-05
321.1	0.000277	2.2e-05
323.18	0.000354	2.4e-05
325.18	0.000436	2.5e-05
327.12	0.000546	2.8e-05
329.18	0.000673	3.1e-05
331.18	0.00083	3.6e-05
333.11	0.001018	7.9e-05

Reaction: -1 1-iodo-2-nitrobenzene + .5 iodine + 6 carbon dioxide + .5 nitrogen + 2 water + -6 oxygen
Property: Specific internal energy of reaction at constant volume, J/g
-12135.4

Reaction: -1 1-iodo-3-nitrobenzene + .5 iodine + 6 carbon dioxide + .5 nitrogen + 2 water + -6 oxygen
Property: Specific internal energy of reaction at constant volume, J/g
-12049.9

Reaction: -1 1-iodo-4-nitrobenzene + .5 iodine + 6 carbon dioxide + .5 nitrogen + 2 water + -6 oxygen
Property: Specific internal energy of reaction at constant volume, J/g
-12012.3
