Measured thermophysical data. The effects of temperature and alkyl chain length on the density and surface tension of the imidazolium-based geminal dicationic ionic liquids
Source: J. Chem. Thermodyn., 2017, 10.1016/j.jct.2016.12.009
Compound 1: 3,3'-(propane-1,3-diyl)bis(1-methyl-1H-imidazol-3-ium) bis((trifluoromethyl)sulfonyl)amide, C15H18F12N6O8S4, InChI=1S/C11H18N4.2C2F6NO4S2/c1-12-6-8-14(10-12)4-3-5-15-9-7-13(2)11-15;2*3-1(4,5)14(10,11)9-15(12,13)2(6,7)8/h6-11H,3-5H2,1-2H3;;/q+2;2*-1
Compound 2: 3,3'-(1,4-butanediyl)bis[1-methylimidazolium] 1,1,1-trifluoro-N-[(trifluoromethyl)sulfonyl]methanesulfonamide, C16H20F12N6O8S4, InChI=1S/C12H20N4.2C2F6NO4S2/c1-13-7-9-15(11-13)5-3-4-6-16-10-8-14(2)12-16;2*3-1(4,5)14(10,11)9-15(12,13)2(6,7)8/h7-12H,3-6H2,1-2H3;;/q+2;2*-1
Compound 3: 3,3'-(1,5-pentanediyl)bis[1-methylimidazolium] 1,1,1-trifluoro-N-[(trifluoromethyl)sulfonyl]methanesulfonamide, C17H22F12N6O8S4, InChI=1S/C13H22N4.2C2F6NO4S2/c1-14-8-10-16(12-14)6-4-3-5-7-17-11-9-15(2)13-17;2*3-1(4,5)14(10,11)9-15(12,13)2(6,7)8/h8-13H,3-7H2,1-2H3;;/q+2;2*-1

System: 3,3'-(propane-1,3-diyl)bis(1-methyl-1H-imidazol-3-ium) bis((trifluoromethyl)sulfonyl)amide; phases: Liquid
Fixed: Pressure, kPa = 83
Property: Mass density, kg/m3 (Liquid); method: Vibrating tube method
Temperature, K	Mass density, kg/m3	uncertainty
303.15	1615.9	3.3
313.15	1606.3	3.3
323.15	1596.5	3.3
333.15	1586.3	3.2
343.15	1580	3.2
353.15	1570.3	3.2
296	1621.6	3.3

System: 3,3'-(propane-1,3-diyl)bis(1-methyl-1H-imidazol-3-ium) bis((trifluoromethyl)sulfonyl)amide; phases: Liquid, Air at 1 atmosphere
Property: Surface tension liquid-gas, N/m (Liquid); method: Ring tensiometer
Temperature, K	Surface tension liquid-gas, N/m	uncertainty
303.15	0.038	0.0006
308.15	0.0375	0.0005
313.15	0.0373	0.0005
318.15	0.0369	0.0005
323.15	0.0366	0.0005
328.15	0.0362	0.0005
333.15	0.0358	0.0005
338.15	0.0355	0.0005
343.15	0.035	0.0005
348.15	0.0347	0.0005
353.15	0.0344	0.0005
296	0.0385	0.0006

System: 3,3'-(propane-1,3-diyl)bis(1-methyl-1H-imidazol-3-ium) bis((trifluoromethyl)sulfonyl)amide; phases: Liquid
Fixed: Pressure, kPa = 83
Property: Viscosity, Pa*s (Liquid); method: Concentric cylinders viscometry
Temperature, K	Viscosity, Pa*s	uncertainty
298.15	1.122	0.06387
303.15	0.7767	0.04237
308.15	0.55595	0.0288
313.15	0.40488	0.02002
318.15	0.30289	0.01435
323.15	0.23528	0.01076
328.15	0.184215	0.008196
333.15	0.14579	0.00633
338.15	0.11799	0.00502
343.15	0.09651	0.00404
348.15	0.07979	0.0033
353.15	0.06746	0.00277
358.15	0.05727	0.00234
363.15	0.04901	0.00201

System: 3,3'-(1,4-butanediyl)bis[1-methylimidazolium] 1,1,1-trifluoro-N-[(trifluoromethyl)sulfonyl]methanesulfonamide; phases: Metastable liquid
Fixed: Pressure, kPa = 83
Property: Mass density, kg/m3 (Metastable liquid); method: Vibrating tube method
Temperature, K	Mass density, kg/m3	uncertainty
303.15	1586.7	3.2
313.15	1577.4	3.2
323.15	1567.7	3.2
333.15	1558.9	3.2
343.15	1552.8	3.2
353.15	1543.3	3.2

System: 3,3'-(1,4-butanediyl)bis[1-methylimidazolium] 1,1,1-trifluoro-N-[(trifluoromethyl)sulfonyl]methanesulfonamide; phases: Metastable liquid, Air at 1 atmosphere
Property: Surface tension liquid-gas, N/m (Metastable liquid); method: Ring tensiometer
Temperature, K	Surface tension liquid-gas, N/m	uncertainty
323.15	0.038	0.0006
328.15	0.0375	0.0005
333.15	0.0369	0.0005
338.15	0.0365	0.0005
343.15	0.0361	0.0005
348.15	0.0357	0.0005
353.15	0.0354	0.0005

System: 3,3'-(1,4-butanediyl)bis[1-methylimidazolium] 1,1,1-trifluoro-N-[(trifluoromethyl)sulfonyl]methanesulfonamide; phases: Metastable liquid
Fixed: Pressure, kPa = 83
Property: Viscosity, Pa*s (Metastable liquid); method: Concentric cylinders viscometry
Temperature, K	Viscosity, Pa*s	uncertainty
293.15	1.203	0.06904
298.15	0.84897	0.04678
303.15	0.60695	0.0318
308.15	0.44755	0.02239
313.15	0.33426	0.01605
318.15	0.25578	0.01184
323.15	0.19989	0.00897
328.15	0.15852	0.00692
333.15	0.12999	0.00556
338.15	0.10597	0.00447
343.15	0.08649	0.0036
348.15	0.07185	0.00296
353.15	0.06079	0.00249
358.15	0.05185	0.00212
363.15	0.04461	0.00183

System: 3,3'-(1,5-pentanediyl)bis[1-methylimidazolium] 1,1,1-trifluoro-N-[(trifluoromethyl)sulfonyl]methanesulfonamide; phases: Liquid
Fixed: Pressure, kPa = 83
Property: Mass density, kg/m3 (Liquid); method: Vibrating tube method
Temperature, K	Mass density, kg/m3	uncertainty
297	1571.1	3.2
303.15	1565.7	3.2
313.15	1557.5	3.2
323.15	1547.7	3.2
333.15	1539.8	3.1
343.15	1532.8	3.1
353.15	1524.2	3.1

System: 3,3'-(1,5-pentanediyl)bis[1-methylimidazolium] 1,1,1-trifluoro-N-[(trifluoromethyl)sulfonyl]methanesulfonamide; phases: Liquid, Air at 1 atmosphere
Property: Surface tension liquid-gas, N/m (Liquid); method: Ring tensiometer
Temperature, K	Surface tension liquid-gas, N/m	uncertainty
297	0.0427	0.0006
303.15	0.0424	0.0006
308.15	0.0421	0.0006
313.15	0.0417	0.0006
318.15	0.0414	0.0006
323.15	0.041	0.0006
328.15	0.0407	0.0006
333.15	0.0405	0.0006
338.15	0.0401	0.0006
343.15	0.0399	0.0006
348.15	0.0397	0.0006
353.15	0.0394	0.0006

System: 3,3'-(1,5-pentanediyl)bis[1-methylimidazolium] 1,1,1-trifluoro-N-[(trifluoromethyl)sulfonyl]methanesulfonamide; phases: Liquid
Fixed: Pressure, kPa = 83
Property: Viscosity, Pa*s (Liquid); method: Concentric cylinders viscometry
Temperature, K	Viscosity, Pa*s	uncertainty
293.15	1.029	0.05775
298.15	0.72342	0.03899
303.15	0.5196	0.02665
308.15	0.38081	0.01866
313.15	0.28547	0.01344
318.15	0.21801	0.00991
323.15	0.1719	0.00758
328.15	0.13721	0.00592
333.15	0.11081	0.00469
338.15	0.091	0.0038
343.15	0.07578	0.00313
348.15	0.06304	0.00259
353.15	0.05347	0.00218
358.15	0.04563	0.00187
363.15	0.03955	0.00162
