Measured thermophysical data. Excess molar volume along with refractive index for binary systems of dimethoxymethylphenylsilane with dimethyldimethoxysilane, dimethyldiethoxylsilane, methylvinyldiethoxysilane and ethenyltrimethoxysilane
Source: J. Chem. Thermodyn., 2017, 10.1016/j.jct.2016.10.033
Compound 1: dimethoxymethylphenylsilane, C9H14O2Si, InChI=1S/C9H14O2Si/c1-10-12(3,11-2)9-7-5-4-6-8-9/h4-8H,1-3H3, purity 99.9%
Compound 2: dimethoxydimethylsilane, C4H12O2Si, InChI=1S/C4H12O2Si/c1-5-7(3,4)6-2/h1-4H3, purity 99.9%
Compound 3: dimethyldiethoxysilane, C6H16O2Si, InChI=1S/C6H16O2Si/c1-5-7-9(3,4)8-6-2/h5-6H2,1-4H3, purity 99.9%
Compound 4: methylvinyldiethoxysilane, C7H16O2Si, InChI=1S/C7H16O2Si/c1-5-8-10(4,7-3)9-6-2/h7H,3,5-6H2,1-2,4H3, purity 99.9%
Compound 5: trimethoxy(vinyl)silane, C5H12O3Si, InChI=1S/C5H12O3Si/c1-5-9(6-2,7-3)8-4/h5H,1H2,2-4H3, purity 99.9%

System: dimethoxymethylphenylsilane; phases: Liquid
Fixed: Pressure, kPa = 103
Property: Mass density, kg/m3 (Liquid); method: Vibrating tube method
Temperature, K	Mass density, kg/m3	uncertainty
298.15	1000.78	0.41
303.15	996.13	0.41
308.15	991.48	0.41
313.15	986.81	0.41
318.15	982.15	0.41

System: dimethoxymethylphenylsilane; phases: Liquid
Fixed: Pressure, kPa = 103
Property: Refractive index (Na D-line) (Liquid); method: Standard Abbe refractometry
Temperature, K	Refractive index (Na D-line)	uncertainty
298.15	1.47763	0.00401
303.15	1.47528	0.00401
308.15	1.47293	0.00401
313.15	1.47061	0.00401
318.15	1.46825	0.00401

System: dimethoxydimethylsilane; phases: Liquid
Fixed: Pressure, kPa = 103
Property: Mass density, kg/m3 (Liquid); method: Vibrating tube method
Temperature, K	Mass density, kg/m3	uncertainty
298.15	857.9	0.41
303.15	852.05	0.41
308.15	846.16	0.41
313.15	840.22	0.42
318.15	834.24	0.42

System: dimethoxydimethylsilane; phases: Liquid
Fixed: Pressure, kPa = 103
Property: Refractive index (Na D-line) (Liquid); method: Standard Abbe refractometry
Temperature, K	Refractive index (Na D-line)	uncertainty
298.15	1.36816	0.00401
303.15	1.36559	0.00401
308.15	1.36297	0.00401
313.15	1.36035	0.00401
318.15	1.35771	0.00401

System: dimethyldiethoxysilane; phases: Liquid
Fixed: Pressure, kPa = 103
Property: Mass density, kg/m3 (Liquid); method: Vibrating tube method
Temperature, K	Mass density, kg/m3	uncertainty
293.15	840.11	0.41
298.15	835.43	0.41
303.15	830.05	0.42
308.15	824.66	0.42
313.15	819.23	0.42
318.15	813.79	0.42

System: dimethyldiethoxysilane; phases: Liquid
Fixed: Pressure, kPa = 103
Property: Refractive index (Na D-line) (Liquid); method: Standard Abbe refractometry
Temperature, K	Refractive index (Na D-line)	uncertainty
293.15	1.38452	0.00401
298.15	1.38045	0.00401
303.15	1.37791	0.00401
308.15	1.37532	0.00401
313.15	1.37275	0.00401
318.15	1.37015	0.00401

System: methylvinyldiethoxysilane; phases: Liquid
Fixed: Pressure, kPa = 103
Property: Mass density, kg/m3 (Liquid); method: Vibrating tube method
Temperature, K	Mass density, kg/m3	uncertainty
293.15	862.21	0.41
298.15	856.25	0.41
303.15	851.09	0.41
308.15	845.89	0.41
313.15	840.71	0.41
318.15	835.44	0.41

System: methylvinyldiethoxysilane; phases: Liquid
Fixed: Pressure, kPa = 103
Property: Refractive index (Na D-line) (Liquid); method: Standard Abbe refractometry
Temperature, K	Refractive index (Na D-line)	uncertainty
293.15	1.40033	0.00401
298.15	1.39751	0.00401
303.15	1.39501	0.00401
308.15	1.39249	0.00401
313.15	1.38997	0.00401
318.15	1.38742	0.00401

System: trimethoxy(vinyl)silane; phases: Liquid
Fixed: Pressure, kPa = 103
Property: Mass density, kg/m3 (Liquid); method: Vibrating tube method
Temperature, K	Mass density, kg/m3	uncertainty
298.15	965.69	0.41
303.15	960.02	0.41
308.15	954.26	0.41
313.15	948.47	0.41
318.15	942.63	0.41

System: trimethoxy(vinyl)silane; phases: Liquid
Fixed: Pressure, kPa = 103
Property: Refractive index (Na D-line) (Liquid); method: Standard Abbe refractometry
Temperature, K	Refractive index (Na D-line)	uncertainty
298.15	1.39022	0.00401
303.15	1.38775	0.00401
308.15	1.38535	0.00401
313.15	1.3829	0.00401
318.15	1.38046	0.00401

System: dimethoxydimethylsilane + dimethoxymethylphenylsilane; phases: Liquid
Fixed: Pressure, kPa = 103
Property: Mass density, kg/m3 (Liquid); method: Vibrating tube method
Temperature, K	Mole fraction of dimethoxymethylphenylsilane	Mass density, kg/m3	uncertainty
298.15	0	857.9	0.41
298.15	0.0501	867.91	0.41
298.15	0.1001	877.51	0.41
298.15	0.15	886.69	0.41
298.15	0.2	895.55	0.41
298.15	0.25	904.02	0.41
298.15	0.2999	912.17	0.41
298.15	0.3499	920.17	0.41
298.15	0.4001	927.65	0.41
298.15	0.4501	934.96	0.41
298.15	0.5001	942	0.41
298.15	0.55	948.79	0.41
298.15	0.6	955.36	0.41
298.15	0.6499	961.69	0.41
298.15	0.6999	967.83	0.41
298.15	0.75	973.78	0.41
298.15	0.7997	979.5	0.41
298.15	0.8499	985.08	0.41
298.15	0.8999	990.48	0.41
298.15	0.95	995.72	0.41
298.15	1	1000.78	0.41
303.15	0	852.05	0.41
303.15	0.0501	862.2	0.42
303.15	0.1001	871.89	0.41
303.15	0.15	881.2	0.41
303.15	0.2	890.16	0.41
303.15	0.25	898.68	0.41
303.15	0.2999	906.9	0.41
303.15	0.3499	914.94	0.41
303.15	0.4001	922.49	0.41
303.15	0.4501	929.92	0.41
303.15	0.5001	936.98	0.41
303.15	0.55	943.85	0.41
303.15	0.6	950.46	0.41
303.15	0.6499	956.82	0.41
303.15	0.6999	962.98	0.41
303.15	0.75	968.97	0.41
303.15	0.7997	974.72	0.41
303.15	0.8499	980.34	0.41
303.15	0.8999	985.77	0.41
303.15	0.95	991.04	0.41
303.15	1	996.13	0.41
308.15	0	846.16	0.41
308.15	0.0501	856.41	0.42
308.15	0.1001	866.22	0.41
308.15	0.15	875.64	0.41
308.15	0.2	884.71	0.41
308.15	0.25	893.28	0.41
308.15	0.2999	901.56	0.41
308.15	0.3499	909.7	0.41
308.15	0.4001	917.31	0.41
308.15	0.4501	924.83	0.41
308.15	0.5001	931.93	0.41
308.15	0.55	938.85	0.41
308.15	0.6	945.52	0.41
308.15	0.6499	951.89	0.41
308.15	0.6999	958.11	0.41
308.15	0.75	964.15	0.41
308.15	0.7997	969.93	0.41
308.15	0.8499	975.58	0.41
308.15	0.8999	981.05	0.41
308.15	0.95	986.35	0.41
308.15	1	991.48	0.41
313.15	0	840.22	0.42
313.15	0.0501	850.61	0.42
313.15	0.1001	860.51	0.42
313.15	0.15	870.06	0.41
313.15	0.2	879.29	0.41
313.15	0.25	887.86	0.41
313.15	0.2999	896.2	0.41
313.15	0.3499	904.52	0.41
313.15	0.4001	912.1	0.41
313.15	0.4501	919.75	0.41
313.15	0.5001	926.87	0.41
313.15	0.55	933.86	0.41
313.15	0.6	940.57	0.41
313.15	0.6499	946.97	0.41
313.15	0.6999	953.22	0.41
313.15	0.75	959.31	0.41
313.15	0.7997	965.13	0.41
313.15	0.8499	970.81	0.41
313.15	0.8999	976.33	0.41
313.15	0.95	981.66	0.41
313.15	1	986.81	0.41
318.15	0	834.24	0.42
318.15	0.0501	844.75	0.42
318.15	0.1001	854.76	0.42
318.15	0.15	864.46	0.42
318.15	0.2	873.78	0.41
318.15	0.25	882.41	0.41
318.15	0.2999	890.82	0.41
318.15	0.3499	899.24	0.41
318.15	0.4001	906.86	0.41
318.15	0.4501	914.64	0.41
318.15	0.5001	921.78	0.41
318.15	0.55	928.85	0.41
318.15	0.6	935.6	0.41
318.15	0.6499	942.03	0.41
318.15	0.6999	948.33	0.41
318.15	0.75	954.48	0.41
318.15	0.7997	960.32	0.41
318.15	0.8499	966.02	0.41
318.15	0.8999	971.59	0.41
318.15	0.95	976.95	0.41
318.15	1	982.15	0.41

System: dimethoxydimethylsilane + dimethoxymethylphenylsilane; phases: Liquid
Fixed: Pressure, kPa = 103
Property: Refractive index (Na D-line) (Liquid); method: Standard Abbe refractometry
Temperature, K	Mole fraction of dimethoxymethylphenylsilane	Refractive index (Na D-line)	uncertainty
298.15	0	1.36816	0.00401
298.15	0.0501	1.37551	0.00401
298.15	0.1001	1.3826	0.00401
298.15	0.15	1.38945	0.00401
298.15	0.2	1.3961	0.00401
298.15	0.25	1.40247	0.00401
298.15	0.2999	1.40864	0.00401
298.15	0.3499	1.41459	0.00401
298.15	0.4001	1.42041	0.00401
298.15	0.4501	1.42603	0.00401
298.15	0.5001	1.43147	0.00401
298.15	0.55	1.43672	0.00401
298.15	0.6	1.44182	0.00401
298.15	0.6499	1.44673	0.00401
298.15	0.6999	1.45155	0.00401
298.15	0.75	1.45621	0.00401
298.15	0.7997	1.46072	0.00401
298.15	0.8499	1.46514	0.00401
298.15	0.8999	1.46939	0.00401
298.15	0.95	1.47356	0.00401
298.15	1	1.47763	0.00401
303.15	0	1.36559	0.00401
303.15	0.0501	1.37295	0.00401
303.15	0.1001	1.38005	0.00401
303.15	0.15	1.38696	0.00401
303.15	0.2	1.39364	0.00401
303.15	0.25	1.40001	0.00401
303.15	0.2999	1.40619	0.00401
303.15	0.3499	1.41213	0.00401
303.15	0.4001	1.41798	0.00401
303.15	0.4501	1.42366	0.00401
303.15	0.5001	1.42909	0.00401
303.15	0.55	1.43435	0.00401
303.15	0.6	1.43946	0.00401
303.15	0.6499	1.44437	0.00401
303.15	0.6999	1.4492	0.00401
303.15	0.75	1.45386	0.00401
303.15	0.7997	1.45837	0.00401
303.15	0.8499	1.46278	0.00401
303.15	0.8999	1.46704	0.00401
303.15	0.95	1.47121	0.00401
303.15	1	1.47528	0.00401
308.15	0	1.36297	0.00401
308.15	0.0501	1.37035	0.00401
308.15	0.1001	1.37748	0.00401
308.15	0.15	1.38442	0.00401
308.15	0.2	1.39111	0.00401
308.15	0.25	1.39748	0.00401
308.15	0.2999	1.40369	0.00401
308.15	0.3499	1.40966	0.00401
308.15	0.4001	1.41551	0.00401
308.15	0.4501	1.42126	0.00401
308.15	0.5001	1.42667	0.00401
308.15	0.55	1.43195	0.00401
308.15	0.6	1.43707	0.00401
308.15	0.6499	1.44197	0.00401
308.15	0.6999	1.44681	0.00401
308.15	0.75	1.45148	0.00401
308.15	0.7997	1.456	0.00401
308.15	0.8499	1.46042	0.00401
308.15	0.8999	1.46469	0.00401
308.15	0.95	1.46886	0.00401
308.15	1	1.47293	0.00401
313.15	0	1.36035	0.00401
313.15	0.0501	1.36774	0.00401
313.15	0.1001	1.37492	0.00401
313.15	0.15	1.3819	0.00401
313.15	0.2	1.38864	0.00401
313.15	0.25	1.39498	0.00401
313.15	0.2999	1.40119	0.00401
313.15	0.3499	1.40726	0.00401
313.15	0.4001	1.41306	0.00401
313.15	0.4501	1.41886	0.00401
313.15	0.5001	1.42426	0.00401
313.15	0.55	1.42958	0.00401
313.15	0.6	1.43469	0.00401
313.15	0.6499	1.43957	0.00401
313.15	0.6999	1.44442	0.00401
313.15	0.75	1.44913	0.00401
313.15	0.7997	1.45364	0.00401
313.15	0.8499	1.45805	0.00401
313.15	0.8999	1.46234	0.00401
313.15	0.95	1.46651	0.00401
313.15	1	1.47061	0.00401
318.15	0	1.35771	0.00401
318.15	0.0501	1.36513	0.00401
318.15	0.1001	1.37233	0.00401
318.15	0.15	1.37936	0.00401
318.15	0.2	1.38612	0.00401
318.15	0.25	1.39248	0.00401
318.15	0.2999	1.3987	0.00401
318.15	0.3499	1.4048	0.00401
318.15	0.4001	1.41059	0.00401
318.15	0.4501	1.41642	0.00401
318.15	0.5001	1.42184	0.00401
318.15	0.55	1.42718	0.00401
318.15	0.6	1.43232	0.00401
318.15	0.6499	1.43718	0.00401
318.15	0.6999	1.44204	0.00401
318.15	0.75	1.44677	0.00401
318.15	0.7997	1.45125	0.00401
318.15	0.8499	1.45569	0.00401
318.15	0.8999	1.45999	0.00401
318.15	0.95	1.46417	0.00401
318.15	1	1.46825	0.00401

System: dimethyldiethoxysilane + dimethoxymethylphenylsilane; phases: Liquid
Fixed: Pressure, kPa = 103
Property: Mass density, kg/m3 (Liquid); method: Vibrating tube method
Temperature, K	Mole fraction of dimethoxymethylphenylsilane	Mass density, kg/m3	uncertainty
298.15	0	835.43	0.41
298.15	0.05	844.52	0.42
298.15	0.1001	853.53	0.41
298.15	0.1499	862.39	0.41
298.15	0.2002	871.25	0.41
298.15	0.2501	879.99	0.41
298.15	0.3001	888.58	0.41
298.15	0.3499	897.15	0.41
298.15	0.4	905.59	0.41
298.15	0.4499	914.02	0.41
298.15	0.5	922.3	0.4
298.15	0.55	930.51	0.41
298.15	0.5999	938.58	0.41
298.15	0.65	946.66	0.41
298.15	0.6999	954.61	0.41
298.15	0.75	962.69	0.41
298.15	0.8	970.29	0.41
298.15	0.8498	978.01	0.41
298.15	0.9	985.69	0.41
298.15	0.95	993.25	0.41
298.15	1	1000.78	0.41
303.15	0	830.05	0.42
303.15	0.05	839.2	0.42
303.15	0.1001	848.24	0.42
303.15	0.1499	857.16	0.41
303.15	0.2002	866.06	0.41
303.15	0.2501	874.82	0.41
303.15	0.3001	883.47	0.41
303.15	0.3499	892.09	0.41
303.15	0.4	900.56	0.41
303.15	0.4499	909.03	0.41
303.15	0.5	917.36	0.41
303.15	0.55	925.59	0.41
303.15	0.5999	933.7	0.41
303.15	0.65	941.82	0.41
303.15	0.6999	949.79	0.41
303.15	0.75	957.72	0.41
303.15	0.8	965.52	0.41
303.15	0.8498	973.29	0.41
303.15	0.9	980.99	0.41
303.15	0.95	988.58	0.41
303.15	1	996.13	0.41
308.15	0	824.66	0.42
308.15	0.05	833.85	0.42
308.15	0.1001	842.96	0.42
308.15	0.1499	851.93	0.41
308.15	0.2002	860.86	0.41
308.15	0.2501	869.69	0.41
308.15	0.3001	878.37	0.41
308.15	0.3499	887.07	0.41
308.15	0.4	895.53	0.41
308.15	0.4499	904.09	0.41
308.15	0.5	912.44	0.41
308.15	0.55	920.71	0.41
308.15	0.5999	928.83	0.41
308.15	0.65	936.99	0.41
308.15	0.6999	944.98	0.41
308.15	0.75	952.94	0.41
308.15	0.8	960.76	0.41
308.15	0.8498	968.57	0.41
308.15	0.9	976.3	0.41
308.15	0.95	983.91	0.41
308.15	1	991.48	0.41
313.15	0	819.23	0.42
313.15	0.05	828.47	0.42
313.15	0.1001	837.62	0.42
313.15	0.1499	846.65	0.42
313.15	0.2002	855.62	0.41
313.15	0.2501	864.51	0.41
313.15	0.3001	873.21	0.41
313.15	0.3499	881.99	0.41
313.15	0.4	890.45	0.41
313.15	0.4499	899.09	0.41
313.15	0.5	907.47	0.41
313.15	0.55	915.78	0.41
313.15	0.5999	923.93	0.41
313.15	0.65	932.13	0.41
313.15	0.6999	940.14	0.41
313.15	0.75	948.14	0.41
313.15	0.8	955.98	0.41
313.15	0.8498	963.83	0.41
313.15	0.9	971.58	0.41
313.15	0.95	979.23	0.41
313.15	1	986.81	0.41
318.15	0	813.79	0.42
318.15	0.05	823.07	0.42
318.15	0.1001	832.3	0.42
318.15	0.1499	841.38	0.42
318.15	0.2002	850.38	0.41
318.15	0.2501	859.35	0.41
318.15	0.3001	868.08	0.41
318.15	0.3499	876.96	0.41
318.15	0.4	885.39	0.41
318.15	0.4499	894.16	0.41
318.15	0.5	902.55	0.41
318.15	0.55	910.89	0.41
318.15	0.5999	919.05	0.41
318.15	0.65	927.3	0.41
318.15	0.6999	935.33	0.41
318.15	0.75	943.35	0.41
318.15	0.8	951.2	0.41
318.15	0.8498	959.11	0.41
318.15	0.9	966.88	0.41
318.15	0.95	974.53	0.41
318.15	1	982.15	0.41

System: dimethyldiethoxysilane + dimethoxymethylphenylsilane; phases: Liquid
Fixed: Pressure, kPa = 103
Property: Refractive index (Na D-line) (Liquid); method: Standard Abbe refractometry
Temperature, K	Mole fraction of dimethoxymethylphenylsilane	Refractive index (Na D-line)	uncertainty
298.15	0	1.38045	0.00401
298.15	0.05	1.38569	0.00401
298.15	0.1001	1.39089	0.00401
298.15	0.1499	1.39601	0.00401
298.15	0.2002	1.40114	0.00401
298.15	0.2501	1.40622	0.00401
298.15	0.3001	1.41123	0.00401
298.15	0.3499	1.41623	0.00401
298.15	0.4	1.42117	0.00401
298.15	0.4499	1.42609	0.00401
298.15	0.5	1.43096	0.00401
298.15	0.55	1.43582	0.00401
298.15	0.5999	1.44058	0.00401
298.15	0.65	1.44535	0.00401
298.15	0.6999	1.45008	0.00401
298.15	0.75	1.45489	0.00401
298.15	0.8	1.4594	0.00401
298.15	0.8498	1.464	0.00401
298.15	0.9	1.46859	0.00401
298.15	0.95	1.47312	0.00401
298.15	1	1.47763	0.00401
303.15	0	1.37791	0.00401
303.15	0.05	1.38315	0.00401
303.15	0.1001	1.38836	0.00401
303.15	0.1499	1.39351	0.00401
303.15	0.2002	1.39865	0.00401
303.15	0.2501	1.40372	0.00401
303.15	0.3001	1.40874	0.00401
303.15	0.3499	1.41376	0.00401
303.15	0.4	1.41873	0.00401
303.15	0.4499	1.42366	0.00401
303.15	0.5	1.42854	0.00401
303.15	0.55	1.4334	0.00401
303.15	0.5999	1.43819	0.00401
303.15	0.65	1.44296	0.00401
303.15	0.6999	1.4477	0.00401
303.15	0.75	1.45239	0.00401
303.15	0.8	1.45703	0.00401
303.15	0.8498	1.46165	0.00401
303.15	0.9	1.46623	0.00401
303.15	0.95	1.47078	0.00401
303.15	1	1.47528	0.00401
308.15	0	1.37532	0.00401
308.15	0.05	1.38057	0.00401
308.15	0.1001	1.38582	0.00401
308.15	0.1499	1.39097	0.00401
308.15	0.2002	1.39614	0.00401
308.15	0.2501	1.40124	0.00401
308.15	0.3001	1.40626	0.00401
308.15	0.3499	1.41131	0.00401
308.15	0.4	1.41626	0.00401
308.15	0.4499	1.42126	0.00401
308.15	0.5	1.42613	0.00401
308.15	0.55	1.43098	0.00401
308.15	0.5999	1.43579	0.00401
308.15	0.65	1.44058	0.00401
308.15	0.6999	1.44531	0.00401
308.15	0.75	1.45002	0.00401
308.15	0.8	1.45464	0.00401
308.15	0.8498	1.45929	0.00401
308.15	0.9	1.46388	0.00401
308.15	0.95	1.46843	0.00401
308.15	1	1.47293	0.00401
313.15	0	1.37275	0.00401
313.15	0.05	1.37799	0.00401
313.15	0.1001	1.38325	0.00401
313.15	0.1499	1.38844	0.00401
313.15	0.2002	1.39362	0.00401
313.15	0.2501	1.39874	0.00401
313.15	0.3001	1.40376	0.00401
313.15	0.3499	1.40883	0.00401
313.15	0.4	1.41378	0.00401
313.15	0.4499	1.41881	0.00401
313.15	0.5	1.42369	0.00401
313.15	0.55	1.42856	0.00401
313.15	0.5999	1.43336	0.00401
313.15	0.65	1.43819	0.00401
313.15	0.6999	1.4429	0.00401
313.15	0.75	1.44764	0.00401
313.15	0.8	1.45227	0.00401
313.15	0.8498	1.45692	0.00401
313.15	0.9	1.46153	0.00401
313.15	0.95	1.46607	0.00401
313.15	1	1.47061	0.00401
318.15	0	1.37015	0.00401
318.15	0.05	1.37541	0.00401
318.15	0.1001	1.38071	0.00401
318.15	0.1499	1.38592	0.00401
318.15	0.2002	1.39108	0.00401
318.15	0.2501	1.39625	0.00401
318.15	0.3001	1.40129	0.00401
318.15	0.3499	1.4064	0.00401
318.15	0.4	1.41133	0.00401
318.15	0.4499	1.41639	0.00401
318.15	0.5	1.42133	0.00401
318.15	0.55	1.42618	0.00401
318.15	0.5999	1.43098	0.00401
318.15	0.65	1.43582	0.00401
318.15	0.6999	1.44055	0.00401
318.15	0.75	1.44527	0.00401
318.15	0.8	1.44991	0.00401
318.15	0.8498	1.45455	0.00401
318.15	0.9	1.45918	0.00401
318.15	0.95	1.46372	0.00401
318.15	1	1.46825	0.00401

System: dimethoxymethylphenylsilane + methylvinyldiethoxysilane; phases: Liquid
Fixed: Pressure, kPa = 103
Property: Mass density, kg/m3 (Liquid); method: Vibrating tube method
Temperature, K	Mole fraction of dimethoxymethylphenylsilane	Mass density, kg/m3	uncertainty
298.15	0	856.25	0.41
298.15	0.05	863.72	0.41
298.15	0.1001	871.17	0.41
298.15	0.1499	878.58	0.41
298.15	0.2001	885.98	0.41
298.15	0.2501	893.45	0.41
298.15	0.3	900.68	0.41
298.15	0.3499	907.99	0.41
298.15	0.4	915.28	0.41
298.15	0.4501	922.58	0.41
298.15	0.5	929.75	0.41
298.15	0.5499	937	0.41
298.15	0.6	944.21	0.41
298.15	0.65	951.55	0.41
298.15	0.6999	958.48	0.41
298.15	0.75	965.63	0.41
298.15	0.7999	972.72	0.41
298.15	0.85	979.76	0.41
298.15	0.8998	987.03	0.41
298.15	0.9499	993.78	0.41
298.15	1	1000.78	0.41
303.15	0	851.09	0.41
303.15	0.05	858.61	0.41
303.15	0.1001	866.08	0.41
303.15	0.1499	873.53	0.41
303.15	0.2001	880.95	0.41
303.15	0.2501	888.45	0.41
303.15	0.3	895.69	0.41
303.15	0.3499	903.05	0.41
303.15	0.4	910.36	0.41
303.15	0.4501	917.68	0.41
303.15	0.5	924.84	0.41
303.15	0.5499	932.14	0.41
303.15	0.6	939.4	0.41
303.15	0.65	946.75	0.41
303.15	0.6999	953.71	0.41
303.15	0.75	960.89	0.41
303.15	0.7999	968	0.41
303.15	0.85	975.05	0.41
303.15	0.8998	982.34	0.41
303.15	0.9499	989.11	0.41
303.15	1	996.13	0.41
308.15	0	845.89	0.41
308.15	0.05	853.46	0.41
308.15	0.1001	860.96	0.41
308.15	0.1499	868.43	0.41
308.15	0.2001	875.9	0.41
308.15	0.2501	883.43	0.41
308.15	0.3	890.69	0.41
308.15	0.3499	898.08	0.41
308.15	0.4	905.41	0.41
308.15	0.4501	912.77	0.41
308.15	0.5	919.93	0.41
308.15	0.5499	927.28	0.41
308.15	0.6	934.57	0.41
308.15	0.65	941.94	0.41
308.15	0.6999	948.92	0.41
308.15	0.75	956.12	0.41
308.15	0.7999	963.25	0.41
308.15	0.85	970.33	0.41
308.15	0.8998	977.65	0.41
308.15	0.9499	984.43	0.41
308.15	1	991.48	0.41
313.15	0	840.71	0.41
313.15	0.05	848.28	0.41
313.15	0.1001	855.82	0.41
313.15	0.1499	863.33	0.41
313.15	0.2001	870.83	0.41
313.15	0.2501	878.38	0.41
313.15	0.3	885.67	0.41
313.15	0.3499	893.09	0.41
313.15	0.4	900.45	0.41
313.15	0.4501	907.84	0.41
313.15	0.5	915	0.41
313.15	0.5499	922.39	0.41
313.15	0.6	929.72	0.41
313.15	0.65	937.11	0.41
313.15	0.6999	944.12	0.41
313.15	0.75	951.35	0.41
313.15	0.7999	958.51	0.41
313.15	0.85	965.59	0.41
313.15	0.8998	972.94	0.41
313.15	0.9499	979.74	0.41
313.15	1	986.81	0.41
318.15	0	835.44	0.41
318.15	0.05	843.09	0.41
318.15	0.1001	850.66	0.41
318.15	0.1499	858.2	0.41
318.15	0.2001	865.74	0.41
318.15	0.2501	873.33	0.41
318.15	0.3	880.64	0.41
318.15	0.3499	888.08	0.41
318.15	0.4	895.47	0.41
318.15	0.4501	902.89	0.41
318.15	0.5	910.05	0.41
318.15	0.5499	917.49	0.41
318.15	0.6	924.87	0.41
318.15	0.65	932.27	0.41
318.15	0.6999	939.31	0.41
318.15	0.75	946.57	0.41
318.15	0.7999	953.74	0.41
318.15	0.85	960.85	0.41
318.15	0.8998	968.23	0.41
318.15	0.9499	975.03	0.41
318.15	1	982.15	0.41

System: dimethoxymethylphenylsilane + methylvinyldiethoxysilane; phases: Liquid
Fixed: Pressure, kPa = 103
Property: Refractive index (Na D-line) (Liquid); method: Standard Abbe refractometry
Temperature, K	Mole fraction of dimethoxymethylphenylsilane	Refractive index (Na D-line)	uncertainty
298.15	0	1.39751	0.00401
298.15	0.05	1.40161	0.00401
298.15	0.1001	1.40569	0.00401
298.15	0.1499	1.40975	0.00401
298.15	0.2001	1.41382	0.00401
298.15	0.2501	1.41792	0.00401
298.15	0.3	1.42192	0.00401
298.15	0.3499	1.42595	0.00401
298.15	0.4	1.42999	0.00401
298.15	0.4501	1.43404	0.00401
298.15	0.5	1.43801	0.00401
298.15	0.5499	1.44203	0.00401
298.15	0.6	1.44606	0.00401
298.15	0.65	1.44994	0.00401
298.15	0.6999	1.45398	0.00401
298.15	0.75	1.45797	0.00401
298.15	0.7999	1.46196	0.00401
298.15	0.85	1.46589	0.00401
298.15	0.8998	1.46999	0.00401
298.15	0.9499	1.47377	0.00401
298.15	1	1.47763	0.00401
303.15	0	1.39501	0.00401
303.15	0.05	1.39911	0.00401
303.15	0.1001	1.40322	0.00401
303.15	0.1499	1.40729	0.00401
303.15	0.2001	1.41135	0.00401
303.15	0.2501	1.41547	0.00401
303.15	0.3	1.41948	0.00401
303.15	0.3499	1.42352	0.00401
303.15	0.4	1.42755	0.00401
303.15	0.4501	1.43161	0.00401
303.15	0.5	1.43558	0.00401
303.15	0.5499	1.43961	0.00401
303.15	0.6	1.44365	0.00401
303.15	0.65	1.44754	0.00401
303.15	0.6999	1.45159	0.00401
303.15	0.75	1.45558	0.00401
303.15	0.7999	1.45958	0.00401
303.15	0.85	1.46352	0.00401
303.15	0.8998	1.46763	0.00401
303.15	0.9499	1.47142	0.00401
303.15	1	1.47528	0.00401
308.15	0	1.39249	0.00401
308.15	0.05	1.3966	0.00401
308.15	0.1001	1.40071	0.00401
308.15	0.1499	1.40481	0.00401
308.15	0.2001	1.40888	0.00401
308.15	0.2501	1.413	0.00401
308.15	0.3	1.41702	0.00401
308.15	0.3499	1.42108	0.00401
308.15	0.4	1.42511	0.00401
308.15	0.4501	1.42919	0.00401
308.15	0.5	1.43316	0.00401
308.15	0.5499	1.43721	0.00401
308.15	0.6	1.44126	0.00401
308.15	0.65	1.44513	0.00401
308.15	0.6999	1.44922	0.00401
308.15	0.75	1.45323	0.00401
308.15	0.7999	1.45722	0.00401
308.15	0.85	1.46116	0.00401
308.15	0.8998	1.46528	0.00401
308.15	0.9499	1.46907	0.00401
308.15	1	1.47293	0.00401
313.15	0	1.38997	0.00401
313.15	0.05	1.39407	0.00401
313.15	0.1001	1.39819	0.00401
313.15	0.1499	1.4023	0.00401
313.15	0.2001	1.40639	0.00401
313.15	0.2501	1.41052	0.00401
313.15	0.3	1.41456	0.00401
313.15	0.3499	1.41864	0.00401
313.15	0.4	1.42265	0.00401
313.15	0.4501	1.42673	0.00401
313.15	0.5	1.43072	0.00401
313.15	0.5499	1.43477	0.00401
313.15	0.6	1.43884	0.00401
313.15	0.65	1.44272	0.00401
313.15	0.6999	1.44683	0.00401
313.15	0.75	1.45086	0.00401
313.15	0.7999	1.45484	0.00401
313.15	0.85	1.45878	0.00401
313.15	0.8998	1.4629	0.00401
313.15	0.9499	1.46672	0.00401
313.15	1	1.47061	0.00401
318.15	0	1.38742	0.00401
318.15	0.05	1.39153	0.00401
318.15	0.1001	1.39567	0.00401
318.15	0.1499	1.39979	0.00401
318.15	0.2001	1.40391	0.00401
318.15	0.2501	1.40804	0.00401
318.15	0.3	1.41207	0.00401
318.15	0.3499	1.41615	0.00401
318.15	0.4	1.4202	0.00401
318.15	0.4501	1.4243	0.00401
318.15	0.5	1.42827	0.00401
318.15	0.5499	1.43237	0.00401
318.15	0.6	1.43645	0.00401
318.15	0.65	1.4403	0.00401
318.15	0.6999	1.44442	0.00401
318.15	0.75	1.44847	0.00401
318.15	0.7999	1.45248	0.00401
318.15	0.85	1.45641	0.00401
318.15	0.8998	1.46054	0.00401
318.15	0.9499	1.46435	0.00401
318.15	1	1.46825	0.00401

System: trimethoxy(vinyl)silane + dimethoxymethylphenylsilane; phases: Liquid
Fixed: Pressure, kPa = 103
Property: Mass density, kg/m3 (Liquid); method: Vibrating tube method
Temperature, K	Mole fraction of dimethoxymethylphenylsilane	Mass density, kg/m3	uncertainty
298.15	0	965.69	0.41
298.15	0.05	968.08	0.41
298.15	0.1	970.32	0.41
298.15	0.1499	972.48	0.41
298.15	0.2	974.57	0.41
298.15	0.2501	976.61	0.41
298.15	0.2999	978.59	0.41
298.15	0.35	980.49	0.41
298.15	0.4001	982.35	0.41
298.15	0.4501	984.15	0.41
298.15	0.5	985.89	0.41
298.15	0.5499	987.58	0.41
298.15	0.6	989.22	0.41
298.15	0.6499	990.82	0.41
298.15	0.7	992.37	0.41
298.15	0.75	993.89	0.41
298.15	0.8001	995.35	0.41
298.15	0.8498	996.76	0.41
298.15	0.8999	998.15	0.41
298.15	0.9499	999.49	0.41
298.15	1	1000.78	0.41
303.15	0	960.02	0.41
303.15	0.05	962.41	0.41
303.15	0.1	964.72	0.41
303.15	0.1499	966.94	0.41
303.15	0.2	969.11	0.41
303.15	0.2501	971.22	0.41
303.15	0.2999	973.25	0.41
303.15	0.35	975.22	0.41
303.15	0.4001	977.14	0.41
303.15	0.4501	978.99	0.41
303.15	0.5	980.79	0.41
303.15	0.5499	982.53	0.41
303.15	0.6	984.22	0.41
303.15	0.6499	985.86	0.41
303.15	0.7	987.46	0.41
303.15	0.75	989.02	0.41
303.15	0.8001	990.53	0.41
303.15	0.8498	991.99	0.41
303.15	0.8999	993.42	0.41
303.15	0.9499	994.81	0.41
303.15	1	996.13	0.41
308.15	0	954.26	0.41
308.15	0.05	956.71	0.41
308.15	0.1	959.1	0.41
308.15	0.1499	961.39	0.41
308.15	0.2	963.63	0.41
308.15	0.2501	965.8	0.41
308.15	0.2999	967.91	0.41
308.15	0.35	969.93	0.41
308.15	0.4001	971.9	0.41
308.15	0.4501	973.81	0.41
308.15	0.5	975.67	0.41
308.15	0.5499	977.46	0.41
308.15	0.6	979.2	0.41
308.15	0.6499	980.89	0.41
308.15	0.7	982.54	0.41
308.15	0.75	984.15	0.41
308.15	0.8001	985.7	0.41
308.15	0.8498	987.21	0.41
308.15	0.8999	988.68	0.41
308.15	0.9499	990.11	0.41
308.15	1	991.48	0.41
313.15	0	948.47	0.41
313.15	0.05	950.99	0.41
313.15	0.1	953.45	0.41
313.15	0.1499	955.8	0.41
313.15	0.2	958.1	0.41
313.15	0.2501	960.36	0.41
313.15	0.2999	962.52	0.41
313.15	0.35	964.61	0.41
313.15	0.4001	966.65	0.41
313.15	0.4501	968.61	0.41
313.15	0.5	970.52	0.41
313.15	0.5499	972.37	0.41
313.15	0.6	974.17	0.41
313.15	0.6499	975.91	0.41
313.15	0.7	977.6	0.41
313.15	0.75	979.26	0.41
313.15	0.8001	980.86	0.41
313.15	0.8498	982.41	0.41
313.15	0.8999	983.93	0.41
313.15	0.9499	985.41	0.41
313.15	1	986.81	0.41
318.15	0	942.63	0.41
318.15	0.05	945.24	0.41
318.15	0.1	947.77	0.41
318.15	0.1499	950.2	0.41
318.15	0.2	952.57	0.41
318.15	0.2501	954.9	0.41
318.15	0.2999	957.14	0.41
318.15	0.35	959.27	0.41
318.15	0.4001	961.37	0.41
318.15	0.4501	963.4	0.41
318.15	0.5	965.37	0.41
318.15	0.5499	967.27	0.41
318.15	0.6	969.12	0.41
318.15	0.6499	970.93	0.41
318.15	0.7	972.65	0.41
318.15	0.75	974.36	0.41
318.15	0.8001	976.01	0.41
318.15	0.8498	977.61	0.41
318.15	0.8999	979.18	0.41
318.15	0.9499	980.69	0.41
318.15	1	982.15	0.41

System: trimethoxy(vinyl)silane + dimethoxymethylphenylsilane; phases: Liquid
Fixed: Pressure, kPa = 103
Property: Refractive index (Na D-line) (Liquid); method: Standard Abbe refractometry
Temperature, K	Mole fraction of dimethoxymethylphenylsilane	Refractive index (Na D-line)	uncertainty
298.15	0	1.39022	0.00401
298.15	0.05	1.3954	0.00401
298.15	0.1	1.40052	0.00401
298.15	0.1499	1.40552	0.00401
298.15	0.2	1.41045	0.00401
298.15	0.2501	1.41527	0.00401
298.15	0.2999	1.41998	0.00401
298.15	0.35	1.42465	0.00401
298.15	0.4001	1.42919	0.00401
298.15	0.4501	1.43364	0.00401
298.15	0.5	1.43793	0.00401
298.15	0.5499	1.44232	0.00401
298.15	0.6	1.44653	0.00401
298.15	0.6499	1.45067	0.00401
298.15	0.7	1.45459	0.00401
298.15	0.75	1.45871	0.00401
298.15	0.8001	1.46249	0.00401
298.15	0.8498	1.46647	0.00401
298.15	0.8999	1.47026	0.00401
298.15	0.9499	1.47397	0.00401
298.15	1	1.47763	0.00401
303.15	0	1.38775	0.00401
303.15	0.05	1.39299	0.00401
303.15	0.1	1.39811	0.00401
303.15	0.1499	1.40314	0.00401
303.15	0.2	1.40807	0.00401
303.15	0.2501	1.41288	0.00401
303.15	0.2999	1.41762	0.00401
303.15	0.35	1.42228	0.00401
303.15	0.4001	1.42683	0.00401
303.15	0.4501	1.43129	0.00401
303.15	0.5	1.43559	0.00401
303.15	0.5499	1.43996	0.00401
303.15	0.6	1.44418	0.00401
303.15	0.6499	1.44831	0.00401
303.15	0.7	1.45224	0.00401
303.15	0.75	1.45636	0.00401
303.15	0.8001	1.46015	0.00401
303.15	0.8498	1.46413	0.00401
303.15	0.8999	1.46791	0.00401
303.15	0.9499	1.47163	0.00401
303.15	1	1.47528	0.00401
308.15	0	1.38535	0.00401
308.15	0.05	1.39056	0.00401
308.15	0.1	1.39569	0.00401
308.15	0.1499	1.40073	0.00401
308.15	0.2	1.40568	0.00401
308.15	0.2501	1.41047	0.00401
308.15	0.2999	1.41524	0.00401
308.15	0.35	1.41987	0.00401
308.15	0.4001	1.42444	0.00401
308.15	0.4501	1.42891	0.00401
308.15	0.5	1.43321	0.00401
308.15	0.5499	1.43759	0.00401
308.15	0.6	1.44182	0.00401
308.15	0.6499	1.44594	0.00401
308.15	0.7	1.4499	0.00401
308.15	0.75	1.454	0.00401
308.15	0.8001	1.45778	0.00401
308.15	0.8498	1.46178	0.00401
308.15	0.8999	1.46557	0.00401
308.15	0.9499	1.46928	0.00401
308.15	1	1.47293	0.00401
313.15	0	1.3829	0.00401
313.15	0.05	1.38815	0.00401
313.15	0.1	1.39329	0.00401
313.15	0.1499	1.3983	0.00401
313.15	0.2	1.40327	0.00401
313.15	0.2501	1.40809	0.00401
313.15	0.2999	1.41284	0.00401
313.15	0.35	1.4175	0.00401
313.15	0.4001	1.42208	0.00401
313.15	0.4501	1.42653	0.00401
313.15	0.5	1.43084	0.00401
313.15	0.5499	1.4352	0.00401
313.15	0.6	1.43943	0.00401
313.15	0.6499	1.44356	0.00401
313.15	0.7	1.44754	0.00401
313.15	0.75	1.45165	0.00401
313.15	0.8001	1.45542	0.00401
313.15	0.8498	1.45942	0.00401
313.15	0.8999	1.46321	0.00401
313.15	0.9499	1.46693	0.00401
313.15	1	1.47061	0.00401
318.15	0	1.38046	0.00401
318.15	0.05	1.38572	0.00401
318.15	0.1	1.39082	0.00401
318.15	0.1499	1.39588	0.00401
318.15	0.2	1.40083	0.00401
318.15	0.2501	1.40568	0.00401
318.15	0.2999	1.41043	0.00401
318.15	0.35	1.4151	0.00401
318.15	0.4001	1.41967	0.00401
318.15	0.4501	1.42413	0.00401
318.15	0.5	1.42843	0.00401
318.15	0.5499	1.43283	0.00401
318.15	0.6	1.43706	0.00401
318.15	0.6499	1.4412	0.00401
318.15	0.7	1.44517	0.00401
318.15	0.75	1.44929	0.00401
318.15	0.8001	1.45307	0.00401
318.15	0.8498	1.45707	0.00401
318.15	0.8999	1.46087	0.00401
318.15	0.9499	1.46458	0.00401
318.15	1	1.46825	0.00401
