Measured thermophysical data. Excess enthalpy, density, and speed of sound determination for the ternary mixture (methyl tert-butyl ether + 1-butanol + n-hexane)
Source: J. Chem. Thermodyn., 2007, 10.1016/j.jct.2007.02.002
Compound 1: 2-methoxy-2-methylpropane, C5H12O, InChI=1S/C5H12O/c1-5(2,3)6-4/h1-4H3, purity 99.8%
Compound 2: butan-1-ol, C4H10O, InChI=1S/C4H10O/c1-2-3-4-5/h5H,2-4H2,1H3, purity 98.8%
Compound 3: hexane, C6H14, InChI=1S/C6H14/c1-3-5-6-4-2/h3-6H2,1-2H3, purity 99.5%

System: 2-methoxy-2-methylpropane; phases: Liquid
Fixed: Pressure, kPa = 101.325
Property: Speed of sound, m/s (Liquid); method: Sing-around technique in a fixed-path interferometer
Temperature, K	Speed of sound, m/s	uncertainty
288.15	1082.4	1.2
293.15	1059.4	1.2
298.15	1036.1	1.2
303.15	1013	1.2
308.15	990.1	1.1

System: 2-methoxy-2-methylpropane; phases: Liquid
Fixed: Pressure, kPa = 101.325
Property: Mass density, kg/m3 (Liquid); method: VIBTUB:UFactor:2
Temperature, K	Mass density, kg/m3	uncertainty
288.15	745.79	0.27
293.15	740.6	0.28
298.15	735.35	0.28
303.15	730.06	0.28
308.15	724.73	0.29

System: butan-1-ol; phases: Liquid
Fixed: Pressure, kPa = 101.325
Property: Speed of sound, m/s (Liquid); method: Sing-around technique in a fixed-path interferometer
Temperature, K	Speed of sound, m/s	uncertainty
288.15	1273.7	1.7
293.15	1257	1.7
298.15	1239.8	1.7
303.15	1222.7	1.7
308.15	1205.9	1.7

System: butan-1-ol; phases: Liquid
Fixed: Pressure, kPa = 101.325
Property: Mass density, kg/m3 (Liquid); method: VIBTUB:UFactor:2
Temperature, K	Mass density, kg/m3	uncertainty
288.15	813.24	0.4
293.15	809.48	0.4
298.15	805.67	0.4
303.15	801.85	0.4
308.15	797.99	0.41

System: hexane; phases: Liquid
Fixed: Pressure, kPa = 101.325
Property: Speed of sound, m/s (Liquid); method: Sing-around technique in a fixed-path interferometer
Temperature, K	Speed of sound, m/s	uncertainty
288.15	1121.4	1.3
293.15	1099	1.3
298.15	1076.3	1.2
303.15	1053.6	1.2
308.15	1031.1	1.2

System: hexane; phases: Liquid
Fixed: Pressure, kPa = 101.325
Property: Mass density, kg/m3 (Liquid); method: VIBTUB:UFactor:4
Temperature, K	Mass density, kg/m3	uncertainty
288.15	663.87	0.68
293.15	659.44	0.69
298.15	654.95	0.7
303.15	650.4	0.7
308.15	645.82	0.71

System: butan-1-ol + hexane + 2-methoxy-2-methylpropane; phases: Liquid
Fixed: Temperature, K = 298.15
Fixed: Pressure, kPa = 101
Property: Excess molar enthalpy (molar enthalpy of mixing), kJ/mol (Liquid); method: Calvet calorimetry
Mole fraction of 2-methoxy-2-methylpropane	Mole fraction of butan-1-ol	Excess molar enthalpy (molar enthalpy of mixing), kJ/mol	uncertainty
0.02529	0.07619	0.43	0.005
0.04007	0.12072	0.517	0.006
0.04165	0.04193	0.38	0.005
0.05416	0.16316	0.577	0.007
0.05915	0.01985	0.301	0.004
0.06399	0.06443	0.461	0.006
0.06838	0.206	0.623	0.007
0.0902	0.09082	0.542	0.006
0.09132	0.27512	0.708	0.008
0.10486	0.03519	0.422	0.005
0.1106	0.11136	0.608	0.007
0.11218	0.33795	0.728	0.008
0.12423	0.37426	0.745	0.008
0.12866	0.12954	0.642	0.007
0.14327	0.43159	0.737	0.008
0.1463	0.1473	0.681	0.008
0.14864	0.44779	0.724	0.008
0.1578	0.05296	0.535	0.006
0.16331	0.49198	0.704	0.008
0.16633	0.16746	0.715	0.008
0.18578	0.18705	0.744	0.008
0.18771	0.56549	0.636	0.007
0.19971	0.60163	0.619	0.007
0.20927	0.07023	0.624	0.007
0.21211	0.63897	0.562	0.007
0.21376	0.21522	0.776	0.009
0.23395	0.70479	0.477	0.006
0.23858	0.24021	0.806	0.009
0.25896	0.08691	0.677	0.008
0.26272	0.26451	0.823	0.009
0.28935	0.29133	0.863	0.01
0.30819	0.10343	0.737	0.008
0.33614	0.33844	0.863	0.01
0.35512	0.11918	0.761	0.009
0.38156	0.38417	0.829	0.009
0.38163	0.12808	0.775	0.009
0.40332	0.13536	0.799	0.009
0.42629	0.4292	0.778	0.009
0.45098	0.15135	0.811	0.009
0.46516	0.46834	0.708	0.008
0.49266	0.16534	0.806	0.009
0.5305	0.17804	0.796	0.009
0.56356	0.18914	0.781	0.009
0.63322	0.21251	0.73	0.008
0.69126	0.23199	0.667	0.008

System: butan-1-ol + hexane + 2-methoxy-2-methylpropane; phases: Liquid
Fixed: Pressure, kPa = 101
Property: Speed of sound, m/s (Liquid); method: Sing-around technique in a fixed-path interferometer
Temperature, K	Mole fraction of 2-methoxy-2-methylpropane	Mole fraction of butan-1-ol	Speed of sound, m/s	uncertainty
288.15	0.05115	0.90073	1250.1	1.6
288.15	0.05652	0.05005	1117.2	1.3
288.15	0.09436	0.71374	1206.9	1.5
288.15	0.09796	0.41236	1151.1	1.4
288.15	0.0991	0.60382	1183.8	1.5
288.15	0.10194	0.29787	1136.5	1.3
288.15	0.10205	0.1946	1125.6	1.3
288.15	0.10553	0.09456	1117.6	1.3
288.15	0.10735	0.7991	1228.2	1.6
288.15	0.11644	0.49002	1163.9	1.4
288.15	0.19006	0.40718	1150.8	1.4
288.15	0.19128	0.7143	1212.4	1.5
288.15	0.19414	0.51062	1168.4	1.4
288.15	0.20209	0.29981	1135.3	1.3
288.15	0.2079	0.09221	1113.4	1.3
288.15	0.20834	0.60355	1187.4	1.4
288.15	0.21664	0.17476	1120.3	1.3
288.15	0.2971	0.20265	1121.5	1.3
288.15	0.29824	0.29011	1133.3	1.3
288.15	0.30045	0.09965	1110.4	1.2
288.15	0.30089	0.50443	1169.8	1.4
288.15	0.30576	0.39935	1150.5	1.3
288.15	0.30651	0.60346	1191.8	1.4
288.15	0.39065	0.50395	1172.5	1.4
288.15	0.39123	0.40861	1153.5	1.3
288.15	0.3932	0.30184	1134.8	1.3
288.15	0.39664	0.19431	1119.3	1.3
288.15	0.40753	0.09755	1106.2	1.2
288.15	0.49225	0.40605	1155.5	1.3
288.15	0.50046	0.30515	1136	1.3
288.15	0.50096	0.19975	1119	1.3
288.15	0.50554	0.09088	1102.6	1.2
288.15	0.5956	0.10146	1102.5	1.2
288.15	0.59897	0.20202	1119.2	1.2
288.15	0.60827	0.30042	1136.9	1.3
288.15	0.69819	0.09515	1100.2	1.2
288.15	0.70147	0.19951	1119.5	1.2
288.15	0.80015	0.10226	1102.1	1.2
288.15	0.90113	0.05192	1092.2	1.2
293.15	0.05115	0.90073	1232.5	1.6
293.15	0.05652	0.05005	1094.9	1.3
293.15	0.09436	0.71374	1188	1.5
293.15	0.09796	0.41236	1130.2	1.4
293.15	0.0991	0.60382	1164.1	1.5
293.15	0.10194	0.29787	1114.9	1.3
293.15	0.10205	0.1946	1103.9	1.3
293.15	0.10553	0.09456	1095.4	1.3
293.15	0.10735	0.7991	1209.9	1.6
293.15	0.11644	0.49002	1143.3	1.4
293.15	0.19006	0.40718	1130	1.4
293.15	0.19128	0.7143	1193.6	1.5
293.15	0.19414	0.51062	1148.3	1.4
293.15	0.20209	0.29981	1113.8	1.3
293.15	0.2079	0.09221	1091.3	1.3
293.15	0.20834	0.60355	1167.9	1.4
293.15	0.21664	0.17476	1098.6	1.3
293.15	0.2971	0.20265	1099.9	1.3
293.15	0.29824	0.29011	1112.2	1.3
293.15	0.30045	0.09965	1088.4	1.2
293.15	0.30089	0.50443	1149.7	1.4
293.15	0.30576	0.39935	1129.8	1.3
293.15	0.30651	0.60346	1172.4	1.4
293.15	0.39065	0.50395	1152.6	1.4
293.15	0.39123	0.40861	1133	1.3
293.15	0.3932	0.30184	1113.7	1.3
293.15	0.39664	0.19431	1097.6	1.3
293.15	0.40753	0.09755	1084.1	1.2
293.15	0.49225	0.40605	1134.9	1.3
293.15	0.50046	0.30515	1114.9	1.3
293.15	0.50096	0.19975	1097.4	1.2
293.15	0.50554	0.09088	1080.5	1.2
293.15	0.5956	0.10146	1080.3	1.2
293.15	0.59897	0.20202	1097.5	1.2
293.15	0.60827	0.30042	1115.7	1.3
293.15	0.69819	0.09515	1078	1.2
293.15	0.70147	0.19951	1097.7	1.2
293.15	0.80015	0.10226	1079.8	1.2
293.15	0.90113	0.05192	1069.4	1.2
298.15	0.05115	0.90073	1214.5	1.6
298.15	0.05652	0.05005	1072.6	1.3
298.15	0.09436	0.71374	1168.5	1.5
298.15	0.09796	0.41236	1109	1.4
298.15	0.0991	0.60382	1143.8	1.5
298.15	0.10194	0.29787	1093.2	1.3
298.15	0.10205	0.1946	1081.6	1.3
298.15	0.10553	0.09456	1072.8	1.3
298.15	0.10735	0.7991	1190.6	1.5
298.15	0.11644	0.49002	1122.5	1.4
298.15	0.19006	0.40718	1108.8	1.4
298.15	0.19128	0.7143	1174.4	1.5
298.15	0.19414	0.51062	1127.7	1.4
298.15	0.20209	0.29981	1091.9	1.3
298.15	0.2079	0.09221	1068.8	1.2
298.15	0.20834	0.60355	1147.8	1.4
298.15	0.21664	0.17476	1076.4	1.3
298.15	0.2971	0.20265	1078	1.3
298.15	0.29824	0.29011	1090.5	1.3
298.15	0.30045	0.09965	1065.9	1.2
298.15	0.30089	0.50443	1129.1	1.4
298.15	0.30576	0.39935	1108.7	1.3
298.15	0.30651	0.60346	1152.5	1.4
298.15	0.39065	0.50395	1132.1	1.4
298.15	0.39123	0.40861	1111.9	1.3
298.15	0.3932	0.30184	1092.2	1.3
298.15	0.39664	0.19431	1075.5	1.3
298.15	0.40753	0.09755	1062.1	1.2
298.15	0.49225	0.40605	1113.9	1.3
298.15	0.50046	0.30515	1093.4	1.3
298.15	0.50096	0.19975	1075.4	1.2
298.15	0.50554	0.09088	1058.1	1.2
298.15	0.5956	0.10146	1058	1.2
298.15	0.59897	0.20202	1075.4	1.2
298.15	0.60827	0.30042	1094.1	1.3
298.15	0.69819	0.09515	1055.4	1.2
298.15	0.70147	0.19951	1075.7	1.2
298.15	0.80015	0.10226	1057	1.2
298.15	0.90113	0.05192	1046.4	1.2
303.15	0.05115	0.90073	1196.8	1.6
303.15	0.05652	0.05005	1050.2	1.3
303.15	0.09436	0.71374	1149.3	1.5
303.15	0.09796	0.41236	1087.8	1.4
303.15	0.0991	0.60382	1123.9	1.5
303.15	0.10194	0.29787	1071.5	1.3
303.15	0.10205	0.1946	1059.6	1.3
303.15	0.10553	0.09456	1050.5	1.3
303.15	0.10735	0.7991	1172.7	1.5
303.15	0.11644	0.49002	1101.8	1.4
303.15	0.19006	0.40718	1087.8	1.4
303.15	0.19128	0.7143	1154.4	1.5
303.15	0.19414	0.51062	1107.3	1.4
303.15	0.20209	0.29981	1070.6	1.3
303.15	0.2079	0.09221	1046.5	1.2
303.15	0.20834	0.60355	1128	1.4
303.15	0.21664	0.17476	1054.4	1.3
303.15	0.2971	0.20265	1056.2	1.3
303.15	0.29824	0.29011	1069.1	1.3
303.15	0.30045	0.09965	1043.7	1.2
303.15	0.30089	0.50443	1108.8	1.4
303.15	0.30576	0.39935	1087.8	1.3
303.15	0.30651	0.60346	1132.9	1.4
303.15	0.39065	0.50395	1111.9	1.4
303.15	0.39123	0.40861	1091.2	1.3
303.15	0.3932	0.30184	1070.8	1.3
303.15	0.39664	0.19431	1053.7	1.3
303.15	0.40753	0.09755	1039.4	1.2
303.15	0.49225	0.40605	1093.1	1.3
303.15	0.50046	0.30515	1072	1.3
303.15	0.50096	0.19975	1053.5	1.2
303.15	0.50554	0.09088	1035.7	1.2
303.15	0.5956	0.10146	1035.5	1.2
303.15	0.59897	0.20202	1053.6	1.2
303.15	0.60827	0.30042	1072.7	1.3
303.15	0.69819	0.09515	1032.9	1.2
303.15	0.70147	0.19951	1053.6	1.2
303.15	0.80015	0.10226	1034.7	1.2
303.15	0.90113	0.05192	1023.6	1.2
308.15	0.05115	0.90073	1179.1	1.6
308.15	0.05652	0.05005	1027.7	1.2
308.15	0.09436	0.71374	1130.1	1.5
308.15	0.09796	0.41236	1066.9	1.4
308.15	0.0991	0.60382	1104.1	1.5
308.15	0.10194	0.29787	1050	1.3
308.15	0.10205	0.1946	1037.6	1.3
308.15	0.10553	0.09456	1028.3	1.3
308.15	0.10735	0.7991	1153.3	1.5
308.15	0.11644	0.49002	1081.3	1.4
308.15	0.19006	0.40718	1066.9	1.4
308.15	0.19128	0.7143	1135.5	1.5
308.15	0.19414	0.51062	1086.9	1.4
308.15	0.20209	0.29981	1049.2	1.3
308.15	0.2079	0.09221	1024.4	1.2
308.15	0.20834	0.60355	1108.3	1.4
308.15	0.21664	0.17476	1032.5	1.3
308.15	0.2971	0.20265	1034.4	1.3
308.15	0.29824	0.29011	1047.8	1.3
308.15	0.30045	0.09965	1021.6	1.2
308.15	0.30089	0.50443	1088.7	1.4
308.15	0.30576	0.39935	1067	1.3
308.15	0.30651	0.60346	1113.4	1.4
308.15	0.39065	0.50395	1091.8	1.4
308.15	0.39123	0.40861	1070.4	1.3
308.15	0.3932	0.30184	1049.6	1.3
308.15	0.39664	0.19431	1031.9	1.2
308.15	0.40753	0.09755	1017.1	1.2
308.15	0.49225	0.40605	1072.4	1.3
308.15	0.50046	0.30515	1050.8	1.3
308.15	0.50096	0.19975	1031.9	1.2
308.15	0.50554	0.09088	1013.5	1.2
308.15	0.5956	0.10146	1013.2	1.2
308.15	0.59897	0.20202	1031.8	1.2
308.15	0.60827	0.30042	1051.5	1.3
308.15	0.69819	0.09515	1010.5	1.2
308.15	0.70147	0.19951	1031.9	1.2
308.15	0.80015	0.10226	1011.5	1.2
308.15	0.90113	0.05192	1000.9	1.2

System: butan-1-ol + hexane + 2-methoxy-2-methylpropane; phases: Liquid
Fixed: Pressure, kPa = 101
Property: Mass density, kg/m3 (Liquid); method: VIBTUB:UFactor:3
Temperature, K	Mole fraction of 2-methoxy-2-methylpropane	Mole fraction of butan-1-ol	Mass density, kg/m3	uncertainty
288.15	0.05115	0.90073	800.11	0.49
288.15	0.05652	0.05005	672.98	0.5
288.15	0.09436	0.71374	770.48	0.48
288.15	0.09796	0.41236	722.3	0.48
288.15	0.0991	0.60382	752.09	0.48
288.15	0.10194	0.29787	706.69	0.49
288.15	0.10205	0.1946	693.32	0.49
288.15	0.10553	0.09456	681.59	0.49
288.15	0.10735	0.7991	787.85	0.47
288.15	0.11644	0.49002	735.83	0.48
288.15	0.19006	0.40718	730.67	0.47
288.15	0.19128	0.7143	782.44	0.46
288.15	0.19414	0.51062	747.33	0.47
288.15	0.20209	0.29981	716.17	0.47
288.15	0.2079	0.09221	689.2	0.48
288.15	0.20834	0.60355	764.41	0.46
288.15	0.21664	0.17476	700.53	0.48
288.15	0.2971	0.20265	711.16	0.47
288.15	0.29824	0.29011	723.86	0.46
288.15	0.30045	0.09965	697.62	0.47
288.15	0.30089	0.50443	757.93	0.45
288.15	0.30576	0.39935	741.23	0.45
288.15	0.30651	0.60346	776.02	0.45
288.15	0.39065	0.50395	767.89	0.44
288.15	0.39123	0.40861	751.76	0.44
288.15	0.3932	0.30184	734.83	0.45
288.15	0.39664	0.19431	719.04	0.45
288.15	0.40753	0.09755	706.39	0.46
288.15	0.49225	0.40605	762.15	0.43
288.15	0.50046	0.30515	746.13	0.43
288.15	0.50096	0.19975	729.54	0.44
288.15	0.50554	0.09088	713.82	0.45
288.15	0.5956	0.10146	723.5	0.44
288.15	0.59897	0.20202	739.4	0.43
288.15	0.60827	0.30042	756.64	0.42
288.15	0.69819	0.09515	732.11	0.42
288.15	0.70147	0.19951	749.33	0.41
288.15	0.80015	0.10226	743.16	0.41
288.15	0.90113	0.05192	744.74	0.4
293.15	0.05115	0.90073	796.27	0.49
293.15	0.05652	0.05005	668.49	0.51
293.15	0.09436	0.71374	766.43	0.48
293.15	0.09796	0.41236	717.96	0.49
293.15	0.0991	0.60382	747.92	0.48
293.15	0.10194	0.29787	702.27	0.49
293.15	0.10205	0.1946	688.86	0.49
293.15	0.10553	0.09456	677.09	0.5
293.15	0.10735	0.7991	783.88	0.48
293.15	0.11644	0.49002	731.54	0.48
293.15	0.19006	0.40718	726.31	0.47
293.15	0.19128	0.7143	778.35	0.46
293.15	0.19414	0.51062	743.05	0.47
293.15	0.20209	0.29981	711.73	0.48
293.15	0.2079	0.09221	684.65	0.49
293.15	0.20834	0.60355	760.21	0.47
293.15	0.21664	0.17476	696.01	0.48
293.15	0.2971	0.20265	706.62	0.47
293.15	0.29824	0.29011	719.36	0.46
293.15	0.30045	0.09965	693.01	0.48
293.15	0.30089	0.50443	753.59	0.46
293.15	0.30576	0.39935	736.81	0.46
293.15	0.30651	0.60346	771.78	0.45
293.15	0.39065	0.50395	763.53	0.44
293.15	0.39123	0.40861	747.31	0.45
293.15	0.3932	0.30184	730.29	0.45
293.15	0.39664	0.19431	714.42	0.46
293.15	0.40753	0.09755	701.72	0.47
293.15	0.49225	0.40605	757.64	0.43
293.15	0.50046	0.30515	741.54	0.44
293.15	0.50096	0.19975	724.87	0.45
293.15	0.50554	0.09088	709.08	0.45
293.15	0.5956	0.10146	718.7	0.44
293.15	0.59897	0.20202	734.66	0.43
293.15	0.60827	0.30042	751.99	0.42
293.15	0.69819	0.09515	727.25	0.43
293.15	0.70147	0.19951	744.54	0.42
293.15	0.80015	0.10226	738.22	0.41
293.15	0.90113	0.05192	739.7	0.41
298.15	0.05115	0.90073	792.36	0.49
298.15	0.05652	0.05005	663.93	0.51
298.15	0.09436	0.71374	762.3	0.48
298.15	0.09796	0.41236	713.56	0.49
298.15	0.0991	0.60382	743.67	0.49
298.15	0.10194	0.29787	697.79	0.49
298.15	0.10205	0.1946	684.32	0.5
298.15	0.10553	0.09456	672.51	0.5
298.15	0.10735	0.7991	779.85	0.48
298.15	0.11644	0.49002	727.19	0.49
298.15	0.19006	0.40718	721.88	0.48
298.15	0.19128	0.7143	774.2	0.47
298.15	0.19414	0.51062	738.68	0.48
298.15	0.20209	0.29981	707.2	0.48
298.15	0.2079	0.09221	680.02	0.49
298.15	0.20834	0.60355	755.93	0.47
298.15	0.21664	0.17476	691.42	0.49
298.15	0.2971	0.20265	701.99	0.48
298.15	0.29824	0.29011	714.79	0.47
298.15	0.30045	0.09965	688.33	0.48
298.15	0.30089	0.50443	749.19	0.46
298.15	0.30576	0.39935	732.32	0.46
298.15	0.30651	0.60346	767.47	0.45
298.15	0.39065	0.50395	759.09	0.45
298.15	0.39123	0.40861	742.78	0.45
298.15	0.3932	0.30184	725.68	0.46
298.15	0.39664	0.19431	709.74	0.46
298.15	0.40753	0.09755	696.96	0.47
298.15	0.49225	0.40605	753.07	0.44
298.15	0.50046	0.30515	736.87	0.44
298.15	0.50096	0.19975	720.11	0.45
298.15	0.50554	0.09088	704.26	0.46
298.15	0.5956	0.10146	713.83	0.45
298.15	0.59897	0.20202	729.86	0.44
298.15	0.60827	0.30042	747.25	0.43
298.15	0.69819	0.09515	722.31	0.43
298.15	0.70147	0.19951	739.67	0.42
298.15	0.80015	0.10226	733.22	0.42
298.15	0.90113	0.05192	734.59	0.41
303.15	0.05115	0.90073	788.4	0.5
303.15	0.05652	0.05005	659.32	0.52
303.15	0.09436	0.71374	758.11	0.49
303.15	0.09796	0.41236	709.09	0.5
303.15	0.0991	0.60382	739.37	0.49
303.15	0.10194	0.29787	693.24	0.5
303.15	0.10205	0.1946	679.73	0.5
303.15	0.10553	0.09456	667.88	0.51
303.15	0.10735	0.7991	775.76	0.48
303.15	0.11644	0.49002	722.78	0.49
303.15	0.19006	0.40718	717.37	0.48
303.15	0.19128	0.7143	770	0.47
303.15	0.19414	0.51062	734.27	0.48
303.15	0.20209	0.29981	702.62	0.49
303.15	0.2079	0.09221	675.34	0.5
303.15	0.20834	0.60355	751.59	0.47
303.15	0.21664	0.17476	686.75	0.49
303.15	0.2971	0.20265	697.3	0.48
303.15	0.29824	0.29011	710.15	0.47
303.15	0.30045	0.09965	683.57	0.49
303.15	0.30089	0.50443	744.73	0.47
303.15	0.30576	0.39935	727.76	0.47
303.15	0.30651	0.60346	763.12	0.46
303.15	0.39065	0.50395	754.6	0.45
303.15	0.39123	0.40861	738.2	0.46
303.15	0.3932	0.30184	721	0.46
303.15	0.39664	0.19431	704.99	0.47
303.15	0.40753	0.09755	692.14	0.48
303.15	0.49225	0.40605	748.44	0.44
303.15	0.50046	0.30515	732.13	0.45
303.15	0.50096	0.19975	715.29	0.46
303.15	0.50554	0.09088	699.38	0.47
303.15	0.5956	0.10146	708.89	0.45
303.15	0.59897	0.20202	724.99	0.44
303.15	0.60827	0.30042	742.46	0.43
303.15	0.69819	0.09515	717.29	0.44
303.15	0.70147	0.19951	734.73	0.43
303.15	0.80015	0.10226	728.14	0.43
303.15	0.90113	0.05192	729.41	0.42
308.15	0.05115	0.90073	784.4	0.5
308.15	0.05652	0.05005	654.67	0.52
308.15	0.09436	0.71374	753.87	0.49
308.15	0.09796	0.41236	704.56	0.5
308.15	0.0991	0.60382	735.04	0.49
308.15	0.10194	0.29787	688.64	0.5
308.15	0.10205	0.1946	675.08	0.51
308.15	0.10553	0.09456	663.18	0.51
308.15	0.10735	0.7991	771.64	0.49
308.15	0.11644	0.49002	718.32	0.5
308.15	0.19006	0.40718	712.84	0.49
308.15	0.19128	0.7143	765.75	0.48
308.15	0.19414	0.51062	729.81	0.49
308.15	0.20209	0.29981	697.98	0.49
308.15	0.2079	0.09221	670.6	0.5
308.15	0.20834	0.60355	747.22	0.48
308.15	0.21664	0.17476	682.04	0.5
308.15	0.2971	0.20265	692.57	0.49
308.15	0.29824	0.29011	705.48	0.48
308.15	0.30045	0.09965	678.78	0.49
308.15	0.30089	0.50443	740.24	0.47
308.15	0.30576	0.39935	723.16	0.47
308.15	0.30651	0.60346	758.72	0.46
308.15	0.39065	0.50395	750.06	0.46
308.15	0.39123	0.40861	733.57	0.46
308.15	0.3932	0.30184	716.29	0.47
308.15	0.39664	0.19431	700.19	0.47
308.15	0.40753	0.09755	687.28	0.48
308.15	0.49225	0.40605	743.77	0.45
308.15	0.50046	0.30515	727.36	0.45
308.15	0.50096	0.19975	710.45	0.46
308.15	0.50554	0.09088	694.45	0.47
308.15	0.5956	0.10146	703.92	0.46
308.15	0.59897	0.20202	720.09	0.45
308.15	0.60827	0.30042	737.62	0.44
308.15	0.69819	0.09515	712.24	0.45
308.15	0.70147	0.19951	729.76	0.43
308.15	0.80015	0.10226	723.03	0.43
308.15	0.90113	0.05192	724.19	0.43
