Measured thermophysical data. Isothermal (vapour + liquid) equilibria and excess Gibbs free energies in some binary (cyclopentanone + chloroalkane) mixtures at temperatures from 298.15 K to 318.15 K
Source: J. Chem. Thermodyn., 2007, 10.1016/j.jct.2007.03.008
Compound 1: cyclopentanone, C5H8O, InChI=1S/C5H8O/c6-5-3-1-2-4-5/h1-4H2
Compound 2: 1,4-dichlorobutane, C4H8Cl2, InChI=1S/C4H8Cl2/c5-3-1-2-4-6/h1-4H2
Compound 3: 1-chlorobutane, C4H9Cl, InChI=1S/C4H9Cl/c1-2-3-4-5/h2-4H2,1H3
Compound 4: 1,3-dichloropropane, C3H6Cl2, InChI=1S/C3H6Cl2/c4-2-1-3-5/h1-3H2

System: cyclopentanone; phases: Liquid
Property: Refractive index (Na D-line) (Liquid); method: Standard Abbe refractometry
Temperature, K	Pressure, kPa	Refractive index (Na D-line)	uncertainty
298.15	101.325	1.4347	0.0007

System: cyclopentanone; phases: Liquid
Property: Mass density, kg/m3 (Liquid); method: VIBTUB:UFactor:2
Temperature, K	Pressure, kPa	Mass density, kg/m3	uncertainty
298.15	101.325	945.3	0.2

System: cyclopentanone; phases: Liquid, Gas
Property: Vapor or sublimation pressure, kPa (Liquid); method: ISOTEN:UFactor:8
Temperature, K	Vapor or sublimation pressure, kPa	uncertainty
298.15	1.71	0.32
308.15	2.8	0.33
318.15	4.4	0.34

System: 1,4-dichlorobutane; phases: Liquid
Property: Refractive index (Na D-line) (Liquid); method: Standard Abbe refractometry
Temperature, K	Pressure, kPa	Refractive index (Na D-line)	uncertainty
298.15	101.325	1.4519	0.0007

System: 1,4-dichlorobutane; phases: Liquid
Property: Mass density, kg/m3 (Liquid); method: VIBTUB:UFactor:2
Temperature, K	Pressure, kPa	Mass density, kg/m3	uncertainty
298.15	101.325	1132.8	0.2

System: 1,4-dichlorobutane; phases: Liquid, Gas
Property: Vapor or sublimation pressure, kPa (Liquid); method: ISOTEN::UFactor:4
Temperature, K	Vapor or sublimation pressure, kPa	uncertainty
298.15	0.99	0.16
308.15	1.39	0.16
318.15	2.13	0.16

System: 1-chlorobutane; phases: Liquid
Property: Refractive index (Na D-line) (Liquid); method: Standard Abbe refractometry
Temperature, K	Pressure, kPa	Refractive index (Na D-line)	uncertainty
298.15	101.325	1.3991	0.0007

System: 1-chlorobutane; phases: Liquid
Property: Mass density, kg/m3 (Liquid); method: Vibrating tube method
Temperature, K	Pressure, kPa	Mass density, kg/m3	uncertainty
298.15	101.325	880.9	0.1

System: 1-chlorobutane; phases: Liquid, Gas
Property: Vapor or sublimation pressure, kPa (Liquid); method: ISOTEN::UFactor:8
Temperature, K	Vapor or sublimation pressure, kPa	uncertainty
298.15	13.7	0.4
308.15	21.32	0.44
318.15	31.86	0.51

System: 1,3-dichloropropane; phases: Liquid
Property: Refractive index (Na D-line) (Liquid); method: Standard Abbe refractometry
Temperature, K	Pressure, kPa	Refractive index (Na D-line)	uncertainty
298.15	101.325	1.4459	0.0007

System: 1,3-dichloropropane; phases: Liquid
Property: Mass density, kg/m3 (Liquid); method: VIBTUB:UFactor:2
Temperature, K	Pressure, kPa	Mass density, kg/m3	uncertainty
298.15	101.325	1181.4	0.3

System: 1,3-dichloropropane; phases: Liquid, Gas
Property: Vapor or sublimation pressure, kPa (Liquid); method: ISOTEN::UFactor:4
Temperature, K	Vapor or sublimation pressure, kPa	uncertainty
298.15	2.75	0.16
308.15	4.48	0.17
318.15	6.87	0.18

System: 1-chlorobutane + cyclopentanone; phases: Liquid, Gas
Property: Vapor or sublimation pressure, kPa (Liquid); method: ISOTEN:UFactor:8
Temperature, K	Mole fraction of 1-chlorobutane	Vapor or sublimation pressure, kPa	uncertainty
298.15	0	1.71	0.32
298.15	0.086	3.26	0.33
298.15	0.174	4.42	0.34
298.15	0.2483	5.39	0.34
298.15	0.3464	6.5	0.35
298.15	0.4148	7.39	0.36
298.15	0.5001	8.34	0.36
298.15	0.5774	9.17	0.37
298.15	0.6604	10.18	0.37
298.15	0.7375	11.13	0.38
298.15	0.8143	12	0.39
298.15	0.9084	12.95	0.39
298.15	1	13.7	0.4
308.15	0	2.8	0.33
308.15	0.086	5.03	0.34
308.15	0.174	6.91	0.36
308.15	0.2483	8.31	0.36
308.15	0.3464	10.14	0.38
308.15	0.4148	11.44	0.38
308.15	0.5001	12.92	0.39
308.15	0.5774	14.16	0.4
308.15	0.6604	15.68	0.41
308.15	0.7375	17.05	0.42
308.15	0.8143	18.47	0.43
308.15	0.9084	19.93	0.44
308.15	1	21.32	0.44
318.15	0	4.4	0.34
318.15	0.086	7.75	0.37
318.15	0.174	10.72	0.38
318.15	0.2483	12.67	0.39
318.15	0.3464	15.24	0.41
318.15	0.4148	17.19	0.42
318.15	0.5001	19.57	0.44
318.15	0.5774	21.44	0.45
318.15	0.6604	23.49	0.46
318.15	0.7375	25.34	0.47
318.15	0.8143	27.58	0.49
318.15	0.9084	29.8	0.5
318.15	1	31.86	0.51

System: cyclopentanone + 1,3-dichloropropane; phases: Liquid, Gas
Property: Vapor or sublimation pressure, kPa (Liquid); method: ISOTEN:UFactor:4
Temperature, K	Mole fraction of 1,3-dichloropropane	Vapor or sublimation pressure, kPa	uncertainty
298.15	0	1.71	0.16
298.15	0.0453	1.7	0.16
298.15	0.1482	1.72	0.16
298.15	0.2755	1.77	0.16
298.15	0.3609	1.84	0.16
298.15	0.4428	1.93	0.16
298.15	0.5252	1.98	0.16
298.15	0.6334	2.1	0.16
298.15	0.735	2.24	0.16
298.15	0.8204	2.36	0.16
298.15	0.9077	2.53	0.16
298.15	0.9458	2.64	0.16
298.15	1	2.75	0.16
308.15	0	2.8	0.16
308.15	0.0453	2.86	0.16
308.15	0.0977	2.88	0.16
308.15	0.1482	2.96	0.16
308.15	0.2755	3	0.16
308.15	0.3609	3.14	0.16
308.15	0.4428	3.23	0.17
308.15	0.5252	3.37	0.17
308.15	0.6334	3.5	0.17
308.15	0.735	3.64	0.17
308.15	0.8204	3.9	0.17
308.15	0.9077	4.09	0.17
308.15	0.9458	4.2	0.17
308.15	1	4.48	0.17
318.15	0	4.4	0.17
318.15	0.0453	4.51	0.17
318.15	0.0977	4.55	0.17
318.15	0.1482	4.59	0.17
318.15	0.2755	4.84	0.17
318.15	0.3609	4.91	0.17
318.15	0.4428	5.1	0.17
318.15	0.5252	5.41	0.17
318.15	0.6334	5.71	0.17
318.15	0.735	5.84	0.17
318.15	0.8204	6.19	0.17
318.15	0.9077	6.45	0.18
318.15	0.9458	6.54	0.18
318.15	1	6.87	0.18

System: 1,4-dichlorobutane + cyclopentanone; phases: Liquid, Gas
Property: Vapor or sublimation pressure, kPa (Liquid); method: ISOTEN:UFactor:4
Temperature, K	Mole fraction of 1,4-dichlorobutane	Vapor or sublimation pressure, kPa	uncertainty
298.15	0	1.71	0.16
298.15	0.0588	1.64	0.16
298.15	0.13	1.62	0.16
298.15	0.2039	1.57	0.16
298.15	0.2858	1.48	0.16
298.15	0.3353	1.41	0.16
298.15	0.4072	1.33	0.16
298.15	0.4825	1.26	0.16
298.15	0.5472	1.2	0.16
298.15	0.613	1.22	0.16
298.15	0.6877	1.17	0.16
298.15	0.7794	1.11	0.16
298.15	0.8338	1.07	0.16
298.15	0.8789	1.06	0.16
298.15	0.9078	1.03	0.16
298.15	0.9429	1.01	0.16
298.15	1	0.99	0.16
308.15	0	2.8	0.16
308.15	0.0588	2.76	0.16
308.15	0.13	2.61	0.16
308.15	0.2039	2.56	0.16
308.15	0.2858	2.42	0.16
308.15	0.3353	2.32	0.16
308.15	0.4072	2.21	0.16
308.15	0.4825	2.11	0.16
308.15	0.5472	2	0.16
308.15	0.613	1.93	0.16
308.15	0.6877	1.83	0.16
308.15	0.7794	1.73	0.16
308.15	0.8338	1.63	0.16
308.15	0.8789	1.62	0.16
308.15	0.9078	1.54	0.16
308.15	0.9429	1.51	0.16
308.15	1	1.39	0.16
318.15	0	4.4	0.17
318.15	0.0588	4.34	0.17
318.15	0.13	4.13	0.17
318.15	0.2039	3.9	0.17
318.15	0.2858	3.78	0.17
318.15	0.3353	3.71	0.17
318.15	0.4072	3.52	0.17
318.15	0.4825	3.32	0.17
318.15	0.5472	3.17	0.16
318.15	0.613	3.04	0.16
318.15	0.6877	2.87	0.16
318.15	0.7794	2.61	0.16
318.15	0.8338	2.54	0.16
318.15	0.8789	2.48	0.16
318.15	0.9078	2.37	0.16
318.15	0.9429	2.34	0.16
318.15	1	2.13	0.16
