Measured thermophysical data. Measurements of enthalpy of sublimation of Ne, N2, O2, Ar, CO2, Kr, Xe, and H2O using a double paddle oscillator
Source: J. Chem. Thermodyn., 2018, 10.1016/j.jct.2017.11.004
Compound 1: neon, Ne, InChI=1S/Ne
Compound 2: nitrogen, N2, InChI=1S/N2/c1-2
Compound 3: argon, Ar, InChI=1S/Ar
Compound 4: oxygen, O2, InChI=1S/O2/c1-2
Compound 5: krypton, Kr, InChI=1S/Kr
Compound 6: xenon, Xe, InChI=1S/Xe
Compound 7: carbon dioxide, CO2, InChI=1S/CO2/c2-1-3
Compound 8: water, H2O, InChI=1S/H2O/h1H2, purity 99.8%

System: neon; phases: Crystal, Gas
Property: Molar enthalpy of vaporization or sublimation, kJ/mol (Crystal); method: Derived by Second law
Temperature, K	Molar enthalpy of vaporization or sublimation, kJ/mol	uncertainty
8.88	1.9	0.92

System: neon; phases: Crystal, Gas
Property: Vapor or sublimation pressure, kPa (Crystal); method: Rate of evaporation
Temperature, K	Vapor or sublimation pressure, kPa	uncertainty
8.004	2.98e-08	9.8e-09
8.251	6.87e-08	1.75e-08
8.502	1.633e-07	4.32e-08
8.749	3.617e-07	1.279e-07
8.792	4.482e-07	1.141e-07
9.046	9.212e-07	7.28e-08
9.468	2.5288e-06	1.436e-06
9.727	5.0972e-06	1.3191e-06
8.996	9.17e-07	7.43e-08
9.251	1.8324e-06	3.544e-07
9.518	3.5742e-06	1.3262e-06
9.776	6.5639e-06	2.1608e-06

System: nitrogen; phases: Crystal, Gas
Property: Molar enthalpy of vaporization or sublimation, kJ/mol (Crystal); method: Derived by Second law
Temperature, K	Molar enthalpy of vaporization or sublimation, kJ/mol	uncertainty
25.25	7.34	1.22

System: nitrogen; phases: Crystal, Gas
Property: Vapor or sublimation pressure, kPa (Crystal); method: Rate of evaporation
Temperature, K	Vapor or sublimation pressure, kPa	uncertainty
24.012	2.3e-10	2.1e-10
24.512	5.1e-10	3.5e-10
25.01	8.7e-10	5.6e-10
25.505	1.65e-09	1.02e-09
26	3.18e-09	1.94e-09
26.493	6.29e-09	3.82e-09
26.999	1.319e-08	7.99e-09
23.005	7e-11	1.6e-10
23.512	1.5e-10	1.8e-10
24.012	3.4e-10	2.6e-10
24.511	6.6e-10	4.4e-10
25.009	1.31e-09	8.2e-10
25.504	2.53e-09	1.55e-09
25.999	4.89e-09	2.97e-09
26.492	9.36e-09	5.67e-09
26.999	1.835e-08	1.11e-08
27.483	3.89e-08	2.352e-08
24.012	1.09e-09	6.9e-10
24.511	2.15e-09	1.32e-09
25.009	4.28e-09	2.61e-09
25.504	8.52e-09	5.17e-09
25.999	1.684e-08	1.019e-08
26.492	3.114e-08	1.883e-08
26.999	5.728e-08	3.462e-08
23.002	8e-11	1.6e-10
23.504	1.9e-10	1.9e-10
24.005	4e-10	2.9e-10
24.504	8.2e-10	5.3e-10
24.997	1.66e-09	1.03e-09
25.493	3.24e-09	1.98e-09
25.987	6.63e-09	4.02e-09
26.484	1.287e-08	7.79e-09
26.99	2.45e-08	1.482e-08
24.513	2.37e-09	1.46e-09
25.008	4.61e-09	2.81e-09
25.504	8.72e-09	5.29e-09
25.998	1.649e-08	9.98e-09
26.49	3.151e-08	1.905e-08
26.998	6.062e-08	3.664e-08

System: argon; phases: Crystal, Gas
Property: Molar enthalpy of vaporization or sublimation, kJ/mol (Crystal); method: Derived by Second law
Temperature, K	Molar enthalpy of vaporization or sublimation, kJ/mol	uncertainty
29.3	7.79	0.9

System: argon; phases: Crystal, Gas
Property: Vapor or sublimation pressure, kPa (Crystal); method: Rate of evaporation
Temperature, K	Vapor or sublimation pressure, kPa	uncertainty
27.514	1.95e-09	3.3e-10
28.012	3.29e-09	4.9e-10
28.513	5.83e-09	6.1e-10
29.002	1.028e-08	1.23e-09
29.501	1.808e-08	1.7e-09
30.002	3.116e-08	3.54e-09
30.499	5.157e-08	6.47e-09
31	8.469e-08	2.101e-08
27.511	1.73e-09	4.6e-10
28.009	3.3e-09	5.6e-10
28.505	5.92e-09	1.32e-09
29.012	1.035e-08	1.09e-09
29.506	1.812e-08	1.59e-09
30	3.105e-08	4.42e-09
30.491	5.189e-08	5.37e-09
30.987	8.27e-08	1.164e-08

System: oxygen; phases: Crystal, Gas
Property: Molar enthalpy of vaporization or sublimation, kJ/mol (Crystal); method: Derived by Second law
Temperature, K	Molar enthalpy of vaporization or sublimation, kJ/mol	uncertainty
30.5	9.26	1.14

System: oxygen; phases: Crystal, Gas
Property: Vapor or sublimation pressure, kPa (Crystal); method: Rate of evaporation
Temperature, K	Vapor or sublimation pressure, kPa	uncertainty
29.48	5.02e-09	2.07e-09
29.988	8.75e-09	3.58e-09
30.472	1.531e-08	6.25e-09
30.977	2.698e-08	1.098e-08
31.48	4.84e-08	1.969e-08
31.77	8.494e-08	3.453e-08
32.481	1.4692e-07	5.97e-08
28.986	1.81e-09	7.7e-10
29.481	3.06e-09	1.28e-09
29.983	5.64e-09	2.32e-09
30.474	1.01e-08	4.13e-09
30.979	1.855e-08	7.56e-09
31.479	3.339e-08	1.359e-08
31.977	5.894e-08	2.397e-08
32.482	1.0342e-07	4.203e-08
32.982	1.6321e-07	6.632e-08

System: krypton; phases: Crystal, Gas
Property: Molar enthalpy of vaporization or sublimation, kJ/mol (Crystal); method: Derived by Second law
Temperature, K	Molar enthalpy of vaporization or sublimation, kJ/mol	uncertainty
40.5	11.54	1.12

System: krypton; phases: Crystal, Gas
Property: Vapor or sublimation pressure, kPa (Crystal); method: Rate of evaporation
Temperature, K	Vapor or sublimation pressure, kPa	uncertainty
38.5	1.68e-09	2.9e-10
38.996	2.68e-09	3.6e-10
39.495	4.01e-09	4.7e-10
39.994	6.3e-09	6.4e-10
40.495	9.68e-09	9.1e-10
40.999	1.475e-08	1.38e-09
41.499	2.262e-08	1.95e-09
41.999	3.422e-08	2.81e-09
42.505	5.092e-08	4.1e-09
38.498	1.86e-09	3e-10
38.996	2.84e-09	3.7e-10
39.496	4.34e-09	4.9e-10
39.998	6.56e-09	6.6e-10
40.495	9.97e-09	9.3e-10
41.004	1.527e-08	1.4e-09
41.503	2.312e-08	1.95e-09
42.003	3.529e-08	3.19e-09
42.504	5.406e-08	4.34e-09

System: xenon; phases: Crystal, Gas
Property: Molar enthalpy of vaporization or sublimation, kJ/mol (Crystal); method: Derived by Second law
Temperature, K	Molar enthalpy of vaporization or sublimation, kJ/mol	uncertainty
53.5	15.79	1

System: xenon; phases: Crystal, Gas
Property: Vapor or sublimation pressure, kPa (Crystal); method: Rate of evaporation
Temperature, K	Vapor or sublimation pressure, kPa	uncertainty
50.012	4.67e-10	1.91e-10
51.02	1.049e-09	2.36e-10
52.024	2.544e-09	3.52e-10
52.524	3.083e-09	3.94e-10
53.021	4.645e-09	5.15e-10
53.517	5.947e-09	6.16e-10
54.019	8.286e-09	7.97e-10
54.521	1.1502e-08	1.047e-09
55.022	1.5441e-08	1.353e-09
56.025	2.9729e-08	2.459e-09
56.53	4.0238e-08	3.275e-09
57.027	5.4156e-08	4.35e-09
50.01	4.85e-10	1.93e-10
51.016	1.113e-09	2.41e-10
52.52	2.776e-09	3.7e-10
53.018	4.226e-09	4.83e-10
53.515	5.796e-09	6.04e-10
54.016	8.078e-09	7.81e-10
54.519	1.1261e-08	1.028e-09
55.019	1.5278e-08	1.34e-09
55.521	2.1126e-08	1.793e-09
56.023	2.9071e-08	2.408e-09
56.524	3.9385e-08	3.209e-09
57.029	5.3203e-08	4.281e-09

System: carbon dioxide; phases: Crystal, Gas
Property: Molar enthalpy of vaporization or sublimation, kJ/mol (Crystal); method: Derived by Second law
Temperature, K	Molar enthalpy of vaporization or sublimation, kJ/mol	uncertainty
82.3	28.84	2.29

System: carbon dioxide; phases: Crystal, Gas
Property: Vapor or sublimation pressure, kPa (Crystal); method: Rate of evaporation
Temperature, K	Vapor or sublimation pressure, kPa	uncertainty
80.532	8.98e-09	8.5e-10
81.028	1.252e-08	1.13e-09
81.524	1.56e-08	1.37e-09
82.02	1.911e-08	1.64e-09
82.522	2.519e-08	2.12e-09
83.021	3.328e-08	2.76e-09
83.527	4.446e-08	3.66e-09
84.025	5.947e-08	7.25e-09
84.529	6.758e-08	5.5e-09
80.03	7.21e-09	8.9e-10
80.534	8.61e-09	1.04e-09
81.029	1.11e-08	1.31e-09
81.524	1.416e-08	1.63e-09
82.02	1.819e-08	2.07e-09
82.523	2.353e-08	2.65e-09
83.022	2.981e-08	3.33e-09
83.529	3.967e-08	4.4e-09
84.03	5.272e-08	9.97e-09
84.531	6.988e-08	7.67e-09

System: water; phases: Crystal, Gas
Property: Molar enthalpy of vaporization or sublimation, kJ/mol (Crystal); method: Derived by Second law
Temperature, K	Molar enthalpy of vaporization or sublimation, kJ/mol	uncertainty
157.8	54.46	10.62

System: water; phases: Crystal, Gas
Property: Vapor or sublimation pressure, kPa (Crystal); method: Rate of evaporation
Temperature, K	Vapor or sublimation pressure, kPa	uncertainty
154.972	3.289e-08	7.26e-09
156.968	6.144e-08	1.291e-08
159.976	1.1853e-07	2.477e-08
160.47	1.414e-07	2.95e-08
160.968	1.6359e-07	3.446e-08
161.465	1.8718e-07	3.904e-08
154.965	2.922e-08	6.48e-09
155.959	4.124e-08	8.64e-09
156.955	5.337e-08	1.278e-08
157.956	7.108e-08	1.487e-08
158.966	9.378e-08	1.959e-08
159.961	1.1739e-07	2.454e-08
160.959	1.421e-07	3.293e-08
