Measured thermophysical data. Effect of 1-butyl-4-methyl pyridinium iodide, [C4mpy]I, ionic liquid on hydration behaviour of aqueous solutions of alpfa-amino acids at different temperatures through volumetric and ultrasonic study
Source: J. Chem. Thermodyn., 2017, 10.1016/j.jct.2017.08.010
Compound 1: 2-aminoacetic acid, C2H5NO2, InChI=1S/C2H5NO2/c3-1-2(4)5/h1,3H2,(H,4,5), purity 99%
Compound 2: (S)-2-aminopropanoic acid, C3H7NO2, InChI=1S/C3H7NO2/c1-2(4)3(5)6/h2H,4H2,1H3,(H,5,6)/t2-/m0/s1, purity 99%
Compound 3: L-valine, C5H11NO2, InChI=1S/C5H11NO2/c1-3(2)4(6)5(7)8/h3-4H,6H2,1-2H3,(H,7,8)/t4-/m0/s1, purity 99%
Compound 4: 1-butyl-4-methylpyridinium iodide, C10H16IN, InChI=1S/C10H16N.HI/c1-3-4-7-11-8-5-10(2)6-9-11;/h5-6,8-9H,3-4,7H2,1-2H3;1H/q+1;/p-1, purity 99%
Compound 5: water, H2O, InChI=1S/H2O/h1H2

System: 2-aminoacetic acid + 1-butyl-4-methylpyridinium iodide + water; phases: Liquid
Fixed: Pressure, kPa = 100
Property: Mass density, kg/m3 (Liquid); method: Vibrating tube method
Solvent: Molality, mol/kg of 1-butyl-4-methylpyridinium iodide	Temperature, K	Molality, mol/kg of 2-aminoacetic acid	Mass density, kg/m3	uncertainty
0.025	288.15	0	1001.397	0.33
0.025	288.15	0.02	1002.068	0.328
0.025	288.15	0.05963	1003.387	0.331
0.025	288.15	0.09965	1004.703	0.335
0.025	288.15	0.13794	1005.948	0.341
0.025	288.15	0.16839	1006.927	0.346
0.025	288.15	0.19876	1007.891	0.352
0.025	293.15	0	1000.482	0.33
0.025	293.15	0.02	1001.144	0.328
0.025	293.15	0.05963	1002.444	0.33
0.025	293.15	0.09965	1003.744	0.335
0.025	293.15	0.13794	1004.974	0.34
0.025	293.15	0.16839	1005.945	0.346
0.025	293.15	0.19876	1006.899	0.348
0.025	298.15	0	999.308	0.33
0.025	298.15	0.02	999.961	0.328
0.025	298.15	0.05963	1001.245	0.33
0.025	298.15	0.09965	1002.528	0.334
0.025	298.15	0.13794	1003.745	0.34
0.025	298.15	0.16839	1004.704	0.345
0.025	298.15	0.19876	1005.652	0.348
0.025	303.15	0	997.893	0.33
0.025	303.15	0.02	998.539	0.328
0.025	303.15	0.05963	999.81	0.33
0.025	303.15	0.09965	1001.081	0.334
0.025	303.15	0.13794	1002.288	0.339
0.025	303.15	0.16839	1003.241	0.344
0.025	303.15	0.19876	1004.18	0.348
0.025	308.15	0	996.26	0.329
0.025	308.15	0.02	996.901	0.328
0.025	308.15	0.05963	998.162	0.33
0.025	308.15	0.09965	999.425	0.333
0.025	308.15	0.13794	1000.621	0.339
0.025	308.15	0.16839	1001.566	0.344
0.025	308.15	0.19876	1002.5	0.35
0.05	288.15	0	1003.496	0.338
0.05	288.15	0.0201	1004.16	0.336
0.05	288.15	0.05948	1005.45	0.338
0.05	288.15	0.09928	1006.74	0.342
0.05	288.15	0.14002	1008.043	0.348
0.05	288.15	0.17012	1009.006	0.353
0.05	288.15	0.20081	1009.971	0.358
0.05	293.15	0	1002.557	0.337
0.05	293.15	0.0201	1003.212	0.336
0.05	293.15	0.05948	1004.487	0.338
0.05	293.15	0.09928	1005.76	0.342
0.05	293.15	0.14002	1007.052	0.347
0.05	293.15	0.17012	1007.996	0.352
0.05	293.15	0.20081	1008.949	0.355
0.05	298.15	0	1001.352	0.337
0.05	298.15	0.0201	1002.001	0.335
0.05	298.15	0.05948	1003.263	0.337
0.05	298.15	0.09928	1004.525	0.341
0.05	298.15	0.14002	1005.807	0.347
0.05	298.15	0.17012	1006.74	0.352
0.05	298.15	0.20081	1007.681	0.355
0.05	303.15	0	999.915	0.336
0.05	303.15	0.0201	1000.559	0.335
0.05	303.15	0.05948	1001.81	0.337
0.05	303.15	0.09928	1003.059	0.341
0.05	303.15	0.14002	1004.334	0.346
0.05	303.15	0.17012	1005.252	0.351
0.05	303.15	0.20081	1006.19	0.354
0.05	308.15	0	998.268	0.336
0.05	308.15	0.0201	998.906	0.335
0.05	308.15	0.05948	1000.146	0.336
0.05	308.15	0.09928	1001.386	0.34
0.05	308.15	0.14002	1002.649	0.345
0.05	308.15	0.17012	1003.563	0.35
0.05	308.15	0.20081	1004.494	0.355
0.075	288.15	0	1005.515	0.354
0.075	288.15	0.02009	1006.167	0.353
0.075	288.15	0.05892	1007.42	0.355
0.075	288.15	0.10063	1008.751	0.359
0.075	288.15	0.13999	1009.997	0.365
0.075	288.15	0.17152	1010.995	0.37
0.075	288.15	0.199	1011.853	0.385
0.075	293.15	0	1004.556	0.353
0.075	293.15	0.02009	1005.202	0.352
0.075	293.15	0.05892	1006.441	0.354
0.075	293.15	0.10063	1007.757	0.358
0.075	293.15	0.13999	1008.992	0.363
0.075	293.15	0.17152	1009.967	0.368
0.075	293.15	0.199	1010.812	0.378
0.075	298.15	0	1003.336	0.353
0.075	298.15	0.02009	1003.975	0.352
0.075	298.15	0.05892	1005.203	0.354
0.075	298.15	0.10063	1006.505	0.357
0.075	298.15	0.13999	1007.724	0.362
0.075	298.15	0.17152	1008.69	0.367
0.075	298.15	0.199	1009.533	0.377
0.075	303.15	0	1001.882	0.352
0.075	303.15	0.02009	1002.516	0.351
0.075	303.15	0.05892	1003.734	0.353
0.075	303.15	0.10063	1005.024	0.356
0.075	303.15	0.13999	1006.236	0.361
0.075	303.15	0.17152	1007.188	0.366
0.075	303.15	0.199	1008.018	0.376
0.075	308.15	0	1000.214	0.351
0.075	308.15	0.02009	1000.844	0.35
0.075	308.15	0.05892	1002.052	0.352
0.075	308.15	0.10063	1003.332	0.356
0.075	308.15	0.13999	1004.532	0.361
0.075	308.15	0.17152	1005.481	0.365
0.075	308.15	0.199	1006.301	0.38
0.1	288.15	0	1007.98	0.383
0.1	288.15	0.01991	1008.634	0.382
0.1	288.15	0.0589	1009.903	0.384
0.1	288.15	0.10014	1011.231	0.389
0.1	288.15	0.13907	1012.472	0.394
0.1	288.15	0.17015	1013.455	0.399
0.1	288.15	0.20084	1014.411	0.404
0.1	293.15	0	1006.994	0.379
0.1	293.15	0.01991	1007.639	0.379
0.1	293.15	0.0589	1008.891	0.381
0.1	293.15	0.10014	1010.203	0.385
0.1	293.15	0.13907	1011.427	0.39
0.1	293.15	0.17015	1012.392	0.395
0.1	293.15	0.20084	1013.342	0.396
0.1	298.15	0	1005.751	0.378
0.1	298.15	0.01991	1006.389	0.378
0.1	298.15	0.0589	1007.627	0.38
0.1	298.15	0.10014	1008.923	0.384
0.1	298.15	0.13907	1010.136	0.389
0.1	298.15	0.17015	1011.094	0.394
0.1	298.15	0.20084	1012.03	0.395
0.1	303.15	0	1004.273	0.377
0.1	303.15	0.01991	1004.906	0.377
0.1	303.15	0.0589	1006.134	0.379
0.1	303.15	0.10014	1007.419	0.383
0.1	303.15	0.13907	1008.622	0.387
0.1	303.15	0.17015	1009.57	0.392
0.1	303.15	0.20084	1010.499	0.394
0.1	308.15	0	1002.585	0.378
0.1	308.15	0.01991	1003.212	0.377
0.1	308.15	0.0589	1004.431	0.379
0.1	308.15	0.10014	1005.707	0.383
0.1	308.15	0.13907	1006.896	0.388
0.1	308.15	0.17015	1007.838	0.393
0.1	308.15	0.20084	1008.764	0.398

System: 2-aminoacetic acid + 1-butyl-4-methylpyridinium iodide + water; phases: Liquid
Fixed: Pressure, kPa = 100
Fixed: Frequency, MHz = 3
Property: Speed of sound, m/s (Liquid); method: Single path-length method
Solvent: Molality, mol/kg of 1-butyl-4-methylpyridinium iodide	Temperature, K	Molality, mol/kg of 2-aminoacetic acid	Speed of sound, m/s	uncertainty
0.025	288.15	0	1469.04	1.25
0.025	288.15	0.02	1470.28	1.25
0.025	288.15	0.05963	1472.7	1.25
0.025	288.15	0.09965	1474.82	1.25
0.025	288.15	0.13794	1476.94	1.26
0.025	288.15	0.16839	1478.63	1.26
0.025	288.15	0.19876	1480.38	1.27
0.025	293.15	0	1484.8	1.25
0.025	293.15	0.02	1486.07	1.25
0.025	293.15	0.05963	1488.3	1.25
0.025	293.15	0.09965	1490.35	1.25
0.025	293.15	0.13794	1492.39	1.25
0.025	293.15	0.16839	1493.8	1.26
0.025	293.15	0.19876	1495.33	1.25
0.025	298.15	0	1498.43	1.25
0.025	298.15	0.02	1499.64	1.25
0.025	298.15	0.05963	1502.08	1.25
0.025	298.15	0.09965	1504.07	1.25
0.025	298.15	0.13794	1506.06	1.25
0.025	298.15	0.16839	1507.44	1.26
0.025	298.15	0.19876	1508.95	1.25
0.025	303.15	0	1510.53	1.25
0.025	303.15	0.02	1511.74	1.25
0.025	303.15	0.05963	1514.07	1.25
0.025	303.15	0.09965	1516.01	1.25
0.025	303.15	0.13794	1517.94	1.25
0.025	303.15	0.16839	1519.28	1.25
0.025	303.15	0.19876	1520.74	1.25
0.025	308.15	0	1520.94	1.25
0.025	308.15	0.02	1522.12	1.25
0.025	308.15	0.05963	1524.37	1.25
0.025	308.15	0.09965	1526.26	1.25
0.025	308.15	0.13794	1528.14	1.25
0.025	308.15	0.16839	1529.47	1.25
0.025	308.15	0.19876	1530.89	1.26
0.05	288.15	0	1471.87	1.25
0.05	288.15	0.0201	1472.99	1.25
0.05	288.15	0.05948	1475.16	1.25
0.05	288.15	0.09928	1477.14	1.25
0.05	288.15	0.14002	1479.29	1.26
0.05	288.15	0.17012	1480.96	1.26
0.05	288.15	0.20081	1482.71	1.27
0.05	293.15	0	1487.19	1.25
0.05	293.15	0.0201	1488.31	1.25
0.05	293.15	0.05948	1490.37	1.25
0.05	293.15	0.09928	1492.34	1.25
0.05	293.15	0.14002	1494.21	1.25
0.05	293.15	0.17012	1495.82	1.26
0.05	293.15	0.20081	1497.76	1.26
0.05	298.15	0	1500.84	1.25
0.05	298.15	0.0201	1501.89	1.25
0.05	298.15	0.05948	1503.9	1.25
0.05	298.15	0.09928	1505.82	1.25
0.05	298.15	0.14002	1507.61	1.25
0.05	298.15	0.17012	1509.18	1.26
0.05	298.15	0.20081	1511.06	1.26
0.05	303.15	0	1512.68	1.25
0.05	303.15	0.0201	1513.69	1.25
0.05	303.15	0.05948	1515.63	1.25
0.05	303.15	0.09928	1517.49	1.25
0.05	303.15	0.14002	1519.25	1.25
0.05	303.15	0.17012	1520.77	1.26
0.05	303.15	0.20081	1522.59	1.26
0.05	308.15	0	1522.86	1.25
0.05	308.15	0.0201	1523.86	1.25
0.05	308.15	0.05948	1525.7	1.25
0.05	308.15	0.09928	1527.52	1.25
0.05	308.15	0.14002	1529.26	1.25
0.05	308.15	0.17012	1530.74	1.26
0.05	308.15	0.20081	1532.48	1.27
0.075	288.15	0	1473.88	1.25
0.075	288.15	0.02009	1474.85	1.25
0.075	288.15	0.05892	1476.9	1.26
0.075	288.15	0.10063	1479.32	1.26
0.075	288.15	0.13999	1481.52	1.26
0.075	288.15	0.17152	1483.29	1.27
0.075	288.15	0.199	1485.11	1.29
0.075	293.15	0	1488.98	1.25
0.075	293.15	0.02009	1489.93	1.25
0.075	293.15	0.05892	1491.74	1.25
0.075	293.15	0.10063	1494.02	1.26
0.075	293.15	0.13999	1496.05	1.26
0.075	293.15	0.17152	1498.12	1.27
0.075	293.15	0.199	1499.78	1.27
0.075	298.15	0	1502.35	1.25
0.075	298.15	0.02009	1503.29	1.25
0.075	298.15	0.05892	1505.02	1.25
0.075	298.15	0.10063	1507.21	1.25
0.075	298.15	0.13999	1509.19	1.26
0.075	298.15	0.17152	1511.19	1.27
0.075	298.15	0.199	1512.8	1.27
0.075	303.15	0	1513.93	1.25
0.075	303.15	0.02009	1514.88	1.25
0.075	303.15	0.05892	1516.54	1.25
0.075	303.15	0.10063	1518.67	1.25
0.075	303.15	0.13999	1520.6	1.26
0.075	303.15	0.17152	1522.52	1.27
0.075	303.15	0.199	1524.09	1.27
0.075	308.15	0	1523.85	1.25
0.075	308.15	0.02009	1524.76	1.25
0.075	308.15	0.05892	1526.42	1.25
0.075	308.15	0.10063	1528.5	1.25
0.075	308.15	0.13999	1530.38	1.26
0.075	308.15	0.17152	1532.24	1.26
0.075	308.15	0.199	1533.76	1.27
0.1	288.15	0	1476.61	1.26
0.1	288.15	0.01991	1477.68	1.27
0.1	288.15	0.0589	1479.95	1.27
0.1	288.15	0.10014	1482.27	1.27
0.1	288.15	0.13907	1484.35	1.28
0.1	288.15	0.17015	1486.03	1.29
0.1	288.15	0.20084	1488.31	1.3
0.1	293.15	0	1491.38	1.25
0.1	293.15	0.01991	1492.39	1.26
0.1	293.15	0.0589	1494.62	1.26
0.1	293.15	0.10014	1496.58	1.26
0.1	293.15	0.13907	1498.9	1.27
0.1	293.15	0.17015	1500.52	1.28
0.1	293.15	0.20084	1502.79	1.28
0.1	298.15	0	1504.41	1.25
0.1	298.15	0.01991	1505.41	1.25
0.1	298.15	0.0589	1507.56	1.26
0.1	298.15	0.10014	1509.45	1.26
0.1	298.15	0.13907	1511.71	1.27
0.1	298.15	0.17015	1513.28	1.27
0.1	298.15	0.20084	1515.49	1.27
0.1	303.15	0	1515.69	1.25
0.1	303.15	0.01991	1516.68	1.25
0.1	303.15	0.0589	1518.75	1.25
0.1	303.15	0.10014	1520.61	1.26
0.1	303.15	0.13907	1522.78	1.26
0.1	303.15	0.17015	1524.31	1.27
0.1	303.15	0.20084	1526.49	1.27
0.1	308.15	0	1525.35	1.25
0.1	308.15	0.01991	1526.33	1.25
0.1	308.15	0.0589	1528.32	1.25
0.1	308.15	0.10014	1530.16	1.26
0.1	308.15	0.13907	1532.27	1.26
0.1	308.15	0.17015	1533.75	1.27
0.1	308.15	0.20084	1535.92	1.29

System: (S)-2-aminopropanoic acid + 1-butyl-4-methylpyridinium iodide + water; phases: Liquid
Fixed: Pressure, kPa = 100
Property: Mass density, kg/m3 (Liquid); method: Vibrating tube method
Solvent: Molality, mol/kg of 1-butyl-4-methylpyridinium iodide	Temperature, K	Molality, mol/kg of (S)-2-aminopropanoic acid	Mass density, kg/m3	uncertainty
0.025	288.15	0	1001.397	0.329
0.025	288.15	0.01979	1002.001	0.328
0.025	288.15	0.05977	1003.193	0.33
0.025	288.15	0.09999	1004.354	0.333
0.025	288.15	0.13943	1005.445	0.338
0.025	288.15	0.17189	1006.319	0.342
0.025	288.15	0.20058	1007.077	0.346
0.025	293.15	0	1000.482	0.33
0.025	293.15	0.01979	1001.079	0.328
0.025	293.15	0.05977	1002.258	0.33
0.025	293.15	0.09999	1003.409	0.333
0.025	293.15	0.13943	1004.485	0.337
0.025	293.15	0.17189	1005.348	0.341
0.025	293.15	0.20058	1006.095	0.342
0.025	298.15	0	999.308	0.33
0.025	298.15	0.01979	999.902	0.328
0.025	298.15	0.05977	1001.07	0.33
0.025	298.15	0.09999	1002.202	0.333
0.025	298.15	0.13943	1003.27	0.337
0.025	298.15	0.17189	1004.124	0.34
0.025	298.15	0.20058	1004.847	0.341
0.025	303.15	0	997.893	0.329
0.025	303.15	0.01979	998.482	0.328
0.025	303.15	0.05977	999.64	0.329
0.025	303.15	0.09999	1000.764	0.332
0.025	303.15	0.13943	1001.824	0.336
0.025	303.15	0.17189	1002.662	0.34
0.025	303.15	0.20058	1003.383	0.341
0.025	308.15	0	996.26	0.329
0.025	308.15	0.01979	996.845	0.328
0.025	308.15	0.05977	997.994	0.329
0.025	308.15	0.09999	999.114	0.332
0.025	308.15	0.13943	1000.167	0.336
0.025	308.15	0.17189	1001.004	0.339
0.025	308.15	0.20058	1001.72	0.343
0.05	288.15	0	1003.496	0.337
0.05	288.15	0.01947	1004.081	0.336
0.05	288.15	0.05986	1005.271	0.338
0.05	288.15	0.0978	1006.363	0.341
0.05	288.15	0.14042	1007.559	0.346
0.05	288.15	0.1703	1008.379	0.35
0.05	288.15	0.19847	1009.133	0.354
0.05	293.15	0	1002.557	0.337
0.05	293.15	0.01947	1003.135	0.336
0.05	293.15	0.05986	1004.314	0.338
0.05	293.15	0.0978	1005.393	0.341
0.05	293.15	0.14042	1006.576	0.345
0.05	293.15	0.1703	1007.388	0.349
0.05	293.15	0.19847	1008.133	0.352
0.05	298.15	0	1001.352	0.337
0.05	298.15	0.01947	1001.926	0.335
0.05	298.15	0.05986	1003.095	0.337
0.05	298.15	0.0978	1004.167	0.34
0.05	298.15	0.14042	1005.34	0.345
0.05	298.15	0.1703	1006.146	0.349
0.05	298.15	0.19847	1006.892	0.351
0.05	303.15	0	999.915	0.336
0.05	303.15	0.01947	1000.485	0.335
0.05	303.15	0.05986	1001.647	0.337
0.05	303.15	0.0978	1002.711	0.34
0.05	303.15	0.14042	1003.875	0.344
0.05	303.15	0.1703	1004.674	0.348
0.05	303.15	0.19847	1005.415	0.351
0.05	308.15	0	998.268	0.336
0.05	308.15	0.01947	998.834	0.335
0.05	308.15	0.05986	999.986	0.336
0.05	308.15	0.0978	1001.042	0.339
0.05	308.15	0.14042	1002.2	0.344
0.05	308.15	0.1703	1002.994	0.347
0.05	308.15	0.19847	1003.721	0.351
0.075	288.15	0	1005.515	0.354
0.075	288.15	0.01995	1006.13	0.353
0.075	288.15	0.06049	1007.353	0.355
0.075	288.15	0.10029	1008.517	0.358
0.075	288.15	0.13903	1009.62	0.362
0.075	288.15	0.1709	1010.502	0.365
0.075	288.15	0.20021	1011.3	0.37
0.075	293.15	0	1004.556	0.353
0.075	293.15	0.01995	1005.163	0.353
0.075	293.15	0.06049	1006.372	0.355
0.075	293.15	0.10029	1007.525	0.357
0.075	293.15	0.13903	1008.618	0.361
0.075	293.15	0.1709	1009.493	0.364
0.075	293.15	0.20021	1010.283	0.366
0.075	298.15	0	1003.336	0.353
0.075	298.15	0.01995	1003.937	0.352
0.075	298.15	0.06049	1005.135	0.354
0.075	298.15	0.10029	1006.279	0.357
0.075	298.15	0.13903	1007.361	0.36
0.075	298.15	0.1709	1008.232	0.363
0.075	298.15	0.20021	1009.013	0.365
0.075	303.15	0	1001.882	0.352
0.075	303.15	0.01995	1002.48	0.351
0.075	303.15	0.06049	1003.669	0.353
0.075	303.15	0.10029	1004.804	0.356
0.075	303.15	0.13903	1005.878	0.359
0.075	303.15	0.1709	1006.743	0.362
0.075	303.15	0.20021	1007.519	0.365
0.075	308.15	0	1000.214	0.351
0.075	308.15	0.01995	1000.807	0.35
0.075	308.15	0.06049	1001.989	0.352
0.075	308.15	0.10029	1003.117	0.355
0.075	308.15	0.13903	1004.187	0.359
0.075	308.15	0.1709	1005.045	0.362
0.075	308.15	0.20021	1005.816	0.366
0.1	288.15	0	1007.98	0.383
0.1	288.15	0.02069	1008.621	0.382
0.1	288.15	0.05964	1009.785	0.382
0.1	288.15	0.09994	1010.929	0.384
0.1	288.15	0.14017	1012.01	0.385
0.1	288.15	0.16838	1012.734	0.385
0.1	288.15	0.2019	1013.562	0.386
0.1	293.15	0	1006.994	0.378
0.1	293.15	0.02069	1007.628	0.378
0.1	293.15	0.05964	1008.78	0.379
0.1	293.15	0.09994	1009.911	0.381
0.1	293.15	0.14017	1010.98	0.381
0.1	293.15	0.16838	1011.699	0.382
0.1	293.15	0.2019	1012.512	0.379
0.1	298.15	0	1005.751	0.377
0.1	298.15	0.02069	1006.379	0.377
0.1	298.15	0.05964	1007.519	0.378
0.1	298.15	0.09994	1008.641	0.379
0.1	298.15	0.14017	1009.699	0.38
0.1	298.15	0.16838	1010.412	0.38
0.1	298.15	0.2019	1011.216	0.378
0.1	303.15	0	1004.273	0.377
0.1	303.15	0.02069	1004.897	0.376
0.1	303.15	0.05964	1006.03	0.377
0.1	303.15	0.09994	1007.144	0.378
0.1	303.15	0.14017	1008.194	0.379
0.1	303.15	0.16838	1008.901	0.379
0.1	303.15	0.2019	1009.701	0.377
0.1	308.15	0	1002.585	0.378
0.1	308.15	0.02069	1003.204	0.377
0.1	308.15	0.05964	1004.329	0.378
0.1	308.15	0.09994	1005.435	0.379
0.1	308.15	0.14017	1006.48	0.38
0.1	308.15	0.16838	1007.184	0.379
0.1	308.15	0.2019	1007.975	0.38

System: (S)-2-aminopropanoic acid + 1-butyl-4-methylpyridinium iodide + water; phases: Liquid
Fixed: Pressure, kPa = 100
Fixed: Frequency, MHz = 3
Property: Speed of sound, m/s (Liquid); method: Single path-length method
Solvent: Molality, mol/kg of 1-butyl-4-methylpyridinium iodide	Temperature, K	Molality, mol/kg of (S)-2-aminopropanoic acid	Speed of sound, m/s	uncertainty
0.025	288.15	0	1469.04	1.25
0.025	288.15	0.01979	1470.45	1.25
0.025	288.15	0.05977	1473.32	1.25
0.025	288.15	0.09999	1476.32	1.25
0.025	288.15	0.13943	1478.91	1.26
0.025	288.15	0.17189	1481.26	1.27
0.025	288.15	0.20058	1483.18	1.28
0.025	293.15	0	1484.8	1.25
0.025	293.15	0.01979	1486.17	1.25
0.025	293.15	0.05977	1488.91	1.25
0.025	293.15	0.09999	1491.66	1.25
0.025	293.15	0.13943	1494.26	1.26
0.025	293.15	0.17189	1496.56	1.27
0.025	293.15	0.20058	1498.37	1.26
0.025	298.15	0	1498.43	1.25
0.025	298.15	0.01979	1499.76	1.25
0.025	298.15	0.05977	1502.4	1.25
0.025	298.15	0.09999	1505.33	1.25
0.025	298.15	0.13943	1507.82	1.26
0.025	298.15	0.17189	1510.06	1.27
0.025	298.15	0.20058	1511.78	1.26
0.025	303.15	0	1510.53	1.25
0.025	303.15	0.01979	1511.79	1.25
0.025	303.15	0.05977	1514.36	1.25
0.025	303.15	0.09999	1517.18	1.25
0.025	303.15	0.13943	1519.58	1.26
0.025	303.15	0.17189	1521.78	1.26
0.025	303.15	0.20058	1523.41	1.25
0.025	308.15	0	1520.94	1.25
0.025	308.15	0.01979	1522.25	1.25
0.025	308.15	0.05977	1524.65	1.25
0.025	308.15	0.09999	1527.38	1.25
0.025	308.15	0.13943	1529.69	1.26
0.025	308.15	0.17189	1531.82	1.26
0.025	308.15	0.20058	1533.4	1.26
0.05	288.15	0	1471.87	1.25
0.05	288.15	0.01947	1473.23	1.25
0.05	288.15	0.05986	1475.94	1.25
0.05	288.15	0.0978	1478.47	1.26
0.05	288.15	0.14042	1481.37	1.27
0.05	288.15	0.1703	1483.68	1.27
0.05	288.15	0.19847	1485.44	1.27
0.05	293.15	0	1487.19	1.25
0.05	293.15	0.01947	1488.51	1.25
0.05	293.15	0.05986	1491.18	1.25
0.05	293.15	0.0978	1493.61	1.25
0.05	293.15	0.14042	1496.41	1.26
0.05	293.15	0.1703	1498.62	1.27
0.05	293.15	0.19847	1500.33	1.26
0.05	298.15	0	1500.84	1.25
0.05	298.15	0.01947	1502.1	1.25
0.05	298.15	0.05986	1504.64	1.25
0.05	298.15	0.0978	1507	1.25
0.05	298.15	0.14042	1509.7	1.26
0.05	298.15	0.1703	1511.84	1.27
0.05	298.15	0.19847	1513.45	1.26
0.05	303.15	0	1512.68	1.25
0.05	303.15	0.01947	1513.9	1.25
0.05	303.15	0.05986	1516.33	1.25
0.05	303.15	0.0978	1518.59	1.25
0.05	303.15	0.14042	1521.21	1.26
0.05	303.15	0.1703	1523.3	1.26
0.05	303.15	0.19847	1524.83	1.26
0.05	308.15	0	1522.86	1.25
0.05	308.15	0.01947	1524.03	1.25
0.05	308.15	0.05986	1526.36	1.25
0.05	308.15	0.0978	1528.58	1.25
0.05	308.15	0.14042	1531.08	1.26
0.05	308.15	0.1703	1533.13	1.26
0.05	308.15	0.19847	1534.59	1.26
0.075	288.15	0	1473.88	1.25
0.075	288.15	0.01995	1475.29	1.25
0.075	288.15	0.06049	1478.23	1.26
0.075	288.15	0.10029	1480.89	1.26
0.075	288.15	0.13903	1483.64	1.27
0.075	288.15	0.1709	1485.82	1.27
0.075	288.15	0.20021	1487.74	1.29
0.075	293.15	0	1488.98	1.25
0.075	293.15	0.01995	1490.35	1.25
0.075	293.15	0.06049	1493.2	1.25
0.075	293.15	0.10029	1495.75	1.26
0.075	293.15	0.13903	1498.41	1.27
0.075	293.15	0.1709	1500.28	1.27
0.075	293.15	0.20021	1502.13	1.28
0.075	298.15	0	1502.35	1.25
0.075	298.15	0.01995	1503.65	1.25
0.075	298.15	0.06049	1506.4	1.25
0.075	298.15	0.10029	1508.87	1.26
0.075	298.15	0.13903	1511.42	1.26
0.075	298.15	0.1709	1513.22	1.26
0.075	298.15	0.20021	1515	1.27
0.075	303.15	0	1513.93	1.25
0.075	303.15	0.01995	1515.26	1.25
0.075	303.15	0.06049	1517.84	1.25
0.075	303.15	0.10029	1520.21	1.25
0.075	303.15	0.13903	1522.68	1.26
0.075	303.15	0.1709	1524.43	1.26
0.075	303.15	0.20021	1526.17	1.27
0.075	308.15	0	1523.85	1.25
0.075	308.15	0.01995	1525.08	1.25
0.075	308.15	0.06049	1527.64	1.25
0.075	308.15	0.10029	1529.95	1.25
0.075	308.15	0.13903	1532.33	1.26
0.075	308.15	0.1709	1534.05	1.26
0.075	308.15	0.20021	1535.73	1.27
0.1	288.15	0	1476.61	1.26
0.1	288.15	0.02069	1478.13	1.26
0.1	288.15	0.05964	1480.77	1.27
0.1	288.15	0.09994	1483.61	1.27
0.1	288.15	0.14017	1486.38	1.28
0.1	288.15	0.16838	1488.43	1.29
0.1	288.15	0.2019	1490.86	1.3
0.1	293.15	0	1491.38	1.25
0.1	293.15	0.02069	1492.8	1.26
0.1	293.15	0.05964	1495.51	1.26
0.1	293.15	0.09994	1498.13	1.26
0.1	293.15	0.14017	1500.8	1.27
0.1	293.15	0.16838	1502.66	1.28
0.1	293.15	0.2019	1505.12	1.28
0.1	298.15	0	1504.41	1.25
0.1	298.15	0.02069	1505.79	1.25
0.1	298.15	0.05964	1508.41	1.25
0.1	298.15	0.09994	1510.92	1.26
0.1	298.15	0.14017	1513.49	1.26
0.1	298.15	0.16838	1515.27	1.28
0.1	298.15	0.2019	1517.65	1.27
0.1	303.15	0	1515.69	1.25
0.1	303.15	0.02069	1517.01	1.25
0.1	303.15	0.05964	1519.48	1.25
0.1	303.15	0.09994	1521.97	1.26
0.1	303.15	0.14017	1524.46	1.26
0.1	303.15	0.16838	1526.18	1.27
0.1	303.15	0.2019	1528.3	1.27
0.1	308.15	0	1525.35	1.25
0.1	308.15	0.02069	1526.66	1.25
0.1	308.15	0.05964	1529.03	1.25
0.1	308.15	0.09994	1531.43	1.26
0.1	308.15	0.14017	1533.84	1.26
0.1	308.15	0.16838	1535.51	1.27
0.1	308.15	0.2019	1537.56	1.28

System: L-valine + 1-butyl-4-methylpyridinium iodide + water; phases: Liquid
Fixed: Pressure, kPa = 100
Property: Mass density, kg/m3 (Liquid); method: Vibrating tube method
Solvent: Molality, mol/kg of 1-butyl-4-methylpyridinium iodide	Temperature, K	Molality, mol/kg of L-valine	Mass density, kg/m3	uncertainty
0.025	288.15	0	1001.397	0.329
0.025	288.15	0.01968	1001.954	0.328
0.025	288.15	0.06022	1003.079	0.33
0.025	288.15	0.09965	1004.147	0.333
0.025	288.15	0.13971	1005.204	0.337
0.025	288.15	0.17139	1006.02	0.34
0.025	288.15	0.19892	1006.722	0.344
0.025	293.15	0	1000.482	0.33
0.025	293.15	0.01968	1001.035	0.328
0.025	293.15	0.06022	1002.151	0.33
0.025	293.15	0.09965	1003.204	0.333
0.025	293.15	0.13971	1004.248	0.336
0.025	293.15	0.17139	1005.053	0.34
0.025	293.15	0.19892	1005.743	0.34
0.025	298.15	0	999.308	0.329
0.025	298.15	0.01968	999.854	0.328
0.025	298.15	0.06022	1000.955	0.33
0.025	298.15	0.09965	1002	0.332
0.025	298.15	0.13971	1003.03	0.336
0.025	298.15	0.17139	1003.826	0.339
0.025	298.15	0.19892	1004.507	0.339
0.025	303.15	0	997.893	0.329
0.025	303.15	0.01968	998.434	0.328
0.025	303.15	0.06022	999.525	0.329
0.025	303.15	0.09965	1000.56	0.332
0.025	303.15	0.13971	1001.579	0.335
0.025	303.15	0.17139	1002.368	0.338
0.025	303.15	0.19892	1003.042	0.339
0.025	308.15	0	996.26	0.329
0.025	308.15	0.01968	996.796	0.328
0.025	308.15	0.06022	997.879	0.329
0.025	308.15	0.09965	998.904	0.331
0.025	308.15	0.13971	999.915	0.335
0.025	308.15	0.17139	1000.7	0.338
0.025	308.15	0.19892	1001.369	0.341
0.05	288.15	0	1003.496	0.337
0.05	288.15	0.01941	1004.067	0.336
0.05	288.15	0.06023	1005.213	0.338
0.05	288.15	0.09951	1006.235	0.34
0.05	288.15	0.13987	1007.245	0.343
0.05	288.15	0.16976	1007.948	0.345
0.05	288.15	0.2006	1008.622	0.351
0.05	293.15	0	1002.557	0.337
0.05	293.15	0.01941	1003.123	0.336
0.05	293.15	0.06023	1004.259	0.337
0.05	293.15	0.09951	1005.269	0.34
0.05	293.15	0.13987	1006.26	0.342
0.05	293.15	0.16976	1006.942	0.344
0.05	293.15	0.2006	1007.609	0.346
0.05	298.15	0	1001.352	0.337
0.05	298.15	0.01941	1001.914	0.335
0.05	298.15	0.06023	1003.044	0.337
0.05	298.15	0.09951	1004.043	0.339
0.05	298.15	0.13987	1005.021	0.342
0.05	298.15	0.16976	1005.684	0.343
0.05	298.15	0.2006	1006.334	0.346
0.05	303.15	0	999.915	0.336
0.05	303.15	0.01941	1000.473	0.335
0.05	303.15	0.06023	1001.594	0.336
0.05	303.15	0.09951	1002.584	0.338
0.05	303.15	0.13987	1003.551	0.341
0.05	303.15	0.16976	1004.218	0.343
0.05	303.15	0.2006	1004.864	0.345
0.05	308.15	0	998.268	0.336
0.05	308.15	0.01941	998.821	0.335
0.05	308.15	0.06023	999.93	0.336
0.05	308.15	0.09951	1000.91	0.338
0.05	308.15	0.13987	1001.871	0.341
0.05	308.15	0.16976	1002.521	0.342
0.05	308.15	0.2006	1003.154	0.348
0.075	288.15	0	1005.515	0.353
0.075	288.15	0.02023	1006.077	0.353
0.075	288.15	0.05954	1007.151	0.354
0.075	288.15	0.09976	1008.212	0.357
0.075	288.15	0.14079	1009.275	0.361
0.075	288.15	0.16961	1009.987	0.364
0.075	288.15	0.19856	1010.707	0.375
0.075	293.15	0	1004.556	0.353
0.075	293.15	0.02023	1005.111	0.352
0.075	293.15	0.05954	1006.171	0.353
0.075	293.15	0.09976	1007.222	0.356
0.075	293.15	0.14079	1008.258	0.36
0.075	293.15	0.16961	1008.971	0.364
0.075	293.15	0.19856	1009.681	0.37
0.075	298.15	0	1003.336	0.352
0.075	298.15	0.02023	1003.887	0.351
0.075	298.15	0.05954	1004.934	0.352
0.075	298.15	0.09976	1005.978	0.355
0.075	298.15	0.14079	1007.008	0.359
0.075	298.15	0.16961	1007.703	0.363
0.075	298.15	0.19856	1008.406	0.369
0.075	303.15	0	1001.882	0.352
0.075	303.15	0.02023	1002.427	0.35
0.075	303.15	0.05954	1003.466	0.351
0.075	303.15	0.09976	1004.496	0.354
0.075	303.15	0.14079	1005.519	0.358
0.075	303.15	0.16961	1006.208	0.362
0.075	303.15	0.19856	1006.904	0.369
0.075	308.15	0	1000.214	0.35
0.075	308.15	0.02023	1000.753	0.35
0.075	308.15	0.05954	1001.784	0.351
0.075	308.15	0.09976	1002.802	0.353
0.075	308.15	0.14079	1003.813	0.357
0.075	308.15	0.16961	1004.505	0.361
0.075	308.15	0.19856	1005.195	0.37
0.1	288.15	0	1007.98	0.383
0.1	288.15	0.01994	1008.526	0.381
0.1	288.15	0.05954	1009.598	0.382
0.1	288.15	0.1011	1010.704	0.385
0.1	288.15	0.13877	1011.696	0.389
0.1	288.15	0.16959	1012.502	0.394
0.1	288.15	0.20018	1013.285	0.399
0.1	293.15	0	1006.994	0.378
0.1	293.15	0.01994	1007.535	0.378
0.1	293.15	0.05954	1008.597	0.379
0.1	293.15	0.1011	1009.692	0.382
0.1	293.15	0.13877	1010.667	0.386
0.1	293.15	0.16959	1011.462	0.391
0.1	293.15	0.20018	1012.232	0.391
0.1	298.15	0	1005.751	0.377
0.1	298.15	0.01994	1006.287	0.377
0.1	298.15	0.05954	1007.338	0.378
0.1	298.15	0.1011	1008.422	0.381
0.1	298.15	0.13877	1009.385	0.385
0.1	298.15	0.16959	1010.173	0.39
0.1	298.15	0.20018	1010.931	0.39
0.1	303.15	0	1004.273	0.376
0.1	303.15	0.01994	1004.804	0.376
0.1	303.15	0.05954	1005.847	0.377
0.1	303.15	0.1011	1006.923	0.38
0.1	303.15	0.13877	1007.877	0.384
0.1	303.15	0.16959	1008.654	0.388
0.1	303.15	0.20018	1009.406	0.389
0.1	308.15	0	1002.585	0.378
0.1	308.15	0.01994	1003.112	0.377
0.1	308.15	0.05954	1004.145	0.378
0.1	308.15	0.1011	1005.209	0.381
0.1	308.15	0.13877	1006.156	0.385
0.1	308.15	0.16959	1006.928	0.389
0.1	308.15	0.20018	1007.674	0.393

System: L-valine + 1-butyl-4-methylpyridinium iodide + water; phases: Liquid
Fixed: Pressure, kPa = 100
Fixed: Frequency, MHz = 3
Property: Speed of sound, m/s (Liquid); method: Single path-length method
Solvent: Molality, mol/kg of 1-butyl-4-methylpyridinium iodide	Temperature, K	Molality, mol/kg of L-valine	Speed of sound, m/s	uncertainty
0.025	288.15	0	1469.04	1.25
0.025	288.15	0.01968	1471.18	1.25
0.025	288.15	0.06022	1475.6	1.25
0.025	288.15	0.09965	1479.89	1.26
0.025	288.15	0.13971	1483.86	1.28
0.025	288.15	0.17139	1487.28	1.3
0.025	288.15	0.19892	1490.26	1.32
0.025	293.15	0	1484.8	1.25
0.025	293.15	0.01968	1486.76	1.25
0.025	293.15	0.06022	1490.71	1.25
0.025	293.15	0.09965	1495.08	1.26
0.025	293.15	0.13971	1498.62	1.28
0.025	293.15	0.17139	1502.15	1.3
0.025	293.15	0.19892	1504.91	1.29
0.025	298.15	0	1498.43	1.25
0.025	298.15	0.01968	1500.37	1.25
0.025	298.15	0.06022	1504.34	1.25
0.025	298.15	0.09965	1508.54	1.26
0.025	298.15	0.13971	1511.91	1.27
0.025	298.15	0.17139	1515.25	1.29
0.025	298.15	0.19892	1517.87	1.28
0.025	303.15	0	1510.53	1.25
0.025	303.15	0.01968	1512.39	1.25
0.025	303.15	0.06022	1516.21	1.25
0.025	303.15	0.09965	1520.18	1.26
0.025	303.15	0.13971	1523.42	1.27
0.025	303.15	0.17139	1526.59	1.29
0.025	303.15	0.19892	1529.1	1.28
0.025	308.15	0	1520.94	1.25
0.025	308.15	0.01968	1522.72	1.25
0.025	308.15	0.06022	1526.4	1.25
0.025	308.15	0.09965	1530.17	1.26
0.025	308.15	0.13971	1533.28	1.27
0.025	308.15	0.17139	1536.29	1.28
0.025	308.15	0.19892	1538.71	1.29
0.05	288.15	0	1471.87	1.25
0.05	288.15	0.01941	1473.82	1.25
0.05	288.15	0.06023	1478.09	1.26
0.05	288.15	0.09951	1482.17	1.27
0.05	288.15	0.13987	1486.35	1.29
0.05	288.15	0.16976	1489.98	1.29
0.05	288.15	0.2006	1492.2	1.3
0.05	293.15	0	1487.19	1.25
0.05	293.15	0.01941	1489.13	1.25
0.05	293.15	0.06023	1492.96	1.25
0.05	293.15	0.09951	1496.85	1.26
0.05	293.15	0.13987	1501.09	1.28
0.05	293.15	0.16976	1504.59	1.29
0.05	293.15	0.2006	1506.72	1.27
0.05	298.15	0	1500.84	1.25
0.05	298.15	0.01941	1502.64	1.25
0.05	298.15	0.06023	1506.31	1.25
0.05	298.15	0.09951	1510.94	1.26
0.05	298.15	0.13987	1514.06	1.27
0.05	298.15	0.16976	1517.42	1.28
0.05	298.15	0.2006	1519.44	1.27
0.05	303.15	0	1512.68	1.25
0.05	303.15	0.01941	1514.38	1.25
0.05	303.15	0.06023	1517.88	1.25
0.05	303.15	0.09951	1521.43	1.26
0.05	303.15	0.13987	1525.28	1.28
0.05	303.15	0.16976	1528.54	1.28
0.05	303.15	0.2006	1530.43	1.27
0.05	308.15	0	1522.86	1.25
0.05	308.15	0.01941	1524.53	1.25
0.05	308.15	0.06023	1527.81	1.25
0.05	308.15	0.09951	1531.21	1.26
0.05	308.15	0.13987	1534.88	1.27
0.05	308.15	0.16976	1538.04	1.28
0.05	308.15	0.2006	1539.82	1.28
0.075	288.15	0	1473.88	1.25
0.075	288.15	0.02023	1475.98	1.25
0.075	288.15	0.05954	1480.43	1.26
0.075	288.15	0.09976	1484.48	1.27
0.075	288.15	0.14079	1488.67	1.29
0.075	288.15	0.16961	1491.82	1.31
0.075	288.15	0.19856	1495.32	1.32
0.075	293.15	0	1488.98	1.25
0.075	293.15	0.02023	1491.01	1.25
0.075	293.15	0.05954	1495.26	1.26
0.075	293.15	0.09976	1499.05	1.27
0.075	293.15	0.14079	1503.15	1.28
0.075	293.15	0.16961	1506.04	1.3
0.075	293.15	0.19856	1509.47	1.31
0.075	298.15	0	1502.35	1.25
0.075	298.15	0.02023	1504.28	1.25
0.075	298.15	0.05954	1508.34	1.26
0.075	298.15	0.09976	1511.95	1.26
0.075	298.15	0.14079	1515.85	1.28
0.075	298.15	0.16961	1518.59	1.3
0.075	298.15	0.19856	1521.91	1.3
0.075	303.15	0	1513.93	1.25
0.075	303.15	0.02023	1515.78	1.25
0.075	303.15	0.05954	1519.66	1.25
0.075	303.15	0.09976	1523.1	1.26
0.075	303.15	0.14079	1526.83	1.27
0.075	303.15	0.16961	1529.45	1.29
0.075	303.15	0.19856	1532.62	1.3
0.075	308.15	0	1523.85	1.25
0.075	308.15	0.02023	1525.63	1.25
0.075	308.15	0.05954	1529.36	1.25
0.075	308.15	0.09976	1532.63	1.26
0.075	308.15	0.14079	1536.2	1.27
0.075	308.15	0.16961	1538.71	1.29
0.075	308.15	0.19856	1541.77	1.29
0.1	288.15	0	1476.61	1.26
0.1	288.15	0.01994	1478.66	1.27
0.1	288.15	0.05954	1482.86	1.27
0.1	288.15	0.1011	1487.17	1.28
0.1	288.15	0.13877	1491.29	1.3
0.1	288.15	0.16959	1494.4	1.31
0.1	288.15	0.20018	1497.51	1.32
0.1	293.15	0	1491.38	1.25
0.1	293.15	0.01994	1493.34	1.26
0.1	293.15	0.05954	1497.14	1.26
0.1	293.15	0.1011	1501.27	1.27
0.1	293.15	0.13877	1505.2	1.28
0.1	293.15	0.16959	1508.15	1.3
0.1	293.15	0.20018	1511.13	1.29
0.1	298.15	0	1504.41	1.25
0.1	298.15	0.01994	1506.29	1.25
0.1	298.15	0.05954	1509.9	1.25
0.1	298.15	0.1011	1513.84	1.27
0.1	298.15	0.13877	1517.57	1.28
0.1	298.15	0.16959	1520.37	1.29
0.1	298.15	0.20018	1523.22	1.28
0.1	303.15	0	1515.69	1.25
0.1	303.15	0.01994	1517.45	1.25
0.1	303.15	0.05954	1520.96	1.25
0.1	303.15	0.1011	1524.72	1.26
0.1	303.15	0.13877	1528.3	1.27
0.1	303.15	0.16959	1530.97	1.28
0.1	303.15	0.20018	1533.68	1.28
0.1	308.15	0	1525.35	1.25
0.1	308.15	0.01994	1526.98	1.25
0.1	308.15	0.05954	1530.39	1.25
0.1	308.15	0.1011	1534	1.26
0.1	308.15	0.13877	1537.47	1.27
0.1	308.15	0.16959	1539.98	1.28
0.1	308.15	0.20018	1542.57	1.29

System: 1-butyl-4-methylpyridinium iodide + water; phases: Liquid
Fixed: Pressure, kPa = 100
Property: Mass density, kg/m3 (Liquid); method: Vibrating tube method
Molality, mol/kg of 1-butyl-4-methylpyridinium iodide	Temperature, K	Mass density, kg/m3	uncertainty
0.025	288.15	1001.397	0.33
0.025	293.15	1000.482	0.33
0.025	298.15	999.308	0.33
0.025	303.15	997.893	0.33
0.025	308.15	996.26	0.329
0.05	288.15	1003.496	0.338
0.05	293.15	1002.557	0.337
0.05	298.15	1001.352	0.337
0.05	303.15	999.915	0.336
0.05	308.15	998.268	0.336
0.075	288.15	1005.515	0.354
0.075	293.15	1004.556	0.353
0.075	298.15	1003.336	0.353
0.075	303.15	1001.882	0.352
0.075	308.15	1000.214	0.351
0.1	288.15	1007.98	0.383
0.1	293.15	1006.994	0.379
0.1	298.15	1005.751	0.378
0.1	303.15	1004.273	0.377
0.1	308.15	1002.585	0.378

System: 1-butyl-4-methylpyridinium iodide + water; phases: Liquid
Fixed: Pressure, kPa = 100
Fixed: Frequency, MHz = 3
Property: Speed of sound, m/s (Liquid); method: Single path-length method
Molality, mol/kg of 1-butyl-4-methylpyridinium iodide	Temperature, K	Speed of sound, m/s	uncertainty
0.025	288.15	1469.04	1.25
0.025	293.15	1484.8	1.25
0.025	298.15	1498.43	1.25
0.025	303.15	1510.53	1.25
0.025	308.15	1520.94	1.25
0.05	288.15	1471.87	1.25
0.05	293.15	1487.19	1.25
0.05	298.15	1500.84	1.25
0.05	303.15	1512.68	1.25
0.05	308.15	1522.86	1.25
0.075	288.15	1473.88	1.25
0.075	293.15	1488.98	1.25
0.075	298.15	1502.35	1.25
0.075	303.15	1513.93	1.25
0.075	308.15	1523.85	1.25
0.1	288.15	1476.61	1.26
0.1	293.15	1491.38	1.25
0.1	298.15	1504.41	1.25
0.1	303.15	1515.69	1.25
0.1	308.15	1525.35	1.25
