Measured thermophysical data. Partial molar volumes of organic solutes in water. XIII. Butanols (aq) at temperatures T = 298 K to 573 K and at pressures up to 30 MPa
Source: J. Chem. Thermodyn., 2006, 10.1016/j.jct.2005.06.010
Compound 1: water, H2O, InChI=1S/H2O/h1H2, purity 99%
Compound 2: butan-1-ol, C4H10O, InChI=1S/C4H10O/c1-2-3-4-5/h5H,2-4H2,1H3, purity 99.5%
Compound 3: butan-2-ol, C4H10O, InChI=1S/C4H10O/c1-3-4(2)5/h4-5H,3H2,1-2H3, purity 99%
Compound 4: 2-methyl-1-propanol, C4H10O, InChI=1S/C4H10O/c1-4(2)3-5/h4-5H,3H2,1-2H3, purity 99.5%
Compound 5: 2-methylpropan-2-ol, C4H10O, InChI=1S/C4H10O/c1-4(2,3)5/h5H,1-3H3, purity 99.7%

System: butan-1-ol + water; phases: Liquid
Property: Mass density, kg/m3 (Liquid); method: Vibrating tube method
Temperature, K	Pressure, kPa	Molality, mol/kg of butan-1-ol	Mass density, kg/m3	uncertainty
298.15	100	0.05551	-0.6773	0.0315
298.15	100	0.13092	-1.5633	0.0322
298.15	100	0.23964	-2.8009	0.0333
298.15	100	0.31205	-3.5983	0.034
298.15	100	0.40923	-4.6328	0.0349
298.15	100	0.42187	-4.7653	0.035
298.15	100	0.6096	-6.6631	0.0369
298.15	20000	0.05551	-0.714	0.0338
298.15	20000	0.13092	-1.655	0.0374
298.15	20000	0.23964	-2.9646	0.0425
298.15	20000	0.40923	-4.8928	0.05
298.15	20000	0.6096	-7.0313	0.0584
298.15	30000	0.05551	-0.7306	0.0349
298.15	30000	0.13092	-1.6971	0.0402
298.15	30000	0.23964	-3.0368	0.0475
298.15	30000	0.6096	-7.2105	0.0703
298.15	100	0.05551	-0.6755	0.0315
298.15	100	0.13092	-1.5654	0.0322
298.15	100	0.23964	-2.8029	0.0333
298.15	100	0.31205	-3.5942	0.034
298.15	100	0.40923	-4.6368	0.0349
298.15	100	0.42187	-4.7672	0.035
298.15	100	0.6096	-6.6613	0.0369
298.15	20000	0.05551	-0.713	0.0338
298.15	20000	0.13092	-1.6441	0.0374
298.15	20000	0.23964	-2.9559	0.0425
298.15	20000	0.40923	-4.8886	0.05
298.15	20000	0.6096	-7.0326	0.0584
298.15	30000	0.05551	-0.732	0.035
298.15	30000	0.13092	-1.6963	0.0402
298.15	30000	0.23964	-3.0395	0.0475
298.15	30000	0.6096	-7.2117	0.0703
298.15	100	0.23964	-2.8009	0.0333
298.15	20000	0.40923	-5.0211	0.0505
298.15	20000	0.40923	-5.0225	0.0505
338.15	160	0.04943	-0.6819	0.0316
338.15	160	0.20633	-2.7966	0.0334
338.15	160	0.36343	-4.8539	0.0352
338.15	160	0.5126	-6.7672	0.0369
338.15	30000	0.04943	-0.6935	0.0348
338.15	30000	0.20633	-2.8439	0.0465
338.15	30000	0.36343	-4.9241	0.0578
338.15	30000	0.5126	-6.847	0.0683
338.15	160	0.04943	-0.6822	0.0316
338.15	160	0.20633	-2.797	0.0334
338.15	160	0.36343	-4.8533	0.0352
338.15	160	0.5126	-6.7657	0.0369
338.15	30000	0.04943	-0.6954	0.0348
338.15	30000	0.20633	-2.8454	0.0465
338.15	30000	0.36343	-4.9242	0.0578
338.15	30000	0.5126	-6.8484	0.0683
373.15	2000	0.05551	-0.8568	0.0325
373.15	2000	0.13092	-2.01	0.0338
373.15	2000	0.23964	-3.6725	0.0357
373.15	2000	0.40923	-6.2233	0.0386
373.15	2000	0.6096	-9.1879	0.0421
373.15	10000	0.05551	-0.8556	0.0336
373.15	10000	0.13092	-2.008	0.0363
373.15	10000	0.23964	-3.6478	0.0402
373.15	10000	0.40923	-6.1855	0.0462
373.15	10000	0.6096	-9.1283	0.0532
373.15	30000	0.05551	-0.8439	0.0362
373.15	30000	0.13092	-1.9872	0.0424
373.15	30000	0.23964	-3.5961	0.0511
373.15	30000	0.40923	-6.1094	0.0648
373.15	30000	0.6096	-8.9852	0.0805
373.15	2000	0.05551	-0.8591	0.0325
373.15	2000	0.13092	-2.0103	0.0338
373.15	2000	0.23964	-3.6645	0.0357
373.15	2000	0.40923	-6.2164	0.0386
373.15	2000	0.6096	-9.1895	0.0421
373.15	10000	0.05551	-0.8481	0.0336
373.15	10000	0.23964	-3.6505	0.0402
373.15	10000	0.40923	-6.1867	0.0462
373.15	10000	0.6096	-9.1383	0.0532
373.15	30000	0.05551	-0.8461	0.0362
373.15	30000	0.23964	-3.6085	0.0512
373.15	30000	0.40923	-6.1082	0.0648
373.15	30000	0.6096	-8.991	0.0805
408.15	2000	0.06506	-1.1412	0.035
408.15	2000	0.12525	-2.1691	0.0362
408.15	2000	0.21523	-3.7096	0.0379
408.15	2000	0.37965	-6.4999	0.0411
408.15	2000	0.52925	-9.0083	0.2439
408.15	30000	0.06506	-1.0767	0.0396
408.15	30000	0.12525	-2.0673	0.045
408.15	30000	0.21523	-3.547	0.2458
408.15	30000	0.37965	-6.1906	0.2493
408.15	30000	0.52925	-8.5979	0.0805
408.15	2000	0.06506	-1.1258	0.035
408.15	2000	0.12525	-2.1679	0.0362
408.15	2000	0.21523	-3.704	0.0379
408.15	2000	0.37965	-6.4991	0.0411
408.15	2000	0.52925	-9.0081	0.2439
408.15	30000	0.06506	-1.0791	0.0397
408.15	30000	0.12525	-2.0669	0.045
408.15	30000	0.21523	-3.5368	0.2458
408.15	30000	0.37965	-6.19	0.2493
408.15	30000	0.52925	-8.5742	0.0804
408.15	2000	0.06506	-1.1315	0.035
408.15	2000	0.06506	-1.1296	0.035
443.15	2000	0.06506	-1.2497	0.0408
443.15	2000	0.12525	-2.406	0.0421
443.15	2000	0.21523	-4.119	0.044
443.15	2000	0.37965	-7.2148	0.0475
443.15	2000	0.52925	-9.9787	0.0506
443.15	20000	0.06506	-1.1981	0.0441
443.15	20000	0.12525	-2.2986	0.0484
443.15	20000	0.21523	-3.9355	0.0548
443.15	20000	0.37965	-6.8826	0.0662
443.15	20000	0.52925	-9.5241	0.0765
443.15	30000	0.06506	-1.1742	0.0458
443.15	30000	0.12525	-2.2459	0.0517
443.15	30000	0.21523	-3.8614	0.0604
443.15	30000	0.37965	-6.7479	0.0761
443.15	30000	0.52925	-9.3213	0.0901
443.15	2000	0.12525	-2.4029	0.0421
443.15	2000	0.21523	-4.1151	0.044
443.15	2000	0.37965	-7.211	0.0475
443.15	2000	0.52925	-9.9832	0.0506
443.15	20000	0.06506	-1.1941	0.0441
443.15	20000	0.12525	-2.3021	0.0484
443.15	20000	0.21523	-3.9336	0.0547
443.15	20000	0.37965	-6.8831	0.0662
443.15	20000	0.52925	-9.5199	0.0765
443.15	30000	0.06506	-1.178	0.0459
443.15	30000	0.12525	-2.2479	0.0517
443.15	30000	0.21523	-3.8485	0.0604
443.15	30000	0.37965	-6.7845	0.0763
443.15	30000	0.52925	-9.3131	0.0901
443.15	2000	0.12525	-2.4064	0.0421
473.15	2200	0.06506	-1.1604	0.0503
473.15	2200	0.12525	-2.6188	0.0519
473.15	2200	0.21523	-4.48	0.054
473.15	2200	0.37965	-7.841	0.0579
473.15	2200	0.52925	-10.8391	0.0614
473.15	20000	0.06506	-1.2793	0.0539
473.15	20000	0.12525	-2.4638	0.0585
473.15	20000	0.21523	-4.2129	0.0653
473.15	20000	0.37965	-7.3662	0.0776
473.15	20000	0.52925	-10.1734	0.0885
473.15	30000	0.06506	-1.2504	0.0558
473.15	30000	0.12525	-2.3978	0.062
473.15	30000	0.21523	-4.1023	0.0713
473.15	30000	0.37965	-7.16	0.0879
473.15	30000	0.52925	-9.8877	0.1027
473.15	2200	0.06506	-1.1632	0.0503
473.15	2200	0.12525	-2.6172	0.0519
473.15	2200	0.21523	-4.4824	0.054
473.15	2200	0.37965	-7.8409	0.0579
473.15	2200	0.52925	-10.8394	0.0614
473.15	20000	0.06506	-1.2828	0.054
473.15	20000	0.12525	-2.4606	0.0585
473.15	20000	0.21523	-4.2132	0.0653
473.15	20000	0.37965	-7.3617	0.0776
473.15	20000	0.52925	-10.1711	0.0885
473.15	30000	0.06506	-1.251	0.0558
473.15	30000	0.12525	-2.3991	0.062
473.15	30000	0.21523	-4.1012	0.0712
473.15	30000	0.37965	-7.159	0.0879
473.15	30000	0.52925	-9.8819	0.1026
498.15	4000	0.06506	-1.4521	0.0637
498.15	4000	0.12525	-2.7989	0.0656
498.15	4000	0.21523	-4.7848	0.0684
498.15	4000	0.37965	-8.3666	0.0736
498.15	4000	0.52925	-11.5424	0.0782
498.15	20000	0.04943	-1.0299	0.0657
498.15	20000	0.20633	-4.2971	0.0784
498.15	20000	0.36343	-7.463	0.0907
498.15	20000	0.5126	-10.4281	0.1022
498.15	30000	0.04943	-0.9977	0.0671
498.15	30000	0.20633	-4.1432	0.0842
498.15	30000	0.36343	-7.1863	0.1007
498.15	30000	0.5126	-10.0342	0.1162
498.15	4000	0.06506	-1.453	0.0637
498.15	4000	0.12525	-2.8015	0.0656
498.15	4000	0.21523	-4.7885	0.0684
498.15	4000	0.37965	-8.3652	0.0736
498.15	4000	0.52925	-11.5523	0.0782
498.15	20000	0.04943	-1.0321	0.0657
498.15	20000	0.20633	-4.3006	0.0784
498.15	20000	0.36343	-7.4645	0.0907
498.15	20000	0.5126	-10.4272	0.1022
498.15	30000	0.04943	-0.9981	0.0671
498.15	30000	0.20633	-4.142	0.0842
498.15	30000	0.36343	-7.1856	0.1007
498.15	30000	0.5126	-10.0393	0.1162
523.15	5000	0.04943	-1.2061	0.082
523.15	5000	0.20633	-5.0005	0.0879
523.15	5000	0.36343	-8.6761	0.0938
523.15	5000	0.5126	-12.1373	0.0993
523.15	20000	0.04943	-1.0967	0.0844
523.15	20000	0.20633	-4.5475	0.0978
523.15	20000	0.36343	-7.8998	0.1108
523.15	20000	0.5126	-11.0178	0.1229
523.15	30000	0.04943	-1.05	0.0858
523.15	30000	0.20633	-4.3326	0.1036
523.15	30000	0.36343	-7.5218	0.121
523.15	30000	0.5126	-10.4799	0.137
523.15	5000	0.04943	-1.2015	0.082
523.15	5000	0.20633	-4.9929	0.0879
523.15	5000	0.36343	-8.6771	0.0938
523.15	5000	0.5126	-12.139	0.0993
523.15	20000	0.04943	-1.0951	0.0844
523.15	20000	0.20633	-4.5498	0.0978
523.15	20000	0.36343	-7.8917	0.1108
523.15	30000	0.04943	-1.0451	0.0858
523.15	30000	0.20633	-4.3398	0.1037
523.15	30000	0.36343	-7.5197	0.121
523.15	30000	0.5126	-10.4812	0.137
548.15	7000	0.04943	-1.3091	0.1083
548.15	7000	0.20633	-5.4359	0.1161
548.15	7000	0.36343	-9.467	0.1237
548.15	7000	0.5126	-13.2096	0.1309
548.15	20000	0.04943	-1.1683	0.1104
548.15	20000	0.20633	-4.8466	0.1247
548.15	20000	0.36343	-8.4156	0.1386
548.15	20000	0.5126	-11.7256	0.1515
548.15	30000	0.04943	-1.0928	0.1118
548.15	30000	0.20633	-4.5263	0.1304
548.15	30000	0.36343	-7.8602	0.1486
548.15	30000	0.5126	-10.9297	0.1653
548.15	7000	0.04943	-1.3108	0.1083
548.15	7000	0.20633	-5.437	0.1161
548.15	7000	0.36343	-9.4613	0.1237
548.15	7000	0.5126	-13.1994	0.1308
548.15	20000	0.04943	-1.1703	0.1104
548.15	20000	0.20633	-4.8446	0.1247
548.15	20000	0.36343	-8.4177	0.1386
548.15	20000	0.5126	-11.7198	0.1515
548.15	30000	0.04943	-1.096	0.1118
548.15	30000	0.20633	-4.529	0.1305
548.15	30000	0.36343	-7.8581	0.1486
548.15	30000	0.5126	-10.939	0.1653
573.15	9600	0.04943	-1.4632	0.1439
573.15	9600	0.20633	-6.1477	0.1547
573.15	9600	0.36343	-10.6643	0.1652
573.15	9600	0.5126	-14.8981	0.1752
573.15	20000	0.04943	-1.274	0.1455
573.15	20000	0.20633	-5.2975	0.1612
573.15	20000	0.36343	-9.1832	0.1764
573.15	20000	0.5126	-12.7894	0.1906
573.15	30000	0.04943	-1.1639	0.1469
573.15	30000	0.20633	-4.8035	0.1667
573.15	30000	0.36343	-8.3289	0.1859
573.15	30000	0.5126	-11.5733	0.2036
573.15	9600	0.04943	-1.4638	0.1439
573.15	9600	0.20633	-6.1442	0.1547
573.15	9600	0.36343	-10.6464	0.1652
573.15	9600	0.5126	-14.9058	0.1753
573.15	20000	0.04943	-1.2753	0.1456
573.15	20000	0.20633	-5.3002	0.1612
573.15	20000	0.36343	-9.1829	0.1764
573.15	20000	0.5126	-12.7786	0.1905
573.15	30000	0.04943	-1.1624	0.1469
573.15	30000	0.20633	-4.7969	0.1667
573.15	30000	0.36343	-8.326	0.1859
573.15	30000	0.5126	-11.5764	0.2036

System: butan-2-ol + water; phases: Liquid
Property: Mass density, kg/m3 (Liquid); method: Vibrating tube method
Temperature, K	Pressure, kPa	Molality, mol/kg of butan-2-ol	Mass density, kg/m3	uncertainty
298.15	100	0.05149	-0.6233	0.0315
298.15	100	0.10555	-1.2616	0.032
298.15	100	0.11564	-1.3749	0.0321
298.15	100	0.1904	-2.222	0.0328
298.15	100	0.29331	-3.3544	0.0337
298.15	100	0.43896	-4.8671	0.0351
298.15	100	0.58295	-6.2738	0.0364
298.15	20000	0.05149	-0.6593	0.0335
298.15	20000	0.11564	-1.4605	0.0367
298.15	20000	0.1904	-2.3642	0.0402
298.15	20000	0.29331	-3.5603	0.0449
298.15	20000	0.43896	-5.1695	0.0511
298.15	20000	0.58295	-6.6691	0.057
298.15	30000	0.05149	-0.6787	0.0347
298.15	30000	0.11564	-1.499	0.0391
298.15	30000	0.1904	-2.4273	0.0442
298.15	30000	0.29331	-3.6573	0.0508
298.15	30000	0.43896	-5.3165	0.0599
298.15	30000	0.58295	-6.8537	0.0683
298.15	100	0.05149	-0.621	0.0315
298.15	100	0.10555	-1.2577	0.032
298.15	100	0.11564	-1.3743	0.0321
298.15	100	0.1904	-2.2218	0.0328
298.15	100	0.29331	-3.3514	0.0337
298.15	100	0.43896	-4.8673	0.0351
298.15	100	0.58295	-6.2752	0.0364
298.15	20000	0.05149	-0.6603	0.0335
298.15	20000	0.11564	-1.4606	0.0367
298.15	20000	0.1904	-2.3641	0.0402
298.15	20000	0.29331	-3.5613	0.0449
298.15	20000	0.43896	-5.1684	0.0511
298.15	20000	0.58295	-6.6662	0.057
298.15	30000	0.05149	-0.6763	0.0347
298.15	30000	0.11564	-1.4985	0.0391
298.15	30000	0.1904	-2.4273	0.0442
298.15	30000	0.29331	-3.6569	0.0508
298.15	30000	0.43896	-5.3166	0.0599
298.15	30000	0.58295	-6.8591	0.0683
338.15	160	0.05162	-0.6813	0.0316
338.15	160	0.09684	-1.2454	0.0321
338.15	160	0.20953	-2.7257	0.0332
338.15	160	0.34019	-4.3445	0.0347
338.15	160	0.50128	-6.3169	0.0366
338.15	30000	0.05162	-0.699	0.0348
338.15	30000	0.09684	-1.3009	0.0381
338.15	30000	0.20953	-2.7896	0.0462
338.15	30000	0.34019	-4.4364	0.0552
338.15	30000	0.50128	-6.4457	0.0662
338.15	160	0.05162	-0.6822	0.0316
338.15	160	0.09684	-1.2725	0.0321
338.15	160	0.20953	-2.7217	0.0332
338.15	160	0.34019	-4.3452	0.0347
338.15	160	0.50128	-6.3186	0.0366
338.15	30000	0.05162	-0.6993	0.0348
338.15	30000	0.09684	-1.3079	0.0381
338.15	30000	0.20953	-2.7886	0.0462
338.15	30000	0.34019	-4.4409	0.0552
338.15	30000	0.50128	-6.4495	0.0662
373.15	2000	0.05149	-0.7627	0.0324
373.15	2000	0.11564	-1.7099	0.0335
373.15	2000	0.1904	-2.7701	0.0346
373.15	2000	0.29331	-4.293	0.0363
373.15	2000	0.43896	-6.3866	0.0387
373.15	2000	0.58295	-8.4132	0.0412
373.15	10000	0.05149	-0.7592	0.0334
373.15	10000	0.10555	-1.7022	0.0356
373.15	10000	0.1904	-2.7906	0.0382
373.15	10000	0.29331	-4.2897	0.0418
373.15	10000	0.43896	-6.3526	0.0468
373.15	10000	0.58295	-8.3695	0.0514
373.15	30000	0.05149	-0.7499	0.0357
373.15	30000	0.11564	-1.7023	0.0408
373.15	30000	0.1904	-2.7591	0.0466
373.15	30000	0.29331	-4.2284	0.0546
373.15	30000	0.43896	-6.2872	0.0658
373.15	30000	0.58295	-8.2629	0.0765
373.15	2000	0.05149	-0.7592	0.0324
373.15	2000	0.11564	-1.709	0.0335
373.15	2000	0.1904	-2.8145	0.0347
373.15	2000	0.29331	-4.2906	0.0363
373.15	2000	0.43896	-6.3826	0.0387
373.15	2000	0.58295	-8.4112	0.0412
373.15	10000	0.05149	-0.7644	0.0334
373.15	10000	0.10555	-1.6982	0.0356
373.15	10000	0.1904	-2.7965	0.0382
373.15	10000	0.29331	-4.287	0.0418
373.15	10000	0.43896	-6.3503	0.0468
373.15	10000	0.58295	-8.3738	0.0514
373.15	30000	0.05149	-0.7569	0.0357
373.15	30000	0.11564	-1.6863	0.0408
373.15	30000	0.1904	-2.76	0.0466
373.15	30000	0.29331	-4.2182	0.0545
373.15	30000	0.43896	-6.2893	0.0658
373.15	30000	0.58295	-8.2651	0.0765
408.15	2000	0.06169	-1.0299	0.0349
408.15	2000	0.10947	-1.8208	0.0358
408.15	2000	0.23573	-3.9056	0.0381
408.15	2000	0.34537	-5.7001	0.0402
408.15	2000	0.54868	-8.9782	0.044
408.15	30000	0.06169	-1.004	0.0393
408.15	30000	0.10947	-1.7402	0.0432
408.15	30000	0.23573	-3.7343	0.246
408.15	30000	0.34537	-5.435	0.0633
408.15	30000	0.54868	-8.5322	0.253
408.15	2000	0.06169	-1.0326	0.0349
408.15	2000	0.10947	-1.8225	0.0358
408.15	2000	0.23573	-3.9066	0.0381
408.15	2000	0.34537	-5.7002	0.0402
408.15	2000	0.54868	-8.9826	0.044
408.15	30000	0.06169	-0.9822	0.0391
408.15	30000	0.10947	-1.7416	0.0433
408.15	30000	0.23573	-3.6042	0.2459
408.15	30000	0.34537	-5.4472	0.0634
408.15	30000	0.54868	-8.5453	0.2531
443.15	2000	0.06169	-1.1514	0.0407
443.15	2000	0.10947	-2.0399	0.0417
443.15	2000	0.23573	-4.3751	0.0443
443.15	2000	0.34537	-6.382	0.0466
443.15	2000	0.54868	-10.0453	0.0508
443.15	20000	0.06169	-1.1007	0.0437
443.15	20000	0.10947	-1.9541	0.0471
443.15	20000	0.23573	-4.1821	0.0557
443.15	20000	0.34537	-6.0999	0.0632
443.15	20000	0.54868	-9.585	0.0768
443.15	30000	0.06169	-1.0841	0.0454
443.15	30000	0.10947	-1.9095	0.0498
443.15	30000	0.23573	-4.089	0.0617
443.15	30000	0.34537	-5.9687	0.0719
443.15	30000	0.54868	-9.3834	0.0905
443.15	2000	0.06169	-1.1515	0.0407
443.15	2000	0.10947	-2.0414	0.0417
443.15	2000	0.23573	-4.3722	0.0443
443.15	2000	0.34537	-6.3815	0.0466
443.15	2000	0.54868	-10.0447	0.0508
443.15	20000	0.06169	-1.1033	0.0438
443.15	20000	0.10947	-1.9517	0.047
443.15	20000	0.23573	-4.1844	0.0557
443.15	20000	0.34537	-6.097	0.0632
443.15	20000	0.54868	-9.5842	0.0768
443.15	30000	0.06169	-1.0841	0.0454
443.15	30000	0.10947	-1.9095	0.0498
443.15	30000	0.23573	-4.1009	0.0617
443.15	30000	0.34537	-5.9843	0.072
443.15	30000	0.54868	-9.3678	0.0904
473.15	2200	0.06169	-1.2585	0.0504
473.15	2200	0.10947	-2.2356	0.0515
473.15	2200	0.23573	-4.801	0.0544
473.15	2200	0.34537	-7.0019	0.0569
473.15	2200	0.54868	-11.0082	0.0616
473.15	20000	0.06169	-1.1885	0.0536
473.15	20000	0.10947	-2.1049	0.0572
473.15	20000	0.23573	-4.5128	0.0665
473.15	20000	0.34537	-6.5772	0.0745
473.15	20000	0.54868	-10.3223	0.0891
473.15	30000	0.06169	-1.1509	0.0552
473.15	30000	0.10947	-2.0457	0.0601
473.15	30000	0.23573	-4.384	0.0728
473.15	30000	0.34537	-6.3881	0.0837
473.15	30000	0.54868	-10.0182	0.1034
473.15	2200	0.06169	-1.2618	0.0504
473.15	2200	0.10947	-2.2381	0.0515
473.15	2200	0.23573	-4.7987	0.0544
473.15	2200	0.34537	-7.0036	0.0569
473.15	2200	0.54868	-11.0078	0.0616
473.15	20000	0.06169	-1.1844	0.0536
473.15	20000	0.10947	-2.104	0.0571
473.15	20000	0.23573	-4.5111	0.0665
473.15	20000	0.34537	-6.5778	0.0745
473.15	20000	0.54868	-10.3158	0.0891
473.15	30000	0.06169	-1.1548	0.0553
473.15	30000	0.10947	-2.0485	0.0601
473.15	30000	0.23573	-4.3881	0.0728
473.15	30000	0.34537	-6.3913	0.0837
473.15	30000	0.54868	-10.0202	0.1034
473.15	30000	0.23573	-4.384	0.0728
498.15	4000	0.06169	-1.3257	0.0635
498.15	4000	0.10947	-2.4049	0.0651
498.15	4000	0.23573	-5.1638	0.0689
498.15	4000	0.34537	-7.5318	0.0724
498.15	4000	0.54868	-11.8209	0.0785
498.15	20000	0.05162	-1.0601	0.0658
498.15	20000	0.09684	-1.988	0.0694
498.15	20000	0.20953	-4.2763	0.0783
498.15	20000	0.34019	-6.9004	0.0885
498.15	20000	0.50128	-10.0415	0.1007
498.15	30000	0.05162	-1.0214	0.0672
498.15	30000	0.09684	-1.913	0.0721
498.15	30000	0.20953	-4.1167	0.084
498.15	30000	0.34019	-6.6356	0.0977
498.15	30000	0.50128	-9.6739	0.1142
498.15	4000	0.06169	-1.3564	0.0636
498.15	4000	0.10947	-2.4053	0.0651
498.15	4000	0.23573	-5.1613	0.0689
498.15	4000	0.34537	-7.5338	0.0724
498.15	4000	0.54868	-11.824	0.0785
498.15	20000	0.05162	-1.058	0.0658
498.15	20000	0.09684	-1.988	0.0694
498.15	20000	0.20953	-4.2746	0.0783
498.15	20000	0.34019	-6.8975	0.0885
498.15	20000	0.50128	-10.0415	0.1007
498.15	30000	0.05162	-1.0222	0.0672
498.15	30000	0.09684	-1.9123	0.0721
498.15	30000	0.20953	-4.1199	0.084
498.15	30000	0.34019	-6.6414	0.0977
498.15	30000	0.50128	-9.6739	0.1142
523.15	5000	0.05162	-1.2442	0.0821
523.15	5000	0.09684	-2.3342	0.0838
523.15	5000	0.20953	-5.0282	0.088
523.15	5000	0.34019	-8.1128	0.0929
523.15	5000	0.50128	-11.8481	0.0991
523.15	20000	0.05162	-1.1343	0.0845
523.15	20000	0.09684	-2.1263	0.0884
523.15	20000	0.20953	-4.5718	0.0979
523.15	20000	0.34019	-7.3641	0.1088
523.15	20000	0.50128	-10.7324	0.1219
523.15	30000	0.05162	-1.0775	0.086
523.15	30000	0.09684	-2.0244	0.0911
523.15	30000	0.20953	-4.3472	0.1037
523.15	30000	0.34019	-7.0066	0.1182
523.15	30000	0.50128	-10.1945	0.1355
523.15	5000	0.05162	-1.2458	0.0821
523.15	5000	0.09684	-2.3322	0.0838
523.15	5000	0.20953	-5.0277	0.088
523.15	5000	0.34019	-8.1153	0.0929
523.15	5000	0.50128	-11.8505	0.0991
523.15	20000	0.05162	-1.1314	0.0845
523.15	20000	0.09684	-2.1219	0.0884
523.15	20000	0.20953	-4.5721	0.0979
523.15	20000	0.34019	-7.3649	0.1088
523.15	20000	0.50128	-10.7373	0.1219
523.15	30000	0.05162	-1.0769	0.086
523.15	30000	0.09684	-2.0214	0.0911
523.15	30000	0.20953	-4.348	0.1037
523.15	30000	0.34019	-7.0058	0.1182
523.15	30000	0.50128	-10.1915	0.1355
548.15	7000	0.05162	-1.3733	0.1084
548.15	7000	0.09684	-2.5754	0.1107
548.15	7000	0.20953	-5.5634	0.1163
548.15	7000	0.34019	-8.9673	0.1228
548.15	7000	0.50128	-13.0729	0.1307
548.15	20000	0.09684	-2.2957	0.1148
548.15	20000	0.20953	-4.943	0.1251
548.15	20000	0.34019	-7.9477	0.1368
548.15	20000	0.50128	-11.5706	0.151
548.15	30000	0.05162	-1.1417	0.1121
548.15	30000	0.09684	-2.1485	0.1175
548.15	30000	0.20953	-4.6171	0.131
548.15	30000	0.34019	-7.4182	0.1462
548.15	30000	0.50128	-10.781	0.1645
548.15	7000	0.05162	-1.3748	0.1084
548.15	7000	0.09684	-2.5779	0.1107
548.15	7000	0.20953	-5.5624	0.1163
548.15	7000	0.34019	-8.9587	0.1228
548.15	7000	0.50128	-13.0639	0.1307
548.15	20000	0.09684	-2.2952	0.1148
548.15	20000	0.20953	-4.9426	0.1251
548.15	20000	0.34019	-7.9466	0.1368
548.15	20000	0.50128	-11.5649	0.151
548.15	30000	0.05162	-1.1469	0.1121
548.15	30000	0.09684	-2.1463	0.1175
548.15	30000	0.20953	-4.6149	0.1309
548.15	30000	0.34019	-7.4198	0.1462
548.15	30000	0.50128	-10.7823	0.1645
573.15	9600	0.05162	-1.5842	0.1442
573.15	9600	0.09684	-2.9698	0.1474
573.15	9600	0.20953	-6.4061	0.1553
573.15	9600	0.34019	-10.3194	0.1645
573.15	20000	0.05162	-1.3667	0.1459
573.15	20000	0.09684	-2.5726	0.1506
573.15	20000	0.20953	-5.5293	0.1621
573.15	20000	0.34019	-8.8742	0.1752
573.15	20000	0.50128	-12.8999	0.1909
573.15	30000	0.05162	-1.2488	0.1474
573.15	30000	0.09684	-2.362	0.1534
573.15	30000	0.20953	-5.0249	0.1679
573.15	30000	0.34019	-8.0552	0.1844
573.15	30000	0.50128	-11.6803	0.2042
573.15	9600	0.05162	-1.5766	0.1442
573.15	9600	0.09684	-2.9703	0.1474
573.15	9600	0.20953	-6.4042	0.1553
573.15	9600	0.34019	-10.3089	0.1645
573.15	20000	0.05162	-1.3656	0.1459
573.15	20000	0.09684	-2.5686	0.1506
573.15	20000	0.20953	-5.5264	0.1621
573.15	20000	0.34019	-8.8737	0.1752
573.15	20000	0.50128	-12.9031	0.1909
573.15	30000	0.05162	-1.2412	0.1473
573.15	30000	0.09684	-2.3354	0.1533
573.15	30000	0.20953	-5.0327	0.168
573.15	30000	0.34019	-8.0468	0.1844
573.15	30000	0.50128	-11.6858	0.2042

System: 2-methyl-1-propanol + water; phases: Liquid
Property: Mass density, kg/m3 (Liquid); method: Vibrating tube method
Temperature, K	Pressure, kPa	Molality, mol/kg of 2-methyl-1-propanol	Mass density, kg/m3	uncertainty
298.15	100	0.04755	-0.5844	0.0314
298.15	100	0.10178	-1.2366	0.032
298.15	100	0.21767	-2.5858	0.0331
298.15	100	0.3125	-3.637	0.034
298.15	100	0.42059	-4.7946	0.035
298.15	100	0.60935	-6.7188	0.0368
298.15	20000	0.04755	-0.6182	0.0334
298.15	20000	0.10178	-1.3076	0.0361
298.15	20000	0.21767	-2.7325	0.0416
298.15	20000	0.42059	-5.0637	0.0507
298.15	20000	0.60935	-7.0947	0.0587
298.15	30000	0.04755	-0.6317	0.0344
298.15	30000	0.04771	-0.6393	0.0345
298.15	30000	0.10178	-1.3417	0.0383
298.15	30000	0.21767	-2.802	0.0462
298.15	30000	0.42059	-5.1973	0.0592
298.15	30000	0.60935	-7.2799	0.0706
298.15	100	0.04755	-0.5831	0.0314
298.15	100	0.10178	-1.2365	0.032
298.15	100	0.21767	-2.5769	0.0331
298.15	100	0.3125	-3.6362	0.034
298.15	100	0.42059	-4.7908	0.035
298.15	100	0.60935	-6.7171	0.0368
298.15	20000	0.04755	-0.6188	0.0334
298.15	20000	0.10178	-1.3083	0.0361
298.15	20000	0.21767	-2.7323	0.0416
298.15	20000	0.42059	-5.0678	0.0507
298.15	20000	0.60935	-7.0947	0.0587
298.15	30000	0.04755	-0.6307	0.0344
298.15	30000	0.04771	-0.6393	0.0345
298.15	30000	0.10178	-1.3412	0.0383
298.15	30000	0.21767	-2.8009	0.0462
298.15	30000	0.42059	-5.1954	0.0592
298.15	30000	0.60935	-7.276	0.0706
338.15	160	0.03004	-0.4139	0.0314
338.15	160	0.08958	-1.2083	0.032
338.15	160	0.22176	-2.9397	0.0335
338.15	160	0.34133	-4.5256	0.0348
338.15	160	0.51434	-6.7413	0.037
338.15	30000	0.03004	-0.4232	0.0333
338.15	30000	0.08958	-1.2302	0.0377
338.15	30000	0.22176	-2.9852	0.0472
338.15	30000	0.34133	-4.5996	0.056
338.15	30000	0.51434	-6.8197	0.0682
338.15	160	0.03004	-0.4125	0.0314
338.15	160	0.08958	-1.2086	0.032
338.15	160	0.22176	-2.9409	0.0335
338.15	160	0.34133	-4.5256	0.0348
338.15	160	0.51434	-6.7413	0.037
338.15	30000	0.03004	-0.4194	0.0333
338.15	30000	0.08958	-1.2302	0.0377
338.15	30000	0.22176	-2.9905	0.0473
338.15	30000	0.34133	-4.6038	0.0561
338.15	30000	0.51434	-6.8226	0.0682
373.15	2000	0.04755	-0.7245	0.0324
373.15	2000	0.04771	-0.7373	0.0324
373.15	2000	0.10178	-1.5665	0.0333
373.15	2000	0.21767	-3.3307	0.0353
373.15	2000	0.42059	-6.3324	0.0387
373.15	2000	0.60935	-9.1116	0.042
373.15	10000	0.04755	-0.7291	0.0333
373.15	10000	0.04771	-0.7436	0.0333
373.15	10000	0.10178	-1.5604	0.0352
373.15	10000	0.21767	-3.3071	0.0394
373.15	10000	0.42059	-6.3279	0.0465
373.15	10000	0.60935	-9.1109	0.0531
373.15	30000	0.04755	-0.7217	0.0355
373.15	30000	0.04771	-0.7223	0.0355
373.15	30000	0.10178	-1.5448	0.04
373.15	30000	0.21767	-3.2806	0.0494
373.15	30000	0.42059	-6.2411	0.0655
373.15	30000	0.60935	-8.9762	0.0804
373.15	2000	0.04755	-0.7228	0.0324
373.15	2000	0.04771	-0.7373	0.0324
373.15	2000	0.10178	-1.5659	0.0333
373.15	2000	0.21767	-3.3308	0.0353
373.15	2000	0.42059	-6.3272	0.0387
373.15	2000	0.60935	-9.1148	0.042
373.15	10000	0.04755	-0.7219	0.0333
373.15	10000	0.04771	-0.7392	0.0333
373.15	10000	0.10178	-1.5605	0.0352
373.15	10000	0.21767	-3.314	0.0394
373.15	10000	0.42059	-6.3118	0.0465
373.15	10000	0.60935	-9.1166	0.0531
373.15	30000	0.04755	-0.7197	0.0355
373.15	30000	0.04771	-0.7233	0.0355
373.15	30000	0.10178	-1.5437	0.04
373.15	30000	0.21767	-3.279	0.0494
373.15	30000	0.42059	-6.2205	0.0654
373.15	30000	0.60935	-8.9724	0.0804
373.15	10000	0.60935	-9.1021	0.0531
408.15	2000	0.05552	-0.9622	0.0349
408.15	2000	0.09507	-1.641	0.0356
408.15	2000	0.21767	-3.7336	0.0379
408.15	2000	0.24015	-4.1016	0.0383
408.15	2000	0.34496	-5.8954	0.2433
408.15	2000	0.56776	-9.5946	0.0446
408.15	30000	0.05552	-0.9186	0.0388
408.15	30000	0.09507	-1.5695	0.0423
408.15	30000	0.24015	-3.911	0.2462
408.15	30000	0.34496	-5.6047	0.0643
408.15	30000	0.56776	-9.0829	0.254
408.15	2000	0.05552	-0.9655	0.0349
408.15	2000	0.09507	-1.6403	0.0356
408.15	2000	0.21767	-3.7347	0.0379
408.15	2000	0.24015	-4.1161	0.0384
408.15	2000	0.34496	-5.889	0.2433
408.15	2000	0.56776	-9.5911	0.0446
408.15	30000	0.05552	-0.9194	0.0388
408.15	30000	0.09507	-1.561	0.0423
408.15	30000	0.24015	-3.9094	0.2462
408.15	30000	0.34496	-5.6187	0.0643
408.15	30000	0.56776	-9.1094	0.254
443.15	2000	0.05552	-1.0675	0.0406
443.15	2000	0.09507	-1.8197	0.0415
443.15	2000	0.24015	-4.5653	0.0445
443.15	2000	0.34496	-6.5471	0.0467
443.15	2000	0.56776	-10.6338	0.0514
443.15	20000	0.05552	-1.0213	0.0434
443.15	20000	0.09507	-1.7359	0.0462
443.15	20000	0.24015	-4.3581	0.0564
443.15	20000	0.34496	-6.2479	0.0637
443.15	20000	0.56776	-10.1293	0.0788
443.15	30000	0.05552	-0.9937	0.0449
443.15	30000	0.09507	-1.7056	0.0487
443.15	30000	0.24015	-4.2746	0.0627
443.15	30000	0.34496	-6.1214	0.0727
443.15	30000	0.56776	-9.9144	0.0934
443.15	2000	0.05552	-1.069	0.0406
443.15	2000	0.09507	-1.8191	0.0415
443.15	2000	0.24015	-4.5661	0.0445
443.15	2000	0.34496	-6.5477	0.0467
443.15	2000	0.56776	-10.6901	0.0514
443.15	20000	0.05552	-1.0188	0.0434
443.15	20000	0.09507	-1.7396	0.0462
443.15	20000	0.24015	-4.3569	0.0564
443.15	20000	0.34496	-6.2439	0.0637
443.15	20000	0.56776	-10.128	0.0788
443.15	30000	0.05552	-1.0035	0.0449
443.15	30000	0.09507	-1.703	0.0487
443.15	30000	0.24015	-4.2804	0.0627
443.15	30000	0.34496	-6.1202	0.0727
443.15	30000	0.56776	-9.9249	0.0934
473.15	2200	0.05552	-1.1608	0.0503
473.15	2200	0.09507	-1.9808	0.0512
473.15	2200	0.24015	-4.976	0.0546
473.15	2200	0.34496	-7.1328	0.0571
473.15	2200	0.56776	-11.5604	0.0622
473.15	20000	0.05552	-1.1847	0.0536
473.15	20000	0.09507	-1.8639	0.0562
473.15	20000	0.24015	-4.664	0.0671
473.15	20000	0.34496	-6.6931	0.075
473.15	20000	0.56776	-10.8337	0.0911
473.15	30000	0.05552	-1.0628	0.0548
473.15	30000	0.09507	-1.8127	0.0588
473.15	30000	0.24015	-4.5382	0.0736
473.15	30000	0.34496	-6.5021	0.0843
473.15	30000	0.56776	-10.5103	0.1061
473.15	2200	0.05552	-1.1583	0.0503
473.15	2200	0.09507	-1.9842	0.0512
473.15	2200	0.24015	-4.9748	0.0546
473.15	2200	0.34496	-7.1289	0.0571
473.15	2200	0.56776	-11.5603	0.0622
473.15	20000	0.05552	-1.1867	0.0536
473.15	20000	0.09507	-1.8639	0.0562
473.15	20000	0.24015	-4.6641	0.0671
473.15	20000	0.34496	-6.6911	0.075
473.15	20000	0.56776	-10.825	0.091
473.15	30000	0.05552	-1.0631	0.0548
473.15	30000	0.09507	-1.8138	0.0588
473.15	30000	0.24015	-4.5335	0.0736
473.15	30000	0.34496	-6.4962	0.0843
473.15	30000	0.56776	-10.5169	0.1061
498.15	4000	0.05552	-1.2452	0.0634
498.15	4000	0.09507	-2.1158	0.0647
498.15	4000	0.24015	-5.3014	0.0692
498.15	4000	0.34496	-7.6169	0.0725
498.15	4000	0.56776	-12.3213	0.0791
498.15	20000	0.03004	-0.6226	0.0641
498.15	20000	0.08958	-1.8641	0.0689
498.15	20000	0.22176	-4.5905	0.0795
498.15	20000	0.34133	-7.0168	0.0889
498.15	30000	0.03004	-0.6001	0.0649
498.15	30000	0.08958	-1.7956	0.0714
498.15	30000	0.22176	-4.4246	0.0857
498.15	30000	0.34133	-6.7536	0.0983
498.15	30000	0.51434	-10.0699	0.2667
498.15	4000	0.05552	-1.2459	0.0634
498.15	4000	0.09507	-2.119	0.0647
498.15	4000	0.24015	-5.3106	0.0692
498.15	4000	0.34496	-7.6143	0.0725
498.15	4000	0.56776	-12.3158	0.0791
498.15	20000	0.03004	-0.6247	0.0641
498.15	20000	0.08958	-1.8657	0.0689
498.15	20000	0.22176	-4.5901	0.0795
498.15	20000	0.34133	-7.0186	0.0889
498.15	30000	0.03004	-0.5985	0.0649
498.15	30000	0.08958	-1.796	0.0714
498.15	30000	0.22176	-4.4173	0.0857
498.15	30000	0.34133	-6.7549	0.0984
498.15	30000	0.51434	-10.0667	0.2667
523.15	5000	0.03004	-0.7224	0.0813
523.15	5000	0.08958	-2.1729	0.0835
523.15	5000	0.22176	-5.3559	0.0885
523.15	5000	0.34133	-8.1851	0.093
523.15	5000	0.51434	-12.2265	0.0996
523.15	20000	0.03004	-0.6643	0.0827
523.15	20000	0.08958	-1.9761	0.0878
523.15	20000	0.22176	-4.8692	0.099
523.15	20000	0.34133	-7.4376	0.109
523.15	20000	0.51434	-11.0851	0.1232
523.15	30000	0.03004	-0.6294	0.0835
523.15	30000	0.08958	-1.8869	0.0904
523.15	30000	0.22176	-4.6333	0.1053
523.15	30000	0.34133	-7.0839	0.1186
523.15	30000	0.51434	-10.5451	0.1374
523.15	5000	0.03004	-0.7288	0.0813
523.15	5000	0.08958	-2.1696	0.0835
523.15	5000	0.22176	-5.3516	0.0885
523.15	5000	0.34133	-8.1901	0.093
523.15	5000	0.51434	-12.2235	0.0996
523.15	20000	0.22176	-4.8617	0.099
523.15	20000	0.34133	-7.4416	0.109
523.15	20000	0.51434	-11.0884	0.1232
523.15	30000	0.03004	-0.6322	0.0836
523.15	30000	0.08958	-1.8856	0.0904
523.15	30000	0.22176	-4.6341	0.1053
523.15	30000	0.34133	-7.0818	0.1186
523.15	30000	0.51434	-10.5418	0.1374
523.15	20000	0.22176	-4.8602	0.099
523.15	20000	0.51434	-11.0848	0.1232
548.15	7000	0.03004	-0.7934	0.1074
548.15	7000	0.08958	-2.3723	0.1103
548.15	7000	0.22176	-5.8435	0.1168
548.15	7000	0.34133	-8.9008	0.1226
548.15	7000	0.51434	-13.3631	0.1312
548.15	20000	0.03004	-0.7058	0.1086
548.15	20000	0.08958	-2.1128	0.1141
548.15	20000	0.22176	-5.1964	0.1261
548.15	20000	0.34133	-7.8963	0.1366
548.15	20000	0.51434	-11.834	0.1519
548.15	30000	0.03004	-0.6625	0.1095
548.15	30000	0.08958	-1.977	0.1166
548.15	30000	0.22176	-4.8507	0.1322
548.15	30000	0.34133	-7.3694	0.1459
548.15	30000	0.51434	-10.9867	0.1656
548.15	7000	0.03004	-0.7927	0.1074
548.15	7000	0.08958	-2.3721	0.1103
548.15	7000	0.22176	-5.8474	0.1168
548.15	7000	0.34133	-8.8961	0.1226
548.15	7000	0.51434	-13.3591	0.1312
548.15	20000	0.03004	-0.7083	0.1086
548.15	20000	0.08958	-2.1163	0.1141
548.15	20000	0.22176	-5.1921	0.126
548.15	20000	0.34133	-7.8982	0.1366
548.15	20000	0.51434	-11.835	0.152
548.15	30000	0.03004	-0.661	0.1095
548.15	30000	0.08958	-1.9733	0.1166
548.15	30000	0.22176	-4.8488	0.1322
548.15	30000	0.34133	-7.3695	0.1459
548.15	30000	0.51434	-10.9831	0.1656
548.15	30000	0.34133	-7.3672	0.1459
573.15	20000	0.03004	-0.7832	0.1436
573.15	20000	0.08958	-2.3238	0.1496
573.15	20000	0.22176	-5.7111	0.1628
573.15	20000	0.34133	-8.7109	0.1746
573.15	20000	0.51434	-12.9809	0.1913
573.15	20000	0.03004	-0.7724	0.1436
573.15	20000	0.08958	-2.3196	0.1496
573.15	20000	0.22176	-5.7082	0.1628
573.15	20000	0.34133	-8.7357	0.1747
573.15	20000	0.51434	-12.9744	0.1913
573.151	9600	0.03004	-0.8976	0.1426
573.151	9600	0.08958	-2.6811	0.1467
573.151	9600	0.22176	-6.6242	0.1558
573.151	9600	0.34133	-10.1471	0.1641
573.151	9600	0.51434	-15.1608	0.1759
573.151	30000	0.03004	-0.7006	0.1444
573.151	30000	0.08958	-2.1322	0.1522
573.151	30000	0.22176	-5.1681	0.1687
573.151	30000	0.34133	-7.8876	0.1835
573.151	30000	0.51434	-11.7251	0.2044
573.151	9600	0.03004	-0.9019	0.1427
573.151	9600	0.08958	-2.6816	0.1467
573.151	9600	0.22176	-6.6201	0.1558
573.151	9600	0.34133	-10.1415	0.1641
573.151	9600	0.51434	-15.1662	0.176
573.151	30000	0.03004	-0.7045	0.1444
573.151	30000	0.08958	-2.1023	0.152
573.151	30000	0.22176	-5.1687	0.1687
573.151	30000	0.34133	-7.8863	0.1835
573.151	30000	0.51434	-11.7256	0.2044

System: 2-methylpropan-2-ol + water; phases: Liquid
Property: Mass density, kg/m3 (Liquid); method: Vibrating tube method
Temperature, K	Pressure, kPa	Molality, mol/kg of 2-methylpropan-2-ol	Mass density, kg/m3	uncertainty
298.15	100	0.10614	-1.394	0.0321
298.15	100	0.18961	-2.4394	0.0329
298.15	100	0.30773	-3.8569	0.0341
298.15	100	0.4246	-5.1849	0.0352
298.15	100	0.49431	-5.9502	0.0358
298.15	20000	0.03924	-0.5581	0.0332
298.15	20000	0.10614	-1.4742	0.0367
298.15	20000	0.18961	-2.5843	0.041
298.15	20000	0.30773	-4.0871	0.0469
298.15	20000	0.49431	-6.3079	0.0556
298.15	30000	0.03924	-0.5713	0.0341
298.15	30000	0.10614	-1.5076	0.0392
298.15	30000	0.18961	-2.5608	0.0449
298.15	30000	0.30773	-4.1945	0.0537
298.15	30000	0.49431	-6.4788	0.0661
298.15	100	0.10614	-1.3941	0.0321
298.15	100	0.18961	-2.4377	0.0329
298.15	100	0.30773	-3.8569	0.0341
298.15	100	0.4246	-5.1862	0.0352
298.15	100	0.49431	-5.9479	0.0358
298.15	20000	0.03924	-0.5562	0.0331
298.15	20000	0.18961	-2.5847	0.041
298.15	20000	0.30773	-4.0873	0.0469
298.15	20000	0.49431	-6.3085	0.0556
298.15	30000	0.03924	-0.5693	0.0341
298.15	30000	0.10614	-1.5115	0.0392
298.15	30000	0.18961	-2.6532	0.0454
298.15	30000	0.30773	-4.1942	0.0537
298.15	30000	0.49431	-6.479	0.0661
338.15	160	0.06048	-0.8358	0.0317
338.15	160	0.09634	-1.3285	0.0321
338.15	160	0.19954	-2.72	0.0333
338.15	160	0.34741	-4.5955	0.0349
338.15	160	0.47568	-6.3261	0.0362
338.15	30000	0.06048	-0.8583	0.0357
338.15	30000	0.09634	-1.3627	0.0384
338.15	30000	0.19954	-2.7912	0.0462
338.15	30000	0.34741	-4.7035	0.0566
338.15	30000	0.47568	-6.4638	0.0662
338.15	160	0.06048	-0.8376	0.0317
338.15	160	0.09634	-1.3235	0.0321
338.15	160	0.19954	-2.7199	0.0333
338.15	160	0.34741	-4.5967	0.0349
338.15	160	0.47568	-6.3216	0.0362
338.15	30000	0.06048	-0.8583	0.0357
338.15	30000	0.09634	-1.3605	0.0384
338.15	30000	0.19954	-2.7899	0.0462
338.15	30000	0.34741	-4.7003	0.0566
338.15	30000	0.47568	-6.469	0.0662
373.15	2000	0.03924	-0.6105	0.0323
373.15	2000	0.10614	-1.6212	0.0334
373.15	2000	0.18961	-2.9009	0.0348
373.15	2000	0.30773	-4.6799	0.0369
373.15	2000	0.49431	-7.4512	0.04
373.15	10000	0.03924	-0.6093	0.033
373.15	10000	0.10614	-1.6329	0.0354
373.15	10000	0.18961	-2.8943	0.0385
373.15	10000	0.30773	-4.6671	0.0428
373.15	10000	0.49431	-7.4169	0.0491
373.15	30000	0.03924	-0.6061	0.0349
373.15	30000	0.10614	-1.6016	0.0403
373.15	30000	0.18961	-2.8731	0.0472
373.15	30000	0.30773	-4.6347	0.0568
373.15	30000	0.49431	-7.3586	0.0716
373.15	2000	0.03924	-0.6104	0.0323
373.15	2000	0.10614	-1.625	0.0334
373.15	2000	0.18961	-2.9064	0.0348
373.15	2000	0.30773	-4.6727	0.0368
373.15	2000	0.49431	-7.4508	0.04
373.15	10000	0.03924	-0.6084	0.033
373.15	10000	0.10614	-1.6259	0.0354
373.15	10000	0.18961	-2.8953	0.0385
373.15	10000	0.30773	-4.6714	0.0428
373.15	10000	0.49431	-7.4244	0.0491
373.15	30000	0.03924	-0.6048	0.0349
373.15	30000	0.10614	-1.6184	0.0404
373.15	30000	0.18961	-2.8794	0.0472
373.15	30000	0.30773	-4.6329	0.0567
373.15	30000	0.49431	-7.3602	0.0716
408.15	2000	0.04915	-0.8403	0.0347
408.15	2000	0.09196	-1.5763	0.0355
408.15	2000	0.20628	-3.5303	0.0377
408.15	2000	0.3575	-6.0852	0.0406
408.15	2000	0.57102	-9.6365	0.0445
408.15	30000	0.04915	-0.8003	0.0381
408.15	30000	0.09196	-1.522	0.2437
408.15	30000	0.20628	-3.3465	0.2456
408.15	30000	0.3575	-5.7867	0.0652
408.15	30000	0.57102	-9.0921	0.0831
408.15	2000	0.04915	-0.8422	0.0347
408.15	2000	0.09196	-1.5833	0.0355
408.15	2000	0.20628	-3.5287	0.0377
408.15	2000	0.3575	-6.0835	0.0406
408.15	2000	0.57102	-9.6463	0.0445
408.15	30000	0.04915	-0.8007	0.0381
408.15	30000	0.09196	-1.4981	0.2436
408.15	30000	0.20628	-3.3384	0.2456
408.15	30000	0.3575	-5.7668	0.0651
408.15	30000	0.57102	-9.1253	0.0833
443.17	2040	0.0465	-0.9043	0.0405
443.17	2040	0.09971	-1.9299	0.0416
443.17	2040	0.15077	-2.9099	0.0427
443.17	2040	0.20606	-3.967	0.0439
443.17	2040	0.2617	-5.0213	0.0452
443.17	2040	0.31697	-6.08	0.0463
443.17	15130	0.0465	-0.8805	0.0422
443.17	15130	0.09972	-1.8742	0.0453
443.17	15130	0.15078	-2.8206	0.0483
443.17	15130	0.20606	-3.8464	0.0515
443.17	15130	0.26171	-4.8704	0.0548
443.17	15130	0.31699	-5.8884	0.058
443.17	30400	0.04651	-0.8565	0.0442
443.17	30400	0.09972	-1.8227	0.0495
443.17	30400	0.15079	-2.7345	0.0545
443.17	30400	0.20607	-3.7302	0.06
443.17	30400	0.26172	-4.7232	0.0654
443.17	30400	0.317	-5.7063	0.0708
443.17	2040	0.0465	-0.9035	0.0405
443.17	2040	0.09971	-1.9292	0.0416
443.17	2040	0.15077	-2.9087	0.0427
443.17	2040	0.20606	-3.9676	0.0439
443.17	2040	0.2617	-5.023	0.0452
443.17	2040	0.31697	-6.0795	0.0463
443.17	15130	0.0465	-0.8798	0.0422
443.17	15130	0.09972	-1.8731	0.0453
443.17	15130	0.15078	-2.8195	0.0483
443.17	15130	0.20606	-3.8465	0.0515
443.17	15130	0.26171	-4.8676	0.0548
443.17	15130	0.31699	-5.8877	0.058
443.17	30400	0.04651	-0.8551	0.0442
443.17	30400	0.09972	-1.8206	0.0495
443.17	30400	0.15079	-2.7354	0.0545
443.17	30400	0.20607	-3.7314	0.06
443.17	30400	0.26172	-4.7238	0.0654
443.17	30400	0.317	-5.7065	0.0708
443.17	2040	0.0465	-0.9033	0.0405
443.17	2040	0.09971	-1.9304	0.0416
443.17	2040	0.15077	-2.9094	0.0427
443.17	2040	0.20606	-3.9675	0.0439
443.17	2040	0.2617	-5.0244	0.0452
443.17	2040	0.31697	-6.0816	0.0463
443.17	15130	0.0465	-0.8801	0.0422
443.17	15130	0.09972	-1.8732	0.0453
443.17	15130	0.15078	-2.82	0.0483
443.17	15130	0.20606	-3.8456	0.0515
443.17	15130	0.26171	-4.8684	0.0548
443.17	15130	0.31699	-5.887	0.058
443.17	30400	0.04651	-0.8539	0.0442
443.17	30400	0.09972	-1.8209	0.0495
443.17	30400	0.15079	-2.737	0.0545
443.17	30400	0.20607	-3.731	0.06
443.17	30400	0.26172	-4.7219	0.0654
443.17	30400	0.317	-5.707	0.0708
473.16	2160	0.0465	-1.0002	0.0501
473.16	2160	0.09971	-2.1389	0.0514
473.16	2160	0.15077	-3.2286	0.0526
473.16	2160	0.20605	-4.3974	0.0539
473.16	2160	0.31695	-6.7378	0.0566
473.16	15000	0.10056	-2.0622	0.0554
473.16	15000	0.19698	-4.0312	0.0637
473.16	15000	0.28476	-5.7836	0.0671
473.16	16080	0.0465	-0.9544	0.0521
473.16	16080	0.0997	-2.0405	0.0557
473.16	16080	0.15076	-3.0802	0.0591
473.16	16080	0.20603	-4.1928	0.0628
473.16	16080	0.31693	-6.4201	0.0702
473.16	30190	0.04649	-0.9196	0.054
473.16	30190	0.0997	-1.9611	0.0597
473.16	30190	0.10056	-1.9826	0.0598
473.16	30190	0.15075	-2.9613	0.0652
473.16	30190	0.19698	-3.8649	0.0702
473.16	30190	0.20602	-4.0296	0.071
473.16	30190	0.26164	-5.0697	0.0768
473.16	30190	0.28476	-5.5422	0.0793
473.16	30190	0.31691	-6.1609	0.0827
473.16	30190	0.4561	-8.746	0.2588
473.16	2160	0.0465	-1.0004	0.0501
473.16	2160	0.09971	-2.1393	0.0514
473.16	2160	0.15077	-3.2283	0.0526
473.16	2160	0.20605	-4.3976	0.0539
473.16	2160	0.31695	-6.7383	0.0566
473.16	15000	0.10056	-2.0612	0.0554
473.16	15000	0.19698	-4.029	0.0637
473.16	15000	0.28476	-5.7742	0.0671
473.16	16080	0.0465	-0.9535	0.0521
473.16	16080	0.0997	-2.0412	0.0557
473.16	16080	0.15076	-3.0794	0.0591
473.16	16080	0.20603	-4.1933	0.0628
473.16	16080	0.31693	-6.4194	0.0702
473.16	30190	0.04649	-0.9185	0.054
473.16	30190	0.0997	-1.9615	0.0597
473.16	30190	0.10056	-1.9821	0.0598
473.16	30190	0.15075	-2.9615	0.0652
473.16	30190	0.19698	-3.8672	0.0702
473.16	30190	0.20602	-4.029	0.071
473.16	30190	0.26164	-5.0704	0.0768
473.16	30190	0.28476	-5.5421	0.0793
473.16	30190	0.31691	-6.162	0.0827
473.16	30190	0.4561	-8.7438	0.2588
473.16	2160	0.0465	-1	0.0501
473.16	2160	0.09971	-2.1395	0.0514
473.16	2160	0.15077	-3.2281	0.0526
473.16	2160	0.20605	-4.3975	0.0539
473.16	2160	0.31695	-6.7395	0.0566
473.16	16080	0.0465	-0.9535	0.0521
473.16	16080	0.0997	-2.0419	0.0557
473.16	16080	0.15076	-3.0789	0.0591
473.16	16080	0.20603	-4.1936	0.0628
473.16	16080	0.31693	-6.4189	0.0702
473.16	30190	0.04649	-0.9188	0.054
473.16	30190	0.0997	-1.9617	0.0597
473.16	30190	0.15075	-2.9607	0.0652
473.16	30190	0.20602	-4.0297	0.071
473.16	30190	0.26164	-5.0704	0.0768
473.16	30190	0.31691	-6.1628	0.0827
498.15	3810	0.10055	-2.4399	0.065
498.15	3810	0.19697	-4.709	0.0682
498.15	3810	0.28475	-6.7234	0.071
498.15	3810	0.45609	-10.4967	0.0763
498.15	15010	0.10054	-2.3325	0.069
498.15	15010	0.28472	-6.4079	0.0817
498.15	15010	0.45606	-9.9682	0.0928
498.15	30240	0.10055	-2.2291	0.0739
498.15	30240	0.28474	-6.0847	0.0954
498.15	30240	0.45607	-9.4445	0.1134
498.15	3810	0.10055	-2.4375	0.065
498.15	3810	0.19697	-4.7104	0.0682
498.15	3810	0.28475	-6.7223	0.071
498.15	3810	0.45609	-10.5019	0.0763
498.15	15010	0.10054	-2.3352	0.069
498.15	15010	0.28472	-6.4068	0.0817
498.15	15010	0.45606	-9.9672	0.0928
498.15	30240	0.10055	-2.2291	0.0739
498.15	30240	0.28474	-6.0887	0.0955
498.15	30240	0.45607	-9.4463	0.1134
498.15	30240	0.10055	-2.2277	0.0739
498.15	30240	0.28474	-6.0906	0.0955
498.15	30240	0.45607	-9.4467	0.1134
498.63	16120	0.04649	-1.0761	0.0655
498.63	16120	0.09968	-2.3016	0.0695
498.63	16120	0.20598	-4.719	0.0777
498.63	16120	0.31685	-7.2091	0.0857
498.63	16120	0.04649	-1.0756	0.0655
498.63	16120	0.09968	-2.3007	0.0695
498.63	16120	0.20598	-4.718	0.0777
498.63	16120	0.31685	-7.2097	0.0857
498.63	16120	0.04649	-1.0745	0.0655
498.63	16120	0.09968	-2.302	0.0695
498.63	16120	0.20598	-4.7192	0.0777
498.63	16120	0.31685	-7.2071	0.0857
498.69	30260	0.04649	-1.0286	0.0676
498.69	30260	0.09969	-2.2014	0.0741
498.69	30260	0.206	-4.5105	0.0868
498.69	30260	0.31689	-6.8905	0.1002
498.69	30260	0.04649	-1.0292	0.0677
498.69	30260	0.09969	-2.2001	0.0741
498.69	30260	0.206	-4.5186	0.0869
498.69	30260	0.31689	-6.8817	0.1002
498.69	30260	0.04649	-1.0287	0.0676
498.69	30260	0.09969	-2.2001	0.0741
498.69	30260	0.206	-4.5037	0.0868
498.69	30260	0.31689	-6.877	0.1002
523.15	7080	0.05185	-1.5241	0.083
523.15	7080	0.10185	-2.9909	0.0858
523.15	7080	0.15089	-4.4186	0.0885
523.15	7080	0.20426	-5.9448	0.0913
523.15	7080	0.24677	-7.1568	0.0938
523.15	7080	0.29832	-8.6205	0.0964
523.15	18160	0.05185	-1.4436	0.0853
523.15	18160	0.10184	-2.8291	0.0905
523.15	18160	0.15088	-4.1778	0.0955
523.15	18160	0.20425	-5.6158	0.1009
523.15	18160	0.24677	-6.7691	0.1053
523.15	18160	0.29831	-8.1427	0.1106
523.15	30310	0.05185	-1.3698	0.0876
523.15	30310	0.10184	-2.6863	0.0949
523.15	30310	0.15088	-3.9685	0.102
523.15	30310	0.20424	-5.336	0.1096
523.15	30310	0.24676	-6.425	0.1156
523.15	30310	0.29831	-7.7394	0.1232
523.15	7080	0.05185	-1.5314	0.083
523.15	7080	0.10185	-2.9964	0.0858
523.15	7080	0.15089	-4.4265	0.0885
523.15	7080	0.20426	-5.9567	0.0914
523.15	7080	0.24677	-7.1677	0.0938
523.15	7080	0.29832	-8.6449	0.0965
523.15	18160	0.05185	-1.4453	0.0853
523.15	18160	0.10184	-2.8305	0.0905
523.15	18160	0.15088	-4.1792	0.0955
523.15	18160	0.20425	-5.6185	0.1009
523.15	18160	0.24677	-6.7733	0.1053
523.15	18160	0.29831	-8.1434	0.1106
523.15	30310	0.05185	-1.3696	0.0876
523.15	30310	0.10184	-2.6828	0.0949
523.15	30310	0.15088	-3.9644	0.1019
523.15	30310	0.20424	-5.3341	0.1096
523.15	30310	0.24676	-6.4258	0.1156
523.15	30310	0.29831	-7.7251	0.1231
523.15	7080	0.05185	-1.525	0.083
523.15	7080	0.10185	-3.0091	0.0858
523.15	7080	0.15089	-4.4489	0.0885
523.15	7080	0.20426	-5.994	0.0914
523.15	7080	0.24677	-7.2127	0.0939
523.15	7080	0.29832	-8.7233	0.0966
523.15	18160	0.05185	-1.445	0.0853
523.15	18160	0.10184	-2.8309	0.0905
523.15	18160	0.15088	-4.1797	0.0955
523.15	18160	0.20425	-5.6174	0.1009
523.15	18160	0.24677	-6.7682	0.1053
523.15	18160	0.29831	-8.1429	0.1106
523.15	30310	0.05185	-1.3693	0.0876
523.15	30310	0.10184	-2.6855	0.0949
523.15	30310	0.15088	-3.9639	0.1019
523.15	30310	0.20424	-5.3337	0.1096
523.15	30310	0.24676	-6.4312	0.1156
523.15	30310	0.29831	-7.7372	0.1232
548.17	10410	0.10182	-3.7718	0.115
548.17	10410	0.15085	-5.5936	0.1194
548.17	10410	0.20421	-7.5517	0.1241
548.17	10410	0.24671	-9.1146	0.128
548.17	10410	0.29825	-10.9848	0.1325
548.17	30330	0.10184	-3.2238	0.1236
548.17	30330	0.15087	-4.7829	0.1322
548.17	30330	0.20423	-6.4542	0.1415
548.17	30330	0.24674	-7.7818	0.1489
548.17	30330	0.29829	-9.3992	0.1579
548.17	10410	0.10182	-3.7776	0.115
548.17	10410	0.15085	-5.599	0.1194
548.17	10410	0.20421	-7.5531	0.1241
548.17	10410	0.24671	-9.1196	0.128
548.17	10410	0.29825	-10.9935	0.1326
548.17	30330	0.10184	-3.2296	0.1237
548.17	30330	0.15087	-4.7754	0.1322
548.17	30330	0.20423	-6.4599	0.1415
548.17	30330	0.24674	-7.7847	0.149
548.17	30330	0.29829	-9.3944	0.1578
548.17	10410	0.10182	-3.7709	0.115
548.17	10410	0.15085	-5.5945	0.1194
548.17	10410	0.20421	-7.5596	0.1241
548.17	10410	0.24671	-9.1279	0.128
548.17	10410	0.29825	-10.9997	0.1326
548.17	30330	0.10184	-3.2316	0.1237
548.17	30330	0.15087	-4.7818	0.1322
548.17	30330	0.20423	-6.4431	0.1414
548.17	30330	0.24674	-7.7768	0.1489
548.17	30330	0.29829	-9.3875	0.1578
548.18	19250	0.10183	-3.4943	0.1192
548.18	19250	0.15086	-5.1775	0.1257
548.18	19250	0.20422	-6.9925	0.1327
548.18	19250	0.24673	-8.4303	0.1383
548.18	19250	0.29827	-10.1715	0.1452
548.18	19250	0.10183	-3.4905	0.1192
548.18	19250	0.15086	-5.1732	0.1256
548.18	19250	0.20422	-6.9935	0.1327
548.18	19250	0.24673	-8.4366	0.1384
548.18	19250	0.29827	-10.178	0.1452
548.18	19250	0.10183	-3.4965	0.1192
548.18	19250	0.15086	-5.18	0.1257
548.18	19250	0.20422	-6.9815	0.1327
548.18	19250	0.24673	-8.4183	0.1383
548.18	19250	0.29827	-10.1445	0.1451
573.16	13380	0.10182	-4.4873	0.1535
573.16	13380	0.15084	-6.6514	0.1597
573.16	13380	0.20419	-9.009	0.1667
573.16	13380	0.29822	-13.1431	0.1788
573.16	21250	0.10181	-4.0401	0.1572
573.16	21250	0.15083	-5.9855	0.1652
573.16	21250	0.20418	-8.097	0.174
573.16	21250	0.29819	-11.7908	0.1894
573.16	30760	0.10179	-3.6743	0.161
573.16	30760	0.15081	-5.4319	0.1708
573.16	30760	0.20416	-7.3511	0.1816
573.16	30760	0.29816	-10.6893	0.2002
573.16	13380	0.10182	-4.4885	0.1535
573.16	13380	0.15084	-6.6501	0.1597
573.16	13380	0.20419	-9.0081	0.1667
573.16	13380	0.29822	-13.1454	0.1788
573.16	21250	0.10181	-4.0406	0.1572
573.16	21250	0.15083	-5.9873	0.1652
573.16	21250	0.20418	-8.0946	0.1739
573.16	21250	0.29819	-11.7923	0.1894
573.16	30760	0.10179	-3.6715	0.161
573.16	30760	0.15081	-5.4396	0.1709
573.16	30760	0.20416	-7.3491	0.1815
573.16	30760	0.29816	-10.6929	0.2003
573.16	13380	0.10182	-4.4864	0.1535
573.16	13380	0.15084	-6.6529	0.1597
573.16	13380	0.20419	-9.0079	0.1667
573.16	13380	0.29822	-13.1459	0.1788
573.16	21250	0.10181	-4.0397	0.1572
573.16	21250	0.15083	-5.9837	0.1652
573.16	21250	0.20418	-8.0982	0.174
573.16	21250	0.29819	-11.7947	0.1894
573.16	30760	0.29816	-10.689	0.2002
573.17	25070	0.10178	-3.8742	0.1587
573.17	25070	0.1508	-5.7398	0.1675
573.17	25070	0.20413	-7.7594	0.177
573.17	25070	0.29811	-11.294	0.1936
573.17	25070	0.1508	-5.7398	0.1675
573.17	25070	0.20413	-7.7486	0.1769
573.17	25070	0.29811	-11.2975	0.1936
