Measured thermophysical data. Volumetric, viscosity, and electrical conductivity properties of aqueous solutions of two n-butylammonium-based protic ionic liquids at several temperatures
Source: J. Chem. Thermodyn., 2013, 10.1016/j.jct.2013.05.019
Compound 1: butylammonium acetate, C6H15NO2, InChI=1S/C4H11N.C2H4O2/c1-2-3-4-5;1-2(3)4/h2-5H2,1H3;1H3,(H,3,4), purity 99%
Compound 2: n-butylammonium nitrate, C4H12N2O3, InChI=1S/C4H11N.NO3/c1-2-3-4-5;2-1(3)4/h2-5H2,1H3;/q;-1/p+1, purity 99%
Compound 3: water, H2O, InChI=1S/H2O/h1H2, purity 99.9%

System: butylammonium acetate; phases: Liquid
Fixed: Pressure, kPa = 101
Property: Mass density, kg/m3 (Liquid); method: Vibrating tube method
Temperature, K	Mass density, kg/m3	uncertainty
293.15	959.61	0.23
298.15	956.44	0.23
303.15	953.33	0.23
308.15	950.15	0.23
313.15	946.98	0.23

System: butylammonium acetate; phases: Liquid
Fixed: Pressure, kPa = 101
Property: Viscosity, Pa*s (Liquid); method: Falling or rolling sphere viscometry
Temperature, K	Viscosity, Pa*s	uncertainty
293.15	0.771694	0.07129
298.15	0.546348	0.044194
303.15	0.39717	0.027874
308.15	0.294586	0.017725
313.15	0.222241	0.011301

System: butylammonium acetate; phases: Liquid
Property: Electrical conductivity, S/m (Liquid); method: Alternating current cell with electrodes
Pressure, kPa	Temperature, K	Electrical conductivity, S/m	uncertainty
101	298.15	0.021	0.001

System: n-butylammonium nitrate; phases: Liquid
Fixed: Pressure, kPa = 101
Property: Mass density, kg/m3 (Liquid); method: Vibrating tube method
Temperature, K	Mass density, kg/m3	uncertainty
293.15	1104.68	0.31
298.15	1101.52	0.31
303.15	1098.38	0.31
308.15	1095.26	0.31
313.15	1092.17	0.3

System: n-butylammonium nitrate; phases: Liquid
Fixed: Pressure, kPa = 101
Property: Viscosity, Pa*s (Liquid); method: Falling or rolling sphere viscometry
Temperature, K	Viscosity, Pa*s	uncertainty
293.15	0.111348	0.003598
298.15	0.089954	0.002494
303.15	0.073038	0.001754
308.15	0.060248	0.001309
313.15	0.050116	0.001053

System: n-butylammonium nitrate; phases: Liquid
Property: Electrical conductivity, S/m (Liquid); method: Alternating current cell with electrodes
Pressure, kPa	Temperature, K	Electrical conductivity, S/m	uncertainty
101	298.15	0.867	0.017

System: water; phases: Liquid
Fixed: Pressure, kPa = 101.325
Property: Mass density, kg/m3 (Liquid); method: Vibrating tube method
Temperature, K	Mass density, kg/m3	uncertainty
293.15	998.22	0.1
298.15	997.06	0.1
303.15	995.66	0.11
308.15	994.04	0.11

System: water; phases: Liquid
Fixed: Pressure, kPa = 101.325
Property: Viscosity, Pa*s (Liquid); method: Falling or rolling sphere viscometry
Temperature, K	Viscosity, Pa*s	uncertainty
293.15	0.001002	2.1e-05
298.15	0.00089	1.9e-05
303.15	0.000797	1.7e-05
308.15	0.000718	1.5e-05
313.15	0.000651	1.4e-05

System: butylammonium acetate + water; phases: Liquid
Fixed: Pressure, kPa = 101
Property: Mass density, kg/m3 (Liquid); method: Vibrating tube method
Temperature, K	Mole fraction of butylammonium acetate	Mass density, kg/m3	uncertainty
293.15	0.031	1009.89	0.11
293.15	0.06	1015.91	0.11
293.15	0.0992	1014.35	0.11
293.15	0.2007	1003.86	0.11
293.15	0.2999	993.39	0.12
293.15	0.4013	984.8	0.12
293.15	0.5004	977.72	0.13
293.15	0.5666	974.54	0.14
293.15	0.7973	964.56	0.18
293.15	0.8972	962.15	0.21
293.15	1	959.61	0.23
298.15	0.031	1006.58	0.12
298.15	0.06	1013.18	0.11
298.15	0.0992	1011.15	0.11
298.15	0.2007	1000.82	0.11
298.15	0.2999	990.34	0.12
298.15	0.4013	981.74	0.12
298.15	0.5004	974.67	0.13
298.15	0.5666	971.45	0.14
298.15	0.7973	961.46	0.18
298.15	0.8972	958.98	0.21
298.15	1	956.44	0.23
303.15	0.031	1003.24	0.12
303.15	0.06	1009.87	0.11
303.15	0.0992	1007.91	0.11
303.15	0.2007	997.74	0.11
303.15	0.2999	987.26	0.12
303.15	0.4013	978.64	0.13
303.15	0.5004	971.64	0.14
303.15	0.5666	968.34	0.14
303.15	0.7973	958.36	0.18
303.15	0.8972	955.83	0.21
303.15	1	953.33	0.23
308.15	0.031	999.87	0.12
308.15	0.06	1006.52	0.11
308.15	0.0992	1004.62	0.11
308.15	0.2007	994.62	0.11
308.15	0.2999	984.17	0.12
308.15	0.4013	975.55	0.13
308.15	0.5004	968.58	0.14
308.15	0.5666	965.22	0.14
308.15	0.7973	955.23	0.18
308.15	0.8972	952.69	0.21
308.15	1	950.15	0.23
313.15	0.031	996.47	0.12
313.15	0.06	1003.14	0.11
313.15	0.0992	1001.29	0.11
313.15	0.2007	991.43	0.11
313.15	0.2999	981.07	0.12
313.15	0.4013	972.44	0.13
313.15	0.5004	965.54	0.14
313.15	0.5666	962.11	0.14
313.15	0.7973	952.09	0.18
313.15	0.8972	949.53	0.21
313.15	1	946.98	0.23

System: butylammonium acetate + water; phases: Liquid
Fixed: Pressure, kPa = 101
Property: Viscosity, Pa*s (Liquid); method: Falling or rolling sphere viscometry
Temperature, K	Mole fraction of butylammonium acetate	Viscosity, Pa*s	uncertainty
293.15	0.031	0.002659	5.8e-05
293.15	0.06	0.004018	8.8e-05
293.15	0.0992	0.006792	0.000149
293.15	0.2007	0.01691	0.000379
293.15	0.2999	0.035042	0.000759
293.15	0.4013	0.053346	0.001132
293.15	0.5004	0.101302	0.003052
293.15	0.5666	0.141636	0.005469
293.15	0.7973	0.390265	0.027176
293.15	0.8972	0.579347	0.047933
293.15	1	0.771694	0.07129
298.15	0.031	0.002328	5e-05
298.15	0.06	0.003345	7.3e-05
298.15	0.0992	0.005626	0.000122
298.15	0.2007	0.013828	0.000299
298.15	0.2999	0.028141	0.000612
298.15	0.4013	0.046772	0.001007
298.15	0.5004	0.077416	0.001921
298.15	0.5666	0.102649	0.003135
298.15	0.7973	0.283426	0.01668
298.15	0.8972	0.415175	0.029752
298.15	1	0.546348	0.044194
303.15	0.031	0.002196	4.7e-05
303.15	0.06	0.002864	6.2e-05
303.15	0.0992	0.004714	0.000102
303.15	0.2007	0.011789	0.000254
303.15	0.2999	0.02291	0.000498
303.15	0.4013	0.040905	0.000881
303.15	0.5004	0.060969	0.001318
303.15	0.5666	0.082189	0.002118
303.15	0.7973	0.21113	0.01036
303.15	0.8972	0.304301	0.018635
303.15	1	0.39717	0.027874
308.15	0.031	0.001864	4e-05
308.15	0.06	0.002439	5.3e-05
308.15	0.0992	0.003985	8.6e-05
308.15	0.2007	0.009893	0.000214
308.15	0.2999	0.018779	0.000407
308.15	0.4013	0.035585	0.000766
308.15	0.5004	0.048929	0.001063
308.15	0.5666	0.065475	0.001457
308.15	0.7973	0.160936	0.006693
308.15	0.8972	0.227724	0.011727
308.15	1	0.294586	0.017725
313.15	0.031	0.001665	3.6e-05
313.15	0.06	0.002132	4.6e-05
313.15	0.0992	0.003489	7.5e-05
313.15	0.2007	0.008389	0.000179
313.15	0.2999	0.015669	0.000335
313.15	0.4013	0.030996	0.000671
313.15	0.5004	0.042951	0.000923
313.15	0.5666	0.056119	0.001159
313.15	0.7973	0.133315	0.00487
313.15	0.8972	0.180597	0.008089
313.15	1	0.222241	0.011301

System: butylammonium acetate + water; phases: Liquid
Fixed: Pressure, kPa = 101
Fixed: Temperature, K = 298.15
Property: Electrical conductivity, S/m (Liquid); method: Alternating current cell with electrodes
Mole fraction of butylammonium acetate	Electrical conductivity, S/m	uncertainty
0.0006	0.168	0.039
0.0012	0.316	0.032
0.0018	0.434	0.034
0.0026	0.572	0.036
0.0032	0.67	0.029
0.0046	0.842	0.03
0.0078	1.124	0.026
0.0121	1.339	0.027
0.0181	1.452	0.029
0.0329	1.544	0.031
0.0682	1.578	0.032
0.0999	1.543	0.031
0.2001	1.156	0.023
0.3479	0.513	0.01
0.5427	0.164	0.003
0.8065	0.074	0.002
1	0.021	0.001

System: water + n-butylammonium nitrate; phases: Liquid
Fixed: Pressure, kPa = 101
Property: Mass density, kg/m3 (Liquid); method: Vibrating tube method
Temperature, K	Mole fraction of n-butylammonium nitrate	Mass density, kg/m3	uncertainty
293.15	0.1	1059.97	0.12
293.15	0.2001	1081.27	0.13
293.15	0.3009	1090.62	0.14
293.15	0.4004	1095.83	0.15
293.15	0.5011	1099.15	0.16
293.15	0.6505	1102.02	0.2
293.15	0.7869	1103.62	0.23
293.15	0.9022	1104.42	0.27
293.15	1	1104.68	0.31
298.15	0.1	1056.89	0.12
298.15	0.2001	1078.05	0.13
298.15	0.3009	1087.35	0.14
298.15	0.4004	1092.56	0.15
298.15	0.5011	1095.89	0.16
298.15	0.6505	1098.8	0.19
298.15	0.7869	1100.42	0.23
298.15	0.9022	1101.25	0.27
298.15	1	1101.52	0.31
303.15	0.1	1053.73	0.12
303.15	0.2001	1074.8	0.13
303.15	0.3009	1084.06	0.13
303.15	0.4004	1089.29	0.15
303.15	0.5011	1092.64	0.16
303.15	0.6505	1095.58	0.19
303.15	0.7869	1097.24	0.23
303.15	0.9022	1098.1	0.27
303.15	1	1098.38	0.31
308.15	0.1	1050.52	0.12
308.15	0.2001	1071.53	0.13
308.15	0.3009	1080.78	0.13
308.15	0.4004	1086.02	0.14
308.15	0.5011	1089.4	0.16
308.15	0.6505	1092.38	0.19
308.15	0.7869	1094.08	0.23
308.15	0.9022	1094.97	0.27
308.15	1	1095.26	0.31
313.15	0.1	1047.4	0.12
313.15	0.2001	1068.24	0.13
313.15	0.3009	1077.49	0.13
313.15	0.4004	1082.76	0.14
313.15	0.5011	1086.16	0.16
313.15	0.6505	1089.2	0.19
313.15	0.7869	1090.94	0.22
313.15	0.9022	1091.86	0.26
313.15	1	1092.17	0.3

System: water + n-butylammonium nitrate; phases: Liquid
Fixed: Pressure, kPa = 101
Property: Viscosity, Pa*s (Liquid); method: Falling or rolling sphere viscometry
Temperature, K	Mole fraction of n-butylammonium nitrate	Viscosity, Pa*s	uncertainty
293.15	0.1	0.002468	5.3e-05
293.15	0.2001	0.004454	9.6e-05
293.15	0.3009	0.007217	0.000157
293.15	0.4004	0.01169	0.000253
293.15	0.5011	0.017607	0.000385
293.15	0.6505	0.031211	0.000689
293.15	0.7869	0.051541	0.001083
293.15	0.9022	0.078319	0.001966
293.15	1	0.111348	0.003598
298.15	0.1	0.002221	4.8e-05
298.15	0.2001	0.003908	8.4e-05
298.15	0.3009	0.006297	0.000135
298.15	0.4004	0.010081	0.000217
298.15	0.5011	0.015096	0.000326
298.15	0.6505	0.02625	0.000571
298.15	0.7869	0.042464	0.000932
298.15	0.9022	0.065051	0.001456
298.15	1	0.089954	0.002494
303.15	0.1	0.001963	4.2e-05
303.15	0.2001	0.003459	7.4e-05
303.15	0.3009	0.005545	0.000119
303.15	0.4004	0.008783	0.000189
303.15	0.5011	0.013082	0.000282
303.15	0.6505	0.022352	0.000486
303.15	0.7869	0.035445	0.000776
303.15	0.9022	0.053527	0.001123
303.15	1	0.073038	0.001754
308.15	0.1	0.001754	3.8e-05
308.15	0.2001	0.003088	6.6e-05
308.15	0.3009	0.004924	0.000106
308.15	0.4004	0.007715	0.000166
308.15	0.5011	0.011423	0.000246
308.15	0.6505	0.019253	0.000418
308.15	0.7869	0.029982	0.000655
308.15	0.9022	0.044589	0.000981
308.15	1	0.060248	0.001309
313.15	0.1	0.001579	3.4e-05
313.15	0.2001	0.002774	5.9e-05
313.15	0.3009	0.004401	9.4e-05
313.15	0.4004	0.006823	0.000146
313.15	0.5011	0.010043	0.000216
313.15	0.6505	0.016749	0.000361
313.15	0.7869	0.0258	0.00056
313.15	0.9022	0.037542	0.000824
313.15	1	0.050116	0.001053

System: water + n-butylammonium nitrate; phases: Liquid
Fixed: Pressure, kPa = 101
Fixed: Temperature, K = 298.15
Property: Electrical conductivity, S/m (Liquid); method: Alternating current cell with electrodes
Mole fraction of n-butylammonium nitrate	Electrical conductivity, S/m	uncertainty
0.001	0.583	0.065
0.002	0.997	0.059
0.004	1.546	0.054
0.005	1.733	0.052
0.006	1.891	0.055
0.0081	2.18	0.05
0.02	2.95	0.06
0.03	3.19	0.06
0.05	3.4	0.07
0.0609	3.46	0.07
0.1	3.42	0.07
0.1999	3.31	0.07
0.2997	2.95	0.06
0.3999	2.52	0.05
0.4998	2.08	0.04
0.5986	1.774	0.035
0.6979	1.453	0.029
0.799	1.225	0.025
0.9001	1.007	0.02
1	0.867	0.017
