Measured thermophysical data. Osmotic and activity coefficients for five lithium salts in three non-aqueous solvents
Source: J. Chem. Thermodyn., 2019, 10.1016/j.jct.2018.12.016
Compound 1: lithium chloride, ClLi, InChI=1S/ClH.Li/h1H;/q;+1/p-1
Compound 2: lithium bromide, BrLi, InChI=1S/BrH.Li/h1H;/q;+1/p-1
Compound 3: lithium nitrate, LiNO3, InChI=1S/Li.NO3/c;2-1(3)4/q+1;-1
Compound 4: lithium bis((trifluoromethyl)sulfonyl)amide, C2F6LiNO4S2, InChI=1S/C2F6NO4S2.Li/c3-1(4,5)14(10,11)9-15(12,13)2(6,7)8;/q-1;+1
Compound 5: lithium hexafluorophosphate, F6LiP, InChI=1S/F6P.Li/c1-7(2,3,4,5)6;/q-1;+1
Compound 6: acetonitrile, C2H3N, InChI=1S/C2H3N/c1-2-3/h1H3
Compound 7: dimethyl carbonate, C3H6O3, InChI=1S/C3H6O3/c1-5-3(4)6-2/h1-2H3
Compound 8: dimethyl sulfoxide, C2H6OS, InChI=1S/C2H6OS/c1-4(2)3/h1-2H3
Compound 9: sodium chloride, ClNa, InChI=1S/ClH.Na/h1H;/q;+1/p-1
Compound 10: water, H2O, InChI=1S/H2O/h1H2
Compound 11: mercury, Hg, InChI=1S/Hg, purity 99.5%
Compound 12: dibutyl phthalate, C16H22O4, InChI=1S/C16H22O4/c1-3-5-11-19-15(17)13-9-7-8-10-14(13)16(18)20-12-6-4-2/h7-10H,3-6,11-12H2,1-2H3, purity 99.5%

System: acetonitrile; phases: Liquid
Property: Mass density, kg/m3 (Liquid); method: Pycnometric method
Temperature, K	Pressure, kPa	Mass density, kg/m3	uncertainty
298.15	101.325	776	2

System: acetonitrile; phases: Liquid, Gas
Property: Vapor or sublimation pressure, kPa (Liquid); method: Manometric method
Temperature, K	Vapor or sublimation pressure, kPa	uncertainty
298.15	11.812	0.158

System: dimethyl carbonate; phases: Liquid
Property: Mass density, kg/m3 (Liquid); method: Pycnometric method
Temperature, K	Pressure, kPa	Mass density, kg/m3	uncertainty
298.15	101.325	1063	2

System: dimethyl carbonate; phases: Liquid, Gas
Property: Vapor or sublimation pressure, kPa (Liquid); method: Manometric method
Temperature, K	Vapor or sublimation pressure, kPa	uncertainty
298.15	7.256	0.119

System: dimethyl sulfoxide; phases: Liquid
Property: Mass density, kg/m3 (Liquid); method: Pycnometric method
Temperature, K	Pressure, kPa	Mass density, kg/m3	uncertainty
298.15	101.325	1096	3

System: dimethyl sulfoxide; phases: Liquid, Gas
Property: Vapor or sublimation pressure, kPa (Liquid); method: Manometric method
Temperature, K	Vapor or sublimation pressure, kPa	uncertainty
298.15	0.08	0.078

System: mercury; phases: Liquid
Property: Mass density, kg/m3 (Liquid); method: Pycnometric method
Temperature, K	Pressure, kPa	Mass density, kg/m3	uncertainty
298.15	101.325	13530	30

System: dibutyl phthalate; phases: Liquid
Property: Mass density, kg/m3 (Liquid); method: Pycnometric method
Temperature, K	Pressure, kPa	Mass density, kg/m3	uncertainty
298.15	101.325	1042	2

System: sodium chloride + water; phases: Liquid, Gas
Fixed: Temperature, K = 298.15
Property: Vapor or sublimation pressure, kPa (Liquid); method: Manometric method
Molality, mol/kg of sodium chloride	Vapor or sublimation pressure, kPa	uncertainty
0.1	-0.0106	0.0012
0.2	-0.021	0.0012
0.3	-0.0314	0.0012
0.4	-0.0418	0.0012
0.5	-0.0522	0.0012
0.7	-0.0731	0.0012
1	-0.105	0.0012
1.2	-0.1267	0.0012
1.4	-0.1486	0.0012
1.6	-0.1709	0.0012
1.8	-0.1935	0.0012

System: lithium bromide + acetonitrile; phases: Liquid, Gas
Fixed: Temperature, K = 298.15
Property: Vapor or sublimation pressure, kPa (Liquid); method: Manometric method
Molality, mol/kg of lithium bromide	Vapor or sublimation pressure, kPa	uncertainty
0.014	-0.0092	0.0012
0.035	-0.0204	0.0012
0.056	-0.0316	0.0012
0.082	-0.0449	0.0012
0.117	-0.0623	0.0012
0.155	-0.0817	0.0012
0.209	-0.1072	0.0012
0.252	-0.1266	0.0012
0.311	-0.1531	0.0012
0.406	-0.196	0.0012
0.509	-0.2409	0.0012
0.623	-0.29	0.0012
0.714	-0.3277	0.0012
0.805	-0.3696	0.0012
0.912	-0.4196	0.0012

System: lithium hexafluorophosphate + acetonitrile; phases: Liquid, Gas
Fixed: Temperature, K = 298.15
Property: Vapor or sublimation pressure, kPa (Liquid); method: Manometric method
Molality, mol/kg of lithium hexafluorophosphate	Vapor or sublimation pressure, kPa	uncertainty
0.024	-0.0163	0.0012
0.06	-0.0378	0.0012
0.085	-0.0521	0.0012
0.157	-0.0919	0.0012
0.214	-0.1225	0.0012
0.28	-0.1562	0.0012
0.341	-0.1868	0.0012
0.373	-0.2022	0.0012
0.435	-0.2328	0.0012
0.492	-0.2614	0.0012
0.541	-0.2848	0.0012
0.626	-0.3267	0.0012
0.781	-0.4043	0.0012
0.865	-0.4462	0.0012
0.945	-0.487	0.0012
1.013	-0.5217	0.0012
1.079	-0.5564	0.0012
1.125	-0.5809	0.0012

System: lithium bis((trifluoromethyl)sulfonyl)amide + acetonitrile; phases: Liquid, Gas
Fixed: Temperature, K = 298.15
Property: Vapor or sublimation pressure, kPa (Liquid); method: Manometric method
Molality, mol/kg of lithium bis((trifluoromethyl)sulfonyl)amide	Vapor or sublimation pressure, kPa	uncertainty
0.035	-0.0265	0.0012
0.067	-0.049	0.0012
0.114	-0.0796	0.0012
0.227	-0.148	0.0012
0.338	-0.2124	0.0012
0.427	-0.2614	0.0012
0.489	-0.294	0.0012
0.562	-0.3339	0.0012
0.676	-0.3972	0.0012
0.781	-0.4553	0.0012
0.865	-0.5023	0.0012
1.013	-0.586	0.0012
1.125	-0.6493	0.0012
1.267	-0.73	0.0012

System: lithium hexafluorophosphate + dimethyl carbonate; phases: Liquid, Gas
Fixed: Temperature, K = 298.15
Property: Vapor or sublimation pressure, kPa (Liquid); method: Manometric method
Molality, mol/kg of lithium hexafluorophosphate	Vapor or sublimation pressure, kPa	uncertainty
0.035	-0.0235	0.0012
0.078	-0.0459	0.0012
0.113	-0.0602	0.0012
0.235	-0.1092	0.0012
0.341	-0.1491	0.0012
0.468	-0.196	0.0012
0.59	-0.2399	0.0012
0.703	-0.2838	0.0012
0.814	-0.3277	0.0012
0.96	-0.3869	0.0012
1.1	-0.4594	0.0012
1.235	-0.5391	0.0012
1.563	-0.7402	0.0012
1.799	-0.9291	0.0012
1.902	-1.0108	0.0012
2.015	-1.1129	0.0012
2.148	-1.2333	0.0012
2.378	-1.4232	0.0012

System: lithium bis((trifluoromethyl)sulfonyl)amide + dimethyl carbonate; phases: Liquid, Gas
Fixed: Temperature, K = 298.15
Property: Vapor or sublimation pressure, kPa (Liquid); method: Manometric method
Molality, mol/kg of lithium bis((trifluoromethyl)sulfonyl)amide	Vapor or sublimation pressure, kPa	uncertainty
0.01	-0.0082	0.0012
0.027	-0.0194	0.0012
0.127	-0.0807	0.0012
0.243	-0.1399	0.0012
0.376	-0.2001	0.0012
0.452	-0.2328	0.0012
0.589	-0.2971	0.0012
0.711	-0.3553	0.0012
0.865	-0.4329	0.0012
1.02	-0.5146	0.0012
1.131	-0.5932	0.0012
1.298	-0.719	0.0012
1.546	-0.9097	0.0012
1.862	-1.1884	0.0012
2.175	-1.4855	0.0012
2.32	-1.6254	0.0012
2.583	-1.8765	0.0012

System: lithium bromide + dimethyl sulfoxide; phases: Liquid, Gas
Fixed: Temperature, K = 298.15
Property: Vapor or sublimation pressure, kPa (Liquid); method: Manometric method
Molality, mol/kg of lithium bromide	Vapor or sublimation pressure, kPa	uncertainty
0.102	-0.00102	0.0012
0.202	-0.00204	0.0012
0.301	-0.00306	0.0012
0.398	-0.00408	0.0012
0.502	-0.0051	0.0012
0.602	-0.00613	0.0012
0.704	-0.00715	0.0012
0.789	-0.00817	0.0012
0.955	-0.01021	0.0012
1.038	-0.01123	0.0012
1.183	-0.01327	0.0012
1.371	-0.01634	0.0012
1.481	-0.01838	0.0012

System: lithium chloride + dimethyl sulfoxide; phases: Liquid, Gas
Fixed: Temperature, K = 298.15
Property: Vapor or sublimation pressure, kPa (Liquid); method: Manometric method
Molality, mol/kg of lithium chloride	Vapor or sublimation pressure, kPa	uncertainty
0.107	-0.00102	0.0012
0.211	-0.00204	0.0012
0.314	-0.00306	0.0012
0.422	-0.00408	0.0012
0.518	-0.0051	0.0012
0.624	-0.00613	0.0012
0.822	-0.00817	0.0012
0.99	-0.01021	0.0012
1.049	-0.01123	0.0012
1.204	-0.01327	0.0012

System: lithium nitrate + dimethyl sulfoxide; phases: Liquid, Gas
Fixed: Temperature, K = 298.15
Property: Vapor or sublimation pressure, kPa (Liquid); method: Manometric method
Molality, mol/kg of lithium nitrate	Vapor or sublimation pressure, kPa	uncertainty
0.112	-0.00102	0.0012
0.221	-0.00204	0.0012
0.443	-0.00408	0.0012
0.663	-0.00613	0.0012
0.87	-0.00817	0.0012
1.048	-0.01021	0.0012
1.243	-0.01225	0.0012
1.461	-0.01429	0.0012
1.623	-0.01634	0.0012
