Measured thermophysical data. Isopiestic measurements of thermodynamic properties for the aqueous system LiBr-CaBr2-H2O at 373.15 K
Source: J. Chem. Thermodyn., 2019, 10.1016/j.jct.2018.09.018
Compound 1: lithium bromide, BrLi, InChI=1S/BrH.Li/h1H;/q;+1/p-1, purity 99.8%
Compound 2: calcium bromide, Br2Ca, InChI=1S/2BrH.Ca/h2*1H;/q;;+2/p-2, purity 99.5%
Compound 3: water, H2O, InChI=1S/H2O/h1H2

System: lithium bromide + calcium bromide + water; phases: Liquid, Gas
Fixed: Temperature, K = 373.15
Property: (Relative) activity of water (Liquid); method: ISOPIE
Molality, mol/kg of lithium bromide	Molality, mol/kg of calcium bromide	(Relative) activity of water	uncertainty
14.152	0	0.2275	0.0389
13.1248	0	0.2663	0.0389
11.98	0	0.3156	0.0389
10.7478	0	0.3764	0.0389
10.3846	0	0.3989	0.0389
9.7437	0	0.4353	0.0389
9.1878	0	0.4726	0.0389
8.6054	0	0.5099	0.0389
8.068	0	0.5435	0.0389
7.3364	0	0.594	0.0388
6.8581	0	0.6262	0.0388
6.5855	0	0.6459	0.0388
6.2506	0	0.6684	0.0388
5.9532	0	0.6888	0.0388
5.6959	0	0.7067	0.0388
5.3129	0	0.7326	0.0388
5.0726	0	0.7488	0.0388
4.5641	0	0.7814	0.0388
4.1342	0	0.8062	0.0388
3.6301	0	0.8364	0.0388
3.2233	0	0.8592	0.0387
2.7518	0	0.885	0.0387
2.2514	0	0.9096	0.0387
1.9083	0	0.9258	0.0387
1.5353	0	0.9424	0.0387
1.2613	0	0.9537	0.0387
1.0611	0	0.9623	0.0387
0.8703	0	0.9692	0.0387
0.7434	0	0.9742	0.0387
0.6472	0	0.9775	0.0387
0.5723	0	0.9803	0.0387
0.5143	0	0.9823	0.0387
0.462	0	0.984	0.0387
0.4276	0	0.9855	0.0387
12.3258	1.3753	0.2275	0.0388
11.403	1.2724	0.2663	0.0388
10.4008	1.1605	0.3156	0.0388
9.298	1.0375	0.3764	0.0389
8.9471	0.9983	0.3989	0.0389
8.4189	0.9394	0.4353	0.0389
7.9331	0.8852	0.4726	0.0389
7.4164	0.8275	0.5099	0.0389
6.9623	0.7769	0.5435	0.0388
6.3375	0.7071	0.594	0.0388
5.9269	0.6613	0.6262	0.0388
5.6838	0.6342	0.6459	0.0388
5.3969	0.6022	0.6684	0.0388
5.1197	0.5713	0.6888	0.0389
4.9161	0.5485	0.7067	0.0388
4.5827	0.5113	0.7326	0.0388
4.3736	0.488	0.7488	0.0388
3.9489	0.4406	0.7814	0.0388
3.5887	0.4004	0.8062	0.0388
3.1437	0.3508	0.8364	0.0388
2.8014	0.3126	0.8592	0.0387
2.3951	0.2672	0.885	0.0387
1.9582	0.2185	0.9096	0.0387
1.6664	0.1859	0.9258	0.0387
1.3448	0.1501	0.9424	0.0387
1.1061	0.1234	0.9537	0.0387
0.9326	0.1041	0.9623	0.0387
0.7649	0.0853	0.9692	0.0387
0.6545	0.073	0.9742	0.0387
0.5693	0.0635	0.9775	0.0387
0.5033	0.0562	0.9803	0.0387
0.4521	0.0504	0.9823	0.0387
0.4057	0.0453	0.984	0.0387
0.3767	0.042	0.9855	0.0387
10.0453	2.537	0.2275	0.0388
9.2849	2.345	0.2663	0.0389
8.5011	2.147	0.3156	0.0389
7.5514	1.9072	0.3764	0.0388
7.3169	1.8479	0.3989	0.0391
6.8894	1.74	0.4353	0.0388
6.4887	1.6388	0.4726	0.0389
6.0895	1.538	0.5099	0.0388
5.7035	1.4405	0.5435	0.0389
5.2016	1.3137	0.594	0.0388
4.8766	1.2316	0.6262	0.0388
4.6791	1.1818	0.6459	0.0388
4.4379	1.1208	0.6684	0.0388
4.2248	1.067	0.6888	0.0388
4.0372	1.0196	0.7067	0.0388
3.7793	0.9545	0.7326	0.0388
3.626	0.9158	0.7488	0.0388
3.261	0.8236	0.7814	0.0388
2.9652	0.7489	0.8062	0.0388
2.6176	0.6611	0.8364	0.0387
2.3309	0.5887	0.8592	0.0387
1.9945	0.5037	0.885	0.0387
1.6394	0.4141	0.9096	0.0387
1.3945	0.3522	0.9258	0.0387
1.1303	0.2855	0.9424	0.0387
0.9338	0.2358	0.9537	0.0387
0.7876	0.1989	0.9623	0.0387
0.6466	0.1633	0.9692	0.0387
0.5537	0.1398	0.9742	0.0387
0.4828	0.1219	0.9775	0.0387
0.4273	0.1079	0.9803	0.0387
0.3839	0.097	0.9823	0.0387
0.3448	0.0871	0.984	0.0387
0.3204	0.0809	0.9855	0.0387
8.3381	3.534	0.2275	0.0389
7.6305	3.2341	0.2663	0.0389
7.0066	2.9697	0.3156	0.0389
6.2608	2.6536	0.3764	0.0389
6.0561	2.5668	0.3989	0.0389
5.6569	2.3976	0.4353	0.0389
5.3427	2.2644	0.4726	0.0389
5.024	2.1294	0.5099	0.0389
4.7004	1.9922	0.5435	0.0389
4.2932	1.8196	0.594	0.0389
4.0376	1.7113	0.6262	0.0388
3.8633	1.6374	0.6459	0.0388
3.673	1.5568	0.6684	0.0388
3.5003	1.4836	0.6888	0.0388
3.3593	1.4238	0.7067	0.0388
3.1344	1.3285	0.7326	0.0388
3.0094	1.2755	0.7488	0.0388
2.7102	1.1487	0.7814	0.0388
2.4698	1.0468	0.8062	0.0388
2.1821	0.9249	0.8364	0.0388
1.9468	0.8251	0.8592	0.0387
1.6723	0.7088	0.885	0.0387
1.3802	0.585	0.9096	0.0387
1.1738	0.4975	0.9258	0.0387
0.9539	0.4043	0.9424	0.0387
0.7875	0.3338	0.9537	0.0387
0.6668	0.2826	0.9623	0.0387
0.5485	0.2325	0.9692	0.0387
0.47	0.1992	0.9742	0.0387
0.4105	0.174	0.9775	0.0387
0.3638	0.1542	0.9803	0.0387
0.3273	0.1387	0.9823	0.0387
0.2947	0.1249	0.984	0.0387
0.2733	0.1158	0.9855	0.0387
7.7968	3.9809	0.2275	0.0388
7.1832	3.6676	0.2663	0.0389
6.4717	3.3044	0.3156	0.0389
5.8068	2.9649	0.3764	0.0389
5.6325	2.8759	0.3989	0.0389
5.2594	2.6854	0.4353	0.0389
4.9484	2.5266	0.4726	0.0389
4.6524	2.3755	0.5099	0.0389
4.3604	2.2264	0.5435	0.0389
3.9726	2.0283	0.594	0.0389
3.7418	1.9105	0.6262	0.0389
3.5888	1.8324	0.6459	0.0388
3.4133	1.7428	0.6684	0.0388
3.2519	1.6604	0.6888	0.0388
3.1162	1.5911	0.7067	0.0388
2.9089	1.4853	0.7326	0.0388
2.787	1.423	0.7488	0.0388
2.5199	1.2866	0.7814	0.0388
2.3025	1.1756	0.8062	0.0388
2.0244	1.0336	0.8364	0.0388
1.8068	0.9225	0.8592	0.0387
1.5543	0.7936	0.885	0.0387
1.2857	0.6565	0.9096	0.0387
1.0953	0.5592	0.9258	0.0387
0.8894	0.4541	0.9424	0.0387
0.739	0.3773	0.9537	0.0387
0.6206	0.3169	0.9623	0.0387
0.5143	0.2626	0.9692	0.0387
0.44	0.2246	0.9742	0.0387
0.3861	0.1972	0.9775	0.0387
0.3416	0.1744	0.9803	0.0387
0.3089	0.1577	0.9823	0.0387
0.2786	0.1422	0.984	0.0387
0.2557	0.1305	0.9855	0.0387
6.7772	4.4266	0.2275	0.0389
6.1999	4.0495	0.2663	0.0389
5.6887	3.7156	0.3156	0.0389
5.066	3.3089	0.3764	0.0389
4.902	3.2018	0.3989	0.039
4.6163	3.0152	0.4353	0.0389
4.352	2.8426	0.4726	0.0389
4.0943	2.6742	0.5099	0.0389
3.8379	2.5068	0.5435	0.0389
3.5011	2.2868	0.594	0.0389
3.2968	2.1533	0.6262	0.0389
3.1596	2.0638	0.6459	0.0389
3.0007	1.9599	0.6684	0.0389
2.8647	1.8711	0.6888	0.0388
2.7471	1.7943	0.7067	0.0388
2.5638	1.6746	0.7326	0.0388
2.45	1.6003	0.7488	0.0388
2.2183	1.4489	0.7814	0.0388
2.0252	1.3228	0.8062	0.0388
1.7903	1.1694	0.8364	0.0388
1.5979	1.0437	0.8592	0.0388
1.3769	0.8994	0.885	0.0387
1.1401	0.7447	0.9096	0.0387
0.9723	0.6351	0.9258	0.0387
0.7903	0.5162	0.9424	0.0387
0.6545	0.4275	0.9537	0.0387
0.5545	0.3622	0.9623	0.0387
0.4569	0.2985	0.9692	0.0387
0.3917	0.2559	0.9742	0.0387
0.3428	0.2239	0.9775	0.0387
0.3038	0.1984	0.9803	0.0387
0.2735	0.1787	0.9823	0.0387
0.2467	0.1611	0.984	0.0387
0.2287	0.1494	0.9855	0.0387
5.145	5.2328	0.2275	0.0389
4.745	4.8259	0.2663	0.0389
4.3268	4.4007	0.3156	0.039
3.8744	3.9405	0.3764	0.0391
3.7449	3.8088	0.3989	0.0394
3.5021	3.5619	0.4353	0.039
3.3242	3.381	0.4726	0.0392
3.1181	3.1713	0.5099	0.039
2.936	2.9861	0.5435	0.039
2.6776	2.7233	0.594	0.039
2.5215	2.5645	0.6262	0.0389
2.4188	2.4601	0.6459	0.0389
2.3034	2.3427	0.6684	0.0389
2.1933	2.2307	0.6888	0.0389
2.1094	2.1454	0.7067	0.0389
1.9732	2.0068	0.7326	0.0389
1.8897	1.922	0.7488	0.0388
1.7077	1.7368	0.7814	0.0388
1.5615	1.5882	0.8062	0.0388
1.3854	1.4091	0.8364	0.0388
1.2392	1.2603	0.8592	0.0388
1.0652	1.0833	0.885	0.0387
0.884	0.8991	0.9096	0.0387
0.7581	0.771	0.9258	0.0387
0.6184	0.629	0.9424	0.0387
0.5138	0.5225	0.9537	0.0387
0.4338	0.4412	0.9623	0.0387
0.3606	0.3668	0.9692	0.0387
0.3084	0.3137	0.9742	0.0387
0.2721	0.2767	0.9775	0.0387
0.241	0.2451	0.9803	0.0387
0.2179	0.2216	0.9823	0.0387
0.1974	0.2008	0.984	0.0387
0.1812	0.1843	0.9855	0.0387
3.8948	5.8637	0.2275	0.039
3.601	5.4214	0.2663	0.0389
3.2808	4.9393	0.3156	0.0391
2.942	4.4292	0.3764	0.0389
2.8418	4.2783	0.3989	0.0397
2.6668	4.015	0.4353	0.0391
2.5187	3.792	0.4726	0.0394
2.3584	3.5506	0.5099	0.039
2.2311	3.3589	0.5435	0.0392
2.0345	3.063	0.594	0.039
1.9176	2.8869	0.6262	0.039
1.8405	2.7709	0.6459	0.039
1.7505	2.6354	0.6684	0.0388
1.6716	2.5167	0.6888	0.0389
1.6033	2.4139	0.7067	0.0389
1.5035	2.2636	0.7326	0.0389
1.4448	2.1751	0.7488	0.0389
1.3019	1.96	0.7814	0.0388
1.1959	1.8004	0.8062	0.0388
1.0604	1.5965	0.8364	0.0388
0.9495	1.4294	0.8592	0.0388
0.818	1.2315	0.885	0.0388
0.6804	1.0244	0.9096	0.0387
0.5847	0.8803	0.9258	0.0387
0.4773	0.7186	0.9424	0.0387
0.3977	0.5987	0.9537	0.0387
0.3358	0.5056	0.9623	0.0387
0.28	0.4215	0.9692	0.0387
0.2395	0.3605	0.9742	0.0387
0.2116	0.3186	0.9775	0.0387
0.1875	0.2824	0.9803	0.0387
0.1698	0.2556	0.9823	0.0387
0.154	0.2318	0.984	0.0387
0.1412	0.2126	0.9855	0.0387
2.9333	6.5825	0.2275	0.0391
2.718	6.0993	0.2663	0.039
2.4562	5.5117	0.3156	0.0391
2.1968	4.9297	0.3764	0.0393
2.1241	4.7665	0.3989	0.0393
1.9941	4.4747	0.4353	0.0394
1.8861	4.2323	0.4726	0.0392
1.7649	3.9605	0.5099	0.0393
1.6668	3.7404	0.5435	0.039
1.5238	3.4195	0.594	0.0392
1.4346	3.2192	0.6262	0.039
1.3761	3.088	0.6459	0.0389
1.3106	2.941	0.6684	0.039
1.2521	2.8097	0.6888	0.039
1.202	2.6972	0.7067	0.039
1.1268	2.5285	0.7326	0.039
1.0812	2.4262	0.7488	0.0388
0.9766	2.1914	0.7814	0.0389
0.8956	2.0097	0.8062	0.0388
0.7943	1.7824	0.8364	0.0388
0.7119	1.5976	0.8592	0.0388
0.614	1.3779	0.885	0.0388
0.5124	1.1499	0.9096	0.0387
0.4394	0.9861	0.9258	0.0387
0.3596	0.8069	0.9424	0.0387
0.3004	0.674	0.9537	0.0387
0.2531	0.5679	0.9623	0.0387
0.2116	0.4749	0.9692	0.0387
0.181	0.4062	0.9742	0.0387
0.1602	0.3596	0.9775	0.0387
0.142	0.3187	0.9803	0.0387
0.1286	0.2886	0.9823	0.0387
0.1168	0.262	0.984	0.0387
0.1066	0.2393	0.9855	0.0387
1.8692	7.0143	0.2275	0.0391
1.7268	6.4802	0.2663	0.0391
1.5685	5.886	0.3156	0.0391
1.4033	5.2662	0.3764	0.0391
1.3603	5.1046	0.3989	0.0395
1.2936	4.8543	0.4353	0.0393
1.217	4.5668	0.4726	0.0392
1.1405	4.2799	0.5099	0.0392
1.0785	4.0471	0.5435	0.0392
0.9854	3.698	0.594	0.0391
0.9278	3.4815	0.6262	0.0391
0.8879	3.3318	0.6459	0.039
0.8471	3.1788	0.6684	0.0391
0.8116	3.0456	0.6888	0.039
0.7784	2.921	0.7067	0.039
0.7305	2.7415	0.7326	0.039
0.6998	2.6261	0.7488	0.0389
0.6324	2.373	0.7814	0.0389
0.5814	2.1819	0.8062	0.0388
0.5162	1.9371	0.8364	0.0388
0.4632	1.7384	0.8592	0.0388
0.399	1.4974	0.885	0.0388
0.3346	1.2556	0.9096	0.0388
0.2873	1.0783	0.9258	0.0387
0.2353	0.8831	0.9424	0.0387
0.1969	0.7388	0.9537	0.0387
0.1661	0.6233	0.9623	0.0387
0.1392	0.5224	0.9692	0.0387
0.1191	0.4468	0.9742	0.0387
0.1056	0.3962	0.9775	0.0387
0.0935	0.3508	0.9803	0.0387
0.0849	0.3186	0.9823	0.0387
0.077	0.2891	0.984	0.0387
0.0701	0.2632	0.9855	0.0387
0.9873	7.6467	0.2275	0.0391
0.9076	7.0297	0.2663	0.0391
0.8228	6.3728	0.3156	0.0392
0.7371	5.7085	0.3764	0.0392
0.7133	5.5247	0.3989	0.0394
0.6725	5.2088	0.4353	0.0394
0.634	4.91	0.4726	0.0393
0.5943	4.6027	0.5099	0.0393
0.5621	4.3538	0.5435	0.0393
0.5141	3.9818	0.594	0.0392
0.4841	3.7496	0.6262	0.0391
0.4642	3.5952	0.6459	0.0391
0.4431	3.4316	0.6684	0.0391
0.4233	3.2781	0.6888	0.039
0.4064	3.1478	0.7067	0.039
0.3814	2.9537	0.7326	0.039
0.3644	2.8223	0.7488	0.0389
0.3309	2.5629	0.7814	0.0389
0.304	2.3548	0.8062	0.0389
0.2704	2.0943	0.8364	0.0388
0.2429	1.8816	0.8592	0.0388
0.2099	1.6255	0.885	0.0388
0.1757	1.3607	0.9096	0.0388
0.1513	1.1718	0.9258	0.0387
0.1241	0.9609	0.9424	0.0387
0.1039	0.8048	0.9537	0.0387
0.0877	0.6793	0.9623	0.0387
0.0736	0.5698	0.9692	0.0387
0.0629	0.4872	0.9742	0.0387
0.0559	0.4326	0.9775	0.0387
0.0495	0.383	0.9803	0.0387
0.0449	0.3481	0.9823	0.0387
0.0408	0.3158	0.984	0.0387
0.0371	0.2877	0.9855	0.0387
0	8.1363	0.2275	0.0392
0	7.4885	0.2663	0.0392
0	6.8039	0.3156	0.0393
0	6.1266	0.3764	0.0393
0	5.8951	0.3989	0.0395
0	5.5931	0.4353	0.0395
0	5.2642	0.4726	0.0394
0	4.9614	0.5099	0.0394
0	4.6794	0.5435	0.0393
0	4.2658	0.594	0.0392
0	4.0155	0.6262	0.0392
0	3.8664	0.6459	0.0392
0	3.6907	0.6684	0.0391
0	3.5304	0.6888	0.0391
0	3.3908	0.7067	0.039
0	3.173	0.7326	0.039
0	3.05	0.7488	0.039
0	2.759	0.7814	0.0389
0	2.536	0.8062	0.0389
0	2.2523	0.8364	0.0388
0	2.0357	0.8592	0.0388
0	1.7588	0.885	0.0388
0	1.4761	0.9096	0.0388
0	1.2708	0.9258	0.0387
0	1.0437	0.9424	0.0387
0	0.8745	0.9537	0.0387
0	0.741	0.9623	0.0387
0	0.6204	0.9692	0.0387
0	0.5333	0.9742	0.0387
0	0.4707	0.9775	0.0387
0	0.4179	0.9803	0.0387
0	0.3798	0.9823	0.0387
0	0.3433	0.984	0.0387
0	0.315	0.9855	0.0387

System: lithium bromide + calcium bromide + water; phases: Liquid, Gas
Fixed: Temperature, K = 373.15
Property: Vapor or sublimation pressure, kPa (Liquid); method: Closed cell (Static) method
Molality, mol/kg of lithium bromide	Molality, mol/kg of calcium bromide	Vapor or sublimation pressure, kPa	uncertainty
14.152	0	20.33	1.05
13.1248	0	24.26	1.05
11.98	0	29.27	1.06
10.7478	0	35.28	1.07
10.3846	0	38.35	1.1
9.7437	0	42.37	1.08
9.1878	0	46.26	1.09
8.6054	0	50.71	1.07
8.068	0	53.74	1.06
7.3364	0	59.04	1.07
6.8581	0	62.61	1.06
6.5855	0	64.26	1.05
6.2506	0	66.53	1.06
5.9532	0	68.77	1.06
5.6959	0	70.59	1.05
5.3129	0	73.27	1.05
5.0726	0	75.01	1.05
4.5641	0	78.48	1.05
4.1342	0	81.12	1.04
3.6301	0	84.26	1.04
3.2233	0	86.68	1.04
2.7518	0	89.44	1.04
2.2514	0	91.81	1.04
1.9083	0	93.07	1.04
1.5353	0	94.97	1.05
1.2613	0	96.73	1.05
1.0611	0	97.55	1.05
0.8703	0	98.35	1.05
0.7434	0	99.08	1.05
0.6472	0	98.9	1.05
0.5723	0	99.85	1.05
0.5143	0	100.2	1.05
0.462	0	100.31	1.05
0.4276	0	100.52	1.05
12.3258	1.3753	20.33	1.04
11.403	1.2724	24.26	1.04
10.4008	1.1605	29.27	1.04
9.298	1.0375	35.28	1.08
8.9471	0.9983	38.35	1.12
8.4189	0.9394	42.37	1.08
7.9331	0.8852	46.26	1.06
7.4164	0.8275	50.71	1.07
6.9623	0.7769	53.74	1.04
6.3375	0.7071	59.04	1.07
5.9269	0.6613	62.61	1.05
5.6838	0.6342	64.26	1.03
5.3969	0.6022	66.53	1.05
5.1197	0.5713	68.77	1.07
4.9161	0.5485	70.59	1.05
4.5827	0.5113	73.27	1.05
4.3736	0.488	75.01	1.05
3.9489	0.4406	78.48	1.05
3.5887	0.4004	81.12	1.04
3.1437	0.3508	84.26	1.04
2.8014	0.3126	86.68	1.04
2.3951	0.2672	89.44	1.04
1.9582	0.2185	91.81	1.04
1.6664	0.1859	93.07	1.04
1.3448	0.1501	94.97	1.05
1.1061	0.1234	96.73	1.05
0.9326	0.1041	97.55	1.05
0.7649	0.0853	98.35	1.05
0.6545	0.073	99.08	1.05
0.5693	0.0635	98.9	1.05
0.5033	0.0562	99.85	1.05
0.4521	0.0504	100.2	1.05
0.4057	0.0453	100.31	1.05
0.3767	0.042	100.52	1.05
10.0453	2.537	20.33	1.05
9.2849	2.345	24.26	1.06
8.5011	2.147	29.27	1.06
7.5514	1.9072	35.28	1.05
7.3169	1.8479	38.35	1.2
6.8894	1.74	42.37	1.05
6.4887	1.6388	46.26	1.09
6.0895	1.538	50.71	1.05
5.7035	1.4405	53.74	1.06
5.2016	1.3137	59.04	1.06
4.8766	1.2316	62.61	1.05
4.6791	1.1818	64.26	1.06
4.4379	1.1208	66.53	1.05
4.2248	1.067	68.77	1.05
4.0372	1.0196	70.59	1.05
3.7793	0.9545	73.27	1.05
3.626	0.9158	75.01	1.05
3.261	0.8236	78.48	1.04
2.9652	0.7489	81.12	1.04
2.6176	0.6611	84.26	1.04
2.3309	0.5887	86.68	1.04
1.9945	0.5037	89.44	1.04
1.6394	0.4141	91.81	1.04
1.3945	0.3522	93.07	1.04
1.1303	0.2855	94.97	1.04
0.9338	0.2358	96.73	1.05
0.7876	0.1989	97.55	1.05
0.6466	0.1633	98.35	1.05
0.5537	0.1398	99.08	1.05
0.4828	0.1219	98.9	1.05
0.4273	0.1079	99.85	1.05
0.3839	0.097	100.2	1.05
0.3448	0.0871	100.31	1.05
0.3204	0.0809	100.52	1.05
8.3381	3.534	20.33	1.07
7.6305	3.2341	24.26	1.05
7.0066	2.9697	29.27	1.06
6.2608	2.6536	35.28	1.08
6.0561	2.5668	38.35	1.1
5.6569	2.3976	42.37	1.09
5.3427	2.2644	46.26	1.09
5.024	2.1294	50.71	1.08
4.7004	1.9922	53.74	1.07
4.2932	1.8196	59.04	1.07
4.0376	1.7113	62.61	1.06
3.8633	1.6374	64.26	1.06
3.673	1.5568	66.53	1.06
3.5003	1.4836	68.77	1.06
3.3593	1.4238	70.59	1.06
3.1344	1.3285	73.27	1.05
3.0094	1.2755	75.01	1.05
2.7102	1.1487	78.48	1.05
2.4698	1.0468	81.12	1.04
2.1821	0.9249	84.26	1.04
1.9468	0.8251	86.68	1.04
1.6723	0.7088	89.44	1.04
1.3802	0.585	91.81	1.04
1.1738	0.4975	93.07	1.04
0.9539	0.4043	94.97	1.05
0.7875	0.3338	96.73	1.05
0.6668	0.2826	97.55	1.05
0.5485	0.2325	98.35	1.05
0.47	0.1992	99.08	1.05
0.4105	0.174	98.9	1.05
0.3638	0.1542	99.85	1.05
0.3273	0.1387	100.2	1.05
0.2947	0.1249	100.31	1.05
0.2733	0.1158	100.52	1.05
7.7968	3.9809	20.33	1.03
7.1832	3.6676	24.26	1.06
6.4717	3.3044	29.27	1.07
5.8068	2.9649	35.28	1.08
5.6325	2.8759	38.35	1.08
5.2594	2.6854	42.37	1.09
4.9484	2.5266	46.26	1.1
4.6524	2.3755	50.71	1.09
4.3604	2.2264	53.74	1.08
3.9726	2.0283	59.04	1.08
3.7418	1.9105	62.61	1.07
3.5888	1.8324	64.26	1.07
3.4133	1.7428	66.53	1.06
3.2519	1.6604	68.77	1.06
3.1162	1.5911	70.59	1.06
2.9089	1.4853	73.27	1.06
2.787	1.423	75.01	1.05
2.5199	1.2866	78.48	1.05
2.3025	1.1756	81.12	1.05
2.0244	1.0336	84.26	1.05
1.8068	0.9225	86.68	1.05
1.5543	0.7936	89.44	1.04
1.2857	0.6565	91.81	1.04
1.0953	0.5592	93.07	1.04
0.8894	0.4541	94.97	1.05
0.739	0.3773	96.73	1.05
0.6206	0.3169	97.55	1.05
0.5143	0.2626	98.35	1.05
0.44	0.2246	99.08	1.05
0.3861	0.1972	98.9	1.05
0.3416	0.1744	99.85	1.05
0.3089	0.1577	100.2	1.05
0.2786	0.1422	100.31	1.05
0.2557	0.1305	100.52	1.05
6.7772	4.4266	20.33	1.08
6.1999	4.0495	24.26	1.07
5.6887	3.7156	29.27	1.07
5.066	3.3089	35.28	1.09
4.902	3.2018	38.35	1.1
4.6163	3.0152	42.37	1.11
4.352	2.8426	46.26	1.1
4.0943	2.6742	50.71	1.1
3.8379	2.5068	53.74	1.09
3.5011	2.2868	59.04	1.09
3.2968	2.1533	62.61	1.08
3.1596	2.0638	64.26	1.08
3.0007	1.9599	66.53	1.07
2.8647	1.8711	68.77	1.07
2.7471	1.7943	70.59	1.07
2.5638	1.6746	73.27	1.06
2.45	1.6003	75.01	1.06
2.2183	1.4489	78.48	1.06
2.0252	1.3228	81.12	1.05
1.7903	1.1694	84.26	1.05
1.5979	1.0437	86.68	1.05
1.3769	0.8994	89.44	1.04
1.1401	0.7447	91.81	1.04
0.9723	0.6351	93.07	1.04
0.7903	0.5162	94.97	1.05
0.6545	0.4275	96.73	1.05
0.5545	0.3622	97.55	1.05
0.4569	0.2985	98.35	1.05
0.3917	0.2559	99.08	1.05
0.3428	0.2239	98.9	1.05
0.3038	0.1984	99.85	1.05
0.2735	0.1787	100.2	1.05
0.2467	0.1611	100.31	1.05
0.2287	0.1494	100.52	1.05
5.145	5.2328	20.33	1.08
4.745	4.8259	24.26	1.07
4.3268	4.4007	29.27	1.14
3.8744	3.9405	35.28	1.29
3.7449	3.8088	38.35	1.38
3.5021	3.5619	42.37	1.12
3.3242	3.381	46.26	1.17
3.1181	3.1713	50.71	1.13
2.936	2.9861	53.74	1.12
2.6776	2.7233	59.04	1.13
2.5215	2.5645	62.61	1.1
2.4188	2.4601	64.26	1.06
2.3034	2.3427	66.53	1.09
2.1933	2.2307	68.77	1.08
2.1094	2.1454	70.59	1.08
1.9732	2.0068	73.27	1.08
1.8897	1.922	75.01	1.07
1.7077	1.7368	78.48	1.06
1.5615	1.5882	81.12	1.06
1.3854	1.4091	84.26	1.05
1.2392	1.2603	86.68	1.05
1.0652	1.0833	89.44	1.05
0.884	0.8991	91.81	1.04
0.7581	0.771	93.07	1.04
0.6184	0.629	94.97	1.05
0.5138	0.5225	96.73	1.05
0.4338	0.4412	97.55	1.05
0.3606	0.3668	98.35	1.05
0.3084	0.3137	99.08	1.05
0.2721	0.2767	98.9	1.05
0.241	0.2451	99.85	1.05
0.2179	0.2216	100.2	1.05
0.1974	0.2008	100.31	1.05
0.1812	0.1843	100.52	1.05
3.8948	5.8637	20.33	1.09
3.601	5.4214	24.26	1.07
3.2808	4.9393	29.27	1.13
2.942	4.4292	35.28	1.08
2.8418	4.2783	38.35	1.55
2.6668	4.015	42.37	1.14
2.5187	3.792	46.26	1.24
2.3584	3.5506	50.71	1.1
2.2311	3.3589	53.74	1.14
2.0345	3.063	59.04	1.14
1.9176	2.8869	62.61	1.07
1.8405	2.7709	64.26	1.1
1.7505	2.6354	66.53	1.07
1.6716	2.5167	68.77	1.07
1.6033	2.4139	70.59	1.09
1.5035	2.2636	73.27	1.11
1.4448	2.1751	75.01	1.11
1.3019	1.96	78.48	1.06
1.1959	1.8004	81.12	1.06
1.0604	1.5965	84.26	1.05
0.9495	1.4294	86.68	1.05
0.818	1.2315	89.44	1.05
0.6804	1.0244	91.81	1.05
0.5847	0.8803	93.07	1.05
0.4773	0.7186	94.97	1.05
0.3977	0.5987	96.73	1.05
0.3358	0.5056	97.55	1.05
0.28	0.4215	98.35	1.05
0.2395	0.3605	99.08	1.05
0.2116	0.3186	98.9	1.05
0.1875	0.2824	99.85	1.05
0.1698	0.2556	100.2	1.05
0.154	0.2318	100.31	1.05
0.1412	0.2126	100.52	1.05
2.9333	6.5825	20.33	1.14
2.718	6.0993	24.26	1.12
2.4562	5.5117	29.27	1.13
2.1968	4.9297	35.28	1.33
2.1241	4.7665	38.35	1.36
1.9941	4.4747	42.37	1.28
1.8861	4.2323	46.26	1.18
1.7649	3.9605	50.71	1.22
1.6668	3.7404	53.74	1.1
1.5238	3.4195	59.04	1.2
1.4346	3.2192	62.61	1.09
1.3761	3.088	64.26	1.06
1.3106	2.941	66.53	1.14
1.2521	2.8097	68.77	1.14
1.202	2.6972	70.59	1.11
1.1268	2.5285	73.27	1.15
1.0812	2.4262	75.01	1.06
0.9766	2.1914	78.48	1.08
0.8956	2.0097	81.12	1.06
0.7943	1.7824	84.26	1.06
0.7119	1.5976	86.68	1.05
0.614	1.3779	89.44	1.05
0.5124	1.1499	91.81	1.04
0.4394	0.9861	93.07	1.05
0.3596	0.8069	94.97	1.05
0.3004	0.674	96.73	1.05
0.2531	0.5679	97.55	1.05
0.2116	0.4749	98.35	1.05
0.181	0.4062	99.08	1.05
0.1602	0.3596	98.9	1.05
0.142	0.3187	99.85	1.05
0.1286	0.2886	100.2	1.05
0.1168	0.262	100.31	1.05
0.1066	0.2393	100.52	1.05
1.8692	7.0143	20.33	1.13
1.7268	6.4802	24.26	1.14
1.5685	5.886	29.27	1.14
1.4033	5.2662	35.28	1.16
1.3603	5.1046	38.35	1.36
1.2936	4.8543	42.37	1.25
1.217	4.5668	46.26	1.22
1.1405	4.2799	50.71	1.2
1.0785	4.0471	53.74	1.18
0.9854	3.698	59.04	1.18
0.9278	3.4815	62.61	1.15
0.8879	3.3318	64.26	1.11
0.8471	3.1788	66.53	1.16
0.8116	3.0456	68.77	1.14
0.7784	2.921	70.59	1.12
0.7305	2.7415	73.27	1.12
0.6998	2.6261	75.01	1.1
0.6324	2.373	78.48	1.08
0.5814	2.1819	81.12	1.08
0.5162	1.9371	84.26	1.07
0.4632	1.7384	86.68	1.06
0.399	1.4974	89.44	1.05
0.3346	1.2556	91.81	1.05
0.2873	1.0783	93.07	1.05
0.2353	0.8831	94.97	1.05
0.1969	0.7388	96.73	1.05
0.1661	0.6233	97.55	1.05
0.1392	0.5224	98.35	1.05
0.1191	0.4468	99.08	1.05
0.1056	0.3962	98.9	1.05
0.0935	0.3508	99.85	1.05
0.0849	0.3186	100.2	1.05
0.077	0.2891	100.31	1.05
0.0701	0.2632	100.52	1.05
0.9873	7.6467	20.33	1.14
0.9076	7.0297	24.26	1.14
0.8228	6.3728	29.27	1.17
0.7371	5.7085	35.28	1.19
0.7133	5.5247	38.35	1.31
0.6725	5.2088	42.37	1.26
0.634	4.91	46.26	1.26
0.5943	4.6027	50.71	1.23
0.5621	4.3538	53.74	1.21
0.5141	3.9818	59.04	1.21
0.4841	3.7496	62.61	1.17
0.4642	3.5952	64.26	1.13
0.4431	3.4316	66.53	1.16
0.4233	3.2781	68.77	1.15
0.4064	3.1478	70.59	1.14
0.3814	2.9537	73.27	1.12
0.3644	2.8223	75.01	1.11
0.3309	2.5629	78.48	1.1
0.304	2.3548	81.12	1.08
0.2704	2.0943	84.26	1.07
0.2429	1.8816	86.68	1.06
0.2099	1.6255	89.44	1.05
0.1757	1.3607	91.81	1.05
0.1513	1.1718	93.07	1.05
0.1241	0.9609	94.97	1.05
0.1039	0.8048	96.73	1.05
0.0877	0.6793	97.55	1.05
0.0736	0.5698	98.35	1.05
0.0629	0.4872	99.08	1.05
0.0559	0.4326	98.9	1.05
0.0495	0.383	99.85	1.05
0.0449	0.3481	100.2	1.05
0.0408	0.3158	100.31	1.05
0.0371	0.2877	100.52	1.05
0	8.1363	20.33	1.16
0	7.4885	24.26	1.17
0	6.8039	29.27	1.2
0	6.1266	35.28	1.24
0	5.8951	38.35	1.38
0	5.5931	42.37	1.31
0	5.2642	46.26	1.31
0	4.9614	50.71	1.27
0	4.6794	53.74	1.22
0	4.2658	59.04	1.23
0	4.0155	62.61	1.2
0	3.8664	64.26	1.17
0	3.6907	66.53	1.18
0	3.5304	68.77	1.17
0	3.3908	70.59	1.15
0	3.173	73.27	1.14
0	3.05	75.01	1.13
0	2.759	78.48	1.1
0	2.536	81.12	1.09
0	2.2523	84.26	1.08
0	2.0357	86.68	1.07
0	1.7588	89.44	1.06
0	1.4761	91.81	1.05
0	1.2708	93.07	1.05
0	1.0437	94.97	1.05
0	0.8745	96.73	1.05
0	0.741	97.55	1.05
0	0.6204	98.35	1.05
0	0.5333	99.08	1.05
0	0.4707	98.9	1.05
0	0.4179	99.85	1.05
0	0.3798	100.2	1.05
0	0.3433	100.31	1.05
0	0.315	100.52	1.05

System: lithium bromide + water; phases: Liquid, Gas
Fixed: Temperature, K = 373.15
Property: (Relative) activity of water (Liquid); method: ISOPIE
Molality, mol/kg of lithium bromide	(Relative) activity of water	uncertainty
14.152	0.2275	0.0389
13.1248	0.2663	0.0389
11.98	0.3156	0.0389
10.7478	0.3764	0.0389
10.3846	0.3989	0.0389
9.7437	0.4353	0.0389
9.1878	0.4726	0.0389
8.6054	0.5099	0.0389
8.068	0.5435	0.0389
7.3364	0.594	0.0388
6.8581	0.6262	0.0388
6.5855	0.6459	0.0388
6.2506	0.6684	0.0388
5.9532	0.6888	0.0388
5.6959	0.7067	0.0388
5.3129	0.7326	0.0388
5.0726	0.7488	0.0388
4.5641	0.7814	0.0388
4.1342	0.8062	0.0388
3.6301	0.8364	0.0388
3.2233	0.8592	0.0387
2.7518	0.885	0.0387
2.2514	0.9096	0.0387
1.9083	0.9258	0.0387
1.5353	0.9424	0.0387
1.2613	0.9537	0.0387
1.0611	0.9623	0.0387
0.8703	0.9692	0.0387
0.7434	0.9742	0.0387
0.6472	0.9775	0.0387
0.5723	0.9803	0.0387
0.5143	0.9823	0.0387
0.462	0.984	0.0387
0.4276	0.9855	0.0387

System: lithium bromide + water; phases: Liquid, Gas
Fixed: Temperature, K = 373.15
Property: Vapor or sublimation pressure, kPa (Liquid); method: Closed cell (Static) method
Molality, mol/kg of lithium bromide	Vapor or sublimation pressure, kPa	uncertainty
14.152	20.33	1.05
13.1248	24.26	1.05
11.98	29.27	1.06
10.7478	35.28	1.07
10.3846	38.35	1.1
9.7437	42.37	1.08
9.1878	46.26	1.09
8.6054	50.71	1.07
8.068	53.74	1.06
7.3364	59.04	1.07
6.8581	62.61	1.06
6.5855	64.26	1.05
6.2506	66.53	1.06
5.9532	68.77	1.06
5.6959	70.59	1.05
5.3129	73.27	1.05
5.0726	75.01	1.05
4.5641	78.48	1.05
4.1342	81.12	1.04
3.6301	84.26	1.04
3.2233	86.68	1.04
2.7518	89.44	1.04
2.2514	91.81	1.04
1.9083	93.07	1.04
1.5353	94.97	1.05
1.2613	96.73	1.05
1.0611	97.55	1.05
0.8703	98.35	1.05
0.7434	99.08	1.05
0.6472	98.9	1.05
0.5723	99.85	1.05
0.5143	100.2	1.05
0.462	100.31	1.05
0.4276	100.52	1.05

System: calcium bromide + water; phases: Liquid, Gas
Fixed: Temperature, K = 373.15
Property: (Relative) activity of water (Liquid); method: ISOPIE
Molality, mol/kg of calcium bromide	(Relative) activity of water	uncertainty
8.1363	0.2275	0.0392
7.4885	0.2663	0.0392
6.8039	0.3156	0.0393
6.1266	0.3764	0.0393
5.8951	0.3989	0.0395
5.5931	0.4353	0.0395
5.2642	0.4726	0.0394
4.9614	0.5099	0.0394
4.6794	0.5435	0.0393
4.2658	0.594	0.0392
4.0155	0.6262	0.0392
3.8664	0.6459	0.0392
3.6907	0.6684	0.0391
3.5304	0.6888	0.0391
3.3908	0.7067	0.039
3.173	0.7326	0.039
3.05	0.7488	0.039
2.759	0.7814	0.0389
2.536	0.8062	0.0389
2.2523	0.8364	0.0388
2.0357	0.8592	0.0388
1.7588	0.885	0.0388
1.4761	0.9096	0.0388
1.2708	0.9258	0.0387
1.0437	0.9424	0.0387
0.8745	0.9537	0.0387
0.741	0.9623	0.0387
0.6204	0.9692	0.0387
0.5333	0.9742	0.0387
0.4707	0.9775	0.0387
0.4179	0.9803	0.0387
0.3798	0.9823	0.0387
0.3433	0.984	0.0387
0.315	0.9855	0.0387

System: calcium bromide + water; phases: Liquid, Gas
Fixed: Temperature, K = 373.15
Property: Vapor or sublimation pressure, kPa (Liquid); method: Closed cell (Static) method
Molality, mol/kg of calcium bromide	Vapor or sublimation pressure, kPa	uncertainty
8.1363	20.33	1.16
7.4885	24.26	1.17
6.8039	29.27	1.2
6.1266	35.28	1.24
5.8951	38.35	1.38
5.5931	42.37	1.31
5.2642	46.26	1.31
4.9614	50.71	1.27
4.6794	53.74	1.22
4.2658	59.04	1.23
4.0155	62.61	1.2
3.8664	64.26	1.17
3.6907	66.53	1.18
3.5304	68.77	1.17
3.3908	70.59	1.15
3.173	73.27	1.14
3.05	75.01	1.13
2.759	78.48	1.1
2.536	81.12	1.09
2.2523	84.26	1.08
2.0357	86.68	1.07
1.7588	89.44	1.06
1.4761	91.81	1.05
1.2708	93.07	1.05
1.0437	94.97	1.05
0.8745	96.73	1.05
0.741	97.55	1.05
0.6204	98.35	1.05
0.5333	99.08	1.05
0.4707	98.9	1.05
0.4179	99.85	1.05
0.3798	100.2	1.05
0.3433	100.31	1.05
0.315	100.52	1.05
