Measured thermophysical data. Mixing thermodynamic properties of 1-butyl-4-methylpyridinium tetrafluoroborate [b4mpy][BF4] with water and with an alkan-1ol (methanol to pentanol)
Source: J. Chem. Thermodyn., 2008, 10.1016/j.jct.2008.02.019
Compound 1: 1-butyl-4-methylpyridinium tetrafluoroborate, C10H16BF4N, InChI=1S/C10H16N.BF4/c1-3-4-7-11-8-5-10(2)6-9-11;2-1(3,4)5/h5-6,8-9H,3-4,7H2,1-2H3;/q+1;-1, purity 99%
Compound 2: ethanol, C2H6O, InChI=1S/C2H6O/c1-2-3/h3H,2H2,1H3
Compound 3: propan-1-ol, C3H8O, InChI=1S/C3H8O/c1-2-3-4/h4H,2-3H2,1H3
Compound 4: butan-1-ol, C4H10O, InChI=1S/C4H10O/c1-2-3-4-5/h5H,2-4H2,1H3
Compound 5: pentan-1-ol, C5H12O, InChI=1S/C5H12O/c1-2-3-4-5-6/h6H,2-5H2,1H3
Compound 6: water, H2O, InChI=1S/H2O/h1H2
Compound 7: methanol, CH4O, InChI=1S/CH4O/c1-2/h2H,1H3

System: 1-butyl-4-methylpyridinium tetrafluoroborate; phases: Liquid
Fixed: Pressure, kPa = 101.325
Property: Refractive index (Na D-line) (Liquid); method: Standard Abbe refractometry
Temperature, K	Refractive index (Na D-line)	uncertainty
298.15	1.4517	0.0005
318.15	1.447	0.0005

System: 1-butyl-4-methylpyridinium tetrafluoroborate; phases: Liquid
Fixed: Pressure, kPa = 101.325
Property: Mass density, kg/m3 (Liquid); method: VIBTUB:UFactor:16
Temperature, K	Mass density, kg/m3	uncertainty
298.15	1183.49	2.51
318.15	1169.12	2.38

System: pentan-1-ol; phases: Liquid
Fixed: Pressure, kPa = 101.325
Property: Refractive index (Na D-line) (Liquid); method: Standard Abbe refractometry
Temperature, K	Refractive index (Na D-line)	uncertainty
298.15	1.4078	0.0011
318.15	1.4003	0.0011

System: pentan-1-ol; phases: Liquid
Property: Mass density, kg/m3 (Liquid); method: Vibrating tube method
Temperature, K	Pressure, kPa	Mass density, kg/m3	uncertainty
318.15	101.325	796.1	4.53

System: ethanol + 1-butyl-4-methylpyridinium tetrafluoroborate; phases: Liquid mixture 1, Liquid mixture 2
Fixed: Pressure, kPa = 101
Property: Liquid-liquid equilibrium temperature, K (Liquid mixture 1); method: VISOBS
Mole fraction of 1-butyl-4-methylpyridinium tetrafluoroborate	Liquid-liquid equilibrium temperature, K	uncertainty
0.06	275.69	0.19
0.066	276	0.18
0.072	276.2	0.16
0.091	276.39	0.16
0.103	276.37	0.16
0.124	276.29	0.16
0.133	276.18	0.16

System: ethanol + 1-butyl-4-methylpyridinium tetrafluoroborate; phases: Liquid
Fixed: Pressure, kPa = 101
Property: Excess molar enthalpy (molar enthalpy of mixing), kJ/mol (Liquid); method: Flow calorimetry
Temperature, K	Mole fraction of 1-butyl-4-methylpyridinium tetrafluoroborate	Excess molar enthalpy (molar enthalpy of mixing), kJ/mol	uncertainty
298.15	0.0209	0.299	0.008
298.15	0.0461	0.623	0.014
298.15	0.0751	0.936	0.02
298.15	0.1068	1.192	0.026
298.15	0.1406	1.498	0.032
298.15	0.1751	1.755	0.038
298.15	0.2104	2.014	0.043
298.15	0.246	2.205	0.047
298.15	0.2661	2.318	0.049
298.15	0.3	2.389	0.051
298.15	0.3402	2.426	0.052
298.15	0.3855	2.386	0.051
298.15	0.4296	2.28	0.049
298.15	0.4879	2.115	0.045
298.15	0.5522	1.903	0.041
298.15	0.6225	1.629	0.035
298.15	0.712	1.329	0.029
298.15	0.8071	0.931	0.02
298.15	0.903	0.504	0.011
318.15	0.0162	0.379	0.011
318.16	0.0465	0.883	0.02
318.17	0.075	1.316	0.029
318.18	0.108	1.705	0.037
318.19	0.1427	2.07	0.044
318.2	0.178	2.37	0.051
318.21	0.2091	2.605	0.056
318.22	0.2364	2.755	0.059
318.23	0.2498	2.856	0.061
318.24	0.2824	2.964	0.063
318.25	0.3237	3.004	0.064
318.26	0.3722	2.998	0.064
318.27	0.4286	2.918	0.062
318.28	0.4859	2.777	0.059
318.29	0.5506	2.587	0.055
318.3	0.6196	2.333	0.05
318.31	0.6923	2.022	0.043
318.32	0.7625	1.689	0.036
318.33	0.8348	1.318	0.028
318.34	0.9014	0.892	0.019
318.35	0.9592	0.425	0.01

System: ethanol + 1-butyl-4-methylpyridinium tetrafluoroborate; phases: Liquid
Fixed: Pressure, kPa = 101
Property: Mass density, kg/m3 (Liquid); method: VIBTUB:UFactor:12
Temperature, K	Mole fraction of 1-butyl-4-methylpyridinium tetrafluoroborate	Mass density, kg/m3	uncertainty
298.15	0.0523	852	2.1
298.15	0.1023	901.7	1.9
298.15	0.1469	938.3	1.7
298.15	0.2023	976	1.4
298.15	0.307	1030.5	1.5
298.15	0.3801	1059.5	1.6
298.15	0.4445	1080.8	1.7
298.15	0.5069	1098.6	1.8
298.15	0.5553	1110.8	1.8
298.15	0.6045	1121.8	1.9
298.15	0.6639	1134.2	1.9
298.15	0.7127	1142.8	1.9
298.15	0.7447	1148.4	1.9
298.15	0.7964	1156.8	1.9
298.15	0.8673	1167	1.9
298.15	0.9171	1173.6	1.9
318.15	0.0464	827.9	2.2
318.15	0.0965	881.1	2
318.15	0.1445	921.6	1.7
318.15	0.2494	987.9	1.4
318.15	0.2968	1011	1.3
318.15	0.3855	1046.8	1.5
318.15	0.4947	1080.9	1.7
318.15	0.5877	1103.6	1.7
318.15	0.6821	1123.2	1.8
318.15	0.7798	1139.8	1.8
318.15	0.8267	1146.8	1.8
318.15	0.8776	1153.8	1.8

System: propan-1-ol + 1-butyl-4-methylpyridinium tetrafluoroborate; phases: Liquid mixture 1, Liquid mixture 2
Fixed: Pressure, kPa = 101
Property: Liquid-liquid equilibrium temperature, K (Liquid mixture 1); method: VISOBS:UFactor:2
Mole fraction of 1-butyl-4-methylpyridinium tetrafluoroborate	Liquid-liquid equilibrium temperature, K	uncertainty
0.012	291.67	0.94
0.024	296.97	0.73
0.035	299.19	0.42
0.054	301.42	0.34
0.077	302.3	0.31
0.1	302.57	0.31
0.123	302.75	0.31
0.15	302.67	0.31
0.177	302.18	0.31
0.208	301.64	0.31
0.238	300.87	0.32
0.264	299.95	0.32
0.291	298.79	0.32
0.312	297.68	0.33
0.332	296.34	0.34
0.351	295.05	0.34
0.376	293.29	0.34
0.402	291.22	0.35
0.431	288.75	0.36
0.451	286.81	0.37
0.482	283.54	0.37
0.508	281.13	0.37
0.542	277.33	0.38

System: propan-1-ol + 1-butyl-4-methylpyridinium tetrafluoroborate; phases: Liquid
Fixed: Pressure, kPa = 101
Property: Excess molar enthalpy (molar enthalpy of mixing), kJ/mol (Liquid); method: Flow calorimetry
Temperature, K	Mole fraction of 1-butyl-4-methylpyridinium tetrafluoroborate	Excess molar enthalpy (molar enthalpy of mixing), kJ/mol	uncertainty
298.15	0.012	0.132	0.004
298.15	0.0243	0.216	0.006
298.15	0.0308	0.301	0.008
298.15	0.3198	2.492	0.053
298.15	0.3532	2.462	0.052
298.15	0.3908	2.421	0.052
298.15	0.4344	2.342	0.05
298.15	0.4819	2.261	0.048
298.15	0.5374	2.111	0.045
298.15	0.6008	1.912	0.041
298.15	0.6734	1.65	0.035
298.15	0.752	1.317	0.028
298.15	0.8319	0.99	0.021
298.15	0.9181	0.579	0.013
318.15	0.0189	0.388	0.011
318.16	0.054	0.96	0.021
318.17	0.093	1.467	0.032
318.18	0.1341	1.899	0.041
318.19	0.1775	2.273	0.049
318.2	0.2167	2.546	0.054
318.21	0.2312	2.681	0.057
318.22	0.2581	2.803	0.06
318.23	0.2912	2.895	0.062
318.24	0.331	2.963	0.063
318.25	0.3847	2.945	0.063
318.26	0.4488	2.886	0.061
318.27	0.5249	2.72	0.058
318.28	0.6069	2.449	0.052
318.29	0.6964	2.076	0.044
318.3	0.7815	1.693	0.036
318.31	0.846	1.292	0.028
318.32	0.9043	0.825	0.018
318.33	0.9568	0.436	0.01

System: propan-1-ol + 1-butyl-4-methylpyridinium tetrafluoroborate; phases: Liquid
Fixed: Pressure, kPa = 101
Property: Mass density, kg/m3 (Liquid); method: VIBTUB:UFactor:12
Temperature, K	Mole fraction of 1-butyl-4-methylpyridinium tetrafluoroborate	Mass density, kg/m3	uncertainty
298.15	0.0154	815.6	2.3
298.15	0.0271	827.2	2.3
298.15	0.2988	1006.8	1.3
298.15	0.3987	1047.4	1.5
298.15	0.4965	1079.8	1.6
298.15	0.5972	1107.8	1.8
298.15	0.6889	1129.1	1.8
298.15	0.696	1130.6	1.8
298.15	0.7812	1147.9	1.9
298.15	0.8841	1165.9	1.9
318.15	0.0549	837.6	2.2
318.15	0.1008	875.1	2
318.15	0.1969	939.6	1.6
318.15	0.3103	997.6	1.2
318.15	0.3828	1027.5	1.4
318.15	0.4381	1047.4	1.5
318.15	0.4534	1052.4	1.5
318.15	0.4901	1064	1.5
318.15	0.6039	1095.2	1.7
318.15	0.6726	1111.2	1.7
318.15	0.8248	1141.4	1.8
318.15	0.8967	1156.9	1.8
318.15	0.9191	1153.3	1.8

System: butan-1-ol + 1-butyl-4-methylpyridinium tetrafluoroborate; phases: Liquid mixture 1, Liquid mixture 2
Fixed: Pressure, kPa = 101
Property: Liquid-liquid equilibrium temperature, K (Liquid mixture 1); method: VISOBS:UFactor:2
Mole fraction of 1-butyl-4-methylpyridinium tetrafluoroborate	Liquid-liquid equilibrium temperature, K	uncertainty
0.007	293.17	5.21
0.01	300.97	2.21
0.018	306.37	1.47
0.022	309.68	1.04
0.028	311.48	0.49
0.048	314.75	0.4
0.067	316.5	0.33
0.096	317.42	0.31
0.118	317.6	0.31
0.145	317.67	0.31
0.179	317.63	0.31
0.214	317.38	0.31
0.242	316.79	0.31
0.275	316.09	0.31
0.305	315.13	0.32
0.339	313.78	0.32
0.369	312.65	0.32
0.402	310.91	0.33
0.447	307.98	0.33
0.483	305.79	0.36
0.522	301.5	0.37
0.557	298.16	0.37
0.592	294.6	0.39
0.612	291.51	0.4
0.658	286.01	0.39
0.685	282.6	0.36
0.727	279.35	0.35
0.757	276.89	0.35

System: butan-1-ol + 1-butyl-4-methylpyridinium tetrafluoroborate; phases: Liquid
Fixed: Pressure, kPa = 101
Property: Excess molar enthalpy (molar enthalpy of mixing), kJ/mol (Liquid); method: Flow calorimetry
Temperature, K	Mole fraction of 1-butyl-4-methylpyridinium tetrafluoroborate	Excess molar enthalpy (molar enthalpy of mixing), kJ/mol	uncertainty
318.15	0.0242	0.468	0.01
318.16	0.0613	0.944	0.02
318.17	0.1029	1.419	0.03
318.18	0.1466	1.795	0.038
318.19	0.1938	2.206	0.047
318.2	0.24	2.515	0.054
318.21	0.2864	2.736	0.058
318.22	0.3344	2.904	0.062
318.23	0.3708	2.946	0.063
318.24	0.4149	2.958	0.063
318.25	0.4635	2.886	0.061
318.26	0.5162	2.789	0.059
318.27	0.5729	2.608	0.056
318.28	0.6488	2.266	0.048
318.29	0.7232	1.939	0.041
318.3	0.7962	1.509	0.032
318.31	0.8569	1.162	0.025
318.32	0.9006	0.817	0.018
318.33	0.9435	0.538	0.012

System: butan-1-ol + 1-butyl-4-methylpyridinium tetrafluoroborate; phases: Liquid
Fixed: Pressure, kPa = 101
Property: Mass density, kg/m3 (Liquid); method: VIBTUB:UFactor:12
Temperature, K	Mole fraction of 1-butyl-4-methylpyridinium tetrafluoroborate	Mass density, kg/m3	uncertainty
298.15	0.5948	1094.4	1.7
298.15	0.692	1120.2	1.8
298.15	0.739	1131.5	1.8
298.15	0.7851	1141.8	1.8
298.15	0.8916	1163.9	1.9
318.15	0.0548	833.2	2.2
318.15	0.1169	875.7	2
318.15	0.2301	940.7	1.6
318.15	0.3406	992.1	1.2
318.15	0.4471	1033.5	1.4
318.15	0.564	1071.4	1.5
318.15	0.6758	1102.2	1.7
318.15	0.7856	1128.1	1.7
318.15	0.8427	1140	1.8
318.15	0.887	1148.6	1.8

System: pentan-1-ol + 1-butyl-4-methylpyridinium tetrafluoroborate; phases: Liquid mixture 1, Liquid mixture 2
Fixed: Pressure, kPa = 101
Property: Liquid-liquid equilibrium temperature, K (Liquid mixture 1); method: VISOBS:UFactor:2
Mole fraction of 1-butyl-4-methylpyridinium tetrafluoroborate	Liquid-liquid equilibrium temperature, K	uncertainty
0.006	290.27	3.85
0.01	297.94	4.23
0.012	303.41	4.23
0.016	311.27	4.37
0.019	318.76	5
0.035	325.32	0.6
0.051	327	0.34
0.081	328.77	0.32
0.122	329.71	0.31
0.171	329.94	0.31
0.225	329.75	0.31
0.272	329.42	0.31
0.313	328.62	0.31
0.344	328.27	0.32
0.378	326.78	0.32
0.411	325.35	0.32
0.447	323.52	0.33
0.483	321.56	0.33
0.523	319.23	0.34
0.564	315.72	0.36
0.609	310.97	0.38
0.659	305.12	0.39
0.696	300.9	0.41
0.73	295.49	0.44

System: pentan-1-ol + 1-butyl-4-methylpyridinium tetrafluoroborate; phases: Liquid
Fixed: Temperature, K = 318.15
Fixed: Pressure, kPa = 101
Property: Mass density, kg/m3 (Liquid); method: VIBTUB:UFactor:12
Mole fraction of 1-butyl-4-methylpyridinium tetrafluoroborate	Mass density, kg/m3	uncertainty
0.5651	1060.4	1.4
0.6035	1072.1	1.5
0.6715	1091.9	1.6
0.7601	1115.3	1.7
0.8041	1126.1	1.7
0.8616	1139.6	1.8
0.912	1150.8	1.8

System: water + 1-butyl-4-methylpyridinium tetrafluoroborate; phases: Liquid
Fixed: Pressure, kPa = 101
Property: Excess molar enthalpy (molar enthalpy of mixing), kJ/mol (Liquid); method: Flow calorimetry
Temperature, K	Mole fraction of 1-butyl-4-methylpyridinium tetrafluoroborate	Excess molar enthalpy (molar enthalpy of mixing), kJ/mol	uncertainty
298.15	0.0072	0.104	0.006
298.15	0.0145	0.198	0.007
298.15	0.0215	0.284	0.008
298.15	0.0303	0.38	0.009
298.15	0.0406	0.491	0.011
298.15	0.0526	0.613	0.014
298.15	0.0659	0.74	0.016
298.15	0.0805	0.876	0.019
298.15	0.0963	1.015	0.022
298.15	0.1144	1.162	0.025
298.15	0.1563	1.46	0.031
298.15	0.1863	1.591	0.034
298.15	0.2196	1.701	0.036
298.15	0.2577	1.772	0.038
298.15	0.2972	1.81	0.039
298.15	0.3449	1.812	0.039
298.15	0.3974	1.758	0.038
298.15	0.4857	1.586	0.034
298.15	0.5954	1.34	0.029
298.15	0.7282	0.962	0.021
298.15	0.8706	0.486	0.011
318.15	0.0097	0.188	0.008
318.16	0.0226	0.392	0.01
318.17	0.0382	0.606	0.014
318.18	0.0565	0.825	0.018
318.19	0.0755	1.041	0.023
318.2	0.0949	1.228	0.027
318.21	0.1132	1.404	0.03
318.22	0.1187	1.507	0.033
318.23	0.1414	1.681	0.036
318.24	0.1695	1.839	0.039
318.25	0.2008	1.972	0.042
318.26	0.2346	2.088	0.045
318.27	0.2746	2.191	0.047
318.28	0.3253	2.245	0.048
318.29	0.383	2.23	0.048
318.3	0.441	2.162	0.046
318.31	0.5071	2.027	0.043
318.32	0.5961	1.758	0.038
318.33	0.6778	1.421	0.03
318.34	0.7866	0.988	0.021
318.35	0.9058	0.428	0.01

System: water + 1-butyl-4-methylpyridinium tetrafluoroborate; phases: Liquid
Fixed: Pressure, kPa = 101
Property: Mass density, kg/m3 (Liquid); method: VIBTUB:UFactor:12
Temperature, K	Mole fraction of 1-butyl-4-methylpyridinium tetrafluoroborate	Mass density, kg/m3	uncertainty
298.15	0.0502	1060.5	1.2
298.15	0.1042	1094.8	1.4
298.15	0.1512	1112.7	1.5
298.15	0.2006	1126.1	1.6
298.15	0.2543	1136.1	1.6
298.15	0.2948	1142.4	1.7
298.15	0.4	1154.1	1.8
298.15	0.4913	1161.5	1.8
298.15	0.6014	1168.3	1.8
298.15	0.7228	1173.9	1.9
298.15	0.7493	1175.1	1.9
298.15	0.783	1176.4	1.9
298.15	0.8449	1178.7	1.9
298.15	0.8731	1179.8	1.9
298.15	0.9504	1182.1	1.9
318.15	0.0327	1033	1
318.15	0.0994	1080	1.3
318.15	0.1505	1098.7	1.4
318.15	0.1989	1111.3	1.5
318.15	0.236	1118.6	1.5
318.15	0.2921	1127.6	1.6
318.15	0.3237	1131.9	1.6
318.15	0.4169	1141.3	1.7
318.15	0.4841	1146.6	1.7
318.15	0.6083	1154.2	1.8
318.15	0.6715	1157.5	1.8
318.15	0.7125	1159.2	1.8
318.15	0.7299	1160	1.8
318.15	0.8124	1163	1.8
318.15	0.8565	1164.7	1.8
318.15	0.8888	1165.8	1.8

System: methanol + 1-butyl-4-methylpyridinium tetrafluoroborate; phases: Liquid
Fixed: Pressure, kPa = 101
Property: Excess molar enthalpy (molar enthalpy of mixing), kJ/mol (Liquid); method: Flow calorimetry
Temperature, K	Mole fraction of 1-butyl-4-methylpyridinium tetrafluoroborate	Excess molar enthalpy (molar enthalpy of mixing), kJ/mol	uncertainty
298.15	0.0155	0.254	0.007
298.15	0.0359	0.485	0.011
298.15	0.0582	0.667	0.015
298.15	0.0832	0.907	0.02
298.15	0.1111	1.131	0.024
298.15	0.1397	1.377	0.03
298.15	0.1698	1.578	0.039
298.15	0.1711	1.64	0.04
298.15	0.1953	1.735	0.037
298.15	0.2214	1.822	0.039
298.15	0.2412	1.895	0.04
298.15	0.2755	1.963	0.042
298.15	0.3109	2.01	0.043
298.15	0.3617	1.986	0.042
298.15	0.427	1.894	0.04
298.15	0.507	1.718	0.037
298.15	0.6029	1.464	0.031
298.15	0.7161	1.137	0.024
298.15	0.8469	0.646	0.014
318.2	0.0102	0.141	0.005
318.21	0.0238	0.277	0.007
318.22	0.0405	0.41	0.01
318.23	0.0635	0.744	0.017
318.24	0.0898	1.094	0.024
318.25	0.1174	1.405	0.03
318.26	0.1476	1.687	0.036
318.27	0.1778	1.911	0.041
318.28	0.1969	2.082	0.045
318.29	0.2103	2.214	0.047
318.3	0.2392	2.337	0.05
318.31	0.2699	2.421	0.052
318.32	0.3021	2.524	0.054
318.33	0.3442	2.551	0.054
318.34	0.3846	2.59	0.055
318.35	0.4397	2.57	0.055
318.36	0.4968	2.489	0.053
318.37	0.5563	2.385	0.051
318.38	0.6281	2.23	0.048
318.39	0.7109	1.951	0.042
318.4	0.8042	1.513	0.032
318.41	0.8793	0.998	0.022
318.42	0.9607	0.392	0.017

System: methanol + 1-butyl-4-methylpyridinium tetrafluoroborate; phases: Liquid
Fixed: Pressure, kPa = 101
Property: Mass density, kg/m3 (Liquid); method: VIBTUB:UFactor:12
Temperature, K	Mole fraction of 1-butyl-4-methylpyridinium tetrafluoroborate	Mass density, kg/m3	uncertainty
298.15	0.0539	880.6	2
298.15	0.0819	916.2	1.9
298.15	0.095	931.5	1.8
298.15	0.1078	944.4	1.7
298.15	0.1549	984.7	1.5
298.15	0.2038	1017.3	1.5
298.15	0.3016	1064.3	1.7
298.15	0.3729	1088.5	1.8
298.15	0.4548	1110.8	1.9
298.15	0.5027	1120.9	1.9
298.15	0.5533	1131.2	2
298.15	0.6076	1140.4	2
298.15	0.7174	1155.8	2
298.15	0.8053	1165.6	2
298.15	0.9129	1176	2
318.15	0.0489	855.9	2.1
318.15	0.096	915.9	1.8
318.15	0.1439	961.3	1.6
318.15	0.1894	994.2	1.4
318.15	0.3003	1049.4	1.6
318.15	0.3551	1068.5	1.7
318.15	0.4349	1091.7	1.8
318.15	0.4888	1103.9	1.8
318.15	0.5342	1112.7	1.9
318.15	0.5959	1123.9	1.9
318.15	0.6592	1133.5	1.9
318.15	0.7266	1142.3	1.9
318.15	0.8378	1154.8	1.9
318.15	0.9046	1161.4	1.9
