Measured thermophysical data. Liquid density of biofuel mixtures: 1-Heptanol + heptane system at pressures up to 140 MPa and temperatures from 298.15 K to 393.15 K
Source: J. Chem. Thermodyn., 2013, 10.1016/j.jct.2013.05.051
Compound 1: heptan-1-ol, C7H16O, InChI=1S/C7H16O/c1-2-3-4-5-6-7-8/h8H,2-7H2,1H3, purity 98%
Compound 2: heptane, C7H16, InChI=1S/C7H16/c1-3-5-7-6-4-2/h3-7H2,1-2H3, purity 99.5%

System: heptan-1-ol; phases: Liquid
Property: Mass density, kg/m3 (Liquid); method: Vibrating tube method
Temperature, K	Pressure, kPa	Mass density, kg/m3	uncertainty
298.15	100	818.7	1.5
298.15	1000	819.3	1.5
298.15	5000	821.9	1.5
298.15	10000	824.9	1.5
298.15	15000	828	1.6
298.15	20000	830.8	1.6
298.15	25000	833.5	1.6
298.15	30000	836.3	1.6
298.15	35000	838.8	1.6
298.15	40000	841.3	1.6
298.15	45000	843.8	1.6
298.15	50000	846.2	1.7
298.15	55000	848.5	1.7
298.15	60000	850.8	1.7
298.15	65000	853	1.7
298.15	70000	855.2	1.7
298.15	80000	859.4	1.7
298.15	90000	863.5	1.8
298.15	100000	867.3	1.8
298.15	110000	871.1	1.8
298.15	120000	874.6	1.8
298.15	130000	878.1	1.8
298.15	140000	881.5	1.9
313.15	100	808	1.5
313.15	1000	808.6	1.5
313.15	5000	811.4	1.5
313.15	10000	814.7	1.5
313.15	15000	817.9	1.6
313.15	20000	821	1.6
313.15	25000	823.8	1.6
313.15	30000	826.8	1.6
313.15	35000	829.5	1.6
313.15	40000	832.1	1.6
313.15	45000	834.7	1.6
313.15	50000	837.2	1.7
313.15	55000	839.7	1.7
313.15	60000	842.1	1.7
313.15	65000	844.4	1.7
313.15	70000	846.7	1.7
313.15	80000	851.1	1.7
313.15	90000	855.3	1.8
313.15	100000	859.3	1.8
313.15	110000	863.2	1.8
313.15	120000	867	1.8
313.15	130000	870.6	1.9
313.15	140000	874.2	1.9
333.15	100	793.3	1.5
333.15	1000	794	1.5
333.15	5000	797.1	1.5
333.15	10000	800.7	1.5
333.15	15000	804.3	1.6
333.15	20000	807.7	1.6
333.15	25000	810.8	1.6
333.15	30000	813.9	1.6
333.15	35000	816.9	1.6
333.15	40000	819.8	1.6
333.15	45000	822.4	1.7
333.15	50000	825.2	1.7
333.15	55000	827.8	1.7
333.15	60000	830.3	1.7
333.15	65000	832.9	1.7
333.15	70000	835.3	1.7
333.15	80000	839.9	1.8
333.15	90000	844.5	1.8
333.15	100000	848.7	1.8
333.15	110000	852.8	1.8
333.15	120000	856.8	1.9
333.15	130000	860.5	1.9
333.15	140000	864.3	1.9
353.15	100	778.1	1.5
353.15	1000	778.8	1.5
353.15	5000	782.3	1.5
353.15	10000	786.3	1.5
353.15	15000	790.2	1.6
353.15	20000	793.9	1.6
353.15	25000	797.3	1.6
353.15	30000	800.7	1.6
353.15	35000	804	1.6
353.15	40000	807.1	1.6
353.15	45000	810	1.7
353.15	50000	813	1.7
353.15	55000	815.8	1.7
353.15	60000	818.6	1.7
353.15	65000	821.2	1.7
353.15	70000	823.8	1.7
353.15	80000	828.7	1.8
353.15	90000	833.5	1.8
353.15	100000	837.9	1.8
353.15	110000	842.3	1.9
353.15	120000	846.4	1.9
353.15	130000	850.3	1.9
353.15	140000	854.3	1.9
373.15	1000	762.8	1.5
373.15	5000	766.6	1.5
373.15	10000	771.1	1.5
373.15	15000	775.5	1.6
373.15	20000	779.5	1.6
373.15	25000	783.4	1.6
373.15	30000	787.1	1.6
373.15	35000	790.6	1.6
373.15	40000	794	1.6
373.15	45000	797.2	1.7
373.15	50000	800.3	1.7
373.15	55000	803.4	1.7
373.15	60000	806.3	1.7
373.15	65000	809.2	1.7
373.15	70000	811.9	1.7
373.15	80000	817.2	1.8
373.15	90000	822.3	1.8
373.15	100000	827	1.8
373.15	110000	831.6	1.9
373.15	120000	835.9	1.9
373.15	130000	840.2	1.9
373.15	140000	844.1	2
393.15	1000	745.8	1.5
393.15	5000	750.2	1.5
393.15	10000	755.3	1.5
393.15	15000	760.1	1.6
393.15	20000	764.6	1.6
393.15	25000	768.8	1.6
393.15	30000	772.9	1.6
393.15	35000	776.8	1.6
393.15	40000	780.4	1.6
393.15	45000	783.9	1.7
393.15	50000	787.3	1.7
393.15	55000	790.7	1.7
393.15	60000	793.8	1.7
393.15	65000	796.8	1.7
393.15	70000	799.8	1.8
393.15	80000	805.5	1.8
393.15	90000	810.9	1.8
393.15	100000	815.9	1.9
393.15	110000	820.8	1.9
393.15	120000	825.3	1.9
393.15	130000	829.8	2
393.15	140000	834	2
373.15	100	761.9	7.6
393.15	100	744.9	7.5

System: heptane; phases: Liquid
Property: Mass density, kg/m3 (Liquid); method: Vibrating tube method
Temperature, K	Pressure, kPa	Mass density, kg/m3	uncertainty
298.15	100	679.5	1.4
298.15	1000	680.4	1.4
298.15	5000	684.2	1.4
298.15	10000	688.6	1.4
298.15	15000	692.8	1.4
298.15	20000	696.7	1.5
298.15	25000	700.4	1.5
298.15	30000	704	1.5
298.15	35000	707.4	1.5
298.15	40000	710.7	1.5
298.15	45000	713.8	1.5
298.15	50000	716.8	1.5
298.15	55000	719.7	1.6
298.15	60000	722.5	1.6
298.15	65000	725.2	1.6
298.15	70000	727.9	1.6
298.15	80000	732.9	1.7
298.15	90000	737.7	1.7
298.15	100000	742.3	1.8
298.15	110000	746.6	1.8
298.15	120000	750.7	1.8
298.15	130000	754.6	1.9
298.15	140000	758.4	1.9
313.15	100	666.6	1.4
313.15	1000	667.6	1.4
313.15	5000	671.8	1.4
313.15	10000	676.7	1.4
313.15	15000	681.3	1.4
313.15	20000	685.6	1.5
313.15	25000	689.5	1.5
313.15	30000	693.5	1.5
313.15	35000	697.1	1.5
313.15	40000	700.5	1.5
313.15	45000	703.9	1.5
313.15	50000	707.2	1.6
313.15	55000	710.3	1.6
313.15	60000	713.3	1.6
313.15	65000	716.1	1.6
313.15	70000	718.9	1.6
313.15	80000	724.2	1.7
313.15	90000	729.3	1.7
313.15	100000	734	1.8
313.15	110000	738.6	1.8
313.15	120000	742.8	1.9
313.15	130000	747	1.9
313.15	140000	751.1	2
333.15	100	648.9	1.4
333.15	1000	650	1.4
333.15	5000	655	1.4
333.15	10000	660.6	1.4
333.15	15000	665.8	1.4
333.15	20000	670.6	1.5
333.15	25000	675.1	1.5
333.15	30000	679.4	1.5
333.15	35000	683.4	1.5
333.15	40000	687.3	1.5
333.15	45000	690.9	1.5
333.15	50000	694.4	1.6
333.15	55000	697.7	1.6
333.15	60000	701	1.6
333.15	65000	704.1	1.6
333.15	70000	707.1	1.7
333.15	80000	712.8	1.7
333.15	90000	718.2	1.8
333.15	100000	723.2	1.8
333.15	110000	728.1	1.8
333.15	120000	732.6	1.9
333.15	130000	737	1.9
333.15	140000	741.1	2
353.15	100	631.2	1.4
353.15	1000	632.1	1.4
353.15	5000	637.8	1.4
353.15	10000	644.3	1.4
353.15	15000	650.3	1.4
353.15	20000	655.7	1.5
353.15	25000	660.8	1.5
353.15	30000	665.5	1.5
353.15	35000	670	1.5
353.15	40000	674.1	1.5
353.15	45000	678.1	1.6
353.15	50000	682	1.6
353.15	55000	685.5	1.6
353.15	60000	689.1	1.6
353.15	65000	692.4	1.6
353.15	70000	695.7	1.7
353.15	80000	701.7	1.7
353.15	90000	707.5	1.8
353.15	100000	712.8	1.8
353.15	110000	717.9	1.9
353.15	120000	722.7	1.9
353.15	130000	727.3	2
353.15	140000	731.6	2
373.15	1000	613.3	1.4
373.15	5000	620.1	1.4
373.15	10000	627.7	1.4
373.15	15000	634.5	1.5
373.15	20000	640.7	1.5
373.15	25000	646.3	1.5
373.15	30000	651.6	1.5
373.15	35000	656.5	1.5
373.15	40000	661.1	1.5
373.15	45000	665.5	1.6
373.15	50000	669.6	1.6
373.15	55000	673.5	1.6
373.15	60000	677.3	1.6
373.15	65000	680.8	1.7
373.15	70000	684.3	1.7
373.15	80000	690.8	1.7
373.15	90000	696.9	1.8
373.15	100000	702.6	1.9
373.15	110000	708	1.9
373.15	120000	713	2
373.15	130000	717.9	2
373.15	140000	722.3	2.1
393.15	1000	593.5	1.4
393.15	5000	601.7	1.4
393.15	10000	610.6	1.4
393.15	15000	618.4	1.5
393.15	20000	625.4	1.5
393.15	25000	631.7	1.5
393.15	30000	637.5	1.5
393.15	35000	643	1.5
393.15	40000	648	1.6
393.15	45000	652.8	1.6
393.15	50000	657.2	1.6
393.15	55000	661.5	1.6
393.15	60000	665.5	1.7
393.15	65000	669.3	1.7
393.15	70000	673.1	1.7
393.15	80000	680.1	1.8
393.15	90000	686.5	1.8
393.15	100000	692.5	1.9
393.15	110000	698.2	1.9
393.15	120000	703.4	2
393.15	130000	708.5	2
393.15	140000	713.4	2.1

System: heptan-1-ol + heptane; phases: Liquid
Property: Mass density, kg/m3 (Liquid); method: Vibrating tube method
Temperature, K	Mole fraction of heptan-1-ol	Pressure, kPa	Mass density, kg/m3	uncertainty
298.15	0	100	679.5	1.4
298.15	0	1000	680.4	1.4
298.15	0	5000	684.2	1.4
298.15	0	10000	688.6	1.4
298.15	0	15000	692.8	1.4
298.15	0	20000	696.7	1.5
298.15	0	25000	700.4	1.5
298.15	0	30000	704	1.5
298.15	0	35000	707.4	1.5
298.15	0	40000	710.7	1.5
298.15	0	45000	713.8	1.5
298.15	0	50000	716.8	1.5
298.15	0	55000	719.7	1.6
298.15	0	60000	722.5	1.6
298.15	0	65000	725.2	1.6
298.15	0	70000	727.9	1.6
298.15	0	80000	732.9	1.7
298.15	0	90000	737.7	1.7
298.15	0	100000	742.3	1.8
298.15	0	110000	746.6	1.8
298.15	0	120000	750.7	1.8
298.15	0	130000	754.6	1.9
298.15	0	140000	758.4	1.9
313.15	0	100	666.6	1.4
313.15	0	1000	667.6	1.4
313.15	0	5000	671.8	1.4
313.15	0	10000	676.7	1.4
313.15	0	15000	681.3	1.4
313.15	0	20000	685.6	1.5
313.15	0	25000	689.5	1.5
313.15	0	30000	693.5	1.5
313.15	0	35000	697.1	1.5
313.15	0	40000	700.5	1.5
313.15	0	45000	703.9	1.5
313.15	0	50000	707.2	1.6
313.15	0	55000	710.3	1.6
313.15	0	60000	713.3	1.6
313.15	0	65000	716.1	1.6
313.15	0	70000	718.9	1.6
313.15	0	80000	724.2	1.7
313.15	0	90000	729.3	1.7
313.15	0	100000	734	1.8
313.15	0	110000	738.6	1.8
313.15	0	120000	742.8	1.9
313.15	0	130000	747	1.9
313.15	0	140000	751.1	2
333.15	0	100	648.9	1.4
333.15	0	1000	650	1.4
333.15	0	5000	655	1.4
333.15	0	10000	660.6	1.4
333.15	0	15000	665.8	1.4
333.15	0	20000	670.6	1.5
333.15	0	25000	675.1	1.5
333.15	0	30000	679.4	1.5
333.15	0	35000	683.4	1.5
333.15	0	40000	687.3	1.5
333.15	0	45000	690.9	1.5
333.15	0	50000	694.4	1.6
333.15	0	55000	697.7	1.6
333.15	0	60000	701	1.6
333.15	0	65000	704.1	1.6
333.15	0	70000	707.1	1.7
333.15	0	80000	712.8	1.7
333.15	0	90000	718.2	1.8
333.15	0	100000	723.2	1.8
333.15	0	110000	728.1	1.8
333.15	0	120000	732.6	1.9
333.15	0	130000	737	1.9
333.15	0	140000	741.1	2
353.15	0	100	631.2	1.4
353.15	0	1000	632.1	1.4
353.15	0	5000	637.8	1.4
353.15	0	10000	644.3	1.4
353.15	0	15000	650.3	1.4
353.15	0	20000	655.7	1.5
353.15	0	25000	660.8	1.5
353.15	0	30000	665.5	1.5
353.15	0	35000	670	1.5
353.15	0	40000	674.1	1.5
353.15	0	45000	678.1	1.6
353.15	0	50000	682	1.6
353.15	0	55000	685.5	1.6
353.15	0	60000	689.1	1.6
353.15	0	65000	692.4	1.6
353.15	0	70000	695.7	1.7
353.15	0	80000	701.7	1.7
353.15	0	90000	707.5	1.8
353.15	0	100000	712.8	1.8
353.15	0	110000	717.9	1.9
353.15	0	120000	722.7	1.9
353.15	0	130000	727.3	2
353.15	0	140000	731.6	2
373.15	0	1000	613.3	1.4
373.15	0	5000	620.1	1.4
373.15	0	10000	627.7	1.4
373.15	0	15000	634.5	1.5
373.15	0	20000	640.7	1.5
373.15	0	25000	646.3	1.5
373.15	0	30000	651.6	1.5
373.15	0	35000	656.5	1.5
373.15	0	40000	661.1	1.5
373.15	0	45000	665.5	1.6
373.15	0	50000	669.6	1.6
373.15	0	55000	673.5	1.6
373.15	0	60000	677.3	1.6
373.15	0	65000	680.8	1.7
373.15	0	70000	684.3	1.7
373.15	0	80000	690.8	1.7
373.15	0	90000	696.9	1.8
373.15	0	100000	702.6	1.9
373.15	0	110000	708	1.9
373.15	0	120000	713	2
373.15	0	130000	717.9	2
373.15	0	140000	722.3	2.1
393.15	0	1000	593.5	1.4
393.15	0	5000	601.7	1.4
393.15	0	10000	610.6	1.4
393.15	0	15000	618.4	1.5
393.15	0	20000	625.4	1.5
393.15	0	25000	631.7	1.5
393.15	0	30000	637.5	1.5
393.15	0	35000	643	1.5
393.15	0	40000	648	1.6
393.15	0	45000	652.8	1.6
393.15	0	50000	657.2	1.6
393.15	0	55000	661.5	1.6
393.15	0	60000	665.5	1.7
393.15	0	65000	669.3	1.7
393.15	0	70000	673.1	1.7
393.15	0	80000	680.1	1.8
393.15	0	90000	686.5	1.8
393.15	0	100000	692.5	1.9
393.15	0	110000	698.2	1.9
393.15	0	120000	703.4	2
393.15	0	130000	708.5	2
393.15	0	140000	713.4	2.1
298.15	0.1493	100	699.7	1.4
298.15	0.1493	1000	700.6	1.4
298.15	0.1493	5000	704.1	1.4
298.15	0.1493	10000	708.4	1.4
298.15	0.1493	15000	712.4	1.4
298.15	0.1493	20000	716.2	1.5
298.15	0.1493	25000	719.8	1.5
298.15	0.1493	30000	723.3	1.5
298.15	0.1493	35000	726.5	1.5
298.15	0.1493	40000	729.7	1.5
298.15	0.1493	45000	732.8	1.5
298.15	0.1493	50000	735.6	1.5
298.15	0.1493	55000	738.5	1.6
298.15	0.1493	60000	741.2	1.6
298.15	0.1493	65000	743.9	1.6
298.15	0.1493	70000	746.5	1.6
298.15	0.1493	80000	751.4	1.7
298.15	0.1493	90000	756.2	1.7
298.15	0.1493	100000	760.6	1.7
298.15	0.1493	110000	764.9	1.8
298.15	0.1493	120000	768.9	1.8
298.15	0.1493	130000	772.8	1.9
298.15	0.1493	140000	776.5	1.9
313.15	0.1493	100	686.8	1.4
313.15	0.1493	1000	687.7	1.4
313.15	0.1493	5000	691.7	1.4
313.15	0.1493	10000	696.4	1.4
313.15	0.1493	15000	700.8	1.4
313.15	0.1493	20000	704.9	1.5
313.15	0.1493	25000	708.6	1.5
313.15	0.1493	30000	712.6	1.5
313.15	0.1493	35000	716.1	1.5
313.15	0.1493	40000	719.4	1.5
313.15	0.1493	45000	722.7	1.5
313.15	0.1493	50000	725.8	1.5
313.15	0.1493	55000	728.8	1.6
313.15	0.1493	60000	731.8	1.6
313.15	0.1493	65000	734.6	1.6
313.15	0.1493	70000	737.3	1.6
313.15	0.1493	80000	742.5	1.7
313.15	0.1493	90000	747.5	1.7
313.15	0.1493	100000	752.1	1.7
313.15	0.1493	110000	756.6	1.8
313.15	0.1493	120000	760.8	1.8
313.15	0.1493	130000	765	1.9
313.15	0.1493	140000	768.9	1.9
333.15	0.1493	100	669.3	1.4
333.15	0.1493	1000	670.5	1.4
333.15	0.1493	5000	675.1	1.4
333.15	0.1493	10000	680.5	1.4
333.15	0.1493	15000	685.6	1.4
333.15	0.1493	20000	690.2	1.5
333.15	0.1493	25000	694.5	1.5
333.15	0.1493	30000	698.8	1.5
333.15	0.1493	35000	702.7	1.5
333.15	0.1493	40000	706.4	1.5
333.15	0.1493	45000	710	1.5
333.15	0.1493	50000	713.5	1.6
333.15	0.1493	55000	716.7	1.6
333.15	0.1493	60000	719.9	1.6
333.15	0.1493	65000	723	1.6
333.15	0.1493	70000	726	1.6
333.15	0.1493	80000	731.6	1.7
333.15	0.1493	90000	737	1.7
333.15	0.1493	100000	742	1.8
333.15	0.1493	110000	746.8	1.8
333.15	0.1493	120000	751.3	1.9
333.15	0.1493	130000	755.6	1.9
333.15	0.1493	140000	759.8	2
353.15	0.1493	100	654.4	1.4
353.15	0.1493	1000	655.7	1.4
353.15	0.1493	5000	661.2	1.4
353.15	0.1493	10000	667.4	1.4
353.15	0.1493	15000	673.1	1.5
353.15	0.1493	20000	678.4	1.5
353.15	0.1493	25000	683.2	1.5
353.15	0.1493	30000	687.9	1.5
353.15	0.1493	35000	692.2	1.5
353.15	0.1493	40000	696.2	1.5
353.15	0.1493	45000	700.2	1.5
353.15	0.1493	50000	704	1.6
353.15	0.1493	55000	707.5	1.6
353.15	0.1493	60000	711	1.6
353.15	0.1493	65000	714.3	1.6
353.15	0.1493	70000	717.5	1.7
353.15	0.1493	80000	723.5	1.7
353.15	0.1493	90000	729.1	1.7
353.15	0.1493	100000	734.4	1.8
353.15	0.1493	110000	739.6	1.8
353.15	0.1493	120000	744.3	1.9
353.15	0.1493	130000	748.8	1.9
353.15	0.1493	140000	753.2	2
373.15	0.1493	1000	636.8	1.4
373.15	0.1493	5000	643.2	1.4
373.15	0.1493	10000	650.5	1.4
373.15	0.1493	15000	656.9	1.5
373.15	0.1493	20000	662.9	1.5
373.15	0.1493	25000	668.4	1.5
373.15	0.1493	30000	673.6	1.5
373.15	0.1493	35000	678.4	1.5
373.15	0.1493	40000	682.8	1.5
373.15	0.1493	45000	687.2	1.6
373.15	0.1493	50000	691.2	1.6
373.15	0.1493	55000	695.1	1.6
373.15	0.1493	60000	698.8	1.6
373.15	0.1493	65000	702.3	1.6
373.15	0.1493	70000	705.7	1.7
373.15	0.1493	80000	712.2	1.7
373.15	0.1493	90000	718.3	1.8
373.15	0.1493	100000	723.8	1.8
373.15	0.1493	110000	729.2	1.9
373.15	0.1493	120000	734.3	1.9
373.15	0.1493	130000	739.1	2
373.15	0.1493	140000	743.7	2
393.15	0.1493	1000	617.4	1.4
393.15	0.1493	5000	625	1.4
393.15	0.1493	10000	633.5	1.4
393.15	0.1493	15000	640.9	1.5
393.15	0.1493	20000	647.6	1.5
393.15	0.1493	25000	653.8	1.5
393.15	0.1493	30000	659.5	1.5
393.15	0.1493	35000	664.8	1.5
393.15	0.1493	40000	669.7	1.5
393.15	0.1493	45000	674.3	1.6
393.15	0.1493	50000	678.7	1.6
393.15	0.1493	55000	683	1.6
393.15	0.1493	60000	687	1.6
393.15	0.1493	65000	690.7	1.7
393.15	0.1493	70000	694.4	1.7
393.15	0.1493	80000	701.3	1.7
393.15	0.1493	90000	707.8	1.8
393.15	0.1493	100000	713.7	1.8
393.15	0.1493	110000	719.4	1.9
393.15	0.1493	120000	724.6	1.9
393.15	0.1493	130000	729.7	2
393.15	0.1493	140000	734.6	2
298.15	0.3215	100	723.4	1.4
298.15	0.3215	1000	724.2	1.4
298.15	0.3215	5000	727.6	1.4
298.15	0.3215	10000	731.6	1.4
298.15	0.3215	15000	735.4	1.4
298.15	0.3215	20000	739.1	1.5
298.15	0.3215	25000	742.4	1.5
298.15	0.3215	30000	745.8	1.5
298.15	0.3215	35000	748.9	1.5
298.15	0.3215	40000	751.9	1.5
298.15	0.3215	45000	754.9	1.5
298.15	0.3215	50000	757.7	1.5
298.15	0.3215	55000	760.5	1.6
298.15	0.3215	60000	763.2	1.6
298.15	0.3215	65000	765.7	1.6
298.15	0.3215	70000	768.2	1.6
298.15	0.3215	80000	773	1.6
298.15	0.3215	90000	777.7	1.7
298.15	0.3215	100000	782	1.7
298.15	0.3215	110000	786.1	1.7
298.15	0.3215	120000	790.1	1.8
298.15	0.3215	130000	793.9	1.8
298.15	0.3215	140000	797.6	1.9
313.15	0.3215	100	711	1.4
313.15	0.3215	1000	711.8	1.4
313.15	0.3215	5000	715.5	1.4
313.15	0.3215	10000	719.9	1.4
313.15	0.3215	15000	724.1	1.5
313.15	0.3215	20000	728	1.5
313.15	0.3215	25000	731.5	1.5
313.15	0.3215	30000	735.3	1.5
313.15	0.3215	35000	738.7	1.5
313.15	0.3215	40000	741.9	1.5
313.15	0.3215	45000	745	1.5
313.15	0.3215	50000	748	1.6
313.15	0.3215	55000	750.9	1.6
313.15	0.3215	60000	753.8	1.6
313.15	0.3215	65000	756.5	1.6
313.15	0.3215	70000	759.1	1.6
313.15	0.3215	80000	764.2	1.7
313.15	0.3215	90000	769	1.7
313.15	0.3215	100000	773.6	1.7
313.15	0.3215	110000	778	1.8
313.15	0.3215	120000	782.1	1.8
313.15	0.3215	130000	786.2	1.8
313.15	0.3215	140000	790.1	1.9
333.15	0.3215	100	693.9	1.4
333.15	0.3215	1000	694.9	1.4
333.15	0.3215	5000	699.1	1.4
333.15	0.3215	10000	704.1	1.4
333.15	0.3215	15000	708.9	1.5
333.15	0.3215	20000	713.2	1.5
333.15	0.3215	25000	717.3	1.5
333.15	0.3215	30000	721.2	1.5
333.15	0.3215	35000	725	1.5
333.15	0.3215	40000	728.5	1.5
333.15	0.3215	45000	731.9	1.5
333.15	0.3215	50000	735.2	1.6
333.15	0.3215	55000	738.3	1.6
333.15	0.3215	60000	741.3	1.6
333.15	0.3215	65000	744.3	1.6
333.15	0.3215	70000	747.2	1.6
333.15	0.3215	80000	752.6	1.7
333.15	0.3215	90000	757.8	1.7
333.15	0.3215	100000	762.6	1.8
333.15	0.3215	110000	767.3	1.8
333.15	0.3215	120000	771.6	1.8
333.15	0.3215	130000	775.8	1.9
333.15	0.3215	140000	779.8	1.9
353.15	0.3215	100	676.1	1.4
353.15	0.3215	1000	677.3	1.4
353.15	0.3215	5000	682.2	1.4
353.15	0.3215	10000	687.9	1.4
353.15	0.3215	15000	693.2	1.5
353.15	0.3215	20000	698.2	1.5
353.15	0.3215	25000	702.8	1.5
353.15	0.3215	30000	707.1	1.5
353.15	0.3215	35000	711.1	1.5
353.15	0.3215	40000	715	1.5
353.15	0.3215	45000	718.7	1.6
353.15	0.3215	50000	722.4	1.6
353.15	0.3215	55000	725.7	1.6
353.15	0.3215	60000	729	1.6
353.15	0.3215	65000	732.2	1.6
353.15	0.3215	70000	735.2	1.7
353.15	0.3215	80000	741	1.7
353.15	0.3215	90000	746.5	1.7
353.15	0.3215	100000	751.6	1.8
353.15	0.3215	110000	756.6	1.8
353.15	0.3215	120000	761.2	1.9
353.15	0.3215	130000	765.6	1.9
353.15	0.3215	140000	769.9	1.9
373.15	0.3215	1000	658.8	1.4
373.15	0.3215	5000	664.6	1.4
373.15	0.3215	10000	671.2	1.4
373.15	0.3215	15000	677.2	1.5
373.15	0.3215	20000	682.7	1.5
373.15	0.3215	25000	687.9	1.5
373.15	0.3215	30000	692.7	1.5
373.15	0.3215	35000	697.2	1.5
373.15	0.3215	40000	701.4	1.5
373.15	0.3215	45000	705.6	1.6
373.15	0.3215	50000	709.3	1.6
373.15	0.3215	55000	713	1.6
373.15	0.3215	60000	716.6	1.6
373.15	0.3215	65000	720.1	1.6
373.15	0.3215	70000	723.2	1.7
373.15	0.3215	80000	729.5	1.7
373.15	0.3215	90000	735.4	1.8
373.15	0.3215	100000	740.9	1.8
373.15	0.3215	110000	746.1	1.8
373.15	0.3215	120000	751	1.9
373.15	0.3215	130000	755.7	1.9
373.15	0.3215	140000	760.2	2
393.15	0.3215	1000	639.3	1.4
393.15	0.3215	5000	646.2	1.4
393.15	0.3215	10000	653.8	1.4
393.15	0.3215	15000	660.7	1.5
393.15	0.3215	20000	666.9	1.5
393.15	0.3215	25000	672.7	1.5
393.15	0.3215	30000	678	1.5
393.15	0.3215	35000	683.1	1.5
393.15	0.3215	40000	687.7	1.6
393.15	0.3215	45000	692.1	1.6
393.15	0.3215	50000	696.3	1.6
393.15	0.3215	55000	700.4	1.6
393.15	0.3215	60000	704.1	1.6
393.15	0.3215	65000	707.8	1.7
393.15	0.3215	70000	711.4	1.7
393.15	0.3215	80000	718.1	1.7
393.15	0.3215	90000	724.3	1.8
393.15	0.3215	100000	730.1	1.8
393.15	0.3215	110000	735.7	1.9
393.15	0.3215	120000	740.8	1.9
393.15	0.3215	130000	745.7	2
393.15	0.3215	140000	750.5	2
298.15	0.5226	100	751.3	1.4
298.15	0.5226	1000	752.1	1.4
298.15	0.5226	5000	755.2	1.4
298.15	0.5226	10000	759	1.5
298.15	0.5226	15000	762.6	1.5
298.15	0.5226	20000	765.9	1.5
298.15	0.5226	25000	769.1	1.5
298.15	0.5226	30000	772.3	1.5
298.15	0.5226	35000	775.3	1.5
298.15	0.5226	40000	778.2	1.5
298.15	0.5226	45000	781	1.5
298.15	0.5226	50000	783.6	1.6
298.15	0.5226	55000	786.3	1.6
298.15	0.5226	60000	788.8	1.6
298.15	0.5226	65000	791.3	1.6
298.15	0.5226	70000	793.7	1.6
298.15	0.5226	80000	798.4	1.6
298.15	0.5226	90000	802.8	1.7
298.15	0.5226	100000	807	1.7
298.15	0.5226	110000	811.2	1.7
298.15	0.5226	120000	815	1.8
298.15	0.5226	130000	818.7	1.8
298.15	0.5226	140000	822.3	1.8
313.15	0.5226	100	739.3	1.4
313.15	0.5226	1000	740.1	1.4
313.15	0.5226	5000	743.5	1.4
313.15	0.5226	10000	747.6	1.5
313.15	0.5226	15000	751.5	1.5
313.15	0.5226	20000	755.2	1.5
313.15	0.5226	25000	758.4	1.5
313.15	0.5226	30000	762	1.5
313.15	0.5226	35000	765.2	1.5
313.15	0.5226	40000	768.2	1.5
313.15	0.5226	45000	771.2	1.5
313.15	0.5226	50000	774.1	1.6
313.15	0.5226	55000	776.9	1.6
313.15	0.5226	60000	779.6	1.6
313.15	0.5226	65000	782.2	1.6
313.15	0.5226	70000	784.8	1.6
313.15	0.5226	80000	789.6	1.7
313.15	0.5226	90000	794.3	1.7
313.15	0.5226	100000	798.7	1.7
313.15	0.5226	110000	803	1.8
313.15	0.5226	120000	807	1.8
313.15	0.5226	130000	810.9	1.8
313.15	0.5226	140000	814.7	1.9
333.15	0.5226	100	722.8	1.4
333.15	0.5226	1000	723.7	1.4
333.15	0.5226	5000	727.6	1.4
333.15	0.5226	10000	732.1	1.5
333.15	0.5226	15000	736.5	1.5
333.15	0.5226	20000	740.5	1.5
333.15	0.5226	25000	744.4	1.5
333.15	0.5226	30000	748.1	1.5
333.15	0.5226	35000	751.6	1.5
333.15	0.5226	40000	755	1.5
333.15	0.5226	45000	758.1	1.6
333.15	0.5226	50000	761.3	1.6
333.15	0.5226	55000	764.3	1.6
333.15	0.5226	60000	767.2	1.6
333.15	0.5226	65000	770	1.6
333.15	0.5226	70000	772.8	1.6
333.15	0.5226	80000	778	1.7
333.15	0.5226	90000	783	1.7
333.15	0.5226	100000	787.7	1.7
333.15	0.5226	110000	792.2	1.8
333.15	0.5226	120000	796.4	1.8
333.15	0.5226	130000	800.6	1.9
333.15	0.5226	140000	804.5	1.9
353.15	0.5226	100	705.8	1.4
353.15	0.5226	1000	706.8	1.4
353.15	0.5226	5000	711.3	1.4
353.15	0.5226	10000	716.4	1.5
353.15	0.5226	15000	721.3	1.5
353.15	0.5226	20000	725.8	1.5
353.15	0.5226	25000	730.1	1.5
353.15	0.5226	30000	734.2	1.5
353.15	0.5226	35000	738	1.5
353.15	0.5226	40000	741.6	1.5
353.15	0.5226	45000	745.1	1.6
353.15	0.5226	50000	748.5	1.6
353.15	0.5226	55000	751.7	1.6
353.15	0.5226	60000	754.9	1.6
353.15	0.5226	65000	757.9	1.6
353.15	0.5226	70000	760.9	1.7
353.15	0.5226	80000	766.4	1.7
353.15	0.5226	90000	771.7	1.7
353.15	0.5226	100000	776.7	1.8
353.15	0.5226	110000	781.5	1.8
353.15	0.5226	120000	786	1.8
353.15	0.5226	130000	790.2	1.9
353.15	0.5226	140000	794.6	1.9
373.15	0.5226	1000	688.9	1.4
373.15	0.5226	5000	694.1	1.4
373.15	0.5226	10000	700	1.5
373.15	0.5226	15000	705.5	1.5
373.15	0.5226	20000	710.6	1.5
373.15	0.5226	25000	715.4	1.5
373.15	0.5226	30000	719.9	1.5
373.15	0.5226	35000	724.1	1.5
373.15	0.5226	40000	728.1	1.6
373.15	0.5226	45000	732	1.6
373.15	0.5226	50000	735.5	1.6
373.15	0.5226	55000	739.1	1.6
373.15	0.5226	60000	742.4	1.6
373.15	0.5226	65000	745.7	1.7
373.15	0.5226	70000	748.8	1.7
373.15	0.5226	80000	754.8	1.7
373.15	0.5226	90000	760.4	1.8
373.15	0.5226	100000	765.7	1.8
373.15	0.5226	110000	770.7	1.8
373.15	0.5226	120000	775.5	1.9
373.15	0.5226	130000	780.1	1.9
373.15	0.5226	140000	784.5	2
393.15	0.5226	1000	670.1	1.4
393.15	0.5226	5000	676.1	1.4
393.15	0.5226	10000	683	1.5
393.15	0.5226	15000	689.2	1.5
393.15	0.5226	20000	694.9	1.5
393.15	0.5226	25000	700.2	1.5
393.15	0.5226	30000	705.2	1.5
393.15	0.5226	35000	709.8	1.5
393.15	0.5226	40000	714.2	1.6
393.15	0.5226	45000	718.3	1.6
393.15	0.5226	50000	722.3	1.6
393.15	0.5226	55000	726.2	1.6
393.15	0.5226	60000	729.8	1.6
393.15	0.5226	65000	733.2	1.7
393.15	0.5226	70000	736.7	1.7
393.15	0.5226	80000	743.1	1.7
393.15	0.5226	90000	749.2	1.8
393.15	0.5226	100000	754.7	1.8
393.15	0.5226	110000	760.1	1.9
393.15	0.5226	120000	765	1.9
393.15	0.5226	130000	769.8	1.9
393.15	0.5226	140000	774.5	2
298.15	0.6698	100	772.6	1.5
298.15	0.6698	1000	773.3	1.5
298.15	0.6698	5000	776.2	1.5
298.15	0.6698	10000	779.7	1.5
298.15	0.6698	15000	783.2	1.5
298.15	0.6698	20000	786.3	1.5
298.15	0.6698	25000	789.4	1.5
298.15	0.6698	30000	792.5	1.5
298.15	0.6698	35000	795.3	1.5
298.15	0.6698	40000	798	1.5
298.15	0.6698	45000	800.7	1.6
298.15	0.6698	50000	803.3	1.6
298.15	0.6698	55000	805.9	1.6
298.15	0.6698	60000	808.3	1.6
298.15	0.6698	65000	810.7	1.6
298.15	0.6698	70000	813.1	1.6
298.15	0.6698	80000	817.6	1.7
298.15	0.6698	90000	821.9	1.7
298.15	0.6698	100000	826	1.7
298.15	0.6698	110000	830	1.7
298.15	0.6698	120000	833.8	1.8
298.15	0.6698	130000	837.4	1.8
298.15	0.6698	140000	840.9	1.8
313.15	0.6698	100	760.9	1.4
313.15	0.6698	1000	761.7	1.5
313.15	0.6698	5000	764.9	1.5
313.15	0.6698	10000	768.7	1.5
313.15	0.6698	15000	772.3	1.5
313.15	0.6698	20000	775.8	1.5
313.15	0.6698	25000	778.9	1.5
313.15	0.6698	30000	782.3	1.5
313.15	0.6698	35000	785.4	1.5
313.15	0.6698	40000	788.3	1.6
313.15	0.6698	45000	791.1	1.6
313.15	0.6698	50000	793.9	1.6
313.15	0.6698	55000	796.6	1.6
313.15	0.6698	60000	799.2	1.6
313.15	0.6698	65000	801.8	1.6
313.15	0.6698	70000	804.2	1.6
313.15	0.6698	80000	808.9	1.7
313.15	0.6698	90000	813.5	1.7
313.15	0.6698	100000	817.7	1.7
313.15	0.6698	110000	821.9	1.8
313.15	0.6698	120000	825.8	1.8
313.15	0.6698	130000	829.7	1.8
313.15	0.6698	140000	833.4	1.8
333.15	0.6698	100	745	1.4
333.15	0.6698	1000	745.8	1.5
333.15	0.6698	5000	749.5	1.5
333.15	0.6698	10000	753.7	1.5
333.15	0.6698	15000	757.8	1.5
333.15	0.6698	20000	761.7	1.5
333.15	0.6698	25000	765.3	1.5
333.15	0.6698	30000	768.8	1.5
333.15	0.6698	35000	772.1	1.5
333.15	0.6698	40000	775.3	1.6
333.15	0.6698	45000	778.3	1.6
333.15	0.6698	50000	781.4	1.6
333.15	0.6698	55000	784.2	1.6
333.15	0.6698	60000	787	1.6
333.15	0.6698	65000	789.8	1.6
333.15	0.6698	70000	792.4	1.7
333.15	0.6698	80000	797.4	1.7
333.15	0.6698	90000	802.3	1.7
333.15	0.6698	100000	806.8	1.8
333.15	0.6698	110000	811.2	1.8
333.15	0.6698	120000	815.4	1.8
333.15	0.6698	130000	819.4	1.8
333.15	0.6698	140000	823.2	1.9
353.15	0.6698	100	728.5	1.5
353.15	0.6698	1000	729.4	1.5
353.15	0.6698	5000	733.6	1.5
353.15	0.6698	10000	738.3	1.5
353.15	0.6698	15000	742.9	1.5
353.15	0.6698	20000	747.1	1.5
353.15	0.6698	25000	751.1	1.5
353.15	0.6698	30000	755	1.5
353.15	0.6698	35000	758.6	1.5
353.15	0.6698	40000	762	1.6
353.15	0.6698	45000	765.4	1.6
353.15	0.6698	50000	768.7	1.6
353.15	0.6698	55000	771.8	1.6
353.15	0.6698	60000	774.8	1.6
353.15	0.6698	65000	777.7	1.6
353.15	0.6698	70000	780.5	1.7
353.15	0.6698	80000	785.9	1.7
353.15	0.6698	90000	791.1	1.7
353.15	0.6698	100000	795.9	1.8
353.15	0.6698	110000	800.6	1.8
353.15	0.6698	120000	804.9	1.8
353.15	0.6698	130000	809	1.9
353.15	0.6698	140000	813.2	1.9
373.15	0.6698	1000	712.2	1.4
373.15	0.6698	5000	716.9	1.5
373.15	0.6698	10000	722.4	1.5
373.15	0.6698	15000	727.5	1.5
373.15	0.6698	20000	732.2	1.5
373.15	0.6698	25000	736.7	1.5
373.15	0.6698	30000	740.9	1.5
373.15	0.6698	35000	744.9	1.6
373.15	0.6698	40000	748.7	1.6
373.15	0.6698	45000	752.4	1.6
373.15	0.6698	50000	755.9	1.6
373.15	0.6698	55000	759.2	1.6
373.15	0.6698	60000	762.4	1.6
373.15	0.6698	65000	765.5	1.7
373.15	0.6698	70000	768.5	1.7
373.15	0.6698	80000	774.4	1.7
373.15	0.6698	90000	779.8	1.8
373.15	0.6698	100000	784.9	1.8
373.15	0.6698	110000	789.8	1.8
373.15	0.6698	120000	794.4	1.9
373.15	0.6698	130000	798.9	1.9
373.15	0.6698	140000	803.1	1.9
393.15	0.6698	1000	693.9	1.4
393.15	0.6698	5000	699.4	1.5
393.15	0.6698	10000	705.6	1.5
393.15	0.6698	15000	711.4	1.5
393.15	0.6698	20000	716.6	1.5
393.15	0.6698	25000	721.6	1.5
393.15	0.6698	30000	726.3	1.5
393.15	0.6698	35000	730.6	1.6
393.15	0.6698	40000	734.8	1.6
393.15	0.6698	45000	738.8	1.6
393.15	0.6698	50000	742.6	1.6
393.15	0.6698	55000	746.3	1.6
393.15	0.6698	60000	749.7	1.7
393.15	0.6698	65000	753.1	1.7
393.15	0.6698	70000	756.4	1.7
393.15	0.6698	80000	762.5	1.7
393.15	0.6698	90000	768.3	1.8
393.15	0.6698	100000	773.8	1.8
393.15	0.6698	110000	778.9	1.9
393.15	0.6698	120000	783.8	1.9
393.15	0.6698	130000	788.5	1.9
393.15	0.6698	140000	793	2
298.15	0.8469	100	804.4	4.1
298.15	0.8469	1000	805.1	4
298.15	0.8469	5000	807.8	4
298.15	0.8469	10000	811.1	4
298.15	0.8469	15000	814.2	4
298.15	0.8469	20000	817.2	4
298.15	0.8469	25000	820	4.1
298.15	0.8469	30000	822.8	4.1
298.15	0.8469	35000	825.4	4.1
298.15	0.8469	40000	828.1	4.1
298.15	0.8469	45000	830.6	4.1
298.15	0.8469	50000	833	4.1
298.15	0.8469	55000	835.4	4.1
298.15	0.8469	60000	837.7	4.1
298.15	0.8469	65000	839.9	4.1
298.15	0.8469	70000	842.2	4.1
298.15	0.8469	80000	846.4	4.1
298.15	0.8469	90000	850.6	4.1
298.15	0.8469	100000	854.5	4.1
298.15	0.8469	110000	858.4	4.1
298.15	0.8469	120000	861.9	4.1
298.15	0.8469	130000	865.5	4.2
298.15	0.8469	140000	868.9	4.2
313.15	0.8469	100	793.4	4
313.15	0.8469	1000	794	4
313.15	0.8469	5000	796.9	4
313.15	0.8469	10000	800.4	4
313.15	0.8469	15000	803.8	4
313.15	0.8469	20000	807	4
313.15	0.8469	25000	809.9	4.1
313.15	0.8469	30000	813	4.1
313.15	0.8469	35000	815.9	4.1
313.15	0.8469	40000	818.5	4.1
313.15	0.8469	45000	821.2	4.1
313.15	0.8469	50000	823.8	4.1
313.15	0.8469	55000	826.4	4.1
313.15	0.8469	60000	828.8	4.1
313.15	0.8469	65000	831.2	4.1
313.15	0.8469	70000	833.6	4.1
313.15	0.8469	80000	838	4.1
313.15	0.8469	90000	842.4	4.1
313.15	0.8469	100000	846.4	4.1
313.15	0.8469	110000	850.4	4.1
313.15	0.8469	120000	854.2	4.2
313.15	0.8469	130000	857.9	4.2
313.15	0.8469	140000	861.5	4.2
333.15	0.8469	100	778	4
333.15	0.8469	1000	778.8	4
333.15	0.8469	5000	782	4
333.15	0.8469	10000	785.9	4
333.15	0.8469	15000	789.7	4
333.15	0.8469	20000	793.1	4
333.15	0.8469	25000	796.5	4.1
333.15	0.8469	30000	799.7	4.1
333.15	0.8469	35000	802.8	4.1
333.15	0.8469	40000	805.8	4.1
333.15	0.8469	45000	808.7	4.1
333.15	0.8469	50000	811.5	4.1
333.15	0.8469	55000	814.2	4.1
333.15	0.8469	60000	816.8	4.1
333.15	0.8469	65000	819.4	4.1
333.15	0.8469	70000	821.9	4.1
333.15	0.8469	80000	826.7	4.1
333.15	0.8469	90000	831.3	4.1
333.15	0.8469	100000	835.6	4.1
333.15	0.8469	110000	839.8	4.2
333.15	0.8469	120000	843.8	4.2
333.15	0.8469	130000	847.7	4.2
333.15	0.8469	140000	851.4	4.2
353.15	0.8469	100	762.3	4.1
353.15	0.8469	1000	763.1	4
353.15	0.8469	5000	766.7	4
353.15	0.8469	10000	771	4
353.15	0.8469	15000	775.2	4
353.15	0.8469	20000	779	4
353.15	0.8469	25000	782.7	4.1
353.15	0.8469	30000	786.3	4.1
353.15	0.8469	35000	789.6	4.1
353.15	0.8469	40000	792.8	4.1
353.15	0.8469	45000	795.9	4.1
353.15	0.8469	50000	799	4.1
353.15	0.8469	55000	801.9	4.1
353.15	0.8469	60000	804.7	4.1
353.15	0.8469	65000	807.5	4.1
353.15	0.8469	70000	810.2	4.1
353.15	0.8469	80000	815.2	4.1
353.15	0.8469	90000	820.1	4.1
353.15	0.8469	100000	824.8	4.1
353.15	0.8469	110000	829.3	4.2
353.15	0.8469	120000	833.4	4.2
353.15	0.8469	130000	837.5	4.2
353.15	0.8469	140000	841.4	4.2
373.15	0.8469	1000	746.6	4
373.15	0.8469	5000	750.7	4
373.15	0.8469	10000	755.5	4
373.15	0.8469	15000	760.2	4
373.15	0.8469	20000	764.4	4
373.15	0.8469	25000	768.6	4.1
373.15	0.8469	30000	772.4	4.1
373.15	0.8469	35000	776	4.1
373.15	0.8469	40000	779.7	4.1
373.15	0.8469	45000	783	4.1
373.15	0.8469	50000	786.3	4.1
373.15	0.8469	55000	789.4	4.1
373.15	0.8469	60000	792.4	4.1
373.15	0.8469	65000	795.5	4.1
373.15	0.8469	70000	798.2	4.1
373.15	0.8469	80000	803.7	4.1
373.15	0.8469	90000	808.9	4.1
373.15	0.8469	100000	813.8	4.2
373.15	0.8469	110000	818.5	4.2
373.15	0.8469	120000	822.9	4.2
373.15	0.8469	130000	827.3	4.2
373.15	0.8469	140000	831.4	4.2
393.15	0.8469	1000	729.1	4
393.15	0.8469	5000	733.9	4
393.15	0.8469	10000	739.3	4
393.15	0.8469	15000	744.5	4
393.15	0.8469	20000	749.2	4
393.15	0.8469	25000	753.7	4.1
393.15	0.8469	30000	758	4.1
393.15	0.8469	35000	762.1	4.1
393.15	0.8469	40000	765.9	4.1
393.15	0.8469	45000	769.6	4.1
393.15	0.8469	50000	773.1	4.1
393.15	0.8469	55000	776.6	4.1
393.15	0.8469	60000	779.8	4.1
393.15	0.8469	65000	782.9	4.1
393.15	0.8469	70000	786.1	4.1
393.15	0.8469	80000	791.9	4.1
393.15	0.8469	90000	797.5	4.2
393.15	0.8469	100000	802.6	4.2
393.15	0.8469	110000	807.7	4.2
393.15	0.8469	120000	812.3	4.2
393.15	0.8469	130000	816.8	4.2
393.15	0.8469	140000	821.3	4.2
298.15	1	100	818.7	1.5
298.15	1	1000	819.3	1.5
298.15	1	5000	821.9	1.5
298.15	1	10000	824.9	1.5
298.15	1	15000	828	1.6
298.15	1	20000	830.8	1.6
298.15	1	25000	833.5	1.6
298.15	1	30000	836.3	1.6
298.15	1	35000	838.8	1.6
298.15	1	40000	841.3	1.6
298.15	1	45000	843.8	1.6
298.15	1	50000	846.2	1.7
298.15	1	55000	848.5	1.7
298.15	1	60000	850.8	1.7
298.15	1	65000	853	1.7
298.15	1	70000	855.2	1.7
298.15	1	80000	859.4	1.7
298.15	1	90000	863.5	1.8
298.15	1	100000	867.3	1.8
298.15	1	110000	871.1	1.8
298.15	1	120000	874.6	1.8
298.15	1	130000	878.1	1.8
298.15	1	140000	881.5	1.9
313.15	1	100	808	1.5
313.15	1	1000	808.6	1.5
313.15	1	5000	811.4	1.5
313.15	1	10000	814.7	1.5
313.15	1	15000	817.9	1.6
313.15	1	20000	821	1.6
313.15	1	25000	823.8	1.6
313.15	1	30000	826.8	1.6
313.15	1	35000	829.5	1.6
313.15	1	40000	832.1	1.6
313.15	1	45000	834.7	1.6
313.15	1	50000	837.2	1.7
313.15	1	55000	839.7	1.7
313.15	1	60000	842.1	1.7
313.15	1	65000	844.4	1.7
313.15	1	70000	846.7	1.7
313.15	1	80000	851.1	1.7
313.15	1	90000	855.3	1.8
313.15	1	100000	859.3	1.8
313.15	1	110000	863.2	1.8
313.15	1	120000	867	1.8
313.15	1	130000	870.6	1.9
313.15	1	140000	874.2	1.9
333.15	1	100	793.3	1.5
333.15	1	1000	794	1.5
333.15	1	5000	797.1	1.5
333.15	1	10000	800.7	1.5
333.15	1	15000	804.3	1.6
333.15	1	20000	807.7	1.6
333.15	1	25000	810.8	1.6
333.15	1	30000	813.9	1.6
333.15	1	35000	816.9	1.6
333.15	1	40000	819.8	1.6
333.15	1	45000	822.4	1.7
333.15	1	50000	825.2	1.7
333.15	1	55000	827.8	1.7
333.15	1	60000	830.3	1.7
333.15	1	65000	832.9	1.7
333.15	1	70000	835.3	1.7
333.15	1	80000	839.9	1.8
333.15	1	90000	844.5	1.8
333.15	1	100000	848.7	1.8
333.15	1	110000	852.8	1.8
333.15	1	120000	856.8	1.9
333.15	1	130000	860.5	1.9
333.15	1	140000	864.3	1.9
353.15	1	100	778.1	1.5
353.15	1	1000	778.8	1.5
353.15	1	5000	782.3	1.5
353.15	1	10000	786.3	1.5
353.15	1	15000	790.2	1.6
353.15	1	20000	793.9	1.6
353.15	1	25000	797.3	1.6
353.15	1	30000	800.7	1.6
353.15	1	35000	804	1.6
353.15	1	40000	807.1	1.6
353.15	1	45000	810	1.7
353.15	1	50000	813	1.7
353.15	1	55000	815.8	1.7
353.15	1	60000	818.6	1.7
353.15	1	65000	821.2	1.7
353.15	1	70000	823.8	1.7
353.15	1	80000	828.7	1.8
353.15	1	90000	833.5	1.8
353.15	1	100000	837.9	1.8
353.15	1	110000	842.3	1.9
353.15	1	120000	846.4	1.9
353.15	1	130000	850.3	1.9
353.15	1	140000	854.3	1.9
373.15	1	1000	762.8	1.5
373.15	1	5000	766.6	1.5
373.15	1	10000	771.1	1.5
373.15	1	15000	775.5	1.6
373.15	1	20000	779.5	1.6
373.15	1	25000	783.4	1.6
373.15	1	30000	787.1	1.6
373.15	1	35000	790.6	1.6
373.15	1	40000	794	1.6
373.15	1	45000	797.2	1.7
373.15	1	50000	800.3	1.7
373.15	1	55000	803.4	1.7
373.15	1	60000	806.3	1.7
373.15	1	65000	809.2	1.7
373.15	1	70000	811.9	1.7
373.15	1	80000	817.2	1.8
373.15	1	90000	822.3	1.8
373.15	1	100000	827	1.8
373.15	1	110000	831.6	1.9
373.15	1	120000	835.9	1.9
373.15	1	130000	840.2	1.9
373.15	1	140000	844.1	2
393.15	1	1000	745.8	1.5
393.15	1	5000	750.2	1.5
393.15	1	10000	755.3	1.5
393.15	1	15000	760.1	1.6
393.15	1	20000	764.6	1.6
393.15	1	25000	768.8	1.6
393.15	1	30000	772.9	1.6
393.15	1	35000	776.8	1.6
393.15	1	40000	780.4	1.6
393.15	1	45000	783.9	1.7
393.15	1	50000	787.3	1.7
393.15	1	55000	790.7	1.7
393.15	1	60000	793.8	1.7
393.15	1	65000	796.8	1.7
393.15	1	70000	799.8	1.8
393.15	1	80000	805.5	1.8
393.15	1	90000	810.9	1.8
393.15	1	100000	815.9	1.9
393.15	1	110000	820.8	1.9
393.15	1	120000	825.3	1.9
393.15	1	130000	829.8	2
393.15	1	140000	834	2
373.15	1	100	761.9	7.6
393.15	1	100	744.9	7.5
