Measured thermophysical data. Experimental and theoretical study of thermodynamic properties of levoglucosan
Source: J. Chem. Thermodyn., 2015, 10.1016/j.jct.2015.01.005
Compound 1: carbon dioxide, CO2, InChI=1S/CO2/c2-1-3
Compound 2: water, H2O, InChI=1S/H2O/h1H2
Compound 3: oxygen, O2, InChI=1S/O2/c1-2
Compound 4: 1,6-anhydro-.beta.-D-glucopyranose, C6H10O5, InChI=1S/C6H10O5/c7-3-2-1-10-6(11-2)5(9)4(3)8/h2-9H,1H2/t2-,3-,4+,5-,6-/m1/s1

System: 1,6-anhydro-.beta.-D-glucopyranose; phases: Crystal 1, Liquid, Air at 1 atmosphere
Property: Molar enthalpy of transition or fusion, kJ/mol (Crystal 1); method: DSC
Molar enthalpy of transition or fusion, kJ/mol	uncertainty
2.9	0.2

System: 1,6-anhydro-.beta.-D-glucopyranose; phases: Crystal 2, Crystal 1, Air at 1 atmosphere
Property: Triple point temperature, K (Crystal 2); method: DTA:corrimp
Triple point temperature, K	uncertainty
384	1

System: 1,6-anhydro-.beta.-D-glucopyranose; phases: Crystal 2, Crystal 1, Air at 1 atmosphere
Property: Molar enthalpy of transition or fusion, kJ/mol (Crystal 2); method: DSC
Molar enthalpy of transition or fusion, kJ/mol	uncertainty
25	0.7

System: 1,6-anhydro-.beta.-D-glucopyranose; phases: Crystal 1, Liquid, Air at 1 atmosphere
Property: Triple point temperature, K (Crystal 1); method: DTA:corrimp
Triple point temperature, K	uncertainty
454	1

System: 1,6-anhydro-.beta.-D-glucopyranose; phases: Crystal 2
Fixed: Pressure, kPa = 101.325
Property: Molar heat capacity at constant pressure, J/K/mol (Crystal 2); method: Small (less than 1 g) adiabatic calorimetry
Temperature, K	Molar heat capacity at constant pressure, J/K/mol	uncertainty
5	0.138	0.018
10	1.118	0.032
15	3.898	0.065
20	7.99	0.091
25	12.65	0.12
30	17.41	0.15
35	22.01	0.17
40	26.36	0.2
45	30.52	0.22
50	34.47	0.24
60	41.86	0.28
70	48.71	0.31
80	55.17	0.35
90	61.41	0.4
100	67.71	0.43
110	74.28	0.46
120	79.92	0.49
130	85.48	0.51
140	91.03	0.54
150	96.6	0.57
160	102.2	0.6
170	107.8	0.6
180	113.5	0.7
190	119.2	0.7
200	125	0.7
210	130.9	0.7
220	136.9	0.7
230	143	0.8
240	149.2	0.8
250	155.5	0.8
260	162	0.9
270	168.5	0.9
280	175.1	0.9
290	181.7	1
298.15	187.2	1
300	188.5	1
310	195.5	1.1
320	202.7	1.1
330	210.3	1.1
340	218.6	1.2
350	227.1	1.2
360	235.5	1.2
370	244	1.3
380	252.5	1.3
384	255.9	1.3

System: 1,6-anhydro-.beta.-D-glucopyranose; phases: Crystal 2
Fixed: Pressure, kPa = 101.325
Property: Molar entropy, J/K/mol (Crystal 2); method: Small (less than 1 g) adiabatic calorimetry
Temperature, K	Molar entropy, J/K/mol	uncertainty
5	0.145	0.026
10	0.302	0.029
15	1.222	0.047
20	2.884	0.072
25	5.162	0.095
30	7.89	0.165
35	10.92	0.19
40	14.15	0.21
45	17.49	0.24
50	20.92	0.26
60	27.86	0.32
70	34.84	0.38
80	41.77	0.42
90	48.63	0.52
100	55.42	0.57
110	62.19	0.62
120	68.89	0.67
130	75.51	0.72
140	82.05	0.76
150	88.52	0.81
160	94.93	0.86
170	101.3	0.9
180	107.6	0.9
190	113.9	1
200	120.2	1
210	126.4	1.1
220	132.6	1.1
230	138.9	1.2
240	145.1	1.2
250	151.3	1.2
260	157.5	1.3
270	163.7	1.4
280	170	1.4
290	176.3	1.4
298.15	181.4	1.4
300	182.5	1.4
310	188.8	1.6
320	195.1	1.6
330	201.5	1.6
340	207.9	1.6
350	214.4	1.8
360	220.9	1.8
370	227.4	1.8
380	234.1	1.9
384	236.7	1.9

System: 1,6-anhydro-.beta.-D-glucopyranose; phases: Crystal 1
Property: Molar entropy, J/K/mol (Crystal 1); method: Small (less than 1 g) adiabatic calorimetry
Temperature, K	Pressure, kPa	Molar entropy, J/K/mol	uncertainty
384	101.325	301.8	2.6

System: 1,6-anhydro-.beta.-D-glucopyranose; phases: Crystal 2
Fixed: Pressure, kPa = 101.325
Property: Molar enthalpy function {Hm(T)-Hm(0)}/T, J/K/mol (Crystal 2); method: Small (less than 1 g) adiabatic calorimetry
Temperature, K	Molar enthalpy function {Hm(T)-Hm(0)}/T, J/K/mol	uncertainty
5	0.069	0.016
10	0.244	0.019
15	0.951	0.027
20	2.181	0.038
25	3.804	0.048
30	5.676	0.1
35	7.684	0.108
40	9.749	0.116
45	11.83	0.12
50	13.9	0.13
60	17.95	0.16
70	21.86	0.17
80	25.62	0.2
90	29.25	0.25
100	32.78	0.27
110	36.26	0.29
120	39.67	0.3
130	42.98	0.31
140	46.21	0.33
150	49.38	0.35
160	52.51	0.36
170	55.6	0.37
180	58.65	0.39
190	61.69	0.4
200	64.71	0.42
210	67.72	0.43
220	70.73	0.44
230	73.74	0.46
240	76.75	0.47
250	79.77	0.49
260	82.81	0.5
270	85.87	0.51
280	88.94	0.53
290	92.02	0.55
298.15	94.55	0.56
300	95.12	0.56
310	98.25	0.57
320	101.4	0.6
330	104.6	0.6
340	107.8	0.6
350	111.1	0.6
360	114.4	0.7
370	117.8	0.7
380	121.3	0.7
384	122.6	0.7

System: 1,6-anhydro-.beta.-D-glucopyranose; phases: Crystal 1
Property: Molar enthalpy function {Hm(T)-Hm(0)}/T, J/K/mol (Crystal 1); method: Small (less than 1 g) adiabatic calorimetry
Temperature, K	Pressure, kPa	Molar enthalpy function {Hm(T)-Hm(0)}/T, J/K/mol	uncertainty
384	101.325	187.7	1.4

System: 1,6-anhydro-.beta.-D-glucopyranose; phases: Crystal 2, Gas
Property: Vapor or sublimation pressure, kPa (Crystal 2); method: Calculated from knudsen effusion weight loss
Temperature, K	Vapor or sublimation pressure, kPa	uncertainty
353.55	2.63e-05	1.7e-06
358.59	4.61e-05	2.9e-06
363.6	8.11e-05	5.1e-06
368.61	0.00014	9e-06
373.63	0.000254	1.6e-05
378.64	0.000426	2.7e-05
353.56	2.36e-05	1.5e-06
383.65	0.000723	4.5e-05
368.62	0.00014	9e-06
373.64	0.000243	1.5e-05
378.63	0.00041	2.6e-05
383.65	0.000688	4.2e-05
368.62	0.000141	9e-06
373.63	0.000248	1.5e-05
378.65	0.000416	2.6e-05
383.66	0.000727	4.5e-05
383.66	0.000742	4.6e-05

System: 1,6-anhydro-.beta.-D-glucopyranose; phases: Crystal 2, Gas
Property: Molar heat capacity at saturation pressure, J/K/mol (Crystal 2); method: Small (less than 1 g) adiabatic calorimetry
Temperature, K	Molar heat capacity at saturation pressure, J/K/mol	uncertainty
260.23	162.2	0.9
262.15	163.5	0.9
264.2	164.7	0.9
266.25	166	0.9
268.29	167.4	0.9
270.34	168.8	0.9
272.38	170.1	0.9
274.43	171.3	0.9
276.48	172.8	0.9
278.52	174.2	0.9
280.57	175.4	0.9
282.61	176.8	1
284.66	178.2	1
286.7	179.6	1
288.75	180.9	1
290.79	182.4	1
292.84	183.6	1
294.88	185.1	1
296.92	186.3	1
298.97	187.9	1
301.01	189.4	1
303.05	190.6	1.1
305.1	192.1	1.1
307.14	193.5	1.1
309.19	195.1	1.1
311.24	196.5	1.1
313.28	197.9	1.1
315.33	199.3	1.1
317.38	200.9	1.1
319.43	202.3	1.1
321.48	203.7	1.1
323.53	205.4	1.1
325.58	206.9	1.1
327.64	208.4	1.1
329.69	210.1	1.1
331.74	211.7	1.1
333.8	213.3	1.2
335.85	215.1	1.2
337.91	216.8	1.2
339.97	218.6	1.2
342.02	220.5	1.2
344.08	222.5	1.2
346.14	224.6	1.2
348.19	226.9	1.2
350.25	229.3	1.2
352.31	231.9	1.2
354.37	234.7	1.2
356.43	237.6	1.3
358.48	240.7	1.3
360.54	244.1	1.3
362.59	248.2	1.3
364.64	252.8	1.3
366.69	258.7	1.3
368.73	265.9	1.4
78.72	54.4	0.34
80.76	55.68	0.35
82.68	56.86	0.36
84.6	58.06	0.36
86.52	59.23	0.37
88.45	60.45	0.37
90.37	61.65	0.4
92.3	62.82	0.41
94.23	64.01	0.41
96.17	65.21	0.42
98.11	66.41	0.43
100.05	67.69	0.43
101.99	69.12	0.44
103.93	70.5	0.44
105.88	71.76	0.45
107.83	72.96	0.45
109.79	74.13	0.46
111.75	75.25	0.46
113.71	76.37	0.47
115.67	77.49	0.48
117.64	78.6	0.48
119.61	79.69	0.49
121.58	80.81	0.49
123.55	81.91	0.5
125.53	83.02	0.5
127.51	84.1	0.51
129.49	85.22	0.51
131.47	86.32	0.52
133.45	87.41	0.52
135.44	88.53	0.53
137.43	89.66	0.53
139.41	90.74	0.54
141.41	91.84	0.55
143.4	92.95	0.55
145.4	94.05	0.56
147.39	95.15	0.56
149.39	96.28	0.57
151.39	97.39	0.57
153.39	98.5	0.57
155.4	99.63	0.58
157.4	100.7	0.6
159.41	101.8	0.6
161.42	103	0.6
163.43	104.1	0.6
165.44	105.2	0.6
167.46	106.4	0.6
169.47	107.5	0.6
171.49	108.6	0.6
173.51	109.8	0.6
175.53	110.9	0.6
177.54	112	0.6
179.56	113.2	0.7
181.59	114.4	0.7
183.61	115.5	0.7
185.63	116.7	0.7
187.66	117.8	0.7
189.68	119	0.7
191.71	120.2	0.7
193.74	121.4	0.7
195.77	122.5	0.7
197.79	123.7	0.7
199.82	124.9	0.7
201.86	126.1	0.7
203.89	127.3	0.7
205.92	128.5	0.7
207.96	129.7	0.7
209.99	130.9	0.7
212.02	132.1	0.7
214.06	133.3	0.7
216.09	134.5	0.7
218.13	135.7	0.7
220.17	137	0.7
222.21	138.2	0.8
224.25	139.4	0.8
226.29	140.7	0.8
228.33	141.9	0.8
230.36	143.2	0.8
232.4	144.5	0.8
234.45	145.8	0.8
236.49	147	0.8
238.53	148.3	0.8
240.57	149.6	0.8
242.62	150.8	0.8
244.66	152.1	0.8
246.7	153.4	0.8
248.74	154.7	0.8
250.79	156.1	0.8
252.83	157.3	0.8
254.87	158.6	0.8
256.92	160	0.8
258.96	161.3	0.8
261.01	162.6	0.9
263.05	163.9	0.9
265.1	165.3	0.9
267.14	166.6	0.9
269.19	167.9	0.9
271.23	169.2	0.9
273.28	170.7	0.9
275.32	172	0.9
277.37	173.3	0.9
279.42	174.8	0.9
281.47	176.1	0.9
283.51	177.3	1
285.56	178.8	1
287.61	180.1	1
289.65	181.5	1
291.7	182.9	1
293.74	184.3	1
295.79	185.6	1
297.83	187	1
299.88	188.4	1
301.92	189.8	1.1
303.97	191.3	1.1
306.02	192.6	1.1
308.06	194.1	1.1
310.11	195.5	1.1
312.16	197	1.1
314.21	198.4	1.1
316.26	199.9	1.1
318.31	201.4	1.1
320.36	202.9	1.1
322.42	204.4	1.1
324.47	206	1.1
326.52	207.5	1.1
328.57	209.1	1.1
330.63	210.6	1.1
332.69	212.3	1.1
334.74	214	1.2
336.8	215.7	1.2
338.86	217.5	1.2
340.91	219.3	1.2
342.97	221.2	1.2
345.03	223.2	1.2
347.09	225.4	1.2
349.14	227.7	1.2
351.21	230.1	1.2
353.27	232.8	1.2
355.33	235.6	1.2
357.38	238.7	1.3
359.44	242.1	1.3
361.49	245.9	1.3
363.55	249.9	1.3
365.6	255.1	1.3
367.64	261.8	1.3
80.68	55.63	0.35
82.6	56.8	0.36
84.52	57.99	0.36
86.44	59.2	0.37
88.37	60.4	0.37
90.29	61.6	0.4
92.23	62.79	0.41
94.16	63.97	0.41
96.1	65.16	0.42
98.04	66.35	0.43
99.98	67.6	0.43
101.92	69.02	0.44
103.87	70.46	0.44
105.82	71.75	0.45
107.77	72.94	0.45
109.73	74.07	0.46
111.69	75.2	0.46
113.65	76.35	0.47
115.61	77.45	0.48
117.58	78.55	0.48
119.55	79.66	0.49
5.26	0.1543	0.0176
5.62	0.1754	0.0179
5.93	0.2008	0.0183
6.31	0.2396	0.0188
6.75	0.2955	0.0195
7.19	0.3641	0.0204
7.65	0.4465	0.0214
8.1	0.5445	0.0227
8.57	0.6608	0.0245
9.04	0.7922	0.0266
9.51	0.9407	0.0289
9.99	1.112	0.031
10.53	1.33	0.035
11.15	1.603	0.038
11.77	1.9	0.042
12.4	2.236	0.047
13.05	2.607	0.051
13.7	3.009	0.056
14.35	3.44	0.06
15.01	3.908	0.064
15.78	4.473	0.069
16.65	5.151	0.074
17.53	5.868	0.079
18.42	6.609	0.082
19.31	7.372	0.086
20.21	8.174	0.091
21.39	9.247	0.098
22.86	10.63	0.11
24.35	12.04	0.11
25.84	13.46	0.12
27.08	14.64	0.12
28.51	16.01	0.13
30.04	17.43	0.15
31.72	19.01	0.16
33.56	20.71	0.17
35.41	22.39	0.18
37.27	24	0.19
39.13	25.62	0.19
41.1	27.29	0.2
43.17	29.02	0.21
45.24	30.72	0.22
47.32	32.39	0.23
49.4	34.01	0.24
51.49	35.61	0.24
53.58	37.22	0.25
55.67	38.75	0.26
57.78	40.27	0.27
59.89	41.77	0.28
62	43.24	0.28
64.11	44.7	0.29
66.22	46.15	0.3
68.34	47.58	0.31
70.46	49	0.32
72.68	50.47	0.32
75.01	51.98	0.33
77.35	53.49	0.33
79.68	54.97	0.34
82.03	56.47	0.36

Reaction: -1 1,6-anhydro-.beta.-D-glucopyranose + 6 carbon dioxide + 5 water + -6 oxygen
Property: Specific internal energy of reaction at constant volume, J/g
-17475.1
