Measured thermophysical data. The molar surface Gibbs energy and polarity of ether-functionalized ionic liquids
Source: J. Chem. Thermodyn., 2019, 10.1016/j.jct.2019.06.027
Compound 1: 1-(2-methoxyethyl)-3-methylimidazolium chloride, C7H13ClN2O, InChI=1S/C7H13N2O.ClH/c1-8-3-4-9(7-8)5-6-10-2;/h3-4,7H,5-6H2,1-2H3;1H/q+1;/p-1
Compound 2: 1-(2-ethoxyethyl)-3-methylimidazolium chloride, C8H15ClN2O, InChI=1S/C8H15N2O.ClH/c1-3-11-7-6-10-5-4-9(2)8-10;/h4-5,8H,3,6-7H2,1-2H3;1H/q+1;/p-1
Compound 3: 1-(2-ethoxyethyl)-3-methylimidazolium bromide, C8H15BrN2O, InChI=1S/C8H15N2O.BrH/c1-3-11-7-6-10-5-4-9(2)8-10;/h4-5,8H,3,6-7H2,1-2H3;1H/q+1;/p-1

System: 1-(2-methoxyethyl)-3-methylimidazolium chloride; phases: Liquid
Fixed: Pressure, kPa = 101.325
Property: Mass density, kg/m3 (Liquid); method: Vibrating tube method
Temperature, K	Mass density, kg/m3	uncertainty
288.15	1168.6	2.32
293.15	1165.46	2.32
298.15	1162.31	2.32
303.15	1159.17	2.32
308.15	1156.04	2.32
313.15	1152.91	2.32
318.15	1149.78	2.32
323.15	1146.63	2.32
328.15	1143.27	2.32

System: 1-(2-methoxyethyl)-3-methylimidazolium chloride; phases: Liquid, Air at 1 atmosphere
Property: Surface tension liquid-gas, N/m (Liquid); method: Maximal bubble pressure
Temperature, K	Surface tension liquid-gas, N/m	uncertainty
288.15	0.0496	0.0005
293.15	0.0492	0.0005
298.15	0.0487	0.0005
303.15	0.0484	0.0005
308.15	0.048	0.0005
313.15	0.0476	0.0005
318.15	0.0471	0.0005
323.15	0.0467	0.0005
328.15	0.0462	0.0005

System: 1-(2-methoxyethyl)-3-methylimidazolium chloride; phases: Liquid
Fixed: Pressure, kPa = 101.325
Property: Refractive index (Na D-line) (Liquid); method: Standard Abbe refractometry
Temperature, K	Refractive index (Na D-line)	uncertainty
288.15	1.5201	0.0031
293.15	1.5185	0.0031
298.15	1.516	0.0031
303.15	1.5142	0.0031
308.15	1.5121	0.0031
313.15	1.5103	0.0031
318.15	1.5083	0.0031
323.15	1.5069	0.0031
328.15	1.5046	0.0031

System: 1-(2-ethoxyethyl)-3-methylimidazolium chloride; phases: Liquid
Fixed: Pressure, kPa = 101.325
Property: Mass density, kg/m3 (Liquid); method: Vibrating tube method
Temperature, K	Mass density, kg/m3	uncertainty
288.15	1143.13	2.32
293.15	1139.98	2.32
298.15	1136.83	2.32
303.15	1133.69	2.32
308.15	1130.57	2.32
313.15	1127.45	2.32
318.15	1124.37	2.32
323.15	1121.28	2.32
328.15	1118.21	2.32

System: 1-(2-ethoxyethyl)-3-methylimidazolium chloride; phases: Liquid, Air at 1 atmosphere
Property: Surface tension liquid-gas, N/m (Liquid); method: Maximal bubble pressure
Temperature, K	Surface tension liquid-gas, N/m	uncertainty
288.15	0.0478	0.0005
293.15	0.0473	0.0005
298.15	0.0469	0.0005
303.15	0.0465	0.0005
308.15	0.046	0.0005
313.15	0.0456	0.0005
318.15	0.0452	0.0005
323.15	0.0448	0.0005
328.15	0.0443	0.0005

System: 1-(2-ethoxyethyl)-3-methylimidazolium chloride; phases: Liquid
Fixed: Pressure, kPa = 101.325
Property: Refractive index (Na D-line) (Liquid); method: Standard Abbe refractometry
Temperature, K	Refractive index (Na D-line)	uncertainty
288.15	1.5269	0.0031
293.15	1.5255	0.0031
298.15	1.524	0.0031
303.15	1.5225	0.0031
308.15	1.5206	0.0031
313.15	1.5184	0.0031
318.15	1.5159	0.0031
323.15	1.5142	0.0031
328.15	1.5119	0.0031

System: 1-(2-ethoxyethyl)-3-methylimidazolium bromide; phases: Liquid
Fixed: Pressure, kPa = 101.325
Property: Mass density, kg/m3 (Liquid); method: Vibrating tube method
Temperature, K	Mass density, kg/m3	uncertainty
288.15	1360.32	2.35
293.15	1356.56	2.35
298.15	1352.79	2.35
303.15	1349.05	2.35
308.15	1345.33	2.35
313.15	1341.63	2.35
318.15	1337.99	2.35
323.15	1334.35	2.35
328.15	1330.24	2.35

System: 1-(2-ethoxyethyl)-3-methylimidazolium bromide; phases: Liquid, Air at 1 atmosphere
Property: Surface tension liquid-gas, N/m (Liquid); method: Maximal bubble pressure
Temperature, K	Surface tension liquid-gas, N/m	uncertainty
288.15	0.0509	0.0005
293.15	0.0505	0.0005
298.15	0.0502	0.0005
303.15	0.0498	0.0005
308.15	0.0495	0.0005
313.15	0.0492	0.0005
318.15	0.0489	0.0005
323.15	0.0486	0.0005
328.15	0.0483	0.0005

System: 1-(2-ethoxyethyl)-3-methylimidazolium bromide; phases: Liquid
Fixed: Pressure, kPa = 101.325
Property: Refractive index (Na D-line) (Liquid); method: Standard Abbe refractometry
Temperature, K	Refractive index (Na D-line)	uncertainty
288.15	1.5473	0.0031
293.15	1.5458	0.0031
298.15	1.5441	0.0031
303.15	1.5426	0.0031
308.15	1.5409	0.0031
313.15	1.5391	0.0031
318.15	1.5376	0.0031
323.15	1.5357	0.0031
328.15	1.5341	0.0031
