Measured thermophysical data. Measurement and correlation of (liquid + liquid) equilibrium of the azeotrope (cyclohexane + 2-butanone) with different ionic liquids at T = 298.15 K
Source: J. Chem. Thermodyn., 2008, 10.1016/j.jct.2008.03.011
Compound 1: cyclohexane, C6H12, InChI=1S/C6H12/c1-2-4-6-5-3-1/h1-6H2
Compound 2: butanone, C4H8O, InChI=1S/C4H8O/c1-3-4(2)5/h3H2,1-2H3
Compound 3: 1-octyl-3-methylimidazolium hexafluorophosphate, C12H23F6N2P, InChI=1S/C12H23N2.F6P/c1-3-4-5-6-7-8-9-14-11-10-13(2)12-14;1-7(2,3,4,5)6/h10-12H,3-9H2,1-2H3;/q+1;-1
Compound 4: 1-hexyl-3-methylimidazolium hexafluorophosphate, C10H19F6N2P, InChI=1S/C10H19N2.F6P/c1-3-4-5-6-7-12-9-8-11(2)10-12;1-7(2,3,4,5)6/h8-10H,3-7H2,1-2H3;/q+1;-1

System: butanone + cyclohexane; phases: Liquid
Fixed: Pressure, kPa = 101
Property: Refractive index (Na D-line) (Liquid); method: Standard Abbe refractometry
Temperature, K	Mole fraction of cyclohexane	Refractive index (Na D-line)	uncertainty
293.15	0	1.37879	0.00033
293.15	0.0472	1.38079	0.00032
293.15	0.0979	1.3829	0.00032
293.15	0.1986	1.38711	0.00032
293.15	0.2973	1.39144	0.00032
293.15	0.3975	1.39592	0.00032
293.15	0.497	1.40055	0.00032
293.15	0.6045	1.40575	0.00032
293.15	0.6922	1.41006	0.00032
293.15	0.7984	1.4153	0.00031
293.15	0.8978	1.42041	0.00031
293.15	0.9476	1.42316	0.00031
293.15	1	1.42633	0.00031
298.15	0	1.37618	0.00033
298.15	0.0472	1.37811	0.00032
298.15	0.0979	1.38016	0.00032
298.15	0.1986	1.38436	0.00032
298.15	0.2973	1.38857	0.00032
298.15	0.3975	1.3929	0.00032
298.15	0.497	1.39774	0.00032
298.15	0.6045	1.4026	0.00032
298.15	0.6922	1.40723	0.00032
298.15	0.7984	1.4125	0.00031
298.15	0.8978	1.41769	0.00031
298.15	0.9476	1.42035	0.00031
298.15	1	1.42354	0.00031
303.15	0	1.37355	0.00033
303.15	0.0472	1.3754	0.00032
303.15	0.0979	1.37748	0.00032
303.15	0.1986	1.38159	0.00032
303.15	0.2973	1.38588	0.00032
303.15	0.3975	1.39029	0.00032
303.15	0.497	1.39494	0.00032
303.15	0.6045	1.40014	0.00032
303.15	0.6922	1.40443	0.00032
303.15	0.7984	1.4097	0.00031
303.15	0.8978	1.41473	0.00031
303.15	0.9476	1.41746	0.00031
303.15	1	1.42073	0.00031

System: butanone + cyclohexane; phases: Liquid
Fixed: Pressure, kPa = 101
Property: Speed of sound, m/s (Liquid); method: Sing-around technique in a fixed-path interferometer
Temperature, K	Mole fraction of cyclohexane	Speed of sound, m/s	uncertainty
293.15	0	1212	2
293.15	0.0472	1212	2
293.15	0.0979	1213	2
293.15	0.1986	1212	2
293.15	0.2973	1212	2
293.15	0.3975	1216	2
293.15	0.497	1221	2
293.15	0.6045	1229	2
293.15	0.6922	1236	2
293.15	0.7984	1248	2
293.15	0.8978	1261	2
293.15	0.9476	1269	2
293.15	1	1279	2
298.15	0	1192	2
298.15	0.0472	1190	2
298.15	0.0979	1190	2
298.15	0.1986	1190	2
298.15	0.2973	1190	2
298.15	0.3975	1192	2
298.15	0.497	1198	2
298.15	0.6045	1204	2
298.15	0.6922	1212	2
298.15	0.7984	1222	2
298.15	0.8978	1236	2
298.15	0.9476	1244	2
298.15	1	1256	2
303.15	0	1163	2
303.15	0.0472	1159	2
303.15	0.0979	1159	2
303.15	0.1986	1158	2
303.15	0.2973	1158	2
303.15	0.3975	1161	2
303.15	0.497	1166	2
303.15	0.6045	1172	2
303.15	0.6922	1179	2
303.15	0.7984	1188	2
303.15	0.8978	1200	2
303.15	0.9476	1207	2
303.15	1	1219	2

System: butanone + cyclohexane; phases: Liquid
Fixed: Pressure, kPa = 101
Property: Mass density, kg/m3 (Liquid); method: VIBTUB:UFactor:3
Temperature, K	Mole fraction of cyclohexane	Mass density, kg/m3	uncertainty
293.15	0	805.6	0.5
293.15	0.0472	802.6	0.5
293.15	0.0979	799.8	0.5
293.15	0.1986	794.7	0.5
293.15	0.2973	790.3	0.5
293.15	0.3975	786.6	0.5
293.15	0.497	783.7	0.5
293.15	0.6045	781	0.5
293.15	0.6922	779.5	0.5
293.15	0.7984	778.2	0.5
293.15	0.8978	777.8	0.5
293.15	0.9476	778	0.5
293.15	1	778.4	0.5
298.15	0	799.7	0.5
298.15	0.0472	796.4	0.5
298.15	0.0979	793.7	0.5
298.15	0.1986	788.8	0.5
298.15	0.2973	784.8	0.5
298.15	0.3975	781.4	0.5
298.15	0.497	778.4	0.5
298.15	0.6045	776.1	0.5
298.15	0.6922	774.6	0.5
298.15	0.7984	773.4	0.5
298.15	0.8978	773.1	0.5
298.15	0.9476	773.2	0.5
298.15	1	773.8	0.5
303.15	0	794.9	0.5
303.15	0.0472	791.5	0.5
303.15	0.0979	788.8	0.5
303.15	0.1986	784	0.5
303.15	0.2973	779.9	0.5
303.15	0.3975	776.4	0.5
303.15	0.497	773.5	0.5
303.15	0.6045	771.1	0.5
303.15	0.6922	769.6	0.5
303.15	0.7984	768.5	0.5
303.15	0.8978	768.2	0.5
303.15	0.9476	768.5	0.5
303.15	1	769	0.5

System: butanone + 1-octyl-3-methylimidazolium hexafluorophosphate; phases: Liquid
Fixed: Pressure, kPa = 101
Property: Refractive index (Na D-line) (Liquid); method: ABBE:UFactor:4
Temperature, K	Mole fraction of 1-octyl-3-methylimidazolium hexafluorophosphate	Refractive index (Na D-line)	uncertainty
293.15	0	1.37879	0.00124
293.15	0.0475	1.38881	0.00124
293.15	0.0972	1.39567	0.00124
293.15	0.1918	1.40468	0.00125
293.15	0.2947	1.41058	0.00125
293.15	0.3949	1.41468	0.00125
293.15	0.4983	1.41774	0.00125
293.15	0.5752	1.41934	0.00125
293.15	0.6815	1.42126	0.00125
293.15	0.7683	1.42239	0.00125
293.15	0.8315	1.42355	0.00125
293.15	0.9315	1.42474	0.00125
293.15	1	1.4244	0.00126
298.15	0	1.37618	0.00124
298.15	0.0475	1.38663	0.00124
298.15	0.0972	1.39445	0.00124
298.15	0.1918	1.40289	0.00125
298.15	0.2947	1.40877	0.00125
298.15	0.3949	1.41302	0.00125
298.15	0.4983	1.41614	0.00125
298.15	0.5752	1.41779	0.00125
298.15	0.6815	1.41979	0.00125
298.15	0.7683	1.42095	0.00125
298.15	0.8315	1.42198	0.00125
298.15	0.9315	1.42337	0.00125
298.15	1	1.42302	0.00126
303.15	0	1.37355	0.00124
303.15	0.0475	1.38505	0.00124
303.15	0.0972	1.39284	0.00124
303.15	0.1918	1.40124	0.00125
303.15	0.2947	1.40709	0.00125
303.15	0.3949	1.41133	0.00125
303.15	0.4983	1.41466	0.00125
303.15	0.5752	1.41645	0.00125
303.15	0.6815	1.41825	0.00125
303.15	0.7683	1.41949	0.00125
303.15	0.8315	1.42051	0.00125
303.15	0.9315	1.42199	0.00125
303.15	1	1.42165	0.00126

System: butanone + 1-octyl-3-methylimidazolium hexafluorophosphate; phases: Liquid
Fixed: Pressure, kPa = 101
Property: Speed of sound, m/s (Liquid); method: FPINT:UFactor:12
Temperature, K	Mole fraction of 1-octyl-3-methylimidazolium hexafluorophosphate	Speed of sound, m/s	uncertainty
293.15	0	1212	8
293.15	0.0475	1243	8
293.15	0.0972	1268	8
293.15	0.1918	1303	8
293.15	0.2947	1331	8
293.15	0.3949	1352	8
293.15	0.4983	1368	8
293.15	0.5752	1378	8
293.15	0.6815	1389	8
293.15	0.7683	1399	8
293.15	0.8315	1406	8
293.15	0.9315	1425	9
293.15	1	1424	9
298.15	0	1192	7
298.15	0.0475	1224	8
298.15	0.0972	1249	8
298.15	0.1918	1286	8
298.15	0.2947	1315	8
298.15	0.3949	1337	8
298.15	0.4983	1354	8
298.15	0.5752	1364	8
298.15	0.6815	1376	8
298.15	0.7683	1386	8
298.15	0.8315	1392	8
298.15	0.9315	1410	8
298.15	1	1408	8
303.15	0	1163	7
303.15	0.0475	1195	7
303.15	0.0972	1229	8
303.15	0.1918	1269	8
303.15	0.2947	1300	8
303.15	0.3949	1323	8
303.15	0.4983	1340	8
303.15	0.5752	1351	8
303.15	0.6815	1363	8
303.15	0.7683	1372	8
303.15	0.8315	1379	8
303.15	0.9315	1395	8
303.15	1	1393	8

System: butanone + 1-octyl-3-methylimidazolium hexafluorophosphate; phases: Liquid
Fixed: Pressure, kPa = 101
Property: Mass density, kg/m3 (Liquid); method: VIBTUB:UFactor:6
Temperature, K	Mole fraction of 1-octyl-3-methylimidazolium hexafluorophosphate	Mass density, kg/m3	uncertainty
293.15	0	805.6	0.7
293.15	0.0475	869.8	0.6
293.15	0.0972	923.7	0.6
293.15	0.1918	1002	0.5
293.15	0.2947	1063.1	0.6
293.15	0.3949	1107.9	0.7
293.15	0.4983	1143.6	0.7
293.15	0.5752	1164.9	0.8
293.15	0.6815	1189.5	0.9
293.15	0.7683	1205.8	0.9
293.15	0.8315	1216.4	0.9
293.15	0.9315	1230.9	1
293.15	1	1239.6	1.1
298.15	0	799.7	0.7
298.15	0.0475	864.3	0.6
298.15	0.0972	918.9	0.6
298.15	0.1918	997.6	0.5
298.15	0.2947	1058.8	0.6
298.15	0.3949	1103.7	0.7
298.15	0.4983	1139.4	0.7
298.15	0.5752	1160.9	0.8
298.15	0.6815	1185.5	0.9
298.15	0.7683	1202	0.9
298.15	0.8315	1212.8	0.9
298.15	0.9315	1227.5	1
298.15	1	1235.7	1
303.15	0	794.9	0.8
303.15	0.0475	859.6	0.7
303.15	0.0972	914.1	0.6
303.15	0.1918	993.2	0.5
303.15	0.2947	1054.6	0.6
303.15	0.3949	1099.5	0.7
303.15	0.4983	1135.3	0.7
303.15	0.5752	1156.9	0.8
303.15	0.6815	1181.5	0.8
303.15	0.7683	1198.3	0.9
303.15	0.8315	1209.1	0.9
303.15	0.9315	1223.9	1
303.15	1	1231.9	1

System: butanone + cyclohexane + 1-hexyl-3-methylimidazolium hexafluorophosphate; phases: Liquid mixture 1, Liquid mixture 2
Fixed: Temperature, K = 298.15
Fixed: Pressure, kPa = 101
Property: Mole fraction of butanone (Liquid mixture 1); method: Density calibration data
Property: Mole fraction of cyclohexane (Liquid mixture 2); method: Density calibration data
Property: Mole fraction of butanone (Liquid mixture 2); method: Density calibration data
Mole fraction of cyclohexane	Mole fraction of butanone	uncertainty	Mole fraction of cyclohexane	uncertainty	Mole fraction of butanone	uncertainty
0.985	0.015	0.014	0.071	0.01	0.128	
0.961	0.039	0.014	0.079	0.01	0.217	
0.947	0.053	0.014	0.083	0.01	0.293	
0.919	0.081	0.014	0.093	0.01	0.366	
0.867	0.132	0.014	0.11	0.011	0.416	
0.815	0.185	0.014	0.135	0.011	0.476	
0.788	0.211	0.014	0.154	0.011	0.514	
0.75	0.249	0.014	0.18	0.012	0.558	
0.695	0.304	0.014	0.199	0.013	0.587	
0.66	0.338	0.014	0.215	0.016	0.6	
0.629	0.369	0.014	0.237	0.022	0.606	

System: butanone + cyclohexane + 1-octyl-3-methylimidazolium hexafluorophosphate; phases: Liquid mixture 1, Liquid mixture 2
Fixed: Temperature, K = 298.15
Fixed: Pressure, kPa = 101
Property: Mole fraction of butanone (Liquid mixture 1); method: Density calibration data
Property: Mole fraction of cyclohexane (Liquid mixture 2); method: Density calibration data
Property: Mole fraction of butanone (Liquid mixture 2); method: Density calibration data
Mole fraction of cyclohexane	Mole fraction of butanone	uncertainty	Mole fraction of cyclohexane	uncertainty	Mole fraction of butanone	uncertainty
0.991	0.009	0.009	0.209	0.01	0.108	
0.974	0.026	0.014	0.209	0.01	0.177	
0.959	0.041	0.014	0.21	0.01	0.24	
0.942	0.058	0.014	0.215	0.01	0.303	
0.922	0.078	0.014	0.221	0.01	0.362	
0.897	0.103	0.014	0.236	0.011	0.409	
0.852	0.148	0.014	0.261	0.012	0.461	
0.778	0.221	0.014	0.296	0.014	0.503	
0.708	0.29	0.014	0.328	0.016	0.53	
0.64	0.356	0.014	0.357	0.02	0.538	
