Measured thermophysical data. Apparent molar volumes and apparent molar heat capacities of aqueous nickel(II) nitrate, copper(II) nitrate, and zinc(II) nitrate at temperatures from (278.15 to 393.15) K at the pressure 0.35 MPa
Source: J. Chem. Thermodyn., 2004, 10.1016/j.jct.2004.02.008
Compound 1: copper dinitrate, CuN2O6, InChI=1S/Cu.2NO3/c;2*2-1(3)4/q+2;2*-1
Compound 2: nitric acid, zinc salt, N2O6Zn, InChI=1S/2NO3.Zn/c2*2-1(3)4;/q2*-1;+2
Compound 3: nickel(II) nitrate, N2NiO6, InChI=1S/2NO3.Ni/c2*2-1(3)4;/q2*-1;+2
Compound 4: water, H2O, InChI=1S/H2O/h1H2, purity 99.99%

System: water + nickel(II) nitrate; phases: Liquid
Fixed: Pressure, kPa = 350
Property: Apparent molar heat capacity, J/K/mol (Liquid); method: Differential flow calorimetry
Temperature, K	Molality, mol/kg of nickel(II) nitrate	Apparent molar heat capacity, J/K/mol	uncertainty
278.15	0.01515	-328.9	17.4
278.15	0.02567	-318.6	9.4
278.15	0.04025	-309.3	5.6
278.15	0.07919	-293.7	3.1
278.15	0.13981	-273.7	2.6
278.15	0.2524	-245	2.7
278.15	0.40403	-213.5	2.6
278.15	0.51553	-192.2	2.5
283.15	0.01515	-282.9	17.8
283.15	0.02567	-273	9.6
283.15	0.04025	-264.4	5.8
283.15	0.07919	-250.3	3.1
283.15	0.13981	-232.6	2.5
283.15	0.2524	-207.9	2.5
283.15	0.40403	-180.9	2.4
283.15	0.51553	-162.4	2.4
288.15	0.01515	-247.3	18.2
288.15	0.02567	-238	9.9
288.15	0.04025	-229.7	6
288.15	0.07919	-216.8	3.1
288.15	0.13981	-200.8	2.4
288.15	0.2524	-178.9	2.3
288.15	0.40403	-155.2	2.3
288.15	0.51553	-138.9	2.3
293.15	0.01515	-220.1	18.4
293.15	0.02567	-210.9	10.1
293.15	0.04025	-202.8	6.1
293.15	0.07919	-190.4	3.2
293.15	0.13981	-175.6	2.5
293.15	0.2524	-155.7	2.3
293.15	0.40403	-134.6	2.2
293.15	0.51553	-119.9	2.2
298.15	0.01515	-197.8	18.6
298.15	0.02567	-189.1	10.3
298.15	0.04025	-181.4	6.2
298.15	0.07919	-169.6	3.3
298.15	0.13981	-155.8	2.4
298.15	0.2524	-137.5	2.2
298.15	0.40403	-118.2	2.2
298.15	0.51553	-104.9	2.1
303.15	0.01515	-180.4	18.8
303.15	0.02567	-172.3	10.4
303.15	0.04025	-164.4	6.3
303.15	0.07919	-153	3.3
303.15	0.13981	-139.8	2.4
303.15	0.2524	-122.6	2.2
303.15	0.40403	-104.8	2.1
303.15	0.51553	-92.5	2.1
308.15	0.01515	-166.9	18.8
308.15	0.02567	-159	10.5
308.15	0.04025	-151.2	6.3
308.15	0.07919	-140	3.3
308.15	0.13981	-127.2	2.4
308.15	0.2524	-110.9	2.1
308.15	0.40403	-94.2	2.1
308.15	0.51553	-82.7	2.1
313.15	0.01515	-156.2	18.9
313.15	0.02567	-148.6	10.6
313.15	0.04025	-140.8	6.4
313.15	0.07919	-129.6	3.3
313.15	0.13981	-117.1	2.4
313.15	0.2524	-101.2	2.1
313.15	0.40403	-85.4	2.1
313.15	0.51553	-74.6	2
318.15	0.01515	-148.4	18.9
318.15	0.02567	-141	10.6
318.15	0.04025	-133.1	6.3
318.15	0.07919	-122	3.4
318.15	0.13981	-109.5	2.4
318.15	0.2524	-94.1	2.1
318.15	0.40403	-78.8	2.1
318.15	0.51553	-68.4	2
323.15	0.01515	-143	19
323.15	0.02567	-135.2	10.7
323.15	0.04025	-127.3	6.4
323.15	0.07919	-116	3.4
323.15	0.13981	-103.6	2.4
323.15	0.2524	-88.4	2.1
323.15	0.40403	-73.5	2
323.15	0.51553	-63.5	2
328.15	0.01515	-139.1	19
328.15	0.02567	-131.4	10.7
328.15	0.04025	-123.3	6.4
328.15	0.07919	-111.8	3.3
328.15	0.13981	-99.3	2.3
328.15	0.2524	-84.1	2.1
328.15	0.40403	-69.4	2
328.15	0.51553	-59.7	2
333.15	0.01515	-136.5	18.9
333.15	0.02567	-128.8	10.6
333.15	0.04025	-120.5	6.4
333.15	0.07919	-108.7	3.3
333.15	0.13981	-96.1	2.4
333.15	0.2524	-80.8	2.1
333.15	0.40403	-66.3	2
333.15	0.51553	-56.7	2
338.15	0.01515	-135.4	18.9
338.15	0.02567	-127.5	10.6
338.15	0.04025	-118.9	6.4
338.15	0.07919	-106.8	3.3
338.15	0.13981	-94	2.3
338.15	0.2524	-78.5	2.1
338.15	0.40403	-64	2
338.15	0.51553	-54.5	2
343.15	0.01515	-135.7	18.9
343.15	0.02567	-127.7	10.6
343.15	0.04025	-118.8	6.3
343.15	0.07919	-106.4	3.3
343.15	0.13981	-93.2	2.3
343.15	0.2524	-77.4	2.1
343.15	0.40403	-62.8	2
343.15	0.51553	-53.3	2
348.15	0.01515	-137.4	18.8
348.15	0.02567	-129	10.5
348.15	0.04025	-119.8	6.3
348.15	0.07919	-106.7	3.3
348.15	0.13981	-93.1	2.3
348.15	0.2524	-77	2.1
348.15	0.40403	-62.2	2
348.15	0.51553	-52.7	2
353.15	0.01515	-139.2	18.7
353.15	0.02567	-131	10.5
353.15	0.04025	-121.3	6.2
353.15	0.07919	-107.8	3.2
353.15	0.13981	-93.7	2.3
353.15	0.2524	-77.1	2.1
353.15	0.40403	-62	2
353.15	0.51553	-52.4	2
358.15	0.01515	-142.7	18.7
358.15	0.02567	-134.1	10.4
358.15	0.04025	-123.9	6.1
358.15	0.07919	-109.7	3.2
358.15	0.13981	-95.1	2.3
358.15	0.2524	-78	2.1
358.15	0.40403	-62.4	2
358.15	0.51553	-52.7	2
363.15	0.01515	-147.1	18.6
363.15	0.02567	-137.9	10.3
363.15	0.04025	-127.3	6.1
363.15	0.07919	-112.5	3.2
363.15	0.13981	-97.3	2.3
363.15	0.2524	-79.5	2.1
363.15	0.40403	-63.5	2
363.15	0.51553	-53.5	2
368.15	0.01515	-152.3	18.4
368.15	0.02567	-142.5	10.2
368.15	0.04025	-131.5	6
368.15	0.07919	-116	3.1
368.15	0.13981	-100.1	2.3
368.15	0.2524	-81.6	2.1
368.15	0.40403	-64.9	2
368.15	0.51553	-54.7	2
373.15	0.01515	-158.3	18.3
373.15	0.02567	-147.7	10.1
373.15	0.04025	-136.4	5.9
373.15	0.07919	-120	3
373.15	0.13981	-103.4	2.3
373.15	0.2524	-84	2.1
373.15	0.40403	-66.7	2
373.15	0.51553	-56.1	2
378.15	0.01515	-165.4	18.2
378.15	0.02567	-154.7	9.9
378.15	0.04025	-142.3	5.8
378.15	0.07919	-125.1	3
378.15	0.13981	-107.7	2.3
378.15	0.2524	-87.3	2.1
378.15	0.40403	-69.2	2
378.15	0.51553	-58.2	2
383.15	0.01515	-172.6	18
383.15	0.02567	-161.7	9.8
383.15	0.04025	-148.5	5.6
383.15	0.07919	-130.3	2.9
383.15	0.13981	-112	2.3
383.15	0.2524	-90.6	2.1
383.15	0.40403	-71.7	2.1
383.15	0.51553	-60.2	2
388.15	0.01515	-180.7	17.8
388.15	0.02567	-169.3	9.6
388.15	0.04025	-155.4	5.5
388.15	0.07919	-136.1	2.9
388.15	0.13981	-116.8	2.3
388.15	0.2524	-94.3	2.1
388.15	0.40403	-74.3	2.1
388.15	0.51553	-62.4	2
393.15	0.01515	-189.2	17.6
393.15	0.02567	-177.3	9.4
393.15	0.04025	-162.9	5.4
393.15	0.07919	-142.7	2.8
393.15	0.13981	-122.3	2.2
393.15	0.2524	-98.4	2.1
393.15	0.40403	-77.4	2.1
393.15	0.51553	-65	2

System: water + nickel(II) nitrate; phases: Liquid
Fixed: Pressure, kPa = 350
Property: Apparent molar volume, m3/mol (Liquid); method: Calculated with densities of this investigation
Temperature, K	Molality, mol/kg of nickel(II) nitrate	Apparent molar volume, m3/mol	uncertainty
278.15	0.01515	2.227e-05	1.04e-06
278.15	0.02567	2.186e-05	1.24e-06
278.15	0.04025	2.326e-05	8.9e-07
278.15	0.07919	2.444e-05	6.5e-07
278.15	0.13981	2.582e-05	5.7e-07
278.15	0.2524	2.689e-05	5.4e-07
278.15	0.40403	2.778e-05	6.9e-07
278.15	0.51553	2.821e-05	4.1e-07
283.15	0.01515	2.481e-05	1.3e-06
283.15	0.02567	2.384e-05	1.19e-06
283.15	0.04025	2.575e-05	8.8e-07
283.15	0.07919	2.649e-05	6.6e-07
283.15	0.13981	2.783e-05	6e-07
283.15	0.2524	2.875e-05	5.6e-07
283.15	0.40403	2.957e-05	7e-07
283.15	0.51553	2.994e-05	4.4e-07
288.15	0.01515	2.622e-05	9.5e-07
288.15	0.02567	2.583e-05	1.37e-06
288.15	0.04025	2.789e-05	9.8e-07
288.15	0.07919	2.823e-05	7e-07
288.15	0.13981	2.932e-05	6e-07
288.15	0.2524	3.025e-05	5.7e-07
288.15	0.40403	3.102e-05	7.1e-07
288.15	0.51553	3.136e-05	4.5e-07
298.15	0.01515	2.894e-05	1.25e-06
298.15	0.02567	2.856e-05	1.54e-06
298.15	0.04025	3.011e-05	1.07e-06
298.15	0.07919	3.071e-05	7.3e-07
298.15	0.13981	3.179e-05	5.7e-07
298.15	0.2524	3.26e-05	5.5e-07
298.15	0.40403	3.334e-05	6.9e-07
298.15	0.51553	3.354e-05	4.3e-07
308.15	0.01515	3.048e-05	1.71e-06
308.15	0.02567	3.062e-05	1.29e-06
308.15	0.04025	3.177e-05	9.2e-07
308.15	0.07919	3.232e-05	6.5e-07
308.15	0.13981	3.354e-05	5.4e-07
308.15	0.2524	3.422e-05	5.2e-07
308.15	0.40403	3.505e-05	6.7e-07
308.15	0.51553	3.511e-05	4.1e-07
318.15	0.01515	3.131e-05	1.67e-06
318.15	0.02567	3.183e-05	1.24e-06
318.15	0.04025	3.297e-05	8.9e-07
318.15	0.07919	3.349e-05	6.3e-07
318.15	0.13981	3.465e-05	5.3e-07
318.15	0.2524	3.537e-05	5.2e-07
318.15	0.40403	3.613e-05	6.6e-07
318.15	0.51553	3.623e-05	4e-07
328.15	0.01515	3.226e-05	1.79e-06
328.15	0.02567	3.227e-05	1.21e-06
328.15	0.04025	3.352e-05	8.7e-07
328.15	0.07919	3.423e-05	6.3e-07
328.15	0.13981	3.528e-05	5.3e-07
328.15	0.2524	3.603e-05	5.1e-07
328.15	0.40403	3.678e-05	6.6e-07
328.15	0.51553	3.692e-05	4e-07
338.15	0.01515	3.401e-05	1.48e-06
338.15	0.02567	3.287e-05	1.09e-06
338.15	0.04025	3.397e-05	8e-07
338.15	0.07919	3.461e-05	6.1e-07
338.15	0.13981	3.554e-05	5.3e-07
338.15	0.2524	3.632e-05	5.1e-07
338.15	0.40403	3.71e-05	6.6e-07
338.15	0.51553	3.729e-05	4e-07
348.15	0.01515	3.39e-05	1.32e-06
348.15	0.02567	3.205e-05	9.7e-07
348.15	0.04025	3.391e-05	7.5e-07
348.15	0.07919	3.459e-05	6e-07
348.15	0.13981	3.542e-05	5.5e-07
348.15	0.2524	3.63e-05	5.3e-07
348.15	0.40403	3.714e-05	6.7e-07
348.15	0.51553	3.735e-05	4e-07
358.15	0.01515	3.227e-05	1.07e-06
358.15	0.02567	3.127e-05	8.9e-07
358.15	0.04025	3.3e-05	7.1e-07
358.15	0.07919	3.424e-05	5.9e-07
358.15	0.13981	3.523e-05	5.5e-07
358.15	0.2524	3.614e-05	5.3e-07
358.15	0.40403	3.697e-05	6.8e-07
358.15	0.51553	3.713e-05	4.1e-07
368.15	0.01515	3.104e-05	1.63e-06
368.15	0.02567	3.026e-05	1.01e-06
368.15	0.04025	3.177e-05	7.8e-07
368.15	0.07919	3.262e-05	6.1e-07
368.15	0.13981	3.463e-05	5.7e-07
368.15	0.2524	3.556e-05	5.4e-07
368.15	0.40403	3.644e-05	6.9e-07
368.15	0.51553	3.667e-05	4.1e-07

System: water + nitric acid, zinc salt; phases: Liquid
Fixed: Pressure, kPa = 350
Property: Apparent molar heat capacity, J/K/mol (Liquid); method: Differential flow calorimetry
Temperature, K	Molality, mol/kg of nitric acid, zinc salt	Apparent molar heat capacity, J/K/mol	uncertainty
278.15	0.00619	-266.5	67.2
278.15	0.01063	-263.9	38.7
278.15	0.01801	-265.7	22.4
278.15	0.03142	-265.3	12.7
278.15	0.05781	-252.2	6.7
278.15	0.09707	-239	4.2
278.15	0.16649	-219.8	2.8
278.15	0.26825	-197.7	2.3
278.15	0.44138	-165.5	2
283.15	0.00619	-219.8	66.4
283.15	0.01063	-219.6	38.3
283.15	0.01801	-221.5	22.2
283.15	0.03142	-223	12.7
283.15	0.05781	-210.7	6.8
283.15	0.09707	-199.4	4.2
283.15	0.16649	-182.2	2.7
283.15	0.26825	-162.7	2.2
283.15	0.44138	-134.8	2
288.15	0.00619	-184.3	65.5
288.15	0.01063	-184.6	37.8
288.15	0.01801	-187	22
288.15	0.03142	-188.9	12.5
288.15	0.05781	-178	6.7
288.15	0.09707	-167.5	4.2
288.15	0.16649	-151.7	2.6
288.15	0.26825	-134.5	2.1
288.15	0.44138	-110	1.8
293.15	0.00619	-157.6	64.6
293.15	0.01063	-156.8	37.4
293.15	0.01801	-159.5	21.8
293.15	0.03142	-161.6	12.4
293.15	0.05781	-151.3	6.7
293.15	0.09707	-141.7	4.2
293.15	0.16649	-127.2	2.7
293.15	0.26825	-111.7	2.1
293.15	0.44138	-89.7	1.8
298.15	0.00619	-134.8	63.8
298.15	0.01063	-133.8	36.9
298.15	0.01801	-137.8	21.5
298.15	0.03142	-140.1	12.3
298.15	0.05781	-130.4	6.6
298.15	0.09707	-121.3	4.1
298.15	0.16649	-107.7	2.6
298.15	0.26825	-93.5	2
298.15	0.44138	-73.5	1.8
303.15	0.00619	-119.8	62.6
303.15	0.01063	-117.4	36.3
303.15	0.01801	-121	21.3
303.15	0.03142	-122.8	12.2
303.15	0.05781	-113.5	6.6
303.15	0.09707	-104.4	4.1
303.15	0.16649	-91.6	2.6
303.15	0.26825	-78.2	2
303.15	0.44138	-59.8	1.8
308.15	0.00619	-107.5	61.6
308.15	0.01063	-103.3	35.8
308.15	0.01801	-107.2	21
308.15	0.03142	-109.6	12
308.15	0.05781	-99.7	6.5
308.15	0.09707	-91.1	4
308.15	0.16649	-78.5	2.6
308.15	0.26825	-65.9	2
308.15	0.44138	-48.7	1.7
313.15	0.00619	-98.3	60.5
313.15	0.01063	-93.6	35.1
313.15	0.01801	-97.1	20.6
313.15	0.03142	-98.7	11.8
313.15	0.05781	-88.8	6.4
313.15	0.09707	-79.9	4
313.15	0.16649	-67.7	2.5
313.15	0.26825	-55.6	2
313.15	0.44138	-39.4	1.7
318.15	0.00619	-91.8	59.4
318.15	0.01063	-85.4	34.5
318.15	0.01801	-88.9	20.2
318.15	0.03142	-90.6	11.6
318.15	0.05781	-80.2	6.3
318.15	0.09707	-71.1	4
318.15	0.16649	-59.1	2.6
318.15	0.26825	-47.4	2
318.15	0.44138	-31.8	1.7
323.15	0.00619	-85	58.4
323.15	0.01063	-79.6	33.9
323.15	0.01801	-82.8	19.9
323.15	0.03142	-83.8	11.4
323.15	0.05781	-73.4	6.2
323.15	0.09707	-64.1	3.9
323.15	0.16649	-52.1	2.5
323.15	0.26825	-40.5	1.9
323.15	0.44138	-25.4	1.7
328.15	0.00619	-81.2	57.3
328.15	0.01063	-76.1	33.3
328.15	0.01801	-78.5	19.5
328.15	0.03142	-79.1	11.2
328.15	0.05781	-68.3	6.1
328.15	0.09707	-58.6	3.9
328.15	0.16649	-46.6	2.5
328.15	0.26825	-34.9	1.9
328.15	0.44138	-20.1	1.8
333.15	0.00619	-77.6	56.2
333.15	0.01063	-72.4	32.6
333.15	0.01801	-74.9	19.1
333.15	0.03142	-75.6	11
333.15	0.05781	-64.1	6
333.15	0.09707	-54.2	3.8
333.15	0.16649	-42	2.5
333.15	0.26825	-30.3	2
333.15	0.44138	-15.6	1.7
338.15	0.00619	-75.9	55
338.15	0.01063	-70.5	31.9
338.15	0.01801	-72.9	18.7
338.15	0.03142	-72.9	10.8
338.15	0.05781	-61.2	5.9
338.15	0.09707	-50.9	3.8
338.15	0.16649	-38.3	2.5
338.15	0.26825	-26.5	1.9
338.15	0.44138	-11.8	1.7
343.15	0.00619	-75.2	53.9
343.15	0.01063	-69.5	31.3
343.15	0.01801	-71.5	18.3
343.15	0.03142	-71.4	10.6
343.15	0.05781	-59.5	5.8
343.15	0.09707	-48.8	3.7
343.15	0.16649	-35.9	2.4
343.15	0.26825	-23.8	1.9
343.15	0.44138	-8.9	1.7
348.15	0.00619	-74.8	52.9
348.15	0.01063	-69	30.7
348.15	0.01801	-71.1	17.9
348.15	0.03142	-70.9	10.4
348.15	0.05781	-58.7	5.6
348.15	0.09707	-47.6	3.7
348.15	0.16649	-34.2	2.4
348.15	0.26825	-21.7	1.9
348.15	0.44138	-6.6	1.7
353.15	0.00619	-77.2	51.8
353.15	0.01063	-71	30
353.15	0.01801	-72.3	17.5
353.15	0.03142	-71.4	10.1
353.15	0.05781	-58.7	5.6
353.15	0.09707	-47.1	3.6
353.15	0.16649	-33.1	2.3
353.15	0.26825	-20.1	1.9
353.15	0.44138	-4.6	1.7
358.15	0.00619	-79.7	50.7
358.15	0.01063	-73.4	29.3
358.15	0.01801	-73.9	17.1
358.15	0.03142	-72.5	9.9
358.15	0.05781	-59.4	5.4
358.15	0.09707	-47.3	3.5
358.15	0.16649	-32.6	2.2
358.15	0.26825	-19.1	1.8
358.15	0.44138	-3.1	1.6
363.15	0.00619	-82.8	49.7
363.15	0.01063	-77.2	28.7
363.15	0.01801	-76.7	16.7
363.15	0.03142	-74.3	9.6
363.15	0.05781	-60.9	5.2
363.15	0.09707	-48.2	3.4
363.15	0.16649	-32.9	2.2
363.15	0.26825	-18.8	1.8
363.15	0.44138	-2.2	1.6
368.15	0.00619	-87.4	48.9
368.15	0.01063	-80.5	28.1
368.15	0.01801	-79.5	16.4
368.15	0.03142	-76.8	9.4
368.15	0.05781	-62.8	5.1
368.15	0.09707	-49.6	3.3
368.15	0.16649	-33.4	2.1
368.15	0.26825	-18.7	1.8
368.15	0.44138	-1.4	1.6
373.15	0.00619	-92	48.8
373.15	0.01063	-85	28
373.15	0.01801	-83.1	16.1
373.15	0.03142	-79.6	9.1
373.15	0.05781	-65.2	4.9
373.15	0.09707	-51.3	3.2
373.15	0.16649	-34.5	2.1
373.15	0.26825	-19	1.7
373.15	0.44138	-1	1.6
378.15	0.00619	-99.1	48.7
378.15	0.01063	-91.3	27.9
378.15	0.01801	-88.3	16
378.15	0.03142	-84.2	8.9
378.15	0.05781	-68.9	4.8
378.15	0.09707	-54.2	3.1
378.15	0.16649	-36.3	2
378.15	0.26825	-20	1.7
378.15	0.44138	-1	1.6
383.15	0.00619	-105.5	48.6
383.15	0.01063	-96.7	27.8
383.15	0.01801	-93.5	15.9
383.15	0.03142	-88.2	8.7
383.15	0.05781	-72.5	4.6
383.15	0.09707	-57	3
383.15	0.16649	-38.2	1.9
383.15	0.26825	-21	1.7
383.15	0.44138	-0.9	1.5
388.15	0.00619	-113.5	48.4
388.15	0.01063	-103.9	27.6
388.15	0.01801	-100	15.8
388.15	0.03142	-93.1	8.5
388.15	0.05781	-76.8	4.4
388.15	0.09707	-60.5	2.8
388.15	0.16649	-40.7	1.9
388.15	0.26825	-22.4	1.6
388.15	0.44138	-1.2	1.5
393.15	0.00619	-122.6	48.2
393.15	0.01063	-111.2	27.5
393.15	0.01801	-106.5	15.6
393.15	0.03142	-98.6	8.4
393.15	0.05781	-81.4	4.2
393.15	0.09707	-64.2	2.7
393.15	0.16649	-43.4	1.8
393.15	0.26825	-23.9	1.6
393.15	0.44138	-1.4	1.5

System: water + nitric acid, zinc salt; phases: Liquid
Fixed: Pressure, kPa = 350
Property: Apparent molar volume, m3/mol (Liquid); method: Calculated with densities of this investigation
Temperature, K	Molality, mol/kg of nitric acid, zinc salt	Apparent molar volume, m3/mol	uncertainty
278.15	0.00619	4.297e-05	1.009e-05
278.15	0.01063	3.16e-05	5.77e-06
278.15	0.01801	3.198e-05	3.44e-06
278.15	0.03142	3.074e-05	1.21e-06
278.15	0.05781	2.841e-05	8.4e-07
278.15	0.09707	2.96e-05	6.9e-07
278.15	0.16649	2.936e-05	1.48e-06
278.15	0.26825	3.023e-05	1.02e-06
278.15	0.44138	3.326e-05	7.6e-07
283.15	0.00619	1.99e-05	1.883e-05
283.15	0.01063	1.789e-05	1.097e-05
283.15	0.01801	2.585e-05	6.5e-06
283.15	0.03142	3.192e-05	2.17e-06
283.15	0.05781	3.015e-05	1.27e-06
283.15	0.09707	2.956e-05	8.9e-07
283.15	0.16649	3.123e-05	1.16e-06
283.15	0.26825	3.176e-05	8.4e-07
283.15	0.44138	3.456e-05	6.6e-07
288.15	0.00619	4.424e-05	1.448e-05
288.15	0.01063	3.531e-05	8.38e-06
288.15	0.01801	3.452e-05	4.95e-06
288.15	0.03142	3.419e-05	1.65e-06
288.15	0.05781	3.198e-05	9.9e-07
288.15	0.09707	3.298e-05	7e-07
288.15	0.16649	3.297e-05	1.2e-06
288.15	0.26825	3.376e-05	8.3e-07
288.15	0.44138	3.568e-05	6.2e-07
298.15	0.00619	4.672e-05	1.488e-05
298.15	0.01063	4.076e-05	8.63e-06
298.15	0.01801	3.714e-05	5.08e-06
298.15	0.03142	3.626e-05	1.4e-06
298.15	0.05781	3.46e-05	8.5e-07
298.15	0.09707	3.561e-05	6.3e-07
298.15	0.16649	3.56e-05	1.06e-06
298.15	0.26825	3.624e-05	7.4e-07
298.15	0.44138	3.832e-05	5.6e-07
308.15	0.00619	4.813e-05	1.654e-05
308.15	0.01063	4.338e-05	9.59e-06
308.15	0.01801	3.882e-05	5.65e-06
308.15	0.03142	3.743e-05	2.04e-06
308.15	0.05781	3.651e-05	1.16e-06
308.15	0.09707	3.741e-05	7.7e-07
308.15	0.16649	3.751e-05	1.03e-06
308.15	0.26825	3.809e-05	7.1e-07
308.15	0.44138	3.999e-05	5.3e-07
318.15	0.00619	5.148e-05	1.769e-05
318.15	0.01063	4.276e-05	1.024e-05
318.15	0.01801	4.121e-05	6.04e-06
318.15	0.03142	3.942e-05	1.36e-06
318.15	0.05781	3.855e-05	8.1e-07
318.15	0.09707	3.937e-05	5.8e-07
318.15	0.16649	3.885e-05	9.7e-07
318.15	0.26825	3.976e-05	6.7e-07
318.15	0.44138	4.145e-05	5e-07
328.15	0.00619	4.608e-05	2.727e-05
328.15	0.01063	4.199e-05	1.587e-05
328.15	0.01801	3.813e-05	9.35e-06
328.15	0.03142	4.099e-05	1.47e-06
328.15	0.05781	4.117e-05	8.5e-07
328.15	0.09707	4.09e-05	5.9e-07
328.15	0.16649	3.99e-05	9.1e-07
328.15	0.26825	4.065e-05	6.3e-07
328.15	0.44138	4.248e-05	4.7e-07
338.15	0.00619	4.965e-05	2.124e-05
338.15	0.01063	4.273e-05	1.233e-05
338.15	0.01801	4.088e-05	7.27e-06
338.15	0.03142	3.956e-05	6.3e-07
338.15	0.05781	3.978e-05	4.5e-07
338.15	0.09707	3.982e-05	3.8e-07
338.15	0.16649	4.071e-05	6.2e-07
338.15	0.26825	4.101e-05	4.6e-07
338.15	0.44138	4.248e-05	3.8e-07
348.15	0.00619	4.846e-05	2.003e-05
348.15	0.01063	4.326e-05	1.164e-05
348.15	0.01801	4.1e-05	6.86e-06
348.15	0.03142	3.937e-05	8.7e-07
348.15	0.05781	3.959e-05	5.5e-07
348.15	0.09707	3.989e-05	4.2e-07
348.15	0.16649	4.085e-05	6.2e-07
348.15	0.26825	4.124e-05	4.6e-07
348.15	0.44138	4.266e-05	3.7e-07
358.15	0.00619	4.404e-05	2.12e-05
358.15	0.01063	4.2e-05	1.234e-05
358.15	0.01801	4.085e-05	7.28e-06
358.15	0.03142	3.924e-05	7.3e-07
358.15	0.05781	3.957e-05	4.9e-07
358.15	0.09707	3.971e-05	4e-07
358.15	0.16649	4.073e-05	5.7e-07
358.15	0.26825	4.12e-05	4.4e-07
358.15	0.44138	4.253e-05	3.7e-07
368.15	0.00619	4.472e-05	1.859e-05
368.15	0.01063	4.225e-05	1.081e-05
368.15	0.01801	3.882e-05	6.36e-06
368.15	0.03142	3.914e-05	7.6e-07
368.15	0.05781	3.89e-05	4.9e-07
368.15	0.09707	3.953e-05	3.9e-07
368.15	0.16649	4.052e-05	5.5e-07
368.15	0.26825	4.111e-05	4.3e-07
368.15	0.44138	4.23e-05	3.5e-07

System: copper dinitrate + water; phases: Liquid
Fixed: Pressure, kPa = 350
Property: Apparent molar heat capacity, J/K/mol (Liquid); method: Differential flow calorimetry
Temperature, K	Molality, mol/kg of copper dinitrate	Apparent molar heat capacity, J/K/mol	uncertainty
278.15	0.01481	-286.5	18.6
278.15	0.01976	-281	13.5
278.15	0.02953	-272.8	8.6
278.15	0.04938	-272	4.4
278.15	0.07897	-254	2.3
278.15	0.13783	-236	1.1
278.15	0.24673	-208.6	0.9
278.15	0.39055	-178.6	1.9
278.15	0.49567	-159.3	1.5
283.15	0.01481	-242.3	19
283.15	0.01976	-236.9	13.8
283.15	0.02953	-228.9	9
283.15	0.04938	-228	4.7
283.15	0.07897	-211.8	2.5
283.15	0.13783	-196	1.2
283.15	0.24673	-172.1	0.7
283.15	0.39055	-146.5	1.7
283.15	0.49567	-129.7	1.4
288.15	0.01481	-207.7	19.4
288.15	0.01976	-202.4	14.2
288.15	0.02953	-194.8	9.3
288.15	0.04938	-194.1	5
288.15	0.07897	-179.2	2.8
288.15	0.13783	-165	1.3
288.15	0.24673	-143.7	0.7
288.15	0.39055	-121	1.6
288.15	0.49567	-106.3	1.2
293.15	0.01481	-180.9	19.7
293.15	0.01976	-176.1	14.5
293.15	0.02953	-168.8	9.5
293.15	0.04938	-167.7	5.3
293.15	0.07897	-153.6	3
293.15	0.13783	-140.4	1.5
293.15	0.24673	-121	0.7
293.15	0.39055	-100.6	1.6
293.15	0.49567	-87.4	1.2
298.15	0.01481	-159.7	20.1
298.15	0.01976	-154.9	14.8
298.15	0.02953	-148	9.8
298.15	0.04938	-146.9	5.5
298.15	0.07897	-133.4	3.2
298.15	0.13783	-121.1	1.6
298.15	0.24673	-103.1	0.8
298.15	0.39055	-84.5	1.5
298.15	0.49567	-72.4	1.2
303.15	0.01481	-142.2	20.4
303.15	0.01976	-138	15.1
303.15	0.02953	-131.4	10
303.15	0.04938	-130.1	5.6
303.15	0.07897	-117.2	3.3
303.15	0.13783	-105.4	1.7
303.15	0.24673	-88.4	0.8
303.15	0.39055	-71.1	1.5
303.15	0.49567	-59.9	1.2
308.15	0.01481	-129.3	20.8
308.15	0.01976	-125.1	15.3
308.15	0.02953	-118.4	10.2
308.15	0.04938	-117.1	5.8
308.15	0.07897	-104.5	3.5
308.15	0.13783	-93	1.8
308.15	0.24673	-76.8	0.9
308.15	0.39055	-60.5	1.5
308.15	0.49567	-50	1.2
313.15	0.01481	-118.9	21.1
313.15	0.01976	-114.5	15.6
313.15	0.02953	-108	10.4
313.15	0.04938	-106.5	5.9
313.15	0.07897	-94.2	3.6
313.15	0.13783	-82.9	1.9
313.15	0.24673	-67.3	1
313.15	0.39055	-51.6	1.5
313.15	0.49567	-41.7	1.2
318.15	0.01481	-110.9	21.4
318.15	0.01976	-106.9	15.9
318.15	0.02953	-100.7	10.5
318.15	0.04938	-99	6.1
318.15	0.07897	-86.7	3.6
318.15	0.13783	-75.4	1.9
318.15	0.24673	-60	1
318.15	0.39055	-44.9	1.5
318.15	0.49567	-35.3	1.2
323.15	0.01481	-105.1	21.7
323.15	0.01976	-101.1	16.1
323.15	0.02953	-94.9	10.7
323.15	0.04938	-93.2	6.2
323.15	0.07897	-80.7	3.8
323.15	0.13783	-69.5	2
323.15	0.24673	-54.2	1.1
323.15	0.39055	-39.4	1.5
323.15	0.49567	-30.1	1.2
328.15	0.01481	-101.1	22.1
328.15	0.01976	-97.1	16.3
328.15	0.02953	-90.9	10.9
328.15	0.04938	-88.8	6.3
328.15	0.07897	-76.4	3.8
328.15	0.13783	-65	2.1
328.15	0.24673	-49.7	1.1
328.15	0.39055	-35.1	1.5
328.15	0.49567	-26	1.2
333.15	0.01481	-98.7	22.4
333.15	0.01976	-94.3	16.6
333.15	0.02953	-88	11.1
333.15	0.04938	-85.7	6.4
333.15	0.07897	-73.1	3.9
333.15	0.13783	-61.6	2.1
333.15	0.24673	-46.3	1.1
333.15	0.39055	-31.7	1.6
333.15	0.49567	-22.6	1.3
338.15	0.01481	-97.8	22.8
338.15	0.01976	-93	16.9
338.15	0.02953	-86.4	11.3
338.15	0.04938	-83.9	6.6
338.15	0.07897	-71.1	4
338.15	0.13783	-59.3	2.2
338.15	0.24673	-43.7	1.2
338.15	0.39055	-29.1	1.6
338.15	0.49567	-20.1	1.3
343.15	0.01481	-97.6	23.1
343.15	0.01976	-92.9	17.2
343.15	0.02953	-86.4	11.5
343.15	0.04938	-83.4	6.6
343.15	0.07897	-70.5	4.1
343.15	0.13783	-58.3	2.2
343.15	0.24673	-42.3	1.2
343.15	0.39055	-27.5	1.6
343.15	0.49567	-18.5	1.3
348.15	0.01481	-98.8	23.4
348.15	0.01976	-94	17.4
348.15	0.02953	-87	11.6
348.15	0.04938	-84	6.7
348.15	0.07897	-70.5	4.1
348.15	0.13783	-57.9	2.2
348.15	0.24673	-41.5	1.3
348.15	0.39055	-26.5	1.6
348.15	0.49567	-17.4	1.3
353.15	0.01481	-100.2	23.9
353.15	0.01976	-95.7	17.7
353.15	0.02953	-88.7	11.8
353.15	0.04938	-85	6.8
353.15	0.07897	-71.3	4.2
353.15	0.13783	-58.2	2.4
353.15	0.24673	-41.3	1.3
353.15	0.39055	-25.9	1.7
353.15	0.49567	-16.6	1.3
358.15	0.01481	-103	24.3
358.15	0.01976	-98.3	18
358.15	0.02953	-90.9	12
358.15	0.04938	-86.9	7
358.15	0.07897	-72.8	4.3
358.15	0.13783	-59.2	2.3
358.15	0.24673	-41.7	1.3
358.15	0.39055	-25.8	1.7
358.15	0.49567	-16.4	1.3
363.15	0.01481	-106.4	24.7
363.15	0.01976	-101.8	18.3
363.15	0.02953	-94.2	12.2
363.15	0.04938	-89.8	7.1
363.15	0.07897	-75.2	4.3
363.15	0.13783	-60.9	2.4
363.15	0.24673	-42.8	1.4
363.15	0.39055	-26.3	1.7
363.15	0.49567	-16.6	1.3
368.15	0.01481	-111.1	25.1
368.15	0.01976	-106.4	18.6
368.15	0.02953	-98.5	12.4
368.15	0.04938	-93.3	7.2
368.15	0.07897	-78.3	4.4
368.15	0.13783	-63.3	2.5
368.15	0.24673	-44.3	1.4
368.15	0.39055	-27.2	1.7
368.15	0.49567	-17.2	1.4
373.15	0.01481	-117	25.5
373.15	0.01976	-111.4	18.9
373.15	0.02953	-103	12.6
373.15	0.04938	-97.5	7.3
373.15	0.07897	-81.7	4.4
373.15	0.13783	-66	2.4
373.15	0.24673	-46.1	1.4
373.15	0.39055	-28.3	1.6
373.15	0.49567	-18	1.3
378.15	0.01481	-123.3	25.9
378.15	0.01976	-117.4	19.2
378.15	0.02953	-108.8	12.8
378.15	0.04938	-102.4	7.4
378.15	0.07897	-86.2	4.5
378.15	0.13783	-69.6	2.5
378.15	0.24673	-48.5	1.4
378.15	0.39055	-30	1.7
378.15	0.49567	-19.2	1.3
383.15	0.01481	-129.9	26.4
383.15	0.01976	-123.5	19.6
383.15	0.02953	-114.7	12.9
383.15	0.04938	-107.7	7.5
383.15	0.07897	-90.7	4.6
383.15	0.13783	-73.2	2.6
383.15	0.24673	-50.9	1.6
383.15	0.39055	-31.4	1.7
383.15	0.49567	-20.3	1.3
388.15	0.01481	-136.7	26.8
388.15	0.01976	-130.2	19.9
388.15	0.02953	-121	13.2
388.15	0.04938	-113.5	7.6
388.15	0.07897	-95.7	4.6
388.15	0.13783	-77.1	2.6
388.15	0.24673	-53.7	1.7
388.15	0.39055	-32.8	1.7
388.15	0.49567	-21.6	1.4
393.15	0.01481	-144	27.3
393.15	0.01976	-137.4	20.3
393.15	0.02953	-128.4	13.4
393.15	0.04938	-119.9	7.8
393.15	0.07897	-101.4	4.7
393.15	0.13783	-81.7	2.6
393.15	0.24673	-57	1.6
393.15	0.39055	-34.7	1.7
393.15	0.49567	-23.3	1.4

System: copper dinitrate + water; phases: Liquid
Fixed: Pressure, kPa = 350
Property: Apparent molar volume, m3/mol (Liquid); method: Calculated with densities of this investigation
Temperature, K	Molality, mol/kg of copper dinitrate	Apparent molar volume, m3/mol	uncertainty
278.15	0.01481	2.069e-05	3.09e-06
278.15	0.01976	2.339e-05	2.31e-06
278.15	0.02953	2.41e-05	1.55e-06
278.15	0.04938	2.409e-05	9.2e-07
278.15	0.07897	2.773e-05	5.8e-07
278.15	0.13783	2.86e-05	3.3e-07
278.15	0.24673	2.995e-05	1.9e-07
278.15	0.39055	3.02e-05	3.9e-07
278.15	0.49567	3.088e-05	3e-07
283.15	0.01481	2.301e-05	2.58e-06
283.15	0.01976	2.526e-05	1.94e-06
283.15	0.02953	2.65e-05	1.32e-06
283.15	0.04938	2.604e-05	8e-07
283.15	0.07897	3.001e-05	5.2e-07
283.15	0.13783	3.063e-05	3.4e-07
283.15	0.24673	3.198e-05	2.5e-07
283.15	0.39055	3.199e-05	4.3e-07
283.15	0.49567	3.276e-05	3.5e-07
288.15	0.01481	2.408e-05	2.3e-06
288.15	0.01976	2.609e-05	1.74e-06
288.15	0.02953	2.851e-05	1.18e-06
288.15	0.04938	2.784e-05	7.3e-07
288.15	0.07897	3.173e-05	5e-07
288.15	0.13783	3.246e-05	3.4e-07
288.15	0.24673	3.36e-05	2.7e-07
288.15	0.39055	3.349e-05	4.4e-07
288.15	0.49567	3.425e-05	3.6e-07
298.15	0.01481	2.77e-05	2.71e-06
298.15	0.01976	2.883e-05	2.03e-06
298.15	0.02953	3.195e-05	1.37e-06
298.15	0.04938	3.072e-05	8.4e-07
298.15	0.07897	3.439e-05	5.5e-07
298.15	0.13783	3.501e-05	3.5e-07
298.15	0.24673	3.58e-05	2.6e-07
298.15	0.39055	3.586e-05	4.2e-07
298.15	0.49567	3.652e-05	3.4e-07
308.15	0.01481	3.132e-05	3.01e-06
308.15	0.01976	3.204e-05	2.26e-06
308.15	0.02953	3.487e-05	1.52e-06
308.15	0.04938	3.281e-05	9.1e-07
308.15	0.07897	3.63e-05	5.8e-07
308.15	0.13783	3.676e-05	3.5e-07
308.15	0.24673	3.754e-05	2.2e-07
308.15	0.39055	3.759e-05	4e-07
308.15	0.49567	3.816e-05	3.1e-07
318.15	0.01481	3.476e-05	3.51e-06
318.15	0.01976	3.486e-05	2.63e-06
318.15	0.02953	3.714e-05	1.77e-06
318.15	0.04938	3.413e-05	1.05e-06
318.15	0.07897	3.754e-05	6.7e-07
318.15	0.13783	3.793e-05	3.9e-07
318.15	0.24673	3.87e-05	2.3e-07
318.15	0.39055	3.876e-05	3.9e-07
318.15	0.49567	3.933e-05	3.1e-07
328.15	0.01481	3.594e-05	3.97e-06
328.15	0.01976	3.54e-05	2.97e-06
328.15	0.02953	3.78e-05	1.99e-06
328.15	0.04938	3.499e-05	1.19e-06
328.15	0.07897	3.814e-05	7.4e-07
328.15	0.13783	3.865e-05	4.3e-07
328.15	0.24673	3.943e-05	2.5e-07
328.15	0.39055	3.963e-05	3.9e-07
328.15	0.49567	4.014e-05	3.1e-07
338.15	0.01481	3.656e-05	4.15e-06
338.15	0.01976	3.552e-05	3.11e-06
338.15	0.02953	3.81e-05	2.08e-06
338.15	0.04938	3.558e-05	1.24e-06
338.15	0.07897	3.835e-05	7.8e-07
338.15	0.13783	3.899e-05	4.4e-07
338.15	0.24673	3.984e-05	2.6e-07
338.15	0.39055	4.013e-05	3.9e-07
338.15	0.49567	4.064e-05	3.1e-07
348.15	0.01481	3.769e-05	5.09e-06
348.15	0.01976	3.746e-05	3.81e-06
348.15	0.02953	3.819e-05	2.55e-06
348.15	0.04938	3.565e-05	1.53e-06
348.15	0.07897	3.817e-05	9.5e-07
348.15	0.13783	3.896e-05	5.5e-07
348.15	0.24673	3.985e-05	3.2e-07
348.15	0.39055	4.031e-05	4.2e-07
348.15	0.49567	4.086e-05	3.3e-07
358.15	0.01481	3.711e-05	6.51e-06
358.15	0.01976	3.723e-05	4.87e-06
358.15	0.02953	3.841e-05	3.27e-06
358.15	0.04938	3.545e-05	1.95e-06
358.15	0.07897	3.773e-05	1.21e-06
358.15	0.13783	3.872e-05	7e-07
358.15	0.24673	3.954e-05	4e-07
358.15	0.39055	4.019e-05	4.5e-07
358.15	0.49567	4.077e-05	3.5e-07
368.15	0.01481	3.857e-05	8.25e-06
368.15	0.01976	3.911e-05	6.18e-06
368.15	0.02953	3.883e-05	4.13e-06
368.15	0.04938	3.479e-05	2.47e-06
368.15	0.07897	3.715e-05	1.54e-06
368.15	0.13783	3.824e-05	8.9e-07
368.15	0.24673	3.893e-05	4.9e-07
368.15	0.39055	3.988e-05	4.9e-07
368.15	0.49567	4.042e-05	3.8e-07
