Measured thermophysical data. Solubility and physical properties of sugars in pressurized water
Source: J. Chem. Thermodyn., 2012, 10.1016/j.jct.2012.06.016
Compound 1: D-glucose, C6H12O6, InChI=1S/C6H12O6/c7-1-3(9)5(11)6(12)4(10)2-8/h1,3-6,8-12H,2H2/t3-,4+,5+,6+/m0/s1, purity 99.9%
Compound 2: 4-O-.beta.-D-galactopyranosyl-D-glucose, C12H22O11, InChI=1S/C12H22O11/c13-1-4(16)7(18)11(5(17)2-14)23-12-10(21)9(20)8(19)6(3-15)22-12/h1,4-12,14-21H,2-3H2/t4-,5+,6+,7+,8-,9-,10+,11+,12-/m0/s1, purity 99.9%
Compound 3: water, H2O, InChI=1S/H2O/h1H2, purity 99.8%

System: D-glucose + water; phases: Liquid
Fixed: Temperature, K = 293.15
Fixed: Pressure, kPa = 101
Property: Refractive index (Na D-line) (Liquid); method: Standard Abbe refractometry
Mass ratio of solute to solvent of D-glucose	Refractive index (Na D-line)	uncertainty
0	1.33299	0.00031
0.001	1.33314	0.00031
0.0029	1.33341	0.00031
0.0064	1.33389	0.00031
0.0103	1.33445	0.00031
0.0239	1.33637	0.00031
0.0433	1.33903	0.00031
0.0615	1.34144	0.00031
0.0771	1.34345	0.00031
0.0857	1.34459	0.00031
0.119	1.3487	0.00031
0.1389	1.35116	0.00031
0.1638	1.35412	0.00031
0.1906	1.35708	0.00031
0.2512	1.36375	0.00031
0.414	1.3794	0.00031
0.516	1.38794	0.00031
0.6267	1.39602	0.00031

System: D-glucose + water; phases: Liquid
Fixed: Temperature, K = 293.15
Fixed: Pressure, kPa = 101
Property: Mass density, kg/m3 (Liquid); method: Vibrating tube method
Mass ratio of solute to solvent of D-glucose	Mass density, kg/m3	uncertainty
0	996.48	0.11
0.001	999.05	0.11
0.0029	999.75	0.11
0.0064	1001.04	0.11
0.0103	1002.47	0.11
0.0239	1007.42	0.11
0.0433	1014.38	0.11
0.0615	1020.8	0.11
0.0771	1026.22	0.11
0.0857	1029.17	0.11
0.119	1040.37	0.11
0.1389	1046.89	0.11
0.1638	1054.86	0.12
0.1906	1063.22	0.12
0.2512	1081.25	0.12
0.414	1123.74	0.13
0.516	1145.94	0.13
0.6267	1166.18	0.14

System: D-glucose + water; phases: Liquid, Crystal
Property: Mass ratio of solute to solvent (Liquid); method: Dynamic Flow High Pressure System
Temperature, K	Pressure, kPa	Mass ratio of solute to solvent	uncertainty
303	1500	0.508	0.124
303	8000	0.411	0.056
303	12000	0.424	0.048
323	1500	0.659	0.052
323	8000	0.52	0.024
323	12000	0.514	0.04
343	1500	0.768	0.068
343	8000	0.632	0.136
343	12000	0.635	0.064
373	1500	1.442	0.8
373	8000	1.201	0.232
373	12000	1.165	0.04
393	1500	1.964	0.772
393	8000	1.613	0.172
393	12000	1.554	0.14
413	1500	3.086	1.62
413	8000	2.313	0.344
413	12000	2.167	0.412
433	1500	4.239	1.38
433	8000	2.883	0.602
433	12000	2.606	0.1

System: D-glucose + water; phases: Liquid
Property: Mass density, kg/m3 (Liquid); method: Vibrating tube method
Temperature, K	Pressure, kPa	Mass ratio of solute to solvent of D-glucose	Mass density, kg/m3	uncertainty
298.15	100	0.0128	1002.09	0.11
298.15	100	0.1151	1037.47	0.11
298.15	100	0.6732	1171.64	0.14
313.15	100	0.0128	997.17	0.11
313.15	100	0.1151	1032.03	0.11
313.15	100	0.6732	1164.49	0.14
313.15	10000	0.0128	1000.94	0.11
313.15	10000	0.1151	1034.14	0.12
313.15	10000	0.6732	1167.4	0.18
313.15	20000	0.0128	1005.52	0.11
313.15	20000	0.1151	1038.12	0.13
313.15	20000	0.6732	1169.25	0.24
313.15	30000	0.0128	1009.25	0.11
313.15	30000	0.1151	1041.87	0.14
313.15	30000	0.6732	1173.41	0.31
328.15	100	0.0128	990.59	0.11
328.15	100	0.1151	1025.5	0.11
328.15	100	0.6732	1156.19	0.13
328.15	10000	0.0128	994.33	0.11
328.15	10000	0.1151	1027	0.11
328.15	10000	0.6732	1150.99	0.17
328.15	20000	0.0128	999.88	0.11
328.15	20000	0.1151	1031.35	0.12
328.15	20000	0.6732	1157.02	0.22
328.15	30000	0.0128	1002.75	0.11
328.15	30000	0.1151	1035.22	0.13
328.15	30000	0.6732	1156.38	0.28
343.15	100	0.0128	982.63	0.11
343.15	100	0.1151	1018.18	0.11
343.15	100	0.6732	1147.6	0.13
343.15	10000	0.0128	986.42	0.11
343.15	10000	0.1151	1018.81	0.11
343.15	10000	0.6732	1141.89	0.17
343.15	20000	0.0128	990.99	0.11
343.15	20000	0.1151	1023.41	0.12
343.15	20000	0.6732	1146.12	0.21
343.15	30000	0.0128	995.01	0.11
343.15	30000	0.1151	1027.03	0.13
343.15	30000	0.6732	1148.36	0.27

System: 4-O-.beta.-D-galactopyranosyl-D-glucose + water; phases: Liquid
Fixed: Temperature, K = 293.15
Fixed: Pressure, kPa = 101
Property: Refractive index (Na D-line) (Liquid); method: Standard Abbe refractometry
Mass ratio of solute to solvent of 4-O-.beta.-D-galactopyranosyl-D-glucose	Refractive index (Na D-line)	uncertainty
0	1.33299	0.00031
0.001	1.33315	0.00031
0.001	1.33316	0.00031
0.0024	1.33335	0.00031
0.0034	1.3335	0.00031
0.0052	1.33375	0.00031
0.0087	1.3342	0.00031
0.0126	1.33473	0.00031
0.0222	1.33603	0.00031
0.0321	1.3374	0.00031
0.0429	1.33881	0.00031
0.0595	1.341	0.00031
0.0677	1.34207	0.00031
0.0769	1.34324	0.00031
0.0902	1.34498	0.00031
0.1015	1.34636	0.00031
0.1159	1.34791	0.00031
0.1392	1.35108	0.00031

System: 4-O-.beta.-D-galactopyranosyl-D-glucose + water; phases: Liquid
Fixed: Temperature, K = 293.15
Fixed: Pressure, kPa = 101000
Property: Mass density, kg/m3 (Liquid); method: Vibrating tube method
Mass ratio of solute to solvent of 4-O-.beta.-D-galactopyranosyl-D-glucose	Mass density, kg/m3	uncertainty
0	996.48	0.11
0.001	999.02	0.11
0.001	999.02	0.11
0.0024	999.58	0.11
0.0034	999.98	0.11
0.0052	1000.69	0.11
0.0087	1002.05	0.11
0.0126	1003.52	0.11
0.0222	1006.99	0.12
0.0321	1010.31	0.13
0.0429	1013.64	0.13
0.0595	1018.17	0.15
0.0677	1020.14	0.15
0.0769	1022.15	0.16
0.0902	1024.66	0.17
0.1015	1026.43	0.17
0.1159	1028.2	0.18
0.1392	1029.92	0.18

System: 4-O-.beta.-D-galactopyranosyl-D-glucose + water; phases: Liquid, Crystal
Property: Mass ratio of solute to solvent (Liquid); method: Dynamic Flow High Pressure System
Temperature, K	Pressure, kPa	Mass ratio of solute to solvent	uncertainty
303	1500	0.165	0.004
303	8000	0.154	0.004
303	12000	0.144	0.004
323	1500	0.274	0.052
323	8000	0.241	0.004
323	12000	0.244	0.004
343	1500	0.44	0.172
343	8000	0.36	0.004
343	12000	0.341	0.004
373	1500	0.643	0.332
373	8000	0.554	0.024
373	12000	0.527	0.004
393	1500	0.781	0.056
393	8000	0.715	0.028
393	12000	0.711	0.088
413	1500	0.94	0.066
413	8000	0.886	0.284
413	12000	0.841	0.352
423	1500	1.109	0.072
423	8000	1.014	0.112
423	12000	0.981	0.008

System: 4-O-.beta.-D-galactopyranosyl-D-glucose + water; phases: Liquid
Property: Mass density, kg/m3 (Liquid); method: Vibrating tube method
Temperature, K	Pressure, kPa	Mass ratio of solute to solvent of 4-O-.beta.-D-galactopyranosyl-D-glucose	Mass density, kg/m3	uncertainty
298.15	100	0.00102	997.63	0.11
298.15	100	0.01265	1001.71	0.11
298.15	100	0.09015	1023.63	0.11
313.15	100	0.00102	992.79	0.11
313.15	100	0.01265	996.82	0.11
313.15	100	0.09015	1016.85	0.11
313.15	10000	0.00102	996.41	0.11
313.15	10000	0.01265	999.6	0.11
313.15	10000	0.09015	1020.86	0.11
313.15	20000	0.00102	1000.71	0.11
313.15	20000	0.01265	1004.27	0.11
313.15	20000	0.09015	1025.2	0.12
313.15	30000	0.00102	1004.86	0.11
313.15	30000	0.01265	1008.05	0.11
313.15	30000	0.09015	1029.02	0.13
328.15	100	0.00102	986.26	0.11
328.15	100	0.01265	990.25	0.11
328.15	100	0.09015	1009.93	0.11
328.15	10000	0.00102	989.76	0.11
328.15	10000	0.01265	993.13	0.11
328.15	10000	0.09015	1014.8	0.11
328.15	20000	0.00102	994.01	0.11
328.15	20000	0.01265	996.97	0.11
328.15	20000	0.09015	1023.93	0.12
328.15	30000	0.00102	998.26	0.11
328.15	30000	0.01265	1001.19	0.11
328.15	30000	0.09015	1022.78	0.12
343.15	100	0.00102	977.03	0.11
343.15	100	0.01265	982.24	0.11
343.15	100	0.09015	1002.87	0.11
343.15	10000	0.00102	982.1	0.11
343.15	10000	0.01265	985.06	0.11
343.15	10000	0.09015	1007.84	0.11
343.15	20000	0.00102	986.46	0.11
343.15	20000	0.01265	989.76	0.11
343.15	20000	0.09015	1012.57	0.11
343.15	30000	0.00102	990.68	0.11
343.15	30000	0.01265	993.67	0.11
343.15	30000	0.09015	1016.24	0.12
