Measured thermophysical data. Thermodynamics of proton dissociations from aqueous L-methionine at temperatures from (278.15 to 393.15) K, molalities from (0.0125 to 1.0) mol Ae kg 1, and at the pressure 0.35 MPa: Apparent molar heat capacities and apparent molar volumes of L-methionine, methioninium chloride, and sodium methioninate
Source: J. Chem. Thermodyn., 2007, 10.1016/j.jct.2006.07.018
Compound 1: water, H2O, InChI=1S/H2O/h1H2
Compound 2: L-methionine, C5H11NO2S, InChI=1S/C5H11NO2S/c1-9-3-2-4(6)5(7)8/h4H,2-3,6H2,1H3,(H,7,8)/t4-/m0/s1, purity 99.5%
Compound 3: hydrogen chloride, ClH, InChI=1S/ClH/h1H
Compound 4: sodium hydroxide, HNaO, InChI=1S/Na.H2O/h;1H2/q+1;/p-1

System: L-methionine + water; phases: Liquid
Fixed: Pressure, kPa = 350
Property: Molar heat capacity at constant pressure, J/K/mol (Liquid); method: high-precision DSC
Temperature, K	Molality, mol/kg of L-methionine	Molar heat capacity at constant pressure, J/K/mol	uncertainty
278.15	0.0125	75.75214	0.152
278.15	0.025	75.80018	0.152
278.15	0.05	75.86269	0.152
278.15	0.0997	76.01152	0.151
278.15	0.1501	76.16744	0.152
278.15	0.1929	76.29989	0.153
283.15	0.0125	75.58072	0.152
283.15	0.025	75.63931	0.152
283.15	0.05	75.70855	0.152
283.15	0.0997	75.87099	0.151
283.15	0.1501	76.0407	0.152
283.15	0.1929	76.18723	0.153
288.15	0.0125	75.46704	0.152
288.15	0.025	75.53268	0.152
288.15	0.05	75.60338	0.151
288.15	0.0997	75.77792	0.151
288.15	0.1501	75.96171	0.152
288.15	0.1929	76.11704	0.151
293.15	0.0125	75.38944	0.152
293.15	0.025	75.46038	0.152
293.15	0.05	75.53266	0.151
293.15	0.0997	75.72134	0.151
293.15	0.1501	75.91579	0.152
293.15	0.1929	76.07641	0.151
298.15	0.0125	75.34072	0.152
298.15	0.025	75.41339	0.15
298.15	0.05	75.49095	0.151
298.15	0.0997	75.68849	0.151
298.15	0.1501	75.89191	0.152
298.15	0.1929	76.05609	0.151
303.15	0.0125	75.31005	0.15
303.15	0.025	75.38447	0.15
303.15	0.05	75.46375	0.151
303.15	0.0997	75.66841	0.151
303.15	0.1501	75.88272	0.152
303.15	0.1929	76.04501	0.151
308.15	0.0125	75.29742	0.15
308.15	0.025	75.3682	0.15
308.15	0.05	75.45469	0.151
308.15	0.0997	75.66294	0.151
308.15	0.1501	75.88456	0.152
308.15	0.1929	76.0487	0.151
313.15	0.0125	75.29742	0.15
313.15	0.025	75.36639	0.15
313.15	0.05	75.45831	0.151
313.15	0.0997	75.66659	0.151
313.15	0.1501	75.89558	0.152
313.15	0.1929	76.06348	0.151
318.15	0.0125	75.31005	0.15
318.15	0.025	75.37904	0.15
318.15	0.05	75.47282	0.151
318.15	0.0997	75.68301	0.151
318.15	0.1501	75.91762	0.152
318.15	0.1929	76.08934	0.151
323.15	0.0125	75.3317	0.15
323.15	0.025	75.40254	0.15
323.15	0.05	75.49821	0.151
323.15	0.0997	75.71039	0.151
323.15	0.1501	75.94701	0.152
323.15	0.1929	76.12073	0.151
328.15	0.0125	75.36599	0.152
328.15	0.025	75.43688	0.15
328.15	0.05	75.53266	0.151
328.15	0.0997	75.74689	0.151
328.15	0.1501	75.98559	0.152
328.15	0.1929	76.15952	0.151
333.15	0.0125	75.40568	0.152
333.15	0.025	75.47845	0.152
333.15	0.05	75.57437	0.151
333.15	0.0997	75.78887	0.151
333.15	0.1501	76.02784	0.152
333.15	0.1929	76.20569	0.153
338.15	0.0125	75.45441	0.152
338.15	0.025	75.52725	0.152
338.15	0.05	75.62333	0.151
338.15	0.0997	75.83997	0.151
338.15	0.1501	76.07743	0.152
338.15	0.1929	76.25926	0.153
343.15	0.0125	75.51215	0.152
343.15	0.025	75.58509	0.152
343.15	0.05	75.68135	0.151
343.15	0.0997	75.89654	0.151
343.15	0.1501	76.13438	0.152
343.15	0.1929	76.31836	0.153
348.15	0.0125	75.57711	0.152
348.15	0.025	75.64835	0.152
348.15	0.05	75.74663	0.152
348.15	0.0997	75.96225	0.151
348.15	0.1501	76.19867	0.152
348.15	0.1929	76.38485	0.153
353.15	0.0125	75.64929	0.152
353.15	0.025	75.72065	0.152
353.15	0.05	75.81917	0.152
353.15	0.0997	76.03342	0.151
353.15	0.1501	76.27031	0.152
353.15	0.1929	76.45873	0.153
358.15	0.0125	75.72869	0.152
358.15	0.025	75.79837	0.152
358.15	0.05	75.89896	0.152
358.15	0.0997	76.1119	0.151
358.15	0.1501	76.34746	0.152
358.15	0.1929	76.5363	0.153
363.15	0.0125	75.8153	0.152
363.15	0.025	75.88332	0.152
363.15	0.05	75.98418	0.152
363.15	0.0997	76.19768	0.153
363.15	0.1501	76.43196	0.152
363.15	0.1929	76.62126	0.153
368.15	0.0125	75.91094	0.152
368.15	0.025	75.9773	0.152
368.15	0.05	76.07848	0.152
368.15	0.0997	76.29076	0.153
368.15	0.1501	76.52564	0.152
368.15	0.1929	76.71361	0.153
373.15	0.0125	76.01199	0.152
373.15	0.025	76.07852	0.152
373.15	0.05	76.18002	0.152
373.15	0.0997	76.39113	0.153
373.15	0.1501	76.62667	0.152
373.15	0.1929	76.8115	0.153
378.15	0.0125	76.12567	0.152
378.15	0.025	76.19058	0.152
378.15	0.05	76.29064	0.152
378.15	0.0997	76.50064	0.153
378.15	0.1501	76.73505	0.154
378.15	0.1929	76.91862	0.153
383.15	0.0125	76.24477	0.153
383.15	0.025	76.31349	0.152
383.15	0.05	76.41032	0.152
383.15	0.0997	76.61561	0.153
383.15	0.1501	76.85261	0.154
383.15	0.1929	77.03129	0.153
388.15	0.0125	76.3765	0.153
388.15	0.025	76.44905	0.154
388.15	0.05	76.53906	0.152
388.15	0.0997	76.74154	0.153
388.15	0.1501	76.97568	0.154
388.15	0.1929	77.15319	0.155
393.15	0.0125	76.51725	0.153
393.15	0.025	76.60087	0.154
393.15	0.05	76.67688	0.154
393.15	0.0997	76.87842	0.153
393.15	0.1501	77.11161	0.154
393.15	0.1929	77.28432	0.155

System: L-methionine + water; phases: Liquid
Fixed: Pressure, kPa = 350
Property: Mass density, kg/m3 (Liquid); method: Vibrating tube method
Temperature, K	Molality, mol/kg of L-methionine	Mass density, kg/m3	uncertainty
278.15	0.0125	1000.87	0.06
278.15	0.025	1001.33	0.06
278.15	0.05	1002.43	0.07
278.15	0.0997	1005.13	0.07
278.15	0.1501	1007.08	0.06
278.15	0.1929	1008.66	0.06
283.15	0.0125	1000.6	0.06
283.15	0.025	1001.06	0.06
283.15	0.05	1002.07	0.07
283.15	0.0997	1004.77	0.07
283.15	0.1501	1006.7	0.06
283.15	0.1929	1008.25	0.06
288.15	0.0125	999.97	0.07
288.15	0.025	1000.44	0.06
288.15	0.05	1001.43	0.07
288.15	0.0997	1004.07	0.06
288.15	0.1501	1005.97	0.06
288.15	0.1929	1007.5	0.06
298.15	0.0125	997.89	0.08
298.15	0.025	998.35	0.06
298.15	0.05	999.32	0.07
298.15	0.0997	1001.89	0.06
298.15	0.1501	1003.72	0.06
298.15	0.1929	1005.21	0.06
308.15	0.0125	994.85	0.08
308.15	0.025	995.32	0.06
308.15	0.05	996.3	0.07
308.15	0.0997	998.76	0.06
308.15	0.1501	1000.54	0.06
308.15	0.1929	1002.01	0.06
318.15	0.0125	991.01	0.08
318.15	0.025	991.47	0.06
318.15	0.05	992.35	0.07
318.15	0.0997	994.85	0.07
318.15	0.1501	996.62	0.06
318.15	0.1929	998.08	0.06
328.15	0.0125	986.48	0.08
328.15	0.025	986.94	0.07
328.15	0.05	987.79	0.07
328.15	0.0997	990.26	0.07
328.15	0.1501	992	0.06
328.15	0.1929	993.45	0.06
338.15	0.0125	981.32	0.08
338.15	0.025	981.79	0.07
338.15	0.05	982.66	0.07
338.15	0.0997	985.05	0.07
338.15	0.1501	986.79	0.07
338.15	0.1929	988.23	0.06
348.15	0.0125	975.6	0.08
348.15	0.025	976.09	0.07
348.15	0.05	976.97	0.08
348.15	0.0997	979.29	0.07
348.15	0.1501	981.03	0.07
348.15	0.1929	982.49	0.07
358.15	0.0125	969.38	0.08
358.15	0.025	969.84	0.08
358.15	0.05	970.77	0.08
358.15	0.0997	973.02	0.08
358.15	0.1501	974.79	0.07
358.15	0.1929	976.26	0.07
368.15	0.0125	962.63	0.08
368.15	0.025	963.11	0.08
368.15	0.05	964.09	0.08
368.15	0.0997	966.29	0.08
368.15	0.1501	968.05	0.08
368.15	0.1929	969.51	0.08

System: L-methionine + hydrogen chloride + water; phases: Liquid
Fixed: Pressure, kPa = 350
Property: Molar heat capacity at constant pressure, J/K/mol (Liquid); method: high precision DSC
Temperature, K	Molality, mol/kg of L-methionine	Molality, mol/kg of hydrogen chloride	Molar heat capacity at constant pressure, J/K/mol	uncertainty
278.15	0.015	0.015005	75.71296	0.152
278.15	0.03	0.030009	75.73025	0.152
278.15	0.06	0.060018	75.78043	0.151
278.15	0.1241	0.124137	75.86496	0.152
278.15	0.2506	0.250675	76.14632	0.153
278.15	0.5013	0.50145	76.58193	0.153
278.15	0.9559	0.956187	77.65616	0.156
283.15	0.015	0.015005	75.54143	0.152
283.15	0.03	0.030009	75.56195	0.152
283.15	0.06	0.060018	75.63138	0.151
283.15	0.1241	0.124137	75.74386	0.152
283.15	0.2506	0.250675	76.03982	0.151
283.15	0.5013	0.50145	76.60901	0.153
283.15	0.9559	0.956187	77.71152	0.156
288.15	0.015	0.015005	75.42407	0.152
288.15	0.03	0.030009	75.44433	0.15
288.15	0.06	0.060018	75.52959	0.151
288.15	0.1241	0.124137	75.65762	0.15
288.15	0.2506	0.250675	75.96508	0.151
288.15	0.5013	0.50145	76.61094	0.153
288.15	0.9559	0.956187	77.74843	0.156
293.15	0.015	0.015005	75.34281	0.15
293.15	0.03	0.030009	75.3629	0.15
293.15	0.06	0.060018	75.46234	0.151
293.15	0.1241	0.124137	75.60257	0.15
293.15	0.2506	0.250675	75.9165	0.151
293.15	0.5013	0.50145	76.62062	0.153
293.15	0.9559	0.956187	77.7874	0.156
298.15	0.015	0.015005	75.29226	0.15
298.15	0.03	0.030009	75.31404	0.15
298.15	0.06	0.060018	75.41871	0.151
298.15	0.1241	0.124137	75.56771	0.15
298.15	0.2506	0.250675	75.89034	0.151
298.15	0.5013	0.50145	76.63222	0.153
298.15	0.9559	0.956187	77.82841	0.156
303.15	0.015	0.015005	75.26156	0.15
303.15	0.03	0.030009	75.28508	0.15
303.15	0.06	0.060018	75.39327	0.151
303.15	0.1241	0.124137	75.54936	0.15
303.15	0.2506	0.250675	75.881	0.151
303.15	0.5013	0.50145	76.6477	0.153
303.15	0.9559	0.956187	77.86737	0.156
308.15	0.015	0.015005	75.25073	0.15
308.15	0.03	0.030009	75.27604	0.15
308.15	0.06	0.060018	75.38418	0.151
308.15	0.1241	0.124137	75.54386	0.15
308.15	0.2506	0.250675	75.88474	0.151
308.15	0.5013	0.50145	76.66897	0.153
308.15	0.9559	0.956187	77.90223	0.156
313.15	0.015	0.015005	75.25073	0.15
313.15	0.03	0.030009	75.27785	0.15
313.15	0.06	0.060018	75.386	0.151
313.15	0.1241	0.124137	75.54936	0.15
313.15	0.2506	0.250675	75.89595	0.151
313.15	0.5013	0.50145	76.69605	0.153
313.15	0.9559	0.956187	77.93915	0.156
318.15	0.015	0.015005	75.26698	0.15
318.15	0.03	0.030009	75.29413	0.15
318.15	0.06	0.060018	75.40054	0.151
318.15	0.1241	0.124137	75.56588	0.15
318.15	0.2506	0.250675	75.92024	0.151
318.15	0.5013	0.50145	76.72507	0.153
318.15	0.9559	0.956187	77.98016	0.156
323.15	0.015	0.015005	75.29045	0.15
323.15	0.03	0.030009	75.31947	0.15
323.15	0.06	0.060018	75.42417	0.151
323.15	0.1241	0.124137	75.59156	0.15
323.15	0.2506	0.250675	75.952	0.151
323.15	0.5013	0.50145	76.75795	0.153
323.15	0.9559	0.956187	78.03142	0.156
328.15	0.015	0.015005	75.32476	0.15
328.15	0.03	0.030009	75.35385	0.15
328.15	0.06	0.060018	75.45689	0.151
328.15	0.1241	0.124137	75.62459	0.15
328.15	0.2506	0.250675	75.98937	0.151
328.15	0.5013	0.50145	76.79663	0.153
328.15	0.9559	0.956187	78.08064	0.156
333.15	0.015	0.015005	75.36629	0.15
333.15	0.03	0.030009	75.39547	0.15
333.15	0.06	0.060018	75.49687	0.151
333.15	0.1241	0.124137	75.66496	0.15
333.15	0.2506	0.250675	76.03421	0.151
333.15	0.5013	0.50145	76.84112	0.153
333.15	0.9559	0.956187	78.13601	0.156
338.15	0.015	0.015005	75.41865	0.152
338.15	0.03	0.030009	75.44614	0.15
338.15	0.06	0.060018	75.54413	0.151
338.15	0.1241	0.124137	75.71266	0.152
338.15	0.2506	0.250675	76.08466	0.151
338.15	0.5013	0.50145	76.88948	0.155
338.15	0.9559	0.956187	78.19343	0.156
343.15	0.015	0.015005	75.48004	0.152
343.15	0.03	0.030009	75.50767	0.15
343.15	0.06	0.060018	75.6023	0.151
343.15	0.1241	0.124137	75.76771	0.152
343.15	0.2506	0.250675	76.14259	0.153
343.15	0.5013	0.50145	76.94171	0.155
343.15	0.9559	0.956187	78.25084	0.156
348.15	0.015	0.015005	75.55046	0.152
348.15	0.03	0.030009	75.57643	0.152
348.15	0.06	0.060018	75.66592	0.151
348.15	0.1241	0.124137	75.83009	0.152
348.15	0.2506	0.250675	76.20798	0.153
348.15	0.5013	0.50145	76.99973	0.155
348.15	0.9559	0.956187	78.31441	0.156
353.15	0.015	0.015005	75.62629	0.152
353.15	0.03	0.030009	75.65063	0.152
353.15	0.06	0.060018	75.73681	0.151
353.15	0.1241	0.124137	75.89982	0.152
353.15	0.2506	0.250675	76.27899	0.153
353.15	0.5013	0.50145	77.06357	0.155
353.15	0.9559	0.956187	78.38414	0.156
358.15	0.015	0.015005	75.70935	0.152
358.15	0.03	0.030009	75.73387	0.152
358.15	0.06	0.060018	75.81315	0.151
358.15	0.1241	0.124137	75.97688	0.152
358.15	0.2506	0.250675	76.35746	0.153
358.15	0.5013	0.50145	77.13126	0.155
358.15	0.9559	0.956187	78.45591	0.158
363.15	0.015	0.015005	75.79962	0.152
363.15	0.03	0.030009	75.82435	0.152
363.15	0.06	0.060018	75.89858	0.153
363.15	0.1241	0.124137	76.05945	0.152
363.15	0.2506	0.250675	76.44341	0.153
363.15	0.5013	0.50145	77.20864	0.155
363.15	0.9559	0.956187	78.53588	0.158
368.15	0.015	0.015005	75.89893	0.152
368.15	0.03	0.030009	75.92207	0.152
368.15	0.06	0.060018	75.99128	0.153
368.15	0.1241	0.124137	76.14935	0.152
368.15	0.2506	0.250675	76.5387	0.153
368.15	0.5013	0.50145	77.28988	0.155
368.15	0.9559	0.956187	78.61791	0.158
373.15	0.015	0.015005	76.00546	0.152
373.15	0.03	0.030009	76.03064	0.152
373.15	0.06	0.060018	76.09125	0.153
373.15	0.1241	0.124137	76.24844	0.152
373.15	0.2506	0.250675	76.64147	0.153
373.15	0.5013	0.50145	77.37692	0.155
373.15	0.9559	0.956187	78.70814	0.158
378.15	0.015	0.015005	76.12282	0.152
378.15	0.03	0.030009	76.14827	0.152
378.15	0.06	0.060018	76.20213	0.153
378.15	0.1241	0.124137	76.35669	0.152
378.15	0.2506	0.250675	76.75171	0.153
378.15	0.5013	0.50145	77.4717	0.155
378.15	0.9559	0.956187	78.80452	0.158
383.15	0.015	0.015005	76.24379	0.152
383.15	0.03	0.030009	76.2677	0.152
383.15	0.06	0.060018	76.32028	0.153
383.15	0.1241	0.124137	76.47045	0.152
383.15	0.2506	0.250675	76.86195	0.153
383.15	0.5013	0.50145	77.57421	0.155
383.15	0.9559	0.956187	78.91115	0.158
388.15	0.015	0.015005	76.37741	0.153
388.15	0.03	0.030009	76.39799	0.152
388.15	0.06	0.060018	76.44933	0.153
388.15	0.1241	0.124137	76.59705	0.152
388.15	0.2506	0.250675	76.9834	0.153
388.15	0.5013	0.50145	77.68253	0.155
388.15	0.9559	0.956187	79.02189	0.158
393.15	0.015	0.015005	76.51824	0.153
393.15	0.03	0.030009	76.53371	0.154
393.15	0.06	0.060018	76.58566	0.153
393.15	0.1241	0.124137	76.72916	0.154
393.15	0.2506	0.250675	77.10672	0.155
393.15	0.5013	0.50145	77.78505	0.155
393.15	0.9559	0.956187	79.13468	0.158

System: L-methionine + hydrogen chloride + water; phases: Liquid
Fixed: Pressure, kPa = 350
Property: Mass density, kg/m3 (Liquid); method: Vibrating tube method
Temperature, K	Molality, mol/kg of L-methionine	Molality, mol/kg of hydrogen chloride	Mass density, kg/m3	uncertainty
278.15	0.015	0.015005	1001.05	0.07
278.15	0.03	0.030009	1001.94	0.07
278.15	0.06	0.060018	1003.86	0.08
278.15	0.1241	0.124137	1007.2	0.07
278.15	0.2506	0.250675	1014.26	0.08
278.15	0.5013	0.50145	1027	0.08
278.15	0.9559	0.956187	1048.11	0.1
283.15	0.015	0.015005	1000.78	0.08
283.15	0.03	0.030009	1001.6	0.07
283.15	0.06	0.060018	1003.53	0.08
283.15	0.1241	0.124137	1006.82	0.07
283.15	0.2506	0.250675	1013.74	0.08
283.15	0.5013	0.50145	1026.31	0.08
283.15	0.9559	0.956187	1047.09	0.1
288.15	0.015	0.015005	1000.16	0.08
288.15	0.03	0.030009	1000.94	0.06
288.15	0.06	0.060018	1002.87	0.07
288.15	0.1241	0.124137	1006.11	0.07
288.15	0.2506	0.250675	1012.92	0.08
288.15	0.5013	0.50145	1025.3	0.08
288.15	0.9559	0.956187	1045.77	0.1
298.15	0.015	0.015005	998.1	0.08
298.15	0.03	0.030009	998.79	0.05
298.15	0.06	0.060018	1000.73	0.07
298.15	0.1241	0.124137	1003.85	0.07
298.15	0.2506	0.250675	1010.49	0.07
298.15	0.5013	0.50145	1022.56	0.08
298.15	0.9559	0.956187	1042.47	0.1
308.15	0.015	0.015005	995.07	0.07
308.15	0.03	0.030009	995.65	0.05
308.15	0.06	0.060018	997.65	0.08
308.15	0.1241	0.124137	1000.72	0.07
308.15	0.2506	0.250675	1007.2	0.07
308.15	0.5013	0.50145	1019.02	0.08
308.15	0.9559	0.956187	1038.5	0.1
318.15	0.015	0.015005	991.25	0.07
318.15	0.03	0.030009	991.74	0.06
318.15	0.06	0.060018	993.76	0.08
318.15	0.1241	0.124137	996.81	0.07
318.15	0.2506	0.250675	1003.17	0.07
318.15	0.5013	0.50145	1014.8	0.08
318.15	0.9559	0.956187	1033.97	0.09
328.15	0.015	0.015005	986.73	0.07
328.15	0.03	0.030009	987.25	0.06
328.15	0.06	0.060018	989.17	0.08
328.15	0.1241	0.124137	992.21	0.07
328.15	0.2506	0.250675	998.49	0.07
328.15	0.5013	0.50145	1009.99	0.08
328.15	0.9559	0.956187	1028.93	0.09
338.15	0.015	0.015005	981.6	0.08
338.15	0.03	0.030009	982.15	0.06
338.15	0.06	0.060018	984	0.08
338.15	0.1241	0.124137	987	0.07
338.15	0.2506	0.250675	993.26	0.08
338.15	0.5013	0.50145	1004.63	0.08
338.15	0.9559	0.956187	1023.43	0.09
348.15	0.015	0.015005	975.9	0.08
348.15	0.03	0.030009	976.47	0.07
348.15	0.06	0.060018	978.27	0.08
348.15	0.1241	0.124137	981.31	0.08
348.15	0.2506	0.250675	987.47	0.08
348.15	0.5013	0.50145	998.8	0.08
348.15	0.9559	0.956187	1017.48	0.09
358.15	0.015	0.015005	969.71	0.09
358.15	0.03	0.030009	970.31	0.07
358.15	0.06	0.060018	972.03	0.09
358.15	0.1241	0.124137	975.08	0.08
358.15	0.2506	0.250675	981.22	0.08
358.15	0.5013	0.50145	992.51	0.08
358.15	0.9559	0.956187	1011.12	0.09
368.15	0.015	0.015005	962.9	0.09
368.15	0.03	0.030009	963.56	0.09
368.15	0.06	0.060018	965.33	0.09
368.15	0.1241	0.124137	968.39	0.09
368.15	0.2506	0.250675	974.54	0.09
368.15	0.5013	0.50145	985.8	0.08
368.15	0.9559	0.956187	1004.38	0.09

System: L-methionine + sodium hydroxide + water; phases: Liquid
Fixed: Pressure, kPa = 350
Property: Molar heat capacity at constant pressure, J/K/mol (Liquid); method: high precision DSC
Temperature, K	Molality, mol/kg of L-methionine	Molality, mol/kg of sodium hydroxide	Molar heat capacity at constant pressure, J/K/mol	uncertainty
278.15	0.03	0.030033	75.76	0.152
278.15	0.125	0.125138	76.0639	0.152
278.15	0.2499	0.250175	76.23332	0.153
278.15	0.4999	0.50045	76.99611	0.153
278.15	0.995	0.996096	78.65832	0.157
283.15	0.03	0.030033	75.60797	0.152
283.15	0.125	0.125138	75.96109	0.152
283.15	0.2499	0.250175	76.18844	0.151
283.15	0.4999	0.50045	77.03485	0.155
283.15	0.995	0.996096	78.86085	0.157
288.15	0.03	0.030033	75.50844	0.15
288.15	0.125	0.125138	75.89867	0.152
288.15	0.2499	0.250175	76.17162	0.151
288.15	0.4999	0.50045	77.07747	0.155
288.15	0.995	0.996096	79.00965	0.157
293.15	0.03	0.030033	75.44328	0.15
293.15	0.125	0.125138	75.86562	0.152
293.15	0.2499	0.250175	76.17535	0.151
293.15	0.4999	0.50045	77.12977	0.155
293.15	0.995	0.996096	79.14811	0.159
298.15	0.03	0.030033	75.39804	0.15
298.15	0.125	0.125138	75.8491	0.152
298.15	0.2499	0.250175	76.19218	0.151
298.15	0.4999	0.50045	77.18788	0.155
298.15	0.995	0.996096	79.27418	0.159
303.15	0.03	0.030033	75.36727	0.15
303.15	0.125	0.125138	75.84543	0.152
303.15	0.2499	0.250175	76.21462	0.153
303.15	0.4999	0.50045	77.24599	0.155
303.15	0.995	0.996096	79.38991	0.159
308.15	0.03	0.030033	75.3546	0.15
308.15	0.125	0.125138	75.85645	0.152
308.15	0.2499	0.250175	76.24267	0.153
308.15	0.4999	0.50045	77.30798	0.155
308.15	0.995	0.996096	79.49737	0.159
313.15	0.03	0.030033	75.3546	0.15
313.15	0.125	0.125138	75.8748	0.152
313.15	0.2499	0.250175	76.27633	0.153
313.15	0.4999	0.50045	77.36996	0.155
313.15	0.995	0.996096	79.6007	0.159
318.15	0.03	0.030033	75.37089	0.15
318.15	0.125	0.125138	75.90234	0.152
318.15	0.2499	0.250175	76.31934	0.153
318.15	0.4999	0.50045	77.43582	0.155
318.15	0.995	0.996096	79.70197	0.159
323.15	0.03	0.030033	75.39442	0.15
323.15	0.125	0.125138	75.93722	0.152
323.15	0.2499	0.250175	76.36608	0.153
323.15	0.4999	0.50045	77.50168	0.155
323.15	0.995	0.996096	79.79703	0.159
328.15	0.03	0.030033	75.4288	0.15
328.15	0.125	0.125138	75.98312	0.152
328.15	0.2499	0.250175	76.42031	0.153
328.15	0.4999	0.50045	77.57142	0.155
328.15	0.995	0.996096	79.89003	0.159
333.15	0.03	0.030033	75.47043	0.15
333.15	0.125	0.125138	76.03269	0.152
333.15	0.2499	0.250175	76.47641	0.153
333.15	0.4999	0.50045	77.64309	0.155
333.15	0.995	0.996096	79.98097	0.159
338.15	0.03	0.030033	75.5211	0.15
338.15	0.125	0.125138	76.0896	0.152
338.15	0.2499	0.250175	76.53811	0.153
338.15	0.4999	0.50045	77.71863	0.155
338.15	0.995	0.996096	80.0719	0.159
343.15	0.03	0.030033	75.58264	0.152
343.15	0.125	0.125138	76.15202	0.152
343.15	0.2499	0.250175	76.6073	0.153
343.15	0.4999	0.50045	77.79611	0.155
343.15	0.995	0.996096	80.16076	0.161
348.15	0.03	0.030033	75.6496	0.152
348.15	0.125	0.125138	76.21628	0.152
348.15	0.2499	0.250175	76.68209	0.153
348.15	0.4999	0.50045	77.87553	0.155
348.15	0.995	0.996096	80.25169	0.161
353.15	0.03	0.030033	75.7238	0.152
353.15	0.125	0.125138	76.28971	0.152
353.15	0.2499	0.250175	76.7625	0.153
353.15	0.4999	0.50045	77.95883	0.155
353.15	0.995	0.996096	80.34056	0.161
358.15	0.03	0.030033	75.80524	0.152
358.15	0.125	0.125138	76.36865	0.152
358.15	0.2499	0.250175	76.84477	0.153
358.15	0.4999	0.50045	78.046	0.157
358.15	0.995	0.996096	80.42943	0.161
363.15	0.03	0.030033	75.89211	0.152
363.15	0.125	0.125138	76.45494	0.152
363.15	0.2499	0.250175	76.93453	0.153
363.15	0.4999	0.50045	78.1351	0.157
363.15	0.995	0.996096	80.52036	0.161
368.15	0.03	0.030033	75.98803	0.152
368.15	0.125	0.125138	76.55224	0.152
368.15	0.2499	0.250175	77.02802	0.153
368.15	0.4999	0.50045	78.23002	0.157
368.15	0.995	0.996096	80.61336	0.161
373.15	0.03	0.030033	76.08938	0.152
373.15	0.125	0.125138	76.65505	0.154
373.15	0.2499	0.250175	77.129	0.153
373.15	0.4999	0.50045	78.32881	0.157
373.15	0.995	0.996096	80.70636	0.161
378.15	0.03	0.030033	76.2034	0.152
378.15	0.125	0.125138	76.76704	0.154
378.15	0.2499	0.250175	77.23745	0.155
378.15	0.4999	0.50045	78.43341	0.157
378.15	0.995	0.996096	80.80555	0.161
383.15	0.03	0.030033	76.32466	0.152
383.15	0.125	0.125138	76.88637	0.154
383.15	0.2499	0.250175	77.35151	0.155
383.15	0.4999	0.50045	78.54382	0.157
383.15	0.995	0.996096	80.90475	0.161
388.15	0.03	0.030033	76.45677	0.152
388.15	0.125	0.125138	77.01672	0.154
388.15	0.2499	0.250175	77.47305	0.155
388.15	0.4999	0.50045	78.66004	0.157
388.15	0.995	0.996096	81.00808	0.161
393.15	0.03	0.030033	76.59974	0.154
393.15	0.125	0.125138	77.15808	0.154
393.15	0.2499	0.250175	77.60769	0.155
393.15	0.4999	0.50045	78.77433	0.157
393.15	0.995	0.996096	81.09695	0.161

System: L-methionine + sodium hydroxide + water; phases: Liquid
Fixed: Pressure, kPa = 350
Property: Mass density, kg/m3 (Liquid); method: Vibrating tube method
Temperature, K	Molality, mol/kg of L-methionine	Molality, mol/kg of sodium hydroxide	Mass density, kg/m3	uncertainty
278.15	0.015	0.015017	1001.24	0.08
278.15	0.03	0.030033	1002.23	0.08
278.15	0.06	0.060066	1003.68	0.07
278.15	0.125	0.125138	1007.13	0.07
278.15	0.2499	0.250175	1017.05	0.1
278.15	0.4999	0.50045	1032.85	0.09
278.15	0.995	0.996096	1060.81	0.12
283.15	0.015	0.015017	1001.01	0.08
283.15	0.03	0.030033	1001.9	0.07
283.15	0.06	0.060066	1003.4	0.07
283.15	0.125	0.125138	1006.71	0.07
283.15	0.2499	0.250175	1016.49	0.1
283.15	0.4999	0.50045	1032.1	0.09
283.15	0.995	0.996096	1059.8	0.12
288.15	0.015	0.015017	1000.4	0.08
288.15	0.03	0.030033	1001.23	0.06
288.15	0.06	0.060066	1002.76	0.07
288.15	0.125	0.125138	1005.98	0.07
288.15	0.2499	0.250175	1015.62	0.09
288.15	0.4999	0.50045	1031.03	0.09
288.15	0.995	0.996096	1058.49	0.12
298.15	0.015	0.015017	998.34	0.09
298.15	0.03	0.030033	999.11	0.06
298.15	0.06	0.060066	1000.64	0.06
298.15	0.125	0.125138	1003.71	0.07
298.15	0.2499	0.250175	1013.13	0.09
298.15	0.4999	0.50045	1028.19	0.09
298.15	0.995	0.996096	1055.16	0.12
308.15	0.015	0.015017	995.35	0.08
308.15	0.03	0.030033	996.1	0.06
308.15	0.06	0.060066	997.55	0.06
308.15	0.125	0.125138	1000.56	0.06
308.15	0.2499	0.250175	1009.8	0.09
308.15	0.4999	0.50045	1024.58	0.09
308.15	0.995	0.996096	1051.11	0.12
318.15	0.015	0.015017	991.52	0.08
318.15	0.03	0.030033	992.26	0.06
318.15	0.06	0.060066	993.71	0.07
318.15	0.125	0.125138	996.68	0.07
318.15	0.2499	0.250175	1005.71	0.09
318.15	0.4999	0.50045	1020.33	0.09
318.15	0.995	0.996096	1046.45	0.12
328.15	0.015	0.015017	987.02	0.08
328.15	0.03	0.030033	987.73	0.06
328.15	0.06	0.060066	989.2	0.07
328.15	0.125	0.125138	992.11	0.07
328.15	0.2499	0.250175	1001.08	0.09
328.15	0.4999	0.50045	1015.53	0.09
328.15	0.995	0.996096	1041.43	0.11
338.15	0.015	0.015017	981.79	0.09
338.15	0.03	0.030033	982.58	0.07
338.15	0.06	0.060066	984.02	0.07
338.15	0.125	0.125138	986.93	0.07
338.15	0.2499	0.250175	995.77	0.09
338.15	0.4999	0.50045	1010.15	0.09
338.15	0.995	0.996096	1035.88	0.11
348.15	0.015	0.015017	976.06	0.09
348.15	0.03	0.030033	976.85	0.08
348.15	0.06	0.060066	978.32	0.08
348.15	0.125	0.125138	981.2	0.08
348.15	0.2499	0.250175	990.01	0.09
348.15	0.4999	0.50045	1004.34	0.09
348.15	0.995	0.996096	1029.85	0.12
358.15	0.015	0.015017	969.81	0.09
358.15	0.03	0.030033	970.63	0.08
358.15	0.06	0.060066	972.13	0.08
358.15	0.125	0.125138	974.96	0.08
358.15	0.2499	0.250175	983.77	0.1
358.15	0.4999	0.50045	998.01	0.09
358.15	0.995	0.996096	1023.44	0.12
368.15	0.015	0.015017	963.09	0.09
368.15	0.03	0.030033	963.89	0.09
368.15	0.06	0.060066	965.38	0.09
368.15	0.125	0.125138	968.23	0.08
368.15	0.2499	0.250175	976.96	0.1
368.15	0.4999	0.50045	991.23	0.09
368.15	0.995	0.996096	1016.64	0.11
