Measured thermophysical data. (Vapour + liquid) equilibria of the {pentafluoroethane (HFC-125) + dimethyl ether (DME)} system
Source: J. Chem. Thermodyn., 2006, 10.1016/j.jct.2006.04.009
Compound 1: dimethyl ether, C2H6O, InChI=1S/C2H6O/c1-3-2/h1-2H3, purity 99.8%
Compound 2: pentafluoroethane, C2HF5, InChI=1S/C2HF5/c3-1(4)2(5,6)7/h1H, purity 99.8%

System: dimethyl ether; phases: Liquid, Gas
Property: Vapor or sublimation pressure, kPa (Liquid); method: EBULLIO:UFactor:3
Temperature, K	Vapor or sublimation pressure, kPa	uncertainty
313.15	887	10
323.15	1147	13
333.15	1451	17
343.15	1817	21
353.15	2251	26
363.15	2738	32

System: pentafluoroethane; phases: Liquid, Gas
Property: Vapor or sublimation pressure, kPa (Liquid); method: EBULLIO:UFactor:3
Temperature, K	Vapor or sublimation pressure, kPa	uncertainty
313.15	2009	24
323.15	2537	30
333.15	3170	37

System: dimethyl ether + pentafluoroethane; phases: Liquid, Gas
Property: Vapor or sublimation pressure, kPa (Liquid); method: EBULLIO:UFactor:3
Mole fraction of pentafluoroethane	Temperature, K	Vapor or sublimation pressure, kPa	uncertainty
0	313.15	887	10
0	323.15	1147	13
0	333.15	1451	17
0	343.15	1817	21
0	353.15	2251	26
0	363.15	2738	32
0.0304	343.15	1850	22
0.0338	353.15	2302	27
0.0432	333.15	1490	17
0.0705	363.15	2867	34
0.0831	313.15	924	11
0.0869	323.15	1196	14
0.096	333.15	1533	18
0.1222	343.15	1948	23
0.1229	353.15	2425	28
0.1374	333.15	1566	18
0.149	363.15	3003	35
0.156	323.15	1238	15
0.1753	343.15	2004	23
0.179	313.15	968	11
0.2116	333.15	1626	19
0.2146	323.15	1277	15
0.2312	353.15	2573	30
0.2373	343.15	2070	24
0.243	313.15	1000	12
0.2561	363.15	3191	37
0.2797	323.15	1326	16
0.2808	333.15	1693	20
0.2986	343.15	2155	25
0.3076	353.15	2690	31
0.3261	323.15	1364	16
0.3436	363.15	3372	39
0.3501	333.15	1766	21
0.3558	313.15	1070	13
0.3882	343.15	2275	27
0.4079	323.15	1446	17
0.4174	363.15	3540	41
0.4351	353.15	2918	34
0.4785	363.15	3695	43
0.479	343.15	2437	29
0.4807	313.15	1182	14
0.504	323.15	1558	18
0.5153	333.15	1999	23
0.5411	343.15	2557	30
0.5548	363.15	3897	46
0.5652	353.15	3231	38
0.5882	333.15	2129	25
0.592	323.15	1688	20
0.5977	343.15	2669	31
0.6411	353.15	3431	40
0.6569	313.15	1406	17
0.6624	333.15	2289	27
0.6889	343.15	2904	34
0.6944	323.15	1869	22
0.7114	353.15	3669	43
0.7298	313.15	1523	18
0.7352	353.15	3724	43
0.7507	333.15	2491	29
0.768	343.15	3144	37
0.7688	323.15	2020	24
0.805	313.15	1651	19
0.8241	333.15	2674	31
0.8378	343.15	3344	39
0.8849	313.15	1795	21
0.8863	323.15	2275	27
0.8871	333.15	2849	33
0.9119	343.15	3594	42
0.9224	343.15	3630	42
0.9274	343.15	3640	43
0.9282	343.15	3642	43
0.93	343.15	3647	43
0.9391	313.15	1894	22
1	313.15	2009	24
1	323.15	2537	30
1	333.15	3170	37

System: dimethyl ether + pentafluoroethane; phases: Gas, Liquid
Property: Mole fraction of pentafluoroethane (Gas); method: CHROM:UFactor:2
Mole fraction of pentafluoroethane	Temperature, K	Mole fraction of pentafluoroethane	uncertainty
0	313.15	0	0.0001
0	323.15	0	0.0001
0	333.15	0	0.0001
0	343.15	0	0.0001
0	353.15	0	0.0001
0	363.15	0	0.0001
0.0304	343.15	0.0423	0.0018
0.0338	353.15	0.049	0.0019
0.0432	333.15	0.058	0.0019
0.0705	363.15	0.0939	0.0023
0.0831	313.15	0.108	0.0024
0.0869	323.15	0.1131	0.0025
0.096	333.15	0.1262	0.0027
0.1222	343.15	0.1565	0.0032
0.1229	353.15	0.1639	0.0033
0.1374	333.15	0.1748	0.0035
0.149	363.15	0.1887	0.0037
0.156	323.15	0.1951	0.0038
0.1753	343.15	0.2193	0.0042
0.179	313.15	0.213	0.0041
0.2116	333.15	0.2616	0.005
0.2146	323.15	0.2679	0.0051
0.2312	353.15	0.286	0.0054
0.2373	343.15	0.2934	0.0056
0.243	313.15	0.2933	0.0056
0.2561	363.15	0.3051	0.0058
0.2797	323.15	0.3469	0.0066
0.2808	333.15	0.3408	0.0065
0.2986	343.15	0.3702	0.007
0.3076	353.15	0.3682	0.0069
0.3261	323.15	0.4036	0.0076
0.3436	363.15	0.3949	0.0074
0.3501	333.15	0.4244	0.008
0.3558	313.15	0.4355	0.0082
0.3882	343.15	0.4611	0.0087
0.4079	323.15	0.5046	0.0093
0.4174	363.15	0.4634	0.0087
0.4351	353.15	0.4968	0.0093
0.4785	363.15	0.5183	0.009
0.479	343.15	0.5655	0.0082
0.4807	313.15	0.589	0.0078
0.504	323.15	0.6048	0.0075
0.5153	333.15	0.6089	0.0074
0.5411	343.15	0.6224	0.0071
0.5548	363.15	0.5575	0.0083
0.5652	353.15	0.6248	0.0071
0.5882	333.15	0.6816	0.006
0.592	323.15	0.6968	0.0058
0.5977	343.15	0.6729	0.0062
0.6411	353.15	0.6864	0.0059
0.6569	313.15	0.7723	0.0044
0.6624	333.15	0.7508	0.0048
0.6889	343.15	0.7537	0.0047
0.6944	323.15	0.7956	0.0039
0.7114	353.15	0.7441	0.0048
0.7298	313.15	0.8352	0.0032
0.7352	353.15	0.751	0.0047
0.7507	333.15	0.8271	0.0033
0.768	343.15	0.822	0.0034
0.7688	323.15	0.8554	0.0028
0.805	313.15	0.8903	0.0022
0.8241	333.15	0.8796	0.0024
0.8378	343.15	0.8701	0.0025
0.8849	313.15	0.9393	0.0016
0.8863	323.15	0.9347	0.0016
0.8871	333.15	0.9255	0.0018
0.9119	343.15	0.9218	0.0018
0.9224	343.15	0.9285	0.0017
0.9274	343.15	0.9296	0.0016
0.9282	343.15	0.9306	0.0016
0.93	343.15	0.9306	0.0016
0.9391	313.15	0.9689	0.0013
1	313.15	1	0.0001
1	323.15	1	0.0001
1	333.15	1	0.0001
