Measured thermophysical data. Measurement and thermodynamic modeling of ternary (liquid + liquid) equilibrium for extraction of ethanol from diethoxymethane solution with different solvents
Source: J. Chem. Thermodyn., 2017, 10.1016/j.jct.2017.03.014
Compound 1: diethoxymethane, C5H12O2, InChI=1S/C5H12O2/c1-3-6-5-7-4-2/h3-5H2,1-2H3, purity 99%
Compound 2: ethanol, C2H6O, InChI=1S/C2H6O/c1-2-3/h3H,2H2,1H3, purity 99.5%
Compound 3: 1,2-ethanediol, C2H6O2, InChI=1S/C2H6O2/c3-1-2-4/h3-4H,1-2H2, purity 99%
Compound 4: propan-1,3-diol, C3H8O2, InChI=1S/C3H8O2/c4-2-1-3-5/h4-5H,1-3H2, purity 99%
Compound 5: 1,4-butanediol, C4H10O2, InChI=1S/C4H10O2/c5-3-1-2-4-6/h5-6H,1-4H2, purity 99%
Compound 6: formamide, CH3NO, InChI=1S/CH3NO/c2-1-3/h1H,(H2,2,3), purity 99%

System: ethanol + 1,2-ethanediol + diethoxymethane; phases: Liquid mixture 2, Liquid mixture 1
Fixed: Temperature, K = 309.15
Fixed: Pressure, kPa = 101.3
Property: Mass fraction of ethanol (Liquid mixture 2); method: Chromatography
Property: Mass fraction of ethanol (Liquid mixture 1); method: Chromatography
Property: Mass fraction of diethoxymethane (Liquid mixture 1); method: Chromatography
Mass fraction of diethoxymethane	Mass fraction of ethanol	uncertainty	Mass fraction of ethanol	uncertainty	Mass fraction of diethoxymethane	uncertainty
0.0764	0		0		0.9835	
0.1599	0.1022	0.0108	0.0535	0.0091	0.8736	
0.1821	0.1205	0.0096	0.0693	0.0091	0.8235	
0.2241	0.1392	0.0091	0.083	0.0102	0.8041	
0.2994	0.1635	0.009	0.1162	0.0091	0.714	
0.0801	0.0084	0.0084	0.0034	0.0034	0.9769	
0.0856	0.021	0.0135	0.0082	0.0082	0.9646	
0.1019	0.0364	0.0123	0.0143	0.0097	0.9538	
0.1031	0.0487	0.0122	0.0231	0.0096	0.9397	
0.1226	0.0637	0.0114	0.0292	0.009	0.9267	
0.1355	0.0811	0.0115	0.0404	0.0092	0.8909	

System: ethanol + diethoxymethane + propan-1,3-diol; phases: Liquid mixture 2, Liquid mixture 1
Fixed: Temperature, K = 309.15
Fixed: Pressure, kPa = 101.3
Property: Mass fraction of ethanol (Liquid mixture 2); method: Chromatography
Property: Mass fraction of ethanol (Liquid mixture 1); method: Chromatography
Property: Mass fraction of diethoxymethane (Liquid mixture 1); method: Chromatography
Mass fraction of diethoxymethane	Mass fraction of ethanol	uncertainty	Mass fraction of ethanol	uncertainty	Mass fraction of diethoxymethane	uncertainty
0.1236	0		0		0.9793	
0.2273	0.1144	0.0093	0.0569	0.0092	0.8542	
0.254	0.1277	0.0094	0.0672	0.0097	0.8305	
0.2866	0.1434	0.009	0.081	0.0094	0.8147	
0.3284	0.1535	0.0089	0.0949	0.0091	0.7771	
0.1285	0.0158	0.0152	0.0059	0.0059	0.9533	
0.1401	0.035	0.0132	0.0124	0.0097	0.9404	
0.1554	0.0515	0.0125	0.0193	0.0093	0.9303	
0.1651	0.065	0.0114	0.0277	0.0095	0.9081	
0.1944	0.0909	0.0115	0.0426	0.0098	0.885	
0.2044	0.106	0.01	0.0507	0.0093	0.8705	

System: ethanol + 1,4-butanediol + diethoxymethane; phases: Liquid mixture 1, Liquid mixture 2
Fixed: Temperature, K = 309.15
Fixed: Pressure, kPa = 101.3
Property: Mass fraction of ethanol (Liquid mixture 1); method: Chromatography
Property: Mass fraction of ethanol (Liquid mixture 2); method: Chromatography
Property: Mass fraction of diethoxymethane (Liquid mixture 2); method: Chromatography
Mass fraction of diethoxymethane	Mass fraction of ethanol	uncertainty	Mass fraction of ethanol	uncertainty	Mass fraction of diethoxymethane	uncertainty
0.9699	0		0		0.1962	
0.9592	0.0083	0.0083	0.0255	0.013	0.2081	
0.9398	0.0218	0.0097	0.0532	0.0103	0.2356	
0.9144	0.0351	0.0094	0.0761	0.0098	0.2755	
0.8863	0.0482	0.0093	0.0977	0.0092	0.3081	
0.8571	0.0618	0.0092	0.1125	0.009	0.3595	
0.8441	0.065	0.0091	0.1157	0.0092	0.364	
0.8305	0.0699	0.009	0.1198	0.0089	0.3742	
0.8306	0.0716	0.0094	0.1212	0.0087	0.3856	

System: ethanol + formamide + diethoxymethane; phases: Liquid mixture 1, Liquid mixture 2
Fixed: Temperature, K = 309.15
Fixed: Pressure, kPa = 101.3
Property: Mass fraction of ethanol (Liquid mixture 1); method: Chromatography
Property: Mass fraction of ethanol (Liquid mixture 2); method: Chromatography
Property: Mass fraction of diethoxymethane (Liquid mixture 2); method: Chromatography
Mass fraction of diethoxymethane	Mass fraction of ethanol	uncertainty	Mass fraction of ethanol	uncertainty	Mass fraction of diethoxymethane	uncertainty
0.981	0		0		0.1235	
0.8285	0.0834	0.0091	0.1303	0.009	0.315	
0.7888	0.0965	0.009	0.1417	0.0089	0.3541	
0.9664	0.0075	0.0075	0.0169	0.0106	0.1525	
0.9593	0.0152	0.0101	0.0369	0.0109	0.167	
0.9447	0.0254	0.0098	0.0539	0.0102	0.1931	
0.9276	0.0345	0.0097	0.0703	0.0113	0.2137	
0.914	0.0436	0.0094	0.0842	0.0109	0.2234	
0.894	0.0517	0.0093	0.0955	0.0103	0.2413	
0.875	0.0623	0.0093	0.1052	0.0093	0.2512	
0.8516	0.0716	0.0093	0.1189	0.0091	0.2876	

System: 1,2-ethanediol + diethoxymethane; phases: Liquid mixture 2, Liquid mixture 1
Property: Mass fraction of diethoxymethane (Liquid mixture 2); method: Chromatography
Temperature, K	Pressure, kPa	Mass fraction of diethoxymethane	uncertainty
309.15	101.3	0.0764	0.0076

System: 1,2-ethanediol + diethoxymethane; phases: Liquid mixture 1, Liquid mixture 2
Property: Mass fraction of diethoxymethane (Liquid mixture 1); method: Chromatography
Temperature, K	Pressure, kPa	Mass fraction of diethoxymethane	uncertainty
309.15	101.3	0.9835	0.0076

System: diethoxymethane + propan-1,3-diol; phases: Liquid mixture 2, Liquid mixture 1
Property: Mass fraction of diethoxymethane (Liquid mixture 2); method: Chromatography
Temperature, K	Pressure, kPa	Mass fraction of diethoxymethane	uncertainty
309.15	101.3	0.1236	0.0077

System: diethoxymethane + propan-1,3-diol; phases: Liquid mixture 1, Liquid mixture 2
Property: Mass fraction of diethoxymethane (Liquid mixture 1); method: Chromatography
Temperature, K	Pressure, kPa	Mass fraction of diethoxymethane	uncertainty
309.15	101.3	0.9793	0.0076

System: 1,4-butanediol + diethoxymethane; phases: Liquid mixture 1, Liquid mixture 2
Property: Mass fraction of diethoxymethane (Liquid mixture 1); method: Chromatography
Temperature, K	Pressure, kPa	Mass fraction of diethoxymethane	uncertainty
309.15	101.3	0.9699	0.0076

System: 1,4-butanediol + diethoxymethane; phases: Liquid mixture 2, Liquid mixture 1
Property: Mass fraction of diethoxymethane (Liquid mixture 2); method: Chromatography
Temperature, K	Pressure, kPa	Mass fraction of diethoxymethane	uncertainty
309.15	101.3	0.1962	0.0077

System: formamide + diethoxymethane; phases: Liquid mixture 1, Liquid mixture 2
Property: Mass fraction of diethoxymethane (Liquid mixture 1); method: Chromatography
Temperature, K	Pressure, kPa	Mass fraction of diethoxymethane	uncertainty
309.15	101.3	0.981	0.0076

System: formamide + diethoxymethane; phases: Liquid mixture 2, Liquid mixture 1
Property: Mass fraction of diethoxymethane (Liquid mixture 2); method: Chromatography
Temperature, K	Pressure, kPa	Mass fraction of diethoxymethane	uncertainty
309.15	101.3	0.1235	0.0077
