Measured thermophysical data. Low-temperature heat capacity and standard molar enthalpy of formation of 9-fluorenemethanol (C14H12O)
Source: J. Chem. Thermodyn., 2004, 10.1016/j.jct.2003.08.017
Compound 1: carbon dioxide, CO2, InChI=1S/CO2/c2-1-3
Compound 2: water, H2O, InChI=1S/H2O/h1H2
Compound 3: oxygen, O2, InChI=1S/O2/c1-2
Compound 4: 9-fluorenemethanol, C14H12O, InChI=1S/C14H12O/c15-9-14-12-7-3-1-5-10(12)11-6-2-4-8-13(11)14/h1-8,14-15H,9H2

System: 9-fluorenemethanol; phases: Crystal, Liquid, Gas
Property: Molar enthalpy of transition or fusion, kJ/mol (Crystal); method: ADIACA:UFactor:4
Molar enthalpy of transition or fusion, kJ/mol	uncertainty
26.273	0.085

System: 9-fluorenemethanol; phases: Crystal, Liquid, Gas
Property: Triple point temperature, K (Crystal); method: ADIACA:UFactor:2
Triple point temperature, K	uncertainty
376.567	0.077

System: 9-fluorenemethanol; phases: Crystal
Fixed: Pressure, kPa = 101.325
Property: Molar heat capacity at constant pressure, J/K/mol (Crystal); method: Small (less than 1 g) adiabatic calorimetry
Temperature, K	Molar heat capacity at constant pressure, J/K/mol	uncertainty
78.503	8.9715	0.1157
79.899	9.0972	0.1165
82.262	9.2874	0.1176
84.642	9.4944	0.1188
85.94	9.5937	0.1194
87.239	9.7056	0.1201
88.538	9.826	0.1208
89.836	9.9486	0.1216
91.054	10.034	0.186
92.271	10.143	0.186
93.814	10.277	0.187
95.682	10.444	0.187
97.466	10.626	0.188
99.252	10.775	0.188
101.038	10.921	0.189
102.742	11.066	0.189
104.447	11.22	0.19
106.151	11.351	0.19
107.775	11.493	0.191
110.047	11.713	0.191
112.807	11.949	0.192
115.567	12.159	0.193
118.245	12.397	0.193
120.843	12.635	0.194
123.441	12.888	0.195
126.038	13.157	0.196
128.554	13.363	0.196
131.071	13.585	0.197
133.505	13.759	0.198
135.941	14.013	0.2
138.375	14.219	0.201
140.729	14.462	0.202
143.083	14.665	0.203
145.437	14.853	0.204
147.791	15.102	0.205
150.063	15.307	0.206
152.336	15.546	0.208
154.609	15.74	0.209
156.801	15.93	0.21
158.992	16.144	0.211
161.184	16.368	0.212
163.375	16.552	0.213
165.567	16.746	0.214
167.677	16.96	0.215
169.869	17.162	0.216
171.979	17.352	0.217
174.089	17.557	0.218
176.119	17.779	0.219
178.229	17.986	0.221
180.258	18.195	0.222
182.288	18.434	0.223
184.317	18.652	0.224
186.346	18.842	0.225
188.375	19.056	0.226
190.323	19.248	0.227
192.271	19.455	0.229
194.219	19.659	0.23
196.168	19.849	0.231
198.116	20.089	0.232
200.064	20.256	0.233
201.931	20.462	0.234
203.879	20.699	0.235
205.745	20.927	0.237
207.694	21.141	0.238
209.561	21.386	0.239
211.427	21.597	0.24
213.213	21.808	0.242
215.079	22.039	0.243
216.947	22.256	0.244
218.732	22.431	0.245
220.518	22.659	0.246
222.385	22.905	0.248
224.171	23.139	0.249
225.956	23.362	0.25
227.661	23.551	0.251
229.447	23.773	0.253
231.151	23.946	0.254
232.856	24.185	0.255
234.642	24.391	0.256
236.346	24.518	0.257
238.051	24.724	0.258
239.755	24.912	0.259
241.459	25.105	0.26
243.083	25.262	0.261
244.706	25.405	0.262
246.411	25.533	0.263
248.116	25.706	0.264
249.739	25.866	0.265
251.362	26.041	0.266
253.067	26.246	0.267
254.691	26.421	0.268
256.314	26.561	0.269
257.937	26.672	0.27
259.56	26.849	0.271
261.184	26.975	0.271
262.726	27.15	0.272
264.349	27.291	0.273
265.973	27.466	0.274
267.596	27.626	0.275
269.138	27.798	0.276
270.681	27.956	0.277
272.142	28.116	0.278
273.684	28.274	0.279
276.768	28.559	0.281
280.827	28.922	0.283
284.155	29.269	0.285
287.888	29.637	0.287
291.216	29.905	0.289
294.463	30.316	0.291
297.547	30.679	0.293
300.713	31.061	0.295
303.797	31.457	0.298
306.963	31.901	0.301
310.047	32.279	0.303
313.051	32.725	0.305
316.135	33.137	0.308
319.219	33.596	0.311
322.223	34.039	0.313
325.226	34.579	0.317
328.229	35.196	0.32
331.151	35.83	0.324
334.073	36.476	0.328
336.995	37.093	0.332
339.836	37.794	0.336
342.677	38.496	0.341
345.437	39.268	0.345
348.034	39.965	0.35
350.713	40.726	0.354
353.311	41.462	0.359
355.989	42.231	0.364
358.586	42.976	0.368
360.941	43.667	0.373

System: 9-fluorenemethanol; phases: Liquid
Fixed: Pressure, kPa = 101.325
Property: Molar heat capacity at constant pressure, J/K/mol (Liquid); method: Small (less than 1 g) adiabatic calorimetry
Temperature, K	Molar heat capacity at constant pressure, J/K/mol	uncertainty
378.409	50.199	0.321
379.627	50.758	0.323
381.412	51.751	0.327
383.586	52.704	0.331
385.714	53.719	0.335
387.581	54.671	0.339
389.692	55.376	0.341

Reaction: -1 9-fluorenemethanol + 14 carbon dioxide + 6 water + -16.5 oxygen
Property: Molar internal energy of reaction at constant volume, kJ/mol
-7125.56
