Measured thermophysical data. Solubility of succinic acid, glutaric acid and adipic acid in propionic acid + epsilon-caprolactone + water mixtures: Experimental measurement and thermodynamic modeling
Source: J. Chem. Thermodyn., 2019, 10.1016/j.jct.2019.06.033
Compound 1: butanedioic acid, C4H6O4, InChI=1S/C4H6O4/c5-3(6)1-2-4(7)8/h1-2H2,(H,5,6)(H,7,8), purity 99.5%
Compound 2: 1,5-pentanedioic acid, C5H8O4, InChI=1S/C5H8O4/c6-4(7)2-1-3-5(8)9/h1-3H2,(H,6,7)(H,8,9), purity 99%
Compound 3: 1,6-hexanedioic acid, C6H10O4, InChI=1S/C6H10O4/c7-5(8)3-1-2-4-6(9)10/h1-4H2,(H,7,8)(H,9,10), purity 99%
Compound 4: propanoic acid, C3H6O2, InChI=1S/C3H6O2/c1-2-3(4)5/h2H2,1H3,(H,4,5), purity 99.5%
Compound 5: water, H2O, InChI=1S/H2O/h1H2, purity 99.9%
Compound 6: acetic acid, C2H4O2, InChI=1S/C2H4O2/c1-2(3)4/h1H3,(H,3,4), purity 99.5%

System: butanedioic acid + propanoic acid + water; phases: Liquid, Crystal
Fixed: Pressure, kPa = 101.3
Property: Solid-liquid equilibrium temperature, K (Liquid); method: VISOBS
Solvent: Mass fraction of propanoic acid	Mole fraction of butanedioic acid	Solid-liquid equilibrium temperature, K	uncertainty
1	0.0075	288.15	2.89
1	0.01	292.95	3.78
1	0.0127	297.95	4.39
1	0.0159	303.15	4.88
1	0.0189	307.45	5.74
1	0.0225	313.15	6.54
1	0.026	317.75	6.08
1	0.0296	321.45	6
1	0.0338	325.65	6.36
1	0.0378	329.15	6.62
0.8	0.0098	294.45	3.99
0.8	0.0116	297.95	4.32
0.8	0.0144	303.05	4.82
0.8	0.0181	308.85	5.52
0.8	0.0205	312.35	5.38
0.8	0.025	317.75	5.66
0.8	0.0294	322.25	5.86
0.8	0.0338	326.45	5.93
0.8	0.0386	330.45	5.71
0.8	0.0442	334.25	6.01
0.6	0.0086	292.55	4.32
0.6	0.0102	296.55	4.62
0.6	0.012	300.25	4.97
0.6	0.0132	302.75	4.8
0.6	0.0156	306.85	5.3
0.6	0.0184	311.55	5.23
0.6	0.0223	316.45	5.42
0.6	0.0272	322.25	5.7
0.6	0.0326	327.25	5.36
0.6	0.041	333.65	6.25
0.4	0.0092	295.25	4.31
0.4	0.0108	298.75	4.86
0.4	0.0131	304.05	5.6
0.4	0.0149	307.25	5.18
0.4	0.0176	311.95	5.26
0.4	0.021	316.45	5.1
0.4	0.0259	322.05	5.72
0.4	0.0302	326.55	5.54
0.4	0.036	331.35	5.92
0.4	0.0414	335.75	6.58
0.2	0.0091	295.75	4.84
0.2	0.0106	299.55	5.35
0.2	0.0121	303.35	5.72
0.2	0.0139	307.75	5.6
0.2	0.0167	312.35	4.93
0.2	0.0202	316.95	4.9
0.2	0.0238	320.95	5.14
0.2	0.0279	325.25	5.52
0.2	0.0328	329.85	5.76
0.2	0.0396	335.55	6.64
0	0.0091	295.95	4.74
0	0.0106	299.85	5.3
0	0.0129	305.45	5.36
0	0.0155	310.05	5.49
0	0.0185	315.35	5.51
0	0.0218	319.45	5.41
0	0.026	324.65	5.91
0	0.03	328.75	5.78
0	0.0336	331.95	5.92
0	0.0392	336.85	6.87

System: 1,5-pentanedioic acid + propanoic acid + water; phases: Liquid, Crystal
Fixed: Pressure, kPa = 101.3
Property: Solid-liquid equilibrium temperature, K (Liquid); method: VISOBS
Solvent: Mass fraction of propanoic acid	Mole fraction of 1,5-pentanedioic acid	Solid-liquid equilibrium temperature, K	uncertainty
1	0.2377	289.55	6.4
1	0.2719	294.15	6.88
1	0.3369	302.15	8.34
1	0.3647	305.65	8.85
1	0.3946	309.15	10.2
1	0.4203	312.85	11.25
1	0.4469	316.15	11.24
1	0.4744	319.65	11.44
1	0.509	323.65	10.88
1	0.5869	332.15	9.02
0.8	0.2185	288.95	7.55
0.8	0.244	293.35	7.96
0.8	0.274	298.55	8.89
0.8	0.3102	304.35	9.37
0.8	0.3436	309.05	9.68
0.8	0.3724	313.15	10.52
0.8	0.4029	317.55	10.81
0.8	0.4409	321.95	10.33
0.8	0.4756	326.05	10.68
0.8	0.5029	329.25	11.66
0.6	0.188	289.35	7.26
0.6	0.2129	294.15	7.68
0.6	0.2369	298.15	7.75
0.6	0.2648	302.65	7.98
0.6	0.2899	306.15	8.52
0.6	0.3173	310.35	9.13
0.6	0.3503	314.65	9.14
0.6	0.3867	319.25	9.2
0.6	0.432	324.35	9.53
0.6	0.4826	329.75	10.3
0.4	0.1588	288.85	6.78
0.4	0.1813	293.65	7.08
0.4	0.2059	298.25	7.29
0.4	0.2358	303.35	7.4
0.4	0.2674	307.95	8.02
0.4	0.3013	313.15	8.45
0.4	0.3334	317.25	8.22
0.4	0.3752	321.75	7.94
0.4	0.4092	325.45	9.45
0.4	0.4419	329.45	10.17
0.2	0.1446	289.85	6.2
0.2	0.1664	294.45	6.33
0.2	0.1845	297.55	6.68
0.2	0.2046	301.05	6.69
0.2	0.2384	306.35	7.32
0.2	0.271	311.25	7.52
0.2	0.3137	316.95	7.9
0.2	0.3519	321.35	8.62
0.2	0.3872	325.95	8.95
0.2	0.4308	330.55	9.09
0	0.1247	288.05	4.69
0	0.1508	292.95	5.76
0	0.1761	297.85	6.79
0	0.2043	303.25	7.42
0	0.2323	308.05	8.07
0	0.2602	312.95	8.01
0	0.297	318.05	8.16
0	0.328	322.25	8.94
0	0.3609	326.75	8.66
0	0.3995	330.85	8.49

System: 1,6-hexanedioic acid + propanoic acid + water; phases: Liquid, Crystal
Fixed: Pressure, kPa = 101.3
Property: Solid-liquid equilibrium temperature, K (Liquid); method: VISOBS
Solvent: Mass fraction of propanoic acid	Mole fraction of 1,6-hexanedioic acid	Solid-liquid equilibrium temperature, K	uncertainty
1	0.0228	289.65	4.87
1	0.0274	294.55	5.15
1	0.0332	299.45	4.81
1	0.0394	303.25	4.93
1	0.046	307.45	5.65
1	0.0518	310.85	4.96
1	0.0627	315.55	4.75
1	0.0745	319.45	4.54
1	0.0867	322.85	3.91
1	0.1195	329.75	5.04
0.8	0.0159	287.15	4.35
0.8	0.0181	290.15	4.12
0.8	0.022	294.15	4.11
0.8	0.0266	298.25	4.19
0.8	0.032	302.15	4.6
0.8	0.038	306.25	4.53
0.8	0.0482	311.65	4.07
0.8	0.059	316.05	4.42
0.8	0.0748	321.95	4.74
0.8	0.0939	327.15	5.12
0.6	0.0099	285.35	4.21
0.6	0.0117	289.15	4.3
0.6	0.0142	293.25	4.1
0.6	0.017	296.75	3.64
0.6	0.0209	300.95	3.85
0.6	0.0258	304.95	3.61
0.6	0.0322	309.05	3.94
0.6	0.0414	314.65	4.01
0.6	0.0551	320.45	4.29
0.6	0.0697	325.65	4.98
0.4	0.0065	286.35	5.23
0.4	0.0073	289.15	5.57
0.4	0.0085	293.25	4.58
0.4	0.0104	297.05	3.69
0.4	0.0128	301.35	3.93
0.4	0.0158	305.65	3.68
0.4	0.0198	309.45	3.77
0.4	0.0247	313.95	3.91
0.4	0.0329	319.85	3.7
0.4	0.0452	325.65	4.29
0.2	0.0028	288.95	0.29
0.2	0.0038	293.25	1.28
0.2	0.0053	298.05	2.78
0.2	0.0069	302.35	3.54
0.2	0.0089	306.65	3.6
0.2	0.0121	311.65	3.39
0.2	0.0157	316.05	3.65
0.2	0.0206	320.95	3.62
0.2	0.0257	324.95	3.91
0.2	0.0329	329.95	4.45
0	0.0034	293.15	2.96
0	0.0046	298.35	3.79
0	0.006	303.85	4.13
0	0.0072	307.25	4.2
0	0.0083	310.55	3.42
0	0.0114	316.15	4.08
0	0.0139	320.55	4.24
0	0.0176	325.65	4.15
0	0.023	331.35	4.44
0	0.0291	336.75	5.16

System: butanedioic acid + propanoic acid; phases: Liquid, Crystal
Fixed: Pressure, kPa = 101.3
Property: Solid-liquid equilibrium temperature, K (Liquid); method: VISOBS
Mole fraction of butanedioic acid	Solid-liquid equilibrium temperature, K	uncertainty
0.0075	288.15	2.89
0.01	292.95	3.78
0.0127	297.95	4.39
0.0159	303.15	4.88
0.0189	307.45	5.74
0.0225	313.15	6.54
0.026	317.75	6.08
0.0296	321.45	6
0.0338	325.65	6.36
0.0378	329.15	6.62

System: butanedioic acid + water; phases: Liquid, Crystal
Fixed: Pressure, kPa = 101.3
Property: Solid-liquid equilibrium temperature, K (Liquid); method: VISOBS
Mole fraction of butanedioic acid	Solid-liquid equilibrium temperature, K	uncertainty
0.0091	295.95	4.74
0.0106	299.85	5.3
0.0129	305.45	5.36
0.0155	310.05	5.49
0.0185	315.35	5.51
0.0218	319.45	5.41
0.026	324.65	5.91
0.03	328.75	5.78
0.0336	331.95	5.92
0.0392	336.85	6.87

System: 1,5-pentanedioic acid + propanoic acid; phases: Liquid, Crystal
Fixed: Pressure, kPa = 101.3
Property: Solid-liquid equilibrium temperature, K (Liquid); method: VISOBS
Mole fraction of 1,5-pentanedioic acid	Solid-liquid equilibrium temperature, K	uncertainty
0.2377	289.55	6.4
0.2719	294.15	6.88
0.3369	302.15	8.34
0.3647	305.65	8.85
0.3946	309.15	10.2
0.4203	312.85	11.25
0.4469	316.15	11.24
0.4744	319.65	11.44
0.509	323.65	10.88
0.5869	332.15	9.02

System: 1,5-pentanedioic acid + water; phases: Liquid, Crystal
Fixed: Pressure, kPa = 101.3
Property: Solid-liquid equilibrium temperature, K (Liquid); method: VISOBS
Mole fraction of 1,5-pentanedioic acid	Solid-liquid equilibrium temperature, K	uncertainty
0.1247	288.05	4.69
0.1508	292.95	5.76
0.1761	297.85	6.79
0.2043	303.25	7.42
0.2323	308.05	8.07
0.2602	312.95	8.01
0.297	318.05	8.16
0.328	322.25	8.94
0.3609	326.75	8.66
0.3995	330.85	8.49

System: 1,6-hexanedioic acid + propanoic acid; phases: Liquid, Crystal
Fixed: Pressure, kPa = 101.3
Property: Solid-liquid equilibrium temperature, K (Liquid); method: VISOBS
Mole fraction of 1,6-hexanedioic acid	Solid-liquid equilibrium temperature, K	uncertainty
0.0228	289.65	4.87
0.0274	294.55	5.15
0.0332	299.45	4.81
0.0394	303.25	4.93
0.046	307.45	5.65
0.0518	310.85	4.96
0.0627	315.55	4.75
0.0745	319.45	4.54
0.0867	322.85	3.91
0.1195	329.75	5.04

System: 1,6-hexanedioic acid + water; phases: Liquid, Crystal
Fixed: Pressure, kPa = 101.3
Property: Solid-liquid equilibrium temperature, K (Liquid); method: VISOBS
Mole fraction of 1,6-hexanedioic acid	Solid-liquid equilibrium temperature, K	uncertainty
0.0034	293.15	2.96
0.0046	298.35	3.79
0.006	303.85	4.13
0.0072	307.25	4.2
0.0083	310.55	3.42
0.0114	316.15	4.08
0.0139	320.55	4.24
0.0176	325.65	4.15
0.023	331.35	4.44
0.0291	336.75	5.16

System: 1,6-hexanedioic acid + acetic acid; phases: Liquid, Crystal
Fixed: Pressure, kPa = 101.3
Property: Solid-liquid equilibrium temperature, K (Liquid); method: VISOBS
Mole fraction of 1,6-hexanedioic acid	Solid-liquid equilibrium temperature, K	uncertainty
0.0256	302.35	4.48
0.0311	307.15	5.92
0.0349	311.25	5.38
0.0415	315.35	5.23
0.0476	319.25	8.18
0.0508	323.65	13.97
0.066	328.45	4.58
0.0781	333.15	5.45
0.0929	337.85	5.61
0.1099	342.75	6.34

System: 1,5-pentanedioic acid + acetic acid; phases: Liquid, Crystal
Fixed: Pressure, kPa = 101.3
Property: Solid-liquid equilibrium temperature, K (Liquid); method: VISOBS
Mole fraction of 1,5-pentanedioic acid	Solid-liquid equilibrium temperature, K	uncertainty
0.214	301.85	6.38
0.2422	306.05	9.32
0.2591	310.75	8.29
0.294	314.75	8.08
0.3148	318.55	8.05
0.3571	323.05	7.83
0.4024	328.15	9.25
0.4406	332.65	7.91
0.5011	337.15	8.67
0.5394	341.35	10.11

System: butanedioic acid + acetic acid; phases: Liquid, Crystal
Fixed: Pressure, kPa = 101.3
Property: Solid-liquid equilibrium temperature, K (Liquid); method: VISOBS
Mole fraction of butanedioic acid	Solid-liquid equilibrium temperature, K	uncertainty
0.0168	303.15	5.38
0.0198	307.95	7.04
0.022	312.45	8.71
0.0249	318.05	5.23
0.0311	322.55	5.55
0.0359	327.95	7.03
0.0409	332.15	6.93
0.0457	336.25	7.13
0.0514	340.35	6.6
0.0595	345.15	7.06
