Measured thermophysical data. Application of ERAS-model and Prigogine-Flory-Patterson theory to excess molar volumes for ternary mixtures of (2-chlorobutane + butylacetate + isobutanol) at T = 298.15 K
Source: J. Chem. Thermodyn., 2011, 10.1016/j.jct.2011.05.017
Compound 1: 2-chlorobutane, C4H9Cl, InChI=1S/C4H9Cl/c1-3-4(2)5/h4H,3H2,1-2H3, purity 99%
Compound 2: butyl ethanoate, C6H12O2, InChI=1S/C6H12O2/c1-3-4-5-8-6(2)7/h3-5H2,1-2H3, purity 99%
Compound 3: 2-methyl-1-propanol, C4H10O, InChI=1S/C4H10O/c1-4(2)3-5/h4-5H,3H2,1-2H3, purity 99%

System: 2-chlorobutane + butyl ethanoate; phases: Liquid
Fixed: Temperature, K = 298.15
Fixed: Pressure, kPa = 101
Property: Mass density, kg/m3 (Liquid); method: Vibrating tube method
Mole fraction of 2-chlorobutane	Mass density, kg/m3	uncertainty
0	876.2	0.23
0.0787	875.55	0.24
0.1618	874.83	0.24
0.233	874.2	0.24
0.325	873.36	0.24
0.3861	872.8	0.24
0.4512	872.2	0.24
0.506	871.7	0.24
0.5902	870.94	0.24
0.6656	870.27	0.24
0.7352	869.65	0.24
0.7862	869.19	0.24
0.8516	868.6	0.24
0.8961	868.19	0.24
0.9458	867.73	0.24
1	867.21	0.24

System: 2-chlorobutane + butyl ethanoate; phases: Liquid
Fixed: Temperature, K = 298.15
Fixed: Pressure, kPa = 101
Property: Excess molar volume, m3/mol (Liquid); method: Calculated with densities of this investigation
Mole fraction of 2-chlorobutane	Excess molar volume, m3/mol	uncertainty
0	0	8e-09
0.0787	1.1e-08	8e-09
0.1618	2.4e-08	8e-09
0.233	3.4e-08	8e-09
0.325	4.7e-08	8e-09
0.3861	5.3e-08	8e-09
0.4512	5.8e-08	8e-09
0.506	6e-08	8e-09
0.5902	5.8e-08	8e-09
0.6656	5.2e-08	8e-09
0.7352	4.4e-08	8e-09
0.7862	3.7e-08	8e-09
0.8516	2.7e-08	8e-09
0.8961	1.9e-08	8e-09
0.9458	1e-08	8e-09
1	0	8e-09

System: 2-methyl-1-propanol + 2-chlorobutane; phases: Liquid
Fixed: Temperature, K = 298.15
Fixed: Pressure, kPa = 101
Property: Mass density, kg/m3 (Liquid); method: Vibrating tube method
Mole fraction of 2-chlorobutane	Mass density, kg/m3	uncertainty
0	797.82	0.24
0.0579	801.82	0.24
0.1152	805.77	0.24
0.2274	813.51	0.24
0.3166	819.67	0.24
0.4235	827.01	0.24
0.4896	831.53	0.24
0.5564	836.12	0.24
0.6097	839.79	0.24
0.6872	845.08	0.24
0.7523	849.59	0.24
0.809	853.54	0.24
0.8487	856.33	0.24
0.8975	859.77	0.24
0.9293	862.05	0.24
0.9638	864.55	0.24
1	867.21	0.24

System: 2-methyl-1-propanol + 2-chlorobutane; phases: Liquid
Fixed: Temperature, K = 298.15
Fixed: Pressure, kPa = 101
Property: Excess molar volume, m3/mol (Liquid); method: Calculated with densities of this investigation
Mole fraction of 2-chlorobutane	Excess molar volume, m3/mol	uncertainty
0	0	8e-09
0.0579	6.8e-08	8e-09
0.1152	1.27e-07	8e-09
0.2274	2.18e-07	8e-09
0.3166	2.68e-07	8e-09
0.4235	3.07e-07	8e-09
0.4896	3.2e-07	9e-09
0.5564	3.21e-07	9e-09
0.6097	3.13e-07	8e-09
0.6872	2.96e-07	8e-09
0.7523	2.63e-07	8e-09
0.809	2.25e-07	8e-09
0.8487	1.91e-07	8e-09
0.8975	1.43e-07	8e-09
0.9293	1.04e-07	8e-09
0.9638	5.7e-08	8e-09
1	0	8e-09

System: 2-methyl-1-propanol + butyl ethanoate; phases: Liquid
Fixed: Temperature, K = 298.15
Fixed: Pressure, kPa = 101
Property: Mass density, kg/m3 (Liquid); method: Vibrating tube method
Mole fraction of butyl ethanoate	Mass density, kg/m3	uncertainty
0	797.82	0.24
0.0589	802.41	0.24
0.1065	806.12	0.24
0.1907	812.7	0.24
0.272	819.03	0.24
0.3894	828.2	0.24
0.4427	832.34	0.24
0.5277	838.96	0.24
0.607	845.14	0.24
0.6829	851.07	0.24
0.7405	855.58	0.24
0.8166	861.57	0.24
0.87	865.79	0.24
0.9312	870.67	0.24
1	876.2	0.23

System: 2-methyl-1-propanol + butyl ethanoate; phases: Liquid
Fixed: Temperature, K = 298.15
Fixed: Pressure, kPa = 101
Property: Excess molar volume, m3/mol (Liquid); method: Calculated with densities of this investigation
Mole fraction of butyl ethanoate	Excess molar volume, m3/mol	uncertainty
0	0	8e-09
0.0589	2.17e-07	8e-09
0.1065	3.72e-07	9e-09
0.1907	5.99e-07	9e-09
0.272	7.65e-07	1e-08
0.3894	9.12e-07	1e-08
0.4427	9.46e-07	1e-08
0.5277	9.53e-07	1e-08
0.607	9.13e-07	1e-08
0.6829	8.3e-07	1e-08
0.7405	7.38e-07	9e-09
0.8166	5.78e-07	9e-09
0.87	4.38e-07	9e-09
0.9312	2.49e-07	8e-09
1	0	8e-09

System: 2-methyl-1-propanol + 2-chlorobutane + butyl ethanoate; phases: Liquid
Fixed: Temperature, K = 298.15
Fixed: Pressure, kPa = 101
Property: Mass density, kg/m3 (Liquid); method: Vibrating tube method
Mole fraction of 2-chlorobutane	Mole fraction of butyl ethanoate	Mass density, kg/m3	uncertainty
0.0506	0.0526	805.56	0.24
0.0547	0.0658	806.91	0.24
0.0577	0.1739	815.74	0.24
0.0584	0.2121	818.83	0.24
0.0601	0.3798	832.19	0.24
0.0628	0.3414	829.38	0.24
0.0699	0.6048	850.58	0.24
0.0751	0.5398	845.88	0.24
0.0756	0.8665	871.6	0.24
0.1028	0.0327	807.67	0.24
0.1115	0.1775	820.03	0.24
0.126	0.344	834.37	0.24
0.1313	0.5533	851.13	0.24
0.1434	0.7953	870.69	0.24
0.2218	0.175	827.87	0.24
0.2293	0.2587	835.2	0.24
0.2412	0.3457	842.97	0.24
0.2495	0.4439	851.2	0.24
0.2612	0.5462	859.81	0.24
0.277	0.6672	869.87	0.24
0.4002	0.5463	868.9	0.24
0.439	0.1004	836.82	0.24
0.4431	0.1752	843.45	0.24
0.4555	0.4357	864.47	0.24
0.4558	0.0291	831.65	0.24
0.4624	0.2556	851.3	0.24
0.4784	0.3456	859.32	0.24
0.5051	0.4407	867.92	0.24
0.5164	0.3852	864.69	0.24
0.5385	0.2722	857.73	0.24
0.5525	0.1758	851	0.24
0.563	0.2974	861.25	0.24
0.6282	0.3219	867.13	0.24
0.6605	0.1782	858.51	0.24
0.69	0.2565	866.34	0.24
0.7449	0.0721	855.31	0.24
0.774	0.1755	865.8	0.24
0.8649	0.0316	860.14	0.24
0.9176	0.0329	864.19	0.24

System: 2-methyl-1-propanol + 2-chlorobutane + butyl ethanoate; phases: Liquid
Fixed: Temperature, K = 298.15
Fixed: Pressure, kPa = 101
Property: Excess molar volume, m3/mol (Liquid); method: Calculated with densities of this investigation
Mole fraction of 2-chlorobutane	Mole fraction of butyl ethanoate	Excess molar volume, m3/mol	uncertainty
0.0506	0.0526	2.24e-07	8e-09
0.0547	0.0658	2.64e-07	8e-09
0.0577	0.1739	5.29e-07	9e-09
0.0584	0.2121	6e-07	9e-09
0.0601	0.3798	7.83e-07	1e-08
0.0628	0.3414	7.55e-07	1e-08
0.0699	0.6048	6.86e-07	9e-09
0.0751	0.5398	7.33e-07	1e-08
0.0756	0.8665	1.1e-07	8e-09
0.1028	0.0327	1.96e-07	8e-09
0.1115	0.1775	5.08e-07	9e-09
0.126	0.344	6.59e-07	9e-09
0.1313	0.5533	5.9e-07	9e-09
0.1434	0.7953	1.29e-07	8e-09
0.2218	0.175	4.45e-07	9e-09
0.2293	0.2587	4.93e-07	9e-09
0.2412	0.3457	4.91e-07	9e-09
0.2495	0.4439	4.43e-07	9e-09
0.2612	0.5462	3.3e-07	9e-09
0.277	0.6672	1.24e-07	8e-09
0.4002	0.5463	1.18e-07	8e-09
0.439	0.1004	3.33e-07	9e-09
0.4431	0.1752	3.15e-07	9e-09
0.4555	0.4357	1.58e-07	8e-09
0.4558	0.0291	3.4e-07	9e-09
0.4624	0.2556	2.66e-07	8e-09
0.4784	0.3456	1.97e-07	8e-09
0.5051	0.4407	1.07e-07	8e-09
0.5164	0.3852	1.33e-07	8e-09
0.5385	0.2722	1.83e-07	8e-09
0.5525	0.1758	2.36e-07	8e-09
0.563	0.2974	1.44e-07	8e-09
0.6282	0.3219	8.1e-08	8e-09
0.6605	0.1782	1.42e-07	8e-09
0.69	0.2565	6.7e-08	8e-09
0.7449	0.0721	1.96e-07	8e-09
0.774	0.1755	4.5e-08	8e-09
0.8649	0.0316	1.41e-07	8e-09
0.9176	0.0329	4.92e-08	7.9e-09
