Measured thermophysical data. Effect of NaCl and KCl on volumetric and acoustic behaviour of procaine hydrochloride in aqueous solution at different temperatures (288.15, 298.15 and 308.15) K
Source: J. Chem. Thermodyn., 2017, 10.1016/j.jct.2017.04.015
Compound 1: 2-diethylaminoethyl p-aminobenzoate hydrochloride, C13H21ClN2O2, InChI=1S/C13H20N2O2.ClH/c1-3-15(4-2)9-10-17-13(16)11-5-7-12(14)8-6-11;/h5-8H,3-4,9-10,14H2,1-2H3;1H, purity 97%
Compound 2: sodium chloride, ClNa, InChI=1S/ClH.Na/h1H;/q;+1/p-1, purity 99%
Compound 3: potassium chloride, ClK, InChI=1S/ClH.K/h1H;/q;+1/p-1, purity 97%
Compound 4: water, H2O, InChI=1S/H2O/h1H2

System: 2-diethylaminoethyl p-aminobenzoate hydrochloride + sodium chloride + water; phases: Liquid
Fixed: Pressure, kPa = 101.3
Property: Mass density, kg/m3 (Liquid); method: Pycnometric method
Temperature, K	Solvent: Molality, mol/kg of sodium chloride	Molality, mol/kg of 2-diethylaminoethyl p-aminobenzoate hydrochloride	Mass density, kg/m3	uncertainty
288.15	0	0	999.1	1.61
288.15	0	0.01	999.6	1.61
288.15	0	0.02	1000.1	1.61
288.15	0	0.0301	1000.6	1.61
288.15	0	0.04	1001.1	1.61
288.15	0	0.05	1001.6	1.61
288.15	0	0.055	1001.85	1.61
288.15	0	0.0599	1002.09	1.61
288.15	0	0.065	1002.34	1.61
288.15	0	0.0701	1002.6	1.61
288.15	0	0.0751	1002.85	1.61
288.15	0	0.0801	1003.1	1.61
288.15	0	0.0852	1003.35	1.61
288.15	0	0.0898	1003.58	1.61
288.15	0	0.0952	1003.85	1.61
288.15	0	0.1	1004.09	1.61
298.15	0	0	997.05	1.61
298.15	0	0.0098	997.52	1.61
298.15	0	0.0196	997.99	1.61
298.15	0	0.0297	998.49	1.61
298.15	0	0.0406	999.02	1.61
298.15	0	0.0492	999.44	1.61
298.15	0	0.0534	999.65	1.61
298.15	0	0.061	1000.02	1.61
298.15	0	0.0636	1000.15	1.61
298.15	0	0.0688	1000.4	1.61
298.15	0	0.0758	1000.74	1.61
298.15	0	0.0783	1000.86	1.61
298.15	0	0.0846	1001.17	1.61
298.15	0	0.09	1001.44	1.61
298.15	0	0.0951	1001.68	1.61
298.15	0	0.1003	1001.94	1.61
308.15	0	0	994.03	1.61
308.15	0	0.01	994.51	1.61
308.15	0	0.02	995	1.61
308.15	0	0.03	995.48	1.61
308.15	0	0.0401	995.97	1.61
308.15	0	0.0499	996.44	1.62
308.15	0	0.055	996.69	1.62
308.15	0	0.06	996.93	1.62
308.15	0	0.065	997.17	1.62
308.15	0	0.0698	997.4	1.62
308.15	0	0.075	997.65	1.62
308.15	0	0.0801	997.9	1.62
308.15	0	0.085	998.14	1.62
308.15	0	0.09	998.38	1.62
308.15	0	0.095	998.62	1.62
308.15	0	0.1	998.86	1.62
288.15	0.06	0	1001.66	1.61
288.15	0.06	0.0099	1002.14	1.61
288.15	0.06	0.0206	1002.67	1.61
288.15	0.06	0.0306	1003.15	1.61
288.15	0.06	0.0396	1003.56	1.61
288.15	0.06	0.0508	1004.12	1.61
288.15	0.06	0.0532	1004.26	1.61
288.15	0.06	0.0602	1004.61	1.61
288.15	0.06	0.0651	1004.87	1.61
288.15	0.06	0.0696	1005.04	1.61
288.15	0.06	0.0752	1005.37	1.61
288.15	0.06	0.0814	1005.63	1.61
288.15	0.06	0.0858	1005.84	1.61
288.15	0.06	0.0929	1006.17	1.61
288.15	0.06	0.0962	1006.41	1.61
288.15	0.06	0.1024	1006.68	1.61
298.15	0.06	0	999.52	1.61
298.15	0.06	0.0101	999.98	1.61
298.15	0.06	0.0196	1000.43	1.61
298.15	0.06	0.0298	1000.9	1.61
298.15	0.06	0.0405	1001.45	1.61
298.15	0.06	0.0491	1001.84	1.61
298.15	0.06	0.0533	1002.06	1.61
298.15	0.06	0.0613	1002.43	1.61
298.15	0.06	0.0638	1002.51	1.61
298.15	0.06	0.0686	1002.74	1.61
298.15	0.06	0.0759	1003.06	1.61
298.15	0.06	0.0782	1003.23	1.61
298.15	0.06	0.0841	1003.49	1.61
298.15	0.06	0.0899	1003.73	1.61
298.15	0.06	0.0948	1003.97	1.61
298.15	0.06	0.0999	1004.2	1.61
308.15	0.06	0	996.46	1.62
308.15	0.06	0.0098	996.9	1.62
308.15	0.06	0.0209	997.42	1.62
308.15	0.06	0.031	997.9	1.62
308.15	0.06	0.0409	998.36	1.62
308.15	0.06	0.0492	998.75	1.62
308.15	0.06	0.0549	999.02	1.62
308.15	0.06	0.0605	999.28	1.62
308.15	0.06	0.0655	999.52	1.62
308.15	0.06	0.0711	999.78	1.62
308.15	0.06	0.0747	999.95	1.62
308.15	0.06	0.0794	1000.17	1.62
308.15	0.06	0.083	1000.34	1.62
308.15	0.06	0.0895	1000.64	1.62
308.15	0.06	0.0945	1000.87	1.62
308.15	0.06	0.0985	1001.06	1.62
288.15	0.1	0	1003.32	1.61
288.15	0.1	0.0104	1003.81	1.61
288.15	0.1	0.0196	1004.24	1.61
288.15	0.1	0.0295	1004.71	1.61
288.15	0.1	0.0393	1005.17	1.61
288.15	0.1	0.0492	1005.64	1.61
288.15	0.1	0.0542	1005.87	1.61
288.15	0.1	0.0588	1006.09	1.61
288.15	0.1	0.0635	1006.31	1.61
288.15	0.1	0.0694	1006.59	1.61
288.15	0.1	0.0762	1006.91	1.61
288.15	0.1	0.0806	1007.11	1.61
288.15	0.1	0.0852	1007.33	1.61
288.15	0.1	0.0895	1007.53	1.61
288.15	0.1	0.096	1007.84	1.61
288.15	0.1	0.0969	1007.88	1.61
298.15	0.1	0	1001.14	1.61
298.15	0.1	0.0099	1001.59	1.61
298.15	0.1	0.0196	1002.03	1.61
298.15	0.1	0.0297	1002.48	1.61
298.15	0.1	0.0396	1002.92	1.61
298.15	0.1	0.05	1003.39	1.61
298.15	0.1	0.0538	1003.57	1.61
298.15	0.1	0.0599	1003.84	1.61
298.15	0.1	0.0641	1004.04	1.61
298.15	0.1	0.0698	1004.29	1.61
298.15	0.1	0.075	1004.54	1.61
298.15	0.1	0.08	1004.76	1.61
298.15	0.1	0.085	1005	1.61
298.15	0.1	0.0888	1005.17	1.61
298.15	0.1	0.095	1005.46	1.61
298.15	0.1	0.1	1005.69	1.61
308.15	0.1	0	998.05	1.62
308.15	0.1	0.0103	998.5	1.62
308.15	0.1	0.0204	998.94	1.62
308.15	0.1	0.0296	999.38	1.62
308.15	0.1	0.0404	999.83	1.62
308.15	0.1	0.0509	1000.29	1.62
308.15	0.1	0.056	1000.5	1.62
308.15	0.1	0.0584	1000.73	1.62
308.15	0.1	0.0652	1000.96	1.62
308.15	0.1	0.07	1001.23	1.62
308.15	0.1	0.0754	1001.39	1.62
308.15	0.1	0.0799	1001.62	1.62
308.15	0.1	0.0852	1001.85	1.62
308.15	0.1	0.0899	1002.06	1.62
308.15	0.1	0.0953	1002.29	1.62
308.15	0.1	0.1003	1002.53	1.62

System: 2-diethylaminoethyl p-aminobenzoate hydrochloride + sodium chloride + water; phases: Liquid
Fixed: Pressure, kPa = 101.3
Fixed: Frequency, MHz = 2
Property: Speed of sound, m/s (Liquid); method: Linear variable-path acoustic interferometer
Temperature, K	Solvent: Molality, mol/kg of sodium chloride	Molality, mol/kg of 2-diethylaminoethyl p-aminobenzoate hydrochloride	Speed of sound, m/s	uncertainty
288.15	0	0	1465.9	2.9
288.15	0	0.01	1467.5	2.9
288.15	0	0.02	1469.1	2.9
288.15	0	0.0301	1470.7	2.9
288.15	0	0.04	1472.3	2.9
288.15	0	0.05	1473.9	2.9
288.15	0	0.055	1474.7	2.9
288.15	0	0.0599	1475.4	2.9
288.15	0	0.065	1476.2	2.9
288.15	0	0.0701	1477	2.9
288.15	0	0.0751	1477.7	2.9
288.15	0	0.0801	1478.5	2.9
288.15	0	0.0852	1479.2	2.9
288.15	0	0.0898	1480	2.9
288.15	0	0.0952	1480.7	2.9
288.15	0	0.1	1481.4	2.9
298.15	0	0	1496.7	2.9
298.15	0	0.0098	1498.3	2.9
298.15	0	0.0196	1499.9	2.9
298.15	0	0.0297	1501.5	2.9
298.15	0	0.0406	1503.2	2.9
298.15	0	0.0492	1504.6	2.9
298.15	0	0.0534	1505.3	2.9
298.15	0	0.061	1506.5	2.9
298.15	0	0.0636	1506.9	2.9
298.15	0	0.0688	1507.7	2.9
298.15	0	0.0758	1508.8	2.9
298.15	0	0.0783	1509.2	2.9
298.15	0	0.0846	1510.2	2.9
298.15	0	0.09	1511	2.9
298.15	0	0.0951	1511.7	2.9
298.15	0	0.1003	1512.5	3
308.15	0	0	1519.8	2.9
308.15	0	0.01	1521.4	2.9
308.15	0	0.02	1523	2.9
308.15	0	0.03	1524.6	2.9
308.15	0	0.0401	1526.2	2.9
308.15	0	0.0499	1527.8	2.9
308.15	0	0.055	1528.6	2.9
308.15	0	0.06	1529.4	2.9
308.15	0	0.065	1530.1	2.9
308.15	0	0.0698	1530.9	2.9
308.15	0	0.075	1531.7	2.9
308.15	0	0.0801	1532.5	2.9
308.15	0	0.085	1533.2	2.9
308.15	0	0.09	1534	2.9
308.15	0	0.095	1534.7	2.9
308.15	0	0.1	1535.4	2.9
288.15	0.06	0	1468.2	2.9
288.15	0.06	0.0099	1469.8	2.9
288.15	0.06	0.0206	1471.5	2.9
288.15	0.06	0.0306	1473.1	2.9
288.15	0.06	0.0396	1474.4	2.9
288.15	0.06	0.0508	1476.3	2.9
288.15	0.06	0.0532	1476.7	2.9
288.15	0.06	0.0602	1477.8	2.9
288.15	0.06	0.0651	1478.7	2.9
288.15	0.06	0.0696	1479.2	2.9
288.15	0.06	0.0752	1480.2	2.9
288.15	0.06	0.0814	1480.9	2.9
288.15	0.06	0.0858	1481.6	2.9
288.15	0.06	0.0929	1482.7	2.9
288.15	0.06	0.0962	1483.3	2.9
288.15	0.06	0.1024	1484.2	2.9
298.15	0.06	0	1499.2	2.9
298.15	0.06	0.0101	1500.8	2.9
298.15	0.06	0.0196	1502.4	2.9
298.15	0.06	0.0298	1504.1	2.9
298.15	0.06	0.0405	1505.9	2.9
298.15	0.06	0.0491	1507.3	2.9
298.15	0.06	0.0533	1508	2.9
298.15	0.06	0.0613	1509.3	2.9
298.15	0.06	0.0638	1509.7	2.9
298.15	0.06	0.0686	1510.5	2.9
298.15	0.06	0.0759	1511.6	2.9
298.15	0.06	0.0782	1512	3
298.15	0.06	0.0841	1512.9	2.9
298.15	0.06	0.0899	1513.8	2.9
298.15	0.06	0.0948	1514.6	2.9
298.15	0.06	0.0999	1515.4	2.9
308.15	0.06	0	1523	2.9
308.15	0.06	0.0098	1524.6	2.9
308.15	0.06	0.0209	1526.5	2.9
308.15	0.06	0.031	1528.2	2.9
308.15	0.06	0.0409	1529.9	2.9
308.15	0.06	0.0492	1531.2	2.9
308.15	0.06	0.0549	1532.2	2.9
308.15	0.06	0.0605	1533.1	2.9
308.15	0.06	0.0655	1533.9	2.9
308.15	0.06	0.0711	1534.8	2.9
308.15	0.06	0.0747	1535.4	2.9
308.15	0.06	0.0794	1536.1	2.9
308.15	0.06	0.083	1536.7	2.9
308.15	0.06	0.0895	1537.7	2.9
308.15	0.06	0.0945	1538.4	2.9
308.15	0.06	0.0985	1539	2.9
288.15	0.1	0	1471.3	2.9
288.15	0.1	0.0104	1473	2.9
288.15	0.1	0.0196	1474.4	2.9
288.15	0.1	0.0295	1476	2.9
288.15	0.1	0.0393	1477.6	2.9
288.15	0.1	0.0492	1479.2	2.9
288.15	0.1	0.0542	1480	2.9
288.15	0.1	0.0588	1480.7	2.9
288.15	0.1	0.0635	1481.5	2.9
288.15	0.1	0.0694	1482.4	2.9
288.15	0.1	0.0762	1483.5	2.9
288.15	0.1	0.0806	1484.2	2.9
288.15	0.1	0.0852	1484.9	2.9
288.15	0.1	0.0895	1485.6	2.9
288.15	0.1	0.096	1486.7	2.9
288.15	0.1	0.0969	1486.8	2.9
298.15	0.1	0	1503.3	2.9
298.15	0.1	0.0099	1505	2.9
298.15	0.1	0.0196	1506.6	2.9
298.15	0.1	0.0297	1508.2	2.9
298.15	0.1	0.0396	1509.8	2.9
298.15	0.1	0.05	1511.5	2.9
298.15	0.1	0.0538	1512.2	2.9
298.15	0.1	0.0599	1513.1	2.9
298.15	0.1	0.0641	1513.8	2.9
298.15	0.1	0.0698	1514.7	2.9
298.15	0.1	0.075	1515.5	2.9
298.15	0.1	0.08	1516.3	2.9
298.15	0.1	0.085	1517.1	2.9
298.15	0.1	0.0888	1517.7	2.9
298.15	0.1	0.095	1518.6	2.9
298.15	0.1	0.1	1519.4	2.9
308.15	0.1	0	1525.9	2.9
308.15	0.1	0.0103	1527.6	2.9
308.15	0.1	0.0204	1529.3	2.9
308.15	0.1	0.0296	1530.9	2.9
308.15	0.1	0.0404	1532.7	2.9
308.15	0.1	0.0509	1534.4	2.9
308.15	0.1	0.056	1535.3	2.9
308.15	0.1	0.0584	1535.7	2.9
308.15	0.1	0.0652	1536.8	2.9
308.15	0.1	0.07	1537.6	2.9
308.15	0.1	0.0754	1538.4	2.9
308.15	0.1	0.0799	1539.1	2.9
308.15	0.1	0.0852	1540	2.9
308.15	0.1	0.0899	1540.7	2.9
308.15	0.1	0.0953	1541.5	2.9
308.15	0.1	0.1003	1542.3	2.9

System: 2-diethylaminoethyl p-aminobenzoate hydrochloride + potassium chloride + water; phases: Liquid
Fixed: Pressure, kPa = 101.3
Property: Mass density, kg/m3 (Liquid); method: Pycnometric method
Temperature, K	Solvent: Molality, mol/kg of potassium chloride	Molality, mol/kg of 2-diethylaminoethyl p-aminobenzoate hydrochloride	Mass density, kg/m3	uncertainty
288.15	0.06	0	1002.26	1.81
288.15	0.06	0.0101	1002.74	1.81
288.15	0.06	0.0196	1003.19	1.81
288.15	0.06	0.0298	1003.67	1.81
288.15	0.06	0.0405	1004.18	1.81
288.15	0.06	0.0491	1004.59	1.81
288.15	0.06	0.0613	1005.17	1.83
288.15	0.06	0.0638	1005.28	1.82
288.15	0.06	0.0686	1005.51	1.82
288.15	0.06	0.0782	1005.97	1.82
288.15	0.06	0.0841	1006.25	1.82
288.15	0.06	0.0899	1006.52	1.82
288.15	0.06	0.0948	1006.76	1.82
298.15	0.06	0	1000.42	1.81
298.15	0.06	0.0102	1000.89	1.81
298.15	0.06	0.0297	1001.78	1.81
298.15	0.06	0.0399	1002.25	1.81
298.15	0.06	0.0499	1002.7	1.81
298.15	0.06	0.055	1002.93	1.81
298.15	0.06	0.0601	1003.16	1.81
298.15	0.06	0.0639	1003.34	1.81
298.15	0.06	0.0686	1003.55	1.81
298.15	0.06	0.0741	1003.81	1.81
298.15	0.06	0.0788	1004.02	1.82
298.15	0.06	0.084	1004.26	1.81
298.15	0.06	0.0887	1004.47	1.82
298.15	0.06	0.0944	1004.74	1.82
308.15	0.06	0	997.25	1.82
308.15	0.06	0.0101	997.7	1.82
308.15	0.06	0.0196	998.13	1.82
308.15	0.06	0.0298	998.59	1.82
308.15	0.06	0.0405	999.08	1.82
308.15	0.06	0.0491	999.47	1.82
308.15	0.06	0.0613	1000.02	1.83
308.15	0.06	0.0638	1000.13	1.82
308.15	0.06	0.0686	1000.35	1.82
308.15	0.06	0.0759	1000.68	1.82
308.15	0.06	0.0782	1000.79	1.82
308.15	0.06	0.0841	1001.05	1.82
308.15	0.06	0.0899	1001.32	1.82
308.15	0.06	0.0948	1001.54	1.82
288.15	0.1	0	1003.48	1.81
288.15	0.1	0.0101	1003.94	1.81
288.15	0.1	0.0196	1004.38	1.81
288.15	0.1	0.0298	1004.84	1.81
288.15	0.1	0.0405	1005.33	1.82
288.15	0.1	0.0491	1005.72	1.82
288.15	0.1	0.0564	1006.05	1.82
288.15	0.1	0.0613	1006.28	1.82
288.15	0.1	0.0638	1006.39	1.82
288.15	0.1	0.0686	1006.61	1.82
288.15	0.1	0.0759	1006.95	1.82
288.15	0.1	0.0782	1007.05	1.82
288.15	0.1	0.0841	1007.32	1.82
288.15	0.1	0.0899	1007.59	1.82
288.15	0.1	0.0948	1007.81	1.82
298.15	0.1	0	1001.79	1.81
298.15	0.1	0.0102	1002.24	1.81
298.15	0.1	0.0202	1002.68	1.81
298.15	0.1	0.0297	1003.09	1.81
298.15	0.1	0.0399	1003.54	1.81
298.15	0.1	0.0499	1003.98	1.81
298.15	0.1	0.055	1004.21	1.82
298.15	0.1	0.0601	1004.43	1.81
298.15	0.1	0.0639	1004.62	1.82
298.15	0.1	0.0686	1004.81	1.82
298.15	0.1	0.0741	1005.07	1.81
298.15	0.1	0.0788	1005.28	1.82
298.15	0.1	0.084	1005.51	1.82
298.15	0.1	0.0887	1005.73	1.82
298.15	0.1	0.0944	1005.99	1.82
308.15	0.1	0	998.71	1.82
308.15	0.1	0.0101	999.14	1.82
308.15	0.1	0.0196	999.55	1.82
308.15	0.1	0.0298	999.99	1.82
308.15	0.1	0.0405	1000.46	1.82
308.15	0.1	0.0491	1000.83	1.82
308.15	0.1	0.0613	1001.37	1.82
308.15	0.1	0.0638	1001.48	1.82
308.15	0.1	0.0686	1001.71	1.82
308.15	0.1	0.0782	1002.13	1.83
308.15	0.1	0.0899	1002.67	1.83
308.15	0.1	0.0948	1002.89	1.83
308.15	0.1	0.0999	1003.11	1.83
288.15	0	0	999.1	1.81
288.15	0	0.01	999.6	1.81
288.15	0	0.02	1000.1	1.81
288.15	0	0.0301	1000.6	1.81
288.15	0	0.04	1001.1	1.81
288.15	0	0.05	1001.6	1.81
288.15	0	0.055	1001.85	1.81
288.15	0	0.0599	1002.09	1.81
288.15	0	0.065	1002.34	1.81
288.15	0	0.0701	1002.6	1.81
288.15	0	0.0751	1002.85	1.81
288.15	0	0.0801	1003.1	1.81
288.15	0	0.0852	1003.35	1.81
288.15	0	0.0898	1003.58	1.81
288.15	0	0.0952	1003.85	1.81
288.15	0	0.1	1004.09	1.82
298.15	0	0	997.05	1.81
298.15	0	0.0098	997.52	1.81
298.15	0	0.0196	997.99	1.81
298.15	0	0.0297	998.49	1.81
298.15	0	0.0406	999.02	1.81
298.15	0	0.0492	999.44	1.81
298.15	0	0.0534	999.65	1.81
298.15	0	0.061	1000.02	1.81
298.15	0	0.0636	1000.15	1.81
298.15	0	0.0688	1000.4	1.81
298.15	0	0.0758	1000.74	1.81
298.15	0	0.0783	1000.86	1.81
298.15	0	0.0846	1001.17	1.81
298.15	0	0.09	1001.44	1.81
298.15	0	0.0951	1001.68	1.81
298.15	0	0.1003	1001.94	1.81
308.15	0	0	994.03	1.81
308.15	0	0.01	994.51	1.81
308.15	0	0.02	995	1.82
308.15	0	0.03	995.48	1.82
308.15	0	0.0401	995.97	1.82
308.15	0	0.0499	996.44	1.82
308.15	0	0.055	996.69	1.82
308.15	0	0.06	996.93	1.82
308.15	0	0.065	997.17	1.82
308.15	0	0.0698	997.4	1.82
308.15	0	0.075	997.65	1.82
308.15	0	0.0801	997.9	1.82
308.15	0	0.085	998.14	1.82
308.15	0	0.09	998.38	1.82
308.15	0	0.095	998.62	1.82
308.15	0	0.1	998.86	1.82

System: 2-diethylaminoethyl p-aminobenzoate hydrochloride + potassium chloride + water; phases: Liquid
Fixed: Pressure, kPa = 101.3
Fixed: Frequency, MHz = 2
Property: Speed of sound, m/s (Liquid); method: Linear variable-path acoustic interferometer
Temperature, K	Solvent: Molality, mol/kg of potassium chloride	Molality, mol/kg of 2-diethylaminoethyl p-aminobenzoate hydrochloride	Speed of sound, m/s	uncertainty
288.15	0.06	0	1467.4	3.3
288.15	0.06	0.0101	1469	3.3
288.15	0.06	0.0196	1470.5	3.3
288.15	0.06	0.0298	1472.2	3.3
288.15	0.06	0.0405	1473.9	3.3
288.15	0.06	0.0491	1475.2	3.3
288.15	0.06	0.0613	1476.9	3.3
288.15	0.06	0.0638	1477.1	3.3
288.15	0.06	0.0686	1477.7	3.3
288.15	0.06	0.0782	1479.3	3.3
288.15	0.06	0.0841	1480.1	3.3
288.15	0.06	0.0899	1481.1	3.3
288.15	0.06	0.0948	1481.8	3.3
298.15	0.06	0	1498.3	3.3
298.15	0.06	0.0102	1500	3.3
298.15	0.06	0.0297	1502.5	3.3
298.15	0.06	0.0399	1504.2	3.3
298.15	0.06	0.0499	1505.9	3.3
298.15	0.06	0.055	1506.7	3.3
298.15	0.06	0.0601	1507.5	3.3
298.15	0.06	0.0639	1508.1	3.3
298.15	0.06	0.0686	1508.9	3.3
298.15	0.06	0.0741	1509.8	3.3
298.15	0.06	0.0788	1510.6	3.3
298.15	0.06	0.084	1511.4	3.3
298.15	0.06	0.0887	1512.1	3.3
298.15	0.06	0.0944	1513	3.3
308.15	0.06	0	1522.2	3.2
308.15	0.06	0.0101	1523.9	3.2
308.15	0.06	0.0196	1525.5	3.3
308.15	0.06	0.0298	1527.2	3.3
308.15	0.06	0.0405	1529	3.3
308.15	0.06	0.0491	1530.5	3.3
308.15	0.06	0.0613	1532.5	3.3
308.15	0.06	0.0638	1532.9	3.3
308.15	0.06	0.0686	1533.7	3.3
308.15	0.06	0.0759	1534.9	3.3
308.15	0.06	0.0782	1535.2	3.3
308.15	0.06	0.0841	1536.1	3.3
308.15	0.06	0.0899	1537	3.3
308.15	0.06	0.0948	1537.8	3.3
288.15	0.1	0	1469.6	3.3
288.15	0.1	0.0101	1471.2	3.3
288.15	0.1	0.0196	1472.7	3.3
288.15	0.1	0.0298	1474.3	3.3
288.15	0.1	0.0405	1476.1	3.3
288.15	0.1	0.0491	1477.4	3.3
288.15	0.1	0.0564	1478.6	3.3
288.15	0.1	0.0613	1479.4	3.3
288.15	0.1	0.0638	1479.8	3.3
288.15	0.1	0.0686	1480.6	3.3
288.15	0.1	0.0759	1481.7	3.3
288.15	0.1	0.0782	1482.1	3.3
288.15	0.1	0.0841	1483	3.3
288.15	0.1	0.0899	1484	3.3
288.15	0.1	0.0948	1484.7	3.3
298.15	0.1	0	1502.5	3.3
298.15	0.1	0.0102	1504.1	3.3
298.15	0.1	0.0202	1505.8	3.3
298.15	0.1	0.0297	1507.4	3.3
298.15	0.1	0.0399	1509	3.3
298.15	0.1	0.0499	1510.7	3.3
298.15	0.1	0.055	1511.5	3.3
298.15	0.1	0.0601	1512.3	3.3
298.15	0.1	0.0639	1512.9	3.3
298.15	0.1	0.0686	1513.6	3.3
298.15	0.1	0.0741	1514.5	3.3
298.15	0.1	0.0788	1515.2	3.3
298.15	0.1	0.084	1516	3.3
298.15	0.1	0.0887	1516.7	3.3
298.15	0.1	0.0944	1517.6	3.4
308.15	0.1	0	1525.1	3.2
308.15	0.1	0.0101	1526.8	3.2
308.15	0.1	0.0196	1528.4	3.3
308.15	0.1	0.0298	1530.1	3.3
308.15	0.1	0.0405	1531.8	3.3
308.15	0.1	0.0491	1533.2	3.3
308.15	0.1	0.0613	1534.7	3.3
308.15	0.1	0.0638	1535.2	3.3
308.15	0.1	0.0686	1535.6	3.3
308.15	0.1	0.0782	1537.5	3.3
308.15	0.1	0.0899	1538.7	3.3
308.15	0.1	0.0948	1539.6	3.3
308.15	0.1	0.0999	1540.3	3.3
288.15	0	0	1465.9	3.3
288.15	0	0.01	1467.5	3.3
288.15	0	0.02	1469.1	3.3
288.15	0	0.0301	1470.7	3.3
288.15	0	0.04	1472.3	3.3
288.15	0	0.05	1473.9	3.3
288.15	0	0.055	1474.7	3.3
288.15	0	0.0599	1475.4	3.3
288.15	0	0.065	1476.2	3.3
288.15	0	0.0701	1477	3.3
288.15	0	0.0751	1477.7	3.3
288.15	0	0.0801	1478.5	3.3
288.15	0	0.0852	1479.2	3.3
288.15	0	0.0898	1480	3.3
288.15	0	0.0952	1480.7	3.3
288.15	0	0.1	1481.4	3.3
298.15	0	0	1496.7	3.2
298.15	0	0.0098	1498.3	3.2
298.15	0	0.0196	1499.9	3.3
298.15	0	0.0297	1501.5	3.3
298.15	0	0.0406	1503.2	3.3
298.15	0	0.0492	1504.6	3.3
298.15	0	0.0534	1505.3	3.3
298.15	0	0.061	1506.5	3.3
298.15	0	0.0636	1506.9	3.3
298.15	0	0.0688	1507.7	3.3
298.15	0	0.0758	1508.8	3.3
298.15	0	0.0783	1509.2	3.3
298.15	0	0.0846	1510.2	3.3
298.15	0	0.09	1511	3.3
298.15	0	0.0951	1511.7	3.3
298.15	0	0.1003	1512.5	3.3
308.15	0	0	1519.8	3.2
308.15	0	0.01	1521.4	3.2
308.15	0	0.02	1523	3.2
308.15	0	0.03	1524.6	3.2
308.15	0	0.0401	1526.2	3.2
308.15	0	0.0499	1527.8	3.3
308.15	0	0.055	1528.6	3.3
308.15	0	0.06	1529.4	3.3
308.15	0	0.065	1530.1	3.3
308.15	0	0.0698	1530.9	3.3
308.15	0	0.075	1531.7	3.3
308.15	0	0.0801	1532.5	3.3
308.15	0	0.085	1533.2	3.3
308.15	0	0.09	1534	3.3
308.15	0	0.095	1534.7	3.3
308.15	0	0.1	1535.4	3.3

System: 2-diethylaminoethyl p-aminobenzoate hydrochloride + water; phases: Liquid
Fixed: Pressure, kPa = 101.3
Property: Mass density, kg/m3 (Liquid); method: Pycnometric method
Temperature, K	Molality, mol/kg of 2-diethylaminoethyl p-aminobenzoate hydrochloride	Mass density, kg/m3	uncertainty
288.15	0.01	999.6	1.52
288.15	0.02	1000.1	1.52
288.15	0.0301	1000.6	1.52
288.15	0.04	1001.1	1.52
288.15	0.05	1001.6	1.52
288.15	0.055	1001.85	1.52
288.15	0.0599	1002.09	1.52
288.15	0.065	1002.34	1.52
288.15	0.0701	1002.6	1.52
288.15	0.0751	1002.85	1.52
288.15	0.0801	1003.1	1.52
288.15	0.0852	1003.35	1.52
288.15	0.0898	1003.58	1.52
288.15	0.0952	1003.85	1.52
288.15	0.1	1004.09	1.52
298.15	0.0098	997.52	1.52
298.15	0.0196	997.99	1.52
298.15	0.0297	998.49	1.52
298.15	0.0406	999.02	1.52
298.15	0.0492	999.44	1.52
298.15	0.0534	999.65	1.52
298.15	0.061	1000.02	1.52
298.15	0.0636	1000.15	1.52
298.15	0.0688	1000.4	1.52
298.15	0.0758	1000.74	1.52
298.15	0.0783	1000.86	1.52
298.15	0.0846	1001.17	1.52
298.15	0.09	1001.44	1.52
298.15	0.0951	1001.68	1.52
298.15	0.1003	1001.94	1.52
308.15	0.01	994.51	1.52
308.15	0.02	995	1.52
308.15	0.03	995.48	1.52
308.15	0.0401	995.97	1.52
308.15	0.0499	996.44	1.52
308.15	0.055	996.69	1.52
308.15	0.06	996.93	1.52
308.15	0.065	997.17	1.52
308.15	0.0698	997.4	1.52
308.15	0.075	997.65	1.52
308.15	0.0801	997.9	1.52
308.15	0.085	998.14	1.52
308.15	0.09	998.38	1.52
308.15	0.095	998.62	1.52
308.15	0.1	998.86	1.53
288.15	0	999.1	1.52
298.15	0	997.05	1.52
308.15	0	994.03	1.52

System: 2-diethylaminoethyl p-aminobenzoate hydrochloride + water; phases: Liquid
Fixed: Pressure, kPa = 101.3
Fixed: Frequency, MHz = 2
Property: Speed of sound, m/s (Liquid); method: Linear variable-path acoustic interferometer
Temperature, K	Molality, mol/kg of 2-diethylaminoethyl p-aminobenzoate hydrochloride	Speed of sound, m/s	uncertainty
288.15	0.01	1467.5	2.5
288.15	0.02	1469.1	2.5
288.15	0.0301	1470.7	2.5
288.15	0.04	1472.3	2.5
288.15	0.05	1473.9	2.5
288.15	0.055	1474.7	2.5
288.15	0.0599	1475.4	2.5
288.15	0.065	1476.2	2.5
288.15	0.0701	1477	2.5
288.15	0.0751	1477.7	2.5
288.15	0.0801	1478.5	2.5
288.15	0.0852	1479.2	2.5
288.15	0.0898	1480	2.5
288.15	0.0952	1480.7	2.5
288.15	0.1	1481.4	2.6
298.15	0.0098	1498.3	2.5
298.15	0.0196	1499.9	2.5
298.15	0.0297	1501.5	2.5
298.15	0.0406	1503.2	2.5
298.15	0.0492	1504.6	2.5
298.15	0.0534	1505.3	2.5
298.15	0.061	1506.5	2.5
298.15	0.0636	1506.9	2.5
298.15	0.0688	1507.7	2.5
298.15	0.0758	1508.8	2.5
298.15	0.0783	1509.2	2.5
298.15	0.0846	1510.2	2.5
298.15	0.09	1511	2.5
298.15	0.0951	1511.7	2.5
298.15	0.1003	1512.5	2.6
308.15	0.01	1521.4	2.5
308.15	0.02	1523	2.5
308.15	0.03	1524.6	2.5
308.15	0.0401	1526.2	2.5
308.15	0.0499	1527.8	2.5
308.15	0.055	1528.6	2.5
308.15	0.06	1529.4	2.5
308.15	0.065	1530.1	2.5
308.15	0.0698	1530.9	2.5
308.15	0.075	1531.7	2.5
308.15	0.0801	1532.5	2.5
308.15	0.085	1533.2	2.5
308.15	0.09	1534	2.5
308.15	0.095	1534.7	2.5
308.15	0.1	1535.4	2.5
288.15	0	1465.9	2.5
298.15	0	1496.7	2.5
308.15	0	1519.8	2.5

System: sodium chloride + water; phases: Liquid
Fixed: Pressure, kPa = 101.3
Property: Mass density, kg/m3 (Liquid); method: Pycnometric method
Temperature, K	Molality, mol/kg of sodium chloride	Mass density, kg/m3	uncertainty
288.15	0.06	1001.66	1.52
298.15	0.06	999.52	1.52
308.15	0.06	996.46	1.52
288.15	0.1	1003.32	1.52
298.15	0.1	1001.14	1.52
308.15	0.1	998.05	1.52
288.15	0	999.1	1.52
298.15	0	997.05	1.52
308.15	0	994.03	1.52

System: sodium chloride + water; phases: Liquid
Fixed: Pressure, kPa = 101.3
Fixed: Frequency, MHz = 2
Property: Speed of sound, m/s (Liquid); method: Linear variable-path acoustic interferometer
Temperature, K	Molality, mol/kg of sodium chloride	Speed of sound, m/s	uncertainty
288.15	0.06	1468.2	2.5
298.15	0.06	1499.2	2.5
308.15	0.06	1523	2.5
288.15	0.1	1471.3	2.5
298.15	0.1	1503.3	2.5
308.15	0.1	1525.9	2.5
288.15	0	1465.9	2.5
298.15	0	1496.7	2.5
308.15	0	1519.8	2.5

System: potassium chloride + water; phases: Liquid
Fixed: Pressure, kPa = 101.3
Property: Mass density, kg/m3 (Liquid); method: Pycnometric method
Temperature, K	Molality, mol/kg of potassium chloride	Mass density, kg/m3	uncertainty
288.15	0.06	1002.26	1.52
298.15	0.06	1000.42	1.52
308.15	0.06	997.25	1.52
288.15	0.1	1003.48	1.52
298.15	0.1	1001.79	1.52
308.15	0.1	998.71	1.52
288.15	0	999.1	1.52
298.15	0	997.05	1.52
308.15	0	994.03	1.52

System: potassium chloride + water; phases: Liquid
Fixed: Pressure, kPa = 101.3
Fixed: Frequency, MHz = 2
Property: Speed of sound, m/s (Liquid); method: Linear variable-path acoustic interferometer
Temperature, K	Molality, mol/kg of potassium chloride	Speed of sound, m/s	uncertainty
288.15	0.06	1467.4	2.5
298.15	0.06	1498.3	2.5
308.15	0.06	1522.2	2.5
288.15	0.1	1469.6	2.5
298.15	0.1	1502.5	2.5
308.15	0.1	1525.1	2.5
288.15	0	1465.9	2.5
298.15	0	1496.7	2.5
308.15	0	1519.8	2.5
