Measured thermophysical data. Thermodynamics of bis-(n6-diphenyl)chromium (I) fulleride [(n6-Ph2)2Cr]+[C60].- in the range from T (0 to 360)K
Source: J. Chem. Thermodyn., 2006, 10.1016/j.jct.2005.08.016
Compound 1: bis[(1,2,3,4,5,6-.eta.)-1,1'-biphenyl]chromium(1+) [5,6]fulleride(1-)-C60-Ih, C84H20Cr, InChI=1S/C60.2C12H10.Cr/c1-2-5-6-3(1)8-12-10-4(1)9-11-7(2)17-21-13(5)23-24-14(6)22-18(8)28-20(12)30-26-16(10)15(9)25-29-19(11)27(17)37-41-31(21)33(23)43-44-34(24)32(22)42-38(28)48-40(30)46-36(26)35(25)45-39(29)47(37)55-49(41)51(43)57-52(44)50(42)56(48)59-54(46)53(45)58(55)60(57)59;2*1-3-7-11(8-4-1)12-9-5-2-6-10-12;/h;2*1-10H;/q-1;;;+1

System: bis[(1,2,3,4,5,6-.eta.)-1,1'-biphenyl]chromium(1+) [5,6]fulleride(1-)-C60-Ih; phases: Crystal 2, Crystal 1, Gas
Property: Molar enthalpy of transition or fusion, kJ/mol (Crystal 2); method: Adiabatic calorimetry
Molar enthalpy of transition or fusion, kJ/mol	uncertainty
7.967	0.254

System: bis[(1,2,3,4,5,6-.eta.)-1,1'-biphenyl]chromium(1+) [5,6]fulleride(1-)-C60-Ih; phases: Crystal 2, Crystal 1, Gas
Property: Triple point temperature, K (Crystal 2); method: Adiabatic calorimetry
Triple point temperature, K	uncertainty
299.9	0.1

System: bis[(1,2,3,4,5,6-.eta.)-1,1'-biphenyl]chromium(1+) [5,6]fulleride(1-)-C60-Ih; phases: Crystal 3, Crystal 2, Gas
Property: Triple point temperature, K (Crystal 3); method: Adiabatic calorimetry
Triple point temperature, K	uncertainty
23	1

System: bis[(1,2,3,4,5,6-.eta.)-1,1'-biphenyl]chromium(1+) [5,6]fulleride(1-)-C60-Ih; phases: Crystal 3, Crystal 2, Gas
Property: Molar enthalpy of transition or fusion, kJ/mol (Crystal 3); method: Adiabatic calorimetry
Molar enthalpy of transition or fusion, kJ/mol	uncertainty
0	1

System: bis[(1,2,3,4,5,6-.eta.)-1,1'-biphenyl]chromium(1+) [5,6]fulleride(1-)-C60-Ih; phases: Crystal 3
Fixed: Pressure, kPa = 101.325
Property: Molar heat capacity at constant pressure, J/K/mol (Crystal 3); method: SMALLAD:UFactor:4
Temperature, K	Molar heat capacity at constant pressure, J/K/mol	uncertainty
6.4	11.22444	0.748296
7.82	12.222168	0.83144
8.44	13.219896	0.83144
9.12	14.051336	0.914584
9.8	15.049064	0.997728
10.47	15.79736	1.24716
11.11	16.21308	0.997728
12.69	17.04452	0.997728
13.72	17.959104	1.080872
14.75	19.039976	1.080872
15.79	20.4367952	0.9312128
16.84	22.0581032	0.9810992
17.91	26.3815912	1.1390728
18.99	30.3808176	1.24716
20.1	35.5690032	1.3801904
8.1	12.4716	0.748296
8.9	13.635616	0.748296
9.7	14.300768	0.83144
10.49	15.049064	1.080872
11.29	16.21308	0.83144
12.11	16.795088	0.83144
13.19	17.626528	0.83144
14.37	18.624256	0.914584
15.43	19.8547872	0.914584
16.75	22.7066264	1.0060424
17.98	27.2047168	1.164016
19.24	32.675592	1.3136752
21.9	46.7768144	1.6961376

System: bis[(1,2,3,4,5,6-.eta.)-1,1'-biphenyl]chromium(1+) [5,6]fulleride(1-)-C60-Ih; phases: Crystal 2
Fixed: Pressure, kPa = 101.325
Property: Molar heat capacity at constant pressure, J/K/mol (Crystal 2); method: SMALLAD:UFactor:4
Temperature, K	Molar heat capacity at constant pressure, J/K/mol	uncertainty
24.89	75.827328	2.4194904
27.68	87.467488	2.49432
30.46	94.617872	1.912312
33.17	98.775072	1.912312
35.85	104.013144	2.0786
38.52	109.168072	2.161744
41.15	114.73872	2.0786
43.77	119.976792	2.161744
46.38	125.214864	2.244888
48.98	129.621496	2.328032
51.58	134.028128	2.411176
54.17	137.60332	2.411176
56.75	142.259384	2.49432
59.33	145.834576	2.577464
61.92	150.573784	2.660608
64.61	155.562424	2.743752
67.17	160.135344	2.826896
69.72	166.288	2.91004
72.28	172.10808	2.993184
74.84	178.676456	3.076328
77.38	186.491992	3.159472
79.91	193.060368	3.32576
82.45	200.044464	3.408904
84.98	207.610568	3.492048
87.49	214.178944	3.658336
81.39	197.550144	3.408904
83.91	204.53424	3.492048
86.44	211.019472	3.575192
88.96	217.338416	3.658336
91.48	223.24164	3.408904
94	229.976304	3.492048
96.52	236.461536	3.575192
99.04	243.445632	3.658336
101.55	251.676888	3.74148
104.06	258.827272	3.824624
106.67	266.227088	3.907768
109.16	273.626904	3.990912
111.65	281.44244	4.074056
114.15	287.927672	4.1572
116.65	295.078056	4.240344
119.14	303.641888	4.406632
121.63	311.956288	4.489776
124.13	318.940384	4.57292
126.62	325.342472	4.656064
129.1	333.989448	4.739208
131.58	341.888128	4.822352
134.07	349.287944	4.98864
136.55	356.355184	5.071784
139.02	365.41788	5.154928
141.5	374.813152	5.238072
143.97	383.875848	5.40436
146.5	391.026232	5.487504
148.98	399.0912	5.570648
151.45	405.659576	5.653792
153.92	412.477384	5.736936
156.38	422.038944	5.82008
158.85	431.51736	5.986368
161.32	440.6632	6.069512
163.3	447.065288	6.152656
166.25	458.206584	6.318944
168.71	466.85356	6.402088
171.16	476.248832	6.485232
173.63	485.644104	6.65152
176.08	492.545056	6.734664
178.53	502.356048	6.817808
180.98	511.585032	6.984096
183.44	520.980304	7.06724
185.94	531.040728	7.233528
188.39	539.022552	7.316672
190.84	547.669528	7.399816
193.29	559.060256	7.566104
195.74	568.954392	7.649248
198.18	579.430536	7.815536
200.62	589.989824	7.89868
203.05	598.719944	8.064968
205.49	607.699496	8.148112
207.93	619.589088	8.3144
210.37	626.406896	8.397544
212.82	637.049328	8.480688
215.25	646.86032	8.646976
217.68	656.00616	8.73012
220.11	665.56772	8.896408
222.54	673.965264	8.979552
225	686.686296	9.14584
227.42	697.661304	9.228984
229.85	707.389152	9.395272
232.27	712.710368	9.478416
234.69	724.350528	9.56156
237.1	731.999776	9.727848
239.51	740.81304	9.810992
241.92	751.372328	9.894136
244.32	759.769872	10.060424
256.02	803.254184	10.559288
246.49	766.005672	10.143568
248.85	775.151512	10.226712
251.24	783.798488	10.309856
253.63	793.276904	10.476144
258.41	811.402296	10.642432
260.79	823.042456	10.80872
263.16	833.93432	10.80872
265.53	845.57448	10.80872
267.9	857.21464	11.64016
270.26	873.84344	11.64016
272.61	886.31504	11.64016
274.95	905.43816	11.64016
277.8	932.87568	12.4716
280.1	961.97608	12.4716
282.3	998.55944	13.30304
284.15	1041.79432	13.30304
287.8	1148.21864	14.96592
289.6	1193.94784	15.79736
290.92	1224.71112	15.79736
293.18	1276.2604	16.6288
295	1333.62976	17.46024
297.67	1422.59384	18.29168
299.9	1491.60336	19.12312
261.53	829.195112	10.891864
262.67	836.42864	10.80872
263.83	841.41728	10.80872
264.99	847.23736	10.80872
266.14	853.88888	10.80872
267.29	860.5404	11.64016
268.44	863.86616	11.64016
269.58	868.8548	11.64016
270.72	880.49496	11.64016
271.86	887.97792	11.64016
272.99	894.62944	11.64016
274.12	900.44952	11.64016
275.25	914.584	11.64016
276.37	924.56128	12.4716
277.49	940.35864	12.4716
278.6	946.17872	12.4716
279.68	959.48176	12.4716
280.78	972.7848	12.4716
282	992.73936	13.30304
283.5	1018.514	13.30304
284.05	1039.3	13.30304
285.13	1065.90608	14.13448
286.19	1089.1864	14.13448
287.26	1121.61256	14.13448
288.5	1148.21864	14.96592
289.39	1169.00464	14.96592
290.47	1191.45352	15.79736
291.54	1213.07096	15.79736
292.3	1228.86832	15.79736
293.3	1259.6316	16.6288
294.6	1287.90056	16.6288
295.76	1317.8324	16.6288
296.7	1339.44984	17.46024
297.2	1366.05592	17.46024
298.3	1411.78512	18.29168
299.88	1469.98592	19.12312

System: bis[(1,2,3,4,5,6-.eta.)-1,1'-biphenyl]chromium(1+) [5,6]fulleride(1-)-C60-Ih; phases: Crystal 1
Fixed: Pressure, kPa = 101.325
Property: Molar heat capacity at constant pressure, J/K/mol (Crystal 1); method: SMALLAD:UFactor:4
Temperature, K	Molar heat capacity at constant pressure, J/K/mol	uncertainty
302.13	1354.41576	19.12312
304.38	1164.016	14.96592
306.62	1085.0292	14.13448
308.84	1062.58032	14.13448
311.04	1055.09736	13.30304
312.75	1050.10872	13.30304
314.87	1045.12008	13.30304
317.04	1042.62576	13.30304
319.2	1040.96288	13.30304
321.34	1040.13144	13.30304
323.49	1040.13144	13.30304
325.62	1043.4572	13.30304
327.74	1045.12008	13.30304
329.86	1048.44584	13.30304
331.94	1051.7716	13.30304
334.02	1057.59168	14.13448
336.09	1065.07464	14.13448
338.14	1071.72616	14.13448
340.19	1079.20912	14.13448
342.24	1087.52352	14.13448
344.27	1093.3436	14.13448
346.12	1099.16368	14.13448
348.12	1104.98376	14.13448
350.12	1115.79248	14.13448
352.1	1122.444	14.13448
354.04	1125.76976	14.96592
355.99	1130.7584	14.96592
357.93	1138.24136	14.96592
359.79	1144.06144	14.96592
361.7	1148.21864	14.96592
300.91	1384.3476	18.29168
301.94	1286.23768	18.29168
302.98	1184.802	15.79736
304.01	1139.0728	14.96592
305.03	1118.2868	14.13448
306.04	1097.5008	14.13448
307.05	1083.36632	14.13448
308.05	1073.38904	14.13448
309.05	1064.2432	14.13448
310.05	1057.59168	14.13448
311.04	1054.26592	13.30304
312.02	1053.43448	13.30304
312.9	1050.94016	13.30304
313.88	1048.44584	13.30304
314.86	1046.78296	13.30304
315.82	1045.12008	13.30304
316.78	1044.28864	13.30304
317.74	1044.28864	13.30304
318.69	1044.28864	13.30304
319.64	1043.4572	13.30304
320.58	1043.4572	13.30304
321.51	1042.62576	13.30304
322.43	1043.4572	13.30304
323.35	1044.28864	13.30304
324.27	1044.28864	13.30304
325.51	1045.12008	13.30304
326.39	1047.6144	13.30304
327.29	1048.44584	13.30304
328.19	1050.10872	13.30304
329.08	1053.43448	13.30304
329.96	1055.09736	14.13448
331.2	1055.9288	13.30304
332.88	1061.74888	14.13448
336.93	1070.89472	14.13448
340.9	1085.86064	14.13448
342.88	1093.3436	14.13448
344.85	1098.33224	14.13448
346.79	1107.47808	14.13448
348.69	1113.29816	14.13448

System: bis[(1,2,3,4,5,6-.eta.)-1,1'-biphenyl]chromium(1+) [5,6]fulleride(1-)-C60-Ih; phases: Crystal 3
Fixed: Pressure, kPa = 101.325
Property: Molar heat capacity at constant pressure, J/K/mol (Crystal 3); method: SMALLAD:UFactor:4
Temperature, K	Molar heat capacity at constant pressure, J/K/mol	uncertainty
5	9.228984	0.748296
6	10.891864	0.83144
7	11.806448	0.914584
8	12.721032	0.914584
9	13.635616	0.997728
10	14.467056	0.997728
15	19.206264	1.164016
20	37.082224	1.8624256

System: bis[(1,2,3,4,5,6-.eta.)-1,1'-biphenyl]chromium(1+) [5,6]fulleride(1-)-C60-Ih; phases: Crystal 3
Fixed: Pressure, kPa = 101.325
Property: Molar enthalpy function {Hm(T)-Hm(0)}/T, J/K/mol (Crystal 3); method: SMALLAD:UFactor:4
Temperature, K	Molar enthalpy function {Hm(T)-Hm(0)}/T, J/K/mol	uncertainty
5	3.5169912	0.332576
6	4.614492	0.4074056
7	5.6039056	0.4656064
8	6.3854592	0.5071784
9	7.191956	0.5487504
10	7.8737368	0.582008
15	10.80872	0.665152
20	14.6666016	0.7815536

System: bis[(1,2,3,4,5,6-.eta.)-1,1'-biphenyl]chromium(1+) [5,6]fulleride(1-)-C60-Ih; phases: Crystal 3
Fixed: Pressure, kPa = 101.325
Property: Molar entropy, J/K/mol (Crystal 3); method: SMALLAD:UFactor:4
Temperature, K	Molar entropy, J/K/mol	uncertainty
5	5.1216704	0.6734664
6	6.9591528	0.8563832
7	8.73012	0.997728
8	10.309856	1.164016
9	11.889592	1.330304
10	13.386184	1.413448
15	20.120848	1.829168
20	27.520664	2.1035432

System: bis[(1,2,3,4,5,6-.eta.)-1,1'-biphenyl]chromium(1+) [5,6]fulleride(1-)-C60-Ih; phases: Crystal 2
Fixed: Pressure, kPa = 101.325
Property: Molar heat capacity at constant pressure, J/K/mol (Crystal 2); method: SMALLAD:UFactor:4
Temperature, K	Molar heat capacity at constant pressure, J/K/mol	uncertainty
25	74.8129712	3.076328
30	92.123552	2.244888
35	102.516552	2.411176
40	112.078112	2.660608
45	122.554256	2.826896
50	131.284376	2.993184
60	147.248024	3.32576
70	166.70372	3.74148
80	193.476088	4.240344
90	219.91588	4.323488
100	246.52196	4.739208
110	276.204368	5.238072
120	306.136208	5.736936
130	336.31748	6.152656
140	369.242504	6.734664
150	402.00124	7.233528
160	435.341984	7.732392
170	472.756784	8.397544
180	506.679536	8.896408
190	546.172936	9.56156
200	586.99664	10.226712
210	625.908032	10.80872
220	665.734008	11.473872
230	705.726272	12.05588
240	743.639936	12.721032
250	779.475	13.30304
260	819.38412	13.885048
270	871.34912	14.96592
280	960.3132	15.79736
290	1203.92512	19.95456
298.15	1438.3912	24.11176
300	1489.94048	24.9432

System: bis[(1,2,3,4,5,6-.eta.)-1,1'-biphenyl]chromium(1+) [5,6]fulleride(1-)-C60-Ih; phases: Crystal 2
Fixed: Pressure, kPa = 101.325
Property: Molar enthalpy function {Hm(T)-Hm(0)}/T, J/K/mol (Crystal 2); method: SMALLAD:UFactor:4
Temperature, K	Molar enthalpy function {Hm(T)-Hm(0)}/T, J/K/mol	uncertainty
25	22.573596	0.9810992
30	32.9167096	1.0559288
35	42.1789512	1.24716
40	50.3270632	1.4051336
45	57.7767656	1.5547928
50	64.7026608	1.6961376
60	77.1410032	1.9455696
70	88.465216	2.161744
80	99.855944	2.411176
90	111.745536	2.577464
100	123.88456	2.743752
110	136.35616	2.993184
120	149.24348	3.159472
130	162.463376	3.408904
140	176.098992	3.658336
150	190.067184	3.824624
160	204.284808	4.074056
170	219.001296	4.323488
180	233.967216	4.57292
190	249.348856	4.822352
200	265.22936	5.071784
210	281.525584	5.321216
220	298.07124	5.570648
230	314.949472	5.82008
240	331.993992	6.152656
250	349.2048	6.402088
260	366.498752	6.65152
270	384.12528	6.984096
280	402.83268	7.233528
290	425.863568	7.649248
298.15	449.975328	7.981824
300	456.127984	8.064968

System: bis[(1,2,3,4,5,6-.eta.)-1,1'-biphenyl]chromium(1+) [5,6]fulleride(1-)-C60-Ih; phases: Crystal 2
Fixed: Pressure, kPa = 101.325
Property: Molar entropy, J/K/mol (Crystal 2); method: SMALLAD:UFactor:4
Temperature, K	Molar entropy, J/K/mol	uncertainty
25	39.4767712	2.4860056
30	54.8584112	2.244888
35	69.8991608	2.6938656
40	84.224872	3.159472
45	98.026776	3.575192
50	111.41296	3.907768
60	136.77188	4.739208
70	160.800496	5.40436
80	184.745968	6.152656
90	209.190304	6.2358
100	233.63464	6.817808
110	258.57784	7.399816
120	283.853616	7.981824
130	309.545112	8.646976
140	335.652328	9.228984
150	362.258408	9.894136
160	389.197064	10.559288
170	416.717728	11.22444
180	444.654112	11.889592
190	473.08936	12.554744
200	502.18976	13.219896
210	531.789024	13.968192
220	561.804008	14.716488
230	592.317856	15.38164
240	623.16428	16.129936
250	654.176992	16.878232
260	685.52228	17.626528
270	717.366432	18.457968
280	750.3746	19.206264
290	787.872544	20.120848
298.15	824.206472	20.952288
300	833.10288	20.786

System: bis[(1,2,3,4,5,6-.eta.)-1,1'-biphenyl]chromium(1+) [5,6]fulleride(1-)-C60-Ih; phases: Crystal 1
Fixed: Pressure, kPa = 101.325
Property: Molar heat capacity at constant pressure, J/K/mol (Crystal 1); method: SMALLAD:UFactor:4
Temperature, K	Molar heat capacity at constant pressure, J/K/mol	uncertainty
310	1056.76024	17.46024
320	1040.96288	17.46024
330	1053.43448	17.46024
340	1081.70344	18.29168
350	1114.96104	18.29168
360	1144.06144	19.12312

System: bis[(1,2,3,4,5,6-.eta.)-1,1'-biphenyl]chromium(1+) [5,6]fulleride(1-)-C60-Ih; phases: Crystal 1
Fixed: Pressure, kPa = 101.325
Property: Molar enthalpy function {Hm(T)-Hm(0)}/T, J/K/mol (Crystal 1); method: SMALLAD:UFactor:4
Temperature, K	Molar enthalpy function {Hm(T)-Hm(0)}/T, J/K/mol	uncertainty
310	480.489176	8.480688
320	498.03256	8.73012
330	514.578216	9.062696
340	530.791296	9.312128
350	547.08752	9.56156
360	563.217456	9.810992

System: bis[(1,2,3,4,5,6-.eta.)-1,1'-biphenyl]chromium(1+) [5,6]fulleride(1-)-C60-Ih; phases: Crystal 1
Fixed: Pressure, kPa = 101.325
Property: Molar entropy, J/K/mol (Crystal 1); method: SMALLAD:UFactor:4
Temperature, K	Molar entropy, J/K/mol	uncertainty
310	873.012	22.44888
320	906.2696	23.28032
330	937.86432	24.11176
340	970.29048	24.11176
350	1001.8852	24.9432
360	1033.47992	25.77464
