Measured thermophysical data. Densities and volumes of mixing of the ternary system toluene + butyl acrylate + methyl methacrylate and its binaries at 298.15 K
Source: J. Chem. Thermodyn., 2007, 10.1016/j.jct.2006.05.012
Compound 1: toluene, C7H8, InChI=1S/C7H8/c1-7-5-3-2-4-6-7/h2-6H,1H3, purity 99.89%
Compound 2: butyl 2-propenoate, C7H12O2, InChI=1S/C7H12O2/c1-3-5-6-9-7(8)4-2/h4H,2-3,5-6H2,1H3, purity 99.9%
Compound 3: methyl methacrylate, C5H8O2, InChI=1S/C5H8O2/c1-4(2)5(6)7-3/h1H2,2-3H3, purity 99.9%

System: toluene; phases: Liquid
Property: Mass density, kg/m3 (Liquid); method: VIBTUB:UFactor:2
Pressure, kPa	Temperature, K	Mass density, kg/m3	uncertainty
101	298.15	862.11	0.178

System: butyl 2-propenoate; phases: Liquid
Property: Mass density, kg/m3 (Liquid); method: VIBTUB:UFactor:2
Pressure, kPa	Temperature, K	Mass density, kg/m3	uncertainty
101	298.15	893.96	0.15

System: methyl methacrylate; phases: Liquid
Property: Mass density, kg/m3 (Liquid); method: VIBTUB:UFactor:2
Pressure, kPa	Temperature, K	Mass density, kg/m3	uncertainty
101	298.15	937.65	0.12

System: toluene + butyl 2-propenoate; phases: Liquid
Fixed: Pressure, kPa = 101
Fixed: Temperature, K = 298.15
Property: Mass density, kg/m3 (Liquid); method: VIBTUB:UFactor:2
Mole fraction of toluene	Mass density, kg/m3	uncertainty
0	893.955	0.154
0.0255	893.406	0.154
0.0508	892.895	0.155
0.0999	891.775	0.156
0.1509	890.523	0.157
0.2006	889.277	0.157
0.2506	887.998	0.158
0.2996	886.7	0.159
0.3597	885.033	0.161
0.4006	883.858	0.161
0.4504	882.402	0.163
0.5015	880.847	0.164
0.55	879.307	0.165
0.6006	877.659	0.166
0.6502	875.977	0.167
0.7003	874.219	0.169
0.7501	872.408	0.17
0.8	870.53	0.171
0.8499	868.551	0.173
0.9001	866.487	0.174
0.95	864.338	0.176
0.9751	863.216	0.177
1	862.11	0.178

System: methyl methacrylate + toluene; phases: Liquid
Fixed: Pressure, kPa = 101
Fixed: Temperature, K = 298.15
Property: Mass density, kg/m3 (Liquid); method: VIBTUB:UFactor:2
Mole fraction of toluene	Mass density, kg/m3	uncertainty
0	937.646	0.123
0.0249	935.719	0.124
0.0501	933.759	0.126
0.1005	929.859	0.129
0.15	926.06	0.131
0.1994	922.3	0.134
0.2497	918.45	0.137
0.3001	914.63	0.139
0.35	910.852	0.142
0.3998	907.089	0.145
0.4501	903.299	0.147
0.5	899.556	0.15
0.5501	895.803	0.153
0.5979	892.219	0.156
0.6486	888.421	0.158
0.6998	884.596	0.161
0.7499	880.84	0.164
0.794	877.532	0.166
0.8481	873.485	0.169
0.9	869.606	0.172
0.95	865.864	0.175
0.9731	864.133	0.176
1	862.11	0.178

System: methyl methacrylate + butyl 2-propenoate; phases: Liquid
Fixed: Pressure, kPa = 101
Fixed: Temperature, K = 298.15
Property: Mass density, kg/m3 (Liquid); method: VIBTUB:UFactor:2
Mole fraction of butyl 2-propenoate	Mass density, kg/m3	uncertainty
0	937.65	0.12
0.025	936.15	0.12
0.0501	934.64	0.13
0.1001	931.77	0.13
0.1502	929.01	0.13
0.2	926.33	0.13
0.25	923.76	0.13
0.2946	921.53	0.13
0.3498	918.85	0.14
0.3992	916.57	0.14
0.45	914.28	0.14
0.4999	912.12	0.14
0.5499	910.04	0.14
0.5999	908.01	0.14
0.644	906.27	0.15
0.6991	904.19	0.15
0.7499	902.33	0.15
0.8002	900.52	0.15
0.8504	898.81	0.15
0.8994	897.15	0.15
0.9499	895.53	0.15
0.9749	894.72	0.15
1	893.96	0.15

System: methyl methacrylate + toluene + butyl 2-propenoate; phases: Liquid
Fixed: Pressure, kPa = 101
Fixed: Temperature, K = 298.15
Property: Mass density, kg/m3 (Liquid); method: VIBTUB:UFactor:2
Mole fraction of toluene	Mole fraction of butyl 2-propenoate	Mass density, kg/m3	uncertainty
0.0008	0.0072	937.174	0.124
0.0017	0.0067	937.059	0.124
0.0025	0.0061	936.999	0.124
0.0029	0.0293	935.587	0.125
0.0037	0.0056	936.981	0.124
0.0044	0.0046	936.972	0.124
0.0054	0.0038	936.951	0.124
0.0065	0.027	935.494	0.125
0.0067	0.0032	936.897	0.124
0.0071	0.9241	895.817	0.153
0.0077	0.0021	936.803	0.124
0.0077	0.0742	932.603	0.127
0.0094	0.0011	936.811	0.124
0.0101	0.0242	935.348	0.125
0.0122	0.8746	897.18	0.152
0.0139	0.0219	935.214	0.125
0.0176	0.019	935.029	0.125
0.0183	0.1506	927.625	0.13
0.0223	0.0153	934.986	0.125
0.0226	0.9228	894.991	0.153
0.0251	0.0613	932.069	0.127
0.0317	0.0084	934.661	0.125
0.0331	0.1381	927.293	0.13
0.0334	0.3154	918.333	0.137
0.0369	0.8729	895.869	0.153
0.037	0.8731	896.107	0.153
0.0373	0.0042	934.54	0.125
0.0381	0.9217	894.201	0.154
0.0461	0.0466	931.273	0.128
0.0523	0.4955	909.173	0.143
0.0543	0.124	926.422	0.131
0.0548	0.9204	893.428	0.154
0.0629	0.8712	894.73	0.154
0.067	0.0302	930.623	0.128
0.07	0.1097	926.08	0.131
0.0725	0.9192	892.443	0.155
0.0734	0.6889	900.366	0.149
0.0902	0.0945	925.351	0.132
0.0904	0.8692	893.304	0.155
0.093	0.0109	929.775	0.129
0.1056	0.2565	916.173	0.138
0.1065	0.4469	907.666	0.144
0.1118	0.0778	924.664	0.132
0.1188	0.8676	891.565	0.157
0.1198	0.8664	891.795	0.157
0.135	0.0604	923.867	0.133
0.145	0.2251	914.843	0.139
0.1482	0.6185	898.467	0.151
0.1592	0.0415	923.034	0.133
0.1647	0.3969	905.991	0.145
0.1842	0.1924	913.696	0.14
0.1885	0.0214	921.919	0.134
0.1886	0.7873	890.426	0.157
0.2215	0.3468	904.346	0.147
0.2249	0.5472	896.371	0.152
0.2262	0.158	912.317	0.141
0.271	0.1215	910.87	0.142
0.2837	0.2934	902.446	0.148
0.2837	0.6924	887.992	0.158
0.3033	0.4741	894.187	0.154
0.3179	0.0831	909.264	0.143
0.3472	0.2388	900.347	0.15
0.3679	0.0427	907.436	0.145
0.3805	0.5967	885.291	0.16
0.3833	0.4005	891.719	0.156
0.4091	0.1834	898.351	0.151
0.4689	0.3214	889.124	0.158
0.4768	0.5009	882.448	0.163
0.4769	0.1245	895.969	0.153
0.5466	0.0636	893.388	0.155
0.549	0.246	886.324	0.16
0.5767	0.4018	879.329	0.165
0.6347	0.1659	883.289	0.162
0.6765	0.3029	875.917	0.167
0.7227	0.0839	879.883	0.165
0.7824	0.1976	871.989	0.17
0.8786	0.102	868.105	0.173
0.9095	0.0091	868.678	0.173
0.9143	0.0257	867.783	0.173
0.9178	0.0412	867.062	0.174
0.9207	0.0552	866.43	0.174
0.9237	0.0678	865.821	0.175
