Measured thermophysical data. Volumetric and acoustic behaviour of systems containing n-hexane, or n-heptane and isomeric chlorobutanes
Source: J. Chem. Thermodyn., 2010, 10.1016/j.jct.2010.06.008
Compound 1: hexane, C6H14, InChI=1S/C6H14/c1-3-5-6-4-2/h3-6H2,1-2H3, purity 99%
Compound 2: heptane, C7H16, InChI=1S/C7H16/c1-3-5-7-6-4-2/h3-7H2,1-2H3, purity 99%
Compound 3: 1-chlorobutane, C4H9Cl, InChI=1S/C4H9Cl/c1-2-3-4-5/h2-4H2,1H3, purity 99%
Compound 4: 2-chlorobutane, C4H9Cl, InChI=1S/C4H9Cl/c1-3-4(2)5/h4H,3H2,1-2H3, purity 99%
Compound 5: 2-chloro-2-methylpropane, C4H9Cl, InChI=1S/C4H9Cl/c1-4(2,3)5/h1-3H3, purity 99%
Compound 6: 1-chloro-2-methylpropane, C4H9Cl, InChI=1S/C4H9Cl/c1-4(2)3-5/h4H,3H2,1-2H3, purity 99%

System: 1-chlorobutane + hexane; phases: Liquid
Fixed: Pressure, kPa = 101
Property: Speed of sound, m/s (Liquid); method: Sing-around technique in a fixed-path interferometer
Temperature, K	Mole fraction of hexane	Speed of sound, m/s	uncertainty
283.15	0	1180.14	2.31
283.15	0.0508	1176.03	2.31
283.15	0.0992	1172.29	2.31
283.15	0.1972	1165.56	2.31
283.15	0.2966	1159.65	2.31
283.15	0.3976	1154.6	2.31
283.15	0.5009	1150.52	2.31
283.15	0.6006	1147.4	2.31
283.15	0.6982	1145.22	2.31
283.15	0.7972	1143.93	2.31
283.15	0.8979	1143.71	2.31
283.15	0.9472	1144.1	2.31
283.15	1	1145.13	2.31
298.15	0	1118.18	2.31
298.15	0.0508	1113.77	2.31
298.15	0.0992	1109.72	2.3
298.15	0.1972	1102.4	2.3
298.15	0.2966	1095.89	2.3
298.15	0.3976	1090.23	2.3
298.15	0.5009	1085.62	2.3
298.15	0.6006	1081.82	2.3
298.15	0.6982	1079.09	2.3
298.15	0.7972	1077.19	2.3
298.15	0.8979	1076.38	2.3
298.15	0.9472	1076.39	2.3
298.15	1	1077	2.3
313.15	0	1056.91	2.3
313.15	0.0508	1052.21	2.3
313.15	0.0992	1047.88	2.3
313.15	0.1972	1039.95	2.3
313.15	0.2966	1032.83	2.3
313.15	0.3976	1026.52	2.3
313.15	0.5009	1021.18	2.3
313.15	0.6006	1016.86	2.3
313.15	0.6982	1013.59	2.3
313.15	0.7972	1011.16	2.3
313.15	0.8979	1009.83	2.3
313.15	0.9472	1009.68	2.3
313.15	1	1009.88	2.3

System: 1-chlorobutane + hexane; phases: Liquid
Fixed: Pressure, kPa = 101
Property: Mass density, kg/m3 (Liquid); method: Vibrating tube method
Temperature, K	Mole fraction of hexane	Mass density, kg/m3	uncertainty
283.15	0	897.339	0.23
283.15	0.0508	882.878	0.238
283.15	0.0992	869.441	0.238
283.15	0.1972	843.152	0.239
283.15	0.2966	817.766	0.24
283.15	0.3976	793.168	0.241
283.15	0.5009	769.237	0.242
283.15	0.6006	747.205	0.244
283.15	0.6982	726.617	0.246
283.15	0.7972	706.669	0.248
283.15	0.8979	687.33	0.25
283.15	0.9472	678.205	0.25
283.15	1	668.609	0.249
298.15	0	880.785	0.231
298.15	0.0508	866.478	0.238
298.15	0.0992	853.196	0.238
298.15	0.1972	827.205	0.239
298.15	0.2966	802.115	0.241
298.15	0.3976	777.821	0.242
298.15	0.5009	754.195	0.244
298.15	0.6006	732.45	0.245
298.15	0.6982	712.126	0.247
298.15	0.7972	692.488	0.249
298.15	0.8979	673.439	0.251
298.15	0.9472	664.449	0.252
298.15	1	654.96	0.251
313.15	0	863.882	0.232
313.15	0.0508	849.768	0.239
313.15	0.0992	836.65	0.239
313.15	0.1972	810.995	0.24
313.15	0.2966	786.257	0.242
313.15	0.3976	762.288	0.243
313.15	0.5009	739.001	0.245
313.15	0.6006	717.601	0.247
313.15	0.6982	697.583	0.249
313.15	0.7972	678.241	0.251
313.15	0.8979	659.508	0.253
313.15	0.9472	650.666	0.254
313.15	1	641.39	0.253

System: 2-chlorobutane + hexane; phases: Liquid
Fixed: Pressure, kPa = 101
Property: Speed of sound, m/s (Liquid); method: Sing-around technique in a fixed-path interferometer
Temperature, K	Mole fraction of hexane	Speed of sound, m/s	uncertainty
283.15	0	1127.71	2.31
283.15	0.0509	1126.4	2.31
283.15	0.1002	1125.21	2.31
283.15	0.1802	1124.04	2.31
283.15	0.3029	1123.11	2.31
283.15	0.4045	1123.38	2.31
283.15	0.4991	1124.48	2.31
283.15	0.5974	1126.49	2.31
283.15	0.6992	1129.46	2.31
283.15	0.7996	1133.35	2.31
283.15	0.8981	1138.31	2.31
283.15	0.9477	1141.38	2.31
283.15	1	1145.13	2.31
298.15	0	1066.24	2.3
298.15	0.0509	1064.52	2.3
298.15	0.1002	1063.14	2.3
298.15	0.1802	1061.38	2.3
298.15	0.3029	1059.69	2.3
298.15	0.4045	1059.27	2.3
298.15	0.4991	1059.75	2.3
298.15	0.5974	1061.1	2.3
298.15	0.6992	1063.44	2.3
298.15	0.7996	1066.75	2.3
298.15	0.8981	1071.08	2.3
298.15	0.9477	1073.72	2.3
298.15	1	1077	2.3
313.15	0	1005.32	2.3
313.15	0.0509	1003.32	2.3
313.15	0.1002	1001.59	2.3
313.15	0.1802	999.26	2.3
313.15	0.3029	996.75	2.3
313.15	0.4045	995.71	2.3
313.15	0.4991	995.56	2.3
313.15	0.5974	996.3	2.3
313.15	0.6992	998	2.3
313.15	0.7996	1000.76	2.3
313.15	0.8981	1004.46	2.3
313.15	0.9477	1006.85	2.3
313.15	1	1009.88	2.3

System: 2-chlorobutane + hexane; phases: Liquid
Fixed: Pressure, kPa = 101
Property: Mass density, kg/m3 (Liquid); method: Vibrating tube method
Temperature, K	Mole fraction of hexane	Mass density, kg/m3	uncertainty
283.15	0	884.34	0.235
283.15	0.0509	870.642	0.242
283.15	0.1002	857.772	0.242
283.15	0.1802	837.449	0.242
283.15	0.3029	807.817	0.244
283.15	0.4045	784.524	0.245
283.15	0.4991	763.875	0.246
283.15	0.5974	743.353	0.247
283.15	0.6992	723.059	0.249
283.15	0.7996	704.031	0.251
283.15	0.8981	686.218	0.252
283.15	0.9477	677.555	0.253
283.15	1	668.609	0.252
298.15	0	867.474	0.236
298.15	0.0509	853.976	0.242
298.15	0.1002	841.229	0.242
298.15	0.1802	821.198	0.243
298.15	0.3029	791.981	0.245
298.15	0.4045	769.021	0.246
298.15	0.4991	748.682	0.247
298.15	0.5974	728.495	0.249
298.15	0.6992	708.519	0.25
298.15	0.7996	689.807	0.252
298.15	0.8981	672.305	0.254
298.15	0.9477	663.793	0.255
298.15	1	654.96	0.253
313.15	0	850.266	0.237
313.15	0.0509	836.967	0.243
313.15	0.1002	824.438	0.243
313.15	0.1802	804.693	0.244
313.15	0.3029	775.929	0.246
313.15	0.4045	753.339	0.247
313.15	0.4991	733.339	0.248
313.15	0.5974	713.496	0.25
313.15	0.6992	693.898	0.252
313.15	0.7996	675.523	0.253
313.15	0.8981	658.349	0.255
313.15	0.9477	650.005	0.256
313.15	1	641.39	0.255

System: hexane + 2-chloro-2-methylpropane; phases: Liquid
Fixed: Pressure, kPa = 101
Property: Speed of sound, m/s (Liquid); method: Sing-around technique in a fixed-path interferometer
Temperature, K	Mole fraction of hexane	Speed of sound, m/s	uncertainty
283.15	0	1046.93	2.3
283.15	0.0495	1049.76	2.3
283.15	0.0989	1052.19	2.3
283.15	0.2019	1058.59	2.3
283.15	0.2987	1065.66	2.3
283.15	0.4043	1074.45	2.3
283.15	0.4985	1083.14	2.3
283.15	0.6024	1093.68	2.3
283.15	0.7017	1104.73	2.31
283.15	0.7996	1116.63	2.31
283.15	0.9025	1130.42	2.31
283.15	0.9498	1137.16	2.31
283.15	1	1145.13	2.31
298.15	0	983.25	2.3
298.15	0.0495	985.59	2.3
298.15	0.0989	987.79	2.3
298.15	0.2019	993.98	2.3
298.15	0.2987	1000.74	2.3
298.15	0.4043	1009.12	2.3
298.15	0.4985	1017.47	2.3
298.15	0.6024	1027.59	2.3
298.15	0.7017	1038.24	2.3
298.15	0.7996	1049.72	2.3
298.15	0.9025	1062.98	2.3
298.15	0.9498	1069.48	2.3
298.15	1	1077	2.3
313.15	0	919.41	2.29
313.15	0.0495	922.06	2.29
313.15	0.0989	924.46	2.29
313.15	0.2019	930.06	2.29
313.15	0.2987	936.45	2.29
313.15	0.4043	944.41	2.29
313.15	0.4985	952.34	2.29
313.15	0.6024	962.01	2.29
313.15	0.7017	972.24	2.29
313.15	0.7996	983.31	2.3
313.15	0.9025	996.24	2.3
313.15	0.9498	1002.58	2.3
313.15	1	1009.88	2.3

System: hexane + 2-chloro-2-methylpropane; phases: Liquid
Fixed: Pressure, kPa = 101
Property: Mass density, kg/m3 (Liquid); method: Vibrating tube method
Temperature, K	Mole fraction of hexane	Mass density, kg/m3	uncertainty
283.15	0	855.249	0.237
283.15	0.0495	843.636	0.242
283.15	0.0989	832.389	0.242
283.15	0.2019	809.862	0.243
283.15	0.2987	789.789	0.244
283.15	0.4043	768.847	0.245
283.15	0.4985	751.114	0.246
283.15	0.6024	732.382	0.248
283.15	0.7017	715.376	0.249
283.15	0.7996	699.305	0.25
283.15	0.9025	683.186	0.252
283.15	0.9498	676.073	0.253
283.15	1	668.609	0.252
298.15	0	837.096	0.238
298.15	0.0495	825.763	0.243
298.15	0.0989	814.802	0.243
298.15	0.2019	792.826	0.244
298.15	0.2987	773.235	0.245
298.15	0.4043	752.8	0.246
298.15	0.4985	735.482	0.248
298.15	0.6024	717.205	0.249
298.15	0.7017	700.606	0.25
298.15	0.7996	684.94	0.252
298.15	0.9025	669.222	0.253
298.15	0.9498	662.283	0.254
298.15	1	654.96	0.253
313.15	0	818.536	0.24
313.15	0.0495	807.514	0.244
313.15	0.0989	796.851	0.244
313.15	0.2019	775.465	0.245
313.15	0.2987	756.4	0.246
313.15	0.4043	736.513	0.248
313.15	0.4985	719.653	0.249
313.15	0.6024	701.869	0.25
313.15	0.7017	685.731	0.252
313.15	0.7996	670.488	0.253
313.15	0.9025	655.21	0.255
313.15	0.9498	648.468	0.256
313.15	1	641.39	0.255

System: hexane + 1-chloro-2-methylpropane; phases: Liquid
Fixed: Pressure, kPa = 101
Property: Speed of sound, m/s (Liquid); method: Sing-around technique in a fixed-path interferometer
Temperature, K	Mole fraction of hexane	Speed of sound, m/s	uncertainty
283.15	0	1141.74	2.31
283.15	0.0512	1139.34	2.31
283.15	0.0999	1137.29	2.31
283.15	0.2003	1134.05	2.31
283.15	0.2993	1131.89	2.31
283.15	0.4005	1130.62	2.31
283.15	0.4977	1130.53	2.31
283.15	0.598	1131.27	2.31
283.15	0.6993	1133.04	2.31
283.15	0.799	1135.76	2.31
283.15	0.8967	1139.56	2.31
283.15	0.9472	1142.02	2.31
283.15	1	1145.13	2.31
298.15	0	1078.58	2.3
298.15	0.0512	1075.92	2.3
298.15	0.0999	1073.68	2.3
298.15	0.2003	1070.05	2.3
298.15	0.2993	1067.5	2.3
298.15	0.4005	1065.79	2.3
298.15	0.4977	1065.18	2.3
298.15	0.598	1065.5	2.3
298.15	0.6993	1066.74	2.3
298.15	0.799	1068.97	2.3
298.15	0.8967	1072.25	2.3
298.15	0.9472	1074.34	2.3
298.15	1	1077	2.3
313.15	0	1016.27	2.3
313.15	0.0512	1013.39	2.3
313.15	0.0999	1010.96	2.3
313.15	0.2003	1006.92	2.3
313.15	0.2993	1003.89	2.3
313.15	0.4005	1001.79	2.3
313.15	0.4977	1000.62	2.3
313.15	0.598	1000.4	2.3
313.15	0.6993	1001.12	2.3
313.15	0.799	1002.8	2.3
313.15	0.8967	1005.59	2.3
313.15	0.9472	1007.45	2.3
313.15	1	1009.88	2.3

System: hexane + 1-chloro-2-methylpropane; phases: Liquid
Fixed: Pressure, kPa = 101
Property: Mass density, kg/m3 (Liquid); method: Vibrating tube method
Temperature, K	Mole fraction of hexane	Mass density, kg/m3	uncertainty
283.15	0	888.845	0.235
283.15	0.0512	874.715	0.242
283.15	0.0999	861.62	0.242
283.15	0.2003	835.641	0.243
283.15	0.2993	811.259	0.244
283.15	0.4005	787.516	0.245
283.15	0.4977	765.822	0.246
283.15	0.598	744.502	0.247
283.15	0.6993	723.963	0.249
283.15	0.799	704.731	0.251
283.15	0.8967	686.793	0.252
283.15	0.9472	677.811	0.253
283.15	1	668.609	0.252
298.15	0	871.533	0.236
298.15	0.0512	857.627	0.243
298.15	0.0999	844.732	0.243
298.15	0.2003	819.166	0.244
298.15	0.2993	795.172	0.245
298.15	0.4005	771.817	0.246
298.15	0.4977	750.487	0.247
298.15	0.598	729.51	0.249
298.15	0.6993	709.35	0.25
298.15	0.799	690.452	0.252
298.15	0.8967	672.832	0.254
298.15	0.9472	664.036	0.255
298.15	1	654.96	0.253
313.15	0	853.902	0.237
313.15	0.0512	840.236	0.243
313.15	0.0999	827.564	0.243
313.15	0.2003	802.454	0.244
313.15	0.2993	778.889	0.246
313.15	0.4005	755.943	0.247
313.15	0.4977	735.001	0.248
313.15	0.598	714.446	0.25
313.15	0.6993	694.648	0.252
313.15	0.799	676.142	0.253
313.15	0.8967	658.858	0.255
313.15	0.9472	650.244	0.256
313.15	1	641.39	0.255

System: 1-chlorobutane + heptane; phases: Liquid
Fixed: Pressure, kPa = 101
Property: Speed of sound, m/s (Liquid); method: Sing-around technique in a fixed-path interferometer
Temperature, K	Mole fraction of 1-chlorobutane	Speed of sound, m/s	uncertainty
283.15	0	1180.14	2.31
283.15	0.0508	1178.72	2.31
283.15	0.1017	1177.5	2.31
283.15	0.1981	1176.11	2.31
283.15	0.2989	1175.69	2.31
283.15	0.4022	1176.13	2.31
283.15	0.4998	1177.43	2.31
283.15	0.6008	1179.64	2.31
283.15	0.6989	1182.56	2.31
283.15	0.7985	1186.18	2.31
283.15	0.898	1190.46	2.31
283.15	0.9498	1192.97	2.31
283.15	1	1195.66	2.31
298.15	0	1118.18	2.31
298.15	0.0508	1116.57	2.31
298.15	0.1017	1115.25	2.31
298.15	0.1981	1113.5	2.31
298.15	0.2989	1112.73	2.31
298.15	0.4022	1112.92	2.31
298.15	0.4998	1113.94	2.31
298.15	0.6008	1115.95	2.31
298.15	0.6989	1118.56	2.31
298.15	0.7985	1121.98	2.31
298.15	0.898	1125.9	2.31
298.15	0.9498	1128.38	2.31
298.15	1	1130.99	2.31
313.15	0	1056.91	2.3
313.15	0.0508	1055.15	2.3
313.15	0.1017	1053.64	2.3
313.15	0.1981	1051.6	2.3
313.15	0.2989	1050.55	2.3
313.15	0.4022	1050.42	2.3
313.15	0.4998	1051.24	2.3
313.15	0.6008	1052.97	2.3
313.15	0.6989	1055.39	2.3
313.15	0.7985	1058.53	2.3
313.15	0.898	1062.44	2.3
313.15	0.9498	1064.69	2.3
313.15	1	1067.19	2.3

System: 1-chlorobutane + heptane; phases: Liquid
Fixed: Pressure, kPa = 101
Property: Mass density, kg/m3 (Liquid); method: Vibrating tube method
Temperature, K	Mole fraction of heptane	Mass density, kg/m3	uncertainty
283.15	0	897.339	0.234
283.15	0.0508	882.735	0.242
283.15	0.1017	868.636	0.241
283.15	0.1981	843.549	0.242
283.15	0.2989	819.278	0.243
283.15	0.4022	796.314	0.243
283.15	0.4998	776.207	0.244
283.15	0.6008	756.852	0.245
283.15	0.6989	739.334	0.246
283.15	0.7985	722.761	0.247
283.15	0.898	707.234	0.249
283.15	0.9498	699.591	0.249
283.15	1	692.422	0.248
298.15	0	880.785	0.235
298.15	0.0508	866.442	0.242
298.15	0.1017	852.592	0.242
298.15	0.1981	827.947	0.243
298.15	0.2989	804.127	0.243
298.15	0.4022	781.594	0.244
298.15	0.4998	761.86	0.245
298.15	0.6008	742.869	0.246
298.15	0.6989	725.722	0.247
298.15	0.7985	709.483	0.249
298.15	0.898	694.282	0.25
298.15	0.9498	686.802	0.251
298.15	1	679.783	0.25
313.15	0	863.882	0.236
313.15	0.0508	849.802	0.243
313.15	0.1017	836.205	0.243
313.15	0.1981	812.014	0.243
313.15	0.2989	788.662	0.244
313.15	0.4022	766.57	0.245
313.15	0.4998	747.232	0.246
313.15	0.6008	728.632	0.247
313.15	0.6989	711.853	0.249
313.15	0.7985	695.957	0.25
313.15	0.898	681.084	0.252
313.15	0.9498	673.764	0.252
313.15	1	666.908	0.252

System: 2-chlorobutane + heptane; phases: Liquid
Fixed: Pressure, kPa = 101
Property: Speed of sound, m/s (Liquid); method: Sing-around technique in a fixed-path interferometer
Temperature, K	Mole fraction of 2-chlorobutane	Speed of sound, m/s	uncertainty
283.15	0	1127.71	2.31
283.15	0.0506	1129.72	2.31
283.15	0.0989	1131.72	2.31
283.15	0.2012	1136.2	2.31
283.15	0.3016	1141.22	2.31
283.15	0.3997	1146.64	2.31
283.15	0.4984	1152.95	2.31
283.15	0.5994	1160.26	2.31
283.15	0.6994	1168.09	2.31
283.15	0.7996	1176.98	2.31
283.15	0.9006	1186.18	2.31
283.15	0.9503	1190.79	2.31
283.15	1	1195.66	2.31
298.15	0	1066.24	2.3
298.15	0.0506	1068.03	2.3
298.15	0.0989	1069.84	2.3
298.15	0.2012	1074.02	2.3
298.15	0.3016	1078.53	2.3
298.15	0.3997	1083.73	2.3
298.15	0.4984	1089.71	2.3
298.15	0.5994	1096.67	2.3
298.15	0.6994	1104.3	2.3
298.15	0.7996	1112.76	2.31
298.15	0.9006	1121.68	2.31
298.15	0.9503	1126.1	2.31
298.15	1	1130.99	2.31
313.15	0	1005.32	2.3
313.15	0.0506	1006.92	2.3
313.15	0.0989	1008.53	2.3
313.15	0.2012	1012.42	2.3
313.15	0.3016	1016.7	2.3
313.15	0.3997	1021.34	2.3
313.15	0.4984	1027.19	2.3
313.15	0.5994	1033.47	2.3
313.15	0.6994	1040.79	2.3
313.15	0.7996	1049.14	2.3
313.15	0.9006	1058.02	2.3
313.15	0.9503	1062.39	2.3
313.15	1	1067.19	2.3

System: 2-chlorobutane + heptane; phases: Liquid
Fixed: Pressure, kPa = 101
Property: Mass density, kg/m3 (Liquid); method: Vibrating tube method
Temperature, K	Mole fraction of heptane	Mass density, kg/m3	uncertainty
283.15	0	884.34	0.235
283.15	0.0506	870.755	0.241
283.15	0.0989	858.319	0.241
283.15	0.2012	833.412	0.242
283.15	0.3016	810.786	0.243
283.15	0.3997	790.254	0.243
283.15	0.4984	771.15	0.244
283.15	0.5994	752.976	0.245
283.15	0.6994	736.272	0.246
283.15	0.7996	720.631	0.247
283.15	0.9006	705.927	0.249
283.15	0.9503	699.08	0.249
283.15	1	692.422	0.248
298.15	0	867.474	0.236
298.15	0.0506	854.132	0.242
298.15	0.0989	841.994	0.242
298.15	0.2012	817.61	0.243
298.15	0.3016	795.463	0.243
298.15	0.3997	775.401	0.244
298.15	0.4984	756.698	0.245
298.15	0.5994	738.95	0.246
298.15	0.6994	722.581	0.247
298.15	0.7996	707.328	0.249
298.15	0.9006	692.97	0.25
298.15	0.9503	686.282	0.251
298.15	1	679.783	0.25
313.15	0	850.266	0.237
313.15	0.0506	837.236	0.243
313.15	0.0989	825.335	0.243
313.15	0.2012	801.474	0.243
313.15	0.3016	779.843	0.244
313.15	0.3997	760.214	0.245
313.15	0.4984	741.962	0.246
313.15	0.5994	724.63	0.248
313.15	0.6994	708.679	0.249
313.15	0.7996	693.773	0.25
313.15	0.9006	679.768	0.251
313.15	0.9503	673.245	0.252
313.15	1	666.908	0.252

System: heptane + 2-chloro-2-methylpropane; phases: Liquid
Fixed: Pressure, kPa = 101
Property: Speed of sound, m/s (Liquid); method: Sing-around technique in a fixed-path interferometer
Temperature, K	Mole fraction of heptane	Speed of sound, m/s	uncertainty
283.15	0	1046.93	2.3
283.15	0.0519	1052.95	2.3
283.15	0.1021	1058.95	2.3
283.15	0.2015	1071.64	2.3
283.15	0.3006	1085.06	2.3
283.15	0.3997	1099.1	2.3
283.15	0.5027	1114.55	2.31
283.15	0.6011	1129.74	2.31
283.15	0.7014	1145.51	2.31
283.15	0.8007	1161.48	2.31
283.15	0.8966	1177.37	2.31
283.15	0.9518	1187.05	2.31
283.15	1	1195.66	2.31
298.15	0	983.25	2.3
298.15	0.0519	989.06	2.3
298.15	0.1021	995.16	2.3
298.15	0.2015	1007.85	2.3
298.15	0.3006	1021.53	2.3
298.15	0.3997	1035.69	2.3
298.15	0.5027	1051.11	2.3
298.15	0.6011	1066	2.3
298.15	0.7014	1081.51	2.3
298.15	0.8007	1097.08	2.3
298.15	0.8966	1113.19	2.31
298.15	0.9518	1122.53	2.31
298.15	1	1130.99	2.31
313.15	0	919.41	2.29
313.15	0.0519	925.62	2.29
313.15	0.1021	931.82	2.29
313.15	0.2015	944.63	2.29
313.15	0.3006	957.98	2.29
313.15	0.3997	972.04	2.29
313.15	0.5027	987.29	2.3
313.15	0.6011	1002.16	2.3
313.15	0.7014	1017.79	2.3
313.15	0.8007	1033.31	2.3
313.15	0.8966	1049.46	2.3
313.15	0.9518	1058.71	2.3
313.15	1	1067.19	2.3

System: heptane + 2-chloro-2-methylpropane; phases: Liquid
Fixed: Pressure, kPa = 101
Property: Mass density, kg/m3 (Liquid); method: Vibrating tube method
Temperature, K	Mole fraction of heptane	Mass density, kg/m3	uncertainty
283.15	0	855.249	0.237
283.15	0.0519	843.365	0.242
283.15	0.1021	832.352	0.242
283.15	0.2015	811.803	0.242
283.15	0.3006	792.846	0.243
283.15	0.3997	775.339	0.244
283.15	0.5027	758.514	0.245
283.15	0.6011	743.606	0.246
283.15	0.7014	729.346	0.246
283.15	0.8007	716.295	0.247
283.15	0.8966	704.437	0.248
283.15	0.9518	697.935	0.249
283.15	1	692.422	0.248
298.15	0	837.096	0.238
298.15	0.0519	825.671	0.243
298.15	0.1021	815.034	0.243
298.15	0.2015	795.208	0.243
298.15	0.3006	776.886	0.244
298.15	0.3997	759.908	0.245
298.15	0.5027	743.587	0.246
298.15	0.6011	729.156	0.247
298.15	0.7014	715.392	0.248
298.15	0.8007	702.832	0.249
298.15	0.8966	691.409	0.25
298.15	0.9518	685.122	0.25
298.15	1	679.783	0.25
313.15	0	818.536	0.24
313.15	0.0519	807.559	0.244
313.15	0.1021	797.321	0.244
313.15	0.2015	778.248	0.244
313.15	0.3006	760.618	0.245
313.15	0.3997	744.157	0.246
313.15	0.5027	728.394	0.247
313.15	0.6011	714.479	0.248
313.15	0.7014	701.195	0.249
313.15	0.8007	689.124	0.25
313.15	0.8966	678.136	0.251
313.15	0.9518	672.064	0.252
313.15	1	666.908	0.252

System: heptane + 1-chloro-2-methylpropane; phases: Liquid
Fixed: Pressure, kPa = 101
Property: Speed of sound, m/s (Liquid); method: Sing-around technique in a fixed-path interferometer
Temperature, K	Mole fraction of heptane	Speed of sound, m/s	uncertainty
283.15	0	1141.74	2.31
283.15	0.0507	1142.25	2.31
283.15	0.0979	1143.04	2.31
283.15	0.2004	1145.38	2.31
283.15	0.3008	1149	2.31
283.15	0.3993	1153.36	2.31
283.15	0.4999	1158.6	2.31
283.15	0.5973	1164.43	2.31
283.15	0.6994	1171.24	2.31
283.15	0.8006	1178.73	2.31
283.15	0.9002	1186.96	2.31
283.15	0.9491	1191.03	2.31
283.15	1	1195.66	2.31
298.15	0	1078.58	2.3
298.15	0.0507	1079.07	2.3
298.15	0.0979	1079.76	2.3
298.15	0.2004	1082.16	2.3
298.15	0.3008	1085.54	2.3
298.15	0.3993	1089.76	2.3
298.15	0.4999	1094.92	2.3
298.15	0.5973	1100.6	2.3
298.15	0.6994	1107.23	2.3
298.15	0.8006	1114.24	2.31
298.15	0.9002	1122.3	2.31
298.15	0.9491	1126.37	2.31
298.15	1	1130.99	2.31
313.15	0	1016.27	2.3
313.15	0.0507	1016.77	2.3
313.15	0.0979	1017.39	2.3
313.15	0.2004	1019.65	2.3
313.15	0.3008	1022.92	2.3
313.15	0.3993	1026.99	2.3
313.15	0.4999	1032.01	2.3
313.15	0.5973	1037.5	2.3
313.15	0.6994	1043.95	2.3
313.15	0.8006	1051.06	2.3
313.15	0.9002	1058.9	2.3
313.15	0.9491	1062.73	2.3
313.15	1	1067.19	2.3

System: heptane + 1-chloro-2-methylpropane; phases: Liquid
Fixed: Pressure, kPa = 101
Property: Mass density, kg/m3 (Liquid); method: Vibrating tube method
Temperature, K	Mole fraction of heptane	Mass density, kg/m3	uncertainty
283.15	0	888.845	0.235
283.15	0.0507	874.748	0.242
283.15	0.0979	862.133	0.242
283.15	0.2004	836.427	0.242
283.15	0.3008	813.265	0.243
283.15	0.3993	792.269	0.243
283.15	0.4999	772.383	0.244
283.15	0.5973	754.5	0.245
283.15	0.6994	737.065	0.246
283.15	0.8006	720.978	0.247
283.15	0.9002	706.284	0.249
283.15	0.9491	699.353	0.249
283.15	1	692.422	0.248
298.15	0	871.533	0.236
298.15	0.0507	857.771	0.242
298.15	0.0979	845.448	0.242
298.15	0.2004	820.343	0.243
298.15	0.3008	797.726	0.243
298.15	0.3993	777.224	0.244
298.15	0.4999	757.812	0.245
298.15	0.5973	740.349	0.246
298.15	0.6994	723.337	0.247
298.15	0.8006	707.64	0.249
298.15	0.9002	693.212	0.25
298.15	0.9491	686.54	0.251
298.15	1	679.783	0.25
313.15	0	853.902	0.237
313.15	0.0507	840.47	0.243
313.15	0.0979	828.448	0.243
313.15	0.2004	803.95	0.243
313.15	0.3008	781.886	0.244
313.15	0.3993	761.888	0.245
313.15	0.4999	742.952	0.246
313.15	0.5973	725.924	0.247
313.15	0.6994	709.345	0.249
313.15	0.8006	694.051	0.25
313.15	0.9002	679.976	0.252
313.15	0.9491	673.496	0.252
313.15	1	666.908	0.252
