Measured thermophysical data. Quaternary (liquid + liquid) equilibrium data for the extraction of toluene from alkanes using the ionic liquid [EMim][MSO4]
Source: J. Chem. Thermodyn., 2014, 10.1016/j.jct.2014.03.008
Compound 1: 1-ethyl-3-methylimidazolium methylsulfate, C7H14N2O4S, InChI=1S/C6H11N2.CH4O4S/c1-3-8-5-4-7(2)6-8;1-5-6(2,3)4/h4-6H,3H2,1-2H3;1H3,(H,2,3,4)/q+1;/p-1, purity 99%
Compound 2: heptane, C7H16, InChI=1S/C7H16/c1-3-5-7-6-4-2/h3-7H2,1-2H3, purity 99%
Compound 3: cyclohexane, C6H12, InChI=1S/C6H12/c1-2-4-6-5-3-1/h1-6H2, purity 99.5%
Compound 4: toluene, C7H8, InChI=1S/C7H8/c1-7-5-3-2-4-6-7/h2-6H,1H3, purity 99.8%

System: 1-ethyl-3-methylimidazolium methylsulfate; phases: Liquid
Property: Mass density, kg/m3 (Liquid); method: Vibrating tube method
Temperature, K	Pressure, kPa	Mass density, kg/m3	uncertainty
298.15	101.325	1280.81	0.47

System: 1-ethyl-3-methylimidazolium methylsulfate; phases: Liquid
Property: Refractive index (Na D-line) (Liquid); method: Standard Abbe refractometry
Temperature, K	Pressure, kPa	Refractive index (Na D-line)	uncertainty
298.15	101.325	1.48125	0.00037

System: heptane; phases: Liquid
Property: Mass density, kg/m3 (Liquid); method: Vibrating tube method
Temperature, K	Pressure, kPa	Mass density, kg/m3	uncertainty
298.15	101.325	679.57	0.25

System: heptane; phases: Liquid
Property: Refractive index (Na D-line) (Liquid); method: Standard Abbe refractometry
Temperature, K	Pressure, kPa	Refractive index (Na D-line)	uncertainty
298.15	101.325	1.38529	0.00037

System: cyclohexane; phases: Liquid
Property: Mass density, kg/m3 (Liquid); method: Vibrating tube method
Temperature, K	Pressure, kPa	Mass density, kg/m3	uncertainty
298.15	101.325	773.88	0.15

System: cyclohexane; phases: Liquid
Property: Refractive index (Na D-line) (Liquid); method: Standard Abbe refractometry
Temperature, K	Pressure, kPa	Refractive index (Na D-line)	uncertainty
298.15	101.325	1.42356	0.00033

System: toluene; phases: Liquid
Property: Mass density, kg/m3 (Liquid); method: Vibrating tube method
Temperature, K	Pressure, kPa	Mass density, kg/m3	uncertainty
298.15	101.325	862.23	0.11

System: toluene; phases: Liquid
Property: Refractive index (Na D-line) (Liquid); method: Standard Abbe refractometry
Temperature, K	Pressure, kPa	Refractive index (Na D-line)	uncertainty
298.15	101.325	1.49398	0.00031

System: toluene + heptane + 1-ethyl-3-methylimidazolium methylsulfate; phases: Liquid mixture 2, Liquid mixture 1
Fixed: Pressure, kPa = 101.3
Fixed: Temperature, K = 298.15
Property: Mole fraction of heptane (Liquid mixture 2); method: Chromatography
Property: Mole fraction of heptane (Liquid mixture 1); method: Chromatography
Property: Mole fraction of toluene (Liquid mixture 1); method: Chromatography
Mole fraction of toluene	Mole fraction of heptane	uncertainty	Mole fraction of heptane	uncertainty	Mole fraction of toluene	uncertainty
0.024	0.002	0.002	0.873	0.011	0.127	
0.036	0.001	0.001	0.795	0.011	0.205	
0.047	0.001	0.001	0.729	0.011	0.271	
0.061	0.001	0.001	0.656	0.012	0.344	
0.074	0		0.568	0.012	0.432	
0.085	0		0.469	0.012	0.531	
0.105	0		0.358	0.012	0.642	
0.122	0		0.273	0.011	0.727	
0.126	0		0.186	0.011	0.814	

System: toluene + cyclohexane + 1-ethyl-3-methylimidazolium methylsulfate; phases: Liquid mixture 2, Liquid mixture 1
Fixed: Temperature, K = 298.15
Fixed: Pressure, kPa = 101.3
Property: Mole fraction of cyclohexane (Liquid mixture 2); method: Chromatography
Property: Mole fraction of cyclohexane (Liquid mixture 1); method: Chromatography
Property: Mole fraction of toluene (Liquid mixture 1); method: Chromatography
Mole fraction of toluene	Mole fraction of cyclohexane	uncertainty	Mole fraction of cyclohexane	uncertainty	Mole fraction of toluene	uncertainty
0.033	0.009	0.008	0.811	0.011	0.189	
0.049	0.009	0.008	0.737	0.011	0.263	
0.059	0.008	0.008	0.669	0.012	0.331	
0.074	0.007	0.007	0.56	0.012	0.44	
0.094	0.007	0.007	0.45	0.012	0.55	
0.105	0.005	0.005	0.358	0.012	0.642	
0.121	0.005	0.005	0.271	0.011	0.729	
0.135	0.004	0.004	0.183	0.011	0.817	

System: cyclohexane + heptane + 1-ethyl-3-methylimidazolium methylsulfate; phases: Liquid mixture 2, Liquid mixture 1
Fixed: Temperature, K = 298.15
Fixed: Pressure, kPa = 101.3
Property: Mole fraction of heptane (Liquid mixture 2); method: Chromatography
Property: Mole fraction of heptane (Liquid mixture 1); method: Chromatography
Property: Mole fraction of cyclohexane (Liquid mixture 1); method: Chromatography
Mole fraction of cyclohexane	Mole fraction of heptane	uncertainty	Mole fraction of heptane	uncertainty	Mole fraction of cyclohexane	uncertainty
0.002	0.002	0.002	0.871	0.011	0.129	
0.003	0.001	0.001	0.724	0.011	0.276	
0.003	0.001	0.001	0.69	0.012	0.31	
0.005	0.002	0.002	0.534	0.012	0.466	
0.006	0.001	0.001	0.398	0.012	0.602	
0.008	0.001	0.001	0.297	0.012	0.703	
0.008	0.001	0.001	0.17	0.011	0.83	
