Measured thermophysical data. Bubble pressure measurements for the (1,1,1,2-tetrafluoroethane + triethylene glycol dimethyl ether) system
Source: J. Chem. Thermodyn., 2006, 10.1016/j.jct.2006.03.004
Compound 1: 1,1,1,2-tetrafluoroethane, C2H2F4, InChI=1S/C2H2F4/c3-1-2(4,5)6/h1H2, purity 99.9%
Compound 2: 2,5,8,11-tetraoxadodecane, C8H18O4, InChI=1S/C8H18O4/c1-9-3-5-11-7-8-12-6-4-10-2/h3-8H2,1-2H3, purity 99.95%

System: 1,1,1,2-tetrafluoroethane; phases: Liquid, Gas
Property: Vapor or sublimation pressure, kPa (Liquid); method: CCELL:UFactor:2
Temperature, K	Vapor or sublimation pressure, kPa	uncertainty
282.55	404	2.7
293.32	572.6	3.7
303.24	773.3	5
312.66	1002.2	6.5
322.82	1304.9	8.3

System: 2,5,8,11-tetraoxadodecane + 1,1,1,2-tetrafluoroethane; phases: Liquid, Gas
Property: Vapor or sublimation pressure, kPa (Liquid); method: CCELL:UFactor:2
Temperature, K	Mole fraction of 1,1,1,2-tetrafluoroethane	Vapor or sublimation pressure, kPa	uncertainty
282.55	0.7432	276.7	1.9
282.55	0.7814	297.8	2
282.55	0.8221	319.8	2.1
282.55	0.8552	337.1	2.3
282.55	0.8885	353.9	2.4
282.55	0.9234	370.8	2.5
282.55	0.9298	373.6	2.5
282.55	0.9363	377.3	2.5
282.55	0.9408	379.7	2.5
282.55	0.9454	381.5	2.6
282.55	0.9498	383.5	2.6
282.55	0.9541	385.3	2.6
282.55	0.9586	387.3	2.6
282.55	0.9624	389.2	2.6
282.55	0.9662	391.1	2.6
282.55	0.9702	393.1	2.6
282.55	0.9741	394.7	2.6
282.55	0.9781	396.1	2.6
282.55	0.9821	397.7	2.7
282.55	0.9858	398.6	2.7
282.55	0.9896	400.2	2.7
282.55	0.9934	400.8	2.7
282.55	0.9962	402	2.7
282.55	0.998	403.7	2.7
282.55	1	404	2.7
293.32	0.7465	396.3	2.6
293.32	0.7818	422.1	2.8
293.32	0.8208	450.8	2.9
293.32	0.8517	473	3.1
293.32	0.8823	494.4	3.2
293.32	0.9154	517.1	3.4
293.32	0.9218	521.9	3.4
293.32	0.9284	526.3	3.4
293.32	0.9328	528.4	3.4
293.32	0.9372	531.9	3.5
293.32	0.9417	536	3.5
293.32	0.9462	538.7	3.5
293.32	0.9508	541	3.5
293.32	0.9555	544.7	3.6
293.32	0.9601	548.5	3.6
293.32	0.9647	551	3.6
293.32	0.9694	553.8	3.6
293.32	0.9741	557.1	3.6
293.32	0.9789	560.5	3.7
293.32	0.9837	562.9	3.7
293.32	0.9934	566.9	3.7
293.32	0.9967	570.7	3.7
293.32	0.9984	572.1	3.7
293.32	1	572.6	3.7
303.24	0.6369	433.3	2.8
303.24	0.6738	468.2	3
303.24	0.7102	503.5	3.3
303.24	0.7461	538	3.5
303.24	0.7806	571.9	3.7
303.24	0.8133	602.9	3.9
303.24	0.844	632	4.1
303.24	0.8724	657.2	4.3
303.24	0.8977	680.4	4.4
303.24	0.9203	700.8	4.5
303.24	0.9381	716.7	4.6
303.24	0.9531	729.3	4.7
303.24	0.9654	740.7	4.8
303.24	0.9751	749	4.8
303.24	0.9827	757.1	4.9
303.24	0.9877	762.6	4.9
303.24	0.9913	765.1	5
303.24	0.9963	769.2	5
303.24	0.9975	770.8	5
303.24	1	773.3	5
312.66	0.7488	705.5	4.6
312.66	0.7726	735.1	4.7
312.66	0.7982	765.8	5
312.66	0.8259	799.1	5.1
312.66	0.8559	834.8	5.4
312.66	0.8888	872.8	5.6
312.66	0.9249	914.8	5.9
312.66	0.9296	920.1	5.9
312.66	0.9343	925.9	6
312.66	0.9391	931.5	6
312.66	0.9435	936	6
312.66	0.9478	941.6	6.1
312.66	0.9523	946.4	6.1
312.66	0.9562	950.8	6.1
312.66	0.9601	954.5	6.2
312.66	0.9641	960.2	6.2
312.66	0.9681	964.4	6.2
312.66	0.9722	968.5	6.2
312.66	0.9759	972.2	6.3
312.66	0.9796	977	6.3
312.66	0.9833	981.9	6.3
312.66	0.9871	987.2	6.4
312.66	0.9909	993.2	6.4
312.66	0.994	995.8	6.4
312.66	0.9966	998.1	6.4
312.66	0.9979	998.4	6.4
312.66	0.9992	999.9	6.4
312.66	1	1002.2	6.5
322.82	0.7451	911.2	5.8
322.82	0.7688	948.9	6.1
322.82	0.7943	988.3	6.3
322.82	0.8221	1030.8	6.6
322.82	0.8523	1077.7	6.9
322.82	0.8856	1125.6	7.2
322.82	0.9225	1182.8	7.5
322.82	0.9273	1189.9	7.6
322.82	0.9322	1196.6	7.6
322.82	0.9372	1204	7.7
322.82	0.9416	1210.9	7.7
322.82	0.9461	1218.2	7.8
322.82	0.9507	1224.8	7.8
322.82	0.9547	1231.7	7.8
322.82	0.9587	1237.3	7.9
322.82	0.9628	1244	7.9
322.82	0.967	1250.5	8
322.82	0.9712	1257.8	8
322.82	0.975	1263.4	8.1
322.82	0.9789	1268.6	8.1
322.82	0.9828	1275.7	8.1
322.82	0.9867	1280.6	8.2
322.82	0.9907	1288	8.2
322.82	0.9938	1293.4	8.2
322.82	0.9963	1295.7	8.3
322.82	0.9981	1299.1	8.3
322.82	0.9994	1301.8	8.3
322.82	1	1304.9	8.3
