Measured thermophysical data. Activity coefficients at infinite dilution of organic solutes in N-alkylpyridinium bis(trifluoromethylsulfonyl)imide ([CnPY][NTf2], n = 2, 4, 5) using gas liquid chromatography
Source: J. Chem. Thermodyn., 2010, 10.1016/j.jct.2010.06.009
Compound 1: 1-ethylpyridinium bis[(trifluoromethyl)sulfonyl]imide, C9H10F6N2O4S2, InChI=1S/C7H10N.C2F6NO4S2/c1-2-8-6-4-3-5-7-8;3-1(4,5)14(10,11)9-15(12,13)2(6,7)8/h3-7H,2H2,1H3;/q+1;-1
Compound 2: 1-butylpyridinium bis[(trifluoromethyl)sulfonyl]imide, C11H14F6N2O4S2, InChI=1S/C9H14N.C2F6NO4S2/c1-2-3-7-10-8-5-4-6-9-10;3-1(4,5)14(10,11)9-15(12,13)2(6,7)8/h4-6,8-9H,2-3,7H2,1H3;/q+1;-1
Compound 3: pentane, C5H12, InChI=1S/C5H12/c1-3-5-4-2/h3-5H2,1-2H3, purity 99%
Compound 4: hexane, C6H14, InChI=1S/C6H14/c1-3-5-6-4-2/h3-6H2,1-2H3, purity 99%
Compound 5: heptane, C7H16, InChI=1S/C7H16/c1-3-5-7-6-4-2/h3-7H2,1-2H3, purity 99%
Compound 6: octane, C8H18, InChI=1S/C8H18/c1-3-5-7-8-6-4-2/h3-8H2,1-2H3, purity 99%
Compound 7: nonane, C9H20, InChI=1S/C9H20/c1-3-5-7-9-8-6-4-2/h3-9H2,1-2H3, purity 99%
Compound 8: cyclohexane, C6H12, InChI=1S/C6H12/c1-2-4-6-5-3-1/h1-6H2, purity 99%
Compound 9: methylcyclohexane, C7H14, InChI=1S/C7H14/c1-7-5-3-2-4-6-7/h7H,2-6H2,1H3, purity 99%
Compound 10: hex-1-ene, C6H12, InChI=1S/C6H12/c1-3-5-6-4-2/h3H,1,4-6H2,2H3, purity 99%
Compound 11: oct-1-ene, C8H16, InChI=1S/C8H16/c1-3-5-7-8-6-4-2/h3H,1,4-8H2,2H3, purity 99%
Compound 12: 1-decene, C10H20, InChI=1S/C10H20/c1-3-5-7-9-10-8-6-4-2/h3H,1,4-10H2,2H3, purity 99%
Compound 13: 1-pentyne, C5H8, InChI=1S/C5H8/c1-3-5-4-2/h1H,4-5H2,2H3, purity 99%
Compound 14: 1-hexyne, C6H10, InChI=1S/C6H10/c1-3-5-6-4-2/h1H,4-6H2,2H3, purity 99%
Compound 15: 1-heptyne, C7H12, InChI=1S/C7H12/c1-3-5-7-6-4-2/h1H,4-7H2,2H3, purity 99%
Compound 16: 1-octyne, C8H14, InChI=1S/C8H14/c1-3-5-7-8-6-4-2/h1H,4-8H2,2H3, purity 99%
Compound 17: benzene, C6H6, InChI=1S/C6H6/c1-2-4-6-5-3-1/h1-6H, purity 99%
Compound 18: toluene, C7H8, InChI=1S/C7H8/c1-7-5-3-2-4-6-7/h2-6H,1H3, purity 99%
Compound 19: ethylbenzene, C8H10, InChI=1S/C8H10/c1-2-8-6-4-3-5-7-8/h3-7H,2H2,1H3, purity 99%
Compound 20: 1,2-dimethylbenzene, C8H10, InChI=1S/C8H10/c1-7-5-3-4-6-8(7)2/h3-6H,1-2H3, purity 99%
Compound 21: 1,3-dimethylbenzene, C8H10, InChI=1S/C8H10/c1-7-4-3-5-8(2)6-7/h3-6H,1-2H3, purity 99%
Compound 22: 1,4-dimethylbenzene, C8H10, InChI=1S/C8H10/c1-7-3-5-8(2)6-4-7/h3-6H,1-2H3, purity 99%
Compound 23: methanol, CH4O, InChI=1S/CH4O/c1-2/h2H,1H3, purity 99%
Compound 24: ethanol, C2H6O, InChI=1S/C2H6O/c1-2-3/h3H,2H2,1H3, purity 99%
Compound 25: propan-1-ol, C3H8O, InChI=1S/C3H8O/c1-2-3-4/h4H,2-3H2,1H3, purity 99%
Compound 26: 1-pentylpyridinium bis(trifluoromethylsulfonyl)amide, C12H16F6N2O4S2, InChI=1S/C10H16N.C2F6NO4S2/c1-2-3-5-8-11-9-6-4-7-10-11;3-1(4,5)14(10,11)9-15(12,13)2(6,7)8/h4,6-7,9-10H,2-3,5,8H2,1H3;/q+1;-1

System: pentane + 1-ethylpyridinium bis[(trifluoromethyl)sulfonyl]imide; phases: Liquid
Fixed: Pressure, kPa = 101
Fixed: Mole fraction of pentane = 0
Property: Activity coefficient of pentane (Liquid); method: Chromatography
Temperature, K	Activity coefficient of pentane	uncertainty
302.7	5.79	4.35
313.3	4.5	3.38
323	3.59	2.7
333	2.92	2.19
342.9	2.36	1.77
352.9	1.95	1.46

System: pentane + 1-butylpyridinium bis[(trifluoromethyl)sulfonyl]imide; phases: Liquid
Fixed: Pressure, kPa = 101
Fixed: Mole fraction of pentane = 0
Property: Activity coefficient of pentane (Liquid); method: Chromatography
Temperature, K	Activity coefficient of pentane	uncertainty
302.8	5.66	4.25
312.4	4.83	3.63
323.2	3.92	2.94
333	3.44	2.58
343.4	2.66	2
353.4	2.24	1.68

System: pentane + 1-pentylpyridinium bis(trifluoromethylsulfonyl)amide; phases: Liquid
Fixed: Pressure, kPa = 101
Fixed: Mole fraction of pentane = 0
Property: Activity coefficient of pentane (Liquid); method: Chromatography
Temperature, K	Activity coefficient of pentane	uncertainty
303.3	5.03	3.78
312.7	4.17	3.13
323.4	3.42	2.57
333.3	2.89	2.17
343.3	2.41	1.81
353.3	2.07	1.55

System: hexane + 1-ethylpyridinium bis[(trifluoromethyl)sulfonyl]imide; phases: Liquid
Fixed: Pressure, kPa = 101
Fixed: Mole fraction of hexane = 0
Property: Activity coefficient of hexane (Liquid); method: Chromatography
Temperature, K	Activity coefficient of hexane	uncertainty
302.8	13.82	10.37
313.3	10.78	8.09
323.1	8.59	6.45
333	6.86	5.15
342.9	5.46	4.1
353	4.38	3.29

System: hexane + 1-butylpyridinium bis[(trifluoromethyl)sulfonyl]imide; phases: Liquid
Fixed: Pressure, kPa = 101
Fixed: Mole fraction of hexane = 0
Property: Activity coefficient of hexane (Liquid); method: Chromatography
Temperature, K	Activity coefficient of hexane	uncertainty
302.8	11.93	8.96
312.4	10.39	7.8
323.2	8.58	6.44
332.8	7.59	5.7
343.3	5.85	4.39
353.4	4.75	3.57

System: hexane + 1-pentylpyridinium bis(trifluoromethylsulfonyl)amide; phases: Liquid
Fixed: Pressure, kPa = 101
Fixed: Mole fraction of hexane = 0
Property: Activity coefficient of hexane (Liquid); method: Chromatography
Temperature, K	Activity coefficient of hexane	uncertainty
303.3	9.78	7.34
312.7	8.36	6.28
323.4	7	5.25
333.3	5.98	4.49
343.3	5.01	3.76
353.3	4.25	3.19

System: heptane + 1-ethylpyridinium bis[(trifluoromethyl)sulfonyl]imide; phases: Liquid
Fixed: Pressure, kPa = 101
Fixed: Mole fraction of heptane = 0
Property: Activity coefficient of heptane (Liquid); method: Chromatography
Temperature, K	Activity coefficient of heptane	uncertainty
302.8	29.34	22.03
313.3	23.08	17.33
323.1	18.65	14
333	14.7	11.04
342.9	11.75	8.82
353	9.37	7.03

System: heptane + 1-butylpyridinium bis[(trifluoromethyl)sulfonyl]imide; phases: Liquid
Fixed: Pressure, kPa = 101
Fixed: Mole fraction of heptane = 0
Property: Activity coefficient of heptane (Liquid); method: Chromatography
Temperature, K	Activity coefficient of heptane	uncertainty
302.8	21.81	16.37
312.4	19.35	14.53
323.2	16.84	12.64
333.2	13.84	10.39
343.3	11.4	8.56
353.4	9.35	7.02

System: heptane + 1-pentylpyridinium bis(trifluoromethylsulfonyl)amide; phases: Liquid
Fixed: Pressure, kPa = 101
Fixed: Mole fraction of heptane = 0
Property: Activity coefficient of heptane (Liquid); method: Chromatography
Temperature, K	Activity coefficient of heptane	uncertainty
303.2	16.5	12.39
312.7	14.64	10.99
323.4	12.62	9.47
333.3	10.98	8.24
343.3	9.35	7.02
353.3	7.98	5.99

System: octane + 1-ethylpyridinium bis[(trifluoromethyl)sulfonyl]imide; phases: Liquid
Fixed: Pressure, kPa = 101
Fixed: Mole fraction of octane = 0
Property: Activity coefficient of octane (Liquid); method: Chromatography
Temperature, K	Activity coefficient of octane	uncertainty
302.8	52.85	39.68
313.3	43.45	32.62
323.1	35.98	27.01
333	29.09	21.84
342.9	23.4	17.57
353	18.53	13.91

System: octane + 1-butylpyridinium bis[(trifluoromethyl)sulfonyl]imide; phases: Liquid
Fixed: Pressure, kPa = 101
Fixed: Mole fraction of octane = 0
Property: Activity coefficient of octane (Liquid); method: Chromatography
Temperature, K	Activity coefficient of octane	uncertainty
302.7	35.44	26.61
312.5	32.2	24.17
323.2	28.98	21.76
333.3	23.89	17.93
343.3	20.42	15.33
353.4	16.81	12.62

System: octane + 1-pentylpyridinium bis(trifluoromethylsulfonyl)amide; phases: Liquid
Fixed: Pressure, kPa = 101
Fixed: Mole fraction of octane = 0
Property: Activity coefficient of octane (Liquid); method: Chromatography
Temperature, K	Activity coefficient of octane	uncertainty
303.2	25.02	18.78
312.7	22.84	17.15
323.4	20.31	15.25
333.3	18	13.51
343.3	15.74	11.82
353.3	13.69	10.28

System: nonane + 1-ethylpyridinium bis[(trifluoromethyl)sulfonyl]imide; phases: Liquid
Fixed: Pressure, kPa = 101
Fixed: Mole fraction of nonane = 0
Property: Activity coefficient of nonane (Liquid); method: Chromatography
Temperature, K	Activity coefficient of nonane	uncertainty
302.8	86.07	64.62
313.3	74.28	55.76
323.1	63.42	47.61
333	51.7	38.81
342.9	42.21	31.69
353	33.83	25.4

System: nonane + 1-butylpyridinium bis[(trifluoromethyl)sulfonyl]imide; phases: Liquid
Fixed: Pressure, kPa = 101
Fixed: Mole fraction of nonane = 0
Property: Activity coefficient of nonane (Liquid); method: Chromatography
Temperature, K	Activity coefficient of nonane	uncertainty
303.1	52.34	39.29
312.6	50.04	37.57
323.3	45.62	34.25
333.3	38.62	28.99
343.3	33.33	25.02
353.4	28.11	21.1

System: nonane + 1-pentylpyridinium bis(trifluoromethylsulfonyl)amide; phases: Liquid
Fixed: Pressure, kPa = 101
Fixed: Mole fraction of nonane = 0
Property: Activity coefficient of nonane (Liquid); method: Chromatography
Temperature, K	Activity coefficient of nonane	uncertainty
303.2	35.98	27.01
312.7	33.31	25.01
323.4	30.19	22.66
333.3	27.29	20.49
343.3	24.24	18.2
353.3	21.45	16.1

System: cyclohexane + 1-ethylpyridinium bis[(trifluoromethyl)sulfonyl]imide; phases: Liquid
Fixed: Pressure, kPa = 101
Fixed: Mole fraction of cyclohexane = 0
Property: Activity coefficient of cyclohexane (Liquid); method: Chromatography
Temperature, K	Activity coefficient of cyclohexane	uncertainty
302.8	11.45	8.6
313.3	9.56	7.18
323.1	8.04	6.04
333	6.76	5.07
342.9	5.63	4.23
353	4.65	3.49

System: cyclohexane + 1-butylpyridinium bis[(trifluoromethyl)sulfonyl]imide; phases: Liquid
Fixed: Pressure, kPa = 101
Fixed: Mole fraction of cyclohexane = 0
Property: Activity coefficient of cyclohexane (Liquid); method: Chromatography
Temperature, K	Activity coefficient of cyclohexane	uncertainty
302.9	9.66	7.25
312.4	8.64	6.49
323.2	7.88	5.92
333.2	6.7	5.03
343.3	5.61	4.21
353.4	4.72	3.54

System: cyclohexane + 1-pentylpyridinium bis(trifluoromethylsulfonyl)amide; phases: Liquid
Fixed: Pressure, kPa = 101
Fixed: Mole fraction of cyclohexane = 0
Property: Activity coefficient of cyclohexane (Liquid); method: Chromatography
Temperature, K	Activity coefficient of cyclohexane	uncertainty
303.2	7.35	5.52
312.7	6.67	5.01
323.4	5.91	4.44
333.3	5.3	3.98
343.3	4.66	3.5
353.3	4.06	3.05

System: methylcyclohexane + 1-ethylpyridinium bis[(trifluoromethyl)sulfonyl]imide; phases: Liquid
Fixed: Pressure, kPa = 101
Fixed: Mole fraction of methylcyclohexane = 0
Property: Activity coefficient of methylcyclohexane (Liquid); method: Chromatography
Temperature, K	Activity coefficient of methylcyclohexane	uncertainty
302.8	17.78	13.35
313.3	15.03	11.28
323.1	12.82	9.62
333	10.76	8.08
342.9	9.01	6.76
353	7.49	5.62

System: methylcyclohexane + 1-butylpyridinium bis[(trifluoromethyl)sulfonyl]imide; phases: Liquid
Fixed: Pressure, kPa = 101
Fixed: Mole fraction of methylcyclohexane = 0
Property: Activity coefficient of methylcyclohexane (Liquid); method: Chromatography
Temperature, K	Activity coefficient of methylcyclohexane	uncertainty
302.8	14.14	10.62
312.4	12.73	9.56
323.2	11.61	8.72
333.1	10.13	7.6
343.3	8.44	6.34
353.4	7.2	5.41

System: methylcyclohexane + 1-pentylpyridinium bis(trifluoromethylsulfonyl)amide; phases: Liquid
Fixed: Pressure, kPa = 101
Fixed: Mole fraction of methylcyclohexane = 0
Property: Activity coefficient of methylcyclohexane (Liquid); method: Chromatography
Temperature, K	Activity coefficient of methylcyclohexane	uncertainty
303.1	10.24	7.69
312.7	9.39	7.05
323.4	8.48	6.37
333.3	7.64	5.74
343.3	6.84	5.13
353.3	6.08	4.56

System: hex-1-ene + 1-ethylpyridinium bis[(trifluoromethyl)sulfonyl]imide; phases: Liquid
Fixed: Pressure, kPa = 101
Fixed: Mole fraction of hex-1-ene = 0
Property: Activity coefficient of hex-1-ene (Liquid); method: Chromatography
Temperature, K	Activity coefficient of hex-1-ene	uncertainty
302.6	11.51	8.64
313.1	9.42	7.07
322.9	7.86	5.9
332.8	6.54	4.91
342.9	5.34	4.01
353	4.4	3.3

System: hex-1-ene + 1-butylpyridinium bis[(trifluoromethyl)sulfonyl]imide; phases: Liquid
Fixed: Pressure, kPa = 101
Fixed: Mole fraction of hex-1-ene = 0
Property: Activity coefficient of hex-1-ene (Liquid); method: Chromatography
Temperature, K	Activity coefficient of hex-1-ene	uncertainty
302.3	8.87	6.66
312.9	7.45	5.59
323	6.38	4.79
332.8	5.29	3.97
343	4.33	3.25
352.8	3.71	2.79

System: hex-1-ene + 1-pentylpyridinium bis(trifluoromethylsulfonyl)amide; phases: Liquid
Fixed: Pressure, kPa = 101
Fixed: Mole fraction of hex-1-ene = 0
Property: Activity coefficient of hex-1-ene (Liquid); method: Chromatography
Temperature, K	Activity coefficient of hex-1-ene	uncertainty
302.9	6.22	4.67
312.8	5.46	4.1
322.6	4.84	3.63
333.4	4.17	3.13
343.4	3.55	2.66
353.4	3.08	2.31

System: oct-1-ene + 1-ethylpyridinium bis[(trifluoromethyl)sulfonyl]imide; phases: Liquid
Fixed: Pressure, kPa = 101
Fixed: Mole fraction of oct-1-ene = 0
Property: Activity coefficient of oct-1-ene (Liquid); method: Chromatography
Temperature, K	Activity coefficient of oct-1-ene	uncertainty
302.6	36.63	27.5
313.2	31.54	23.68
323.2	27.25	20.46
332.8	23.71	17.8
342.9	19.83	14.89
353	16.71	12.54

System: oct-1-ene + 1-butylpyridinium bis[(trifluoromethyl)sulfonyl]imide; phases: Liquid
Fixed: Pressure, kPa = 101
Fixed: Mole fraction of oct-1-ene = 0
Property: Activity coefficient of oct-1-ene (Liquid); method: Chromatography
Temperature, K	Activity coefficient of oct-1-ene	uncertainty
302.5	22.29	16.73
313	19.74	14.82
323.2	18.39	13.81
332.8	15.72	11.8
343	13.56	10.18
352.9	11.94	8.96

System: oct-1-ene + 1-pentylpyridinium bis(trifluoromethylsulfonyl)amide; phases: Liquid
Fixed: Pressure, kPa = 101
Fixed: Mole fraction of oct-1-ene = 0
Property: Activity coefficient of oct-1-ene (Liquid); method: Chromatography
Temperature, K	Activity coefficient of oct-1-ene	uncertainty
303	14.18	10.65
312.6	13.23	9.93
322.6	12.2	9.16
333.4	10.99	8.25
343.4	9.95	7.47
353.4	9.08	6.82

System: 1-decene + 1-ethylpyridinium bis[(trifluoromethyl)sulfonyl]imide; phases: Liquid
Fixed: Pressure, kPa = 101
Fixed: Mole fraction of 1-decene = 0
Property: Activity coefficient of 1-decene (Liquid); method: Chromatography
Temperature, K	Activity coefficient of 1-decene	uncertainty
302.9	85.83	64.44
313.2	77.2	57.96
323.2	69.97	52.53
332.8	62.7	47.07
342.9	54.48	40.9
353	46.94	35.24

System: 1-decene + 1-butylpyridinium bis[(trifluoromethyl)sulfonyl]imide; phases: Liquid
Fixed: Pressure, kPa = 101
Fixed: Mole fraction of 1-decene = 0
Property: Activity coefficient of 1-decene (Liquid); method: Chromatography
Temperature, K	Activity coefficient of 1-decene	uncertainty
302.5	46.74	35.09
313.2	40.09	30.1
322.8	39.62	29.74
332.8	34.62	25.99
342.9	31.19	23.41
353	28.08	21.08

System: 1-decene + 1-pentylpyridinium bis(trifluoromethylsulfonyl)amide; phases: Liquid
Fixed: Pressure, kPa = 101
Fixed: Mole fraction of 1-decene = 0
Property: Activity coefficient of 1-decene (Liquid); method: Chromatography
Temperature, K	Activity coefficient of 1-decene	uncertainty
303.1	26.43	19.84
312.6	25.13	18.87
322.6	23.77	17.84
333.4	22.09	16.58
343.4	20.58	15.45
353.4	19.3	14.49

System: 1-pentyne + 1-ethylpyridinium bis[(trifluoromethyl)sulfonyl]imide; phases: Liquid
Fixed: Pressure, kPa = 101
Fixed: Mole fraction of 1-pentyne = 0
Property: Activity coefficient of 1-pentyne (Liquid); method: Chromatography
Temperature, K	Activity coefficient of 1-pentyne	uncertainty
302.5	3.2	2.4
313.2	3	2.25
323	2.73	2.05
333	2.52	1.89
342.9	2.23	1.67
353.1	2.03	1.52

System: 1-pentyne + 1-butylpyridinium bis[(trifluoromethyl)sulfonyl]imide; phases: Liquid
Fixed: Pressure, kPa = 101
Fixed: Mole fraction of 1-pentyne = 0
Property: Activity coefficient of 1-pentyne (Liquid); method: Chromatography
Temperature, K	Activity coefficient of 1-pentyne	uncertainty
302.2	2.67	2
313.4	2.4	1.8
323.2	2.23	1.67
333.1	2.04	1.53
343	1.88	1.41
353.1	1.68	1.26

System: 1-pentyne + 1-pentylpyridinium bis(trifluoromethylsulfonyl)amide; phases: Liquid
Fixed: Pressure, kPa = 101
Fixed: Mole fraction of 1-pentyne = 0
Property: Activity coefficient of 1-pentyne (Liquid); method: Chromatography
Temperature, K	Activity coefficient of 1-pentyne	uncertainty
302.8	2.01	1.51
313.5	1.88	1.41
323.4	1.75	1.31
333.3	1.62	1.22
343.2	1.5	1.13
353.4	1.39	1.04

System: 1-hexyne + 1-ethylpyridinium bis[(trifluoromethyl)sulfonyl]imide; phases: Liquid
Fixed: Pressure, kPa = 101
Fixed: Mole fraction of 1-hexyne = 0
Property: Activity coefficient of 1-hexyne (Liquid); method: Chromatography
Temperature, K	Activity coefficient of 1-hexyne	uncertainty
302.5	5.26	3.95
313.2	4.95	3.72
323	4.63	3.48
333	4.18	3.14
342.9	3.88	2.91
353	3.47	2.6

System: 1-hexyne + 1-butylpyridinium bis[(trifluoromethyl)sulfonyl]imide; phases: Liquid
Fixed: Pressure, kPa = 101
Fixed: Mole fraction of 1-hexyne = 0
Property: Activity coefficient of 1-hexyne (Liquid); method: Chromatography
Temperature, K	Activity coefficient of 1-hexyne	uncertainty
303.5	3.92	2.94
313.3	3.72	2.79
323.2	3.5	2.63
333.1	3.29	2.47
343.1	3.04	2.28
353.1	2.82	2.12

System: 1-hexyne + 1-pentylpyridinium bis(trifluoromethylsulfonyl)amide; phases: Liquid
Fixed: Pressure, kPa = 101
Fixed: Mole fraction of 1-hexyne = 0
Property: Activity coefficient of 1-hexyne (Liquid); method: Chromatography
Temperature, K	Activity coefficient of 1-hexyne	uncertainty
302.8	2.92	2.19
313.6	2.82	2.12
323.4	2.66	2
333.3	2.53	1.9
343.3	2.42	1.82
353.3	2.29	1.72

System: 1-heptyne + 1-ethylpyridinium bis[(trifluoromethyl)sulfonyl]imide; phases: Liquid
Fixed: Pressure, kPa = 101
Fixed: Mole fraction of 1-heptyne = 0
Property: Activity coefficient of 1-heptyne (Liquid); method: Chromatography
Temperature, K	Activity coefficient of 1-heptyne	uncertainty
302.5	8.41	6.31
313.2	7.96	5.98
323	7.5	5.63
333	7.06	5.3
342.9	6.53	4.9
353	5.92	4.44

System: 1-heptyne + 1-butylpyridinium bis[(trifluoromethyl)sulfonyl]imide; phases: Liquid
Fixed: Pressure, kPa = 101
Fixed: Mole fraction of 1-heptyne = 0
Property: Activity coefficient of 1-heptyne (Liquid); method: Chromatography
Temperature, K	Activity coefficient of 1-heptyne	uncertainty
302.8	5.63	4.23
313.3	5.49	4.12
323.2	5.29	3.97
333.1	5.03	3.78
343.1	4.79	3.6
353.1	4.58	3.44

System: 1-heptyne + 1-pentylpyridinium bis(trifluoromethylsulfonyl)amide; phases: Liquid
Fixed: Pressure, kPa = 101
Fixed: Mole fraction of 1-heptyne = 0
Property: Activity coefficient of 1-heptyne (Liquid); method: Chromatography
Temperature, K	Activity coefficient of 1-heptyne	uncertainty
302.8	4.17	3.13
313.6	4	3
323.4	3.87	2.91
333.3	3.74	2.81
343.3	3.58	2.69
353.3	3.42	2.57

System: 1-octyne + 1-ethylpyridinium bis[(trifluoromethyl)sulfonyl]imide; phases: Liquid
Fixed: Pressure, kPa = 101
Fixed: Mole fraction of 1-octyne = 0
Property: Activity coefficient of 1-octyne (Liquid); method: Chromatography
Temperature, K	Activity coefficient of 1-octyne	uncertainty
302.5	12.94	9.71
313.2	12.35	9.27
323	11.78	8.84
333	11.08	8.32
342.9	10.4	7.81
353	9.74	7.31

System: 1-octyne + 1-butylpyridinium bis[(trifluoromethyl)sulfonyl]imide; phases: Liquid
Fixed: Pressure, kPa = 101
Fixed: Mole fraction of 1-octyne = 0
Property: Activity coefficient of 1-octyne (Liquid); method: Chromatography
Temperature, K	Activity coefficient of 1-octyne	uncertainty
302.6	8.1	6.08
313.4	7.82	5.87
323.2	7.6	5.71
333.1	7.34	5.51
343.1	7.05	5.29
353.1	6.8	5.1

System: 1-octyne + 1-pentylpyridinium bis(trifluoromethylsulfonyl)amide; phases: Liquid
Fixed: Pressure, kPa = 101
Fixed: Mole fraction of 1-octyne = 0
Property: Activity coefficient of 1-octyne (Liquid); method: Chromatography
Temperature, K	Activity coefficient of 1-octyne	uncertainty
302.8	5.62	4.22
313.6	5.47	4.11
323.4	5.34	4.01
333.3	5.22	3.92
343.4	5.07	3.81
353.3	4.94	3.71

System: benzene + 1-ethylpyridinium bis[(trifluoromethyl)sulfonyl]imide; phases: Liquid
Fixed: Pressure, kPa = 101
Fixed: Mole fraction of benzene = 0
Property: Activity coefficient of benzene (Liquid); method: Chromatography
Temperature, K	Activity coefficient of benzene	uncertainty
302.6	1.5	1.13
313	1.49	1.12
323.2	1.47	1.1
333.1	1.43	1.07
343	1.39	1.04
353.1	1.36	1.02

System: benzene + 1-butylpyridinium bis[(trifluoromethyl)sulfonyl]imide; phases: Liquid
Fixed: Pressure, kPa = 101
Fixed: Mole fraction of benzene = 0
Property: Activity coefficient of benzene (Liquid); method: Chromatography
Temperature, K	Activity coefficient of benzene	uncertainty
302.8	1.33	1
312.6	1.34	1.01
323.2	1.35	1.01
333.2	1.35	1.01
343.1	1.35	1.01
353.3	1.36	1.02

System: benzene + 1-pentylpyridinium bis(trifluoromethylsulfonyl)amide; phases: Liquid
Fixed: Pressure, kPa = 101
Fixed: Mole fraction of benzene = 0
Property: Activity coefficient of benzene (Liquid); method: Chromatography
Temperature, K	Activity coefficient of benzene	uncertainty
303.2	0.98	0.74
312.6	0.99	0.74
323.2	1.01	0.76
333.1	1.02	0.77
343.3	1.03	0.77
353.5	1.04	0.78

System: toluene + 1-ethylpyridinium bis[(trifluoromethyl)sulfonyl]imide; phases: Liquid
Fixed: Pressure, kPa = 101
Fixed: Mole fraction of toluene = 0
Property: Activity coefficient of toluene (Liquid); method: Chromatography
Temperature, K	Activity coefficient of toluene	uncertainty
303.6	2.08	1.56
313.1	2.09	1.57
323.2	2.1	1.58
333.2	2.11	1.58
343	2.12	1.59
353.3	2.13	1.6

System: toluene + 1-butylpyridinium bis[(trifluoromethyl)sulfonyl]imide; phases: Liquid
Fixed: Pressure, kPa = 101
Fixed: Mole fraction of toluene = 0
Property: Activity coefficient of toluene (Liquid); method: Chromatography
Temperature, K	Activity coefficient of toluene	uncertainty
302.8	1.8	1.35
312.6	1.82	1.37
323.3	1.83	1.37
333.2	1.83	1.37
343.2	1.85	1.39
353.3	1.86	1.4

System: toluene + 1-pentylpyridinium bis(trifluoromethylsulfonyl)amide; phases: Liquid
Fixed: Pressure, kPa = 101
Fixed: Mole fraction of toluene = 0
Property: Activity coefficient of toluene (Liquid); method: Chromatography
Temperature, K	Activity coefficient of toluene	uncertainty
303.1	1.28	0.96
312.8	1.3	0.98
323.3	1.33	1
333.3	1.34	1.01
343.3	1.36	1.02
353.5	1.36	1.02

System: ethylbenzene + 1-ethylpyridinium bis[(trifluoromethyl)sulfonyl]imide; phases: Liquid
Fixed: Pressure, kPa = 101
Fixed: Mole fraction of ethylbenzene = 0
Property: Activity coefficient of ethylbenzene (Liquid); method: Chromatography
Temperature, K	Activity coefficient of ethylbenzene	uncertainty
303.4	3.34	2.51
313.1	3.36	2.52
323.2	3.37	2.53
333.1	3.39	2.54
343	3.4	2.55
353.1	3.41	2.56

System: ethylbenzene + 1-butylpyridinium bis[(trifluoromethyl)sulfonyl]imide; phases: Liquid
Fixed: Pressure, kPa = 101
Fixed: Mole fraction of ethylbenzene = 0
Property: Activity coefficient of ethylbenzene (Liquid); method: Chromatography
Temperature, K	Activity coefficient of ethylbenzene	uncertainty
302.8	2.74	2.06
312.6	2.75	2.06
323.3	2.77	2.08
333.2	2.77	2.08
343.2	2.78	2.09
353.3	2.78	2.09

System: ethylbenzene + 1-pentylpyridinium bis(trifluoromethylsulfonyl)amide; phases: Liquid
Fixed: Pressure, kPa = 101
Fixed: Mole fraction of ethylbenzene = 0
Property: Activity coefficient of ethylbenzene (Liquid); method: Chromatography
Temperature, K	Activity coefficient of ethylbenzene	uncertainty
303.1	1.93	1.45
312.8	1.95	1.46
323.4	1.96	1.47
333.4	1.98	1.49
343.3	1.99	1.49
353.5	2	1.5

System: 1,2-dimethylbenzene + 1-ethylpyridinium bis[(trifluoromethyl)sulfonyl]imide; phases: Liquid
Fixed: Pressure, kPa = 101
Fixed: Mole fraction of 1,2-dimethylbenzene = 0
Property: Activity coefficient of 1,2-dimethylbenzene (Liquid); method: Chromatography
Temperature, K	Activity coefficient of 1,2-dimethylbenzene	uncertainty
303.1	2.66	2
313.2	2.67	2
323.3	2.68	2.01
333.1	2.7	2.03
343.1	2.7	2.03
353.1	2.71	2.03

System: 1,2-dimethylbenzene + 1-butylpyridinium bis[(trifluoromethyl)sulfonyl]imide; phases: Liquid
Fixed: Pressure, kPa = 101
Fixed: Mole fraction of 1,2-dimethylbenzene = 0
Property: Activity coefficient of 1,2-dimethylbenzene (Liquid); method: Chromatography
Temperature, K	Activity coefficient of 1,2-dimethylbenzene	uncertainty
302.8	2.22	1.67
312.5	2.25	1.69
323.3	2.26	1.7
333.3	2.28	1.71
343.2	2.28	1.71
353.2	2.3	1.73

System: 1,2-dimethylbenzene + 1-pentylpyridinium bis(trifluoromethylsulfonyl)amide; phases: Liquid
Fixed: Pressure, kPa = 101
Fixed: Mole fraction of 1,2-dimethylbenzene = 0
Property: Activity coefficient of 1,2-dimethylbenzene (Liquid); method: Chromatography
Temperature, K	Activity coefficient of 1,2-dimethylbenzene	uncertainty
303.1	1.57	1.18
312.8	1.61	1.21
323.4	1.63	1.22
333.4	1.65	1.24
343.3	1.66	1.25
353.5	1.69	1.27

System: 1,3-dimethylbenzene + 1-ethylpyridinium bis[(trifluoromethyl)sulfonyl]imide; phases: Liquid
Fixed: Pressure, kPa = 101
Fixed: Mole fraction of 1,3-dimethylbenzene = 0
Property: Activity coefficient of 1,3-dimethylbenzene (Liquid); method: Chromatography
Temperature, K	Activity coefficient of 1,3-dimethylbenzene	uncertainty
302.8	3.07	2.3
313.2	3.09	2.32
323.2	3.1	2.33
333.1	3.11	2.33
343	3.12	2.34
353.1	3.13	2.35

System: 1,3-dimethylbenzene + 1-butylpyridinium bis[(trifluoromethyl)sulfonyl]imide; phases: Liquid
Fixed: Pressure, kPa = 101
Fixed: Mole fraction of 1,3-dimethylbenzene = 0
Property: Activity coefficient of 1,3-dimethylbenzene (Liquid); method: Chromatography
Temperature, K	Activity coefficient of 1,3-dimethylbenzene	uncertainty
302.8	2.47	1.85
312.5	2.49	1.87
323.3	2.5	1.88
333.3	2.51	1.88
343.1	2.52	1.89
353.3	2.53	1.9

System: 1,3-dimethylbenzene + 1-pentylpyridinium bis(trifluoromethylsulfonyl)amide; phases: Liquid
Fixed: Pressure, kPa = 101
Fixed: Mole fraction of 1,3-dimethylbenzene = 0
Property: Activity coefficient of 1,3-dimethylbenzene (Liquid); method: Chromatography
Temperature, K	Activity coefficient of 1,3-dimethylbenzene	uncertainty
303	1.76	1.32
312.8	1.8	1.35
323.5	1.81	1.36
333.4	1.84	1.38
343.3	1.87	1.4
353.3	1.91	1.43

System: 1,4-dimethylbenzene + 1-ethylpyridinium bis[(trifluoromethyl)sulfonyl]imide; phases: Liquid
Fixed: Pressure, kPa = 101
Fixed: Mole fraction of 1,4-dimethylbenzene = 0
Property: Activity coefficient of 1,4-dimethylbenzene (Liquid); method: Chromatography
Temperature, K	Activity coefficient of 1,4-dimethylbenzene	uncertainty
302.6	3.04	2.28
313.3	3.05	2.29
323.2	3.07	2.3
333.1	3.08	2.31
343	3.09	2.32
353.1	3.11	2.33

System: 1,4-dimethylbenzene + 1-butylpyridinium bis[(trifluoromethyl)sulfonyl]imide; phases: Liquid
Fixed: Pressure, kPa = 101
Fixed: Mole fraction of 1,4-dimethylbenzene = 0
Property: Activity coefficient of 1,4-dimethylbenzene (Liquid); method: Chromatography
Temperature, K	Activity coefficient of 1,4-dimethylbenzene	uncertainty
302.8	2.45	1.84
312.5	2.48	1.86
323.3	2.49	1.87
333.3	2.52	1.89
343.1	2.54	1.91
353.3	2.54	1.91

System: 1,4-dimethylbenzene + 1-pentylpyridinium bis(trifluoromethylsulfonyl)amide; phases: Liquid
Fixed: Pressure, kPa = 101
Fixed: Mole fraction of 1,4-dimethylbenzene = 0
Property: Activity coefficient of 1,4-dimethylbenzene (Liquid); method: Chromatography
Temperature, K	Activity coefficient of 1,4-dimethylbenzene	uncertainty
303.1	1.74	1.31
312.7	1.79	1.34
323.5	1.81	1.36
333.4	1.84	1.38
343.3	1.87	1.4
353.3	1.91	1.43

System: methanol + 1-ethylpyridinium bis[(trifluoromethyl)sulfonyl]imide; phases: Liquid
Fixed: Pressure, kPa = 101
Fixed: Mole fraction of methanol = 0
Property: Activity coefficient of methanol (Liquid); method: Chromatography
Temperature, K	Activity coefficient of methanol	uncertainty
302.5	1.86	1.4
313.1	1.69	1.27
323	1.53	1.15
332.9	1.38	1.04
342.9	1.26	0.95
353	1.13	0.85

System: methanol + 1-butylpyridinium bis[(trifluoromethyl)sulfonyl]imide; phases: Liquid
Fixed: Pressure, kPa = 101
Fixed: Mole fraction of methanol = 0
Property: Activity coefficient of methanol (Liquid); method: Chromatography
Temperature, K	Activity coefficient of methanol	uncertainty
302.7	2	1.5
313.4	1.73	1.3
323.1	1.56	1.17
333.1	1.39	1.04
343.1	1.25	0.94
353.3	1.12	0.84

System: methanol + 1-pentylpyridinium bis(trifluoromethylsulfonyl)amide; phases: Liquid
Fixed: Pressure, kPa = 101
Fixed: Mole fraction of methanol = 0
Property: Activity coefficient of methanol (Liquid); method: Chromatography
Temperature, K	Activity coefficient of methanol	uncertainty
302.8	1.62	1.22
313.5	1.46	1.1
323.4	1.31	0.98
333.3	1.18	0.89
343.2	1.06	0.8
353.4	0.94	0.71

System: ethanol + 1-ethylpyridinium bis[(trifluoromethyl)sulfonyl]imide; phases: Liquid
Fixed: Pressure, kPa = 101
Fixed: Mole fraction of ethanol = 0
Property: Activity coefficient of ethanol (Liquid); method: Chromatography
Temperature, K	Activity coefficient of ethanol	uncertainty
302.5	2.63	1.97
313.1	2.36	1.77
323	2.13	1.6
332.9	1.91	1.43
342.9	1.71	1.28
353	1.54	1.16

System: ethanol + 1-butylpyridinium bis[(trifluoromethyl)sulfonyl]imide; phases: Liquid
Fixed: Pressure, kPa = 101
Fixed: Mole fraction of ethanol = 0
Property: Activity coefficient of ethanol (Liquid); method: Chromatography
Temperature, K	Activity coefficient of ethanol	uncertainty
302.5	2.67	2
313.4	2.26	1.7
323.1	2.02	1.52
333.1	1.8	1.35
343.1	1.61	1.21
352.9	1.45	1.09

System: ethanol + 1-pentylpyridinium bis(trifluoromethylsulfonyl)amide; phases: Liquid
Fixed: Pressure, kPa = 101
Fixed: Mole fraction of ethanol = 0
Property: Activity coefficient of ethanol (Liquid); method: Chromatography
Temperature, K	Activity coefficient of ethanol	uncertainty
302.8	2.09	1.57
313.5	1.86	1.4
323.4	1.67	1.25
333.3	1.5	1.13
343.2	1.35	1.01
353.4	1.19	0.89

System: propan-1-ol + 1-ethylpyridinium bis[(trifluoromethyl)sulfonyl]imide; phases: Liquid
Fixed: Pressure, kPa = 101
Fixed: Mole fraction of propan-1-ol = 0
Property: Activity coefficient of propan-1-ol (Liquid); method: Chromatography
Temperature, K	Activity coefficient of propan-1-ol	uncertainty
302.5	3.56	2.67
313.1	3.18	2.39
323	2.85	2.14
332.9	2.57	1.93
342.9	2.29	1.72
353	2.06	1.55

System: propan-1-ol + 1-butylpyridinium bis[(trifluoromethyl)sulfonyl]imide; phases: Liquid
Fixed: Pressure, kPa = 101
Fixed: Mole fraction of propan-1-ol = 0
Property: Activity coefficient of propan-1-ol (Liquid); method: Chromatography
Temperature, K	Activity coefficient of propan-1-ol	uncertainty
303.4	3.31	2.48
313.3	2.82	2.12
323.2	2.52	1.89
333.1	2.25	1.69
343.1	2.03	1.52
353	1.84	1.38

System: propan-1-ol + 1-pentylpyridinium bis(trifluoromethylsulfonyl)amide; phases: Liquid
Fixed: Pressure, kPa = 101
Fixed: Mole fraction of propan-1-ol = 0
Property: Activity coefficient of propan-1-ol (Liquid); method: Chromatography
Temperature, K	Activity coefficient of propan-1-ol	uncertainty
302.8	2.53	1.9
313.6	2.23	1.67
323.4	2.02	1.52
333.3	1.84	1.38
343.3	1.65	1.24
353.3	1.49	1.12
