Measured thermophysical data. The structure and diffusion behaviour of the neurotransmitter gamma-aminobutyric acid (GABA) in neutral aqueous solutions
Source: J. Chem. Thermodyn., 2017, 10.1016/j.jct.2016.09.014
Compound 1: 4-aminobutanoic acid, C4H9NO2, InChI=1S/C4H9NO2/c5-3-1-2-4(6)7/h1-3,5H2,(H,6,7), purity 99%
Compound 2: water, H2O, InChI=1S/H2O/h1H2, purity 99.8%

System: water; phases: Liquid
Property: Mass density, kg/m3 (Liquid); method: Vibrating tube method
Temperature, K	Pressure, kPa	Mass density, kg/m3	uncertainty
298.15	101.3	997.046	0.31

System: 4-aminobutanoic acid + water; phases: Liquid
Fixed: Temperature, K = 298.15
Fixed: Pressure, kPa = 101.3
Property: Mass density, kg/m3 (Liquid); method: Vibrating tube method
Molality, mol/kg of 4-aminobutanoic acid	Mass density, kg/m3	uncertainty
0.10165	1000.097	0.311
0.07297	999.113	0.309
0.06297	998.944	0.306
0.05427	998.687	0.311
0.03823	998.069	0.309
0.01968	997.658	0.307
0.01088	997.389	0.309
0.00833	997.308	0.31
0.00517	997.203	0.31
0.00467	997.199	0.31
0.00258	997.127	0.31
0.00106	997.083	0.31
0	997.046	0.31

System: 4-aminobutanoic acid + water; phases: Liquid
Fixed: Temperature, K = 298.15
Fixed: Pressure, kPa = 101.3
Property: Binary diffusion coefficient, m2/s (Liquid); method: Taylor dispersion method
Molality, mol/kg of 4-aminobutanoic acid	Binary diffusion coefficient, m2/s	uncertainty
0.001003	7.8e-10	0.031
0.005016	7.79e-10	0.048
0.01004	7.78e-10	0.057
0.02009	7.77e-10	0.02
0.03015	7.76e-10	0.02
0.05033	7.72e-10	0.039
0.101	7.65e-10	0.02
