Measured thermophysical data. Densities, viscosities, refractive indices, and electrical conductivities of aqueous alkali salts of .alpha.-alanine
Source: J. Chem. Thermodyn., 2014, 10.1016/j.jct.2014.05.014
Compound 1: potassium DL-alaninate, C3H6KNO2, InChI=1S/C3H7NO2.K/c1-2(4)3(5)6;/h2H,4H2,1H3,(H,5,6);/q;+1/p-1, purity 97%
Compound 2: sodium DL-alaninate, C3H6NNaO2, InChI=1S/C3H7NO2.Na/c1-2(4)3(5)6;/h2H,4H2,1H3,(H,5,6);/q;+1/p-1, purity 97%
Compound 3: water, H2O, InChI=1S/H2O/h1H2

System: water + potassium DL-alaninate; phases: Liquid
Fixed: Pressure, kPa = 101.3
Property: Mass density, kg/m3 (Liquid); method: Vibrating tube method
Amount concentration (molarity), mol/dm3 of potassium DL-alaninate	Temperature, K	Mass density, kg/m3	uncertainty
0.495	303.15	1024.1	1.6
1.014	303.15	1051.7	1.7
1.509	303.15	1078.7	1.8
1.954	303.15	1103.2	1.9
2.507	303.15	1131.4	2.1
2.988	303.15	1155.8	2.2
3.499	303.15	1181	2.4
0.495	308.15	1022.4	1.6
1.014	308.15	1049.8	1.7
1.509	308.15	1076.7	1.8
1.954	308.15	1101.1	1.9
2.507	308.15	1129.2	2.1
2.988	308.15	1153.4	2.2
3.499	308.15	1178.4	2.4
0.495	313.15	1020.5	1.6
1.014	313.15	1047.7	1.7
1.509	313.15	1074.5	1.8
1.954	313.15	1098.8	1.9
2.507	313.15	1126.8	2.1
2.988	313.15	1150.9	2.2
3.499	313.15	1175.8	2.4
0.495	318.15	1018.4	1.6
1.014	318.15	1045.6	1.7
1.509	318.15	1072.3	1.8
1.954	318.15	1096.5	1.9
2.507	318.15	1124.3	2.1
2.988	318.15	1148.3	2.2
3.499	318.15	1173.1	2.4
0.495	323.15	1016.2	1.6
1.014	323.15	1043.4	1.7
1.509	323.15	1069.9	1.8
1.954	323.15	1094.2	1.9
2.507	323.15	1121.8	2
2.988	323.15	1145.7	2.2
3.499	323.15	1170.3	2.4
0.495	328.15	1013.9	1.6
1.014	328.15	1041	1.7
1.509	328.15	1067.4	1.8
1.954	328.15	1091.5	1.9
2.507	328.15	1119	2
2.988	328.15	1143	2.2
3.499	328.15	1167.5	2.3
0.495	333.15	1011.5	1.6
1.014	333.15	1038.5	1.7
1.509	333.15	1064.9	1.8
1.954	333.15	1088.8	1.9
2.507	333.15	1116.3	2
2.988	333.15	1140.2	2.2
3.499	333.15	1164.6	2.3
0.495	338.15	1008.9	1.6
1.014	338.15	1035.9	1.7
1.509	338.15	1062.1	1.8
1.954	338.15	1086.1	1.9
2.507	338.15	1113.5	2
2.988	338.15	1137.3	2.2
3.499	338.15	1161.6	2.3
0.495	343.15	1006.3	1.6
1.014	343.15	1033.1	1.7
1.509	343.15	1059.4	1.8
1.954	343.15	1083.4	1.9
2.507	343.15	1110.5	2
2.988	343.15	1134.4	2.2
3.499	343.15	1158.6	2.3

System: water + potassium DL-alaninate; phases: Liquid
Fixed: Pressure, kPa = 101.3
Property: Viscosity, Pa*s (Liquid); method: Falling or rolling sphere viscometry
Temperature, K	Amount concentration (molarity), mol/dm3 of potassium DL-alaninate	Viscosity, Pa*s	uncertainty
303.15	0.514	0.000942	2e-05
303.15	1.029	0.001118	2.4e-05
303.15	1.524	0.001342	3e-05
303.15	1.999	0.0016	3.7e-05
303.15	2.522	0.001964	4.7e-05
303.15	3.048	0.002422	5.9e-05
308.15	0.514	0.000845	1.8e-05
308.15	1.029	0.001009	2.2e-05
308.15	1.524	0.001203	2.7e-05
308.15	1.999	0.001429	3.3e-05
308.15	2.522	0.001745	4.2e-05
308.15	3.048	0.002135	5.2e-05
313.15	0.514	0.000769	1.7e-05
313.15	1.029	0.000909	2e-05
313.15	1.524	0.001093	2.4e-05
313.15	1.999	0.00129	3e-05
313.15	2.522	0.001569	3.7e-05
313.15	3.048	0.001907	4.6e-05
318.15	0.514	0.000705	1.5e-05
318.15	1.029	0.00083	1.8e-05
318.15	1.524	0.001	2.2e-05
318.15	1.999	0.00117	2.7e-05
318.15	2.522	0.001426	3.4e-05
318.15	3.048	0.001712	4.1e-05
323.15	0.514	0.000644	1.4e-05
323.15	1.029	0.00076	1.7e-05
323.15	1.524	0.000922	2e-05
323.15	1.999	0.001069	2.4e-05
323.15	2.522	0.001301	3.1e-05
323.15	3.048	0.001549	3.7e-05
328.15	0.514	0.000596	1.3e-05
328.15	1.029	0.000703	1.5e-05
328.15	1.524	0.000854	1.9e-05
328.15	1.999	0.000985	2.2e-05
328.15	2.522	0.001201	2.8e-05
328.15	3.048	0.001413	3.3e-05
333.15	0.514	0.000547	1.2e-05
333.15	1.029	0.000649	1.4e-05
333.15	1.524	0.000799	1.8e-05
333.15	1.999	0.000902	2e-05
333.15	2.522	0.001104	2.6e-05
333.15	3.048	0.001286	3e-05
338.15	0.514	0.000507	1.1e-05
338.15	1.029	0.000602	1.3e-05
338.15	1.524	0.000742	1.6e-05
338.15	1.999	0.00083	1.9e-05
338.15	2.522	0.001015	2.4e-05
338.15	3.048	0.001176	2.7e-05
343.15	0.514	0.000475	1e-05
343.15	1.029	0.000563	1.2e-05
343.15	1.524	0.000693	1.5e-05
343.15	1.999	0.00077	1.7e-05
343.15	2.522	0.00094	2.2e-05
343.15	3.048	0.001087	2.5e-05

System: water + potassium DL-alaninate; phases: Liquid
Fixed: Pressure, kPa = 101.3
Property: Refractive index (Na D-line) (Liquid); method: Standard Abbe refractometry
Temperature, K	Amount concentration (molarity), mol/dm3 of potassium DL-alaninate	Refractive index (Na D-line)	uncertainty
303.15	0.526	1.3409	0.00033
303.15	1.009	1.34955	0.00037
303.15	1.501	1.35822	0.00042
303.15	2.005	1.36647	0.00048
303.15	2.501	1.37461	0.00055
303.15	2.986	1.38281	0.0006
303.15	3.498	1.39058	0.00065
308.15	0.526	1.34021	0.00033
308.15	1.009	1.3488	0.00037
308.15	1.501	1.35743	0.00042
308.15	2.005	1.36566	0.00048
308.15	2.501	1.37375	0.00055
308.15	2.986	1.38192	0.0006
308.15	3.498	1.38964	0.00065
313.15	0.526	1.33947	0.00033
313.15	1.009	1.34802	0.00037
313.15	1.501	1.35661	0.00042
313.15	2.005	1.36481	0.00048
313.15	2.501	1.37285	0.00054
313.15	2.986	1.38098	0.0006
313.15	3.498	1.3887	0.00065
318.15	0.526	1.33867	0.00033
318.15	1.009	1.3472	0.00037
318.15	1.501	1.35576	0.00042
318.15	2.005	1.36391	0.00047
318.15	2.501	1.37195	0.00054
318.15	2.986	1.38002	0.0006
318.15	3.498	1.38775	0.00065
323.15	0.526	1.33782	0.00033
323.15	1.009	1.34634	0.00037
323.15	1.501	1.35486	0.00042
323.15	2.005	1.363	0.00047
323.15	2.501	1.37103	0.00054
323.15	2.986	1.37908	0.0006
323.15	3.498	1.38677	0.00065
328.15	0.526	1.33692	0.00033
328.15	1.009	1.34542	0.00037
328.15	1.501	1.35394	0.00042
328.15	2.005	1.36206	0.00047
328.15	2.501	1.37004	0.00054
328.15	2.986	1.37809	0.0006
328.15	3.498	1.38576	0.00064
333.15	0.526	1.33599	0.00033
333.15	1.009	1.34446	0.00037
333.15	1.501	1.35299	0.00042
333.15	2.005	1.3611	0.00047
333.15	2.501	1.36904	0.00054
333.15	2.986	1.3771	0.00059
333.15	3.498	1.38471	0.00064
338.15	0.526	1.335	0.00033
338.15	1.009	1.34349	0.00037
338.15	1.501	1.352	0.00042
338.15	2.005	1.3601	0.00047
338.15	2.501	1.36803	0.00054
338.15	2.986	1.3761	0.00059
338.15	3.498	1.38364	0.00064
343.15	0.526	1.33402	0.00033
343.15	1.009	1.34248	0.00037
343.15	1.501	1.35098	0.00042
343.15	2.005	1.3591	0.00047
343.15	2.501	1.36701	0.00054
343.15	2.986	1.37507	0.00059
343.15	3.498	1.38259	0.00064

System: water + potassium DL-alaninate; phases: Liquid
Fixed: Pressure, kPa = 101.3
Property: Electrical conductivity, S/m (Liquid); method: Alternating current cell with electrodes
Temperature, K	Amount concentration (molarity), mol/dm3 of potassium DL-alaninate	Electrical conductivity, S/m	uncertainty
303.15	0.526	3.96	0.08
303.15	1.009	6.63	0.14
303.15	1.499	8.42	0.17
303.15	2.018	9.49	0.19
303.15	2.501	9.88	0.2
303.15	3.046	9.87	0.2
303.15	3.497	9.58	0.19
308.15	0.526	4.34	0.09
308.15	1.009	7.25	0.15
308.15	1.499	9.18	0.19
308.15	2.018	10.36	0.21
308.15	2.501	10.84	0.22
308.15	3.046	10.87	0.22
308.15	3.497	10.59	0.21
313.15	0.526	4.73	0.1
313.15	1.009	7.84	0.17
313.15	1.499	9.94	0.2
313.15	2.018	11.19	0.23
313.15	2.501	11.77	0.24
313.15	3.046	11.85	0.24
313.15	3.497	11.6	0.23
318.15	0.526	5.12	0.11
318.15	1.009	8.45	0.18
318.15	1.499	10.72	0.22
318.15	2.018	12.06	0.24
318.15	2.501	12.72	0.26
318.15	3.046	12.85	0.26
318.15	3.497	12.61	0.25
323.15	0.526	5.5	0.12
323.15	1.009	9.06	0.19
323.15	1.499	11.48	0.24
323.15	2.018	12.94	0.26
323.15	2.501	13.66	0.27
323.15	3.046	13.89	0.28
323.15	3.497	13.66	0.27
328.15	0.526	5.89	0.12
328.15	1.009	9.68	0.2
328.15	1.499	12.25	0.25
328.15	2.018	13.81	0.28
328.15	2.501	14.61	0.29
328.15	3.046	14.87	0.3
328.15	3.497	14.7	0.29
333.15	0.526	6.27	0.13
333.15	1.009	10.26	0.22
333.15	1.499	13.02	0.27
333.15	2.018	14.62	0.3
333.15	2.501	15.54	0.31
333.15	3.046	15.85	0.32
333.15	3.497	15.71	0.31
338.15	0.526	6.64	0.14
338.15	1.009	10.85	0.23
338.15	1.499	13.75	0.28
338.15	2.018	15.46	0.31
338.15	2.501	16.44	0.33
338.15	3.046	16.83	0.34
338.15	3.497	16.73	0.33
343.15	0.526	7.02	0.15
343.15	1.009	11.45	0.24
343.15	1.499	14.47	0.3
343.15	2.018	16.28	0.33
343.15	2.501	17.38	0.35
343.15	3.046	17.79	0.36
343.15	3.497	17.73	0.35

System: water + sodium DL-alaninate; phases: Liquid
Fixed: Pressure, kPa = 101.3
Property: Mass density, kg/m3 (Liquid); method: Vibrating tube method
Temperature, K	Amount concentration (molarity), mol/dm3 of sodium DL-alaninate	Mass density, kg/m3	uncertainty
303.15	0.498	1021.4	1.6
303.15	0.985	1045.4	1.7
303.15	1.495	1069	1.7
303.15	1.975	1090.8	1.8
303.15	2.467	1113.1	2
303.15	3.063	1139.4	2.1
308.15	0.498	1019.6	1.6
308.15	0.985	1043.4	1.7
308.15	1.495	1066.9	1.7
308.15	1.975	1088.5	1.8
308.15	2.467	1110.7	2
308.15	3.063	1136.8	2.1
313.15	0.498	1017.7	1.6
313.15	0.985	1041.4	1.7
313.15	1.495	1064.7	1.7
313.15	1.975	1086.1	1.8
313.15	2.467	1108.2	1.9
313.15	3.063	1134	2.1
318.15	0.498	1015.7	1.6
318.15	0.985	1039.3	1.7
318.15	1.495	1062.3	1.7
318.15	1.975	1083.7	1.8
318.15	2.467	1105.5	1.9
318.15	3.063	1131.3	2.1
323.15	0.498	1013.4	1.6
323.15	0.985	1036.9	1.7
323.15	1.495	1059.8	1.7
323.15	1.975	1081.1	1.8
323.15	2.467	1102.8	1.9
323.15	3.063	1128.4	2.1
328.15	0.498	1011.1	1.6
328.15	0.985	1034.5	1.7
328.15	1.495	1057.3	1.7
328.15	1.975	1078.4	1.8
328.15	2.467	1100.2	1.9
328.15	3.063	1125.4	2.1
333.15	0.498	1008.7	1.6
333.15	0.985	1032	1.7
333.15	1.495	1054.6	1.7
333.15	1.975	1075.7	1.8
333.15	2.467	1097.2	1.9
333.15	3.063	1122.4	2.1
338.15	0.498	1006	1.6
338.15	0.985	1029.3	1.7
338.15	1.495	1051.8	1.7
338.15	1.975	1072.9	1.8
338.15	2.467	1094.3	1.9
338.15	3.063	1119.4	2.1
343.15	0.498	1003.1	1.6
343.15	0.985	1026.4	1.7
343.15	1.495	1049	1.7
343.15	1.975	1069.9	1.8
343.15	2.467	1091.2	1.9
343.15	3.063	1116.2	2.1

System: water + sodium DL-alaninate; phases: Liquid
Fixed: Pressure, kPa = 101.3
Property: Viscosity, Pa*s (Liquid); method: Falling or rolling sphere viscometry
Temperature, K	Amount concentration (molarity), mol/dm3 of sodium DL-alaninate	Viscosity, Pa*s	uncertainty
303.15	0.478	0.00098	2.1e-05
303.15	0.994	0.001232	2.7e-05
303.15	1.495	0.001579	3.6e-05
303.15	1.975	0.002011	4.9e-05
303.15	2.496	0.002683	7.1e-05
303.15	3.032	0.003708	0.0001
308.15	0.478	0.000877	1.9e-05
308.15	0.994	0.001099	2.4e-05
308.15	1.495	0.001423	3.2e-05
308.15	1.975	0.001771	4.2e-05
308.15	2.496	0.002341	6.1e-05
308.15	3.032	0.003187	8.6e-05
313.15	0.478	0.000796	1.7e-05
313.15	0.994	0.000991	2.2e-05
313.15	1.495	0.001243	2.8e-05
313.15	1.975	0.001574	3.8e-05
313.15	2.496	0.00206	5.3e-05
313.15	3.032	0.002765	7.3e-05
318.15	0.478	0.000721	1.6e-05
318.15	0.994	0.000895	2e-05
318.15	1.495	0.001122	2.5e-05
318.15	1.975	0.001405	3.3e-05
318.15	2.496	0.001821	4.6e-05
318.15	3.032	0.002426	6.4e-05
323.15	0.478	0.000661	1.4e-05
323.15	0.994	0.000817	1.8e-05
323.15	1.495	0.001014	2.3e-05
323.15	1.975	0.001268	3e-05
323.15	2.496	0.001629	4.1e-05
323.15	3.032	0.002146	5.6e-05
328.15	0.478	0.000606	1.3e-05
328.15	0.994	0.00075	1.6e-05
328.15	1.495	0.000924	2.1e-05
328.15	1.975	0.001148	2.7e-05
328.15	2.496	0.001467	3.7e-05
328.15	3.032	0.001912	4.9e-05
333.15	0.478	0.000559	1.2e-05
333.15	0.994	0.000687	1.5e-05
333.15	1.495	0.000847	1.9e-05
333.15	1.975	0.001047	2.5e-05
333.15	2.496	0.001326	3.3e-05
333.15	3.032	0.001718	4.4e-05
338.15	0.478	0.00052	1.1e-05
338.15	0.994	0.000638	1.4e-05
338.15	1.495	0.000778	1.7e-05
338.15	1.975	0.00096	2.2e-05
338.15	2.496	0.001206	3e-05
338.15	3.032	0.001546	3.9e-05
343.15	0.478	0.000484	1e-05
343.15	0.994	0.000591	1.3e-05
343.15	1.495	0.000729	1.6e-05
343.15	1.975	0.000881	2e-05
343.15	2.496	0.001102	2.7e-05
343.15	3.032	0.001408	3.5e-05

System: water + sodium DL-alaninate; phases: Liquid
Fixed: Pressure, kPa = 101.3
Property: Refractive index (Na D-line) (Liquid); method: Standard Abbe refractometry
Temperature, K	Amount concentration (molarity), mol/dm3 of sodium DL-alaninate	Refractive index (Na D-line)	uncertainty
303.15	0.498	1.3409	0.00033
303.15	0.99	1.34952	0.00037
303.15	1.485	1.35799	0.00042
303.15	1.983	1.3663	0.00047
303.15	2.476	1.37433	0.00053
303.15	3.063	1.38382	0.00061
308.15	0.498	1.34021	0.00033
308.15	0.99	1.34876	0.00037
308.15	1.485	1.35719	0.00042
308.15	1.983	1.36544	0.00047
308.15	2.476	1.37341	0.00053
308.15	3.063	1.38284	0.00061
313.15	0.498	1.33945	0.00033
313.15	0.99	1.34796	0.00037
313.15	1.485	1.35636	0.00041
313.15	1.983	1.36454	0.00047
313.15	2.476	1.37246	0.00053
313.15	3.063	1.3818	0.00061
318.15	0.498	1.33864	0.00033
318.15	0.99	1.34712	0.00037
318.15	1.485	1.35547	0.00041
318.15	1.983	1.36361	0.00047
318.15	2.476	1.37149	0.00053
318.15	3.063	1.38074	0.0006
323.15	0.498	1.33778	0.00033
323.15	0.99	1.34624	0.00037
323.15	1.485	1.35455	0.00041
323.15	1.983	1.36264	0.00047
323.15	2.476	1.37049	0.00052
323.15	3.063	1.3797	0.0006
328.15	0.498	1.33688	0.00033
328.15	0.99	1.34528	0.00037
328.15	1.485	1.35358	0.00041
328.15	1.983	1.36164	0.00047
328.15	2.476	1.36949	0.00052
328.15	3.063	1.37866	0.0006
333.15	0.498	1.33592	0.00033
333.15	0.99	1.34432	0.00037
333.15	1.485	1.35259	0.00041
333.15	1.983	1.36061	0.00047
333.15	2.476	1.36845	0.00052
333.15	3.063	1.37755	0.0006
338.15	0.498	1.3349	0.00033
338.15	0.99	1.34333	0.00036
338.15	1.485	1.35156	0.00041
338.15	1.983	1.35958	0.00046
338.15	2.476	1.36735	0.00052
338.15	3.063	1.37643	0.0006
343.15	0.498	1.33388	0.00033
343.15	0.99	1.34232	0.00036
343.15	1.485	1.35053	0.00041
343.15	1.983	1.35853	0.00046
343.15	2.476	1.36627	0.00052
343.15	3.063	1.37534	0.00059

System: water + sodium DL-alaninate; phases: Liquid
Fixed: Pressure, kPa = 101.3
Property: Electrical conductivity, S/m (Liquid); method: Alternating current cell with electrodes
Temperature, K	Amount concentration (molarity), mol/dm3 of sodium DL-alaninate	Electrical conductivity, S/m	uncertainty
303.15	0.498	2.82	0.06
303.15	0.99	4.45	0.09
303.15	1.485	5.36	0.11
303.15	1.983	5.78	0.12
303.15	2.476	5.77	0.12
303.15	3.048	5.43	0.11
308.15	0.498	3.11	0.07
308.15	0.99	4.92	0.1
308.15	1.485	5.94	0.12
308.15	1.983	6.45	0.13
308.15	2.476	6.48	0.13
308.15	3.048	6.17	0.12
313.15	0.498	3.42	0.07
313.15	0.99	5.41	0.11
313.15	1.485	6.54	0.13
313.15	1.983	7.13	0.14
313.15	2.476	7.22	0.14
313.15	3.048	6.94	0.14
318.15	0.498	3.72	0.08
318.15	0.99	5.89	0.12
318.15	1.485	7.14	0.15
318.15	1.983	7.82	0.16
318.15	2.476	7.98	0.16
318.15	3.048	7.72	0.16
323.15	0.498	4.04	0.08
323.15	0.99	6.38	0.13
323.15	1.485	7.76	0.16
323.15	1.983	8.52	0.17
323.15	2.476	8.73	0.17
323.15	3.048	8.52	0.17
328.15	0.498	4.37	0.09
328.15	0.99	6.87	0.14
328.15	1.485	8.38	0.17
328.15	1.983	9.22	0.19
328.15	2.476	9.5	0.19
328.15	3.048	9.33	0.19
333.15	0.498	4.68	0.1
333.15	0.99	7.37	0.15
333.15	1.485	8.99	0.18
333.15	1.983	9.93	0.2
333.15	2.476	10.26	0.21
333.15	3.048	10.14	0.2
338.15	0.498	5.01	0.1
338.15	0.99	7.87	0.16
338.15	1.485	9.62	0.2
338.15	1.983	10.65	0.21
338.15	2.476	11.03	0.22
338.15	3.048	10.96	0.22
343.15	0.498	5.34	0.11
343.15	0.99	8.38	0.17
343.15	1.485	10.23	0.21
343.15	1.983	11.33	0.23
343.15	2.476	11.8	0.24
343.15	3.048	11.79	0.24
