Measured thermophysical data. Thermodynamic modelling for solubility of 4-nitrobenzaldehyde in different solvents at temperature range from (273.15 to 313.15) K and mixing properties of solutions
Source: J. Chem. Thermodyn., 2017, 10.1016/j.jct.2016.09.012
Compound 1: 4-nitrobenzaldehyde, C7H5NO3, InChI=1S/C7H5NO3/c9-5-6-1-3-7(4-2-6)8(10)11/h1-5H, purity 98.2%
Compound 2: methanol, CH4O, InChI=1S/CH4O/c1-2/h2H,1H3, purity 99.7%
Compound 3: ethanol, C2H6O, InChI=1S/C2H6O/c1-2-3/h3H,2H2,1H3, purity 99.5%
Compound 4: propan-2-ol, C3H8O, InChI=1S/C3H8O/c1-3(2)4/h3-4H,1-2H3, purity 99.4%
Compound 5: butan-1-ol, C4H10O, InChI=1S/C4H10O/c1-2-3-4-5/h5H,2-4H2,1H3, purity 99.5%
Compound 6: acetone, C3H6O, InChI=1S/C3H6O/c1-3(2)4/h1-2H3, purity 99.4%
Compound 7: ethyl acetate, C4H8O2, InChI=1S/C4H8O2/c1-3-6-4(2)5/h3H2,1-2H3, purity 99.6%
Compound 8: acetonitrile, C2H3N, InChI=1S/C2H3N/c1-2-3/h1H3, purity 99.6%
Compound 9: toluene, C7H8, InChI=1S/C7H8/c1-7-5-3-2-4-6-7/h2-6H,1H3, purity 99.3%
Compound 10: dimethylformamide, C3H7NO, InChI=1S/C3H7NO/c1-4(2)3-5/h3H,1-2H3, purity 99.4%
Compound 11: propan-1-ol, C3H8O, InChI=1S/C3H8O/c1-2-3-4/h4H,2-3H2,1H3, purity 99.3%
Compound 12: butanone, C4H8O, InChI=1S/C4H8O/c1-3-4(2)5/h3H2,1-2H3, purity 99.5%

System: 4-nitrobenzaldehyde; phases: Crystal, Liquid, Air at 1 atmosphere
Property: Normal melting temperature, K (Crystal); method: DTA
Normal melting temperature, K	uncertainty
380.35	1.06

System: 4-nitrobenzaldehyde; phases: Crystal, Liquid, Air at 1 atmosphere
Property: Molar enthalpy of transition or fusion, kJ/mol (Crystal); method: DSC
Molar enthalpy of transition or fusion, kJ/mol	uncertainty
25.1	1.04

System: methanol + 4-nitrobenzaldehyde; phases: Liquid, Crystal
Fixed: Pressure, kPa = 101.1
Property: Mole fraction of 4-nitrobenzaldehyde (Liquid); method: Chromatography
Temperature, K	Mole fraction of 4-nitrobenzaldehyde	uncertainty
273.15	0.02629	0.00126
278.15	0.03229	0.00155
283.15	0.03983	0.00191
288.15	0.04885	0.00235
293.15	0.05962	0.00287
298.15	0.07308	0.00351
303.15	0.08837	0.00425
308.15	0.1076	0.0052
313.15	0.1304	0.0063

System: ethanol + 4-nitrobenzaldehyde; phases: Liquid, Crystal
Fixed: Pressure, kPa = 101.1
Property: Mole fraction of 4-nitrobenzaldehyde (Liquid); method: Chromatography
Temperature, K	Mole fraction of 4-nitrobenzaldehyde	uncertainty
273.15	0.0151	0.00073
278.15	0.01767	0.00085
283.15	0.01993	0.00096
288.15	0.0232	0.00112
293.15	0.02649	0.00127
298.15	0.03101	0.00149
303.15	0.03656	0.00176
308.15	0.04221	0.00203
313.15	0.0498	0.00239

System: propan-2-ol + 4-nitrobenzaldehyde; phases: Liquid, Crystal
Fixed: Pressure, kPa = 101.1
Property: Mole fraction of 4-nitrobenzaldehyde (Liquid); method: Chromatography
Temperature, K	Mole fraction of 4-nitrobenzaldehyde	uncertainty
273.15	0.003263	0.000157
278.15	0.003989	0.000192
283.15	0.004512	0.000217
288.15	0.005001	0.00024
293.15	0.005889	0.000283
298.15	0.007031	0.000338
303.15	0.008435	0.000405
308.15	0.009289	0.000446
313.15	0.01108	0.00053

System: butan-1-ol + 4-nitrobenzaldehyde; phases: Liquid, Crystal
Fixed: Pressure, kPa = 101.1
Property: Mole fraction of 4-nitrobenzaldehyde (Liquid); method: Chromatography
Temperature, K	Mole fraction of 4-nitrobenzaldehyde	uncertainty
273.15	0.01181	0.00057
278.15	0.01284	0.00062
283.15	0.01438	0.00069
288.15	0.01613	0.00078
293.15	0.01798	0.00086
298.15	0.02003	0.00096
303.15	0.02247	0.00108
308.15	0.02515	0.00121
313.15	0.02834	0.00136

System: acetone + 4-nitrobenzaldehyde; phases: Liquid, Crystal
Fixed: Pressure, kPa = 101.1
Property: Mole fraction of 4-nitrobenzaldehyde (Liquid); method: Chromatography
Temperature, K	Mole fraction of 4-nitrobenzaldehyde	uncertainty
273.15	0.03891	0.00187
278.15	0.05095	0.00245
283.15	0.06622	0.00318
288.15	0.08509	0.00409
293.15	0.1075	0.0052
298.15	0.1344	0.0065
303.15	0.1661	0.008
308.15	0.2024	0.0097
313.15	0.2441	0.0117

System: ethyl acetate + 4-nitrobenzaldehyde; phases: Liquid, Crystal
Fixed: Pressure, kPa = 101.1
Property: Mole fraction of 4-nitrobenzaldehyde (Liquid); method: Chromatography
Temperature, K	Mole fraction of 4-nitrobenzaldehyde	uncertainty
273.15	0.03212	0.00154
278.15	0.04005	0.00193
283.15	0.04877	0.00234
288.15	0.05912	0.00284
293.15	0.07195	0.00346
298.15	0.08697	0.00418
303.15	0.1056	0.0051
308.15	0.1263	0.0061
313.15	0.1511	0.0073

System: acetonitrile + 4-nitrobenzaldehyde; phases: Liquid, Crystal
Fixed: Pressure, kPa = 101.1
Property: Mole fraction of 4-nitrobenzaldehyde (Liquid); method: Chromatography
Temperature, K	Mole fraction of 4-nitrobenzaldehyde	uncertainty
273.15	0.02616	0.00126
278.15	0.03507	0.00169
283.15	0.04705	0.00226
288.15	0.06142	0.00295
293.15	0.08007	0.00385
298.15	0.1025	0.0049
303.15	0.1297	0.0062
308.15	0.161	0.0077
313.15	0.1989	0.0096

System: toluene + 4-nitrobenzaldehyde; phases: Liquid, Crystal
Fixed: Pressure, kPa = 101.1
Property: Mole fraction of 4-nitrobenzaldehyde (Liquid); method: Chromatography
Temperature, K	Mole fraction of 4-nitrobenzaldehyde	uncertainty
273.15	0.01911	0.00092
278.15	0.02386	0.00115
283.15	0.02974	0.00143
288.15	0.03662	0.00176
293.15	0.04489	0.00216
298.15	0.05467	0.00263
303.15	0.06568	0.00316
308.15	0.08017	0.00385
313.15	0.09685	0.00466

System: butanone + 4-nitrobenzaldehyde; phases: Liquid, Crystal
Fixed: Pressure, kPa = 101.1
Property: Mole fraction of 4-nitrobenzaldehyde (Liquid); method: Chromatography
Temperature, K	Mole fraction of 4-nitrobenzaldehyde	uncertainty
273.15	0.03673	0.00177
278.15	0.04586	0.0022
283.15	0.05672	0.00273
288.15	0.06892	0.00331
293.15	0.0836	0.00402
298.15	0.1018	0.0049
303.15	0.1223	0.0059
308.15	0.147	0.0071
313.15	0.1744	0.0084

System: dimethylformamide + 4-nitrobenzaldehyde; phases: Liquid, Crystal
Fixed: Pressure, kPa = 101.1
Property: Mole fraction of 4-nitrobenzaldehyde (Liquid); method: Chromatography
Temperature, K	Mole fraction of 4-nitrobenzaldehyde	uncertainty
273.15	0.104	0.005
278.15	0.1186	0.0057
283.15	0.135	0.0065
288.15	0.1521	0.0073
293.15	0.1703	0.0082
298.15	0.1917	0.0092
303.15	0.2135	0.0103
308.15	0.2374	0.0114
313.15	0.2617	0.0126

System: propan-1-ol + 4-nitrobenzaldehyde; phases: Liquid, Crystal
Fixed: Pressure, kPa = 101.1
Property: Mole fraction of 4-nitrobenzaldehyde (Liquid); method: Chromatography
Temperature, K	Mole fraction of 4-nitrobenzaldehyde	uncertainty
273.15	0.01396	0.00067
278.15	0.01521	0.00073
283.15	0.01684	0.00081
288.15	0.019	0.00091
293.15	0.02156	0.00104
298.15	0.0243	0.00117
303.15	0.02723	0.00131
308.15	0.03122	0.0015
313.15	0.03615	0.00174
