Measured thermophysical data. Thermodynamic properties of ternary Me-Ga-In (Me = La, U) alloys in a fused Ga-In/LiCl-KCl system
Source: J. Chem. Thermodyn., 2019, 10.1016/j.jct.2018.10.014
Compound 1: lanthanum, La, InChI=1S/La
Compound 2: uranium, U, InChI=1S/U, purity 99.97%
Compound 3: gallium, Ga, InChI=1S/Ga, purity 99.9999%
Compound 4: indium, In, InChI=1S/In, purity 99.9995%

System: lanthanum + gallium + indium; phases: Liquid
Fixed: Pressure, kPa = 100
Property: Activity coefficient of lanthanum (Liquid); method: Calculated from EMF cell potential
Temperature, K	Solvent: Mass fraction of indium	Mass fraction of lanthanum	Activity coefficient of lanthanum	uncertainty
723	0.399	0.0035	5.86e-13	5.86e-14
747	0.399	0.0035	1.87e-12	1.87e-13
771	0.399	0.0035	5.57e-12	5.57e-13
802	0.399	0.0035	2.07e-11	2.07e-12
823	0.399	0.0035	4.75e-11	4.75e-12
723	0.704	0.0033	2.09e-12	2.09e-13
747	0.704	0.0033	6.13e-12	6.13e-13
771	0.704	0.0033	1.68e-11	1.68e-12
802	0.704	0.0033	5.68e-11	5.68e-12
823	0.704	0.0033	1.23e-10	1.23e-11

System: uranium + gallium + indium; phases: Liquid
Fixed: Pressure, kPa = 100
Property: Activity coefficient of uranium (Liquid); method: Calculated from EMF cell potential
Temperature, K	Solvent: Mass fraction of indium	Mass fraction of uranium	Activity coefficient of uranium	uncertainty
723	0.396	0.0029	6.95e-05	6.95e-06
751	0.396	0.0029	0.000122	1.22e-05
769	0.396	0.0029	0.000172	1.72e-05
798	0.396	0.0029	0.000288	2.88e-05
823	0.396	0.0029	0.000438	4.38e-05
723	0.689	0.0031	0.0006	6e-05
751	0.689	0.0031	0.00095	9.5e-05
769	0.689	0.0031	0.00125	0.000125
798	0.689	0.0031	0.00191	0.000191
823	0.689	0.0031	0.00268	0.000268
