Measured thermophysical data. Viscosities and refractive indices of binary mixtures of 1-butyl-3-methylimidazolium tetrafluoroborate and 1-butyl-2,3-dimethylimidazolium tetrafluoroborate with water at 298 K
Source: J. Chem. Thermodyn., 2008, 10.1016/j.jct.2007.10.002
Compound 1: 1-butyl-3-methylimidazolium tetrafluoroborate, C8H15BF4N2, InChI=1S/C8H15N2.BF4/c1-3-4-5-10-7-6-9(2)8-10;2-1(3,4)5/h6-8H,3-5H2,1-2H3;/q+1;-1
Compound 2: water, H2O, InChI=1S/H2O/h1H2
Compound 3: 1-butyl-2,3-dimethylimidazolium tetrafluoroborate, C9H17BF4N2, InChI=1S/C9H17N2.BF4/c1-4-5-6-11-8-7-10(3)9(11)2;2-1(3,4)5/h7-8H,4-6H2,1-3H3;/q+1;-1

System: 1-butyl-3-methylimidazolium tetrafluoroborate; phases: Liquid
Property: Refractive index (Na D-line) (Liquid); method: Standard Abbe refractometry
Temperature, K	Pressure, kPa	Refractive index (Na D-line)	uncertainty
298.15	101.325	1.422	0.002

System: 1-butyl-3-methylimidazolium tetrafluoroborate; phases: Liquid
Property: Viscosity, Pa*s (Liquid); method: Capillary tube (Ostwald; Ubbelohde) method
Pressure, kPa	Temperature, K	Viscosity, Pa*s	uncertainty
101	298.15	0.10066	0.00331

System: 1-butyl-3-methylimidazolium tetrafluoroborate; phases: Liquid
Property: Mass density, kg/m3 (Liquid); method: Vibrating tube method
Pressure, kPa	Temperature, K	Mass density, kg/m3	uncertainty
101	298.15	1200.297	7.838

System: 1-butyl-2,3-dimethylimidazolium tetrafluoroborate; phases: Liquid
Property: Refractive index (Na D-line) (Liquid); method: Standard Abbe refractometry
Temperature, K	Pressure, kPa	Refractive index (Na D-line)	uncertainty
298.15	101.325	1.433	0.002

System: 1-butyl-2,3-dimethylimidazolium tetrafluoroborate; phases: Liquid
Property: Viscosity, Pa*s (Liquid); method: Capillary tube (Ostwald; Ubbelohde) method
Pressure, kPa	Temperature, K	Viscosity, Pa*s	uncertainty
101	298.15	0.45581	0.02853

System: 1-butyl-2,3-dimethylimidazolium tetrafluoroborate; phases: Liquid
Property: Mass density, kg/m3 (Liquid); method: Vibrating tube method
Pressure, kPa	Temperature, K	Mass density, kg/m3	uncertainty
101	298.15	1191.2	7.7

System: water + 1-butyl-3-methylimidazolium tetrafluoroborate; phases: Liquid
Fixed: Pressure, kPa = 101
Fixed: Temperature, K = 298.15
Property: Viscosity, Pa*s (Liquid); method: Capillary tube (Ostwald; Ubbelohde) method
Mole fraction of 1-butyl-3-methylimidazolium tetrafluoroborate	Viscosity, Pa*s	uncertainty
0	0.00089	1e-05
0.036	0.00151	1e-05
0.044	0.00167	2e-05
0.1267	0.00322	3e-05
0.3134	0.0072	9e-05
0.4984	0.01363	0.00022
0.5802	0.01925	0.00034
0.8089	0.04655	0.0011
0.9719	0.08887	0.00273
1	0.10066	0.00331

System: water + 1-butyl-3-methylimidazolium tetrafluoroborate; phases: Liquid
Fixed: Temperature, K = 298.15
Fixed: Pressure, kPa = 101
Property: Refractive index (Na D-line) (Liquid); method: Standard Abbe refractometry
Mole fraction of 1-butyl-3-methylimidazolium tetrafluoroborate	Refractive index (Na D-line)	uncertainty
0	1.333	0.002
0.044	1.36	0.002
0.1267	1.384	0.002
0.3134	1.405	0.002
0.4984	1.412	0.002
0.5802	1.415	0.002
0.7488	1.418	0.002
0.8089	1.419	0.002
0.9719	1.421	0.002
1	1.422	0.002

System: water + 1-butyl-3-methylimidazolium tetrafluoroborate; phases: Liquid
Fixed: Pressure, kPa = 101
Fixed: Temperature, K = 298.15
Property: Mass density, kg/m3 (Liquid); method: Vibrating tube method
Mole fraction of 1-butyl-3-methylimidazolium tetrafluoroborate	Mass density, kg/m3	uncertainty
0	997.043	0.081
0.036	1050.069	0.15
0.044	1058.546	0.168
0.1267	1112.514	0.358
0.3134	1158.587	1.08
0.4984	1177.854	2.238
0.5802	1183.492	2.899
0.8089	1194.472	5.261
0.9719	1199.541	7.423
1	1200.297	7.838

System: water + 1-butyl-2,3-dimethylimidazolium tetrafluoroborate; phases: Liquid
Fixed: Pressure, kPa = 101
Fixed: Temperature, K = 298.15
Property: Viscosity, Pa*s (Liquid); method: Capillary tube (Ostwald; Ubbelohde) method
Mole fraction of 1-butyl-2,3-dimethylimidazolium tetrafluoroborate	Viscosity, Pa*s	uncertainty
0	0.00089	1e-05
0.0085	0.00106	1e-05
0.0397	0.00183	2e-05
0.1068	0.00396	4e-05
0.1997	0.00734	8e-05
0.2577	0.01007	0.00011
0.3222	0.01262	0.00016
0.7058	0.09463	0.00258
0.7325	0.10497	0.00307
0.8659	0.21482	0.00951
1	0.45581	0.02853

System: water + 1-butyl-2,3-dimethylimidazolium tetrafluoroborate; phases: Liquid
Fixed: Temperature, K = 298.15
Fixed: Pressure, kPa = 101
Property: Refractive index (Na D-line) (Liquid); method: Standard Abbe refractometry
Mole fraction of 1-butyl-2,3-dimethylimidazolium tetrafluoroborate	Refractive index (Na D-line)	uncertainty
0	1.333	0.002
0.0397	1.362	0.002
0.1068	1.387	0.002
0.1997	1.404	0.002
0.2577	1.411	0.002
0.3222	1.417	0.002
0.4983	1.423	0.002
0.7058	1.429	0.002
0.7325	1.43	0.002
0.8659	1.432	0.002
1	1.433	0.002

System: water + 1-butyl-2,3-dimethylimidazolium tetrafluoroborate; phases: Liquid
Fixed: Pressure, kPa = 101
Fixed: Temperature, K = 298.15
Property: Mass density, kg/m3 (Liquid); method: Vibrating tube method
Mole fraction of 1-butyl-2,3-dimethylimidazolium tetrafluoroborate	Mass density, kg/m3	uncertainty
0	997.043	0.081
0.0085	1012.564	0.095
0.0397	1053.332	0.156
0.1068	1100.329	0.305
0.1997	1132.177	0.585
0.2577	1144.223	0.811
0.3222	1154.043	1.112
0.7058	1182.144	4.044
0.7325	1183.223	4.324
0.8659	1187.778	5.882
1	1191.2	7.7
