Measured thermophysical data. Volumetric properties of itaconic acid aqueous solutions
Source: J. Chem. Thermodyn., 2012, 10.1016/j.jct.2011.09.014
Compound 1: methylenebutanedioic acid, C5H6O4, InChI=1S/C5H6O4/c1-3(5(8)9)2-4(6)7/h1-2H2,(H,6,7)(H,8,9), purity 99%
Compound 2: water, H2O, InChI=1S/H2O/h1H2, purity 99.8%

System: methylenebutanedioic acid + water; phases: Liquid
Fixed: Pressure, kPa = 101
Property: Mass density, kg/m3 (Liquid); method: Vibrating tube method
Temperature, K	Molality, mol/kg of methylenebutanedioic acid	Mass density, kg/m3	uncertainty
278.15	0.03003	1001.29	0.07
278.15	0.03959	1001.66	0.07
278.15	0.06012	1002.46	0.07
278.15	0.06991	1002.87	0.07
278.15	0.08013	1003.19	0.07
278.15	0.0938	1003.75	0.07
278.15	0.09977	1004.04	0.07
278.15	0.19999	1007.92	0.07
278.15	0.30018	1011.74	0.07
278.15	0.39986	1015.53	0.07
283.15	0.03003	1000.98	0.07
283.15	0.03959	1001.34	0.07
283.15	0.06012	1002.12	0.07
283.15	0.06991	1002.53	0.07
283.15	0.08013	1002.84	0.07
283.15	0.0938	1003.39	0.07
283.15	0.09977	1003.66	0.06
283.15	0.19999	1007.45	0.07
283.15	0.30018	1011.17	0.07
283.15	0.39986	1014.89	0.07
288.15	0.03003	1000.37	0.07
288.15	0.03959	1000.73	0.07
288.15	0.06012	1001.5	0.07
288.15	0.06991	1001.88	0.07
288.15	0.08013	1002.2	0.07
288.15	0.0938	1002.73	0.07
288.15	0.09977	1003	0.06
288.15	0.19999	1006.7	0.07
288.15	0.30018	1010.34	0.07
288.15	0.39986	1013.97	0.07
293.15	0.03003	999.44	0.07
293.15	0.03959	999.79	0.07
293.15	0.06012	1000.55	0.07
293.15	0.06991	1000.92	0.07
293.15	0.08013	1001.21	0.07
293.15	0.0938	1001.73	0.07
293.15	0.09977	1002.01	0.07
293.15	0.19999	1005.65	0.07
293.15	0.30018	1009.21	0.07
293.15	0.39986	1012.76	0.07
298.15	0.03003	998.28	0.08
298.15	0.03959	998.63	0.07
298.15	0.06012	999.38	0.07
298.15	0.06991	999.75	0.07
298.15	0.08013	1000.05	0.07
298.15	0.0938	1000.55	0.07
298.15	0.09977	1000.82	0.07
298.15	0.19999	1004.38	0.07
298.15	0.30018	1007.88	0.07
298.15	0.39986	1011.37	0.07
303.15	0.03003	996.86	0.08
303.15	0.03959	997.21	0.07
303.15	0.06012	997.93	0.07
303.15	0.06991	998.31	0.07
303.15	0.08013	998.61	0.07
303.15	0.0938	999.1	0.07
303.15	0.09977	999.36	0.07
303.15	0.19999	1002.87	0.07
303.15	0.30018	1006.29	0.07
303.15	0.39986	1009.72	0.08
308.15	0.03003	995.19	0.08
308.15	0.03959	995.54	0.07
308.15	0.06012	996.24	0.07
308.15	0.06991	996.61	0.07
308.15	0.08013	996.89	0.07
308.15	0.0938	997.39	0.07
308.15	0.09977	997.64	0.07
308.15	0.19999	1001.1	0.07
308.15	0.30018	1004.47	0.08
308.15	0.39986	1007.83	0.08
313.15	0.03003	993.35	0.08
313.15	0.03959	993.69	0.08
313.15	0.06012	994.36	0.08
313.15	0.06991	994.73	0.08
313.15	0.08013	995.01	0.08
313.15	0.0938	995.52	0.08
313.15	0.09977	995.74	0.07
313.15	0.19999	999.18	0.08
313.15	0.30018	1002.47	0.08
313.15	0.39986	1005.78	0.08
318.15	0.03003	991.33	0.08
318.15	0.03959	991.67	0.08
318.15	0.06012	992.36	0.08
318.15	0.06991	992.71	0.08
318.15	0.08013	992.99	0.08
318.15	0.0938	993.48	0.08
318.15	0.09977	993.7	0.07
318.15	0.19999	997.09	0.08
318.15	0.30018	1000.32	0.08
318.15	0.39986	1003.61	0.08
323.15	0.03003	989.14	0.08
323.15	0.03959	989.5	0.08
323.15	0.06012	990.15	0.08
323.15	0.06991	990.49	0.08
323.15	0.08013	990.76	0.08
323.15	0.0938	991.25	0.08
323.15	0.09977	991.47	0.08
323.15	0.19999	994.83	0.08
323.15	0.30018	998.06	0.08
323.15	0.39986	1001.24	0.08
328.15	0.03003	986.78	0.08
328.15	0.03959	987.11	0.08
328.15	0.06012	987.8	0.08
328.15	0.06991	988.11	0.08
328.15	0.08013	988.39	0.08
328.15	0.0938	988.88	0.08
328.15	0.09977	989.08	0.08
328.15	0.19999	992.38	0.08
328.15	0.30018	995.56	0.08
328.15	0.39986	998.72	0.08
333.15	0.03003	984.28	0.09
333.15	0.03959	984.62	0.08
333.15	0.06012	985.26	0.08
333.15	0.06991	985.61	0.08
333.15	0.08013	985.87	0.08
333.15	0.0938	986.33	0.08
333.15	0.09977	986.57	0.08
333.15	0.19999	989.73	0.08
333.15	0.30018	992.98	0.08
333.15	0.39986	996.07	0.08
338.15	0.03003	981.62	0.09
338.15	0.03959	981.94	0.09
338.15	0.06012	982.61	0.09
338.15	0.06991	982.92	0.08
338.15	0.08013	983.19	0.09
338.15	0.0938	983.63	0.09
338.15	0.09977	983.87	0.09
338.15	0.19999	986.99	0.09
338.15	0.30018	990.2	0.09
338.15	0.39986	993.18	0.09
343.15	0.03003	978.84	0.09
343.15	0.03959	979.15	0.09
343.15	0.06012	979.82	0.09
343.15	0.06991	980.13	0.09
343.15	0.08013	980.38	0.09
343.15	0.0938	980.84	0.09
343.15	0.09977	981.07	0.09
343.15	0.19999	984.09	0.09
343.15	0.30018	987.3	0.09
343.15	0.39986	990.24	0.09
