Measured thermophysical data. Equilibrium solubility of H2S in aqueous solutions of 1-amino-2-propanol  as function of concentration, temperature, and pressure
Source: J. Chem. Thermodyn., 2012, 10.1016/j.jct.2012.02.009
Compound 1: 1-amino-2-propanol, C3H9NO, InChI=1S/C3H9NO/c1-3(5)2-4/h3,5H,2,4H2,1H3, purity 99.7%
Compound 2: hydrogen sulfide, H2S, InChI=1S/H2S/h1H2, purity 99.5%
Compound 3: water, H2O, InChI=1S/H2O/h1H2, purity 99.9%

System: 1-amino-2-propanol + water + hydrogen sulfide; phases: Liquid, Gas
Fixed: Solvent: Mass fraction of 1-amino-2-propanol = 0.3
Property: Mass fraction of hydrogen sulfide (Liquid); method: Chromatography
Temperature, K	Pressure, kPa	Mass fraction of hydrogen sulfide	uncertainty
313.15	100.8	0.014	0.001
313.15	209.5	0.026	0.002
313.15	347.8	0.051	0.004
313.15	493.6	0.066	0.005
313.15	574.9	0.074	0.006
313.15	696.8	0.084	0.007
313.15	805.6	0.087	0.007
313.15	1206.2	0.092	0.007
393.15	60.1	0.01	0.001
393.15	181	0.021	0.002
393.15	351.6	0.034	0.003
393.15	508.9	0.043	0.004
393.15	681.2	0.05	0.004
393.15	830	0.056	0.005
393.15	936.9	0.06	0.005
393.15	1067.3	0.064	0.005
393.15	1263.1	0.069	0.006

System: 1-amino-2-propanol + water + hydrogen sulfide; phases: Liquid, Gas
Fixed: Solvent: Mass fraction of 1-amino-2-propanol = 0.4
Property: Mass fraction of hydrogen sulfide (Liquid); method: Chromatography
Temperature, K	Pressure, kPa	Mass fraction of hydrogen sulfide	uncertainty
313.15	94.9	0.023	0.003
313.15	192.2	0.047	0.004
313.15	370.7	0.076	0.006
313.15	533.3	0.092	0.007
313.15	654.9	0.101	0.008
313.15	751.6	0.106	0.009
313.15	934.4	0.114	0.009
313.15	1106.2	0.117	0.009
313.15	1317.3	0.12	0.01
393.15	80.3	0.015	0.002
393.15	207.3	0.028	0.002
393.15	378.9	0.044	0.004
393.15	543	0.058	0.005
393.15	732.9	0.069	0.006
393.15	916.4	0.077	0.006
393.15	1091.7	0.084	0.007
393.15	1284	0.091	0.007

System: 1-amino-2-propanol + water + hydrogen sulfide; phases: Liquid, Gas
Fixed: Solvent: Mass fraction of 1-amino-2-propanol = 0.5
Property: Mass fraction of hydrogen sulfide (Liquid); method: Chromatography
Temperature, K	Pressure, kPa	Mass fraction of hydrogen sulfide	uncertainty
313.15	143.1	0.035	0.004
313.15	216	0.065	0.006
313.15	329.7	0.091	0.007
313.15	523.6	0.118	0.01
313.15	707.6	0.136	0.011
313.15	909.8	0.144	0.012
313.15	1073.8	0.149	0.012
313.15	1241	0.154	0.012
313.15	1467.6	0.159	0.013
393.15	106.3	0.02	0.002
393.15	233.9	0.04	0.003
393.15	404.1	0.059	0.005
393.15	577.8	0.074	0.006
393.15	746.4	0.087	0.007
393.15	909	0.097	0.008
393.15	1100.7	0.106	0.009
393.15	1356.3	0.114	0.009

System: 1-amino-2-propanol + water + hydrogen sulfide; phases: Liquid, Gas
Fixed: Solvent: Mass fraction of 1-amino-2-propanol = 0.2
Property: Mass fraction of hydrogen sulfide (Liquid); method: Chromatography
Temperature, K	Pressure, kPa	Mass fraction of hydrogen sulfide	uncertainty
313.15	98.3	0.012	0.001
313.15	182.1	0.021	0.002
313.15	242.7	0.027	0.002
313.15	332.8	0.036	0.003
313.15	447.5	0.052	0.004
313.15	628.5	0.058	0.005
313.15	779	0.06	0.005
313.15	993.1	0.063	0.005
313.15	1256.3	0.066	0.005
393.15	51.4	0.01	0.001
393.15	213.2	0.023	0.002
393.15	313.3	0.028	0.002
393.15	483.6	0.035	0.003
393.15	617.3	0.038	0.003
393.15	754.2	0.041	0.003
393.15	936.2	0.045	0.004
393.15	1071	0.048	0.004
393.15	1183.5	0.05	0.004
