Measured thermophysical data. Density, viscosity, and speed of sound of binary liquid mixtures of vinyl acetate with butyl vinyl ether, diisopropyl ether, anisole and dibutyl ether
Source: J. Chem. Thermodyn., 2019, 10.1016/j.jct.2019.04.018
Compound 1: vinyl acetate, C4H6O2, InChI=1S/C4H6O2/c1-3-6-4(2)5/h3H,1H2,2H3, purity 99%
Compound 2: 1-(ethenyloxy)butane, C6H12O, InChI=1S/C6H12O/c1-3-5-6-7-4-2/h4H,2-3,5-6H2,1H3, purity 98%
Compound 3: diisopropyl ether, C6H14O, InChI=1S/C6H14O/c1-5(2)7-6(3)4/h5-6H,1-4H3, purity 98%
Compound 4: anisole, C7H8O, InChI=1S/C7H8O/c1-8-7-5-3-2-4-6-7/h2-6H,1H3, purity 99.7%
Compound 5: dibutyl ether, C8H18O, InChI=1S/C8H18O/c1-3-5-7-9-8-6-4-2/h3-8H2,1-2H3, purity 99.3%

System: vinyl acetate; phases: Liquid
Fixed: Pressure, kPa = 100
Property: Mass density, kg/m3 (Liquid); method: Vibrating tube method
Temperature, K	Mass density, kg/m3	uncertainty
303.15	919.4	1.1
308.15	913.5	1.1
313.15	907.3	1.1

System: vinyl acetate; phases: Liquid
Fixed: Pressure, kPa = 100
Property: Viscosity, Pa*s (Liquid); method: Capillary tube (Ostwald; Ubbelohde) method
Temperature, K	Viscosity, Pa*s	uncertainty
303.15	0.000388	1.4e-05
308.15	0.00037	1.4e-05
313.15	0.000352	1.4e-05

System: vinyl acetate; phases: Liquid
Fixed: Pressure, kPa = 100
Fixed: Frequency, MHz = 2
Property: Speed of sound, m/s (Liquid); method: Single path-length method
Temperature, K	Speed of sound, m/s	uncertainty
303.15	1092	5
308.15	1074	5
313.15	1054	5

System: 1-(ethenyloxy)butane; phases: Liquid
Fixed: Pressure, kPa = 100
Property: Mass density, kg/m3 (Liquid); method: Vibrating tube method
Temperature, K	Mass density, kg/m3	uncertainty
303.15	769	1.2
308.15	763.9	1.2
313.15	758.8	1.2

System: 1-(ethenyloxy)butane; phases: Liquid
Fixed: Pressure, kPa = 100
Property: Viscosity, Pa*s (Liquid); method: Capillary tube (Ostwald; Ubbelohde) method
Temperature, K	Viscosity, Pa*s	uncertainty
303.15	0.000386	1.5e-05
308.15	0.000373	1.5e-05
313.15	0.000352	1.5e-05

System: 1-(ethenyloxy)butane; phases: Liquid
Fixed: Pressure, kPa = 100
Fixed: Frequency, MHz = 2
Property: Speed of sound, m/s (Liquid); method: Single path-length method
Temperature, K	Speed of sound, m/s	uncertainty
303.15	1086	6
308.15	1076	6
313.15	1066	6

System: diisopropyl ether; phases: Liquid
Fixed: Pressure, kPa = 100
Property: Mass density, kg/m3 (Liquid); method: Vibrating tube method
Temperature, K	Mass density, kg/m3	uncertainty
303.15	713.1	1.2
308.15	707.9	1.2
313.15	702.5	1.2

System: diisopropyl ether; phases: Liquid
Fixed: Pressure, kPa = 100
Property: Viscosity, Pa*s (Liquid); method: Capillary tube (Ostwald; Ubbelohde) method
Temperature, K	Viscosity, Pa*s	uncertainty
303.15	0.000301	1.4e-05
308.15	0.000287	1.4e-05
313.15	0.000276	1.4e-05

System: diisopropyl ether; phases: Liquid
Fixed: Pressure, kPa = 100
Fixed: Frequency, MHz = 2
Property: Speed of sound, m/s (Liquid); method: Single path-length method
Temperature, K	Speed of sound, m/s	uncertainty
303.15	982	6
308.15	962	6
313.15	942	6

System: anisole; phases: Liquid
Fixed: Pressure, kPa = 100
Property: Mass density, kg/m3 (Liquid); method: Vibrating tube method
Temperature, K	Mass density, kg/m3	uncertainty
303.15	984.4	1.1
308.15	979.8	1.1
313.15	975	1.1

System: anisole; phases: Liquid
Fixed: Pressure, kPa = 100
Property: Viscosity, Pa*s (Liquid); method: Capillary tube (Ostwald; Ubbelohde) method
Temperature, K	Viscosity, Pa*s	uncertainty
303.15	0.000929	1.5e-05
308.15	0.000849	1.5e-05
313.15	0.000788	1.5e-05

System: anisole; phases: Liquid
Fixed: Pressure, kPa = 100
Fixed: Frequency, MHz = 2
Property: Speed of sound, m/s (Liquid); method: Single path-length method
Temperature, K	Speed of sound, m/s	uncertainty
303.15	1386	5
308.15	1366	5
313.15	1348	5

System: dibutyl ether; phases: Liquid
Fixed: Pressure, kPa = 100
Property: Mass density, kg/m3 (Liquid); method: Vibrating tube method
Temperature, K	Mass density, kg/m3	uncertainty
303.15	759.6	1.1
308.15	755.2	1.1
313.15	750.8	1.1

System: dibutyl ether; phases: Liquid
Fixed: Pressure, kPa = 100
Property: Viscosity, Pa*s (Liquid); method: Capillary tube (Ostwald; Ubbelohde) method
Temperature, K	Viscosity, Pa*s	uncertainty
303.15	0.000602	1.5e-05
308.15	0.000564	1.5e-05
313.15	0.000529	1.4e-05

System: dibutyl ether; phases: Liquid
Fixed: Pressure, kPa = 100
Fixed: Frequency, MHz = 2
Property: Speed of sound, m/s (Liquid); method: Single path-length method
Temperature, K	Speed of sound, m/s	uncertainty
303.15	1144	5
308.15	1128	5
313.15	1114	5

System: vinyl acetate + 1-(ethenyloxy)butane; phases: Liquid
Fixed: Pressure, kPa = 100
Property: Mass density, kg/m3 (Liquid); method: Vibrating tube method
Temperature, K	Mole fraction of vinyl acetate	Mass density, kg/m3	uncertainty
303.15	0	769	1.2
303.15	0.1022	779.6	1.2
303.15	0.2014	790.7	1.1
303.15	0.2948	801.9	1.1
303.15	0.4002	815.6	1.1
303.15	0.502	829.9	1.1
303.15	0.5997	844.6	1.1
303.15	0.6979	860.6	1.1
303.15	0.7949	877.7	1.1
303.15	0.8999	898	1.1
303.15	1	919.4	1.1
308.15	0	763.9	1.2
308.15	0.1022	774.4	1.2
308.15	0.2014	785.4	1.1
308.15	0.2948	796.5	1.1
308.15	0.4002	810	1.1
308.15	0.502	824.1	1.1
308.15	0.5997	838.7	1.1
308.15	0.6979	854.5	1.1
308.15	0.7949	871.6	1.1
308.15	0.8999	891.9	1.1
308.15	1	913.5	1.1
313.15	0	758.8	1.2
313.15	0.1022	769.1	1.2
313.15	0.2014	780	1.1
313.15	0.2948	791	1.1
313.15	0.4002	804.4	1.1
313.15	0.502	818.3	1.1
313.15	0.5997	832.8	1.1
313.15	0.6979	848.4	1.1
313.15	0.7949	865.3	1.1
313.15	0.8999	885.5	1.1
313.15	1	907.3	1.1

System: vinyl acetate + 1-(ethenyloxy)butane; phases: Liquid
Fixed: Pressure, kPa = 100
Property: Viscosity, Pa*s (Liquid); method: Capillary tube (Ostwald; Ubbelohde) method
Temperature, K	Mole fraction of vinyl acetate	Viscosity, Pa*s	uncertainty
303.15	0	0.000386	1.5e-05
303.15	0.1022	0.000385	1.5e-05
303.15	0.2014	0.000381	1.4e-05
303.15	0.2948	0.000377	1.4e-05
303.15	0.4002	0.000374	1.4e-05
303.15	0.502	0.000372	1.4e-05
303.15	0.5997	0.000373	1.4e-05
303.15	0.6979	0.000375	1.4e-05
303.15	0.7949	0.000378	1.4e-05
303.15	0.8999	0.000383	1.4e-05
303.15	1	0.000388	1.4e-05
308.15	0	0.000373	1.5e-05
308.15	0.1022	0.000368	1.4e-05
308.15	0.2014	0.000364	1.4e-05
308.15	0.2948	0.00036	1.4e-05
308.15	0.4002	0.000357	1.4e-05
308.15	0.502	0.000355	1.4e-05
308.15	0.5997	0.000357	1.4e-05
308.15	0.6979	0.000358	1.4e-05
308.15	0.7949	0.00036	1.4e-05
308.15	0.8999	0.000365	1.4e-05
308.15	1	0.00037	1.4e-05
313.15	0	0.000352	1.5e-05
313.15	0.1022	0.00035	1.4e-05
313.15	0.2014	0.000344	1.4e-05
313.15	0.2948	0.000339	1.4e-05
313.15	0.4002	0.000338	1.4e-05
313.15	0.502	0.000336	1.4e-05
313.15	0.5997	0.000337	1.4e-05
313.15	0.6979	0.000338	1.4e-05
313.15	0.7949	0.000341	1.4e-05
313.15	0.8999	0.000346	1.4e-05
313.15	1	0.000352	1.4e-05

System: vinyl acetate + 1-(ethenyloxy)butane; phases: Liquid
Fixed: Pressure, kPa = 100
Fixed: Frequency, MHz = 2
Property: Speed of sound, m/s (Liquid); method: Single path-length method
Temperature, K	Mole fraction of vinyl acetate	Speed of sound, m/s	uncertainty
303.15	0	1086	6
303.15	0.1022	1086	6
303.15	0.2014	1086	6
303.15	0.2948	1087	6
303.15	0.4002	1087	6
303.15	0.502	1087	5
303.15	0.5997	1088	5
303.15	0.6979	1088	5
303.15	0.7949	1089	5
303.15	0.8999	1090	5
303.15	1	1092	5
308.15	0	1076	6
308.15	0.1022	1076	6
308.15	0.2014	1076	6
308.15	0.2948	1075	6
308.15	0.4002	1075	6
308.15	0.502	1074	5
308.15	0.5997	1074	5
308.15	0.6979	1074	5
308.15	0.7949	1074	5
308.15	0.8999	1074	5
308.15	1	1074	5
313.15	0	1066	6
313.15	0.1022	1066	6
313.15	0.2014	1065	6
313.15	0.2948	1064	6
313.15	0.4002	1064	6
313.15	0.502	1062	5
313.15	0.5997	1062	5
313.15	0.6979	1061	5
313.15	0.7949	1059	5
313.15	0.8999	1057	5
313.15	1	1054	5

System: vinyl acetate + diisopropyl ether; phases: Liquid
Fixed: Pressure, kPa = 100
Property: Mass density, kg/m3 (Liquid); method: Vibrating tube method
Temperature, K	Mole fraction of vinyl acetate	Mass density, kg/m3	uncertainty
303.15	0	713.1	1.2
303.15	0.1031	727.4	1.2
303.15	0.1977	741.4	1.1
303.15	0.3004	757.8	1.1
303.15	0.4002	775	1.1
303.15	0.5001	793.8	1.1
303.15	0.6027	814.8	1.1
303.15	0.7001	836.9	1.1
303.15	0.801	861.9	1.1
303.15	0.9014	889.5	1.1
303.15	1	919.4	1.1
308.15	0	707.9	1.2
308.15	0.1031	722.1	1.2
308.15	0.1977	736	1.1
308.15	0.3004	752.3	1.1
308.15	0.4002	769.4	1.1
308.15	0.5001	788.1	1.1
308.15	0.6027	809.1	1.1
308.15	0.7001	831	1.1
308.15	0.801	856	1.1
308.15	0.9014	883.5	1.1
308.15	1	913.5	1.1
313.15	0	702.5	1.2
313.15	0.1031	716.5	1.2
313.15	0.1977	730.4	1.1
313.15	0.3004	746.6	1.1
313.15	0.4002	763.7	1.1
313.15	0.5001	782.3	1.1
313.15	0.6027	803.2	1.1
313.15	0.7001	825	1.1
313.15	0.801	849.8	1.1
313.15	0.9014	877.2	1.1
313.15	1	907.3	1.1

System: vinyl acetate + diisopropyl ether; phases: Liquid
Fixed: Pressure, kPa = 100
Property: Viscosity, Pa*s (Liquid); method: Capillary tube (Ostwald; Ubbelohde) method
Temperature, K	Mole fraction of vinyl acetate	Viscosity, Pa*s	uncertainty
303.15	0	0.000301	1.4e-05
303.15	0.1031	0.000308	1.4e-05
303.15	0.1977	0.000313	1.4e-05
303.15	0.3004	0.000318	1.4e-05
303.15	0.4002	0.000324	1.4e-05
303.15	0.5001	0.00033	1.4e-05
303.15	0.6027	0.000338	1.4e-05
303.15	0.7001	0.000347	1.4e-05
303.15	0.801	0.000359	1.4e-05
303.15	0.9014	0.000372	1.4e-05
303.15	1	0.000388	1.4e-05
308.15	0	0.000287	1.4e-05
308.15	0.1031	0.000293	1.4e-05
308.15	0.1977	0.000297	1.4e-05
308.15	0.3004	0.000302	1.4e-05
308.15	0.4002	0.000307	1.4e-05
308.15	0.5001	0.000313	1.4e-05
308.15	0.6027	0.00032	1.4e-05
308.15	0.7001	0.000329	1.4e-05
308.15	0.801	0.00034	1.4e-05
308.15	0.9014	0.000353	1.4e-05
308.15	1	0.00037	1.4e-05
313.15	0	0.000276	1.4e-05
313.15	0.1031	0.00028	1.4e-05
313.15	0.1977	0.000284	1.4e-05
313.15	0.3004	0.000288	1.4e-05
313.15	0.4002	0.000294	1.4e-05
313.15	0.5001	0.000299	1.4e-05
313.15	0.6027	0.000306	1.4e-05
313.15	0.7001	0.000313	1.4e-05
313.15	0.801	0.000323	1.4e-05
313.15	0.9014	0.000335	1.4e-05
313.15	1	0.000352	1.4e-05

System: vinyl acetate + diisopropyl ether; phases: Liquid
Fixed: Pressure, kPa = 100
Fixed: Frequency, MHz = 2
Property: Speed of sound, m/s (Liquid); method: Single path-length method
Temperature, K	Mole fraction of vinyl acetate	Speed of sound, m/s	uncertainty
303.15	0	982	6
303.15	0.1031	990	6
303.15	0.1977	996	6
303.15	0.3004	1004	6
303.15	0.4002	1013	6
303.15	0.5001	1022	5
303.15	0.6027	1032	5
303.15	0.7001	1042	5
303.15	0.801	1056	5
303.15	0.9014	1072	5
303.15	1	1092	5
308.15	0	962	6
308.15	0.1031	970	6
308.15	0.1977	976	6
308.15	0.3004	985	6
308.15	0.4002	993	6
308.15	0.5001	1002	5
308.15	0.6027	1012	5
308.15	0.7001	1024	5
308.15	0.801	1038	5
308.15	0.9014	1053	5
308.15	1	1074	5
313.15	0	942	6
313.15	0.1031	948	6
313.15	0.1977	955	6
313.15	0.3004	964	6
313.15	0.4002	972	6
313.15	0.5001	982	5
313.15	0.6027	992	5
313.15	0.7001	1003	5
313.15	0.801	1016	5
313.15	0.9014	1032	5
313.15	1	1054	5

System: vinyl acetate + anisole; phases: Liquid
Fixed: Pressure, kPa = 100
Property: Mass density, kg/m3 (Liquid); method: Vibrating tube method
Temperature, K	Mole fraction of vinyl acetate	Mass density, kg/m3	uncertainty
303.15	0	984.4	1.1
303.15	0.0981	979.4	1.1
303.15	0.199	974	1.1
303.15	0.3015	968.3	1.1
303.15	0.3972	962.6	1.1
303.15	0.5005	956.2	1.1
303.15	0.5979	949.8	1.1
303.15	0.6988	942.8	1.1
303.15	0.8029	935.1	1.1
303.15	0.9005	927.5	1.1
303.15	1	919.4	1.1
308.15	0	979.8	1.1
308.15	0.0981	974.6	1.1
308.15	0.199	969	1.1
308.15	0.3015	963.1	1.1
308.15	0.3972	957.4	1.1
308.15	0.5005	950.8	1.1
308.15	0.5979	944.2	1.1
308.15	0.6988	937	1.1
308.15	0.8029	929.2	1.1
308.15	0.9005	921.5	1.1
308.15	1	913.5	1.1
313.15	0	975	1.1
313.15	0.0981	969.5	1.1
313.15	0.199	963.8	1.1
313.15	0.3015	957.8	1.1
313.15	0.3972	951.9	1.1
313.15	0.5005	945.2	1.1
313.15	0.5979	938.5	1.1
313.15	0.6988	931.1	1.1
313.15	0.8029	923.1	1.1
313.15	0.9005	915.3	1.1
313.15	1	907.3	1.1

System: vinyl acetate + anisole; phases: Liquid
Fixed: Pressure, kPa = 100
Property: Viscosity, Pa*s (Liquid); method: Capillary tube (Ostwald; Ubbelohde) method
Temperature, K	Mole fraction of vinyl acetate	Viscosity, Pa*s	uncertainty
303.15	0	0.000929	1.5e-05
303.15	0.0981	0.000843	1.5e-05
303.15	0.199	0.000766	1.5e-05
303.15	0.3015	0.000696	1.5e-05
303.15	0.3972	0.000638	1.5e-05
303.15	0.5005	0.000583	1.5e-05
303.15	0.5979	0.000535	1.4e-05
303.15	0.6988	0.000492	1.4e-05
303.15	0.8029	0.000451	1.4e-05
303.15	0.9005	0.000418	1.4e-05
303.15	1	0.000388	1.4e-05
308.15	0	0.000849	1.5e-05
308.15	0.0981	0.000775	1.5e-05
308.15	0.199	0.000708	1.5e-05
308.15	0.3015	0.000647	1.5e-05
308.15	0.3972	0.000595	1.5e-05
308.15	0.5005	0.000546	1.4e-05
308.15	0.5979	0.000503	1.4e-05
308.15	0.6988	0.000464	1.4e-05
308.15	0.8029	0.000427	1.4e-05
308.15	0.9005	0.000397	1.4e-05
308.15	1	0.00037	1.4e-05
313.15	0	0.000788	1.5e-05
313.15	0.0981	0.000724	1.5e-05
313.15	0.199	0.000664	1.5e-05
313.15	0.3015	0.000609	1.5e-05
313.15	0.3972	0.000562	1.4e-05
313.15	0.5005	0.000515	1.4e-05
313.15	0.5979	0.000476	1.4e-05
313.15	0.6988	0.000439	1.4e-05
313.15	0.8029	0.000406	1.4e-05
313.15	0.9005	0.000377	1.4e-05
313.15	1	0.000352	1.4e-05

System: vinyl acetate + anisole; phases: Liquid
Fixed: Pressure, kPa = 100
Fixed: Frequency, MHz = 2
Property: Speed of sound, m/s (Liquid); method: Single path-length method
Temperature, K	Mole fraction of vinyl acetate	Speed of sound, m/s	uncertainty
303.15	0	1386	5
303.15	0.0981	1350	5
303.15	0.199	1316	5
303.15	0.3015	1283	5
303.15	0.3972	1253	5
303.15	0.5005	1223	5
303.15	0.5979	1194	5
303.15	0.6988	1167	5
303.15	0.8029	1139	5
303.15	0.9005	1115	5
303.15	1	1092	5
308.15	0	1366	5
308.15	0.0981	1329	5
308.15	0.199	1294	5
308.15	0.3015	1260	5
308.15	0.3972	1230	5
308.15	0.5005	1199	5
308.15	0.5979	1171	5
308.15	0.6988	1144	5
308.15	0.8029	1118	5
308.15	0.9005	1095	5
308.15	1	1074	5
313.15	0	1348	5
313.15	0.0981	1310	5
313.15	0.199	1274	5
313.15	0.3015	1239	5
313.15	0.3972	1208	5
313.15	0.5005	1177	5
313.15	0.5979	1150	5
313.15	0.6988	1122	5
313.15	0.8029	1096	5
313.15	0.9005	1074	5
313.15	1	1054	5

System: vinyl acetate + dibutyl ether; phases: Liquid
Fixed: Pressure, kPa = 100
Property: Mass density, kg/m3 (Liquid); method: Vibrating tube method
Temperature, K	Mole fraction of vinyl acetate	Mass density, kg/m3	uncertainty
303.15	0	759.6	1.1
303.15	0.0956	767.4	1.1
303.15	0.1922	776.2	1.1
303.15	0.3008	787.4	1.1
303.15	0.3962	798.4	1.1
303.15	0.5008	812.2	1.1
303.15	0.5997	827.4	1.1
303.15	0.6995	845	1.1
303.15	0.7995	865.6	1.1
303.15	0.8998	890	1.1
303.15	1	919.4	1.1
308.15	0	755.2	1.1
308.15	0.0956	763	1.1
308.15	0.1922	771.6	1.1
308.15	0.3008	782.6	1.1
308.15	0.3962	793.5	1.1
308.15	0.5008	807.1	1.1
308.15	0.5997	822	1.1
308.15	0.6995	839.4	1.1
308.15	0.7995	859.8	1.1
308.15	0.8998	883.8	1.1
308.15	1	913.5	1.1
313.15	0	750.8	1.1
313.15	0.0956	758.2	1.1
313.15	0.1922	767	1.1
313.15	0.3008	777.8	1.1
313.15	0.3962	788.5	1.1
313.15	0.5008	801.9	1.1
313.15	0.5997	816.6	1.1
313.15	0.6995	833.7	1.1
313.15	0.7995	853.8	1.1
313.15	0.8998	877.6	1.1
313.15	1	907.3	1.1

System: vinyl acetate + dibutyl ether; phases: Liquid
Fixed: Pressure, kPa = 100
Property: Viscosity, Pa*s (Liquid); method: Capillary tube (Ostwald; Ubbelohde) method
Temperature, K	Mole fraction of vinyl acetate	Viscosity, Pa*s	uncertainty
303.15	0	0.000602	1.5e-05
303.15	0.0956	0.000575	1.5e-05
303.15	0.1922	0.000549	1.4e-05
303.15	0.3008	0.000522	1.4e-05
303.15	0.3962	0.000499	1.4e-05
303.15	0.5008	0.000476	1.4e-05
303.15	0.5997	0.000455	1.4e-05
303.15	0.6995	0.000436	1.4e-05
303.15	0.7995	0.000417	1.4e-05
303.15	0.8998	0.000401	1.4e-05
303.15	1	0.000388	1.4e-05
308.15	0	0.000564	1.5e-05
308.15	0.0956	0.00054	1.4e-05
308.15	0.1922	0.000517	1.4e-05
308.15	0.3008	0.000493	1.4e-05
308.15	0.3962	0.000472	1.4e-05
308.15	0.5008	0.000451	1.4e-05
308.15	0.5997	0.000431	1.4e-05
308.15	0.6995	0.000414	1.4e-05
308.15	0.7995	0.000398	1.4e-05
308.15	0.8998	0.000383	1.4e-05
308.15	1	0.00037	1.4e-05
313.15	0	0.000529	1.4e-05
313.15	0.0956	0.000509	1.4e-05
313.15	0.1922	0.000489	1.4e-05
313.15	0.3008	0.000467	1.4e-05
313.15	0.3962	0.000447	1.4e-05
313.15	0.5008	0.000427	1.4e-05
313.15	0.5997	0.000409	1.4e-05
313.15	0.6995	0.000393	1.4e-05
313.15	0.7995	0.000379	1.4e-05
313.15	0.8998	0.000365	1.4e-05
313.15	1	0.000352	1.4e-05

System: vinyl acetate + dibutyl ether; phases: Liquid
Fixed: Pressure, kPa = 100
Fixed: Frequency, MHz = 2
Property: Speed of sound, m/s (Liquid); method: Single path-length method
Temperature, K	Mole fraction of vinyl acetate	Speed of sound, m/s	uncertainty
303.15	0	1144	5
303.15	0.0956	1141	5
303.15	0.1922	1136	5
303.15	0.3008	1131	5
303.15	0.3962	1126	5
303.15	0.5008	1120	5
303.15	0.5997	1115	5
303.15	0.6995	1110	5
303.15	0.7995	1104	5
303.15	0.8998	1099	5
303.15	1	1092	5
308.15	0	1128	5
308.15	0.0956	1123	5
308.15	0.1922	1118	5
308.15	0.3008	1112	5
308.15	0.3962	1107	5
308.15	0.5008	1102	5
308.15	0.5997	1096	5
308.15	0.6995	1091	5
308.15	0.7995	1085	5
308.15	0.8998	1080	5
308.15	1	1074	5
313.15	0	1114	5
313.15	0.0956	1107	5
313.15	0.1922	1100	5
313.15	0.3008	1093	5
313.15	0.3962	1087	5
313.15	0.5008	1080	5
313.15	0.5997	1074	5
313.15	0.6995	1068	5
313.15	0.7995	1063	5
313.15	0.8998	1058	5
313.15	1	1054	5
