Measured thermophysical data. Enthalpies of solution of C-alkylresorcin[4]arenes in alcohols at T = 298.15 K
Source: J. Chem. Thermodyn., 2016, 10.1016/j.jct.2015.08.037
Compound 1: rac-(2s,8s,14s,20s)-2,8,14,20-tetraethylpentacyclo[19.3.1.1(3,7).1(9,13).1(15,19)]octacosa-1(25),3,5,7(28),9,11,13(27),15,17,19(26),21,23-dodecaene-4,6,10,12,16,18,22,24-octol, C36H40O8, InChI=1S/C36H40O8/c1-5-17-21-9-23(31(39)13-29(21)37)18(6-2)25-11-27(35(43)15-33(25)41)20(8-4)28-12-26(34(42)16-36(28)44)19(7-3)24-10-22(17)30(38)14-32(24)40/h9-20,37-44H,5-8H2,1-4H3/t17-,18+,19-,20+
Compound 2: rac-(2s,8s,14s,20s)-2,8,14,20-tetrabutylpentacyclo[19.3.1.1(3,7).1(9,13).1(15,19)]octacosa-1(25),3,5,7(28),9,11,13(27),15,17,19(26),21,23-dodecaene-4,6,10,12,16,18,22,24-octol, C44H56O8, InChI=1S/C44H56O8/c1-5-9-13-25-29-17-31(39(47)21-37(29)45)26(14-10-6-2)33-19-35(43(51)23-41(33)49)28(16-12-8-4)36-20-34(42(50)24-44(36)52)27(15-11-7-3)32-18-30(25)38(46)22-40(32)48/h17-28,45-52H,5-16H2,1-4H3/t25-,26+,27-,28+
Compound 3: rac-(2s,8s,14s,20s)-2,8,14,20-tetrapentylpentacyclo[19.3.1.1(3,7).1(9,13).1(15,19)]octacosa-1(25),3,5,7(28),9,11,13(27),15,17,19(26),21,23-dodecaene-4,6,10,12,16,18,22,24-octol, C48H64O8, InChI=1S/C48H64O8/c1-5-9-13-17-29-33-21-35(43(51)25-41(33)49)30(18-14-10-6-2)37-23-39(47(55)27-45(37)53)32(20-16-12-8-4)40-24-38(46(54)28-48(40)56)31(19-15-11-7-3)36-22-34(29)42(50)26-44(36)52/h21-32,49-56H,5-20H2,1-4H3/t29-,30+,31-,32+
Compound 4: rac-(2s,8s,14s,20s)-2,8,14,20-tetrahexylpentacyclo[19.3.1.1(3,7).1(9,13).1(15,19)]octacosa-1(25),3,5,7(28),9,11,13(27),15,17,19(26),21,23-dodecaene-4,6,10,12,16,18,22,24-octol, C52H72O8, InChI=1S/C52H72O8/c1-5-9-13-17-21-33-37-25-39(47(55)29-45(37)53)34(22-18-14-10-6-2)41-27-43(51(59)31-49(41)57)36(24-20-16-12-8-4)44-28-42(50(58)32-52(44)60)35(23-19-15-11-7-3)40-26-38(33)46(54)30-48(40)56/h25-36,53-60H,5-24H2,1-4H3/t33-,34+,35-,36+
Compound 5: methanol, CH4O, InChI=1S/CH4O/c1-2/h2H,1H3, purity 99%
Compound 6: ethanol, C2H6O, InChI=1S/C2H6O/c1-2-3/h3H,2H2,1H3, purity 99%
Compound 7: propan-1-ol, C3H8O, InChI=1S/C3H8O/c1-2-3-4/h4H,2-3H2,1H3, purity 99%

System: methanol + rac-(2s,8s,14s,20s)-2,8,14,20-tetraethylpentacyclo[19.3.1.1(3,7).1(9,13).1(15,19)]octacosa-1(25),3,5,7(28),9,11,13(27),15,17,19(26),21,23-dodecaene-4,6,10,12,16,18,22,24-octol; phases: Liquid
Fixed: Pressure, kPa = 74.66
Fixed: Temperature, K = 298.15
Property: Molar enthalpy of solution, kJ/mol (Liquid); method: ISOPERIBOL
Molality, mol/kg of rac-(2s,8s,14s,20s)-2,8,14,20-tetraethylpentacyclo[19.3.1.1(3,7).1(9,13).1(15,19)]octacosa-1(25),3,5,7(28),9,11,13(27),15,17,19(26),21,23-dodecaene-4,6,10,12,16,18,22,24-octol	Molar enthalpy of solution, kJ/mol	uncertainty
0.00087	-31.2	0.3
0.0014	-31.3	0.5
0.00198	-31.4	0.3
0.00226	-31.5	0.6
0.0028	-31.8	0.5
0.00361	-31.8	0.5
0.00437	-32	0.6

System: methanol + rac-(2s,8s,14s,20s)-2,8,14,20-tetrabutylpentacyclo[19.3.1.1(3,7).1(9,13).1(15,19)]octacosa-1(25),3,5,7(28),9,11,13(27),15,17,19(26),21,23-dodecaene-4,6,10,12,16,18,22,24-octol; phases: Liquid
Fixed: Pressure, kPa = 74.66
Fixed: Temperature, K = 298.15
Property: Molar enthalpy of solution, kJ/mol (Liquid); method: ISOPERIBOL
Molality, mol/kg of rac-(2s,8s,14s,20s)-2,8,14,20-tetrabutylpentacyclo[19.3.1.1(3,7).1(9,13).1(15,19)]octacosa-1(25),3,5,7(28),9,11,13(27),15,17,19(26),21,23-dodecaene-4,6,10,12,16,18,22,24-octol	Molar enthalpy of solution, kJ/mol	uncertainty
0.00086	-35.7	0.5
0.00127	-35.9	0.3
0.00151	-36.2	0.3
0.002	-36.3	0.5
0.00243	-36.3	0.3
0.00286	-36.3	0.3
0.00346	-36.6	0.3
0.00395	-36.6	0.3

System: methanol + rac-(2s,8s,14s,20s)-2,8,14,20-tetrapentylpentacyclo[19.3.1.1(3,7).1(9,13).1(15,19)]octacosa-1(25),3,5,7(28),9,11,13(27),15,17,19(26),21,23-dodecaene-4,6,10,12,16,18,22,24-octol; phases: Liquid
Fixed: Pressure, kPa = 74.66
Fixed: Temperature, K = 298.15
Property: Molar enthalpy of solution, kJ/mol (Liquid); method: ISOPERIBOL
Molality, mol/kg of rac-(2s,8s,14s,20s)-2,8,14,20-tetrapentylpentacyclo[19.3.1.1(3,7).1(9,13).1(15,19)]octacosa-1(25),3,5,7(28),9,11,13(27),15,17,19(26),21,23-dodecaene-4,6,10,12,16,18,22,24-octol	Molar enthalpy of solution, kJ/mol	uncertainty
0.00052	-14.8	0.4
0.00105	-15.1	0.4
0.00154	-15.5	0.2
0.00205	-15.6	0.2
0.00234	-15.8	0.8
0.00298	-15.9	0.8
0.00334	-16.1	0.4
0.00377	-16.3	0.2

System: methanol + rac-(2s,8s,14s,20s)-2,8,14,20-tetrahexylpentacyclo[19.3.1.1(3,7).1(9,13).1(15,19)]octacosa-1(25),3,5,7(28),9,11,13(27),15,17,19(26),21,23-dodecaene-4,6,10,12,16,18,22,24-octol; phases: Liquid
Fixed: Pressure, kPa = 74.66
Fixed: Temperature, K = 298.15
Property: Molar enthalpy of solution, kJ/mol (Liquid); method: ISOPERIBOL
Molality, mol/kg of rac-(2s,8s,14s,20s)-2,8,14,20-tetrahexylpentacyclo[19.3.1.1(3,7).1(9,13).1(15,19)]octacosa-1(25),3,5,7(28),9,11,13(27),15,17,19(26),21,23-dodecaene-4,6,10,12,16,18,22,24-octol	Molar enthalpy of solution, kJ/mol	uncertainty
0.0005	31	0.3
0.001	31.1	0.3
0.00121	31.2	0.6
0.00185	31.4	0.6
0.00207	31.3	0.3
0.00278	31.4	0.8
0.00287	31.7	0.3
0.00338	31.9	0.3

System: ethanol + rac-(2s,8s,14s,20s)-2,8,14,20-tetraethylpentacyclo[19.3.1.1(3,7).1(9,13).1(15,19)]octacosa-1(25),3,5,7(28),9,11,13(27),15,17,19(26),21,23-dodecaene-4,6,10,12,16,18,22,24-octol; phases: Liquid
Fixed: Pressure, kPa = 74.66
Fixed: Temperature, K = 298.15
Property: Molar enthalpy of solution, kJ/mol (Liquid); method: ISOPERIBOL
Molality, mol/kg of rac-(2s,8s,14s,20s)-2,8,14,20-tetraethylpentacyclo[19.3.1.1(3,7).1(9,13).1(15,19)]octacosa-1(25),3,5,7(28),9,11,13(27),15,17,19(26),21,23-dodecaene-4,6,10,12,16,18,22,24-octol	Molar enthalpy of solution, kJ/mol	uncertainty
0.00099	-36	0.7
0.0012	-36.2	1.2
0.0018	-36.3	0.3
0.00228	-36.4	0.8
0.00283	-36.5	0.3
0.00359	-36.5	0.3
0.00422	-36.6	0.7
0.00461	-36.7	0.3

System: ethanol + rac-(2s,8s,14s,20s)-2,8,14,20-tetrabutylpentacyclo[19.3.1.1(3,7).1(9,13).1(15,19)]octacosa-1(25),3,5,7(28),9,11,13(27),15,17,19(26),21,23-dodecaene-4,6,10,12,16,18,22,24-octol; phases: Liquid
Fixed: Pressure, kPa = 74.66
Fixed: Temperature, K = 298.15
Property: Molar enthalpy of solution, kJ/mol (Liquid); method: ISOPERIBOL
Molality, mol/kg of rac-(2s,8s,14s,20s)-2,8,14,20-tetrabutylpentacyclo[19.3.1.1(3,7).1(9,13).1(15,19)]octacosa-1(25),3,5,7(28),9,11,13(27),15,17,19(26),21,23-dodecaene-4,6,10,12,16,18,22,24-octol	Molar enthalpy of solution, kJ/mol	uncertainty
0.00058	-37.3	0.5
0.001	-37.5	0.7
0.00192	-37.6	0.3
0.00263	-37.6	0.7
0.00289	-37.7	0.3
0.0034	-37.9	0.4
0.00385	-38.4	0.8

System: ethanol + rac-(2s,8s,14s,20s)-2,8,14,20-tetrapentylpentacyclo[19.3.1.1(3,7).1(9,13).1(15,19)]octacosa-1(25),3,5,7(28),9,11,13(27),15,17,19(26),21,23-dodecaene-4,6,10,12,16,18,22,24-octol; phases: Liquid
Fixed: Pressure, kPa = 74.66
Fixed: Temperature, K = 298.15
Property: Molar enthalpy of solution, kJ/mol (Liquid); method: ISOPERIBOL
Molality, mol/kg of rac-(2s,8s,14s,20s)-2,8,14,20-tetrapentylpentacyclo[19.3.1.1(3,7).1(9,13).1(15,19)]octacosa-1(25),3,5,7(28),9,11,13(27),15,17,19(26),21,23-dodecaene-4,6,10,12,16,18,22,24-octol	Molar enthalpy of solution, kJ/mol	uncertainty
0.00073	-17.2	0.4
0.00102	-17.5	0.2
0.0014	-17.8	0.2
0.00193	-18	0.4
0.00212	-18.2	0.2
0.00245	-18.3	0.4
0.00305	-18.4	0.4
0.00334	-18.6	0.6

System: ethanol + rac-(2s,8s,14s,20s)-2,8,14,20-tetrahexylpentacyclo[19.3.1.1(3,7).1(9,13).1(15,19)]octacosa-1(25),3,5,7(28),9,11,13(27),15,17,19(26),21,23-dodecaene-4,6,10,12,16,18,22,24-octol; phases: Liquid
Fixed: Pressure, kPa = 74.66
Fixed: Temperature, K = 298.15
Property: Molar enthalpy of solution, kJ/mol (Liquid); method: ISOPERIBOL
Molality, mol/kg of rac-(2s,8s,14s,20s)-2,8,14,20-tetrahexylpentacyclo[19.3.1.1(3,7).1(9,13).1(15,19)]octacosa-1(25),3,5,7(28),9,11,13(27),15,17,19(26),21,23-dodecaene-4,6,10,12,16,18,22,24-octol	Molar enthalpy of solution, kJ/mol	uncertainty
0.00062	31.1	0.5
0.00093	31.3	0.6
0.00123	31.4	0.3
0.00173	31.5	0.5
0.00205	31.7	0.8
0.00236	31.8	0.5
0.00294	31.8	0.3
0.00334	31.9	0.6

System: propan-1-ol + rac-(2s,8s,14s,20s)-2,8,14,20-tetraethylpentacyclo[19.3.1.1(3,7).1(9,13).1(15,19)]octacosa-1(25),3,5,7(28),9,11,13(27),15,17,19(26),21,23-dodecaene-4,6,10,12,16,18,22,24-octol; phases: Liquid
Fixed: Pressure, kPa = 74.66
Fixed: Temperature, K = 298.15
Property: Molar enthalpy of solution, kJ/mol (Liquid); method: ISOPERIBOL
Molality, mol/kg of rac-(2s,8s,14s,20s)-2,8,14,20-tetraethylpentacyclo[19.3.1.1(3,7).1(9,13).1(15,19)]octacosa-1(25),3,5,7(28),9,11,13(27),15,17,19(26),21,23-dodecaene-4,6,10,12,16,18,22,24-octol	Molar enthalpy of solution, kJ/mol	uncertainty
0.00077	-50	0.4
0.00109	-50.3	0.4
0.00189	-50.5	0.4
0.00224	-50.5	0.4
0.00278	-50.9	0.4
0.0033	-51.1	0.4
0.00412	-51.4	0.4
0.0047	-52	0.4

System: propan-1-ol + rac-(2s,8s,14s,20s)-2,8,14,20-tetrabutylpentacyclo[19.3.1.1(3,7).1(9,13).1(15,19)]octacosa-1(25),3,5,7(28),9,11,13(27),15,17,19(26),21,23-dodecaene-4,6,10,12,16,18,22,24-octol; phases: Liquid
Fixed: Pressure, kPa = 74.66
Fixed: Temperature, K = 298.15
Property: Molar enthalpy of solution, kJ/mol (Liquid); method: ISOPERIBOL
Molality, mol/kg of rac-(2s,8s,14s,20s)-2,8,14,20-tetrabutylpentacyclo[19.3.1.1(3,7).1(9,13).1(15,19)]octacosa-1(25),3,5,7(28),9,11,13(27),15,17,19(26),21,23-dodecaene-4,6,10,12,16,18,22,24-octol	Molar enthalpy of solution, kJ/mol	uncertainty
0.00048	-46.1	0.5
0.00079	-46.2	0.7
0.00118	-46.2	0.4
0.00158	-46.2	0.9
0.00203	-46.4	0.5
0.00262	-46.8	0.7
0.00289	-47	0.4
0.00332	-47.1	0.5

System: propan-1-ol + rac-(2s,8s,14s,20s)-2,8,14,20-tetrapentylpentacyclo[19.3.1.1(3,7).1(9,13).1(15,19)]octacosa-1(25),3,5,7(28),9,11,13(27),15,17,19(26),21,23-dodecaene-4,6,10,12,16,18,22,24-octol; phases: Liquid
Fixed: Pressure, kPa = 74.66
Fixed: Temperature, K = 298.15
Property: Molar enthalpy of solution, kJ/mol (Liquid); method: ISOPERIBOL
Molality, mol/kg of rac-(2s,8s,14s,20s)-2,8,14,20-tetrapentylpentacyclo[19.3.1.1(3,7).1(9,13).1(15,19)]octacosa-1(25),3,5,7(28),9,11,13(27),15,17,19(26),21,23-dodecaene-4,6,10,12,16,18,22,24-octol	Molar enthalpy of solution, kJ/mol	uncertainty
0.00052	-28.9	0.3
0.0009	-29.1	0.3
0.00152	-29.9	0.3
0.00174	-30.1	0.3
0.00216	-30.2	0.3
0.00263	-30.3	0.3
0.00306	-30.5	0.3
0.00347	-30.8	0.3

System: propan-1-ol + rac-(2s,8s,14s,20s)-2,8,14,20-tetrahexylpentacyclo[19.3.1.1(3,7).1(9,13).1(15,19)]octacosa-1(25),3,5,7(28),9,11,13(27),15,17,19(26),21,23-dodecaene-4,6,10,12,16,18,22,24-octol; phases: Liquid
Fixed: Pressure, kPa = 74.66
Fixed: Temperature, K = 298.15
Property: Molar enthalpy of solution, kJ/mol (Liquid); method: ISOPERIBOL
Molality, mol/kg of rac-(2s,8s,14s,20s)-2,8,14,20-tetrahexylpentacyclo[19.3.1.1(3,7).1(9,13).1(15,19)]octacosa-1(25),3,5,7(28),9,11,13(27),15,17,19(26),21,23-dodecaene-4,6,10,12,16,18,22,24-octol	Molar enthalpy of solution, kJ/mol	uncertainty
0.00064	39.2	0.5
0.00091	39.3	12.6
0.00157	39.4	0.3
0.00187	39.5	0.5
0.00232	39.6	0.8
0.00275	39.6	0.5
0.00344	39.9	0.4
0.00392	40.1	0.7
