Measured thermophysical data. Effects of the presence of ethylacetate or benzene on the densities and volumetric properties of mixture (styrene + N,N-dimethylformamide)
Source: J. Chem. Thermodyn., 2007, 10.1016/j.jct.2007.02.007
Compound 1: benzene, C6H6, InChI=1S/C6H6/c1-2-4-6-5-3-1/h1-6H, purity 99%
Compound 2: styrene, C8H8, InChI=1S/C8H8/c1-2-8-6-4-3-5-7-8/h2-7H,1H2, purity 99%
Compound 3: ethyl acetate, C4H8O2, InChI=1S/C4H8O2/c1-3-6-4(2)5/h3H2,1-2H3, purity 99%
Compound 4: dimethylformamide, C3H7NO, InChI=1S/C3H7NO/c1-4(2)3-5/h3H,1-2H3, purity 99%

System: benzene; phases: Liquid
Property: Refractive index (Na D-line) (Liquid); method: Standard Abbe refractometry
Temperature, K	Pressure, kPa	Refractive index (Na D-line)	uncertainty
298.15	101.325	1.5009	0.0008

System: styrene; phases: Liquid
Property: Refractive index (Na D-line) (Liquid); method: Standard Abbe refractometry
Temperature, K	Pressure, kPa	Refractive index (Na D-line)	uncertainty
298.15	101.325	1.5466	0.0008

System: ethyl acetate; phases: Liquid
Property: Refractive index (Na D-line) (Liquid); method: Standard Abbe refractometry
Temperature, K	Pressure, kPa	Refractive index (Na D-line)	uncertainty
298.15	101.325	1.3727	0.0008

System: dimethylformamide; phases: Liquid
Property: Refractive index (Na D-line) (Liquid); method: Standard Abbe refractometry
Temperature, K	Pressure, kPa	Refractive index (Na D-line)	uncertainty
298.15	101.325	1.4307	0.0008

System: dimethylformamide + ethyl acetate; phases: Liquid
Fixed: Pressure, kPa = 101
Fixed: Temperature, K = 298.15
Property: Mass density, kg/m3 (Liquid); method: VIBTUB:UFactor:6
Mole fraction of dimethylformamide	Mass density, kg/m3	uncertainty
0.1423	901.78	0.59
0.2471	907.01	0.58
0.3762	913.45	0.56
0.4948	919.37	0.55
0.5911	924.17	0.54
0.7456	931.88	0.53
0.8413	936.66	0.52

System: styrene + ethyl acetate; phases: Liquid
Fixed: Pressure, kPa = 101
Fixed: Temperature, K = 298.15
Property: Mass density, kg/m3 (Liquid); method: VIBTUB:UFactor:6
Mole fraction of styrene	Mass density, kg/m3	uncertainty
0.1423	897.15	0.6
0.2471	898	0.59
0.3762	899.05	0.59
0.4948	900.01	0.59
0.5911	900.79	0.59
0.7456	902.05	0.59
0.8413	902.82	0.59

System: dimethylformamide + benzene; phases: Liquid
Fixed: Pressure, kPa = 101
Fixed: Temperature, K = 298.15
Property: Mass density, kg/m3 (Liquid); method: VIBTUB:UFactor:6
Mole fraction of dimethylformamide	Mass density, kg/m3	uncertainty
0.1377	884.21	0.62
0.2605	892.97	0.6
0.3924	902.37	0.59
0.4951	909.69	0.57
0.6042	917.47	0.56
0.7153	925.39	0.54
0.8348	933.91	0.53

System: benzene + styrene; phases: Liquid
Fixed: Pressure, kPa = 101
Fixed: Temperature, K = 298.15
Property: Mass density, kg/m3 (Liquid); method: VIBTUB:UFactor:6
Mole fraction of styrene	Mass density, kg/m3	uncertainty
0.1377	878.28	0.63
0.2605	881.9	0.63
0.3924	885.78	0.62
0.4951	888.81	0.61
0.6042	892.02	0.61
0.7153	895.29	0.6
0.8348	898.81	0.59

System: dimethylformamide + styrene + ethyl acetate; phases: Liquid
Fixed: Pressure, kPa = 101
Fixed: Temperature, K = 298.15
Property: Mass density, kg/m3 (Liquid); method: VIBTUB:UFactor:6
Mole fraction of styrene	Mole fraction of dimethylformamide	Mass density, kg/m3	uncertainty
0	0.1423	901.78	0.59
0	0.2471	907.01	0.58
0	0.3762	913.45	0.56
0	0.4948	919.37	0.55
0	0.5911	924.17	0.54
0	0.7456	931.88	0.53
0	0.8413	936.66	0.52
0.0065	0.1358	901.69	0.59
0.0121	0.235	906.73	0.58
0.0144	0.1279	901.57	0.59
0.0206	0.3556	912.92	0.57
0.0225	0.1198	901.44	0.59
0.023	0.2241	906.5	0.58
0.026	0.4688	918.73	0.55
0.0286	0.5625	923.31	0.55
0.0306	0.1117	901.31	0.59
0.0344	0.7112	930.75	0.53
0.0379	0.1044	901.16	0.59
0.0383	0.2088	906.14	0.58
0.0429	0.3333	912.33	0.57
0.0432	0.7981	935.13	0.52
0.044	0.0983	901.04	0.59
0.052	0.0903	900.84	0.59
0.0524	0.1947	905.8	0.58
0.0557	0.4391	917.9	0.56
0.0584	0.3178	911.91	0.57
0.0595	0.0828	900.64	0.59
0.0621	0.529	922.27	0.55
0.0633	0.1838	905.51	0.58
0.0657	0.0766	900.46	0.59
0.0702	0.6754	929.54	0.53
0.0735	0.0688	900.2	0.59
0.0782	0.1689	905.09	0.58
0.0807	0.0616	899.96	0.59
0.0809	0.2953	911.25	0.57
0.0861	0.7552	933.62	0.53
0.0874	0.0549	899.71	0.59
0.0883	0.4065	916.9	0.56
0.0893	0.1578	904.75	0.58
0.0944	0.0479	899.45	0.59
0.0955	0.4956	921.19	0.55
0.0986	0.2776	910.72	0.57
0.0994	0.1477	904.43	0.58
0.1031	0.0392	899.09	0.59
0.1103	0.032	898.79	0.59
0.1119	0.3829	916.11	0.56
0.1158	0.1313	903.88	0.58
0.1159	0.6297	927.96	0.54
0.1173	0.025	898.48	0.59
0.1213	0.2549	909.98	0.57
0.123	0.0193	898.21	0.59
0.1256	0.4655	920.2	0.55
0.1266	0.1205	903.49	0.58
0.1303	0.012	897.84	0.59
0.1342	0.3606	915.34	0.56
0.137	0.0053	897.47	0.6
0.1392	0.7021	931.7	0.53
0.1405	0.1066	902.97	0.58
0.1412	0.235	909.31	0.57
0.1423	0	897.15	0.6
0.1526	0.0945	902.49	0.59
0.1529	0.5927	926.64	0.54
0.1537	0.4374	919.24	0.55
0.157	0.2192	908.74	0.57
0.1651	0.082	901.99	0.59
0.1705	0.3243	914.04	0.56
0.1726	0.6687	930.49	0.53
0.1738	0.2024	908.12	0.57
0.1769	0.0702	901.48	0.59
0.1863	0.4048	918.09	0.56
0.1906	0.0565	900.87	0.59
0.1955	0.2993	913.1	0.57
0.1962	0.18	907.26	0.58
0.1987	0.5469	924.97	0.54
0.2062	0.0409	900.15	0.59
0.2189	0.6224	928.75	0.54
0.2199	0.3712	916.84	0.56
0.2206	0.1556	906.27	0.58
0.221	0.0261	899.42	0.59
0.2252	0.2696	911.97	0.57
0.233	0.5126	923.7	0.55
0.2358	0.0113	898.64	0.59
0.2427	0.1335	905.36	0.58
0.2471	0	898	0.59
0.249	0.3421	915.74	0.56
0.25	0.2448	911.01	0.57
0.2597	0.1165	904.63	0.58
0.2653	0.576	926.99	0.54
0.2771	0.314	914.64	0.56
0.2777	0.2171	909.92	0.57
0.2799	0.4657	921.9	0.55
0.2829	0.0933	903.61	0.58
0.2956	0.5457	925.81	0.54
0.3003	0.0759	902.81	0.59
0.3027	0.2884	913.62	0.56
0.306	0.1888	908.77	0.57
0.317	0.4286	920.45	0.55
0.3219	0.0543	901.8	0.59
0.3337	0.1611	907.61	0.58
0.3343	0.2568	912.33	0.57
0.3377	0.5036	924.16	0.54
0.3393	0.0369	900.95	0.59
0.3493	0.3963	919.18	0.55
0.3593	0.0169	899.94	0.59
0.3649	0.2262	911.05	0.57
0.3652	0.1296	906.26	0.58
0.3762	0	899.05	0.59
0.3838	0.4575	922.32	0.55
0.3865	0.3591	917.68	0.56
0.3892	0.1056	905.2	0.58
0.3914	0.1997	909.92	0.57
0.4132	0.0816	904.1	0.58
0.4194	0.3262	916.33	0.56
0.4229	0.1682	908.57	0.57
0.4356	0.4057	920.21	0.55
0.4417	0.0531	902.74	0.59
0.4566	0.1345	907.07	0.58
0.4588	0.2868	914.71	0.56
0.4721	0.3692	918.71	0.55
0.4733	0.0215	901.15	0.59
0.4895	0.1016	905.6	0.58
0.4948	0	900.01	0.59
0.4955	0.2501	913.17	0.57
0.5181	0.3232	916.81	0.56
0.5295	0.2161	911.72	0.57
0.5316	0.0595	903.66	0.58
0.5564	0.2849	915.19	0.56
0.5614	0.0297	902.24	0.59
0.5683	0.1773	910.04	0.57
0.5911	0	900.79	0.59
0.6053	0.1403	908.42	0.57
0.6095	0.2318	912.95	0.57
0.6518	0.0938	906.36	0.58
0.6521	0.1892	911.13	0.57
0.6814	0.0642	905.02	0.58
0.7054	0.1359	908.83	0.57
0.7176	0.028	903.35	0.58
0.7419	0.0994	907.25	0.58
0.7456	0	902.05	0.59
0.7789	0.0624	905.62	0.58
0.8104	0.0309	904.22	0.58
0.8413	0	902.82	0.59

System: dimethylformamide + benzene + styrene; phases: Liquid
Fixed: Pressure, kPa = 101
Fixed: Temperature, K = 298.15
Property: Mass density, kg/m3 (Liquid); method: VIBTUB:UFactor:6
Mole fraction of styrene	Mole fraction of dimethylformamide	Mass density, kg/m3	uncertainty
0	0.1377	884.21	0.62
0	0.2605	892.97	0.6
0	0.3924	902.37	0.59
0	0.4951	909.69	0.57
0	0.6042	917.47	0.56
0	0.7153	925.39	0.54
0	0.8348	933.91	0.53
0.0066	0.1311	884.15	0.62
0.0137	0.2468	892.76	0.6
0.0145	0.1232	884.1	0.62
0.0204	0.372	901.95	0.59
0.0215	0.1162	884.03	0.62
0.024	0.4711	909.15	0.57
0.0292	0.1085	883.94	0.62
0.0292	0.2313	892.49	0.61
0.0327	0.5715	916.59	0.56
0.036	0.1017	883.82	0.62
0.0402	0.6751	924.24	0.54
0.0425	0.218	892.24	0.61
0.0447	0.7901	932.49	0.53
0.0449	0.3475	901.38	0.59
0.045	0.0927	883.63	0.62
0.0457	0.4494	908.62	0.57
0.0517	0.086	883.45	0.62
0.0561	0.2044	891.93	0.61
0.0619	0.5423	915.77	0.56
0.0659	0.0718	882.97	0.62
0.0665	0.3259	900.84	0.59
0.0685	0.192	891.6	0.61
0.0719	0.0658	882.72	0.62
0.0768	0.4183	907.78	0.58
0.0788	0.0589	882.4	0.62
0.0823	0.633	922.95	0.55
0.0824	0.1781	891.18	0.61
0.0844	0.7504	931.2	0.53
0.0861	0.0516	882.05	0.63
0.0883	0.3041	900.23	0.59
0.093	0.0447	881.67	0.63
0.0944	0.5098	914.8	0.56
0.0951	0.1654	890.77	0.61
0.0997	0.038	881.29	0.63
0.1001	0.395	907.08	0.58
0.1068	0.2856	899.66	0.59
0.1082	0.0295	880.74	0.63
0.1101	0.1504	890.22	0.61
0.1173	0.0204	880.11	0.63
0.1183	0.597	921.77	0.55
0.1241	0.1364	889.66	0.61
0.1243	0.0134	879.55	0.63
0.1289	0.2635	898.92	0.59
0.1294	0.4748	913.68	0.56
0.1297	0.7051	929.65	0.53
0.1313	0.3638	906.07	0.58
0.1314	0.0063	878.91	0.63
0.1365	0.124	889.13	0.61
0.1377	0	878.28	0.63
0.1463	0.1142	888.67	0.61
0.1497	0.2427	898.17	0.59
0.1561	0.339	905.19	0.58
0.1602	0.444	912.63	0.57
0.1614	0.0991	887.94	0.61
0.1618	0.5535	920.26	0.55
0.1731	0.2193	897.26	0.6
0.1734	0.0871	887.33	0.62
0.1796	0.6552	927.87	0.54
0.1853	0.0752	886.7	0.62
0.1861	0.309	904.06	0.58
0.1949	0.5204	919.05	0.55
0.1964	0.196	896.28	0.6
0.1971	0.4071	911.3	0.57
0.1999	0.0606	885.87	0.62
0.2131	0.0474	885.08	0.62
0.2144	0.2807	902.94	0.59
0.2198	0.1726	895.24	0.6
0.2245	0.3797	910.25	0.57
0.228	0.0325	884.15	0.62
0.2377	0.0228	883.51	0.62
0.2402	0.2549	901.87	0.59
0.2403	0.1521	894.28	0.6
0.2421	0.4732	917.27	0.56
0.2464	0.5884	925.38	0.54
0.2509	0.0096	882.59	0.62
0.2605	0	881.9	0.63
0.2605	0.3437	908.81	0.57
0.2637	0.1287	893.13	0.6
0.2715	0.2236	900.52	0.59
0.276	0.4393	915.94	0.56
0.2858	0.1066	891.99	0.61
0.2933	0.2018	899.54	0.59
0.2933	0.3109	907.43	0.58
0.2974	0.5374	923.38	0.55
0.3077	0.0847	890.83	0.61
0.3151	0.2891	906.49	0.58
0.3192	0.3961	914.19	0.56
0.323	0.0694	889.98	0.61
0.3244	0.1707	898.1	0.59
0.3357	0.4991	921.84	0.55
0.3435	0.2607	905.23	0.58
0.3496	0.1455	896.9	0.6
0.3514	0.041	888.33	0.61
0.3592	0.3561	912.51	0.57
0.3696	0.0228	887.24	0.62
0.3769	0.1182	895.56	0.6
0.3894	0.4454	919.6	0.55
0.3898	0.2144	903.09	0.58
0.3924	0	885.78	0.62
0.4014	0.3139	910.68	0.57
0.4025	0.0926	894.23	0.6
0.411	0.1932	902.09	0.59
0.4271	0.068	892.9	0.6
0.4328	0.402	917.74	0.56
0.4383	0.1659	900.76	0.59
0.4423	0.273	908.86	0.57
0.4484	0.0467	891.7	0.61
0.4625	0.1417	899.56	0.59
0.4685	0.3663	916.17	0.56
0.4801	0.015	889.77	0.61
0.4825	0.2328	907.03	0.58
0.4944	0.1098	897.95	0.59
0.4951	0	888.81	0.61
0.5247	0.3101	913.67	0.56
0.5253	0.0789	896.33	0.6
0.528	0.1873	904.88	0.58
0.5557	0.0485	894.7	0.6
0.5622	0.2726	911.95	0.57
0.5626	0.1527	903.22	0.58
0.5793	0.0249	893.41	0.6
0.5972	0.2376	910.34	0.57
0.6042	0	892.02	0.61
0.6069	0.1084	901.02	0.59
0.6398	0.195	908.35	0.57
0.6422	0.0731	899.2	0.59
0.6783	0.1565	906.52	0.58
0.6847	0.0306	896.96	0.6
0.7153	0	895.29	0.6
0.725	0.1098	904.27	0.58
0.7613	0.0735	902.5	0.59
0.8062	0.0286	900.26	0.59
0.8348	0	898.81	0.59
