Measured thermophysical data. Spherical resonator for vapor-phase speed of sound and measurements of 1,1,1,2,2,3,3-heptafluoro-3-methoxypropane (RE347mcc) and trans-1,3,3,3-tetrafluoropropene [R1234ze(E)]
Source: J. Chem. Thermodyn., 2015, 10.1016/j.jct.2015.07.005
Compound 1: heptafluoropropyl methyl ether, C4H3F7O, InChI=1S/C4H3F7O/c1-12-4(10,11)2(5,6)3(7,8)9/h1H3, purity 99.89%
Compound 2: trans-1,3,3,3-tetrafluoropropene, C3H2F4, InChI=1S/C3H2F4/c4-2-1-3(5,6)7/h1-2H/b2-1+, purity 99.993%
Compound 3: methane, CH4, InChI=1S/CH4/h1H4, purity 99.999%
Compound 4: ethane, C2H6, InChI=1S/C2H6/c1-2/h1-2H3, purity 99.99%

System: heptafluoropropyl methyl ether; phases: Gas
Fixed: Frequency, MHz = 0.005
Property: Speed of sound, m/s (Gas); method: Spherical cavity resonance method
Temperature, K	Pressure, kPa	Speed of sound, m/s	uncertainty
324.967	164.72	110.672	0.115
324.965	164.7	110.673	0.118
324.967	164.69	110.674	0.118
324.971	164.69	110.675	0.118
324.967	133.44	112.386	0.117
324.97	133.45	112.386	0.117
324.971	133.45	112.386	0.117
324.967	133.45	112.385	0.117
324.972	95.59	114.328	0.117
324.97	95.57	114.329	0.117
324.967	95.56	114.329	0.117
324.968	95.55	114.329	0.117
324.97	64.71	115.859	0.117
324.967	64.71	115.859	0.114
324.966	64.71	115.859	0.114
349.968	317.58	110.172	0.114
349.971	317.59	110.173	0.117
349.967	317.63	110.169	0.117
349.97	235.77	113.959	0.116
349.973	235.74	113.961	0.116
349.972	235.72	113.962	0.116
349.97	154.62	117.367	0.116
349.968	154.64	117.366	0.116
349.97	154.64	117.366	0.116
349.969	63.93	120.901	0.115
349.974	63.94	120.902	0.114
349.974	63.94	120.902	0.114
374.951	632.82	104.578	0.115
374.952	632.8	104.578	0.118
374.949	632.78	104.58	0.118
374.949	510.48	110.03	0.117
374.947	510.48	110.03	0.117
374.949	510.5	110.03	0.117
374.948	400.9	114.364	0.116
374.948	400.86	114.366	0.116
374.951	400.83	114.366	0.116
374.954	285.36	118.503	0.116
374.954	285.32	118.504	0.116
374.95	285.28	118.505	0.116
374.952	160.6	122.606	0.115
374.955	160.58	122.607	0.115
374.956	160.58	122.607	0.115
374.952	63.1	125.598	0.115
374.952	63.1	125.597	0.114
374.951	63.11	125.597	0.114
374.954	63.11	125.597	0.114
374.957	63.11	125.598	0.114
399.993	1130.31	94.292	0.118
399.993	1130.27	94.294	0.121
399.996	1130.25	94.298	0.121
399.994	953.73	102.517	0.119
399.993	953.71	102.519	0.119
399.995	953.71	102.52	0.119
399.995	806.58	108.278	0.117
399.993	806.55	108.278	0.117
399.995	806.53	108.279	0.117
399.999	805.99	108.302	0.117
399.998	805.97	108.303	0.117
399.996	805.95	108.302	0.117
399.992	650.2	113.691	0.116
399.993	650.23	113.691	0.116
399.997	503.03	118.272	0.116
399.997	503.01	118.274	0.116
399.995	502.98	118.274	0.116
399.993	349.57	122.652	0.115
399.996	349.53	122.653	0.115
399.997	349.52	122.654	0.115
399.997	197.66	126.678	0.115
399.997	197.63	126.679	0.115
399.994	197.55	126.68	0.115
399.997	67.78	129.912	0.115
399.994	67.78	129.911	0.114
399.994	67.78	129.912	0.114
424.941	1608.72	91.17	0.118
424.938	1608.54	91.175	0.121
424.937	1608.38	91.182	0.121
424.937	1607.74	91.211	0.121
424.937	1607.57	91.218	0.121
424.937	1393.25	99.754	0.118
424.937	1393.14	99.759	0.118
424.938	1393.04	99.762	0.118
424.937	1202.68	106.203	0.117
424.937	1202.63	106.204	0.117
424.938	1202.59	106.207	0.117
424.937	1006.09	112.093	0.116
424.938	1005.96	112.098	0.116
424.94	1005.84	112.102	0.116
424.938	802.15	117.601	0.116
424.94	802.08	117.603	0.116
424.942	802.02	117.605	0.116
424.939	603.81	122.506	0.116
424.938	603.77	122.507	0.116
424.936	603.76	122.506	0.116
424.941	407.75	127	0.115
424.942	407.78	127.001	0.115
424.941	407.79	127	0.115
424.939	407.79	126.998	0.115
424.937	407.78	126.998	0.115
424.938	407.83	126.998	0.115
424.937	200.58	131.438	0.115
424.94	200.53	131.439	0.115
424.941	200.53	131.442	0.115
424.943	60.05	134.291	0.115
424.94	60.06	134.29	0.115
424.938	60.06	134.289	0.115
449.956	1624.31	106.888	0.116
449.952	1623.9	106.897	0.117
449.954	1413.82	111.99	0.116
449.952	1413.82	111.989	0.116
449.953	1413.84	111.989	0.116
449.955	1209.71	116.602	0.116
449.954	1209.67	116.602	0.116
449.952	1209.61	116.602	0.116
449.956	1001.13	121.038	0.116
449.955	1001.11	121.035	0.115
449.954	1001.09	121.037	0.116
449.954	809.63	124.872	0.116
449.952	809.64	124.871	0.116
449.953	809.63	124.871	0.116
449.954	606.27	128.76	0.116
449.952	606.26	128.758	0.116
449.953	606.24	128.759	0.116
449.952	606.12	128.761	0.116
449.952	606.08	128.761	0.116
449.954	606.05	128.762	0.116
449.955	396.66	132.567	0.115
449.953	396.63	132.568	0.115
449.951	396.59	132.567	0.115
449.953	208.64	135.841	0.115
449.952	208.65	135.841	0.115
449.952	208.64	135.842	0.115
449.951	64.75	138.252	0.115
449.95	64.75	138.252	0.115
449.952	64.76	138.253	0.115
475.017	1583.14	118.648	0.116
475.019	1583.16	118.646	0.117
475.019	1583.18	118.647	0.117
475.014	1402.04	121.748	0.115
475.014	1402.09	121.746	0.115
475.017	1402.12	121.747	0.115
475.018	1197.18	125.143	0.116
475.015	1197.16	125.141	0.116
475.013	1197.15	125.142	0.116
475.018	1005.55	128.233	0.115
475.017	1005.54	128.232	0.115
475.014	1005.51	128.232	0.115
475.017	795.76	131.504	0.116
475.015	795.76	131.501	0.116
475.013	795.76	131.501	0.117
475.015	587.06	134.666	0.115
475.013	587.06	134.666	0.115
475.013	587.06	134.666	0.115
475.005	396.13	137.472	0.115
475.006	396.11	137.473	0.115
475.006	396.09	137.473	0.115
475.003	396.11	137.47	0.115
475.001	396.11	137.47	0.115
475.003	396.16	137.469	0.115
475.005	396.05	137.471	0.115
475.005	395.99	137.471	0.115
475.003	395.98	137.47	0.115
475.002	189.28	140.424	0.115
475.002	189.2	140.425	0.115
475.005	189.2	140.426	0.115
475.004	67.47	142.114	0.115
475.001	67.48	142.114	0.115
475.001	67.49	142.115	0.115
475.003	67.62	142.114	0.116
475.003	67.62	142.114	0.116
475.003	67.62	142.113	0.116
475.004	67.64	142.111	0.117
475.004	67.64	142.111	0.117
475.003	67.64	142.11	0.117
500.025	1593.1	127.003	0.116
500.026	1593.12	127.008	0.116
500.026	1593.13	127.004	0.116
500.024	1400.6	129.506	0.116
500.021	1400.62	129.504	0.116
500.02	1400.67	129.504	0.116
500.024	1206.88	131.991	0.117
500.025	1206.9	131.989	0.117
500.022	1206.9	131.99	0.116
500.018	1206.94	131.984	0.117
500.018	1206.99	131.984	0.116
500.019	1207.03	131.983	0.117
500.022	1002.81	134.573	0.116
500.021	1002.79	134.573	0.116
500.017	1002.79	134.573	0.115
500.014	804.2	137.05	0.116
500.016	804.24	137.05	0.116
500.019	804.31	137.049	0.116
500.019	605.7	139.494	0.116
500.014	605.81	139.491	0.116
500.017	400.69	141.972	0.116
500.015	400.67	141.97	0.116
500.012	400.64	141.97	0.116
500.011	400.4	141.963	0.116
500.011	400.43	141.96	0.116
500.013	400.48	141.959	0.116
500.012	192.99	144.428	0.116
500.009	193.25	144.422	0.116
500.011	193.35	144.421	0.116
500.008	62.05	145.961	0.116
500.006	62.06	145.961	0.116
500.008	62.06	145.962	0.116
500.007	62.27	145.95	0.121
500.009	62.27	145.95	0.121
500.01	62.27	145.949	0.121

System: trans-1,3,3,3-tetrafluoropropene; phases: Gas
Fixed: Frequency, MHz = 0.005
Property: Speed of sound, m/s (Gas); method: Spherical cavity resonance method
Temperature, K	Pressure, kPa	Speed of sound, m/s	uncertainty
319.971	790.74	137.113	0.043
319.975	790.76	137.111	0.045
319.97	790.76	137.11	0.045
319.976	790.77	137.109	0.045
319.988	790.81	137.109	0.045
319.944	552.39	144.785	0.043
319.939	552.38	144.784	0.042
319.934	552.34	144.786	0.043
319.947	400.99	149.105	0.041
319.944	400.99	149.106	0.039
319.94	195.83	154.473	0.039
319.942	195.84	154.474	0.039
319.948	195.84	154.474	0.039
319.943	98.42	156.859	0.039
319.95	98.42	156.865	0.053
319.956	98.42	156.86	0.039
339.979	799.46	146.124	0.044
339.977	799.52	146.123	0.046
339.973	799.59	146.121	0.046
339.975	595.08	151.148	0.042
339.974	400.04	155.58	0.041
339.964	400.04	155.579	0.04
339.964	400.04	155.578	0.041
339.964	200.05	159.82	0.04
339.969	200.05	159.821	0.04
339.973	200.06	159.822	0.04
339.964	99.31	161.86	0.04
339.968	99.31	161.86	0.04
339.971	99.31	161.86	0.04
279.905	241.33	140.426	0.038
279.91	241.34	140.427	0.038
279.918	241.34	140.428	0.038
279.901	157.55	143.785	0.038
279.915	157.55	143.786	0.038
279.898	157.55	143.785	0.038
279.896	79.55	146.695	0.038
279.903	79.55	146.696	0.038
279.914	79.56	146.696	0.038
299.971	361.26	143.224	0.039
299.977	361.27	143.225	0.039
299.969	361.26	143.223	0.039
299.978	239.74	147.268	0.039
299.965	239.74	147.268	0.039
299.971	239.75	147.268	0.038
299.98	159.07	149.783	0.039
299.966	159.07	149.782	0.039
299.966	159.07	149.783	0.039
299.977	80.03	152.134	0.039
299.968	80.03	152.133	0.039
299.962	80.04	152.133	0.038
339.946	1198.36	134.797	0.047
339.944	1198.34	134.796	0.048
339.943	1198.33	134.795	0.049
339.955	1001.81	140.678	0.048
339.962	1001.88	140.678	0.048
339.955	1001.91	140.677	0.047
339.949	797.03	146.18	0.046
339.953	797.04	146.18	0.046
339.961	797.05	146.182	0.046
339.947	511.55	153.066	0.043
339.953	511.43	153.073	0.041
339.958	511.39	153.075	0.041
339.953	311.18	157.482	0.041
339.958	311.18	157.484	0.04
339.954	311.19	157.482	0.041
339.949	199.81	159.811	0.04
339.948	199.81	159.811	0.04
339.954	199.82	159.812	0.04
359.968	2002.87	123.577	0.052
359.972	2002.9	123.578	0.055
359.975	2002.94	123.58	0.054
359.975	1598.83	135.697	0.05
359.969	1598.81	135.696	0.05
359.963	1598.78	135.695	0.05
359.971	1174.22	146.038	0.048
359.971	1174.26	146.038	0.047
359.966	1174.28	146.036	0.047
359.964	808.74	153.749	0.046
359.969	808.68	153.752	0.045
359.972	808.65	153.753	0.045
359.966	511.03	159.449	0.042
359.958	510.35	159.46	0.046
359.968	307	163.117	0.041
359.966	307	163.117	0.041
359.959	307	163.116	0.041
359.955	99	166.678	0.041
359.96	99	166.679	0.041
359.964	99	166.68	0.041
359.964	99.01	166.686	0.047
359.958	99.01	166.679	0.041
359.954	99.01	166.679	0.041
380.011	2822.22	118.213	0.056
380.016	2822.34	118.217	0.058
380.006	2822.32	118.216	0.058
380.004	2606.47	124.348	0.055
380.009	2606.6	124.35	0.053
379.998	2606.56	124.348	0.053
380.001	2385.97	129.997	0.051
380.005	2385.99	130	0.051
379.998	2385.92	129.999	0.051
380	2215.56	134.031	0.051
379.996	2215.62	134.028	0.051
380.001	2215.7	134.031	0.051
379.996	2008.2	138.612	0.049
380	2008.25	138.613	0.049
379.991	2008.24	138.611	0.049
379.995	1608.29	146.68	0.046
379.995	1608.3	146.68	0.046
380	1608.33	146.682	0.046
379.993	1195.56	154.18	0.047
379.997	1195.51	154.182	0.047
379.989	1195.46	154.182	0.046
379.995	784.28	161.017	0.043
379.988	784.29	161.016	0.045
379.994	784.34	161.017	0.045
379.996	452.13	166.157	0.043
379.994	452.13	166.157	0.042
379.988	452.13	166.156	0.042
379.995	297.93	168.445	0.042
379.992	297.94	168.444	0.042
379.987	297.94	168.443	0.042
379.995	98.61	171.318	0.042
379.99	98.62	171.318	0.042
379.994	98.62	171.318	0.042
379.986	98.63	171.317	0.042
379.989	98.63	171.317	0.042
379.997	98.63	171.317	0.042
402.042	2831.97	137.754	0.059
402.04	2831.96	137.752	0.06
402.042	2832.01	137.753	0.059
402.039	2832.01	137.75	0.06
402.042	2832.05	137.753	0.059
402.042	2832.07	137.751	0.06
402.04	2832.05	137.752	0.059
402.038	2832.02	137.75	0.06
402.035	2831.97	137.749	0.059
402.027	2385.1	145.095	0.051
402.031	2385.17	145.097	0.051
402.033	2385.21	145.1	0.05
402.023	1996.39	151.092	0.053
402.027	1996.42	151.095	0.052
402.027	1996.42	151.094	0.053
402.023	1596.27	156.937	0.048
402.018	1596.21	156.937	0.048
402.017	1596.14	156.937	0.049
402.015	1596	156.94	0.047
402.017	1595.98	156.94	0.048
402.018	1595.95	156.941	0.048
402.016	1595.83	156.941	0.049
402.018	1595.83	156.942	0.048
402.016	1595.83	156.942	0.048
402.017	1595.85	156.942	0.048
402.013	1595.86	156.941	0.048
402.013	1595.88	156.94	0.048
402.011	1595.86	156.94	0.048
402.012	1595.88	156.939	0.048
402.016	1595.92	156.941	0.048
402.009	1189.75	162.556	0.047
402.013	1189.77	162.557	0.047
402.014	1189.78	162.558	0.046
402.007	793.54	167.774	0.047
402.01	793.54	167.774	0.043
402.012	793.53	167.777	0.046
402.008	503	171.432	0.045
402.004	503.14	171.434	0.044
402.006	502.88	171.436	0.044
402.002	504.13	171.42	0.044
402.005	504.78	171.411	0.043
402.006	505.02	171.407	0.044
402.005	504.99	171.402	0.055
402.001	505.27	171.403	0.045
402.005	506.02	171.396	0.044
402.005	505.81	171.398	0.043
402.004	505.96	171.398	0.043
402.001	505.76	171.397	0.043
402.004	299.24	173.938	0.043
401.999	299.24	173.937	0.043
401.997	299.24	173.936	0.043
401.996	299.25	173.936	0.043
401.997	299.25	173.936	0.043
402.001	299.26	173.937	0.043
402.001	98.39	176.348	0.043
401.995	98.4	176.347	0.043
401.996	98.4	176.348	0.043
401.994	98.41	176.347	0.043
401.998	98.42	176.348	0.043
402.001	98.42	176.349	0.043
401.999	98.43	176.348	0.043
402	98.43	176.348	0.043
401.995	98.43	176.348	0.043
401.996	98.44	176.347	0.043
401.993	98.44	176.347	0.043
401.996	98.44	176.348	0.043
401.994	98.45	176.347	0.043
401.997	98.45	176.348	0.043
401.999	98.45	176.348	0.043
401.998	98.46	176.347	0.043
401.996	98.46	176.348	0.043
401.994	98.46	176.347	0.043
419.98	476.26	176.206	0.044
419.984	476.26	176.206	0.044
419.977	476.26	176.205	0.044
419.979	298.92	178.088	0.043
419.974	298.93	178.088	0.043
419.982	298.93	178.087	0.043
419.982	100.2	180.168	0.044
419.975	100.21	180.166	0.044
419.977	100.21	180.166	0.044
419.977	100.22	180.167	0.044
419.982	100.22	180.168	0.044
419.976	100.23	180.167	0.044
419.973	100.24	180.168	0.044
419.974	100.24	180.167	0.044
419.98	100.24	180.168	0.044
419.981	100.25	180.169	0.044
419.978	100.25	180.168	0.044
419.971	100.26	180.167	0.044
419.971	100.26	180.167	0.044
419.976	100.27	180.168	0.044
419.981	100.27	180.169	0.044
419.979	100.28	180.169	0.044
419.974	100.28	180.169	0.044
419.97	100.28	180.168	0.044

System: methane; phases: Gas
Fixed: Frequency, MHz = 0.005
Property: Speed of sound, m/s (Gas); method: Spherical cavity resonance method
Temperature, K	Pressure, kPa	Speed of sound, m/s	uncertainty
280.014	500.03	434.024	0.07
280.014	500.033	434.026	0.067
280.014	500.037	434.027	0.067
280.015	500.184	434.032	0.071
280.016	500.184	434.03	0.068
280.017	500.187	434.03	0.07
280.017	500.185	434.032	0.068
280.018	500.036	434.027	0.067
280.018	500.032	434.027	0.072
280.018	500.036	434.03	0.069
280.018	500.04	434.034	0.069
280.018	500.185	434.034	0.07
280.019	500.042	434.018	0.074
280.019	500.186	434.027	0.066
280.019	500.032	434.028	0.073
293.27	394.315	443.975	0.062
293.271	394.319	443.969	0.067
293.272	394.316	443.97	0.063
293.272	394.316	443.971	0.063
293.272	394.314	443.973	0.063
293.272	394.317	443.973	0.065
293.273	394.314	443.973	0.066
293.276	394.318	443.967	0.064
293.276	394.318	443.969	0.065
293.276	394.321	443.97	0.067
293.276	394.324	443.974	0.067
293.277	394.316	443.973	0.064
293.277	394.348	443.976	0.065
293.278	394.321	443.973	0.063
293.278	394.331	443.975	0.067
293.278	394.348	443.977	0.063
293.279	394.327	443.979	0.064
293.28	394.341	443.977	0.065
293.281	394.333	443.974	0.066
293.281	394.339	443.979	0.065
293.286	394.356	443.976	0.064
293.29	394.359	443.972	0.063
319.521	429.902	462.063	0.065
319.53	429.91	462.063	0.067
319.55	428.609	461.973	0.066
319.553	428.613	461.973	0.064
319.87	471.862	462.118	0.071
319.873	471.872	462.121	0.075
319.877	471.881	462.12	0.07
319.884	471.906	462.132	0.075
319.886	471.909	462.129	0.07
319.889	471.913	462.133	0.074
319.891	471.922	462.129	0.07
319.893	471.925	462.125	0.068
319.894	471.927	462.13	0.071
319.937	430.413	462.324	0.065
319.942	430.418	462.32	0.064
319.95	429.126	462.235	0.065
319.959	429.132	462.236	0.064
339.352	455.995	474.758	0.071
339.353	455.999	474.763	0.069
339.882	456.669	475.085	0.07
339.887	456.674	475.079	0.071
359.272	481.982	486.936	0.065
359.276	481.988	486.939	0.064
359.282	481.806	486.759	0.108
359.282	480.577	486.844	0.09
359.283	481.81	486.762	0.108
359.285	480.585	486.847	0.089
359.852	482.79	487.307	0.067
359.855	482.794	487.315	0.065
359.864	482.592	487.148	0.066
359.866	482.601	487.149	0.064
360.029	529.632	487.351	0.073
360.031	529.638	487.351	0.081
360.033	529.645	487.345	0.088
360.034	529.658	487.346	0.071
360.035	529.671	487.332	0.077
360.035	529.671	487.335	0.078
360.035	529.659	487.34	0.071
360.035	529.66	487.341	0.076
379.199	507.867	498.656	0.097
379.201	507.871	498.659	0.099
379.776	508.558	498.971	0.096
379.782	508.564	498.975	0.095
399.235	533.626	510.014	0.151
399.238	533.632	510.016	0.153
399.819	534.476	510.391	0.146
399.823	534.478	510.388	0.142
399.992	471.941	510.49	0.07
399.992	471.942	510.498	0.084
399.993	471.953	510.472	0.077
399.994	471.978	510.469	0.074
399.994	471.963	510.471	0.073
399.994	471.971	510.474	0.069
399.994	471.955	510.477	0.073
399.994	471.945	510.491	0.075
399.995	471.957	510.465	0.085
419.537	559.418	521.018	0.132
419.546	559.426	521.03	0.124
419.555	559.627	521.204	0.128
419.558	559.634	521.203	0.141
419.986	560	521.281	0.121
419.995	560.007	521.291	0.119
419.997	560.011	521.28	0.121
419.999	560.014	521.285	0.118
420.018	560.193	521.466	0.12
420.02	560.197	521.455	0.137
439.94	496.884	532.013	0.072
439.94	496.883	532.015	0.067
439.94	496.883	532.015	0.069
439.94	496.876	532.017	0.075
439.94	496.874	532.023	0.073
439.94	496.877	532.026	0.072
439.941	496.856	532.021	0.082
439.941	496.859	532.033	0.077
439.942	496.853	532.026	0.076
449.69	597.893	537.244	0.069
449.691	597.899	537.24	0.072
449.692	597.897	537.242	0.068
449.693	597.9	537.232	0.069
449.693	597.902	537.242	0.073
449.694	597.899	537.227	0.074
449.695	597.9	537.246	0.069
449.696	597.896	537.23	0.069
449.696	597.899	537.24	0.072
449.697	597.899	537.228	0.072
449.7	597.886	537.223	0.075
449.703	597.881	537.215	0.072
449.705	597.892	537.229	0.071
449.706	597.885	537.216	0.074
449.707	597.891	537.221	0.072
449.708	597.89	537.218	0.069
449.709	597.883	537.209	0.07
449.714	597.886	537.209	0.073
449.714	597.887	537.213	0.07
449.714	597.887	537.216	0.074
449.717	597.889	537.217	0.071
449.719	597.889	537.204	0.071
449.72	597.877	537.197	0.076
449.721	597.89	537.209	0.074
449.723	597.894	537.199	0.077
449.727	597.874	537.202	0.072
449.729	597.867	537.192	0.069
449.73	597.867	537.194	0.077
449.731	597.862	537.191	0.076
449.737	597.867	537.201	0.074
449.741	597.863	537.19	0.075
449.742	597.865	537.196	0.071
449.767	597.884	537.202	0.069
449.768	597.882	537.201	0.071
449.784	597.897	537.204	0.07
449.791	597.904	537.196	0.081
479.914	495.536	552.379	0.078
479.915	495.571	552.381	0.072
479.915	495.543	552.386	0.084
479.916	495.549	552.39	0.074
479.916	495.518	552.398	0.074
479.917	539.797	552.375	0.078
479.917	495.566	552.387	0.07
479.917	539.802	552.39	0.072
479.917	495.512	552.397	0.076
479.918	539.809	552.388	0.09
479.918	495.506	552.391	0.069

System: ethane; phases: Gas
Fixed: Frequency, MHz = 0.005
Property: Speed of sound, m/s (Gas); method: Spherical cavity resonance method
Temperature, K	Pressure, kPa	Speed of sound, m/s	uncertainty
280.011	500.429	294.645	0.049
280.011	500.433	294.646	0.049
280.013	500.434	294.645	0.048
280.016	500.431	294.647	0.049
280.018	500.435	294.647	0.049
280.02	500.43	294.648	0.05
319.548	463.501	316.216	0.048
319.55	463.506	316.218	0.048
319.947	464.082	316.403	0.048
319.954	464.089	316.405	0.048
324.99	479.74	318.642	0.049
324.992	479.745	318.646	0.051
324.996	479.749	318.647	0.05
324.996	479.754	318.649	0.05
324.996	479.754	318.649	0.051
324.998	479.756	318.65	0.05
339.365	492.928	325.401	0.075
339.366	492.932	325.401	0.075
339.888	493.658	325.638	0.075
339.892	493.662	325.639	0.075
359.266	522.102	334.296	0.049
359.268	522.107	334.297	0.049
359.847	523.027	334.572	0.048
359.85	523.031	334.572	0.05
365.003	479.422	337.342	0.051
365.004	479.423	337.344	0.052
365.006	479.422	337.345	0.051
365.006	479.421	337.345	0.052
365.007	479.425	337.344	0.051
365.007	479.424	337.346	0.052
365.007	479.422	337.346	0.052
365.009	479.424	337.347	0.052
365.01	479.425	337.348	0.053
379.188	551.108	342.951	0.049
379.191	551.113	342.953	0.049
379.765	551.897	343.188	0.049
379.77	551.904	343.189	0.049
399.218	579.97	351.407	0.049
399.222	579.974	351.409	0.049
399.799	580.933	351.687	0.05
399.8	580.928	351.688	0.049
404.981	531.394	354.225	0.05
404.982	531.413	354.222	0.05
404.982	531.415	354.222	0.05
404.982	531.395	354.225	0.05
404.982	531.399	354.226	0.051
404.982	531.399	354.226	0.051
404.982	531.399	354.226	0.051
404.983	531.411	354.222	0.05
404.983	531.396	354.227	0.051
419.453	608.869	359.755	0.053
419.457	608.875	359.757	0.053
419.907	609.512	359.943	0.054
419.915	609.523	359.946	0.053
444.982	496.447	370.717	0.053
444.983	496.452	370.719	0.052
444.983	496.448	370.719	0.054
444.984	496.445	370.716	0.052
444.984	496.446	370.716	0.053
444.984	496.448	370.718	0.053
444.984	496.452	370.719	0.052
444.985	496.447	370.717	0.053
444.985	496.453	370.719	0.053
484.952	497.53	386.13	0.056
484.952	497.535	386.131	0.055
484.952	497.55	386.141	0.055
484.952	497.554	386.142	0.055
484.954	497.524	386.129	0.056
484.954	497.556	386.144	0.055
484.956	539.523	386.002	0.056
484.956	497.549	386.136	0.055
484.956	497.546	386.137	0.055
484.956	497.548	386.138	0.056
484.957	539.513	386	0.055
484.957	539.519	386.002	0.057
