Measured thermophysical data. The study of molecular interactions in 1-ethyl-3-methylimidazolium trifluoromethanesulfonate + 1-pentanol from density, speed of sound and refractive index measurements
Source: J. Chem. Thermodyn., 2016, 10.1016/j.jct.2016.03.014
Compound 1: 1-ethyl-3-methylimidazolium trifluoromethanesulfonate, C7H11F3N2O3S, InChI=1S/C6H11N2.CHF3O3S/c1-3-8-5-4-7(2)6-8;2-1(3,4)8(5,6)7/h4-6H,3H2,1-2H3;(H,5,6,7)/q+1;/p-1, purity 99%
Compound 2: pentan-1-ol, C5H12O, InChI=1S/C5H12O/c1-2-3-4-5-6/h6H,2-5H2,1H3, purity 99%

System: 1-ethyl-3-methylimidazolium trifluoromethanesulfonate; phases: Liquid
Fixed: Pressure, kPa = 101.3
Property: Mass density, kg/m3 (Liquid); method: Vibrating tube method
Temperature, K	Mass density, kg/m3	uncertainty
298.15	1382.8	2.1
308.15	1374.4	2.1
318.15	1366.1	2.1
328.15	1357.9	2.1

System: 1-ethyl-3-methylimidazolium trifluoromethanesulfonate; phases: Liquid
Fixed: Pressure, kPa = 101.3
Fixed: Frequency, MHz = 3
Property: Speed of sound, m/s (Liquid); method: Sing-around technique in a fixed-path interferometer
Temperature, K	Speed of sound, m/s	uncertainty
298.15	1435.8	1.6
308.15	1413.5	1.6
318.15	1391.4	1.6
328.15	1369.8	1.5

System: 1-ethyl-3-methylimidazolium trifluoromethanesulfonate; phases: Liquid
Fixed: Pressure, kPa = 101.3
Property: Refractive index (Na D-line) (Liquid); method: Standard Abbe refractometry
Temperature, K	Refractive index (Na D-line)	uncertainty
298.15	1.43381	0.00037
308.15	1.43081	0.00037
318.15	1.42719	0.00037
328.15	1.4244	0.00037

System: pentan-1-ol; phases: Liquid
Fixed: Pressure, kPa = 101.3
Property: Mass density, kg/m3 (Liquid); method: Vibrating tube method
Temperature, K	Mass density, kg/m3	uncertainty
298.15	811.1	2
308.15	803.7	2
318.15	796.1	2
328.15	788.4	2

System: pentan-1-ol; phases: Liquid
Fixed: Pressure, kPa = 101.3
Fixed: Frequency, MHz = 3
Property: Speed of sound, m/s (Liquid); method: Sing-around technique in a fixed-path interferometer
Temperature, K	Speed of sound, m/s	uncertainty
298.15	1274.9	1.5
308.15	1241.4	1.5
318.15	1208.2	1.5
328.15	1175.3	1.5

System: pentan-1-ol; phases: Liquid
Fixed: Pressure, kPa = 101.3
Property: Refractive index (Na D-line) (Liquid); method: Standard Abbe refractometry
Temperature, K	Refractive index (Na D-line)	uncertainty
298.15	1.4079	0.00037
308.15	1.40379	0.00037
318.15	1.3997	0.00037
328.15	1.39542	0.00037

System: pentan-1-ol + 1-ethyl-3-methylimidazolium trifluoromethanesulfonate; phases: Liquid
Fixed: Pressure, kPa = 101.3
Property: Mass density, kg/m3 (Liquid); method: Vibrating tube method
Temperature, K	Mole fraction of 1-ethyl-3-methylimidazolium trifluoromethanesulfonate	Mass density, kg/m3	uncertainty
298.15	0	811.1	2
298.15	0.0521	860.9	2
298.15	0.1002	903.9	2
298.15	0.1485	944.4	2
298.15	0.1915	978.3	2
298.15	0.2792	1041.8	2
298.15	0.4059	1122.2	2
298.15	0.4298	1136	2
298.15	0.5643	1207.4	2
298.15	0.6703	1256.9	2
298.15	0.7635	1296.4	2.1
298.15	0.8284	1321.9	2.1
298.15	0.892	1345.5	2.1
298.15	0.9493	1365.7	2.1
298.15	1	1382.8	2.1
308.15	0	803.7	2
308.15	0.0521	853.4	2
308.15	0.1002	896.3	2
308.15	0.1485	936.7	2
308.15	0.1915	970.5	2
308.15	0.2792	1033.9	2
308.15	0.4059	1114.1	2
308.15	0.4298	1128	2
308.15	0.5643	1199.3	2
308.15	0.6703	1248.7	2
308.15	0.7635	1288.2	2.1
308.15	0.8284	1313.7	2.1
308.15	0.892	1337.2	2.1
308.15	0.9493	1357.4	2.1
308.15	1	1374.4	2.1
318.15	0	796.1	2
318.15	0.0521	845.8	2
318.15	0.1002	888.6	2
318.15	0.1485	928.9	2
318.15	0.1915	962.7	2
318.15	0.2792	1026	2
318.15	0.4059	1106.2	2
318.15	0.4298	1120	2
318.15	0.5643	1191.3	2
318.15	0.6703	1240.6	2
318.15	0.7635	1280	2.1
318.15	0.8284	1305.5	2.1
318.15	0.892	1329	2.1
318.15	0.9493	1349.1	2.1
318.15	1	1366.1	2.1
328.15	0	788.4	2
328.15	0.0521	838	2
328.15	0.1002	880.8	2
328.15	0.1485	921.1	2
328.15	0.1915	954.8	2
328.15	0.2792	1018	2
328.15	0.4059	1098.2	2
328.15	0.4298	1112	2
328.15	0.5643	1183.2	2
328.15	0.6703	1232.5	2
328.15	0.7635	1271.9	2.1
328.15	0.8284	1297.3	2.1
328.15	0.892	1320.8	2.1
328.15	0.9493	1340.9	2.1
328.15	1	1357.9	2.1

System: pentan-1-ol + 1-ethyl-3-methylimidazolium trifluoromethanesulfonate; phases: Liquid
Fixed: Pressure, kPa = 101.3
Fixed: Frequency, MHz = 3
Property: Speed of sound, m/s (Liquid); method: Sing-around technique in a fixed-path interferometer
Temperature, K	Mole fraction of 1-ethyl-3-methylimidazolium trifluoromethanesulfonate	Speed of sound, m/s	uncertainty
298.15	0	1274.9	1.5
298.15	0.0521	1271.7	1.5
298.15	0.1002	1271.4	1.5
298.15	0.1485	1273.4	1.5
298.15	0.1915	1276.8	1.5
298.15	0.2792	1287.9	1.5
298.15	0.4059	1312	1.5
298.15	0.4298	1317.4	1.5
298.15	0.5643	1348.1	1.5
298.15	0.6703	1373.9	1.6
298.15	0.7635	1395.2	1.6
298.15	0.8284	1410	1.6
298.15	0.892	1423.1	1.6
298.15	0.9493	1431.8	1.6
298.15	1	1435.8	1.6
308.15	0	1241.4	1.5
308.15	0.0521	1240.2	1.5
308.15	0.1002	1241.4	1.5
308.15	0.1485	1244.7	1.5
308.15	0.1915	1249.1	1.5
308.15	0.2792	1261.6	1.5
308.15	0.4059	1287.2	1.5
308.15	0.4298	1292.8	1.5
308.15	0.5643	1324.4	1.5
308.15	0.6703	1350.8	1.5
308.15	0.7635	1372.4	1.6
308.15	0.8284	1387.5	1.6
308.15	0.892	1400.8	1.6
308.15	0.9493	1409.5	1.6
308.15	1	1413.5	1.6
318.15	0	1208.2	1.5
318.15	0.0521	1208.8	1.5
318.15	0.1002	1211.5	1.5
318.15	0.1485	1216.1	1.5
318.15	0.1915	1221.4	1.5
318.15	0.2792	1235.5	1.5
318.15	0.4059	1262.7	1.5
318.15	0.4298	1268.5	1.5
318.15	0.5643	1301.1	1.5
318.15	0.6703	1328	1.5
318.15	0.7635	1350.1	1.5
318.15	0.8284	1365.4	1.5
318.15	0.892	1378.7	1.6
318.15	0.9493	1387.5	1.6
318.15	1	1391.4	1.6
328.15	0	1175.3	1.5
328.15	0.0521	1177.7	1.5
328.15	0.1002	1181.9	1.5
328.15	0.1485	1187.7	1.5
328.15	0.1915	1194	1.5
328.15	0.2792	1209.7	1.5
328.15	0.4059	1238.5	1.5
328.15	0.4298	1244.5	1.5
328.15	0.5643	1278.1	1.5
328.15	0.6703	1305.7	1.5
328.15	0.7635	1328.1	1.5
328.15	0.8284	1343.6	1.5
328.15	0.892	1357.1	1.5
328.15	0.9493	1366	1.5
328.15	1	1369.8	1.5

System: pentan-1-ol + 1-ethyl-3-methylimidazolium trifluoromethanesulfonate; phases: Liquid
Fixed: Pressure, kPa = 101.3
Property: Refractive index (Na D-line) (Liquid); method: Standard Abbe refractometry
Temperature, K	Mole fraction of 1-ethyl-3-methylimidazolium trifluoromethanesulfonate	Refractive index (Na D-line)	uncertainty
298.15	0	1.4079	0.00037
298.15	0.0521	1.4102	0.00037
298.15	0.1002	1.4122	0.00037
298.15	0.1485	1.41412	0.00037
298.15	0.1915	1.41577	0.00037
298.15	0.2792	1.41877	0.00037
298.15	0.4059	1.42259	0.00037
298.15	0.4298	1.42325	0.00037
298.15	0.5643	1.42632	0.00037
298.15	0.6703	1.42839	0.00037
298.15	0.7635	1.42996	0.00037
298.15	0.8284	1.43112	0.00037
298.15	0.892	1.43212	0.00037
298.15	0.9493	1.43301	0.00037
298.15	1	1.43381	0.00037
308.15	0	1.40379	0.00037
308.15	0.0521	1.4062	0.00037
308.15	0.1002	1.40831	0.00037
308.15	0.1485	1.41032	0.00037
308.15	0.1915	1.41206	0.00037
308.15	0.2792	1.41519	0.00037
308.15	0.4059	1.41918	0.00037
308.15	0.4298	1.41986	0.00037
308.15	0.5643	1.42305	0.00037
308.15	0.6703	1.4252	0.00037
308.15	0.7635	1.42682	0.00037
308.15	0.8284	1.42802	0.00037
308.15	0.892	1.42907	0.00037
308.15	0.9493	1.42999	0.00037
308.15	1	1.43081	0.00037
318.15	0	1.3997	0.00037
318.15	0.0521	1.40218	0.00037
318.15	0.1002	1.40433	0.00037
318.15	0.1485	1.40639	0.00037
318.15	0.1915	1.40817	0.00037
318.15	0.2792	1.41137	0.00037
318.15	0.4059	1.41545	0.00037
318.15	0.4298	1.41615	0.00037
318.15	0.5643	1.41939	0.00037
318.15	0.6703	1.42155	0.00037
318.15	0.7635	1.42317	0.00037
318.15	0.8284	1.42437	0.00037
318.15	0.892	1.42545	0.00037
318.15	0.9493	1.42638	0.00037
318.15	1	1.42719	0.00037
328.15	0	1.39542	0.00037
328.15	0.0521	1.39803	0.00037
328.15	0.1002	1.40034	0.00037
328.15	0.1485	1.40256	0.00037
328.15	0.1915	1.40448	0.00037
328.15	0.2792	1.40788	0.00037
328.15	0.4059	1.41211	0.00037
328.15	0.4298	1.41285	0.00037
328.15	0.5643	1.41631	0.00037
328.15	0.6703	1.41854	0.00037
328.15	0.7635	1.42017	0.00037
328.15	0.8284	1.42144	0.00037
328.15	0.892	1.42257	0.00037
328.15	0.9493	1.42357	0.00037
328.15	1	1.4244	0.00037
