Measured thermophysical data. Asymmetric liquid-liquid criticality in the ideal volumetric mixing approximation
Source: J. Chem. Thermodyn., 2019, 10.1016/j.jct.2018.08.035
Compound 1: nitromethane, CH3NO2, InChI=1S/CH3NO2/c1-2(3)4/h1H3, purity 99%
Compound 2: 3-pentanol, C5H12O, InChI=1S/C5H12O/c1-3-5(6)4-2/h5-6H,3-4H2,1-2H3, purity 98%

System: nitromethane; phases: Liquid
Property: Mass density, kg/m3 (Liquid); method: Vibrating tube method
Temperature, K	Pressure, kPa	Mass density, kg/m3	uncertainty
298.15	101.325	1131.1	2.3

System: 3-pentanol; phases: Liquid
Property: Mass density, kg/m3 (Liquid); method: Vibrating tube method
Temperature, K	Pressure, kPa	Mass density, kg/m3	uncertainty
298.15	101.325	815.8	1.7

System: nitromethane + 3-pentanol; phases: Liquid mixture 1, Liquid mixture 2
Fixed: Pressure, kPa = 100
Property: Liquid-liquid equilibrium temperature, K (Liquid mixture 1); method: VISOBS
Mole fraction of 3-pentanol	Liquid-liquid equilibrium temperature, K	uncertainty
0.629	290.16	0.22
0.615	290.46	0.22
0.587	290.95	0.22
0.573	291.15	0.22
0.546	291.46	0.21
0.488	291.66	0.21
0.486	291.65	0.21
0.414	291.75	0.21
0.407	291.76	0.21
0.382	291.65	0.21
0.363	291.66	0.21
0.338	291.56	0.21
0.325	291.46	0.21
0.3	291.16	0.22
0.275	290.75	0.22
0.266	290.66	0.22
0.246	290.06	0.22

System: nitromethane + 3-pentanol; phases: Liquid
Fixed: Pressure, kPa = 100
Property: Mass density, kg/m3 (Liquid); method: Vibrating tube method
Temperature, K	Mole fraction of 3-pentanol	Mass density, kg/m3	uncertainty
298.15	0.629	879.94	1.879
297.154	0.629	880.972	1.882
296.156	0.629	882.004	1.884
295.152	0.629	883.039	1.887
294.155	0.629	884.073	1.889
293.156	0.629	885.109	1.891
292.157	0.629	886.146	1.894
291.155	0.629	887.189	1.896
290.155	0.629	888.276	1.9
298.151	0.615	883.332	1.884
297.155	0.615	884.375	1.886
296.155	0.615	885.416	1.888
295.155	0.615	886.458	1.891
294.155	0.615	887.502	1.893
293.157	0.615	888.546	1.895
292.156	0.615	889.595	1.898
292.054	0.615	889.701	1.898
291.954	0.615	889.805	1.898
291.854	0.615	889.909	1.898
291.754	0.615	890.018	1.899
291.654	0.615	890.121	1.899
291.555	0.615	890.227	1.899
291.454	0.615	890.332	1.899
291.355	0.615	890.441	1.9
291.253	0.615	890.547	1.9
291.154	0.615	890.652	1.901
291.055	0.615	890.758	1.901
290.954	0.615	890.865	1.901
290.855	0.615	890.972	1.902
290.754	0.615	891.079	1.902
290.655	0.615	891.207	1.903
290.554	0.615	891.334	1.902
290.455	0.615	891.445	1.902
298.149	0.587	890.042	1.896
297.156	0.587	891.096	1.898
296.156	0.587	892.153	1.9
295.152	0.587	893.213	1.903
294.155	0.587	894.274	1.905
293.156	0.587	895.341	1.908
292.156	0.587	896.411	1.91
292.056	0.587	896.519	1.91
291.955	0.587	896.628	1.911
291.855	0.587	896.735	1.911
291.757	0.587	896.844	1.911
291.656	0.587	896.95	1.911
291.555	0.587	897.059	1.912
291.455	0.587	897.17	1.912
291.356	0.587	897.278	1.912
291.255	0.587	897.388	1.913
291.156	0.587	897.497	1.913
291.055	0.587	897.593	1.913
290.953	0.587	897.749	1.912
298.151	0.573	893.615	1.905
297.155	0.573	894.678	1.907
296.156	0.573	895.746	1.909
295.157	0.573	896.815	1.912
294.155	0.573	897.886	1.914
293.156	0.573	898.962	1.917
292.156	0.573	900.046	1.92
292.051	0.573	900.153	1.92
291.951	0.573	900.26	1.92
291.853	0.573	900.371	1.92
291.752	0.573	900.482	1.92
291.653	0.573	900.591	1.921
291.552	0.573	900.7	1.921
291.453	0.573	900.812	1.921
291.354	0.573	900.922	1.924
291.253	0.573	901.031	1.924
291.152	0.573	901.117	1.924
298.15	0.546	900.318	1.92
297.156	0.546	901.393	1.922
296.156	0.546	902.476	1.925
295.151	0.546	903.56	1.927
294.155	0.546	904.649	1.93
293.155	0.546	905.746	1.932
292.156	0.546	906.853	1.935
292.056	0.546	906.966	1.935
291.956	0.546	907.079	1.936
291.856	0.546	907.193	1.936
291.755	0.546	907.305	1.936
291.655	0.546	907.417	1.937
291.556	0.546	907.531	1.936
291.455	0.546	907.652	1.936
298.15	0.488	915.564	1.956
297.154	0.488	916.67	1.959
296.156	0.488	917.785	1.961
295.152	0.488	918.905	1.964
294.155	0.488	920.031	1.966
293.156	0.488	921.165	1.969
292.155	0.488	922.322	1.974
292.055	0.488	922.439	1.972
291.955	0.488	922.559	1.972
291.855	0.488	922.68	1.973
291.754	0.488	922.803	1.972
291.655	0.488	922.941	1.973
298.15	0.486	916.279	1.957
297.155	0.486	917.385	1.96
296.156	0.486	918.503	1.962
295.154	0.486	919.625	1.965
294.155	0.486	920.751	1.967
293.156	0.486	921.889	1.97
292.152	0.486	923.052	1.975
292.053	0.486	923.167	1.973
291.953	0.486	923.287	1.973
291.852	0.486	923.411	1.974
291.752	0.486	923.534	1.973
291.653	0.486	923.683	1.974
298.151	0.414	937.32	2.016
298.151	0.414	937.319	2.016
297.154	0.414	938.464	2.019
296.151	0.414	939.619	2.022
295.154	0.414	940.778	2.024
294.155	0.414	941.945	2.026
293.156	0.414	943.126	2.029
292.152	0.414	944.336	2.032
292.052	0.414	944.459	2.033
291.952	0.414	944.587	2.033
291.853	0.414	944.718	2.039
291.753	0.414	944.629	2.053
298.149	0.407	939.572	2.021
297.153	0.407	940.724	2.023
296.156	0.407	941.881	2.026
295.155	0.407	943.045	2.028
294.154	0.407	944.215	2.031
293.156	0.407	945.397	2.033
292.156	0.407	946.608	2.036
292.056	0.407	946.736	2.036
291.955	0.407	946.861	2.036
291.855	0.407	946.991	2.037
291.756	0.407	947.126	2.04
298.15	0.382	947.647	2.039
297.155	0.382	948.809	2.041
296.155	0.382	949.976	2.044
295.154	0.382	951.15	2.046
294.155	0.382	952.329	2.049
293.156	0.382	953.524	2.051
292.155	0.382	954.742	2.054
292.053	0.382	954.866	2.054
291.954	0.382	954.991	2.054
291.854	0.382	955.119	2.054
291.753	0.382	955.25	2.054
291.653	0.382	955.241	2.066
298.15	0.363	954.105	2.056
297.154	0.363	955.27	2.059
296.156	0.363	956.447	2.061
295.151	0.363	957.627	2.064
294.155	0.363	958.817	2.066
293.156	0.363	960.014	2.069
292.157	0.363	961.234	2.071
292.056	0.363	961.36	2.072
291.955	0.363	961.485	2.072
291.856	0.363	961.613	2.072
291.755	0.363	961.743	2.072
291.655	0.363	961.876	2.074
298.153	0.338	962.62	2.076
297.152	0.338	963.801	2.078
296.154	0.338	964.988	2.081
295.155	0.338	966.179	2.083
294.152	0.338	967.375	2.086
293.155	0.338	968.578	2.088
292.155	0.338	969.8	2.091
292.055	0.338	969.925	2.091
291.954	0.338	970.048	2.091
291.854	0.338	970.173	2.091
291.753	0.338	970.303	2.091
291.655	0.338	970.427	2.092
291.555	0.338	970.561	2.105
298.149	0.325	967.413	2.099
297.155	0.325	968.596	2.101
296.156	0.325	969.786	2.104
295.151	0.325	970.983	2.106
294.154	0.325	972.183	2.109
293.156	0.325	973.389	2.111
292.155	0.325	974.609	2.113
292.056	0.325	974.734	2.114
291.955	0.325	974.857	2.114
291.855	0.325	974.982	2.114
291.755	0.325	975.108	2.114
291.654	0.325	975.23	2.114
291.556	0.325	975.358	2.115
291.456	0.325	975.497	2.115
298.151	0.3	976.66	2.116
297.154	0.3	977.857	2.119
296.156	0.3	979.058	2.121
295.151	0.3	980.26	2.124
294.155	0.3	981.466	2.126
293.156	0.3	982.679	2.129
292.156	0.3	983.896	2.131
292.055	0.3	984.022	2.131
291.955	0.3	984.145	2.131
291.854	0.3	984.268	2.132
291.755	0.3	984.391	2.132
291.656	0.3	984.514	2.132
291.555	0.3	984.639	2.132
291.456	0.3	984.765	2.132
291.356	0.3	984.888	2.134
291.255	0.3	985.014	2.134
291.155	0.3	985.201	2.133
298.15	0.275	986.032	2.136
297.156	0.275	987.23	2.138
296.153	0.275	988.439	2.14
295.154	0.275	989.651	2.143
294.155	0.275	990.864	2.145
293.156	0.275	992.082	2.148
292.156	0.275	993.303	2.151
292.053	0.275	993.426	2.15
291.955	0.275	993.548	2.151
291.854	0.275	993.671	2.151
291.753	0.275	993.795	2.151
291.653	0.275	993.918	2.151
291.552	0.275	994.042	2.152
291.454	0.275	994.165	2.152
291.354	0.275	994.289	2.152
291.255	0.275	994.413	2.152
291.154	0.275	994.538	2.151
291.053	0.275	994.663	2.161
290.954	0.275	994.793	2.16
290.854	0.275	994.946	2.153
290.754	0.275	995.309	2.142
298.151	0.266	989.517	2.17
297.154	0.266	990.728	2.173
296.156	0.266	991.939	2.176
295.151	0.266	993.153	2.178
294.155	0.266	994.369	2.18
293.155	0.266	995.587	2.183
292.157	0.266	996.81	2.184
292.056	0.266	996.934	2.185
291.956	0.266	997.055	2.186
291.855	0.266	997.179	2.186
291.754	0.266	997.302	2.186
291.655	0.266	997.425	2.186
291.556	0.266	997.549	2.187
291.456	0.266	997.671	2.187
291.356	0.266	997.796	2.187
291.255	0.266	997.918	2.187
291.155	0.266	998.042	2.187
291.055	0.266	998.167	2.188
290.955	0.266	998.292	2.188
290.855	0.266	998.415	2.187
290.755	0.266	998.54	2.183
290.656	0.266	998.714	2.193
298.147	0.246	998.021	2.192
297.155	0.246	999.224	2.194
296.156	0.246	1000.443	2.196
295.154	0.246	1001.663	2.199
294.155	0.246	1002.883	2.201
293.156	0.246	1004.108	2.204
292.151	0.246	1005.333	2.206
292.051	0.246	1005.454	2.206
291.952	0.246	1005.577	2.207
291.852	0.246	1005.702	2.207
291.751	0.246	1005.825	2.207
291.653	0.246	1005.947	2.208
291.552	0.246	1006.071	2.208
291.453	0.246	1006.194	2.208
291.351	0.246	1006.317	2.208
291.253	0.246	1006.44	2.209
291.152	0.246	1006.564	2.209
291.053	0.246	1006.688	2.209
290.953	0.246	1006.811	2.209
290.853	0.246	1006.935	2.209
290.753	0.246	1007.055	2.21
290.653	0.246	1007.182	2.208
290.554	0.246	1007.306	2.208
290.454	0.246	1007.429	2.208
290.353	0.246	1007.556	2.209
290.253	0.246	1007.681	2.194
290.154	0.246	1007.823	2.189
290.055	0.246	1008.035	2.167

System: nitromethane + 3-pentanol; phases: Liquid
Fixed: Pressure, kPa = 100
Property: Mass density, kg/m3 (Liquid); method: Vibrating tube method
Temperature, K	Mole fraction of 3-pentanol	Mass density, kg/m3	uncertainty
289.655	0.629	896.019	2.35
289.554	0.629	901.33	2.009
289.454	0.629	901.973	1.88
289.355	0.629	902.109	2.169
289.255	0.629	902.36	2.229
289.155	0.629	902.484	2.229
289.056	0.629	902.563	2.235
288.955	0.629	902.639	2.234
288.855	0.629	902.656	2.252
288.755	0.629	902.883	2.266
288.656	0.629	902.916	2.262
288.555	0.629	903.023	2.158
288.456	0.629	903.194	2.156
288.355	0.629	903.208	2.156
288.256	0.629	903.249	2.159
288.156	0.629	903.339	2.165
288.056	0.629	903.559	2.061
287.956	0.629	903.653	2.058
287.856	0.629	903.73	2.056
287.755	0.629	903.747	2.062
287.656	0.629	904.02	2.029
287.553	0.629	904.105	2.003
287.453	0.629	904.174	2.003
287.353	0.629	904.234	1.985
287.254	0.629	904.302	1.977
287.154	0.629	904.324	1.985
287.054	0.629	904.424	2.007
286.953	0.629	904.586	2.009
290.354	0.615	896.796	2.146
290.254	0.615	896.918	2.225
290.155	0.615	897.189	2.29
290.055	0.615	897.967	2.29
289.955	0.615	902.235	2.235
289.856	0.615	902.789	2.144
289.755	0.615	902.898	2.396
289.655	0.615	903.013	2.295
289.556	0.615	903.035	2.193
289.456	0.615	903.573	2.272
289.355	0.615	909.942	2.275
289.256	0.615	910.892	2.138
289.155	0.615	911.044	2.249
290.853	0.587	900.983	2.461
290.755	0.587	904.315	2.421
290.653	0.587	907.308	2.204
290.554	0.587	907.457	2.393
290.454	0.587	911.848	2.281
290.353	0.587	912.051	2.186
290.253	0.587	914.293	2.327
290.154	0.587	916.211	2.293
290.054	0.587	916.65	2.306
289.953	0.587	917.014	2.207
289.854	0.587	917.506	2.357
289.754	0.587	924.024	2.367
289.654	0.587	923.409	2.368
289.555	0.587	923.551	2.404
289.454	0.587	923.684	2.453
289.355	0.587	923.859	2.255
289.255	0.587	924.098	2.299
289.156	0.587	928.424	2.474
291.051	0.573	903.111	2.736
290.954	0.573	908.776	2.501
290.853	0.573	911.261	2.407
290.753	0.573	914.122	2.322
290.655	0.573	914.236	2.334
290.554	0.573	918.841	2.395
290.454	0.573	918.938	2.309
290.354	0.573	919.469	2.397
290.253	0.573	924.811	2.36
290.154	0.573	923.887	2.3
290.054	0.573	925.737	2.355
289.955	0.573	926.782	2.383
289.853	0.573	928.807	2.392
289.754	0.573	929.383	2.276
289.654	0.573	932.207	2.338
289.553	0.573	934.004	2.351
289.454	0.573	936.914	2.357
289.355	0.573	936.899	2.353
289.254	0.573	937.432	2.365
289.155	0.573	937.786	2.347
291.356	0.546	910.024	2.548
291.256	0.546	917.045	2.385
291.156	0.546	921.069	2.192
291.056	0.546	924.902	2.183
290.955	0.546	927.124	2.206
290.854	0.546	930.124	2.184
290.752	0.546	931.465	2.174
290.654	0.546	933.71	2.209
290.554	0.546	936.105	2.192
290.453	0.546	938.388	2.186
290.353	0.546	939.634	2.191
290.253	0.546	941.205	2.165
290.154	0.546	942.592	2.186
290.055	0.546	944.207	2.18
289.955	0.546	945.729	2.179
289.853	0.546	946.847	2.176
289.754	0.546	947.686	2.186
289.655	0.546	949.056	2.177
289.554	0.546	950.242	2.173
289.454	0.546	951.819	2.161
289.355	0.546	952.752	2.168
289.255	0.546	953.328	2.186
289.154	0.546	955.829	2.179
291.55	0.488	932.33	2.179
291.451	0.488	935.781	2.176
291.353	0.488	939.641	2.279
291.253	0.488	944.104	2.245
291.153	0.488	947.64	2.096
291.05	0.488	945.483	2.136
290.954	0.488	952.742	2.274
290.854	0.488	954.397	2.119
290.755	0.488	956.964	2.118
290.655	0.488	958.456	2.106
290.555	0.488	960.605	2.107
290.453	0.488	962.338	2.1
290.355	0.488	964.297	2.096
290.254	0.488	965.719	2.088
290.155	0.488	967.145	2.084
290.055	0.488	967.998	2.085
289.955	0.488	969.425	2.101
289.854	0.488	971.375	2.103
289.755	0.488	972.561	2.098
289.655	0.488	973.516	2.1
289.555	0.488	974.397	2.106
289.455	0.488	975.638	2.117
289.355	0.488	977.267	2.12
289.255	0.488	978.223	2.116
289.155	0.488	978.895	2.101
291.549	0.486	933.844	2.299
291.454	0.486	938.691	2.201
291.353	0.486	943.014	2.291
291.254	0.486	947.303	2.255
291.153	0.486	951.113	2.203
291.053	0.486	954.019	2.164
290.953	0.486	956.644	2.14
290.853	0.486	958.566	2.12
290.754	0.486	960.473	2.117
290.653	0.486	962.186	2.105
290.554	0.486	963.548	2.107
290.452	0.486	965.653	2.103
290.353	0.486	966.969	2.091
290.254	0.486	968.242	2.097
290.154	0.486	970.021	2.099
290.055	0.486	971.285	2.09
289.955	0.486	972.227	2.088
289.854	0.486	973.161	2.098
289.753	0.486	974.653	2.109
289.655	0.486	975.844	2.108
289.554	0.486	976.784	2.108
289.454	0.486	977.635	2.113
289.355	0.486	978.988	2.119
289.254	0.486	979.734	2.119
289.154	0.486	980.562	2.107
291.65	0.414	956.971	2.179
291.554	0.414	961.374	2.143
291.453	0.414	965.499	2.105
291.354	0.414	968.504	2.063
291.255	0.414	970.955	2.041
291.154	0.414	973.001	2.03
291.054	0.414	974.647	2.022
290.954	0.414	976.042	2.019
290.855	0.414	977.244	2.017
290.755	0.414	978.364	2.015
290.654	0.414	979.293	2.014
290.554	0.414	980.125	2.013
290.454	0.414	980.935	2.014
290.354	0.414	981.695	2.015
290.253	0.414	982.887	2.018
290.154	0.414	984.081	2.02
290.055	0.414	985.261	2.025
289.954	0.414	986.685	2.038
289.854	0.414	988.452	2.046
289.754	0.414	990.174	2.054
289.655	0.414	991.992	2.053
289.555	0.414	993.6	2.051
289.455	0.414	995.114	2.053
289.355	0.414	996.775	2.058
289.255	0.414	998.161	2.055
291.653	0.407	957.953	2.075
291.552	0.407	961.145	2.134
291.453	0.407	965.925	2.14
291.354	0.407	969.156	2.069
291.254	0.407	971.578	2.046
291.154	0.407	973.664	2.036
291.054	0.407	975.346	2.029
290.954	0.407	976.76	2.025
290.854	0.407	977.974	2.023
290.755	0.407	979.022	2.024
290.655	0.407	979.953	2.024
290.554	0.407	980.769	2.026
290.454	0.407	981.549	2.029
290.354	0.407	982.318	2.03
290.254	0.407	983.056	2.033
290.154	0.407	984.083	2.035
290.055	0.407	985.25	2.037
289.956	0.407	986.452	2.041
289.854	0.407	988.132	2.045
289.754	0.407	989.735	2.05
289.654	0.407	991.642	2.052
289.554	0.407	993.27	2.051
289.455	0.407	994.989	2.049
289.355	0.407	996.236	2.05
289.255	0.407	997.887	2.057
289.154	0.407	999.35	2.085
291.551	0.382	965.717	2.108
291.453	0.382	968.647	2.093
291.353	0.382	972.169	2.095
291.253	0.382	974.837	2.063
291.153	0.382	977.024	2.048
291.053	0.382	978.765	2.036
290.954	0.382	980.189	2.028
290.854	0.382	981.337	2.028
290.755	0.382	982.614	2.031
290.654	0.382	983.656	2.031
290.554	0.382	984.63	2.034
290.454	0.382	985.548	2.036
290.353	0.382	986.379	2.038
290.254	0.382	987.239	2.041
290.154	0.382	987.982	2.04
290.055	0.382	988.825	2.041
289.955	0.382	989.628	2.039
289.854	0.382	990.377	2.038
289.754	0.382	991.551	2.04
289.655	0.382	992.659	2.035
289.555	0.382	993.579	2.035
289.454	0.382	994.795	2.047
289.355	0.382	996.614	2.06
289.255	0.382	998.358	2.058
289.154	0.382	999.889	2.053
291.556	0.363	967.75	2.134
291.456	0.363	971.707	2.151
291.356	0.363	976.137	2.092
291.256	0.363	978.023	2.045
291.156	0.363	980.295	2.04
291.055	0.363	981.518	2.026
290.953	0.363	982.374	2.028
290.854	0.363	983.532	2.038
290.754	0.363	984.963	2.04
290.654	0.363	986.092	2.038
290.553	0.363	987.195	2.038
290.454	0.363	988.212	2.039
290.353	0.363	989.111	2.04
290.254	0.363	990.096	2.041
290.154	0.363	990.879	2.042
290.055	0.363	991.838	2.042
289.956	0.363	992.594	2.042
289.854	0.363	993.362	2.043
289.755	0.363	994.035	2.039
289.655	0.363	994.656	2.039
289.555	0.363	995.361	2.039
289.454	0.363	996.016	2.038
289.355	0.363	996.975	2.044
289.255	0.363	998.168	2.053
289.154	0.363	999.874	2.082
291.454	0.338	972.479	2.152
291.355	0.338	976.695	2.13
291.254	0.338	980.22	2.087
291.155	0.338	982.822	2.058
291.055	0.338	984.897	2.046
290.955	0.338	986.437	2.044
290.855	0.338	987.682	2.045
290.755	0.338	988.906	2.042
290.656	0.338	989.957	2.04
290.555	0.338	990.851	2.04
290.456	0.338	991.804	2.04
290.354	0.338	992.611	2.041
290.256	0.338	993.457	2.042
290.156	0.338	994.25	2.042
290.055	0.338	994.875	2.041
289.956	0.338	995.659	2.043
289.856	0.338	996.331	2.043
289.756	0.338	996.84	2.045
289.656	0.338	997.588	2.048
289.557	0.338	998.17	2.044
289.455	0.338	998.278	2.049
289.353	0.338	999.725	2.059
289.253	0.338	1000.751	2.053
289.154	0.338	1001.68	2.051
291.356	0.325	976.768	2.096
291.255	0.325	980.203	2.1
291.155	0.325	983.513	2.071
291.055	0.325	985.699	2.045
290.955	0.325	987.695	2.038
290.855	0.325	989.272	2.03
290.756	0.325	990.346	2.028
290.656	0.325	991.399	2.034
290.556	0.325	992.372	2.04
290.456	0.325	993.308	2.045
290.357	0.325	994.188	2.051
290.253	0.325	995.232	2.051
290.154	0.325	995.904	2.048
290.054	0.325	996.695	2.052
289.954	0.325	997.479	2.056
289.853	0.325	998.305	2.06
289.754	0.325	999.093	2.064
289.655	0.325	999.918	2.066
289.554	0.325	1000.44	2.066
289.454	0.325	1001.04	2.074
289.355	0.325	1001.716	2.07
289.253	0.325	1002.276	2.068
289.154	0.325	1002.844	2.076
291.055	0.3	986.306	2.034
290.955	0.3	988.13	2.044
290.855	0.3	990.332	2.049
290.756	0.3	992.118	2.051
290.656	0.3	994.016	2.056
290.556	0.3	995.648	2.052
290.456	0.3	997.097	2.052
290.353	0.3	998.453	2.051
290.253	0.3	999.25	2.05
290.154	0.3	999.813	2.056
290.055	0.3	1000.597	2.064
289.955	0.3	1001.594	2.072
289.854	0.3	1002.582	2.076
289.754	0.3	1003.474	2.08
289.654	0.3	1004.383	2.082
289.554	0.3	1005.094	2.085
289.454	0.3	1005.82	2.088
289.354	0.3	1006.576	2.09
289.253	0.3	1007.17	2.093
289.154	0.3	1007.805	2.101
290.655	0.275	996.456	2.034
290.555	0.275	997.256	2.041
290.455	0.275	998.669	2.054
290.355	0.275	1000.444	2.063
290.254	0.275	1002.124	2.066
290.155	0.275	1003.663	2.069
290.055	0.275	1005.076	2.073
289.955	0.275	1006.414	2.077
289.854	0.275	1007.696	2.08
289.755	0.275	1008.78	2.084
289.655	0.275	1009.823	2.087
289.555	0.275	1010.742	2.091
289.455	0.275	1011.52	2.097
289.355	0.275	1012.407	2.102
289.255	0.275	1013.219	2.104
289.154	0.275	1013.849	2.101
290.556	0.266	999.223	2.077
290.456	0.266	1000.037	2.071
290.356	0.266	1001.614	2.054
290.253	0.266	1002.504	2.039
290.153	0.266	1003.31	2.042
290.054	0.266	1004.429	2.054
289.953	0.266	1005.766	2.065
289.853	0.266	1007.2	2.065
289.754	0.266	1008.567	2.062
289.653	0.266	1009.809	2.062
289.554	0.266	1010.996	2.064
289.454	0.266	1012.22	2.066
289.355	0.266	1013.236	2.067
289.254	0.266	1014.119	2.069
289.154	0.266	1014.935	2.072
289.956	0.246	1008.637	2.069
289.855	0.246	1009.433	2.059
289.754	0.246	1009.911	2.054
289.654	0.246	1010.764	2.058
289.555	0.246	1011.832	2.065
289.454	0.246	1013.134	2.07
289.355	0.246	1014.414	2.074
289.255	0.246	1015.686	2.077
289.155	0.246	1016.834	2.081
