Measured thermophysical data. Liquid-liquid separation of hexane/hex-1-ene and cyclohexane/cyclohexene by dicyanamide-based ionic liquids
Source: J. Chem. Thermodyn., 2018, 10.1016/j.jct.2017.09.014
Compound 1: N-ethyl-N-methylmorpholinium dicyanamide, C9H16N4O, InChI=1S/C7H16NO.C2N3/c1-3-8(2)4-6-9-7-5-8;3-1-5-2-4/h3-7H2,1-2H3;/q+1;-1
Compound 2: 4-(3-hydroxypropyl)-4-methylmorpholinium dicyanamide, C10H18N4O2, InChI=1S/C8H18NO2.C2N3/c1-9(3-2-6-10)4-7-11-8-5-9;3-1-5-2-4/h10H,2-8H2,1H3;/q+1;-1
Compound 3: 1-(3-hydroxypropyl)-3-methylimidazolium dicyanamide, C9H13N5O, InChI=1S/C7H13N2O.C2N3/c1-8-4-5-9(7-8)3-2-6-10;3-1-5-2-4/h4-5,7,10H,2-3,6H2,1H3;/q+1;-1
Compound 4: N-(3-hydroxypropyl)pyridinium dicyanamide, C10H12N4O, InChI=1S/C8H12NO.C2N3/c10-8-4-7-9-5-2-1-3-6-9;3-1-5-2-4/h1-3,5-6,10H,4,7-8H2;/q+1;-1
Compound 5: N-butyronitrilepyridinium dicyanamide, C11H11N5, InChI=1S/C9H11N2.C2N3/c10-6-2-5-9-11-7-3-1-4-8-11;3-1-5-2-4/h1,3-4,7-8H,2,5,9H2;/q+1;-1
Compound 6: 1-(3-cyanopropyl)-1-methylpyrrolidinium dicyanamide, C11H17N5, InChI=1S/C9H17N2.C2N3/c1-11(7-3-2-6-10)8-4-5-9-11;3-1-5-2-4/h2-5,7-9H2,1H3;/q+1;-1
Compound 7: hex-1-ene, C6H12, InChI=1S/C6H12/c1-3-5-6-4-2/h3H,1,4-6H2,2H3
Compound 8: hexane, C6H14, InChI=1S/C6H14/c1-3-5-6-4-2/h3-6H2,1-2H3
Compound 9: cyclohexene, C6H10, InChI=1S/C6H10/c1-2-4-6-5-3-1/h1-2H,3-6H2
Compound 10: cyclohexane, C6H12, InChI=1S/C6H12/c1-2-4-6-5-3-1/h1-6H2

System: N-ethyl-N-methylmorpholinium dicyanamide + hex-1-ene + hexane; phases: Liquid mixture 2, Liquid mixture 1
Fixed: Temperature, K = 298.15
Fixed: Pressure, kPa = 101
Property: Mole fraction of N-ethyl-N-methylmorpholinium dicyanamide (Liquid mixture 2); method: Chromatography
Property: Mole fraction of N-ethyl-N-methylmorpholinium dicyanamide (Liquid mixture 1); method: Chromatography
Property: Mole fraction of hex-1-ene (Liquid mixture 1); method: Chromatography
Mole fraction of hex-1-ene	Mole fraction of N-ethyl-N-methylmorpholinium dicyanamide	uncertainty	Mole fraction of N-ethyl-N-methylmorpholinium dicyanamide	uncertainty	Mole fraction of hex-1-ene	uncertainty
0.009	0.991	0.006	0		1	
0.003	0.994	0.006	0		0.425	
0.002	0.995	0.005	0		0.306	
0.002	0.995	0.005	0		0.212	
0.001	0.995	0.005	0		0.142	
0.001	0.996	0.004	0		0.078	
0	0.996	0.004	0		0	
0.009	0.99	0.006	0		0.913	
0.009	0.991	0.006	0		0.835	
0.008	0.991	0.006	0		0.746	
0.006	0.992	0.006	0		0.62	
0.004	0.993	0.006	0		0.497	

System: 4-(3-hydroxypropyl)-4-methylmorpholinium dicyanamide + hex-1-ene + hexane; phases: Liquid mixture 2, Liquid mixture 1
Fixed: Temperature, K = 298.15
Fixed: Pressure, kPa = 101
Property: Mole fraction of 4-(3-hydroxypropyl)-4-methylmorpholinium dicyanamide (Liquid mixture 2); method: Chromatography
Property: Mole fraction of 4-(3-hydroxypropyl)-4-methylmorpholinium dicyanamide (Liquid mixture 1); method: Chromatography
Property: Mole fraction of hex-1-ene (Liquid mixture 1); method: Chromatography
Mole fraction of hex-1-ene	Mole fraction of 4-(3-hydroxypropyl)-4-methylmorpholinium dicyanamide	uncertainty	Mole fraction of 4-(3-hydroxypropyl)-4-methylmorpholinium dicyanamide	uncertainty	Mole fraction of hex-1-ene	uncertainty
0.016	0.984	0.006	0		1	
0.006	0.99	0.006	0		0.477	
0.004	0.991	0.006	0		0.356	
0.003	0.991	0.006	0		0.26	
0.002	0.992	0.006	0		0.107	
0	0.993	0.006	0		0.055	
0	0.993	0.006	0		0	
0.016	0.984	0.006	0		0.957	
0.015	0.984	0.006	0		0.904	
0.014	0.984	0.006	0		0.837	
0.012	0.986	0.006	0		0.734	
0.009	0.988	0.006	0		0.608	

System: 1-(3-hydroxypropyl)-3-methylimidazolium dicyanamide + hex-1-ene + hexane; phases: Liquid mixture 2, Liquid mixture 1
Fixed: Temperature, K = 298.15
Fixed: Pressure, kPa = 101
Property: Mole fraction of 1-(3-hydroxypropyl)-3-methylimidazolium dicyanamide (Liquid mixture 2); method: Chromatography
Property: Mole fraction of 1-(3-hydroxypropyl)-3-methylimidazolium dicyanamide (Liquid mixture 1); method: Chromatography
Property: Mole fraction of hex-1-ene (Liquid mixture 1); method: Chromatography
Mole fraction of hex-1-ene	Mole fraction of 1-(3-hydroxypropyl)-3-methylimidazolium dicyanamide	uncertainty	Mole fraction of 1-(3-hydroxypropyl)-3-methylimidazolium dicyanamide	uncertainty	Mole fraction of hex-1-ene	uncertainty
0.009	0.991	0.006	0		1	
0.007	0.992	0.006	0		0.619	
0.006	0.992	0.006	0		0.522	
0.004	0.993	0.006	0		0.412	
0.003	0.995	0.005	0		0.324	
0.002	0.995	0.005	0		0.235	
0.001	0.996	0.004	0		0.112	
0	0.996	0.004	0		0.043	
0	0.997	0.003	0		0	
0.008	0.992	0.006	0		0.965	
0.008	0.992	0.006	0		0.873	
0.008	0.992	0.006	0		0.814	
0.007	0.992	0.006	0		0.701	

System: N-(3-hydroxypropyl)pyridinium dicyanamide + hex-1-ene + hexane; phases: Liquid mixture 2, Liquid mixture 1
Fixed: Temperature, K = 298.15
Fixed: Pressure, kPa = 101
Property: Mole fraction of N-(3-hydroxypropyl)pyridinium dicyanamide (Liquid mixture 2); method: Chromatography
Property: Mole fraction of N-(3-hydroxypropyl)pyridinium dicyanamide (Liquid mixture 1); method: Chromatography
Property: Mole fraction of hex-1-ene (Liquid mixture 1); method: Chromatography
Mole fraction of hex-1-ene	Mole fraction of N-(3-hydroxypropyl)pyridinium dicyanamide	uncertainty	Mole fraction of N-(3-hydroxypropyl)pyridinium dicyanamide	uncertainty	Mole fraction of hex-1-ene	uncertainty
0.007	0.993	0.006	0		1	
0.006	0.993	0.006	0		0.71	
0.005	0.994	0.006	0		0.626	
0.005	0.994	0.006	0		0.529	
0.004	0.994	0.006	0		0.47	
0.002	0.995	0.005	0		0.376	
0.002	0.995	0.005	0		0.295	
0.002	0.996	0.004	0		0.219	
0.001	0.996	0.004	0		0.12	
0	0.996	0.004	0		0.049	
0	0.997	0.003	0		0	
0.007	0.993	0.006	0		0.935	
0.007	0.993	0.006	0		0.871	
0.006	0.993	0.006	0		0.784	

System: N-butyronitrilepyridinium dicyanamide + hex-1-ene + hexane; phases: Liquid mixture 2, Liquid mixture 1
Fixed: Temperature, K = 298.15
Fixed: Pressure, kPa = 101
Property: Mole fraction of N-butyronitrilepyridinium dicyanamide (Liquid mixture 2); method: Chromatography
Property: Mole fraction of N-butyronitrilepyridinium dicyanamide (Liquid mixture 1); method: Chromatography
Property: Mole fraction of hex-1-ene (Liquid mixture 1); method: Chromatography
Mole fraction of hex-1-ene	Mole fraction of N-butyronitrilepyridinium dicyanamide	uncertainty	Mole fraction of N-butyronitrilepyridinium dicyanamide	uncertainty	Mole fraction of hex-1-ene	uncertainty
0.006	0.994	0.006	0		1	
0	0.998	0.002	0		0	
0.006	0.994	0.006	0		0.949	
0.005	0.994	0.006	0		0.899	
0.005	0.995	0.005	0		0.743	
0.004	0.995	0.005	0		0.567	
0.003	0.995	0.005	0		0.39	
0.001	0.996	0.004	0		0.227	
0.001	0.997	0.003	0		0.089	
0	0.997	0.003	0		0.032	

System: 1-(3-cyanopropyl)-1-methylpyrrolidinium dicyanamide + hex-1-ene + hexane; phases: Liquid mixture 2, Liquid mixture 1
Fixed: Temperature, K = 298.15
Fixed: Pressure, kPa = 1
Property: Mole fraction of 1-(3-cyanopropyl)-1-methylpyrrolidinium dicyanamide (Liquid mixture 2); method: Chromatography
Property: Mole fraction of 1-(3-cyanopropyl)-1-methylpyrrolidinium dicyanamide (Liquid mixture 1); method: Chromatography
Property: Mole fraction of hex-1-ene (Liquid mixture 1); method: Chromatography
Mole fraction of hex-1-ene	Mole fraction of 1-(3-cyanopropyl)-1-methylpyrrolidinium dicyanamide	uncertainty	Mole fraction of 1-(3-cyanopropyl)-1-methylpyrrolidinium dicyanamide	uncertainty	Mole fraction of hex-1-ene	uncertainty
0.01	0.99	0.006	0		1	
0.001	0.996	0.004	0		0.107	
0	0.996	0.004	0		0.046	
0	0.997	0.003	0		0	
0.01	0.99	0.006	0		0.969	
0.009	0.99	0.006	0		0.902	
0.009	0.991	0.006	0		0.805	
0.008	0.991	0.006	0		0.714	
0.006	0.992	0.006	0		0.544	
0.004	0.993	0.006	0		0.425	
0.003	0.994	0.006	0		0.298	
0.002	0.995	0.005	0		0.211	

System: N-ethyl-N-methylmorpholinium dicyanamide + cyclohexene + cyclohexane; phases: Liquid mixture 2, Liquid mixture 1
Fixed: Temperature, K = 298.15
Fixed: Pressure, kPa = 101
Property: Mole fraction of N-ethyl-N-methylmorpholinium dicyanamide (Liquid mixture 2); method: Chromatography
Property: Mole fraction of N-ethyl-N-methylmorpholinium dicyanamide (Liquid mixture 1); method: Chromatography
Property: Mole fraction of cyclohexene (Liquid mixture 1); method: Chromatography
Mole fraction of cyclohexene	Mole fraction of N-ethyl-N-methylmorpholinium dicyanamide	uncertainty	Mole fraction of N-ethyl-N-methylmorpholinium dicyanamide	uncertainty	Mole fraction of cyclohexene	uncertainty
0.023	0.977	0.006	0		1	
0.003	0.989	0.006	0		0.129	
0.001	0.99	0.006	0		0.058	
0	0.991	0.006	0		0	
0.023	0.977	0.006	0		0.924	
0.022	0.977	0.006	0		0.865	
0.021	0.978	0.006	0		0.774	
0.018	0.979	0.006	0		0.659	
0.016	0.98	0.006	0		0.554	
0.013	0.983	0.006	0		0.453	
0.009	0.985	0.006	0		0.338	
0.006	0.987	0.006	0		0.229	

System: 4-(3-hydroxypropyl)-4-methylmorpholinium dicyanamide + cyclohexene + cyclohexane; phases: Liquid mixture 2, Liquid mixture 1
Fixed: Temperature, K = 298.15
Fixed: Pressure, kPa = 101
Property: Mole fraction of 4-(3-hydroxypropyl)-4-methylmorpholinium dicyanamide (Liquid mixture 2); method: Chromatography
Property: Mole fraction of 4-(3-hydroxypropyl)-4-methylmorpholinium dicyanamide (Liquid mixture 1); method: Chromatography
Property: Mole fraction of cyclohexene (Liquid mixture 1); method: Chromatography
Mole fraction of cyclohexene	Mole fraction of 4-(3-hydroxypropyl)-4-methylmorpholinium dicyanamide	uncertainty	Mole fraction of 4-(3-hydroxypropyl)-4-methylmorpholinium dicyanamide	uncertainty	Mole fraction of cyclohexene	uncertainty
0.019	0.981	0.006	0		1	
0.002	0.99	0.006	0		0.103	
0.001	0.991	0.006	0		0.054	
0	0.991	0.006	0		0	
0.018	0.981	0.006	0		0.91	
0.017	0.982	0.006	0		0.839	
0.016	0.982	0.006	0		0.731	
0.015	0.982	0.006	0		0.613	
0.009	0.986	0.006	0		0.479	
0.006	0.987	0.006	0		0.357	
0.005	0.988	0.006	0		0.271	
0.003	0.989	0.006	0		0.189	

System: 1-(3-hydroxypropyl)-3-methylimidazolium dicyanamide + cyclohexene + cyclohexane; phases: Liquid mixture 2, Liquid mixture 1
Fixed: Temperature, K = 298.15
Fixed: Pressure, kPa = 101
Property: Mole fraction of 1-(3-hydroxypropyl)-3-methylimidazolium dicyanamide (Liquid mixture 2); method: Chromatography
Property: Mole fraction of 1-(3-hydroxypropyl)-3-methylimidazolium dicyanamide (Liquid mixture 1); method: Chromatography
Property: Mole fraction of cyclohexene (Liquid mixture 1); method: Chromatography
Mole fraction of cyclohexene	Mole fraction of 1-(3-hydroxypropyl)-3-methylimidazolium dicyanamide	uncertainty	Mole fraction of 1-(3-hydroxypropyl)-3-methylimidazolium dicyanamide	uncertainty	Mole fraction of cyclohexene	uncertainty
0.028	0.972	0.006	0		1	
0.009	0.982	0.006	0		0.29	
0.006	0.984	0.006	0		0.211	
0.005	0.984	0.006	0		0.153	
0.001	0.986	0.006	0		0.063	
0	0.987	0.006	0		0	
0.027	0.973	0.006	0		0.962	
0.026	0.973	0.006	0		0.878	
0.024	0.973	0.006	0		0.758	
0.022	0.974	0.006	0		0.677	
0.019	0.976	0.006	0		0.588	
0.017	0.977	0.006	0		0.541	
0.013	0.98	0.006	0		0.434	
0.012	0.98	0.006	0		0.355	

System: N-(3-hydroxypropyl)pyridinium dicyanamide + cyclohexene + cyclohexane; phases: Liquid mixture 2, Liquid mixture 1
Fixed: Temperature, K = 298.15
Fixed: Pressure, kPa = 101
Property: Mole fraction of N-(3-hydroxypropyl)pyridinium dicyanamide (Liquid mixture 2); method: Chromatography
Property: Mole fraction of N-(3-hydroxypropyl)pyridinium dicyanamide (Liquid mixture 1); method: Chromatography
Property: Mole fraction of cyclohexene (Liquid mixture 1); method: Chromatography
Mole fraction of cyclohexene	Mole fraction of N-(3-hydroxypropyl)pyridinium dicyanamide	uncertainty	Mole fraction of N-(3-hydroxypropyl)pyridinium dicyanamide	uncertainty	Mole fraction of cyclohexene	uncertainty
0.029	0.971	0.006	0		1	
0.004	0.987	0.006	0		0.15	
0.002	0.989	0.006	0		0.065	
0	0.99	0.006	0		0	
0.027	0.972	0.006	0		0.914	
0.024	0.974	0.006	0		0.806	
0.022	0.976	0.006	0		0.722	
0.019	0.977	0.006	0		0.633	
0.015	0.98	0.006	0		0.516	
0.011	0.983	0.006	0		0.411	
0.009	0.984	0.006	0		0.323	
0.006	0.986	0.006	0		0.228	

System: N-butyronitrilepyridinium dicyanamide + cyclohexene + cyclohexane; phases: Liquid mixture 2, Liquid mixture 1
Fixed: Temperature, K = 298.15
Fixed: Pressure, kPa = 101
Property: Mole fraction of N-butyronitrilepyridinium dicyanamide (Liquid mixture 2); method: Chromatography
Property: Mole fraction of N-butyronitrilepyridinium dicyanamide (Liquid mixture 1); method: Chromatography
Property: Mole fraction of cyclohexene (Liquid mixture 1); method: Chromatography
Mole fraction of cyclohexene	Mole fraction of N-butyronitrilepyridinium dicyanamide	uncertainty	Mole fraction of N-butyronitrilepyridinium dicyanamide	uncertainty	Mole fraction of cyclohexene	uncertainty
0.021	0.979	0.006	0		1	
0	0.994	0.006	0		0	
0.021	0.979	0.006	0		0.949	
0.02	0.979	0.006	0		0.89	
0.017	0.981	0.006	0		0.79	
0.014	0.983	0.006	0		0.598	
0.01	0.986	0.006	0		0.458	
0.006	0.989	0.006	0		0.274	
0.002	0.992	0.006	0		0.109	
0.002	0.992	0.006	0		0.047	

System: 1-(3-cyanopropyl)-1-methylpyrrolidinium dicyanamide + cyclohexene + cyclohexane; phases: Liquid mixture 2, Liquid mixture 1
Fixed: Temperature, K = 298.15
Fixed: Pressure, kPa = 101
Property: Mole fraction of 1-(3-cyanopropyl)-1-methylpyrrolidinium dicyanamide (Liquid mixture 2); method: Chromatography
Property: Mole fraction of 1-(3-cyanopropyl)-1-methylpyrrolidinium dicyanamide (Liquid mixture 1); method: Chromatography
Property: Mole fraction of cyclohexene (Liquid mixture 1); method: Chromatography
Mole fraction of cyclohexene	Mole fraction of 1-(3-cyanopropyl)-1-methylpyrrolidinium dicyanamide	uncertainty	Mole fraction of 1-(3-cyanopropyl)-1-methylpyrrolidinium dicyanamide	uncertainty	Mole fraction of cyclohexene	uncertainty
0.032	0.968	0.007	0		1	
0	0.988	0.006	0		0	
0.03	0.969	0.007	0		0.965	
0.03	0.969	0.007	0		0.913	
0.028	0.97	0.007	0		0.807	
0.022	0.973	0.007	0		0.629	
0.014	0.977	0.007	0		0.434	
0.008	0.982	0.007	0		0.274	
0.005	0.984	0.007	0		0.123	
0.002	0.986	0.006	0		0.043	

System: N-ethyl-N-methylmorpholinium dicyanamide + hex-1-ene; phases: Liquid mixture 2, Liquid mixture 1
Property: Mole fraction of N-ethyl-N-methylmorpholinium dicyanamide (Liquid mixture 2); method: Chromatography
Temperature, K	Pressure, kPa	Mole fraction of N-ethyl-N-methylmorpholinium dicyanamide	uncertainty
298.15	101	0.991	0.006

System: N-ethyl-N-methylmorpholinium dicyanamide + hexane; phases: Liquid mixture 2, Liquid mixture 1
Property: Mole fraction of N-ethyl-N-methylmorpholinium dicyanamide (Liquid mixture 2); method: Chromatography
Temperature, K	Pressure, kPa	Mole fraction of N-ethyl-N-methylmorpholinium dicyanamide	uncertainty
298.15	101	0.996	0.004

System: 4-(3-hydroxypropyl)-4-methylmorpholinium dicyanamide + hex-1-ene; phases: Liquid mixture 2, Liquid mixture 1
Property: Mole fraction of 4-(3-hydroxypropyl)-4-methylmorpholinium dicyanamide (Liquid mixture 2); method: Chromatography
Temperature, K	Pressure, kPa	Mole fraction of 4-(3-hydroxypropyl)-4-methylmorpholinium dicyanamide	uncertainty
298.15	101	0.984	0.006

System: 4-(3-hydroxypropyl)-4-methylmorpholinium dicyanamide + hexane; phases: Liquid mixture 2, Liquid mixture 1
Property: Mole fraction of 4-(3-hydroxypropyl)-4-methylmorpholinium dicyanamide (Liquid mixture 2); method: Chromatography
Temperature, K	Pressure, kPa	Mole fraction of 4-(3-hydroxypropyl)-4-methylmorpholinium dicyanamide	uncertainty
298.15	101	0.993	0.006

System: 1-(3-hydroxypropyl)-3-methylimidazolium dicyanamide + hex-1-ene; phases: Liquid mixture 2, Liquid mixture 1
Property: Mole fraction of 1-(3-hydroxypropyl)-3-methylimidazolium dicyanamide (Liquid mixture 2); method: Chromatography
Temperature, K	Pressure, kPa	Mole fraction of 1-(3-hydroxypropyl)-3-methylimidazolium dicyanamide	uncertainty
298.15	101	0.991	0.006

System: 1-(3-hydroxypropyl)-3-methylimidazolium dicyanamide + hexane; phases: Liquid mixture 2, Liquid mixture 1
Property: Mole fraction of 1-(3-hydroxypropyl)-3-methylimidazolium dicyanamide (Liquid mixture 2); method: Chromatography
Temperature, K	Pressure, kPa	Mole fraction of 1-(3-hydroxypropyl)-3-methylimidazolium dicyanamide	uncertainty
298.15	101	0.997	0.003

System: N-(3-hydroxypropyl)pyridinium dicyanamide + hex-1-ene; phases: Liquid mixture 2, Liquid mixture 1
Property: Mole fraction of N-(3-hydroxypropyl)pyridinium dicyanamide (Liquid mixture 2); method: Chromatography
Temperature, K	Pressure, kPa	Mole fraction of N-(3-hydroxypropyl)pyridinium dicyanamide	uncertainty
298.15	101	0.993	0.006

System: N-(3-hydroxypropyl)pyridinium dicyanamide + hexane; phases: Liquid mixture 2, Liquid mixture 1
Property: Mole fraction of N-(3-hydroxypropyl)pyridinium dicyanamide (Liquid mixture 2); method: Chromatography
Temperature, K	Pressure, kPa	Mole fraction of N-(3-hydroxypropyl)pyridinium dicyanamide	uncertainty
298.15	101	0.997	0.003

System: N-butyronitrilepyridinium dicyanamide + hex-1-ene; phases: Liquid mixture 2, Liquid mixture 1
Property: Mole fraction of N-butyronitrilepyridinium dicyanamide (Liquid mixture 2); method: Chromatography
Temperature, K	Pressure, kPa	Mole fraction of N-butyronitrilepyridinium dicyanamide	uncertainty
298.15	101	0.994	0.006

System: N-butyronitrilepyridinium dicyanamide + hexane; phases: Liquid mixture 2, Liquid mixture 1
Property: Mole fraction of N-butyronitrilepyridinium dicyanamide (Liquid mixture 2); method: Chromatography
Temperature, K	Pressure, kPa	Mole fraction of N-butyronitrilepyridinium dicyanamide	uncertainty
298.15	101	0.998	0.002

System: 1-(3-cyanopropyl)-1-methylpyrrolidinium dicyanamide + hex-1-ene; phases: Liquid mixture 2, Liquid mixture 1
Property: Mole fraction of 1-(3-cyanopropyl)-1-methylpyrrolidinium dicyanamide (Liquid mixture 2); method: Chromatography
Temperature, K	Pressure, kPa	Mole fraction of 1-(3-cyanopropyl)-1-methylpyrrolidinium dicyanamide	uncertainty
298.15	1	0.99	0.006

System: 1-(3-cyanopropyl)-1-methylpyrrolidinium dicyanamide + hexane; phases: Liquid mixture 2, Liquid mixture 1
Property: Mole fraction of 1-(3-cyanopropyl)-1-methylpyrrolidinium dicyanamide (Liquid mixture 2); method: Chromatography
Temperature, K	Pressure, kPa	Mole fraction of 1-(3-cyanopropyl)-1-methylpyrrolidinium dicyanamide	uncertainty
298.15	1	0.997	0.003

System: N-ethyl-N-methylmorpholinium dicyanamide + cyclohexene; phases: Liquid mixture 2, Liquid mixture 1
Property: Mole fraction of N-ethyl-N-methylmorpholinium dicyanamide (Liquid mixture 2); method: Chromatography
Temperature, K	Pressure, kPa	Mole fraction of N-ethyl-N-methylmorpholinium dicyanamide	uncertainty
298.15	101	0.977	0.006

System: N-ethyl-N-methylmorpholinium dicyanamide + cyclohexane; phases: Liquid mixture 2, Liquid mixture 1
Property: Mole fraction of N-ethyl-N-methylmorpholinium dicyanamide (Liquid mixture 2); method: Chromatography
Temperature, K	Pressure, kPa	Mole fraction of N-ethyl-N-methylmorpholinium dicyanamide	uncertainty
298.15	101	0.991	0.006

System: 4-(3-hydroxypropyl)-4-methylmorpholinium dicyanamide + cyclohexene; phases: Liquid mixture 2, Liquid mixture 1
Property: Mole fraction of 4-(3-hydroxypropyl)-4-methylmorpholinium dicyanamide (Liquid mixture 2); method: Chromatography
Temperature, K	Pressure, kPa	Mole fraction of 4-(3-hydroxypropyl)-4-methylmorpholinium dicyanamide	uncertainty
298.15	101	0.981	0.006

System: 4-(3-hydroxypropyl)-4-methylmorpholinium dicyanamide + cyclohexane; phases: Liquid mixture 2, Liquid mixture 1
Property: Mole fraction of 4-(3-hydroxypropyl)-4-methylmorpholinium dicyanamide (Liquid mixture 2); method: Chromatography
Temperature, K	Pressure, kPa	Mole fraction of 4-(3-hydroxypropyl)-4-methylmorpholinium dicyanamide	uncertainty
298.15	101	0.991	0.006

System: 1-(3-hydroxypropyl)-3-methylimidazolium dicyanamide + cyclohexene; phases: Liquid mixture 2, Liquid mixture 1
Property: Mole fraction of 1-(3-hydroxypropyl)-3-methylimidazolium dicyanamide (Liquid mixture 2); method: Chromatography
Temperature, K	Pressure, kPa	Mole fraction of 1-(3-hydroxypropyl)-3-methylimidazolium dicyanamide	uncertainty
298.15	101	0.972	0.006

System: 1-(3-hydroxypropyl)-3-methylimidazolium dicyanamide + cyclohexane; phases: Liquid mixture 2, Liquid mixture 1
Property: Mole fraction of 1-(3-hydroxypropyl)-3-methylimidazolium dicyanamide (Liquid mixture 2); method: Chromatography
Temperature, K	Pressure, kPa	Mole fraction of 1-(3-hydroxypropyl)-3-methylimidazolium dicyanamide	uncertainty
298.15	101	0.987	0.006

System: N-(3-hydroxypropyl)pyridinium dicyanamide + cyclohexene; phases: Liquid mixture 2, Liquid mixture 1
Property: Mole fraction of N-(3-hydroxypropyl)pyridinium dicyanamide (Liquid mixture 2); method: Chromatography
Temperature, K	Pressure, kPa	Mole fraction of N-(3-hydroxypropyl)pyridinium dicyanamide	uncertainty
298.15	101	0.971	0.006

System: N-(3-hydroxypropyl)pyridinium dicyanamide + cyclohexane; phases: Liquid mixture 2, Liquid mixture 1
Property: Mole fraction of N-(3-hydroxypropyl)pyridinium dicyanamide (Liquid mixture 2); method: Chromatography
Temperature, K	Pressure, kPa	Mole fraction of N-(3-hydroxypropyl)pyridinium dicyanamide	uncertainty
298.15	101	0.99	0.006

System: N-butyronitrilepyridinium dicyanamide + cyclohexene; phases: Liquid mixture 2, Liquid mixture 1
Property: Mole fraction of N-butyronitrilepyridinium dicyanamide (Liquid mixture 2); method: Chromatography
Temperature, K	Pressure, kPa	Mole fraction of N-butyronitrilepyridinium dicyanamide	uncertainty
298.15	101	0.979	0.006

System: N-butyronitrilepyridinium dicyanamide + cyclohexane; phases: Liquid mixture 2, Liquid mixture 1
Property: Mole fraction of N-butyronitrilepyridinium dicyanamide (Liquid mixture 2); method: Chromatography
Temperature, K	Pressure, kPa	Mole fraction of N-butyronitrilepyridinium dicyanamide	uncertainty
298.15	101	0.994	0.006

System: 1-(3-cyanopropyl)-1-methylpyrrolidinium dicyanamide + cyclohexene; phases: Liquid mixture 2, Liquid mixture 1
Property: Mole fraction of 1-(3-cyanopropyl)-1-methylpyrrolidinium dicyanamide (Liquid mixture 2); method: Chromatography
Temperature, K	Pressure, kPa	Mole fraction of 1-(3-cyanopropyl)-1-methylpyrrolidinium dicyanamide	uncertainty
298.15	101	0.968	0.006

System: 1-(3-cyanopropyl)-1-methylpyrrolidinium dicyanamide + cyclohexane; phases: Liquid mixture 2, Liquid mixture 1
Property: Mole fraction of 1-(3-cyanopropyl)-1-methylpyrrolidinium dicyanamide (Liquid mixture 2); method: Chromatography
Temperature, K	Pressure, kPa	Mole fraction of 1-(3-cyanopropyl)-1-methylpyrrolidinium dicyanamide	uncertainty
298.15	101	0.988	0.006
