Measured thermophysical data. Volumetric interaction coefficients for some nucleosides in aqueous solution at T= 298.15 K
Source: J. Chem. Thermodyn., 2013, 10.1016/j.jct.2012.12.014
Compound 1: .beta.-adenosine, C10H13N5O4, InChI=1S/C10H13N5O4/c11-8-5-9(13-2-12-8)15(3-14-5)10-7(18)6(17)4(1-16)19-10/h2-4,6-7,10,16-18H,1H2,(H2,11,12,13)/t4-,6-,7-,10-/m1/s1, purity 99%
Compound 2: cytidine, C9H13N3O5, InChI=1S/C9H13N3O5/c10-5-1-2-12(9(16)11-5)8-7(15)6(14)4(3-13)17-8/h1-2,4,6-8,13-15H,3H2,(H2,10,11,16)/t4-,6?,7?,8-/m1/s1
Compound 3: uridine, C9H12N2O6, InChI=1S/C9H12N2O6/c12-3-4-6(14)7(15)8(17-4)11-2-1-5(13)10-9(11)16/h1-2,4,6-8,12,14-15H,3H2,(H,10,13,16)/t4-,6?,7?,8-/m1/s1
Compound 4: thymidine, C10H14N2O5, InChI=1S/C10H14N2O5/c1-5-3-12(10(16)11-9(5)15)8-2-6(14)7(4-13)17-8/h3,6-8,13-14H,2,4H2,1H3,(H,11,15,16)/t6?,7-,8-/m1/s1
Compound 5: 2'-deoxyguanosine, C10H13N5O4, InChI=1S/C10H13N5O4/c11-10-13-8-7(9(18)14-10)12-3-15(8)6-1-4(17)5(2-16)19-6/h3-6,16-17H,1-2H2,(H3,11,13,14,18)/t4-,5+,6+/m0/s1
Compound 6: 4-amino-2-hydroxypyrimidine, C4H5N3O, InChI=1S/C4H5N3O/c5-3-1-2-6-4(8)7-3/h1-2H,(H3,5,6,7,8), purity 98%
Compound 7: water, H2O, InChI=1S/H2O/h1H2

System: thymidine + .beta.-adenosine + water; phases: Liquid
Fixed: Temperature, K = 298.15
Fixed: Pressure, kPa = 101
Property: Mass density, kg/m3 (Liquid); method: Vibrating tube method
Molality, mol/kg of .beta.-adenosine	Solvent: Molality, mol/kg of thymidine	Mass density, kg/m3	uncertainty
0.022194	0.10003	1006.474	0.133
0.021955	0.10003	1006.451	0.133
0.021469	0.10003	1006.408	0.133
0.0207	0.10003	1006.333	0.133
0.020071	0.10003	1006.271	0.133
0.019544	0.10003	1006.223	0.133
0.019506	0.10003	1006.222	0.133
0.018966	0.10003	1006.168	0.133
0.022081	0.07505	1004.664	0.132
0.021145	0.07505	1004.578	0.132
0.020498	0.07505	1004.516	0.132
0.01976	0.07505	1004.445	0.132
0.019121	0.07505	1004.387	0.132
0.018206	0.07505	1004.301	0.132
0.021957	0.05109	1002.909	0.131
0.021252	0.05109	1002.839	0.131
0.020976	0.05109	1002.813	0.131
0.020361	0.05109	1002.761	0.131
0.0197	0.05109	1002.699	0.131
0.01888	0.05109	1002.617	0.131
0.018621	0.05109	1002.593	0.131

System: .beta.-adenosine + uridine + water; phases: Liquid
Fixed: Temperature, K = 298.15
Fixed: Pressure, kPa = 101
Property: Mass density, kg/m3 (Liquid); method: Vibrating tube method
Molality, mol/kg of .beta.-adenosine	Solvent: Molality, mol/kg of uridine	Mass density, kg/m3	uncertainty
0.022273	0.10002	1008.114	0.134
0.021487	0.10002	1008.045	0.134
0.021153	0.10002	1008.014	0.134
0.020905	0.10002	1007.991	0.134
0.020109	0.10002	1007.914	0.134
0.019666	0.10002	1007.875	0.134
0.022098	0.07502	1005.874	0.133
0.021482	0.07502	1005.825	0.133
0.02089	0.07502	1005.766	0.133
0.020271	0.07502	1005.709	0.133
0.019495	0.07502	1005.632	0.133
0.018503	0.07502	1005.543	0.133
0.022261	0.05107	1003.776	0.132
0.021757	0.05107	1003.722	0.132
0.021157	0.05107	1003.668	0.132
0.020805	0.05107	1003.761	0.132
0.020188	0.05107	1003.699	0.132
0.019761	0.05107	1003.543	0.132

System: .beta.-adenosine + cytidine + water; phases: Liquid
Fixed: Temperature, K = 298.15
Fixed: Pressure, kPa = 101
Property: Mass density, kg/m3 (Liquid); method: Vibrating tube method
Molality, mol/kg of .beta.-adenosine	Solvent: Molality, mol/kg of cytidine	Mass density, kg/m3	uncertainty
0.022165	0.10001	1007.921	0.134
0.021738	0.10001	1007.878	0.134
0.02099	0.10001	1007.815	0.134
0.020785	0.10001	1007.791	0.134
0.020122	0.10001	1007.726	0.134
0.019027	0.10001	1007.629	0.134
0.022252	0.07503	1005.767	0.133
0.021147	0.07503	1005.664	0.133
0.020191	0.07503	1005.572	0.133
0.019799	0.07503	1005.54	0.133
0.021808	0.07503	1005.726	0.133
0.020796	0.07503	1005.634	0.133
0.021959	0.05108	1003.654	0.132
0.020777	0.05108	1003.546	0.132
0.020098	0.05108	1003.484	0.132
0.019576	0.05108	1003.429	0.132
0.017248	0.05108	1003.208	0.131
0.017801	0.05108	1003.262	0.131

System: cytidine + 2'-deoxyguanosine + water; phases: Liquid
Fixed: Temperature, K = 298.15
Fixed: Pressure, kPa = 101
Property: Mass density, kg/m3 (Liquid); method: Vibrating tube method
Molality, mol/kg of 2'-deoxyguanosine	Solvent: Molality, mol/kg of cytidine	Mass density, kg/m3	uncertainty
0.010961	0.10038	1006.933	0.134
0.01086	0.10038	1006.92	0.134
0.010785	0.10038	1006.911	0.134
0.010689	0.10038	1006.908	0.134
0.01049	0.10038	1006.885	0.134
0.010384	0.10038	1006.874	0.134
0.01035	0.10038	1006.87	0.134
0.010884	0.07501	1004.722	0.132
0.010814	0.07501	1004.719	0.132
0.010768	0.07501	1004.711	0.132
0.010706	0.07501	1004.707	0.132
0.010663	0.07501	1004.702	0.132
0.010568	0.07501	1004.694	0.132
0.010935	0.05109	1002.641	0.131
0.01087	0.05109	1002.633	0.131
0.010801	0.05109	1002.625	0.131
0.010719	0.05109	1002.617	0.131
0.010594	0.05109	1002.609	0.131
0.010494	0.05109	1002.597	0.131
0.010403	0.05109	1002.586	0.131

System: thymidine + 2'-deoxyguanosine + water; phases: Liquid
Fixed: Temperature, K = 298.15
Fixed: Pressure, kPa = 101
Property: Mass density, kg/m3 (Liquid); method: Vibrating tube method
Molality, mol/kg of 2'-deoxyguanosine	Solvent: Molality, mol/kg of thymidine	Mass density, kg/m3	uncertainty
0.010921	0.10004	1005.443	0.133
0.010829	0.10004	1005.436	0.133
0.010718	0.10004	1005.427	0.133
0.010656	0.10004	1005.42	0.133
0.010523	0.10004	1005.406	0.133
0.010446	0.10004	1005.398	0.133
0.010344	0.10004	1005.391	0.133
0.01089	0.07501	1003.631	0.132
0.010845	0.07501	1003.627	0.132
0.010692	0.07501	1003.611	0.132
0.010621	0.07501	1003.607	0.132
0.010498	0.07501	1003.593	0.132
0.01038	0.07501	1003.581	0.132
0.010945	0.05106	1001.889	0.131
0.010843	0.05106	1001.88	0.131
0.01071	0.05106	1001.871	0.131
0.010605	0.05106	1001.858	0.131
0.010499	0.05106	1001.849	0.131
0.010397	0.05106	1001.838	0.131

System: 4-amino-2-hydroxypyrimidine + water; phases: Liquid
Fixed: Temperature, K = 298.15
Fixed: Pressure, kPa = 101
Property: Mass density, kg/m3 (Liquid); method: Vibrating tube method
Molality, mol/kg of 4-amino-2-hydroxypyrimidine	Mass density, kg/m3	uncertainty
0.062844	999.402	0.063
0.055976	999.144	0.063
0.050992	998.96	0.063
0.046041	998.777	0.063
0.041874	998.618	0.063
0.037024	998.438	0.063
0.031922	998.246	0.063
0.026977	998.062	0.063
0.021934	997.872	0.063
