Measured thermophysical data. Heat capacities and thermodynamic functions of hexagonal ice from T = 0.5 K to T = 38 K
Source: J. Chem. Thermodyn., 2007, 10.1016/j.jct.2006.10.011
Compound 1: water, H2O, InChI=1S/H2O/h1H2

System: water; phases: Crystal
Fixed: Pressure, kPa = 101.325
Property: Molar heat capacity at constant pressure, J/K/mol (Crystal); method: Low-temperature adiabatic
Temperature, K	Molar heat capacity at constant pressure, J/K/mol	uncertainty
0.47191	4.8342e-06	4.727e-06
0.4841	2.3797e-05	2.599e-06
0.51905	3.5708e-05	4.305e-06
0.53277	2.9896e-05	3.059e-06
0.54558	3.1039e-05	4.185e-06
0.57125	3.3822e-05	4.91e-06
0.58586	3.1768e-05	4.935e-06
0.59988	3.8825e-05	3.691e-06
0.62872	4.3422e-05	3.448e-06
0.64512	3.4141e-05	4.211e-06
0.66083	4.5816e-05	4.617e-06
0.69353	5.9515e-05	5.213e-06
0.71068	6.565e-05	6.443e-06
0.72832	7.2073e-05	6.378e-06
0.76397	7.8174e-05	8.173e-06
0.78297	8.5542e-05	7.658e-06
0.80206	9.4134e-05	7.929e-06
0.84068	0.00011584	8.02e-06
0.86183	0.00012186	8e-06
0.88278	0.00013115	9.63e-06
0.92449	0.00015059	9.42e-06
0.97082	0.00016898	9.8e-06
1.015	0.00019862	1.038e-05
1.04	0.00020587	1.056e-05
1.066	0.00022177	1.25e-05
1.116	0.00025822	1.322e-05
1.146	0.00026712	1.53e-05
1.173	0.00029459	1.656e-05
1.228	0.00033855	1.711e-05
1.261	0.00037379	1.864e-05
1.292	0.00040763	1.846e-05
1.352	0.00045865	2.059e-05
1.388	0.00049149	2.052e-05
1.485	0.00060127	2.414e-05
1.522	0.00063945	2.486e-05
1.561	0.00069012	2.499e-05
1.634	0.00079573	3.135e-05
1.675	0.00084887	3.094e-05
1.716	0.00091318	3.096e-05
1.731	0.00096523	3.159e-05
1.798	0.0010529	3.54e-05
1.816	0.0011094	3.64e-05
1.843	0.0011228	3.52e-05
1.887	0.0012074	3.87e-05
1.904	0.0012503	3.82e-05
1.977	0.0013899	4.31e-05
1.998	0.0014342	4.4e-05
2.027	0.0014845	4.43e-05
2.076	0.001598	4.68e-05
2.095	0.0016591	4.67e-05
2.175	0.0018404	5.45e-05
2.2	0.0019024	5.42e-05
2.304	0.0022081	5.91e-05
2.421	0.0025436	6.63e-05
2.536	0.0029627	7.46e-05
2.664	0.003432	8.27e-05
2.791	0.0039937	9.03e-05
2.932	0.004612	0.0001012
3.073	0.0053838	0.000111
3.228	0.0062061	0.0001227
3.381	0.0072125	0.0001348
3.552	0.0083105	0.0001517
3.719	0.0096801	0.0001687
3.906	0.011171	0.000189
4.089	0.013021	0.000209
4.294	0.015029	0.000234
4.498	0.017556	0.000261
4.723	0.020309	0.000298
4.947	0.023837	0.000333
5.194	0.027621	0.000377
5.44	0.032481	0.000422
5.713	0.037726	0.000482
5.985	0.044561	0.000543
6.284	0.051858	0.000625
6.583	0.061564	0.000713
6.912	0.072067	0.00082
7.239	0.085742	0.000943
7.6	0.10094	0.00109
7.96	0.12058	0.00123
8.354	0.14155	0.0014
8.75	0.16836	0.00158
9.185	0.19721	0.00181
9.187	0.19787	0.00181
9.619	0.23431	0.00205
9.645	0.23524	0.00206
10.105	0.27522	0.00238
10.113	0.27678	0.00238
10.591	0.3268	0.00268
10.603	0.32663	0.00268
11.122	0.38407	0.00304
11.662	0.45159	0.00342
12.23	0.52667	0.0038
12.821	0.6103	0.00425
13.431	0.70436	0.00474
14.079	0.80992	0.00527
14.747	0.92607	0.00585
15.465	1.0581	0.0065
16.192	1.1966	0.0071
16.988	1.3556	0.0079
17.786	1.5183	0.0087
18.665	1.7041	0.0095
19.548	1.8945	0.0109
19.599	1.9083	0.011
20.578	2.1197	0.0115
21.46	2.3153	0.0124
22.525	2.5501	0.0135
23.59	2.7803	0.0146
24.753	3.0366	0.0158
25.92	3.2922	0.017
27.211	3.5615	0.0183
28.493	3.8282	0.0196
29.943	4.1278	0.021
31.377	4.4232	0.0225
32.986	4.7348	0.024
34.587	5.0667	0.0257
36.022	5.3711	0.0272
37.447	5.6771	0.0287

System: water; phases: Crystal
Fixed: Pressure, kPa = 101.325
Property: Molar heat capacity at constant pressure, J/K/mol (Crystal); method: adiabatic
Temperature, K	Molar heat capacity at constant pressure, J/K/mol	uncertainty
0.5	2.28e-05	6.38886e-06
1	0.0001825	1.19147e-05
1.5	0.0006167	2.58415e-05
2	0.0014653	4.573e-05
2.5	0.0028738	7.2087e-05
3	0.0049983	0.0001058
3.5	0.0080128	0.0001479
4	0.012118	0.0002
4.5	0.017548	0.000264
5	0.024579	0.000343
5.5	0.033536	0.000437
6	0.044785	0.000551
6.5	0.058738	0.000687
7	0.07583	0.0008456
7.5	0.096506	0.00103
8	0.12121	0.00124
8.5	0.15034	0.00147
9	0.18423	0.00172
9.5	0.22313	0.002
10	0.2672	0.00239
11	0.37094	0.00294
12	0.49481	0.00363
13	0.63725	0.00439
14	0.79666	0.0052
15	0.97155	0.0061
16	1.16	0.007
17	1.3576	0.0079
18	1.564	0.0089
19	1.7766	0.00989
20	1.9934	0.0109
22	2.4335	0.013
24	2.8734	0.015
26	3.306	0.017
28	3.7278	0.0191
30	4.1388	0.0211
32	4.5428	0.023
34	4.9471	0.0251
36	5.3627	0.0272
38	5.8042	0.0294

System: water; phases: Crystal
Fixed: Pressure, kPa = 101.325
Property: Molar enthalpy function {Hm(T)-Hm(0)}/T, J/K/mol (Crystal); method: semi-adiabatic calorimetry
Temperature, K	Molar enthalpy function {Hm(T)-Hm(0)}/T, J/K/mol	uncertainty
0.5	0	0.08
1	4.2763e-05	3.05059e-06
1.5	0.00015216	6.477e-06
2	0.00036425	1.13992e-05
2.5	0.00071471	1.78845e-05
3	0.0012405	2.6108e-05
3.5	0.0019809	3.6168e-05
4	0.002979	4.839e-05
4.5	0.0042826	6.3107e-05
5	0.005946	8.0651e-05
5.5	0.0080312	0.0001015
6	0.010608	0.000126
6.5	0.013755	0.000155
7	0.017558	0.000189
7.5	0.022111	0.000228
8	0.027511	0.000272
8.5	0.033857	0.000323
9	0.041247	0.000379
9.5	0.049774	0.000442
10	0.059522	0.000536
11	0.08296	0.000668
12	0.11199	0.000848
13	0.1468	0.00106
14	0.18743	0.00128
15	0.23379	0.00153
16	0.28573	0.0018
17	0.34363	0.0021
18	0.40566	0.0024
19	0.4722	0.00273
20	0.54282	0.00309
22	0.69466	0.00382
24	0.85789	0.0046
26	1.0297	0.0054
28	1.2074	0.0063
30	1.3892	0.0072
32	1.5737	0.0081
34	1.7602	0.00898
36	1.9487	0.00989
38	2.1398	0.0109

System: water; phases: Crystal
Fixed: Pressure, kPa = 101.325
Property: Molar entropy, J/K/mol (Crystal); method: adiabatic
Temperature, K	Molar entropy, J/K/mol	uncertainty
0.5	0	0.08
1	5.3215e-05	3.97599e-06
1.5	0.00019778	8.66371e-06
2	0.00047982	1.53985e-05
2.5	0.00094627	2.4361e-05
3	0.0016459	3.5835e-05
3.5	0.0026302	5.022e-05
4	0.0039548	6.7846e-05
4.5	0.0056812	8.92977e-05
5	0.0078786	0.0001152
5.5	0.010625	0.000146
6	0.014007	0.000183
6.5	0.018123	0.000227
7	0.023081	0.000278
7.5	0.028996	0.000338
8	0.03599	0.000407
8.5	0.04419	0.000486
9	0.053719	0.000575
9.5	0.064699	0.000676
10	0.077242	0.000816
11	0.10741	0.00105
12	0.14486	0.00136
13	0.18997	0.00173
14	0.24293	0.00215
15	0.30377	0.00262
16	0.37242	0.00315
17	0.44969	0.00373
18	0.5331	0.00436
19	0.62333	0.00504
20	0.71996	0.00578
22	0.93056	0.0073
24	1.1612	0.00906
26	1.4083	0.0109
28	1.6688	0.0128
30	1.9401	0.0148
32	2.2201	0.0169
34	2.5076	0.019
36	2.8021	0.0212
38	3.1037	0.0234
