Measured thermophysical data. Volumetric and acoustical properties of aqueous mixtures of N-methyl-2-hydroxyethylammonium propionate at T = (298.15 to 333.15) K
Source: J. Chem. Thermodyn., 2015, 10.1016/j.jct.2015.04.005
Compound 1: water, H2O, InChI=1S/H2O/h1H2, purity 99.8%
Compound 2: 2-hydroxy-N-methylethanaminium propionate, C6H15NO3, InChI=1S/C3H9NO.C3H6O2/c1-4-2-3-5;1-2-3(4)5/h4-5H,2-3H2,1H3;2H2,1H3,(H,4,5), purity 99%

System: 2-hydroxy-N-methylethanaminium propionate; phases: Liquid
Fixed: Pressure, kPa = 102.24
Fixed: Frequency, MHz = 5
Property: Speed of sound, m/s (Liquid); method: Single path-length method
Temperature, K	Speed of sound, m/s	uncertainty
298.15	1638.4	8.1
303.15	1624.6	8.1
308.15	1607	8.1
313.15	1588.5	8.1
318.15	1573.2	8.1
323.15	1558.3	8.1
328.15	1543.7	8.1
333.15	1527	8.1
293.15	1656.9	8.1
338.15	1507.1	8.1
343.15	1492.6	8.1

System: water + 2-hydroxy-N-methylethanaminium propionate; phases: Liquid
Fixed: Pressure, kPa = 102.24
Property: Mass density, kg/m3 (Liquid); method: Vibrating tube method
Temperature, K	Mole fraction of 2-hydroxy-N-methylethanaminium propionate	Mass density, kg/m3	uncertainty
298.15	0	997.1	1.7
298.15	0.02	1016.8	1.7
298.15	0.0501	1039.1	1.7
298.15	0.1001	1056.2	1.7
298.15	0.101	1055.8	1.7
298.15	0.2006	1072.5	1.7
298.15	0.301	1072.6	1.7
298.15	0.3978	1074	1.7
298.15	0.4976	1072.3	1.7
298.15	0.5972	1071.9	1.7
298.15	0.8006	1068.7	1.7
298.15	1	1065.8	1.7
303.15	0	995.7	1.7
303.15	0.02	1013.4	1.7
303.15	0.0501	1036.3	1.7
303.15	0.1001	1053.4	1.7
303.15	0.101	1052.8	1.7
303.15	0.2006	1069.5	1.7
303.15	0.301	1069.5	1.7
303.15	0.3978	1070.9	1.7
303.15	0.4976	1069.2	1.7
303.15	0.5972	1068.7	1.7
303.15	0.8006	1065.4	1.7
303.15	1	1062.6	1.7
308.15	0	994	1.7
308.15	0.02	1010	1.7
308.15	0.0501	1033.5	1.7
308.15	0.1001	1050.7	1.7
308.15	0.101	1049.9	1.7
308.15	0.2006	1066.5	1.7
308.15	0.301	1066.4	1.7
308.15	0.3978	1067.9	1.7
308.15	0.4976	1066.1	1.7
308.15	0.5972	1065.6	1.7
308.15	0.8006	1062.2	1.7
308.15	1	1059.4	1.7
313.15	0	992.2	1.7
313.15	0.02	1006.6	1.7
313.15	0.0501	1030.6	1.7
313.15	0.1001	1047.9	1.7
313.15	0.101	1046.9	1.7
313.15	0.2006	1063.5	1.7
313.15	0.301	1063.3	1.7
313.15	0.3978	1064.8	1.7
313.15	0.4976	1063	1.7
313.15	0.5972	1062.5	1.7
313.15	0.8006	1059	1.7
313.15	1	1056.2	1.7
318.15	0	990.2	1.7
318.15	0.02	1003.2	1.7
318.15	0.0501	1027.8	1.7
318.15	0.1001	1045.2	1.7
318.15	0.101	1043.9	1.7
318.15	0.2006	1060.5	1.7
318.15	0.301	1060.2	1.7
318.15	0.3978	1061.8	1.7
318.15	0.4976	1059.8	1.7
318.15	0.5972	1059.4	1.7
318.15	0.8006	1055.8	1.7
318.15	1	1053	1.7
323.15	0	988	1.7
323.15	0.02	999.8	1.7
323.15	0.0501	1025	1.7
323.15	0.1001	1042.4	1.7
323.15	0.101	1040.9	1.7
323.15	0.2006	1057.5	1.7
323.15	0.301	1057.1	1.7
323.15	0.3978	1058.7	1.7
323.15	0.4976	1056.7	1.7
323.15	0.5972	1056.2	1.7
323.15	0.8006	1052.6	1.7
323.15	1	1049.8	1.7
328.15	0	985.7	1.7
328.15	0.02	996.4	1.7
328.15	0.0501	1022.2	1.7
328.15	0.1001	1039.7	1.7
328.15	0.101	1037.9	1.7
328.15	0.2006	1054.5	1.7
328.15	0.301	1054	1.7
328.15	0.3978	1055.6	1.7
328.15	0.4976	1053.6	1.7
328.15	0.5972	1053.1	1.7
328.15	0.8006	1049.3	1.7
328.15	1	1046.5	1.7
333.15	0	983.2	1.7
333.15	0.02	993	1.7
333.15	0.0501	1019.4	1.7
333.15	0.1001	1036.9	1.7
333.15	0.101	1035	1.7
333.15	0.2006	1051.5	1.7
333.15	0.301	1051	1.7
333.15	0.3978	1052.6	1.7
333.15	0.4976	1050.5	1.7
333.15	0.5972	1050	1.7
333.15	0.8006	1046.1	1.7
333.15	1	1043.2	1.7

System: water + 2-hydroxy-N-methylethanaminium propionate; phases: Liquid
Fixed: Pressure, kPa = 102.24
Fixed: Frequency, MHz = 5
Property: Speed of sound, m/s (Liquid); method: Single path-length method
Temperature, K	Mole fraction of 2-hydroxy-N-methylethanaminium propionate	Speed of sound, m/s	uncertainty
298.15	0	1496.7	8
298.15	0.02	1628.3	8.1
298.15	0.0501	1746.5	8
298.15	0.1001	1820.9	8
298.15	0.101	1818.1	8
298.15	0.2006	1827.2	8
298.15	0.301	1790.1	8
298.15	0.3978	1757	8
298.15	0.4976	1726.2	8
298.15	0.5972	1721	8
298.15	0.8006	1684.5	8
298.15	1	1638.4	8.1
303.15	0	1509.2	8
303.15	0.02	1630.6	8.1
303.15	0.0501	1741.6	8
303.15	0.1001	1810.8	8
303.15	0.101	1807	8
303.15	0.2006	1812.4	8
303.15	0.301	1775.9	8
303.15	0.3978	1742.3	8
303.15	0.4976	1711	8
303.15	0.5972	1705.5	8
303.15	0.8006	1668.3	8
303.15	1	1624.6	8.1
308.15	0	1519.8	8
308.15	0.02	1632.8	8
308.15	0.0501	1736.7	8
308.15	0.1001	1800.7	8
308.15	0.101	1795.9	8
308.15	0.2006	1797.6	8
308.15	0.301	1761.6	8
308.15	0.3978	1727.6	8
308.15	0.4976	1695.7	8
308.15	0.5972	1689.9	8
308.15	0.8006	1652	8
308.15	1	1607	8.1
313.15	0	1528.9	8
313.15	0.02	1635.1	8
313.15	0.0501	1731.8	8
313.15	0.1001	1790.6	8
313.15	0.101	1784.7	8
313.15	0.2006	1782.8	8
313.15	0.301	1747.4	8
313.15	0.3978	1712.8	8
313.15	0.4976	1680.5	8
313.15	0.5972	1674.4	8
313.15	0.8006	1635.7	8
313.15	1	1588.5	8.1
318.15	0	1536.4	8
318.15	0.02	1637.4	8
318.15	0.0501	1726.9	8
318.15	0.1001	1780.5	8
318.15	0.101	1773.6	8
318.15	0.2006	1768	8
318.15	0.301	1733.1	8
318.15	0.3978	1698.1	8
318.15	0.4976	1665.2	8
318.15	0.5972	1658.8	8
318.15	0.8006	1619.5	8
318.15	1	1573.2	8.1
323.15	0	1542.6	8
323.15	0.02	1639.6	8
323.15	0.0501	1722	8
323.15	0.1001	1770.4	8
323.15	0.101	1762.5	8
323.15	0.2006	1753.2	8
323.15	0.301	1718.9	8
323.15	0.3978	1683.3	8
323.15	0.4976	1650	8
323.15	0.5972	1643.3	8
323.15	0.8006	1603.2	8
323.15	1	1558.3	8.1
328.15	0	1547.4	8
328.15	0.02	1641.9	8
328.15	0.0501	1717.1	8
328.15	0.1001	1760.3	8
328.15	0.101	1751.4	8
328.15	0.2006	1738.3	8
328.15	0.301	1704.6	8
328.15	0.3978	1668.6	8
328.15	0.4976	1634.8	8
328.15	0.5972	1627.8	8
328.15	0.8006	1587	8
328.15	1	1543.7	8.1
333.15	0	1551	8
333.15	0.02	1644.1	8
333.15	0.0501	1712.2	8
333.15	0.1001	1750.3	8
333.15	0.101	1740.3	8
333.15	0.2006	1723.5	8
333.15	0.301	1690.4	8
333.15	0.3978	1653.9	8
333.15	0.4976	1619.5	8
333.15	0.5972	1612.2	8
333.15	0.8006	1570.7	8
333.15	1	1527	8.1
