Measured thermophysical data. The vapour pressures over saturated aqueous solutions of sodium and potassium acetates, chlorates, and perchlorates
Source: J. Chem. Thermodyn., 2007, 10.1016/j.jct.2006.12.006
Compound 1: sodium ethanoate, C2H3NaO2, InChI=1S/C2H4O2.Na/c1-2(3)4;/h1H3,(H,3,4);/q;+1/p-1, purity 99.5%
Compound 2: potassium ethanoate, C2H3KO2, InChI=1S/C2H4O2.K/c1-2(3)4;/h1H3,(H,3,4);/q;+1/p-1, purity 99%
Compound 3: sodium perchlorate, ClNaO4, InChI=1S/ClHO4.Na/c2-1(3,4)5;/h(H,2,3,4,5);/q;+1/p-1, purity 99%
Compound 4: water, H2O, InChI=1S/H2O/h1H2

System: sodium ethanoate + water; phases: Liquid, Gas, Crystal
Property: Vapor or sublimation pressure, kPa (Liquid); method: Closed cell (Static) method
Temperature, K	Vapor or sublimation pressure, kPa	uncertainty
278.65	0.714	0.018
280.65	0.819	0.02
282.65	0.938	0.022
284.55	1.065	0.025
286.35	1.199	0.028
288.45	1.368	0.027
290.35	1.535	0.028
292.25	1.72	0.03
292.45	1.74	0.03
293.15	1.777	0.029
293.35	1.83	0.04
294.25	1.932	0.029
294.45	1.948	0.029
295.35	2.05	0.03
296.25	2.157	0.031
296.35	2.162	0.031
298.15	2.399	0.032
298.25	2.403	0.032
298.65	2.452	0.033
300.15	2.671	0.034
300.85	2.765	0.035
301.95	2.943	0.035
302.45	3.005	0.036
304.05	3.276	0.037
304.05	3.276	0.037
305.95	3.603	0.038
306.35	3.67	0.04
307.65	3.902	0.043
307.95	3.973	0.042
308.35	4.05	0.04
309.95	4.366	0.043
310.45	4.461	0.043
310.45	4.461	0.043
311.75	4.739	0.045
312.65	4.937	0.046
314.25	5.298	0.048
315.45	5.593	0.049

System: potassium ethanoate + water; phases: Liquid, Gas, Crystal
Property: Vapor or sublimation pressure, kPa (Liquid); method: Closed cell (Static) method
Temperature, K	Vapor or sublimation pressure, kPa	uncertainty
278.65	0.18	0.006
280.65	0.205	0.007
282.65	0.234	0.007
284.55	0.264	0.008
286.65	0.303	0.009
288.45	0.339	0.01
290.45	0.383	0.011
292.45	0.43	0.011
294.45	0.476	0.012
296.45	0.532	0.014
298.45	0.59	0.015
300.45	0.653	0.016
302.35	0.714	0.017
304.35	0.787	0.019
306.35	0.86	0.02
308.25	0.933	0.022
310.25	1.016	0.023
312.25	1.097	0.025
314.15	1.183	0.027
316.15	1.297	0.029

System: sodium perchlorate + water; phases: Liquid, Gas, Crystal
Property: Vapor or sublimation pressure, kPa (Liquid); method: Closed cell (Static) method
Temperature, K	Vapor or sublimation pressure, kPa	uncertainty
278.65	0.453	0.012
278.65	0.45	0.012
279.15	0.47	0.012
280.75	0.517	0.013
280.75	0.52	0.013
282.65	0.587	0.015
282.65	0.59	0.015
283.15	0.602	0.015
283.15	0.6	0.015
284.55	0.656	0.016
284.55	0.66	0.016
285.05	0.674	0.017
285.05	0.67	0.017
286.55	0.741	0.018
287.05	0.762	0.019
287.05	0.762	0.019
287.05	0.76	0.018
288.55	0.836	0.02
288.55	0.84	0.02
289.55	0.88	0.021
290.55	0.938	0.022
290.55	0.94	0.022
292.45	1.04	0.024
292.45	1.041	0.024
292.75	1.058	0.025
294.45	1.163	0.027
294.45	1.16	0.027
296.35	1.288	0.029
296.35	1.29	0.029
296.45	1.296	0.029
296.45	1.3	0.026
298.35	1.43	0.028
298.65	1.46	0.028
300.35	1.588	0.028
300.35	1.59	0.028
302.35	1.747	0.028
302.35	1.75	0.028
303.15	1.813	0.029
303.15	1.81	0.029
304.35	1.928	0.029
304.35	1.93	0.029
304.85	1.941	0.03
306.25	2.106	0.031
306.25	2.11	0.031
306.3	2.111	0.031
307.35	2.212	0.031
307.35	2.21	0.031
308.25	2.308	0.031
308.25	2.31	0.031
308.35	2.327	0.032
310.15	2.524	0.032
310.15	2.52	0.033
310.25	2.53	0.032
310.3	2.539	0.032
311.9	2.72	0.037
311.95	2.734	0.033
311.95	2.73	0.033
312.05	2.749	0.037
313.9	2.965	0.033
313.95	2.981	0.035
313.95	2.97	0.035
314.05	2.973	0.033
314.05	2.97	0.032
315.9	3.243	0.036
315.95	3.294	0.038
315.95	3.26	0.037
