Measured thermophysical data. Ethanol extraction from its azeotropic mixture with hexane employing different ionic liquids as solvents
Source: J. Chem. Thermodyn., 2012, 10.1016/j.jct.2012.06.028
Compound 1: 1-ethyl-3-methylimidazolium bis((trifluoromethyl)sulfonyl)imide, C8H11F6N3O4S2, InChI=1S/C6H11N2.C2F6NO4S2/c1-3-8-5-4-7(2)6-8;3-1(4,5)14(10,11)9-15(12,13)2(6,7)8/h4-6H,3H2,1-2H3;/q+1;-1, purity 99%
Compound 2: 1-butyl-3-methylimidazolium bis(trifluoromethylsulfonyl)imide, C10H15F6N3O4S2, InChI=1S/C8H15N2.C2F6NO4S2/c1-3-4-5-10-7-6-9(2)8-10;3-1(4,5)14(10,11)9-15(12,13)2(6,7)8/h6-8H,3-5H2,1-2H3;/q+1;-1, purity 99%
Compound 3: 1-butyl-3-methylpyridinium 1,1,1-trifluoro-N-[(trifluoromethyl)sulfonyl]methanesulfonamide, C12H16F6N2O4S2, InChI=1S/C10H16N.C2F6NO4S2/c1-3-4-7-11-8-5-6-10(2)9-11;3-1(4,5)14(10,11)9-15(12,13)2(6,7)8/h5-6,8-9H,3-4,7H2,1-2H3;/q+1;-1, purity 99%
Compound 4: 1-butyl-3-methylpyridinium trifluoromethanesulfonate, C11H16F3NO3S, InChI=1S/C10H16N.CHF3O3S/c1-3-4-7-11-8-5-6-10(2)9-11;2-1(3,4)8(5,6)7/h5-6,8-9H,3-4,7H2,1-2H3;(H,5,6,7)/q+1;/p-1, purity 99%
Compound 5: hexane, C6H14, InChI=1S/C6H14/c1-3-5-6-4-2/h3-6H2,1-2H3, purity 99%
Compound 6: ethanol, C2H6O, InChI=1S/C2H6O/c1-2-3/h3H,2H2,1H3, purity 99.9%

System: 1-ethyl-3-methylimidazolium bis((trifluoromethyl)sulfonyl)imide; phases: Liquid
Property: Refractive index (Na D-line) (Liquid); method: Standard Abbe refractometry
Temperature, K	Pressure, kPa	Refractive index (Na D-line)	uncertainty
298.15	101.325	1.42307	0.0007

System: 1-ethyl-3-methylimidazolium bis((trifluoromethyl)sulfonyl)imide; phases: Liquid
Property: Mass density, kg/m3 (Liquid); method: Vibrating tube method
Temperature, K	Pressure, kPa	Mass density, kg/m3	uncertainty
298.15	101.325	1518.74	0.7

System: 1-butyl-3-methylimidazolium bis(trifluoromethylsulfonyl)imide; phases: Liquid
Property: Refractive index (Na D-line) (Liquid); method: Standard Abbe refractometry
Temperature, K	Pressure, kPa	Refractive index (Na D-line)	uncertainty
298.15	101.325	1.42672	0.0007

System: 1-butyl-3-methylimidazolium bis(trifluoromethylsulfonyl)imide; phases: Liquid
Property: Mass density, kg/m3 (Liquid); method: Vibrating tube method
Temperature, K	Pressure, kPa	Mass density, kg/m3	uncertainty
298.15	101.325	1436.1	0.62

System: 1-butyl-3-methylpyridinium 1,1,1-trifluoro-N-[(trifluoromethyl)sulfonyl]methanesulfonamide; phases: Liquid
Property: Refractive index (Na D-line) (Liquid); method: Standard Abbe refractometry
Temperature, K	Pressure, kPa	Refractive index (Na D-line)	uncertainty
298.15	101.325	1.44595	0.0007

System: 1-butyl-3-methylpyridinium 1,1,1-trifluoro-N-[(trifluoromethyl)sulfonyl]methanesulfonamide; phases: Liquid
Property: Mass density, kg/m3 (Liquid); method: Vibrating tube method
Temperature, K	Pressure, kPa	Mass density, kg/m3	uncertainty
298.15	101.325	1414.76	0.6

System: 1-butyl-3-methylpyridinium trifluoromethanesulfonate; phases: Liquid
Property: Refractive index (Na D-line) (Liquid); method: Standard Abbe refractometry
Temperature, K	Pressure, kPa	Refractive index (Na D-line)	uncertainty
298.15	101.325	1.461377	0.000704

System: 1-butyl-3-methylpyridinium trifluoromethanesulfonate; phases: Liquid
Property: Mass density, kg/m3 (Liquid); method: Vibrating tube method
Temperature, K	Pressure, kPa	Mass density, kg/m3	uncertainty
298.15	101.325	1279.765	0.471

System: hexane; phases: Liquid
Property: Refractive index (Na D-line) (Liquid); method: Standard Abbe refractometry
Temperature, K	Pressure, kPa	Refractive index (Na D-line)	uncertainty
298.15	101.325	1.37241	0.0007

System: hexane; phases: Liquid
Property: Mass density, kg/m3 (Liquid); method: Vibrating tube method
Temperature, K	Pressure, kPa	Mass density, kg/m3	uncertainty
298.15	101.325	655.2	0.26

System: ethanol; phases: Liquid
Property: Refractive index (Na D-line) (Liquid); method: Standard Abbe refractometry
Temperature, K	Pressure, kPa	Refractive index (Na D-line)	uncertainty
298.15	101.325	1.35936	0.00068

System: ethanol; phases: Liquid
Property: Mass density, kg/m3 (Liquid); method: Vibrating tube method
Temperature, K	Pressure, kPa	Mass density, kg/m3	uncertainty
298.15	101.325	785.44	0.13

System: ethanol + hexane + 1-ethyl-3-methylimidazolium bis((trifluoromethyl)sulfonyl)imide; phases: Liquid mixture 1, Liquid mixture 2
Fixed: Temperature, K = 298.15
Fixed: Pressure, kPa = 101
Property: Mole fraction of hexane (Liquid mixture 1); method: Phase equilibration
Property: Mole fraction of hexane (Liquid mixture 2); method: Phase equilibration
Property: Mole fraction of ethanol (Liquid mixture 2); method: Phase equilibration
Mole fraction of ethanol	Mole fraction of hexane	uncertainty	Mole fraction of hexane	uncertainty	Mole fraction of ethanol	uncertainty
0	1		0.054	0.016	0	
0.013	0.987	0.013	0.051	0.016	0.226	
0.091	0.909	0.023	0.05	0.016	0.448	
0.198	0.802	0.023	0.057	0.016	0.534	
0.315	0.685	0.023	0.061	0.016	0.583	
0.403	0.594	0.023	0.064	0.016	0.618	
0.494	0.5	0.023	0.067	0.016	0.651	
0.585	0.405	0.023	0.07	0.016	0.676	

System: ethanol + hexane + 1-ethyl-3-methylimidazolium bis((trifluoromethyl)sulfonyl)imide; phases: Liquid
Fixed: Pressure, kPa = 101
Fixed: Temperature, K = 313.15
Property: Refractive index (Na D-line) (Liquid); method: Standard Abbe refractometry
Mass fraction of hexane	Mass fraction of ethanol	Refractive index (Na D-line)	uncertainty
0	0	1.41861	0.00037
0	0.006	1.41802	0.00041
0	0.012	1.41756	0.00042
0	0.027	1.416	0.00042
0	0.046	1.41421	0.00041
0	0.069	1.41205	0.00041
0	0.103	1.40875	0.00041
0	0.146	1.40468	0.0004
0	0.215	1.39898	0.00039
0	0.312	1.39104	0.00037
0	0.506	1.37781	0.00035
0	0.655	1.3693	0.00034
0	1	1.35309	0.00031
0.013	0.013	1.4163	0.00043
0.014	0.026	1.41532	0.00045
0.014	0.044	1.41308	0.00048
0.014	0.189	1.39942	0.00043
0.015	0.288	1.39104	0.00042
0.016	0.386	1.38352	0.0004
0.018	0.068	1.41073	0.00043
0.026	0.539	1.37346	0.00038
0.027	0.14	1.40292	0.00044
0.03	0.284	1.39035	0.00041
0.034	0.475	1.37754	0.00037
0.038	0.201	1.39678	0.00041
0.041	0.376	1.38249	0.00045
0.045	0.562	1.37151	0.00036
0.047	0.655	1.36675	0.00035
0.048	0.713	1.36424	0.00035
0.05	0.753	1.36208	0.00034
0.051	0.426	1.37862	0.00038
0.057	0.37	1.38194	0.00038
0.062	0.29	1.38764	0.0004
0.062	0.52	1.37267	0.00036
0.07	0.457	1.37588	0.00039
0.093	0.534	1.3707	0.00035
0.098	0.62	1.36627	0.00035
0.103	0.711	1.36157	0.00034
0.105	0.794	1.35816	0.00034
0.107	0.772	1.35874	0.00034
0.13	0.512	1.37002	0.00036
0.158	0.579	1.36567	0.00035
0.159	0.727	1.35879	0.00034
0.204	0.631	1.36161	0.00034
0.206	0.546	1.36518	0.00035
0.217	0.695	1.35837	0.00034
0.222	0.73	1.3567	0.00034
0.27	0.578	1.36167	0.00035
0.32	0.603	1.35873	0.00034
0.327	0.632	1.3573	0.00034
0.383	0.547	1.35897	0.00035
0.431	0.534	1.35797	0.00034
0.48	0.488	1.35828	0.00036

System: ethanol + hexane + 1-ethyl-3-methylimidazolium bis((trifluoromethyl)sulfonyl)imide; phases: Liquid
Fixed: Temperature, K = 313.15
Fixed: Pressure, kPa = 101
Property: Mass density, kg/m3 (Liquid); method: Vibrating tube method
Mass fraction of hexane	Mass fraction of ethanol	Mass density, kg/m3	uncertainty
0	0	1503.29	0.68
0	0.006	1494.71	2.97
0	0.012	1485.95	2.85
0	0.027	1465.46	2.7
0	0.046	1441.23	2.59
0	0.069	1412.41	2.48
0	0.103	1372.05	2.33
0	0.146	1324.73	2.13
0	0.215	1254.72	1.93
0	0.312	1166.5	1.6
0	0.506	1021.76	1.2
0	0.655	932.59	1
0	1	772.84	0.13
0.013	0.013	1468	3.73
0.014	0.026	1449.56	3.8
0.014	0.044	1423.91	4.09
0.014	0.189	1265.09	3.54
0.015	0.288	1170.56	3.37
0.016	0.386	1090.82	2.77
0.018	0.068	1391.07	3.45
0.026	0.539	978.27	2.07
0.027	0.14	1297.58	3.42
0.03	0.284	1157.11	2.76
0.034	0.475	1011.71	2.31
0.038	0.201	1222.97	3.19
0.041	0.376	1072.78	3.26
0.045	0.562	950.04	2.1
0.047	0.655	896.53	1.82
0.048	0.713	867.08	1.64
0.05	0.753	847.54	1.53
0.051	0.426	1028.67	2.41
0.057	0.37	1061.49	2.29
0.062	0.29	1119.13	2.62
0.062	0.52	960.61	2.07
0.07	0.457	991.11	2.11
0.093	0.534	927.12	1.99
0.098	0.62	878.27	1.66
0.103	0.711	832.36	1.54
0.105	0.794	795.05	1.54
0.107	0.772	804.15	1.53
0.13	0.512	910.89	1.77
0.158	0.579	856.83	1.55
0.159	0.727	792.2	1.45
0.204	0.631	804.42	1.58
0.206	0.546	840.33	1.56
0.217	0.695	770.95	1.44
0.222	0.73	755.01	1.38
0.27	0.578	786.98	1.64
0.32	0.603	749.95	1.33
0.327	0.632	736.75	1.33
0.383	0.547	738.5	1.3
0.431	0.534	719.33	1.23
0.48	0.488	711.44	1.7

System: ethanol + hexane + 1-butyl-3-methylimidazolium bis(trifluoromethylsulfonyl)imide; phases: Liquid mixture 1, Liquid mixture 2
Fixed: Temperature, K = 298.15
Fixed: Pressure, kPa = 101
Property: Mole fraction of hexane (Liquid mixture 1); method: Phase equilibration
Property: Mole fraction of hexane (Liquid mixture 2); method: Phase equilibration
Property: Mole fraction of ethanol (Liquid mixture 2); method: Phase equilibration
Mole fraction of ethanol	Mole fraction of hexane	uncertainty	Mole fraction of hexane	uncertainty	Mole fraction of ethanol	uncertainty
0	1		0.102	0.016	0	
0.017	0.983	0.017	0.086	0.016	0.277	
0.087	0.913	0.023	0.088	0.016	0.472	
0.174	0.826	0.023	0.093	0.016	0.597	
0.25	0.749	0.023	0.095	0.016	0.647	
0.336	0.664	0.023	0.104	0.017	0.683	
0.418	0.579	0.023	0.118	0.019	0.704	
0.523	0.47	0.023	0.134	0.021	0.718	

System: ethanol + hexane + 1-butyl-3-methylimidazolium bis(trifluoromethylsulfonyl)imide; phases: Liquid
Fixed: Pressure, kPa = 101
Fixed: Temperature, K = 313.15
Property: Refractive index (Na D-line) (Liquid); method: Standard Abbe refractometry
Mass fraction of hexane	Mass fraction of ethanol	Refractive index (Na D-line)	uncertainty
0	0	1.42437	0.00037
0	0.008	1.42305	0.00047
0	0.015	1.42222	0.00046
0	0.032	1.41981	0.00045
0	0.084	1.41301	0.00043
0	0.156	1.40517	0.00041
0	0.202	1.40056	0.00039
0	0.385	1.38611	0.00036
0	0.48	1.37983	0.00036
0	1	1.35309	0.00031
0.013	0.095	1.4113	0.00043
0.015	0.194	1.40135	0.0004
0.024	0.29	1.39254	0.0004
0.026	0.383	1.38555	0.00037
0.034	0.48	1.37881	0.00036
0.046	0.568	1.373	0.00037
0.048	0.283	1.39185	0.00039
0.048	0.668	1.36723	0.00035
0.051	0.762	1.36226	0.00034
0.053	0.852	1.35784	0.00034
0.068	0.367	1.38478	0.00038
0.072	0.462	1.3779	0.00038
0.1	0.632	1.36675	0.00035
0.102	0.353	1.3839	0.00038
0.104	0.533	1.37193	0.00037
0.104	0.72	1.36207	0.00034
0.109	0.839	1.35621	0.00034
0.12	0.438	1.3775	0.00038
0.159	0.757	1.35805	0.00034
0.162	0.499	1.37158	0.00037
0.164	0.416	1.37649	0.00037
0.167	0.39	1.37859	0.00039
0.196	0.564	1.36631	0.00035
0.201	0.641	1.36186	0.00035
0.221	0.733	1.35664	0.00034
0.224	0.462	1.3708	0.00037
0.273	0.51	1.36534	0.00036
0.276	0.651	1.35842	0.00035
0.312	0.552	1.36169	0.00035
0.326	0.635	1.35719	0.00035
0.34	0.463	1.36509	0.00036
0.377	0.561	1.35884	0.00035
0.393	0.487	1.36164	0.00035
0.429	0.538	1.35788	0.00035
0.45	0.441	1.36157	0.00036
0.48	0.468	1.35933	0.00035
0.528	0.444	1.3585	0.00036
0.559	0.397	1.35966	0.00036
0.624	0.354	1.3593	0.00035
0.675	0.306	1.35956	0.00038

System: ethanol + hexane + 1-butyl-3-methylimidazolium bis(trifluoromethylsulfonyl)imide; phases: Liquid
Fixed: Temperature, K = 313.15
Fixed: Pressure, kPa = 101
Property: Mass density, kg/m3 (Liquid); method: Vibrating tube method
Mass fraction of hexane	Mass fraction of ethanol	Mass density, kg/m3	uncertainty
0	0	1420.7	0.6
0	0.008	1411.58	2.36
0	0.015	1403.51	2.33
0	0.032	1384.48	2.22
0	0.084	1329.16	2.07
0	0.156	1259.12	1.92
0	0.202	1218.21	1.6
0	0.385	1077.75	1.29
0	0.48	1016.97	1.29
0	1	772.84	0.13
0.013	0.095	1302.73	3.14
0.015	0.194	1210.39	2.35
0.024	0.29	1123.21	2.77
0.026	0.383	1055.26	2.05
0.034	0.48	989.61	2.02
0.046	0.568	931	2.02
0.048	0.283	1104.16	2.4
0.048	0.668	880.96	1.67
0.051	0.762	837.35	1.46
0.053	0.852	799.51	1.38
0.068	0.367	1027.79	2.1
0.072	0.462	969.5	1.99
0.1	0.632	863.04	1.53
0.102	0.353	1006.19	2.05
0.104	0.533	905.79	1.88
0.104	0.72	823.75	1.4
0.109	0.839	773.89	1.36
0.12	0.438	943.98	1.84
0.159	0.757	776.98	1.37
0.162	0.499	882.13	1.6
0.164	0.416	922.59	1.8
0.167	0.39	932.32	1.96
0.196	0.564	831.54	1.52
0.201	0.641	797.51	1.39
0.221	0.733	753.09	1.3
0.224	0.462	858.15	1.63
0.273	0.51	807.93	1.42
0.276	0.651	754.12	1.27
0.312	0.552	770.6	1.3
0.326	0.635	735.62	1.19
0.34	0.463	788.31	1.38
0.377	0.561	735	1.22
0.393	0.487	751.87	1.23
0.429	0.538	718.46	1.09
0.45	0.441	737.78	1.19
0.48	0.468	716.92	1.15
0.528	0.444	702.86	1.07
0.559	0.397	703.19	1.38
0.624	0.354	689.16	0.61
0.675	0.306	679.42	1.69

System: ethanol + hexane + 1-butyl-3-methylpyridinium 1,1,1-trifluoro-N-[(trifluoromethyl)sulfonyl]methanesulfonamide; phases: Liquid mixture 1, Liquid mixture 2
Fixed: Temperature, K = 298.15
Fixed: Pressure, kPa = 101
Property: Mole fraction of ethanol (Liquid mixture 1); method: Phase equilibration
Property: Mole fraction of hexane (Liquid mixture 2); method: Phase equilibration
Property: Mole fraction of ethanol (Liquid mixture 2); method: Phase equilibration
Mole fraction of hexane	Mole fraction of ethanol	uncertainty	Mole fraction of hexane	uncertainty	Mole fraction of ethanol	uncertainty
1	0		0.116	0.016	0	
0.982	0.018	0.018	0.094	0.016	0.277	
0.922	0.078	0.022	0.099	0.016	0.497	
0.852	0.146	0.022	0.106	0.016	0.583	
0.764	0.234	0.023	0.104	0.016	0.634	
0.662	0.335	0.023	0.103	0.016	0.67	
0.538	0.458	0.022	0.107	0.017	0.698	
0.412	0.58	0.022	0.124	0.019	0.724	

System: ethanol + hexane + 1-butyl-3-methylpyridinium 1,1,1-trifluoro-N-[(trifluoromethyl)sulfonyl]methanesulfonamide; phases: Liquid
Fixed: Pressure, kPa = 101
Fixed: Temperature, K = 313.15
Property: Refractive index (Na D-line) (Liquid); method: Standard Abbe refractometry
Mass fraction of hexane	Mass fraction of ethanol	Refractive index (Na D-line)	uncertainty
0	0	1.44151	0.00037
0	0.015	1.43918	0.00047
0	0.033	1.43662	0.00046
0	0.054	1.4336	0.00046
0	0.082	1.42992	0.00044
0	0.117	1.42568	0.00043
0	0.165	1.41999	0.00042
0	0.246	1.41129	0.00041
0	0.327	1.40308	0.00039
0	0.522	1.38585	0.00036
0	1	1.35309	0.00031
0.021	0.191	1.41477	0.00047
0.024	0.288	1.40382	0.00045
0.024	0.385	1.39461	0.00042
0.034	0.481	1.3854	0.0004
0.046	0.569	1.37781	0.0004
0.048	0.657	1.37186	0.00037
0.048	0.754	1.36516	0.00036
0.051	0.842	1.35963	0.00035
0.056	0.279	1.40203	0.00042
0.06	0.371	1.39318	0.00044
0.072	0.462	1.38414	0.00041
0.094	0.357	1.39099	0.00043
0.095	0.54	1.37666	0.00039
0.1	0.621	1.37072	0.00037
0.103	0.71	1.36477	0.00036
0.106	0.829	1.35749	0.00035
0.119	0.438	1.38227	0.00039
0.123	0.523	1.37581	0.00039
0.154	0.751	1.35964	0.00036
0.168	0.496	1.3748	0.00037
0.196	0.555	1.36923	0.00037
0.204	0.63	1.36419	0.00036
0.217	0.727	1.35786	0.00035
0.25	0.517	1.36847	0.00037
0.266	0.652	1.3598	0.00036
0.301	0.554	1.36367	0.00036
0.306	0.644	1.35821	0.00036
0.361	0.506	1.36349	0.00036
0.368	0.561	1.35998	0.00036
0.417	0.541	1.3587	0.00036
0.472	0.468	1.36026	0.00037
0.521	0.444	1.35926	0.00036
0.62	0.353	1.35954	0.00039

System: ethanol + hexane + 1-butyl-3-methylpyridinium 1,1,1-trifluoro-N-[(trifluoromethyl)sulfonyl]methanesulfonamide; phases: Liquid
Fixed: Temperature, K = 313.15
Fixed: Pressure, kPa = 101
Property: Mass density, kg/m3 (Liquid); method: Vibrating tube method
Mass fraction of hexane	Mass fraction of ethanol	Mass density, kg/m3	uncertainty
0	0	1400.91	0.58
0	0.015	1383.83	2.27
0	0.033	1364.54	2.17
0	0.054	1342.72	2.13
0	0.082	1313.87	2.01
0	0.117	1280.76	1.88
0	0.165	1237.63	1.73
0	0.246	1170.97	1.59
0	0.327	1110.99	1.33
0	0.522	987.7	0.96
0	1	772.84	0.13
0.021	0.191	1195.5	2.63
0.024	0.288	1117.9	2.59
0.024	0.385	1051.15	2.38
0.034	0.481	985.12	2.07
0.046	0.569	928.14	1.91
0.048	0.657	884.71	1.66
0.048	0.754	841.74	1.45
0.051	0.842	804.44	1.36
0.056	0.279	1093.09	2.37
0.06	0.371	1026.68	2.18
0.072	0.462	964.94	2
0.094	0.357	1007.44	1.98
0.095	0.54	907.41	1.8
0.1	0.621	866.45	1.51
0.103	0.71	826.72	1.38
0.106	0.829	779.89	1.32
0.119	0.438	941.63	1.81
0.123	0.523	896.27	1.73
0.154	0.751	782.01	1.39
0.168	0.496	877.82	1.52
0.196	0.555	834.42	1.48
0.204	0.63	800.62	1.38
0.217	0.727	757.89	1.29
0.25	0.517	817.58	1.48
0.266	0.652	759	1.25
0.301	0.554	776.29	1.31
0.306	0.644	742.25	1.21
0.361	0.506	762.01	1.26
0.368	0.561	739.41	1.22
0.417	0.541	722.99	1.13
0.472	0.468	720.36	1.28
0.521	0.444	706.2	1.06
0.62	0.353	689.99	1.71

System: ethanol + hexane + 1-butyl-3-methylpyridinium trifluoromethanesulfonate; phases: Liquid mixture 1, Liquid mixture 2
Fixed: Temperature, K = 298.15
Fixed: Pressure, kPa = 101
Property: Mole fraction of ethanol (Liquid mixture 1); method: Phase equilibration
Property: Mole fraction of hexane (Liquid mixture 2); method: Phase equilibration
Property: Mole fraction of ethanol (Liquid mixture 2); method: Phase equilibration
Mole fraction of hexane	Mole fraction of ethanol	uncertainty	Mole fraction of hexane	uncertainty	Mole fraction of ethanol	uncertainty
1	0		0.077	0.016	0	
0.996	0.004	0.004	0.062	0.016	0.21	
0.984	0.016	0.016	0.069	0.016	0.375	
0.968	0.032	0.023	0.069	0.016	0.507	
0.955	0.045	0.023	0.069	0.016	0.561	
0.913	0.087	0.023	0.075	0.016	0.644	
0.881	0.119	0.023	0.083	0.018	0.671	
0.823	0.177	0.023	0.1	0.019	0.698	

System: ethanol + hexane + 1-butyl-3-methylpyridinium trifluoromethanesulfonate; phases: Liquid
Fixed: Pressure, kPa = 101
Fixed: Temperature, K = 313.15
Property: Refractive index (Na D-line) (Liquid); method: Standard Abbe refractometry
Mass fraction of hexane	Mass fraction of ethanol	Refractive index (Na D-line)	uncertainty
0	0	1.45705	0.00037
0	0.017	1.45452	0.00047
0	0.036	1.45173	0.00047
0	0.062	1.44784	0.00047
0	0.093	1.44339	0.00046
0	0.134	1.43769	0.00045
0	0.19	1.43031	0.00043
0	0.267	1.42081	0.00042
0	0.396	1.40626	0.0004
0	0.577	1.38801	0.00037
0	1	1.35309	0.00031
0.0001	1	1.35309	0.00031
0.016	0.209	1.426	0.00049
0.017	0.152	1.43334	0.00049
0.017	0.282	1.41672	0.00047
0.026	0.383	1.40486	0.00046
0.036	0.481	1.39337	0.00044
0.043	0.275	1.41494	0.00046
0.046	0.572	1.38398	0.00041
0.047	0.668	1.3759	0.00039
0.049	0.745	1.36929	0.00039
0.052	0.851	1.36066	0.00038
0.053	0.373	1.40294	0.00046
0.073	0.365	1.40165	0.00045
0.074	0.463	1.39167	0.00043
0.087	0.547	1.38265	0.00042
0.101	0.63	1.37475	0.0004
0.104	0.702	1.36867	0.00038
0.109	0.843	1.35727	0.00038
0.112	0.443	1.39014	0.00042
0.126	0.524	1.38134	0.00042
0.151	0.594	1.3739	0.0004
0.155	0.422	1.38817	0.00042
0.159	0.659	1.36804	0.00039
0.161	0.753	1.36057	0.00038
0.168	0.499	1.38025	0.00041
0.201	0.559	1.373	0.0004
0.206	0.476	1.37909	0.00039
0.212	0.617	1.36747	0.00039
0.216	0.704	1.36054	0.00038
0.22	0.738	1.35764	0.00038
0.238	0.534	1.37239	0.00039
0.268	0.658	1.36059	0.00038
0.273	0.687	1.3579	0.00039
0.305	0.487	1.37115	0.00039
0.305	0.544	1.3667	0.00039
0.326	0.637	1.3581	0.00038
0.364	0.445	1.37019	0.00039
0.366	0.497	1.36611	0.00039
0.376	0.56	1.36066	0.00038
0.416	0.458	1.36562	0.00039
0.426	0.515	1.3607	0.00039
0.43	0.539	1.35859	0.00039
0.469	0.502	1.35888	0.00038
0.473	0.473	1.36072	0.00039
0.523	0.428	1.36085	0.00039
0.525	0.449	1.35914	0.00039
0.566	0.41	1.35937	0.00039
0.624	0.355	1.35978	0.00041
0.63	0.333	1.36115	0.0004
0.672	0.31	1.3601	0.0004
0.72	0.265	1.36029	0.00093

System: ethanol + hexane + 1-butyl-3-methylpyridinium trifluoromethanesulfonate; phases: Liquid
Fixed: Temperature, K = 313.15
Fixed: Pressure, kPa = 101
Property: Mass density, kg/m3 (Liquid); method: Vibrating tube method
Mass fraction of hexane	Mass fraction of ethanol	Mass density, kg/m3	uncertainty
0	0	1267.81	0.46
0	0.017	1255.08	1.56
0	0.036	1240.84	1.54
0	0.062	1221.7	1.5
0	0.093	1199.49	1.44
0	0.134	1171.51	1.37
0	0.19	1134.94	1.28
0	0.267	1088.34	1.15
0	0.396	1017.71	1.02
0	0.577	931.55	0.81
0	1	772.84	0.13
0.0001	1	772.84	0.13
0.016	0.209	1113.27	1.67
0.017	0.152	1149.84	1.74
0.017	0.282	1069.02	1.81
0.026	0.383	1006.86	1.74
0.036	0.481	951.88	1.67
0.043	0.275	1055.96	1.72
0.046	0.572	905.2	1.47
0.047	0.668	865.44	1.37
0.049	0.745	835.49	1.29
0.052	0.851	795.77	1.23
0.053	0.373	995.37	1.8
0.073	0.365	985.44	1.72
0.074	0.463	935.73	1.66
0.087	0.547	890.72	1.49
0.101	0.63	849.77	1.36
0.104	0.702	821.47	1.26
0.109	0.843	770.45	1.21
0.112	0.443	922.22	1.49
0.126	0.524	877.76	1.49
0.151	0.594	834.91	1.38
0.155	0.422	903.66	1.51
0.159	0.659	807.88	1.25
0.161	0.753	773.97	1.23
0.168	0.499	864.16	1.46
0.201	0.559	820.46	1.38
0.206	0.476	851.01	1.38
0.212	0.617	795.02	1.2
0.216	0.704	763.83	1.21
0.22	0.738	751.07	1.15
0.238	0.534	810.46	1.33
0.268	0.658	753.9	1.22
0.273	0.687	742.11	1.16
0.305	0.487	792.73	1.28
0.305	0.544	773.65	1.19
0.326	0.637	733.87	1.14
0.364	0.445	779.3	1.25
0.366	0.497	760.72	1.17
0.376	0.56	734.17	1.16
0.416	0.458	748.99	1.19
0.426	0.515	726.56	1.14
0.43	0.539	717.41	1.07
0.469	0.502	710.34	1.22
0.473	0.473	718.85	1.14
0.523	0.428	710.95	1.19
0.525	0.449	702.62	1.2
0.566	0.41	697.38	1.18
0.624	0.355	689.12	1.33
0.63	0.333	694.99	1.33
0.672	0.31	682.7	1.29
0.72	0.265	675.99	1.67
