Measured thermophysical data. Thermodynamic solubility modelling, solvent effect and preferential solvation of p-nitrobenzamide in aqueous co-solvent mixtures of dimethyl sulfoxide, ethanol, isopropanol and ethylene glycol
Source: J. Chem. Thermodyn., 2019, 10.1016/j.jct.2019.05.007
Compound 1: p-nitrobenzamide, C7H6N2O3, InChI=1S/C7H6N2O3/c8-7(10)5-1-3-6(4-2-5)9(11)12/h1-4H,(H2,8,10), purity 98.1%
Compound 2: dimethyl sulfoxide, C2H6OS, InChI=1S/C2H6OS/c1-4(2)3/h1-2H3, purity 99.4%
Compound 3: water, H2O, InChI=1S/H2O/h1H2
Compound 4: ethanol, C2H6O, InChI=1S/C2H6O/c1-2-3/h3H,2H2,1H3, purity 99.4%
Compound 5: propan-2-ol, C3H8O, InChI=1S/C3H8O/c1-3(2)4/h3-4H,1-2H3, purity 99.5%
Compound 6: 1,2-ethanediol, C2H6O2, InChI=1S/C2H6O2/c3-1-2-4/h3-4H,1-2H2, purity 99.5%

System: p-nitrobenzamide + dimethyl sulfoxide + water; phases: Liquid, Crystal
Fixed: Pressure, kPa = 101.1
Property: Mole fraction of p-nitrobenzamide (Liquid); method: Chromatography
Temperature, K	Solvent: Mass fraction of dimethyl sulfoxide	Mole fraction of p-nitrobenzamide	uncertainty
293.15	0.1	0.001655	0.000123
298.15	0.1	0.001878	0.00014
303.15	0.1	0.002264	0.000169
308.15	0.1	0.002705	0.000201
313.15	0.1	0.00325	0.000242
318.15	0.1	0.003897	0.00029
323.15	0.1	0.004693	0.000349
328.15	0.1	0.00561	0.000418
293.15	0.2	0.00329	0.000245
298.15	0.2	0.003957	0.000295
303.15	0.2	0.004806	0.000358
308.15	0.2	0.005751	0.000428
313.15	0.2	0.006921	0.000515
318.15	0.2	0.008079	0.000601
323.15	0.2	0.009445	0.000703
328.15	0.2	0.01065	0.00079
293.15	0.3	0.005624	0.000419
298.15	0.3	0.006665	0.000496
303.15	0.3	0.007907	0.000589
308.15	0.3	0.009934	0.00074
313.15	0.3	0.01172	0.00087
318.15	0.3	0.01388	0.00103
323.15	0.3	0.01567	0.00117
328.15	0.3	0.01799	0.00134
293.15	0.4	0.00851	0.000634
298.15	0.4	0.009678	0.00072
303.15	0.4	0.01172	0.00087
308.15	0.4	0.01423	0.00106
313.15	0.4	0.01675	0.00125
318.15	0.4	0.01979	0.00147
323.15	0.4	0.02277	0.0017
328.15	0.4	0.02562	0.00191
293.15	0.5	0.01067	0.00079
298.15	0.5	0.01321	0.00098
303.15	0.5	0.0159	0.00118
308.15	0.5	0.01888	0.00141
313.15	0.5	0.02309	0.00172
318.15	0.5	0.02752	0.00205
323.15	0.5	0.03285	0.00245
328.15	0.5	0.03858	0.00287
293.15	0.6	0.01475	0.0011
298.15	0.6	0.01687	0.00126
303.15	0.6	0.02084	0.00155
308.15	0.6	0.025	0.00186
313.15	0.6	0.02989	0.00223
318.15	0.6	0.03523	0.00262
323.15	0.6	0.04125	0.00307
328.15	0.6	0.04746	0.00353
293.15	0.7	0.01906	0.00142
298.15	0.7	0.02263	0.00168
303.15	0.7	0.02787	0.00207
308.15	0.7	0.03352	0.0025
313.15	0.7	0.03994	0.00297
318.15	0.7	0.04775	0.00355
323.15	0.7	0.05638	0.0042
328.15	0.7	0.06572	0.00489
293.15	0.8	0.02456	0.00183
298.15	0.8	0.02807	0.00209
303.15	0.8	0.03406	0.00254
308.15	0.8	0.04142	0.00308
313.15	0.8	0.04901	0.00365
318.15	0.8	0.059	0.00439
323.15	0.8	0.06799	0.00506
328.15	0.8	0.07774	0.00579
293.15	0.9	0.0313	0.00233
298.15	0.9	0.03501	0.00261
303.15	0.9	0.04184	0.00311
308.15	0.9	0.05172	0.00385
313.15	0.9	0.06307	0.0047
318.15	0.9	0.07476	0.00557
323.15	0.9	0.08634	0.00643
328.15	0.9	0.09803	0.0073

System: p-nitrobenzamide + propan-2-ol + water; phases: Liquid, Crystal
Fixed: Pressure, kPa = 101.1
Property: Mole fraction of p-nitrobenzamide (Liquid); method: Chromatography
Temperature, K	Solvent: Mass fraction of propan-2-ol	Mole fraction of p-nitrobenzamide	uncertainty
283.15	0.1	0.0003589	2.67e-05
288.15	0.1	0.0004491	3.34e-05
293.15	0.1	0.000555	4.13e-05
298.15	0.1	0.0006795	5.06e-05
303.15	0.1	0.0008387	6.24e-05
308.15	0.1	0.001013	7.5e-05
313.15	0.1	0.00122	9.1e-05
318.15	0.1	0.001476	0.00011
323.15	0.1	0.001772	0.000132
328.15	0.1	0.001992	0.000148
283.15	0.2	0.0004093	3.05e-05
288.15	0.2	0.0005049	3.76e-05
293.15	0.2	0.0006222	4.63e-05
298.15	0.2	0.0007576	5.64e-05
303.15	0.2	0.0009242	6.88e-05
308.15	0.2	0.00113	8.4e-05
313.15	0.2	0.001344	0.0001
318.15	0.2	0.001614	0.00012
323.15	0.2	0.001913	0.000142
328.15	0.2	0.002156	0.00016
283.15	0.3	0.0004705	3.5e-05
288.15	0.3	0.0005951	4.43e-05
293.15	0.3	0.0007468	5.56e-05
298.15	0.3	0.0009061	6.75e-05
303.15	0.3	0.001102	8.2e-05
308.15	0.3	0.001329	9.9e-05
313.15	0.3	0.001582	0.000118
318.15	0.3	0.001861	0.000139
323.15	0.3	0.002179	0.000162
328.15	0.3	0.002411	0.000179
283.15	0.4	0.0005492	4.09e-05
288.15	0.4	0.0006869	5.11e-05
293.15	0.4	0.0008443	6.29e-05
298.15	0.4	0.001069	8e-05
303.15	0.4	0.001274	9.5e-05
308.15	0.4	0.001532	0.000114
313.15	0.4	0.001795	0.000134
318.15	0.4	0.002116	0.000158
323.15	0.4	0.002444	0.000182
328.15	0.4	0.002752	0.000205
283.15	0.5	0.0006213	4.63e-05
288.15	0.5	0.0007984	5.94e-05
293.15	0.5	0.0009689	7.21e-05
298.15	0.5	0.001185	8.8e-05
303.15	0.5	0.001428	0.000106
308.15	0.5	0.00169	0.000126
313.15	0.5	0.002018	0.00015
318.15	0.5	0.002392	0.000178
323.15	0.5	0.002851	0.000212
328.15	0.5	0.003257	0.000242
283.15	0.6	0.0006869	5.11e-05
288.15	0.6	0.0008902	6.63e-05
293.15	0.6	0.001087	8.1e-05
298.15	0.6	0.001395	0.000104
303.15	0.6	0.001611	0.00012
308.15	0.6	0.001946	0.000145
313.15	0.6	0.002366	0.000176
318.15	0.6	0.002805	0.000209
323.15	0.6	0.003277	0.000244
328.15	0.6	0.003762	0.00028
283.15	0.7	0.0007984	5.94e-05
288.15	0.7	0.0009951	7.41e-05
293.15	0.7	0.001218	9.1e-05
298.15	0.7	0.00152	0.000113
303.15	0.7	0.001834	0.000137
308.15	0.7	0.002248	0.000167
313.15	0.7	0.002634	0.000196
318.15	0.7	0.003185	0.000237
323.15	0.7	0.003664	0.000273
328.15	0.7	0.004326	0.000322
283.15	0.8	0.0008902	6.63e-05
288.15	0.8	0.0011	8.2e-05
293.15	0.8	0.001349	0.0001
298.15	0.8	0.001736	0.000129
303.15	0.8	0.00209	0.000156
308.15	0.8	0.002536	0.000189
313.15	0.8	0.003002	0.000223
318.15	0.8	0.003592	0.000267
323.15	0.8	0.004215	0.000314
328.15	0.8	0.004923	0.000366
283.15	0.9	0.001008	7.5e-05
288.15	0.9	0.001277	9.5e-05
293.15	0.9	0.00152	0.000113
298.15	0.9	0.001992	0.000148
303.15	0.9	0.002411	0.000179
308.15	0.9	0.00291	0.000217
313.15	0.9	0.003474	0.000259
318.15	0.9	0.004169	0.00031
323.15	0.9	0.00487	0.000363
328.15	0.9	0.00567	0.000422

System: p-nitrobenzamide + ethanol + water; phases: Liquid, Crystal
Fixed: Pressure, kPa = 101.1
Property: Mole fraction of p-nitrobenzamide (Liquid); method: Chromatography
Temperature, K	Solvent: Mass fraction of ethanol	Mole fraction of p-nitrobenzamide	uncertainty
283.15	0.1	0.0003675	2.74e-05
288.15	0.1	0.0004639	3.45e-05
293.15	0.1	0.0005742	4.27e-05
298.15	0.1	0.0007063	5.26e-05
303.15	0.1	0.0008637	6.43e-05
308.15	0.1	0.001055	7.9e-05
313.15	0.1	0.00126	9.4e-05
318.15	0.1	0.001522	0.000113
323.15	0.1	0.001806	0.000134
328.15	0.1	0.002143	0.00016
283.15	0.2	0.0004271	3.18e-05
288.15	0.2	0.0005248	3.91e-05
293.15	0.2	0.0006561	4.88e-05
298.15	0.2	0.0007977	5.94e-05
303.15	0.2	0.0009843	7.33e-05
308.15	0.2	0.001179	8.8e-05
313.15	0.2	0.001432	0.000107
318.15	0.2	0.001706	0.000127
323.15	0.2	0.002046	0.000152
328.15	0.2	0.002428	0.000181
283.15	0.3	0.0004841	3.6e-05
288.15	0.3	0.0006031	4.49e-05
293.15	0.3	0.0007379	5.49e-05
298.15	0.3	0.0009085	6.76e-05
303.15	0.3	0.001099	8.2e-05
308.15	0.3	0.001348	0.0001
313.15	0.3	0.001598	0.000119
318.15	0.3	0.00192	0.000143
323.15	0.3	0.00228	0.00017
328.15	0.3	0.002696	0.000201
283.15	0.4	0.0005679	4.23e-05
288.15	0.4	0.0006993	5.21e-05
293.15	0.4	0.0008761	6.52e-05
298.15	0.4	0.001065	7.9e-05
303.15	0.4	0.001293	9.6e-05
308.15	0.4	0.001569	0.000117
313.15	0.4	0.001893	0.000141
318.15	0.4	0.002272	0.000169
323.15	0.4	0.002693	0.0002
328.15	0.4	0.003149	0.000234
283.15	0.5	0.0006965	5.19e-05
288.15	0.5	0.0008537	6.36e-05
293.15	0.5	0.001056	7.9e-05
298.15	0.5	0.001271	9.5e-05
303.15	0.5	0.001571	0.000117
308.15	0.5	0.001882	0.00014
313.15	0.5	0.002248	0.000167
318.15	0.5	0.002681	0.0002
323.15	0.5	0.003192	0.000238
328.15	0.5	0.00372	0.000277
283.15	0.6	0.0008588	6.39e-05
288.15	0.6	0.001048	7.8e-05
293.15	0.6	0.001293	9.6e-05
298.15	0.6	0.00157	0.000117
303.15	0.6	0.001891	0.000141
308.15	0.6	0.002285	0.00017
313.15	0.6	0.002733	0.000203
318.15	0.6	0.003256	0.000242
323.15	0.6	0.003869	0.000288
328.15	0.6	0.00457	0.00034
283.15	0.7	0.0009999	7.44e-05
288.15	0.7	0.001243	9.3e-05
293.15	0.7	0.001526	0.000114
298.15	0.7	0.001872	0.000139
303.15	0.7	0.002274	0.000169
308.15	0.7	0.002739	0.000204
313.15	0.7	0.003283	0.000244
318.15	0.7	0.003919	0.000292
323.15	0.7	0.004567	0.00034
328.15	0.7	0.005413	0.000403
283.15	0.8	0.001132	8.4e-05
288.15	0.8	0.001396	0.000104
293.15	0.8	0.001749	0.00013
298.15	0.8	0.002132	0.000159
303.15	0.8	0.002613	0.000195
308.15	0.8	0.00313	0.000233
313.15	0.8	0.003777	0.000281
318.15	0.8	0.004497	0.000335
323.15	0.8	0.005425	0.000404
328.15	0.8	0.006386	0.000475
283.15	0.9	0.001316	9.8e-05
288.15	0.9	0.001613	0.00012
293.15	0.9	0.002008	0.000149
298.15	0.9	0.002457	0.000183
303.15	0.9	0.003017	0.000225
308.15	0.9	0.003612	0.000269
313.15	0.9	0.004422	0.000329
318.15	0.9	0.005293	0.000394
323.15	0.9	0.00625	0.000465
328.15	0.9	0.007375	0.000549

System: p-nitrobenzamide + 1,2-ethanediol + water; phases: Liquid, Crystal
Fixed: Pressure, kPa = 101.1
Property: Mole fraction of p-nitrobenzamide (Liquid); method: Chromatography
Temperature, K	Solvent: Mass fraction of 1,2-ethanediol	Mole fraction of p-nitrobenzamide	uncertainty
283.15	0.1	0.000412	3.07e-05
288.15	0.1	0.0005212	3.88e-05
293.15	0.1	0.0006389	4.76e-05
298.15	0.1	0.0007926	5.9e-05
303.15	0.1	0.0009558	7.12e-05
308.15	0.1	0.001183	8.8e-05
313.15	0.1	0.001419	0.000106
318.15	0.1	0.001708	0.000127
323.15	0.1	0.002013	0.00015
328.15	0.1	0.002384	0.000177
283.15	0.2	0.0005222	3.89e-05
288.15	0.2	0.000664	4.94e-05
293.15	0.2	0.000815	6.07e-05
298.15	0.2	0.001002	7.5e-05
303.15	0.2	0.001232	9.2e-05
308.15	0.2	0.001475	0.00011
313.15	0.2	0.001809	0.000135
318.15	0.2	0.002146	0.00016
323.15	0.2	0.002536	0.000189
328.15	0.2	0.003048	0.000227
283.15	0.3	0.0006789	5.05e-05
288.15	0.3	0.0008417	6.27e-05
293.15	0.3	0.001045	7.8e-05
298.15	0.3	0.00127	9.5e-05
303.15	0.3	0.001568	0.000117
308.15	0.3	0.00188	0.00014
313.15	0.3	0.002287	0.00017
318.15	0.3	0.002676	0.000199
323.15	0.3	0.003212	0.000239
328.15	0.3	0.003756	0.00028
283.15	0.4	0.0008676	6.46e-05
288.15	0.4	0.001089	8.1e-05
293.15	0.4	0.001339	0.0001
298.15	0.4	0.00161	0.00012
303.15	0.4	0.001985	0.000148
308.15	0.4	0.002403	0.000179
313.15	0.4	0.002858	0.000213
318.15	0.4	0.003435	0.000256
323.15	0.4	0.004098	0.000305
328.15	0.4	0.00481	0.000358
283.15	0.5	0.001094	8.1e-05
288.15	0.5	0.001346	0.0001
293.15	0.5	0.001669	0.000124
298.15	0.5	0.002041	0.000152
303.15	0.5	0.002435	0.000181
308.15	0.5	0.002987	0.000222
313.15	0.5	0.003559	0.000265
318.15	0.5	0.004235	0.000315
323.15	0.5	0.004998	0.000372
328.15	0.5	0.005892	0.000439
283.15	0.6	0.001402	0.000104
288.15	0.6	0.001756	0.000131
293.15	0.6	0.002127	0.000158
298.15	0.6	0.002646	0.000197
303.15	0.6	0.003134	0.000233
308.15	0.6	0.003837	0.000286
313.15	0.6	0.004534	0.000338
318.15	0.6	0.005358	0.000399
323.15	0.6	0.006328	0.000471
328.15	0.6	0.007437	0.000554
283.15	0.7	0.001802	0.000134
288.15	0.7	0.002239	0.000167
293.15	0.7	0.002744	0.000204
298.15	0.7	0.003339	0.000249
303.15	0.7	0.003945	0.000294
308.15	0.7	0.004827	0.000359
313.15	0.7	0.005668	0.000422
318.15	0.7	0.006698	0.000499
323.15	0.7	0.007831	0.000583
328.15	0.7	0.009207	0.000685
283.15	0.8	0.002382	0.000177
288.15	0.8	0.002896	0.000216
293.15	0.8	0.003485	0.000259
298.15	0.8	0.004208	0.000313
303.15	0.8	0.005059	0.000377
308.15	0.8	0.006077	0.000452
313.15	0.8	0.007037	0.000524
318.15	0.8	0.008201	0.00061
323.15	0.8	0.009651	0.000718
328.15	0.8	0.01101	0.00082
283.15	0.9	0.00276	0.000206
288.15	0.9	0.003455	0.000257
293.15	0.9	0.004206	0.000313
298.15	0.9	0.005039	0.000375
303.15	0.9	0.006035	0.000449
308.15	0.9	0.007194	0.000536
313.15	0.9	0.008539	0.000636
318.15	0.9	0.009864	0.000734
323.15	0.9	0.01157	0.00086
328.15	0.9	0.01333	0.00099
