Measured thermophysical data. Molar excess enthalpy (Hm E) for systems of aqueous piperazine derivatives
Source: J. Chem. Thermodyn., 2015, 10.1016/j.jct.2015.06.006
Compound 1: N-methylpiperazine, C5H12N2, InChI=1S/C5H12N2/c1-7-4-2-6-3-5-7/h6H,2-5H2,1H3, purity 99%
Compound 2: 4-morpholineethanol, C6H13NO2, InChI=1S/C6H13NO2/c8-4-1-7-2-5-9-6-3-7/h8H,1-6H2, purity 99%
Compound 3: 1,4-dimethylpiperazine, C6H14N2, InChI=1S/C6H14N2/c1-7-3-5-8(2)6-4-7/h3-6H2,1-2H3, purity 98%
Compound 4: N-(2-hydroxyethyl)piperazine, C6H14N2O, InChI=1S/C6H14N2O/c9-6-5-8-3-1-7-2-4-8/h7,9H,1-6H2, purity 98%
Compound 5: N-(3-aminopropyl)morpholine, C7H16N2O, InChI=1S/C7H16N2O/c8-2-1-3-9-4-6-10-7-5-9/h1-8H2, purity 98%
Compound 6: tetrahydro-1,4-oxazine, C4H9NO, InChI=1S/C4H9NO/c1-3-6-4-2-5-1/h5H,1-4H2, purity 99.5%
Compound 7: water, H2O, InChI=1S/H2O/h1H2
Compound 8: diethanolamine, C4H11NO2, InChI=1S/C4H11NO2/c6-3-1-5-2-4-7/h5-7H,1-4H2, purity 99%
Compound 9: N-methyldiethanolamine, C5H13NO2, InChI=1S/C5H13NO2/c1-6(2-4-7)3-5-8/h7-8H,2-5H2,1H3, purity 99%

System: diethanolamine + water; phases: Liquid
Fixed: Pressure, kPa = 101
Fixed: Temperature, K = 298.15
Property: Excess molar enthalpy (molar enthalpy of mixing), kJ/mol (Liquid); method: Calvet calorimetry
Mole fraction of diethanolamine	Excess molar enthalpy (molar enthalpy of mixing), kJ/mol	uncertainty
0.0985	-1.054	0.023
0.3012	-2.072	0.044
0.3368	-2.084	0.044
0.3618	-2.058	0.044
0.3911	-2.08	0.044
0.4862	-1.918	0.041
0.5791	-1.615	0.035
0.6428	-1.38	0.03
0.7346	-1.094	0.023

System: N-methyldiethanolamine + water; phases: Liquid
Fixed: Pressure, kPa = 101
Fixed: Temperature, K = 313.15
Property: Excess molar enthalpy (molar enthalpy of mixing), kJ/mol (Liquid); method: Calvet calorimetry
Mole fraction of N-methyldiethanolamine	Excess molar enthalpy (molar enthalpy of mixing), kJ/mol	uncertainty
0.0952	-1.395	0.03
0.1436	-1.766	0.038
0.2235	-2.174	0.046
0.2808	-2.316	0.049
0.3434	-2.326	0.05
0.4252	-2.239	0.048
0.5152	-1.941	0.041
0.6373	-1.608	0.034
0.7411	-1.154	0.025
0.8207	-0.839	0.018

System: N-methylpiperazine + water; phases: Liquid
Fixed: Pressure, kPa = 101
Property: Excess molar enthalpy (molar enthalpy of mixing), kJ/mol (Liquid); method: Calvet calorimetry
Temperature, K	Mole fraction of N-methylpiperazine	Excess molar enthalpy (molar enthalpy of mixing), kJ/mol	uncertainty
298.15	0.03	-1.307	0.032
298.15	0.0707	-2.842	0.062
298.15	0.0991	-3.285	0.07
298.15	0.1507	-4.123	0.088
298.15	0.1998	-4.495	0.096
298.15	0.3027	-4.641	0.099
298.15	0.4033	-4.351	0.093
298.15	0.55	-3.547	0.076
298.15	0.5966	-3.236	0.069
298.15	0.64	-2.93	0.062
298.15	0.7926	-1.753	0.038
298.15	0.8936	-0.917	0.02
313.15	0.03	-1.243	0.03
313.15	0.0695	-2.536	0.055
313.15	0.1003	-3.216	0.069
313.15	0.1496	-3.964	0.084
313.15	0.2017	-4.426	0.094
313.15	0.3017	-4.567	0.097
313.15	0.4013	-4.285	0.091
313.15	0.55	-3.386	0.072
313.15	0.5876	-3.126	0.067
313.15	0.7014	-2.301	0.049
313.15	0.7969	-1.578	0.034
313.15	0.904	-0.75	0.016
333.15	0.0307	-1.007	0.025
333.15	0.0698	-2.27	0.05
333.15	0.1001	-3.019	0.065
333.15	0.1493	-3.83	0.082
333.15	0.1997	-4.278	0.091
333.15	0.2998	-4.459	0.095
333.15	0.3945	-4.16	0.089
333.15	0.5064	-3.533	0.075
333.15	0.6	-2.903	0.062
333.15	0.6949	-2.222	0.047
333.15	0.8014	-1.442	0.031
333.15	0.8985	-0.731	0.016

System: 1,4-dimethylpiperazine + water; phases: Liquid
Fixed: Pressure, kPa = 101
Property: Excess molar enthalpy (molar enthalpy of mixing), kJ/mol (Liquid); method: Calvet calorimetry
Temperature, K	Mole fraction of 1,4-dimethylpiperazine	Excess molar enthalpy (molar enthalpy of mixing), kJ/mol	uncertainty
298.15	0.0297	-1.4958	0.033
298.15	0.07	-2.3	0.049
298.15	0.1035	-2.585	0.055
298.15	0.1499	-2.748	0.059
298.15	0.207	-2.772	0.059
298.15	0.3005	-2.62	0.056
298.15	0.4079	-2.315	0.049
298.15	0.5119	-1.958	0.042
298.15	0.5962	-1.6431	0.0351
298.15	0.7005	-1.2351	0.0265
298.15	0.7869	-0.897	0.019
298.15	0.908	-0.386	0.009
313.15	0.0304	-1.4567	0.0321
313.15	0.0699	-2.231	0.048
313.15	0.101	-2.485	0.053
313.15	0.1502	-2.639	0.056
313.15	0.1998	-2.65	0.056
313.15	0.3001	-2.484	0.053
313.15	0.4019	-2.202	0.047
313.15	0.4984	-1.887	0.04
313.15	0.6017	-1.522	0.033
313.15	0.7017	-1.152	0.025
313.15	0.8044	-0.762	0.016
313.15	0.9007	-0.389	0.009
333.15	0.0305	-1.3909	0.0307
333.15	0.0738	-2.213	0.048
333.15	0.1013	-2.424	0.052
333.15	0.1497	-2.571	0.055
333.15	0.2002	-2.579	0.055
333.15	0.2998	-2.414	0.051
333.15	0.3982	-2.147	0.046
333.15	0.4991	-1.827	0.039
333.15	0.6082	-1.451	0.031
333.15	0.7378	-0.983	0.021
333.15	0.8224	-0.67	0.015
333.15	0.8954	-0.396	0.009

System: N-(2-hydroxyethyl)piperazine + water; phases: Liquid
Fixed: Pressure, kPa = 101
Property: Excess molar enthalpy (molar enthalpy of mixing), kJ/mol (Liquid); method: Calvet calorimetry
Temperature, K	Mole fraction of N-(2-hydroxyethyl)piperazine	Excess molar enthalpy (molar enthalpy of mixing), kJ/mol	uncertainty
298.15	0.0322	-1.025	0.024
298.15	0.072	-2.0276	0.0443
298.15	0.1007	-2.692	0.058
298.15	0.1505	-3.272	0.07
298.15	0.1974	-3.681	0.078
298.15	0.3028	-4.081	0.087
298.15	0.4049	-4.002	0.085
298.15	0.4868	-3.761	0.08
298.15	0.5537	-3.423	0.073
298.15	0.6883	-2.56	0.055
298.15	0.7915	-1.786	0.038
298.15	0.9081	-0.826	0.018
313.15	0.0333	-0.994	0.023
313.15	0.0766	-2.066	0.045
313.15	0.102	-2.545	0.055
313.15	0.1501	-3.219	0.069
313.15	0.2006	-3.629	0.077
313.15	0.2994	-3.98	0.085
313.15	0.4026	-3.863	0.082
313.15	0.5073	-3.511	0.075
313.15	0.5913	-3.078	0.066
313.15	0.6987	-2.379	0.051
313.15	0.8	-1.649	0.035
313.15	0.87	-1.09	0.024
333.15	0.0308	-0.895	0.022
333.15	0.0695	-1.874	0.041
333.15	0.0994	-2.453	0.053
333.15	0.1505	-3.146	0.067
333.15	0.2005	-3.547	0.076
333.15	0.2992	-3.852	0.082
333.15	0.4018	-3.834	0.082
333.15	0.504	-3.415	0.073
333.15	0.6218	-2.761	0.059
333.15	0.702	-2.244	0.048
333.15	0.8002	-1.575	0.034
333.15	0.9032	-0.786	0.017

System: 4-morpholineethanol + water; phases: Liquid
Fixed: Pressure, kPa = 101
Property: Excess molar enthalpy (molar enthalpy of mixing), kJ/mol (Liquid); method: Calvet calorimetry
Temperature, K	Mole fraction of 4-morpholineethanol	Excess molar enthalpy (molar enthalpy of mixing), kJ/mol	uncertainty
298.15	0.0301	-0.612	0.014
298.15	0.07	-1.185	0.026
298.15	0.1	-1.502	0.032
298.15	0.15	-1.931	0.041
298.15	0.2005	-2.233	0.048
298.15	0.3002	-2.426	0.052
298.15	0.4049	-2.465	0.053
298.15	0.4989	-2.2633	0.0483
298.15	0.597	-2.0438	0.0436
298.15	0.6949	-1.7936	0.0383
298.15	0.8055	-1.414	0.0303
298.15	0.9258	-0.9048	0.0195
313.15	0.0297	-0.563	0.013
313.15	0.0699	-1.117	0.024
313.15	0.1007	-1.465	0.032
313.15	0.151	-1.878	0.04
313.15	0.1992	-2.162	0.046
313.15	0.3012	-2.373	0.051
313.15	0.4035	-2.367	0.05
313.15	0.5051	-2.125	0.045
313.15	0.6037	-1.855	0.04
313.15	0.6954	-1.659	0.035
313.15	0.8001	-1.297	0.028
313.15	0.9	-0.886	0.019
333.15	0.03	-0.476	0.012
333.15	0.0695	-1.06	0.023
333.15	0.0999	-1.409	0.03
333.15	0.1508	-1.839	0.039
333.15	0.2003	-2.089	0.045
333.15	0.3005	-2.306	0.049
333.15	0.3838	-2.315	0.049
333.15	0.481	-2.023	0.043
333.15	0.6044	-1.726	0.037
333.15	0.6994	-1.443	0.031
333.15	0.8055	-1.208	0.026
333.15	0.8969	-0.812	0.018

System: N-(3-aminopropyl)morpholine + water; phases: Liquid
Fixed: Pressure, kPa = 101
Property: Excess molar enthalpy (molar enthalpy of mixing), kJ/mol (Liquid); method: Calvet calorimetry
Temperature, K	Mole fraction of N-(3-aminopropyl)morpholine	Excess molar enthalpy (molar enthalpy of mixing), kJ/mol	uncertainty
298.15	0.0307	-1.284	0.03
298.15	0.0703	-2.394	0.052
298.15	0.0998	-3.061	0.065
298.15	0.1515	-3.487	0.074
298.15	0.2012	-3.718	0.079
298.15	0.2937	-4.085	0.087
298.15	0.4043	-4.087	0.087
298.15	0.4937	-3.689	0.079
298.15	0.6027	-3.02	0.064
298.15	0.7037	-2.352	0.05
298.15	0.8194	-1.632	0.035
298.15	0.9082	-0.8924	0.0195
313.15	0.0306	-1.162	0.028
313.15	0.0694	-2.338	0.051
313.15	0.1006	-2.867	0.061
313.15	0.1491	-3.334	0.071
313.15	0.201	-3.653	0.078
313.15	0.3029	-3.889	0.083
313.15	0.4178	-3.771	0.08
313.15	0.5035	-3.342	0.071
313.15	0.5933	-2.868	0.061
313.15	0.709	-2.113	0.045
313.15	0.796	-1.617	0.035
313.15	0.9127	-0.7544	0.0165
333.15	0.0312	-0.968	0.024
333.15	0.0711	-2.063	0.045
333.15	0.1004	-2.685	0.057
333.15	0.1505	-3.239	0.069
333.15	0.2002	-3.524	0.075
333.15	0.2992	-3.753	0.08
333.15	0.4036	-3.669	0.078
333.15	0.5048	-3.18	0.068
333.15	0.5554	-2.923	0.062
333.15	0.6577	-2.274	0.049
333.15	0.7141	-1.901	0.041
333.15	0.8928	-0.863	0.019

System: tetrahydro-1,4-oxazine + water; phases: Liquid
Fixed: Pressure, kPa = 101
Property: Excess molar enthalpy (molar enthalpy of mixing), kJ/mol (Liquid); method: Calvet calorimetry
Temperature, K	Mole fraction of tetrahydro-1,4-oxazine	Excess molar enthalpy (molar enthalpy of mixing), kJ/mol	uncertainty
298.15	0.0303	-0.543	0.014
298.15	0.0707	-1.235	0.027
298.15	0.1005	-1.745	0.038
298.15	0.1503	-2.279	0.049
298.15	0.201	-2.758	0.059
298.15	0.3054	-3.426	0.073
298.15	0.3974	-3.577	0.076
298.15	0.4911	-3.131	0.067
298.15	0.55	-2.761	0.059
298.15	0.7149	-1.753	0.038
298.15	0.85	-0.795	0.017
298.15	0.9126	-0.467	0.01
313.15	0.0303	-0.576	0.014
313.15	0.0703	-1.284	0.028
313.15	0.1	-1.778	0.038
313.15	0.1497	-2.459	0.053
313.15	0.2003	-2.858	0.061
313.15	0.2968	-3.444	0.073
313.15	0.3935	-3.726	0.079
313.15	0.5025	-3.199	0.068
313.15	0.61	-2.512	0.054
313.15	0.7143	-1.765	0.038
313.15	0.85	-0.837	0.018
313.15	0.9113	-0.514	0.011
333.15	0.0313	-0.58	0.014
333.15	0.0728	-1.325	0.029
333.15	0.1041	-1.851	0.04
333.15	0.151	-2.541	0.054
333.15	0.1996	-2.957	0.063
333.15	0.3032	-3.623	0.077
333.15	0.4152	-3.768	0.08
333.15	0.4924	-3.362	0.072
333.15	0.6039	-2.653	0.057
333.15	0.6923	-1.985	0.042
333.15	0.8241	-1.085	0.023
333.15	0.89	-0.622	0.014
