Measured thermophysical data. Osmotic coefficients of alcoholic mixtures containing BMpyrDCA: Experimental determination and correlation
Source: J. Chem. Thermodyn., 2014, 10.1016/j.jct.2013.12.002
Compound 1: 1-butyl-1-methylpyrrolidinium dicyanamide, C11H20N4, InChI=1S/C9H20N.C2N3/c1-3-4-7-10(2)8-5-6-9-10;3-1-5-2-4/h3-9H2,1-2H3;/q+1;-1, purity 98%
Compound 2: propan-1-ol, C3H8O, InChI=1S/C3H8O/c1-2-3-4/h4H,2-3H2,1H3, purity 99.9%
Compound 3: propan-2-ol, C3H8O, InChI=1S/C3H8O/c1-3(2)4/h3-4H,1-2H3, purity 99.8%
Compound 4: butan-1-ol, C4H10O, InChI=1S/C4H10O/c1-2-3-4-5/h5H,2-4H2,1H3, purity 99.9%
Compound 5: butan-2-ol, C4H10O, InChI=1S/C4H10O/c1-3-4(2)5/h4-5H,3H2,1-2H3, purity 99.5%
Compound 6: pentan-1-ol, C5H12O, InChI=1S/C5H12O/c1-2-3-4-5-6/h6H,2-5H2,1H3, purity 99%

System: propan-1-ol + 1-butyl-1-methylpyrrolidinium dicyanamide; phases: Liquid
Fixed: Pressure, kPa = 101
Fixed: Temperature, K = 323.15
Property: Osmotic coefficient (Liquid); method: Knauer K-7000 vapour pressure osmometer
Molality, mol/kg of 1-butyl-1-methylpyrrolidinium dicyanamide	Osmotic coefficient	uncertainty
0.0836	0.9	0.013
0.119	0.858	0.013
0.2054	0.8	0.014
0.2962	0.743	0.015
0.4029	0.71	0.016
0.502	0.689	0.016
0.7791	0.653	0.017
1.1819	0.614	0.018
1.6103	0.587	0.019
1.9996	0.576	0.019
2.4425	0.565	0.02
2.8653	0.56	0.02

System: propan-2-ol + 1-butyl-1-methylpyrrolidinium dicyanamide; phases: Liquid
Fixed: Pressure, kPa = 101
Fixed: Temperature, K = 323.15
Property: Osmotic coefficient (Liquid); method: Knauer K-7000 vapour pressure osmometer
Molality, mol/kg of 1-butyl-1-methylpyrrolidinium dicyanamide	Osmotic coefficient	uncertainty
0.0709	0.942	0.013
0.1087	0.878	0.013
0.1972	0.827	0.014
0.2934	0.778	0.014
0.3976	0.75	0.015
0.4909	0.722	0.016
0.7769	0.685	0.016
1.1752	0.645	0.017
1.5945	0.631	0.018
1.9977	0.612	0.018
2.4192	0.608	0.018
2.8212	0.595	0.019
3.2965	0.59	0.019

System: butan-1-ol + 1-butyl-1-methylpyrrolidinium dicyanamide; phases: Liquid
Fixed: Pressure, kPa = 101
Fixed: Temperature, K = 323.15
Property: Osmotic coefficient (Liquid); method: Knauer K-7000 vapour pressure osmometer
Molality, mol/kg of 1-butyl-1-methylpyrrolidinium dicyanamide	Osmotic coefficient	uncertainty
0.0577	0.734	0.017
0.0761	0.68	0.017
0.1089	0.665	0.017
0.2006	0.624	0.018
0.296	0.602	0.019
0.4011	0.587	0.019
0.4745	0.581	0.019
0.8117	0.57	0.019
1.2141	0.551	0.02
1.617	0.541	0.02
2.0331	0.532	0.02
2.4298	0.52	0.021
2.8448	0.516	0.021
3.3078	0.508	0.021

System: butan-2-ol + 1-butyl-1-methylpyrrolidinium dicyanamide; phases: Liquid
Fixed: Pressure, kPa = 101
Fixed: Temperature, K = 323.15
Property: Osmotic coefficient (Liquid); method: Knauer K-7000 vapour pressure osmometer
Molality, mol/kg of 1-butyl-1-methylpyrrolidinium dicyanamide	Osmotic coefficient	uncertainty
0.0878	0.793	0.014
0.1149	0.755	0.015
0.1863	0.705	0.016
0.2981	0.641	0.017
0.4092	0.621	0.018
0.5397	0.591	0.019
0.8291	0.58	0.019
1.2131	0.555	0.02
1.6111	0.556	0.02
2.0188	0.548	0.02
2.4	0.539	0.02
2.7765	0.533	0.02
3.3068	0.523	0.021

System: pentan-1-ol + 1-butyl-1-methylpyrrolidinium dicyanamide; phases: Liquid
Fixed: Pressure, kPa = 101
Fixed: Temperature, K = 323.15
Property: Osmotic coefficient (Liquid); method: Knauer K-7000 vapour pressure osmometer
Molality, mol/kg of 1-butyl-1-methylpyrrolidinium dicyanamide	Osmotic coefficient	uncertainty
0.0446	0.63	0.018
0.0818	0.59	0.019
0.1078	0.558	0.02
0.1865	0.512	0.021
0.299	0.491	0.022
0.3928	0.477	0.022
0.5108	0.467	0.022
0.8086	0.453	0.023
1.191	0.444	0.023
1.5976	0.435	0.023
2.0039	0.425	0.024
2.406	0.417	0.024
2.7982	0.409	0.024
3.0633	0.404	0.024
