Measured thermophysical data. Investigation of electrolytes of the vanadium redox flow battery (VII): Prediction of the viscosity of mixed electrolyte solution (VOSO4 + H2SO4 + H2O) based on Eyring's theory
Source: J. Chem. Thermodyn., 2019, 10.1016/j.jct.2019.02.020
Compound 1: oxovanadium(IV) sulfate, O5SV, InChI=1S/H2O4S.O.V/c1-5(2,3)4;;/h(H2,1,2,3,4);;/q;;+2/p-2, purity 99%
Compound 2: sulfuric acid, H2O4S, InChI=1S/H2O4S/c1-5(2,3)4/h(H2,1,2,3,4), purity 99.9%
Compound 3: water, H2O, InChI=1S/H2O/h1H2, purity 99.9%

System: oxovanadium(IV) sulfate + sulfuric acid + water; phases: Liquid
Fixed: Pressure, kPa = 100
Property: Viscosity, Pa*s (Liquid); method: Falling or rolling sphere viscometry
Temperature, K	Molality, mol/kg of oxovanadium(IV) sulfate	Molality, mol/kg of sulfuric acid	Viscosity, Pa*s	uncertainty
283.15	0	0.3312	0.0013858	0.0001389
283.15	0	0.6672	0.0014798	0.0001484
283.15	0	0.9962	0.0015018	0.0001506
283.15	0	1.3312	0.0016525	0.0001657
283.15	0	1.6695	0.0017325	0.0001737
283.15	0	2.0004	0.0018171	0.0001822
283.15	0	2.327	0.0019145	0.000192
283.15	0	2.6667	0.0020172	0.0002022
283.15	0	2.9936	0.0021543	0.000216
283.15	0	3.3301	0.0022804	0.0002286
283.15	0	3.6668	0.0023311	0.0002337
283.15	0.05	0.2663	0.0014111	0.0001415
283.15	0.1	0.5328	0.0015234	0.0001527
283.15	0.1493	0.7957	0.0016481	0.0001652
283.15	0.2003	1.0676	0.0017794	0.0001784
283.15	0.2494	1.3291	0.0019212	0.0001926
283.15	0.2985	1.5906	0.0020732	0.0002079
283.15	0.3502	1.8662	0.0022478	0.0002254
283.15	0.4	2.1316	0.0024508	0.0002457
283.15	0.4509	2.403	0.0026135	0.000262
283.15	0.4986	2.6574	0.002831	0.0002838
283.15	0.55	2.9311	0.0030763	0.0003084
283.15	0.1001	0.2001	0.0014379	0.0001442
283.15	0.1998	0.3996	0.0015851	0.0001589
283.15	0.3	0.5998	0.0017422	0.0001747
283.15	0.4004	0.8006	0.0019226	0.0001928
283.15	0.5004	1.0007	0.0021257	0.0002131
283.15	0.5992	1.1981	0.002345	0.0002351
283.15	0.6968	1.3933	0.0025594	0.0002566
283.15	0.7971	1.5939	0.0028387	0.0002847
283.15	0.9008	1.8013	0.0031426	0.0003151
283.15	0.9947	1.989	0.0034203	0.0003429
283.15	1.0997	2.1989	0.0038046	0.0003815
283.15	0.15	0.1333	0.0014725	0.0001476
283.15	0.3002	0.2668	0.001667	0.0001671
283.15	0.4502	0.4001	0.0018882	0.0001893
283.15	0.6002	0.5334	0.0021343	0.000214
283.15	0.7479	0.6647	0.0024075	0.0002414
283.15	0.8983	0.7983	0.0027273	0.0002735
283.15	1.0487	0.932	0.0031159	0.0003125
283.15	1.1985	1.0651	0.003537	0.0003546
283.15	1.3494	1.1992	0.0040087	0.000402
283.15	1.4997	1.3328	0.0045501	0.0004562
283.15	1.6495	1.4659	0.0051349	0.0005149
283.15	0.1994	0.0665	0.0015094	0.0001513
283.15	0.3985	0.1328	0.0017506	0.0001755
283.15	0.6004	0.2001	0.0020386	0.0002044
283.15	0.7999	0.2666	0.0023864	0.0002393
283.15	1.0004	0.3334	0.0028012	0.0002809
283.15	1.1971	0.399	0.0032797	0.0003289
283.15	1.4017	0.4672	0.0038741	0.0003885
283.15	1.5969	0.5322	0.0045361	0.0004548
283.15	1.7976	0.5991	0.0053323	0.0005347
283.15	2.0004	0.6667	0.0063593	0.0006377
283.15	2.2	0.7332	0.0073976	0.0007418
283.15	0.2501	0	0.0015508	0.0001555
283.15	0.5	0	0.0018608	0.0001866
283.15	0.7507	0	0.0022417	0.0002248
283.15	0.9964	0	0.0026966	0.0002704
283.15	1.2497	0	0.0033084	0.0003317
283.15	1.5001	0	0.0040515	0.0004063
283.15	1.75	0	0.0049662	0.000498
283.15	1.9998	0	0.0061084	0.0006125
283.15	2.2488	0	0.0075427	0.0007564
283.15	2.4992	0	0.0092732	0.0009299
283.15	2.75	0	0.011553	0.001159
288.15	0	0.3312	0.0012119	0.0001215
288.15	0	0.6672	0.0012944	0.0001298
288.15	0	0.9962	0.0013213	0.0001325
288.15	0	1.3312	0.0014495	0.0001453
288.15	0	1.6695	0.0015186	0.0001523
288.15	0	2.0004	0.001589	0.0001593
288.15	0	2.327	0.001672	0.0001676
288.15	0	2.6667	0.0017677	0.0001772
288.15	0	2.9936	0.0018823	0.0001887
288.15	0	3.3301	0.0019784	0.0001984
288.15	0	3.6668	0.0020356	0.0002041
288.15	0.05	0.2663	0.0012305	0.0001234
288.15	0.1	0.5328	0.0013286	0.0001332
288.15	0.1493	0.7957	0.0014365	0.000144
288.15	0.2003	1.0676	0.001549	0.0001553
288.15	0.2494	1.3291	0.0016699	0.0001674
288.15	0.2985	1.5906	0.0018017	0.0001806
288.15	0.3502	1.8662	0.001951	0.0001956
288.15	0.4	2.1316	0.0021311	0.0002137
288.15	0.4509	2.403	0.002262	0.0002268
288.15	0.4986	2.6574	0.0024515	0.0002458
288.15	0.55	2.9311	0.0026985	0.0002706
288.15	0.1001	0.2001	0.0012523	0.0001256
288.15	0.1998	0.3996	0.0013794	0.0001383
288.15	0.3	0.5998	0.0015149	0.0001519
288.15	0.4004	0.8006	0.0016685	0.0001673
288.15	0.5004	1.0007	0.0018397	0.0001845
288.15	0.5992	1.1981	0.0020263	0.0002032
288.15	0.6968	1.3933	0.0022102	0.0002216
288.15	0.7971	1.5939	0.0024422	0.0002449
288.15	0.9008	1.8013	0.0026899	0.0002697
288.15	0.9947	1.989	0.0029151	0.0002923
288.15	1.0997	2.1989	0.003249	0.0003258
288.15	0.15	0.1333	0.0012808	0.0001284
288.15	0.3002	0.2668	0.0014483	0.0001452
288.15	0.4502	0.4001	0.0016381	0.0001642
288.15	0.6002	0.5334	0.0018481	0.0001853
288.15	0.7479	0.6647	0.0020755	0.0002081
288.15	0.8983	0.7983	0.0023424	0.0002349
288.15	1.0487	0.932	0.0026534	0.0002661
288.15	1.1985	1.0651	0.0030007	0.0003009
288.15	1.3494	1.1992	0.0033994	0.0003409
288.15	1.4997	1.3328	0.0038431	0.0003853
288.15	1.6495	1.4659	0.0043189	0.0004331
288.15	0.1994	0.0665	0.0013122	0.0001316
288.15	0.3985	0.1328	0.0015181	0.0001522
288.15	0.6004	0.2001	0.0017626	0.0001767
288.15	0.7999	0.2666	0.0020532	0.0002059
288.15	1.0004	0.3334	0.0024018	0.0002408
288.15	1.1971	0.399	0.0027949	0.0002802
288.15	1.4017	0.4672	0.003287	0.0003296
288.15	1.5969	0.5322	0.0038234	0.0003834
288.15	1.7976	0.5991	0.0044726	0.0004485
288.15	2.0004	0.6667	0.0052965	0.0005311
288.15	2.2	0.7332	0.0061315	0.0006149
288.15	0.2501	0	0.0013474	0.0001351
288.15	0.5	0	0.0016104	0.0001615
288.15	0.7507	0	0.001932	0.0001937
288.15	0.9964	0	0.0023124	0.0002319
288.15	1.2497	0	0.0028159	0.0002824
288.15	1.5001	0	0.0034266	0.0003436
288.15	1.75	0	0.0041713	0.0004183
288.15	1.9998	0	0.0050921	0.0005106
288.15	2.2488	0	0.0062384	0.0006256
288.15	2.4992	0	0.0076155	0.0007637
288.15	2.75	0	0.0094054	0.0009432
293.15	0	0.3312	0.0010699	0.0001073
293.15	0	0.6672	0.0011445	0.0001147
293.15	0	0.9962	0.0011718	0.0001175
293.15	0	1.3312	0.0012822	0.0001286
293.15	0	1.6695	0.001343	0.0001347
293.15	0	2.0004	0.0014057	0.0001409
293.15	0	2.327	0.0014763	0.000148
293.15	0	2.6667	0.0015691	0.0001573
293.15	0	2.9936	0.0016634	0.0001668
293.15	0	3.3301	0.0017248	0.0001729
293.15	0	3.6668	0.0017942	0.0001799
293.15	0.05	0.2663	0.0010849	0.0001088
293.15	0.1	0.5328	0.001169	0.0001172
293.15	0.1493	0.7957	0.0012646	0.0001268
293.15	0.2003	1.0676	0.001363	0.0001367
293.15	0.2494	1.3291	0.001469	0.0001473
293.15	0.2985	1.5906	0.0015807	0.0001585
293.15	0.3502	1.8662	0.0017107	0.0001715
293.15	0.4	2.1316	0.0018646	0.000187
293.15	0.4509	2.403	0.0019802	0.0001985
293.15	0.4986	2.6574	0.0021473	0.0002153
293.15	0.55	2.9311	0.0023656	0.0002372
293.15	0.1001	0.2001	0.0011028	0.0001106
293.15	0.1998	0.3996	0.0012123	0.0001215
293.15	0.3	0.5998	0.0013306	0.0001334
293.15	0.4004	0.8006	0.0014628	0.0001467
293.15	0.5004	1.0007	0.0016104	0.0001615
293.15	0.5992	1.1981	0.0017701	0.0001775
293.15	0.6968	1.3933	0.0019295	0.0001935
293.15	0.7971	1.5939	0.0021231	0.0002129
293.15	0.9008	1.8013	0.0023344	0.0002341
293.15	0.9947	1.989	0.0025262	0.0002533
293.15	1.0997	2.1989	0.0028069	0.0002814
293.15	0.15	0.1333	0.001127	0.000113
293.15	0.3002	0.2668	0.0012716	0.0001275
293.15	0.4502	0.4001	0.0014351	0.0001439
293.15	0.6002	0.5334	0.0016142	0.0001619
293.15	0.7479	0.6647	0.0018091	0.0001814
293.15	0.8983	0.7983	0.0020341	0.000204
293.15	1.0487	0.932	0.0022973	0.0002303
293.15	1.1985	1.0651	0.0025884	0.0002595
293.15	1.3494	1.1992	0.0029167	0.0002925
293.15	1.4997	1.3328	0.0032884	0.0003297
293.15	1.6495	1.4659	0.003683	0.0003693
293.15	0.1994	0.0665	0.0011534	0.0001156
293.15	0.3985	0.1328	0.0013306	0.0001334
293.15	0.6004	0.2001	0.0015405	0.0001545
293.15	0.7999	0.2666	0.0017988	0.0001804
293.15	1.0004	0.3334	0.0020827	0.0002088
293.15	1.1971	0.399	0.0024111	0.0002418
293.15	1.4017	0.4672	0.0028223	0.000283
293.15	1.5969	0.5322	0.0032662	0.0003275
293.15	1.7976	0.5991	0.003801	0.0003811
293.15	2.0004	0.6667	0.0044748	0.0004487
293.15	2.2	0.7332	0.0051609	0.0005175
293.15	0.2501	0	0.0011834	0.0001187
293.15	0.5	0	0.001409	0.0001413
293.15	0.7507	0	0.0016822	0.0001687
293.15	0.9964	0	0.0020049	0.000201
293.15	1.2497	0	0.0024285	0.0002435
293.15	1.5001	0	0.0029359	0.0002944
293.15	1.75	0	0.0035478	0.0003558
293.15	1.9998	0	0.0043043	0.0004316
293.15	2.2488	0	0.0052378	0.0005252
293.15	2.4992	0	0.0063482	0.0006366
293.15	2.75	0	0.0077841	0.0007806
298.15	0	0.3312	0.00095335	9.558e-05
298.15	0	0.6672	0.0010242	0.0001027
298.15	0	0.9962	0.001049	0.0001052
298.15	0	1.3312	0.0011438	0.0001147
298.15	0	1.6695	0.0011968	0.00012
298.15	0	2.0004	0.0012518	0.0001255
298.15	0	2.327	0.0013139	0.0001317
298.15	0	2.6667	0.001391	0.0001395
298.15	0	2.9936	0.0014742	0.0001478
298.15	0	3.3301	0.0015345	0.0001539
298.15	0	3.6668	0.0015959	0.00016
298.15	0.05	0.2663	0.00096522	9.678e-05
298.15	0.1	0.5328	0.0010398	0.0001043
298.15	0.1493	0.7957	0.0011236	0.0001127
298.15	0.2003	1.0676	0.00121	0.0001213
298.15	0.2494	1.3291	0.0013027	0.0001306
298.15	0.2985	1.5906	0.0014003	0.0001404
298.15	0.3502	1.8662	0.0015139	0.0001518
298.15	0.4	2.1316	0.001649	0.0001653
298.15	0.4509	2.403	0.0017488	0.0001753
298.15	0.4986	2.6574	0.0019001	0.0001905
298.15	0.55	2.9311	0.0020737	0.0002079
298.15	0.1001	0.2001	0.00097975	9.823e-05
298.15	0.1998	0.3996	0.001076	0.0001079
298.15	0.3	0.5998	0.0011796	0.0001183
298.15	0.4004	0.8006	0.0012943	0.0001298
298.15	0.5004	1.0007	0.0014223	0.0001426
298.15	0.5992	1.1981	0.0015605	0.0001565
298.15	0.6968	1.3933	0.001701	0.0001706
298.15	0.7971	1.5939	0.0018639	0.0001869
298.15	0.9008	1.8013	0.0020453	0.0002051
298.15	0.9947	1.989	0.0022102	0.0002216
298.15	1.0997	2.1989	0.0024528	0.0002459
298.15	0.15	0.1333	0.00099987	0.00010025
298.15	0.3002	0.2668	0.0011266	0.000113
298.15	0.4502	0.4001	0.001269	0.0001272
298.15	0.6002	0.5334	0.0014238	0.0001428
298.15	0.7479	0.6647	0.0015914	0.0001596
298.15	0.8983	0.7983	0.0017838	0.0001789
298.15	1.0487	0.932	0.0020095	0.0002015
298.15	1.1985	1.0651	0.0022561	0.0002262
298.15	1.3494	1.1992	0.0025332	0.000254
298.15	1.4997	1.3328	0.0028464	0.0002854
298.15	1.6495	1.4659	0.0031766	0.0003185
298.15	0.1994	0.0665	0.0010228	0.0001025
298.15	0.3985	0.1328	0.0011768	0.000118
298.15	0.6004	0.2001	0.0013587	0.0001362
298.15	0.7999	0.2666	0.0015796	0.0001584
298.15	1.0004	0.3334	0.0018236	0.0001828
298.15	1.1971	0.399	0.0021031	0.0002109
298.15	1.4017	0.4672	0.0024525	0.0002459
298.15	1.5969	0.5322	0.0028278	0.0002835
298.15	1.7976	0.5991	0.0032698	0.0003279
298.15	2.0004	0.6667	0.0038221	0.0003833
298.15	2.2	0.7332	0.004396	0.0004408
298.15	0.2501	0	0.0010491	0.0001052
298.15	0.5	0	0.0012444	0.0001248
298.15	0.7507	0	0.0014791	0.0001483
298.15	0.9964	0	0.0017554	0.000176
298.15	1.2497	0	0.0021147	0.000212
298.15	1.5001	0	0.0025429	0.000255
298.15	1.75	0	0.003052	0.000306
298.15	1.9998	0	0.0036789	0.0003689
298.15	2.2488	0	0.0044482	0.000446
298.15	2.4992	0	0.005359	0.0005374
298.15	2.75	0	0.0065243	0.0006543
303.15	0	0.3312	0.00085607	8.583e-05
303.15	0	0.6672	0.0009256	9.28e-05
303.15	0	0.9962	0.00094482	9.473e-05
303.15	0	1.3312	0.0010263	0.0001029
303.15	0	1.6695	0.0010732	0.0001076
303.15	0	2.0004	0.0011225	0.0001125
303.15	0	2.327	0.0011789	0.0001182
303.15	0	2.6667	0.0012438	0.0001247
303.15	0	2.9936	0.0013195	0.0001323
303.15	0	3.3301	0.0013744	0.0001378
303.15	0	3.6668	0.0014294	0.0001433
303.15	0.05	0.2663	0.00086634	8.686e-05
303.15	0.1	0.5328	0.00093169	9.341e-05
303.15	0.1493	0.7957	0.0010059	0.0001009
303.15	0.2003	1.0676	0.0010828	0.0001086
303.15	0.2494	1.3291	0.0011641	0.0001167
303.15	0.2985	1.5906	0.0012504	0.0001254
303.15	0.3502	1.8662	0.0013506	0.0001354
303.15	0.4	2.1316	0.0014697	0.0001474
303.15	0.4509	2.403	0.0015567	0.0001561
303.15	0.4986	2.6574	0.0016958	0.00017
303.15	0.55	2.9311	0.0018411	0.0001846
303.15	0.1001	0.2001	0.00087823	8.805e-05
303.15	0.1998	0.3996	0.00096232	9.649e-05
303.15	0.3	0.5998	0.0010541	0.0001057
303.15	0.4004	0.8006	0.0011549	0.0001158
303.15	0.5004	1.0007	0.0012667	0.000127
303.15	0.5992	1.1981	0.0013872	0.0001391
303.15	0.6968	1.3933	0.0015113	0.0001515
303.15	0.7971	1.5939	0.0016514	0.0001656
303.15	0.9008	1.8013	0.0018086	0.0001813
303.15	0.9947	1.989	0.0019514	0.0001957
303.15	1.0997	2.1989	0.0021618	0.0002168
303.15	0.15	0.1333	0.00089591	8.983e-05
303.15	0.3002	0.2668	0.0010059	0.0001009
303.15	0.4502	0.4001	0.0011309	0.0001134
303.15	0.6002	0.5334	0.0012666	0.000127
303.15	0.7479	0.6647	0.0014118	0.0001416
303.15	0.8983	0.7983	0.001578	0.0001582
303.15	1.0487	0.932	0.0017719	0.0001777
303.15	1.1985	1.0651	0.0019845	0.000199
303.15	1.3494	1.1992	0.0022223	0.0002228
303.15	1.4997	1.3328	0.0024894	0.0002496
303.15	1.6495	1.4659	0.0027719	0.0002779
303.15	0.1994	0.0665	0.00091518	9.176e-05
303.15	0.3985	0.1328	0.0010495	0.0001052
303.15	0.6004	0.2001	0.0012081	0.0001211
303.15	0.7999	0.2666	0.0014002	0.0001404
303.15	1.0004	0.3334	0.0016102	0.0001614
303.15	1.1971	0.399	0.0018502	0.0001855
303.15	1.4017	0.4672	0.0021504	0.0002156
303.15	1.5969	0.5322	0.0024695	0.0002476
303.15	1.7976	0.5991	0.0028472	0.0002855
303.15	2.0004	0.6667	0.003303	0.0003312
303.15	2.2	0.7332	0.0037889	0.0003799
303.15	0.2501	0	0.0009378	9.403e-05
303.15	0.5	0	0.0011077	0.0001111
303.15	0.7507	0	0.0013112	0.0001315
303.15	0.9964	0	0.00155	0.0001554
303.15	1.2497	0	0.0018588	0.0001864
303.15	1.5001	0	0.002223	0.0002229
303.15	1.75	0	0.0026598	0.0002667
303.15	1.9998	0	0.0031803	0.0003189
303.15	2.2488	0	0.0038237	0.0003834
303.15	2.4992	0	0.0045796	0.0004592
303.15	2.75	0	0.0055442	0.000556
308.15	0	0.3312	0.00077526	7.773e-05
308.15	0	0.6672	0.00083711	8.393e-05
308.15	0	0.9962	0.00085538	8.576e-05
308.15	0	1.3312	0.00093367	9.361e-05
308.15	0	1.6695	0.00097754	9.801e-05
308.15	0	2.0004	0.0010156	0.0001018
308.15	0	2.327	0.0010589	0.0001062
308.15	0	2.6667	0.0011163	0.0001119
308.15	0	2.9936	0.0011879	0.0001191
308.15	0	3.3301	0.0012383	0.0001242
308.15	0	3.6668	0.00129	0.0001293
308.15	0.05	0.2663	0.00078033	7.824e-05
308.15	0.1	0.5328	0.00084171	8.439e-05
308.15	0.1493	0.7957	0.00090778	9.102e-05
308.15	0.2003	1.0676	0.00097512	9.777e-05
308.15	0.2494	1.3291	0.0010481	0.0001051
308.15	0.2985	1.5906	0.001125	0.0001128
308.15	0.3502	1.8662	0.0012136	0.0001217
308.15	0.4	2.1316	0.0013187	0.0001322
308.15	0.4509	2.403	0.0013973	0.0001401
308.15	0.4986	2.6574	0.001525	0.0001529
308.15	0.55	2.9311	0.0016366	0.0001641
308.15	0.1001	0.2001	0.00079196	7.94e-05
308.15	0.1998	0.3996	0.0008676	8.699e-05
308.15	0.3	0.5998	0.00094857	9.511e-05
308.15	0.4004	0.8006	0.0010376	0.000104
308.15	0.5004	1.0007	0.0011362	0.0001139
308.15	0.5992	1.1981	0.0012427	0.0001246
308.15	0.6968	1.3933	0.0013543	0.0001358
308.15	0.7971	1.5939	0.0014743	0.0001478
308.15	0.9008	1.8013	0.0016122	0.0001616
308.15	0.9947	1.989	0.001737	0.0001742
308.15	1.0997	2.1989	0.001918	0.0001923
308.15	0.15	0.1333	0.00080719	8.093e-05
308.15	0.3002	0.2668	0.0009054	9.078e-05
308.15	0.4502	0.4001	0.0010148	0.0001017
308.15	0.6002	0.5334	0.0011336	0.0001137
308.15	0.7479	0.6647	0.0012627	0.0001266
308.15	0.8983	0.7983	0.0014068	0.0001411
308.15	1.0487	0.932	0.0015769	0.0001581
308.15	1.1985	1.0651	0.0017607	0.0001765
308.15	1.3494	1.1992	0.0019664	0.0001972
308.15	1.4997	1.3328	0.0021963	0.0002202
308.15	1.6495	1.4659	0.0024403	0.0002447
308.15	0.1994	0.0665	0.00082474	8.269e-05
308.15	0.3985	0.1328	0.00094308	9.456e-05
308.15	0.6004	0.2001	0.0010816	0.0001084
308.15	0.7999	0.2666	0.0012517	0.0001255
308.15	1.0004	0.3334	0.001433	0.0001437
308.15	1.1971	0.399	0.0016412	0.0001646
308.15	1.4017	0.4672	0.0019011	0.0001906
308.15	1.5969	0.5322	0.0021738	0.000218
308.15	1.7976	0.5991	0.0024977	0.0002504
308.15	2.0004	0.6667	0.0028885	0.0002896
308.15	2.2	0.7332	0.0032948	0.0003304
308.15	0.2501	0	0.00084421	8.464e-05
308.15	0.5	0	0.00099293	9.956e-05
308.15	0.7507	0	0.0011712	0.0001174
308.15	0.9964	0	0.0013785	0.0001382
308.15	1.2497	0	0.001646	0.000165
308.15	1.5001	0	0.0019593	0.0001965
308.15	1.75	0	0.0023344	0.0002341
308.15	1.9998	0	0.0027833	0.0002791
308.15	2.2488	0	0.0033196	0.0003329
308.15	2.4992	0	0.003953	0.0003964
308.15	2.75	0	0.0047581	0.0004771
313.15	0	0.3312	0.00070431	7.062e-05
313.15	0	0.6672	0.00076314	7.651e-05
313.15	0	0.9962	0.00077481	7.768e-05
313.15	0	1.3312	0.00085335	8.556e-05
313.15	0	1.6695	0.00089051	8.928e-05
313.15	0	2.0004	0.00092432	9.267e-05
313.15	0	2.327	0.00097062	9.732e-05
313.15	0	2.6667	0.0010193	0.0001022
313.15	0	2.9936	0.0010772	0.000108
313.15	0	3.3301	0.0011252	0.0001128
313.15	0	3.6668	0.0011712	0.0001174
313.15	0.05	0.2663	0.00070825	7.101e-05
313.15	0.1	0.5328	0.00076377	7.658e-05
313.15	0.1493	0.7957	0.00082349	8.256e-05
313.15	0.2003	1.0676	0.00088496	8.873e-05
313.15	0.2494	1.3291	0.00094931	9.518e-05
313.15	0.2985	1.5906	0.0010186	0.0001021
313.15	0.3502	1.8662	0.0010982	0.0001101
313.15	0.4	2.1316	0.0011931	0.0001196
313.15	0.4509	2.403	0.0012615	0.0001265
313.15	0.4986	2.6574	0.0013785	0.0001382
313.15	0.55	2.9311	0.0014772	0.0001481
313.15	0.1001	0.2001	0.00071807	7.2e-05
313.15	0.1998	0.3996	0.00078642	7.885e-05
313.15	0.3	0.5998	0.00085944	8.617e-05
313.15	0.4004	0.8006	0.00093862	9.411e-05
313.15	0.5004	1.0007	0.0010265	0.0001029
313.15	0.5992	1.1981	0.0011208	0.0001124
313.15	0.6968	1.3933	0.0012218	0.0001225
313.15	0.7971	1.5939	0.0013257	0.0001329
313.15	0.9008	1.8013	0.0014478	0.0001452
313.15	0.9947	1.989	0.0015568	0.0001561
313.15	1.0997	2.1989	0.0017178	0.0001722
313.15	0.15	0.1333	0.00073204	7.34e-05
313.15	0.3002	0.2668	0.00082055	8.227e-05
313.15	0.4502	0.4001	0.00091768	9.201e-05
313.15	0.6002	0.5334	0.0010219	0.0001025
313.15	0.7479	0.6647	0.0011365	0.000114
313.15	0.8983	0.7983	0.001263	0.0001266
313.15	1.0487	0.932	0.0014124	0.0001416
313.15	1.1985	1.0651	0.0015731	0.0001577
313.15	1.3494	1.1992	0.0017527	0.0001757
313.15	1.4997	1.3328	0.0019509	0.0001956
313.15	1.6495	1.4659	0.002166	0.0002172
313.15	0.1994	0.0665	0.00074716	7.491e-05
313.15	0.3985	0.1328	0.00085328	8.555e-05
313.15	0.6004	0.2001	0.00097607	9.787e-05
313.15	0.7999	0.2666	0.0011251	0.0001128
313.15	1.0004	0.3334	0.0012847	0.0001288
313.15	1.1971	0.399	0.0014667	0.0001471
313.15	1.4017	0.4672	0.0016936	0.0001698
313.15	1.5969	0.5322	0.0019304	0.0001936
313.15	1.7976	0.5991	0.0022135	0.0002219
313.15	2.0004	0.6667	0.0025451	0.0002552
313.15	2.2	0.7332	0.002906	0.0002914
313.15	0.2501	0	0.00076399	7.66e-05
313.15	0.5	0	0.00089698	8.994e-05
313.15	0.7507	0	0.0010531	0.0001056
313.15	0.9964	0	0.0012348	0.0001238
313.15	1.2497	0	0.0014678	0.0001472
313.15	1.5001	0	0.0017403	0.0001745
313.15	1.75	0	0.0020643	0.000207
313.15	1.9998	0	0.0024445	0.0002451
313.15	2.2488	0	0.0029161	0.0002924
313.15	2.4992	0	0.0034465	0.0003456
313.15	2.75	0	0.0041262	0.0004138
318.15	0	0.3312	0.00064433	6.46e-05
318.15	0	0.6672	0.00069779	6.996e-05
318.15	0	0.9962	0.00071008	7.119e-05
318.15	0	1.3312	0.00078193	7.84e-05
318.15	0	1.6695	0.0008167	8.188e-05
318.15	0	2.0004	0.0008473	8.495e-05
318.15	0	2.327	0.00089144	8.938e-05
318.15	0	2.6667	0.00094552	9.48e-05
318.15	0	2.9936	0.00098716	9.897e-05
318.15	0	3.3301	0.0010272	0.000103
318.15	0	3.6668	0.00107	0.0001073
318.15	0.05	0.2663	0.00064685	6.486e-05
318.15	0.1	0.5328	0.00069838	7.002e-05
318.15	0.1493	0.7957	0.0007513	7.533e-05
318.15	0.2003	1.0676	0.00080851	8.106e-05
318.15	0.2494	1.3291	0.00086571	8.68e-05
318.15	0.2985	1.5906	0.00092797	9.304e-05
318.15	0.3502	1.8662	0.00099927	0.00010019
318.15	0.4	2.1316	0.0010838	0.0001087
318.15	0.4509	2.403	0.0011469	0.000115
318.15	0.4986	2.6574	0.0012553	0.0001259
318.15	0.55	2.9311	0.0013398	0.0001343
318.15	0.1001	0.2001	0.0006551	6.568e-05
318.15	0.1998	0.3996	0.00071647	7.184e-05
318.15	0.3	0.5998	0.00078309	7.851e-05
318.15	0.4004	0.8006	0.00085453	8.568e-05
318.15	0.5004	1.0007	0.00093336	9.358e-05
318.15	0.5992	1.1981	0.0010171	0.000102
318.15	0.6968	1.3933	0.0011088	0.0001112
318.15	0.7971	1.5939	0.0011993	0.0001202
318.15	0.9008	1.8013	0.0013082	0.0001312
318.15	0.9947	1.989	0.0014054	0.0001409
318.15	1.0997	2.1989	0.0015482	0.0001552
318.15	0.15	0.1333	0.00066715	6.689e-05
318.15	0.3002	0.2668	0.00074668	7.486e-05
318.15	0.4502	0.4001	0.00083398	8.362e-05
318.15	0.6002	0.5334	0.00092724	9.297e-05
318.15	0.7479	0.6647	0.0010293	0.0001032
318.15	0.8983	0.7983	0.0011414	0.0001144
318.15	1.0487	0.932	0.0012742	0.0001278
318.15	1.1985	1.0651	0.0014153	0.0001419
318.15	1.3494	1.1992	0.0015738	0.0001578
318.15	1.4997	1.3328	0.0017472	0.0001752
318.15	1.6495	1.4659	0.0019359	0.0001941
318.15	0.1994	0.0665	0.00068075	6.826e-05
318.15	0.3985	0.1328	0.00077585	7.779e-05
318.15	0.6004	0.2001	0.00088596	8.883e-05
318.15	0.7999	0.2666	0.001019	0.0001022
318.15	1.0004	0.3334	0.0011592	0.0001162
318.15	1.1971	0.399	0.0013196	0.0001323
318.15	1.4017	0.4672	0.0015183	0.0001522
318.15	1.5969	0.5322	0.0017268	0.0001731
318.15	1.7976	0.5991	0.0019704	0.0001976
318.15	2.0004	0.6667	0.0022601	0.0002266
318.15	2.2	0.7332	0.0025754	0.0002582
318.15	0.2501	0	0.0006958	6.976e-05
318.15	0.5	0	0.00081425	8.164e-05
318.15	0.7507	0	0.00095278	9.553e-05
318.15	0.9964	0	0.0011131	0.0001116
318.15	1.2497	0	0.0013185	0.0001322
318.15	1.5001	0	0.0015561	0.000156
318.15	1.75	0	0.0018378	0.0001843
318.15	1.9998	0	0.0021677	0.0002174
318.15	2.2488	0	0.0025747	0.0002582
318.15	2.4992	0	0.0030286	0.0003037
318.15	2.75	0	0.0036081	0.0003618

System: oxovanadium(IV) sulfate + sulfuric acid + water; phases: Liquid
Fixed: Pressure, kPa = 100
Property: Mass density, kg/m3 (Liquid); method: Vibrating tube method
Temperature, K	Molality, mol/kg of oxovanadium(IV) sulfate	Molality, mol/kg of sulfuric acid	Mass density, kg/m3	uncertainty
293.15	0	0.3312	1019.13	24.46
293.15	0	0.6672	1039.1	24.94
293.15	0	0.9962	1057.95	25.39
293.15	0	1.3312	1076.44	25.84
293.15	0	1.6695	1094.43	26.27
293.15	0	2.0004	1111.51	26.68
293.15	0	2.327	1127.75	27.07
293.15	0	2.6667	1143.44	27.44
293.15	0	2.9936	1161.33	27.87
293.15	0	3.3301	1173.91	28.17
293.15	0	3.6668	1188.61	28.53
293.15	0.05	0.2663	1022.95	24.55
293.15	0.1	0.5328	1046.31	25.11
293.15	0.1493	0.7957	1068.57	25.65
293.15	0.2003	1.0676	1090.83	26.18
293.15	0.2494	1.3291	1111.21	26.67
293.15	0.2985	1.5906	1131.65	27.16
293.15	0.3502	1.8662	1152.12	27.65
293.15	0.4	2.1316	1171.13	28.11
293.15	0.4509	2.403	1189.88	28.56
293.15	0.4986	2.6574	1206.95	28.97
293.15	0.55	2.9311	1224.14	29.38
293.15	0.1001	0.2001	1025.22	24.61
293.15	0.1998	0.3996	1050.87	25.22
293.15	0.3	0.5998	1075.49	25.81
293.15	0.4004	0.8006	1099.51	26.39
293.15	0.5004	1.0007	1122.64	26.94
293.15	0.5992	1.1981	1144.89	27.48
293.15	0.6968	1.3933	1165.09	27.96
293.15	0.7971	1.5939	1187.28	28.5
293.15	0.9008	1.8013	1208.45	29
293.15	0.9947	1.989	1225.95	29.42
293.15	1.0997	2.1989	1246.78	29.92
293.15	0.15	0.1333	1028.26	24.68
293.15	0.3002	0.2668	1056.98	25.37
293.15	0.4502	0.4001	1085.18	26.04
293.15	0.6002	0.5334	1111.61	26.68
293.15	0.7479	0.6647	1137.27	27.29
293.15	0.8983	0.7983	1162.73	27.91
293.15	1.0487	0.932	1187.24	28.49
293.15	1.1985	1.0651	1210.94	29.06
293.15	1.3494	1.1992	1233.92	29.61
293.15	1.4997	1.3328	1256	30.14
293.15	1.6495	1.4659	1277.36	30.66
293.15	0.1994	0.0665	1031.33	24.75
293.15	0.3985	0.1328	1063.03	25.51
293.15	0.6004	0.2001	1094.08	26.26
293.15	0.7999	0.2666	1123.76	26.97
293.15	1.0004	0.3334	1153.23	27.68
293.15	1.1971	0.399	1180.91	28.34
293.15	1.4017	0.4672	1209.08	29.02
293.15	1.5969	0.5322	1235.05	29.64
293.15	1.7976	0.5991	1260.98	30.26
293.15	2.0004	0.6667	1285.94	30.86
293.15	2.2	0.7332	1310.52	31.45
293.15	0.2501	0	1034.67	24.83
293.15	0.5	0	1069.8	25.68
293.15	0.7507	0	1104.11	26.5
293.15	0.9964	0	1136.2	27.27
293.15	1.2497	0	1169.5	28.07
293.15	1.5001	0	1201.04	28.83
293.15	1.75	0	1231.58	29.56
293.15	1.9998	0	1261.16	30.27
293.15	2.2488	0	1289.97	30.96
293.15	2.4992	0	1317.94	31.63
293.15	2.75	0	1345.06	32.28
303.15	0	0.3312	1015.94	24.38
303.15	0	0.6672	1035.36	24.85
303.15	0	0.9962	1053.74	25.29
303.15	0	1.3312	1071.78	25.72
303.15	0	1.6695	1089.37	26.15
303.15	0	2.0004	1106.08	26.55
303.15	0	2.327	1122.01	26.93
303.15	0	2.6667	1138.64	27.33
303.15	0	2.9936	1155.01	27.72
303.15	0	3.3301	1167.41	28.02
303.15	0	3.6668	1181.92	28.37
303.15	0.05	0.2663	1019.75	24.47
303.15	0.1	0.5328	1042.57	25.02
303.15	0.1493	0.7957	1064.35	25.54
303.15	0.2003	1.0676	1086.16	26.07
303.15	0.2494	1.3291	1106.15	26.55
303.15	0.2985	1.5906	1126.22	27.03
303.15	0.3502	1.8662	1146.35	27.51
303.15	0.4	2.1316	1165.08	27.96
303.15	0.4509	2.403	1183.56	28.41
303.15	0.4986	2.6574	1200.45	28.81
303.15	0.55	2.9311	1217.46	29.22
303.15	0.1001	0.2001	1022.06	24.53
303.15	0.1998	0.3996	1047.2	25.13
303.15	0.3	0.5998	1071.33	25.71
303.15	0.4004	0.8006	1094.96	26.28
303.15	0.5004	1.0007	1117.71	26.83
303.15	0.5992	1.1981	1139.62	27.35
303.15	0.6968	1.3933	1159.32	27.82
303.15	0.7971	1.5939	1181.43	28.35
303.15	0.9008	1.8013	1202.35	28.86
303.15	0.9947	1.989	1219.63	29.27
303.15	1.0997	2.1989	1240.26	29.77
303.15	0.15	0.1333	1025.13	24.6
303.15	0.3002	0.2668	1053.37	25.28
303.15	0.4502	0.4001	1081.12	25.95
303.15	0.6002	0.5334	1107.16	26.57
303.15	0.7479	0.6647	1132.47	27.18
303.15	0.8983	0.7983	1157.6	27.78
303.15	1.0487	0.932	1181.81	28.36
303.15	1.1985	1.0651	1205.27	28.93
303.15	1.3494	1.1992	1228.02	29.47
303.15	1.4997	1.3328	1249.91	30
303.15	1.6495	1.4659	1271.12	30.51
303.15	0.1994	0.0665	1028.26	24.68
303.15	0.3985	0.1328	1059.51	25.43
303.15	0.6004	0.2001	1090.15	26.16
303.15	0.7999	0.2666	1119.47	26.87
303.15	1.0004	0.3334	1148.61	27.57
303.15	1.1971	0.399	1176.01	28.22
303.15	1.4017	0.4672	1203.91	28.89
303.15	1.5969	0.5322	1229.67	29.51
303.15	1.7976	0.5991	1255.4	30.13
303.15	2.0004	0.6667	1280.14	30.72
303.15	2.2	0.7332	1304.64	31.31
303.15	0.2501	0	1031.66	24.76
303.15	0.5	0	1066.39	25.59
303.15	0.7507	0	1100.34	26.41
303.15	0.9964	0	1132.1	27.17
303.15	1.2497	0	1165.09	27.96
303.15	1.5001	0	1196.42	28.71
303.15	1.75	0	1226.74	29.44
303.15	1.9998	0	1256.15	30.15
303.15	2.2488	0	1284.81	30.84
303.15	2.4992	0	1312.66	31.5
303.15	2.75	0	1339.67	32.15

System: sulfuric acid + water; phases: Liquid
Fixed: Pressure, kPa = 100
Property: Mass density, kg/m3 (Liquid); method: Vibrating tube method
Temperature, K	Molality, mol/kg of sulfuric acid	Mass density, kg/m3	uncertainty
283.15	0.05	1003.29	24.08
283.15	0.1	1006.64	24.16
283.15	0.1498	1009.9	24.24
283.15	0.1997	1013.13	24.32
283.15	0.2501	1016.29	24.39
283.15	0.2999	1019.54	24.47
283.15	0.3996	1025.76	24.62
283.15	0.5001	1031.92	24.77
288.15	0.05	1002.61	24.06
288.15	0.1	1005.89	24.14
288.15	0.1498	1009.09	24.22
288.15	0.1997	1012.25	24.29
288.15	0.2501	1015.35	24.37
288.15	0.2999	1018.53	24.44
288.15	0.3996	1024.63	24.59
288.15	0.5001	1030.68	24.74
293.15	0.05	1001.64	24.04
293.15	0.1	1004.86	24.12
293.15	0.1498	1007.99	24.19
293.15	0.1997	1011.1	24.27
293.15	0.2501	1014.14	24.34
293.15	0.2999	1017.27	24.41
293.15	0.3996	1023.27	24.56
293.15	0.5001	1029.22	24.7
298.15	0.05	1000.42	24.01
298.15	0.1	1003.57	24.09
298.15	0.1498	1006.66	24.16
298.15	0.1997	1009.71	24.23
298.15	0.2501	1012.71	24.31
298.15	0.2999	1015.79	24.38
298.15	0.3996	1021.7	24.52
298.15	0.5001	1027.57	24.66
303.15	0.05	998.96	23.98
303.15	0.1	1002.07	24.05
303.15	0.1498	1005.1	24.12
303.15	0.1997	1008.12	24.19
303.15	0.2501	1011.07	24.27
303.15	0.2999	1014.11	24.34
303.15	0.3996	1019.95	24.48
303.15	0.5001	1025.74	24.62
308.15	0.05	997.29	23.94
308.15	0.1	1000.35	24.01
308.15	0.1498	1003.35	24.08
308.15	0.1997	1006.33	24.15
308.15	0.2501	1009.25	24.22
308.15	0.2999	1012.25	24.29
308.15	0.3996	1018.02	24.43
308.15	0.5001	1023.74	24.57
313.15	0.05	995.42	23.89
313.15	0.1	998.45	23.96
313.15	0.1498	1001.41	24.03
313.15	0.1997	1004.36	24.1
313.15	0.2501	1007.25	24.17
313.15	0.2999	1010.22	24.25
313.15	0.3996	1015.94	24.38
313.15	0.5001	1021.61	24.52
318.15	0.05	993.38	23.84
318.15	0.1	996.37	23.91
318.15	0.1498	999.3	23.98
318.15	0.1997	1002.21	24.05
318.15	0.2501	1005.09	24.12
318.15	0.2999	1008.03	24.19
318.15	0.3996	1013.7	24.33
318.15	0.5001	1019.32	24.46
293.15	0.3312	1019.13	24.46
293.15	0.6672	1039.1	24.94
293.15	0.9962	1057.95	25.39
293.15	1.3312	1076.44	25.84
293.15	1.6695	1094.43	26.27
293.15	2.0004	1111.51	26.68
293.15	2.327	1127.75	27.07
293.15	2.6667	1143.44	27.44
293.15	2.9936	1161.33	27.87
293.15	3.3301	1173.91	28.17
293.15	3.6668	1188.61	28.53
303.15	0.3312	1015.94	24.38
303.15	0.6672	1035.36	24.85
303.15	0.9962	1053.74	25.29
303.15	1.3312	1071.78	25.72
303.15	1.6695	1089.37	26.15
303.15	2.0004	1106.08	26.55
303.15	2.327	1122.01	26.93
303.15	2.6667	1138.64	27.33
303.15	2.9936	1155.01	27.72
303.15	3.3301	1167.41	28.02
303.15	3.6668	1181.92	28.37

System: sulfuric acid + water; phases: Liquid
Fixed: Pressure, kPa = 100
Property: Viscosity, Pa*s (Liquid); method: Falling or rolling sphere viscometry
Temperature, K	Molality, mol/kg of sulfuric acid	Viscosity, Pa*s	uncertainty
283.15	0.05	0.0013218	0.0001325
283.15	0.1	0.001326	0.0001329
283.15	0.1498	0.0013393	0.0001343
283.15	0.1997	0.0013519	0.0001355
283.15	0.2501	0.0013634	0.0001367
283.15	0.2999	0.0013752	0.0001379
283.15	0.3996	0.0013992	0.0001403
283.15	0.5001	0.0014149	0.0001419
288.15	0.05	0.0011508	0.0001154
288.15	0.1	0.0011559	0.0001159
288.15	0.1498	0.0011675	0.0001171
288.15	0.1997	0.0011788	0.0001182
288.15	0.2501	0.0011896	0.0001193
288.15	0.2999	0.0012003	0.0001203
288.15	0.3996	0.0012209	0.0001224
288.15	0.5001	0.0012361	0.0001239
293.15	0.05	0.0010136	0.0001016
293.15	0.1	0.0010187	0.0001021
293.15	0.1498	0.001029	0.0001032
293.15	0.1997	0.0010395	0.0001042
293.15	0.2501	0.0010488	0.0001052
293.15	0.2999	0.0010583	0.0001061
293.15	0.3996	0.0010769	0.000108
293.15	0.5001	0.0010907	0.0001094
298.15	0.05	0.00090194	9.043e-05
298.15	0.1	0.00090682	9.092e-05
298.15	0.1498	0.00091597	9.184e-05
298.15	0.1997	0.00092593	9.283e-05
298.15	0.2501	0.00093379	9.362e-05
298.15	0.2999	0.00094431	9.468e-05
298.15	0.3996	0.00095973	9.622e-05
298.15	0.5001	0.00097152	9.741e-05
303.15	0.05	0.0008093	8.114e-05
303.15	0.1	0.00081269	8.148e-05
303.15	0.1498	0.00082179	8.239e-05
303.15	0.1997	0.00083073	8.329e-05
303.15	0.2501	0.00083759	8.398e-05
303.15	0.2999	0.00084895	8.512e-05
303.15	0.3996	0.00086153	8.638e-05
303.15	0.5001	0.00087186	8.741e-05
308.15	0.05	0.00073028	7.322e-05
308.15	0.1	0.00073389	7.358e-05
308.15	0.1498	0.00074123	7.432e-05
308.15	0.1997	0.00074969	7.516e-05
308.15	0.2501	0.00075671	7.587e-05
308.15	0.2999	0.00076524	7.672e-05
308.15	0.3996	0.00077993	7.82e-05
308.15	0.5001	0.00078836	7.904e-05
313.15	0.05	0.00065852	6.602e-05
313.15	0.1	0.0006663	6.68e-05
313.15	0.1498	0.00067259	6.744e-05
313.15	0.1997	0.00068075	6.825e-05
313.15	0.2501	0.00068695	6.887e-05
313.15	0.2999	0.00069802	6.998e-05
313.15	0.3996	0.00070783	7.097e-05
313.15	0.5001	0.00071602	7.179e-05
318.15	0.05	0.00060625	6.078e-05
318.15	0.1	0.00060871	6.103e-05
318.15	0.1498	0.00061412	6.157e-05
318.15	0.1997	0.0006219	6.235e-05
318.15	0.2501	0.00062738	6.29e-05
318.15	0.2999	0.00063619	6.379e-05
318.15	0.3996	0.00065021	6.519e-05
318.15	0.5001	0.00065434	6.561e-05
283.15	0.3312	0.0013858	0.0001389
283.15	0.6672	0.0014798	0.0001484
283.15	0.9962	0.0015018	0.0001506
283.15	1.3312	0.0016525	0.0001657
283.15	1.6695	0.0017325	0.0001737
283.15	2.0004	0.0018171	0.0001822
283.15	2.327	0.0019145	0.000192
283.15	2.6667	0.0020172	0.0002022
283.15	2.9936	0.0021543	0.000216
283.15	3.3301	0.0022804	0.0002286
283.15	3.6668	0.0023311	0.0002337
288.15	0.3312	0.0012119	0.0001215
288.15	0.6672	0.0012944	0.0001298
288.15	0.9962	0.0013213	0.0001325
288.15	1.3312	0.0014495	0.0001453
288.15	1.6695	0.0015186	0.0001523
288.15	2.0004	0.001589	0.0001593
288.15	2.327	0.001672	0.0001676
288.15	2.6667	0.0017677	0.0001772
288.15	2.9936	0.0018823	0.0001887
288.15	3.3301	0.0019784	0.0001984
288.15	3.6668	0.0020356	0.0002041
293.15	0.3312	0.0010699	0.0001073
293.15	0.6672	0.0011445	0.0001147
293.15	0.9962	0.0011718	0.0001175
293.15	1.3312	0.0012822	0.0001286
293.15	1.6695	0.001343	0.0001347
293.15	2.0004	0.0014057	0.0001409
293.15	2.327	0.0014763	0.000148
293.15	2.6667	0.0015691	0.0001573
293.15	2.9936	0.0016634	0.0001668
293.15	3.3301	0.0017248	0.0001729
293.15	3.6668	0.0017942	0.0001799
298.15	0.3312	0.00095335	9.558e-05
298.15	0.6672	0.0010242	0.0001027
298.15	0.9962	0.001049	0.0001052
298.15	1.3312	0.0011438	0.0001147
298.15	1.6695	0.0011968	0.00012
298.15	2.0004	0.0012518	0.0001255
298.15	2.327	0.0013139	0.0001317
298.15	2.6667	0.001391	0.0001395
298.15	2.9936	0.0014742	0.0001478
298.15	3.3301	0.0015345	0.0001539
298.15	3.6668	0.0015959	0.00016
303.15	0.3312	0.00085607	8.583e-05
303.15	0.6672	0.0009256	9.28e-05
303.15	0.9962	0.00094482	9.473e-05
303.15	1.3312	0.0010263	0.0001029
303.15	1.6695	0.0010732	0.0001076
303.15	2.0004	0.0011225	0.0001125
303.15	2.327	0.0011789	0.0001182
303.15	2.6667	0.0012438	0.0001247
303.15	2.9936	0.0013195	0.0001323
303.15	3.3301	0.0013744	0.0001378
303.15	3.6668	0.0014294	0.0001433
308.15	0.3312	0.00077526	7.773e-05
308.15	0.6672	0.00083711	8.393e-05
308.15	0.9962	0.00085538	8.576e-05
308.15	1.3312	0.00093367	9.361e-05
308.15	1.6695	0.00097754	9.801e-05
308.15	2.0004	0.0010156	0.0001018
308.15	2.327	0.0010589	0.0001062
308.15	2.6667	0.0011163	0.0001119
308.15	2.9936	0.0011879	0.0001191
308.15	3.3301	0.0012383	0.0001242
308.15	3.6668	0.00129	0.0001293
313.15	0.3312	0.00070431	7.062e-05
313.15	0.6672	0.00076314	7.651e-05
313.15	0.9962	0.00077481	7.768e-05
313.15	1.3312	0.00085335	8.556e-05
313.15	1.6695	0.00089051	8.928e-05
313.15	2.0004	0.00092432	9.267e-05
313.15	2.327	0.00097062	9.732e-05
313.15	2.6667	0.0010193	0.0001022
313.15	2.9936	0.0010772	0.000108
313.15	3.3301	0.0011252	0.0001128
313.15	3.6668	0.0011712	0.0001174
318.15	0.3312	0.00064433	6.46e-05
318.15	0.6672	0.00069779	6.996e-05
318.15	0.9962	0.00071008	7.119e-05
318.15	1.3312	0.00078193	7.84e-05
318.15	1.6695	0.0008167	8.188e-05
318.15	2.0004	0.0008473	8.495e-05
318.15	2.327	0.00089144	8.938e-05
318.15	2.6667	0.00094552	9.48e-05
318.15	2.9936	0.00098716	9.897e-05
318.15	3.3301	0.0010272	0.000103
318.15	3.6668	0.00107	0.0001073

System: oxovanadium(IV) sulfate + water; phases: Liquid
Fixed: Pressure, kPa = 100
Property: Viscosity, Pa*s (Liquid); method: Falling or rolling sphere viscometry
Temperature, K	Molality, mol/kg of oxovanadium(IV) sulfate	Viscosity, Pa*s	uncertainty
283.15	0.2501	0.0015508	0.0001555
283.15	0.5	0.0018608	0.0001866
283.15	0.7507	0.0022417	0.0002248
283.15	0.9964	0.0026966	0.0002704
283.15	1.2497	0.0033084	0.0003317
283.15	1.5001	0.0040515	0.0004063
283.15	1.75	0.0049662	0.000498
283.15	1.9998	0.0061084	0.0006125
283.15	2.2488	0.0075427	0.0007564
283.15	2.4992	0.0092732	0.0009299
283.15	2.75	0.011553	0.001159
288.15	0.2501	0.0013474	0.0001351
288.15	0.5	0.0016104	0.0001615
288.15	0.7507	0.001932	0.0001937
288.15	0.9964	0.0023124	0.0002319
288.15	1.2497	0.0028159	0.0002824
288.15	1.5001	0.0034266	0.0003436
288.15	1.75	0.0041713	0.0004183
288.15	1.9998	0.0050921	0.0005106
288.15	2.2488	0.0062384	0.0006256
288.15	2.4992	0.0076155	0.0007637
288.15	2.75	0.0094054	0.0009432
293.15	0.2501	0.0011834	0.0001187
293.15	0.5	0.001409	0.0001413
293.15	0.7507	0.0016822	0.0001687
293.15	0.9964	0.0020049	0.000201
293.15	1.2497	0.0024285	0.0002435
293.15	1.5001	0.0029359	0.0002944
293.15	1.75	0.0035478	0.0003558
293.15	1.9998	0.0043043	0.0004316
293.15	2.2488	0.0052378	0.0005252
293.15	2.4992	0.0063482	0.0006366
293.15	2.75	0.0077841	0.0007806
298.15	0.2501	0.0010491	0.0001052
298.15	0.5	0.0012444	0.0001248
298.15	0.7507	0.0014791	0.0001483
298.15	0.9964	0.0017554	0.000176
298.15	1.2497	0.0021147	0.000212
298.15	1.5001	0.0025429	0.000255
298.15	1.75	0.003052	0.000306
298.15	1.9998	0.0036789	0.0003689
298.15	2.2488	0.0044482	0.000446
298.15	2.4992	0.005359	0.0005374
298.15	2.75	0.0065243	0.0006543
303.15	0.2501	0.0009378	9.403e-05
303.15	0.5	0.0011077	0.0001111
303.15	0.7507	0.0013112	0.0001315
303.15	0.9964	0.00155	0.0001554
303.15	1.2497	0.0018588	0.0001864
303.15	1.5001	0.002223	0.0002229
303.15	1.75	0.0026598	0.0002667
303.15	1.9998	0.0031803	0.0003189
303.15	2.2488	0.0038237	0.0003834
303.15	2.4992	0.0045796	0.0004592
303.15	2.75	0.0055442	0.000556
308.15	0.2501	0.00084421	8.464e-05
308.15	0.5	0.00099293	9.956e-05
308.15	0.7507	0.0011712	0.0001174
308.15	0.9964	0.0013785	0.0001382
308.15	1.2497	0.001646	0.000165
308.15	1.5001	0.0019593	0.0001965
308.15	1.75	0.0023344	0.0002341
308.15	1.9998	0.0027833	0.0002791
308.15	2.2488	0.0033196	0.0003329
308.15	2.4992	0.003953	0.0003964
308.15	2.75	0.0047581	0.0004771
313.15	0.2501	0.00076399	7.66e-05
313.15	0.5	0.00089698	8.994e-05
313.15	0.7507	0.0010531	0.0001056
313.15	0.9964	0.0012348	0.0001238
313.15	1.2497	0.0014678	0.0001472
313.15	1.5001	0.0017403	0.0001745
313.15	1.75	0.0020643	0.000207
313.15	1.9998	0.0024445	0.0002451
313.15	2.2488	0.0029161	0.0002924
313.15	2.4992	0.0034465	0.0003456
313.15	2.75	0.0041262	0.0004138
318.15	0.2501	0.0006958	6.976e-05
318.15	0.5	0.00081425	8.164e-05
318.15	0.7507	0.00095278	9.553e-05
318.15	0.9964	0.0011131	0.0001116
318.15	1.2497	0.0013185	0.0001322
318.15	1.5001	0.0015561	0.000156
318.15	1.75	0.0018378	0.0001843
318.15	1.9998	0.0021677	0.0002174
318.15	2.2488	0.0025747	0.0002582
318.15	2.4992	0.0030286	0.0003037
318.15	2.75	0.0036081	0.0003618

System: oxovanadium(IV) sulfate + water; phases: Liquid
Fixed: Pressure, kPa = 100
Property: Mass density, kg/m3 (Liquid); method: Vibrating tube method
Temperature, K	Molality, mol/kg of oxovanadium(IV) sulfate	Mass density, kg/m3	uncertainty
293.15	0.2501	1034.67	24.83
293.15	0.5	1069.8	25.68
293.15	0.7507	1104.11	26.5
293.15	0.9964	1136.2	27.27
293.15	1.2497	1169.5	28.07
293.15	1.5001	1201.04	28.83
293.15	1.75	1231.58	29.56
293.15	1.9998	1261.16	30.27
293.15	2.2488	1289.97	30.96
293.15	2.4992	1317.94	31.63
293.15	2.75	1345.06	32.28
303.15	0.2501	1031.66	24.76
303.15	0.5	1066.39	25.59
303.15	0.7507	1100.34	26.41
303.15	0.9964	1132.1	27.17
303.15	1.2497	1165.09	27.96
303.15	1.5001	1196.42	28.71
303.15	1.75	1226.74	29.44
303.15	1.9998	1256.15	30.15
303.15	2.2488	1284.81	30.84
303.15	2.4992	1312.66	31.5
303.15	2.75	1339.67	32.15
