Measured thermophysical data. The influence of temperature and composition on the density, viscosity and excess properties of aqueous mixtures of carboxylic-based ionic liquids
Source: J. Chem. Thermodyn., 2017, 10.1016/j.jct.2016.10.034
Compound 1: 1-ethyl-1-methylpyrrolidinium acetate, C9H19NO2, InChI=1S/C7H16N.C2H4O2/c1-3-8(2)6-4-5-7-8;1-2(3)4/h3-7H2,1-2H3;1H3,(H,3,4)/q+1;/p-1, purity 97%
Compound 2: 1-ethyl-1-methylpyrrolidinium glycolate, C9H19NO3, InChI=1S/C7H16N.C2H4O3/c1-3-8(2)6-4-5-7-8;3-1-2(4)5/h3-7H2,1-2H3;3H,1H2,(H,4,5)/q+1;/p-1, purity 97%
Compound 3: N-ethyl-N-methylmorpholinium glycolate, C9H19NO4, InChI=1S/C7H16NO.C2H4O3/c1-3-8(2)4-6-9-7-5-8;3-1-2(4)5/h3-7H2,1-2H3;3H,1H2,(H,4,5)/q+1;/p-1, purity 97%
Compound 4: water, H2O, InChI=1S/H2O/h1H2, purity 99.9%

System: 1-ethyl-1-methylpyrrolidinium acetate; phases: Glass, Liquid, Air at 1 atmosphere
Property: Triple point temperature, K (Glass); method: DSC
Triple point temperature, K	uncertainty
185	20

System: 1-ethyl-1-methylpyrrolidinium acetate; phases: Liquid
Fixed: Pressure, kPa = 100
Property: Mass density, kg/m3 (Liquid); method: Vibrating tube method
Temperature, K	Mass density, kg/m3	uncertainty
298.15	1064.5	2.2
303.15	1061.8	2.2
308.15	1058.7	2.2
313.15	1055.9	2.2
318.15	1053.1	2.2
323.15	1050.3	2.2
328.15	1047.4	2.2
333.15	1044.4	2.1
338.15	1041.8	2.1
343.15	1038.8	2.1
348.15	1035.9	2.1

System: 1-ethyl-1-methylpyrrolidinium acetate; phases: Liquid
Fixed: Pressure, kPa = 100
Property: Viscosity, Pa*s (Liquid); method: Falling or rolling sphere viscometry
Temperature, K	Viscosity, Pa*s	uncertainty
298.15	0.24	0.027
303.15	0.184	0.02
308.15	0.145	0.015
313.15	0.117	0.012
318.15	0.0934	0.0097
323.15	0.074	0.0076
328.15	0.06	0.0061
333.15	0.0492	0.005
338.15	0.0394	0.004
343.15	0.0324	0.0033
348.15	0.026	0.0026

System: 1-ethyl-1-methylpyrrolidinium glycolate; phases: Glass, Liquid, Air at 1 atmosphere
Property: Triple point temperature, K (Glass); method: DSC
Triple point temperature, K	uncertainty
193	20

System: 1-ethyl-1-methylpyrrolidinium glycolate; phases: Liquid
Fixed: Pressure, kPa = 100
Property: Mass density, kg/m3 (Liquid); method: Vibrating tube method
Temperature, K	Mass density, kg/m3	uncertainty
298.15	1134	2.5
303.15	1130.7	2.5
308.15	1127.3	2.4
313.15	1124	2.4
318.15	1120.8	2.4
323.15	1117.6	2.4
328.15	1114.4	2.4
333.15	1111.2	2.4
338.15	1108.1	2.4
343.15	1105	2.4
348.15	1101.9	2.3

System: 1-ethyl-1-methylpyrrolidinium glycolate; phases: Liquid
Fixed: Pressure, kPa = 100
Property: Viscosity, Pa*s (Liquid); method: Falling or rolling sphere viscometry
Temperature, K	Viscosity, Pa*s	uncertainty
298.15	0.345	0.041
303.15	0.254	0.029
308.15	0.192	0.021
313.15	0.151	0.016
318.15	0.116	0.012
323.15	0.0922	0.0095
328.15	0.0769	0.0079
333.15	0.0606	0.0062
338.15	0.0496	0.005
343.15	0.0412	0.0042
348.15	0.0342	0.0035

System: N-ethyl-N-methylmorpholinium glycolate; phases: Glass, Liquid, Air at 1 atmosphere
Property: Triple point temperature, K (Glass); method: DSC
Triple point temperature, K	uncertainty
214	20

System: N-ethyl-N-methylmorpholinium glycolate; phases: Liquid
Fixed: Pressure, kPa = 100
Property: Mass density, kg/m3 (Liquid); method: Vibrating tube method
Temperature, K	Mass density, kg/m3	uncertainty
298.15	1232.6	2.9
303.15	1229.5	2.9
308.15	1226.3	2.9
313.15	1223	2.9
318.15	1219.8	2.9
323.15	1216.5	2.9
328.15	1213.3	2.8
333.15	1210.1	2.8
338.15	1207.2	2.8
343.15	1204.1	2.8
348.15	1201.1	2.8

System: N-ethyl-N-methylmorpholinium glycolate; phases: Liquid
Fixed: Pressure, kPa = 100
Property: Viscosity, Pa*s (Liquid); method: Falling or rolling sphere viscometry
Temperature, K	Viscosity, Pa*s	uncertainty
318.15	2.5	0.394
323.15	1.799	0.27
328.15	1.155	0.162
333.15	0.854	0.114
338.15	0.666	0.086
343.15	0.488	0.06
348.15	0.363	0.043

System: water + 1-ethyl-1-methylpyrrolidinium acetate; phases: Liquid
Fixed: Pressure, kPa = 100
Property: Mass density, kg/m3 (Liquid); method: Vibrating tube method
Temperature, K	Mole fraction of 1-ethyl-1-methylpyrrolidinium acetate	Mass density, kg/m3	uncertainty
298.15	0.8963	1065.4	1.9
298.15	0.766	1066.9	1.6
298.15	0.6728	1068.1	1.4
298.15	0.5857	1069.2	1.2
298.15	0.481	1070.2	1.1
298.15	0.4126	1070.8	1.1
298.15	0.3171	1070.7	1
298.15	0.2083	1066.7	1
298.15	0.1008	1046.6	1.1
298.15	0	997.1	1
303.15	0.8963	1062.5	1.9
303.15	0.766	1064	1.6
303.15	0.6728	1065.3	1.4
303.15	0.5857	1066.3	1.2
303.15	0.481	1067.2	1.1
303.15	0.4126	1067.8	1.1
303.15	0.3171	1067.6	1
303.15	0.2083	1063.6	1
303.15	0.1008	1043.6	1
303.15	0	995.7	1
308.15	0.8963	1059.4	1.9
308.15	0.766	1060.7	1.5
308.15	0.6728	1062.2	1.4
308.15	0.5857	1063.1	1.2
308.15	0.481	1064.2	1.1
308.15	0.4126	1064.8	1.1
308.15	0.3171	1064.5	1
308.15	0.2083	1060.3	1
308.15	0.1008	1040.7	1
308.15	0	994	1
313.15	0.8963	1056.6	1.9
313.15	0.766	1057.9	1.5
313.15	0.6728	1059.4	1.4
313.15	0.5857	1060.4	1.2
313.15	0.481	1061.3	1.1
313.15	0.4126	1061.8	1.1
313.15	0.3171	1061.4	1
313.15	0.2083	1057.1	1
313.15	0.1008	1037.7	1
313.15	0	992.2	1
318.15	0.8963	1053.7	1.9
318.15	0.766	1055	1.5
318.15	0.6728	1056.6	1.4
318.15	0.5857	1057.5	1.2
318.15	0.481	1058.3	1.1
318.15	0.4126	1058.7	1.1
318.15	0.3171	1058.2	1
318.15	0.2083	1053.8	1
318.15	0.1008	1034.6	1
318.15	0	990.2	1
323.15	0.8963	1050.9	1.8
323.15	0.766	1052.2	1.5
323.15	0.6728	1053.6	1.4
323.15	0.5857	1054.5	1.2
323.15	0.481	1055.3	1.1
323.15	0.4126	1055.7	1.1
323.15	0.3171	1055.1	1
323.15	0.2083	1050.5	1
323.15	0.1008	1031.5	1
323.15	0	987.9	1
328.15	0.8963	1048	1.8
328.15	0.766	1049.3	1.5
328.15	0.6728	1050.7	1.4
328.15	0.5857	1051.6	1.2
328.15	0.481	1052.3	1.1
328.15	0.4126	1052.6	1.1
328.15	0.3171	1051.9	1
328.15	0.2083	1047.2	1
328.15	0.1008	1028.3	1
328.15	0	985.7	1
333.15	0.8963	1045	1.8
333.15	0.766	1046.2	1.5
333.15	0.6728	1047.7	1.3
333.15	0.5857	1048.5	1.2
333.15	0.481	1049.3	1.1
333.15	0.4126	1049.5	1.1
333.15	0.3171	1048.7	1
333.15	0.2083	1043.8	1
333.15	0.1008	1025.1	1
333.15	0	983.2	1
338.15	0.8963	1042.3	1.8
338.15	0.766	1043.5	1.5
338.15	0.6728	1044.9	1.3
338.15	0.5857	1045.6	1.2
338.15	0.481	1046.2	1.1
338.15	0.4126	1046.4	1.1
338.15	0.3171	1045.5	1
338.15	0.2083	1040.5	1
338.15	0.1008	1021.8	1
338.15	0	980.3	1
343.15	0.8963	1039.3	1.8
343.15	0.766	1040.5	1.5
343.15	0.6728	1041.9	1.3
343.15	0.5857	1042.6	1.2
343.15	0.481	1043.2	1.1
343.15	0.4126	1043.3	1.1
343.15	0.3171	1042.2	1
343.15	0.2083	1037.1	1
343.15	0.1008	1018.5	1
343.15	0	978.1	1
348.15	0.8963	1036.7	1.8
348.15	0.766	1037.6	1.5
348.15	0.6728	1039	1.3
348.15	0.5857	1039.7	1.2
348.15	0.481	1040.1	1.1
348.15	0.4126	1040.1	1.1
348.15	0.3171	1039	1
348.15	0.2083	1033.6	1.1
348.15	0.1008	1015.2	1.1
348.15	0	974.8	1

System: water + 1-ethyl-1-methylpyrrolidinium acetate; phases: Liquid
Fixed: Pressure, kPa = 100
Property: Viscosity, Pa*s (Liquid); method: Falling or rolling sphere viscometry
Temperature, K	Mole fraction of 1-ethyl-1-methylpyrrolidinium acetate	Viscosity, Pa*s	uncertainty
298.15	0.8963	0.173	0.019
298.15	0.766	0.116	0.012
298.15	0.6728	0.0883	0.009
298.15	0.5857	0.0693	0.007
298.15	0.481	0.0509	0.0051
298.15	0.4126	0.0411	0.0041
298.15	0.3171	0.029	0.0029
298.15	0.2083	0.0169	0.0017
298.15	0.1008	0.00695	0.0007
298.15	0	0.00089	8.9e-05
303.15	0.8963	0.134	0.014
303.15	0.766	0.0913	0.0094
303.15	0.6728	0.0714	0.0072
303.15	0.5857	0.0572	0.0058
303.15	0.481	0.0428	0.0043
303.15	0.4126	0.0345	0.0035
303.15	0.3171	0.0242	0.0024
303.15	0.2083	0.0142	0.0014
303.15	0.1008	0.00596	0.0006
303.15	0	0.000797	8e-05
308.15	0.8963	0.107	0.011
308.15	0.766	0.0742	0.0075
308.15	0.6728	0.0576	0.0058
308.15	0.5857	0.0467	0.0047
308.15	0.481	0.0351	0.0035
308.15	0.4126	0.028	0.0028
308.15	0.3171	0.0197	0.002
308.15	0.2083	0.0119	0.0012
308.15	0.1008	0.00532	0.00053
308.15	0	0.000719	7.2e-05
313.15	0.8963	0.0885	0.0091
313.15	0.766	0.0628	0.0064
313.15	0.6728	0.0485	0.0049
313.15	0.5857	0.0387	0.0039
313.15	0.481	0.0289	0.0029
313.15	0.4126	0.0235	0.0024
313.15	0.3171	0.0169	0.0017
313.15	0.2083	0.0106	0.0011
313.15	0.1008	0.00477	0.00048
313.15	0	0.000653	6.6e-05
318.15	0.8963	0.0708	0.0072
318.15	0.766	0.0514	0.0052
318.15	0.6728	0.0384	0.0039
318.15	0.5857	0.0303	0.0031
318.15	0.481	0.0236	0.0024
318.15	0.4126	0.0197	0.002
318.15	0.3171	0.014	0.0014
318.15	0.2083	0.00909	0.00091
318.15	0.1008	0.0043	0.00043
318.15	0	0.000596	6e-05
323.15	0.8963	0.058	0.0059
323.15	0.766	0.0425	0.0043
323.15	0.6728	0.0327	0.0033
323.15	0.5857	0.0262	0.0026
323.15	0.481	0.0198	0.002
323.15	0.4126	0.016	0.0016
323.15	0.3171	0.0116	0.0012
323.15	0.2083	0.00791	0.00079
323.15	0.1008	0.00387	0.00039
323.15	0	0.000547	5.5e-05
328.15	0.8963	0.048	0.0049
328.15	0.766	0.0352	0.0036
328.15	0.6728	0.028	0.0028
328.15	0.5857	0.0212	0.0021
328.15	0.481	0.0158	0.0016
328.15	0.4126	0.0135	0.0014
328.15	0.3171	0.01	0.001
328.15	0.2083	0.00681	0.00068
328.15	0.1008	0.003523	0.000354
328.15	0	0.000504	5.1e-05
333.15	0.8963	0.0395	0.004
333.15	0.766	0.0291	0.0029
333.15	0.6728	0.0232	0.0023
333.15	0.5857	0.0181	0.0018
333.15	0.481	0.0135	0.0014
333.15	0.4126	0.0115	0.0012
333.15	0.3171	0.00867	0.00087
333.15	0.2083	0.00614	0.00062
333.15	0.1008	0.00321	0.00032
333.15	0	0.000466	4.7e-05
338.15	0.8963	0.0326	0.0033
338.15	0.766	0.0246	0.0025
338.15	0.6728	0.0198	0.002
338.15	0.5857	0.0154	0.0016
338.15	0.481	0.0116	0.0012
338.15	0.4126	0.00988	0.00099
338.15	0.3171	0.00752	0.00076
338.15	0.2083	0.00549	0.00055
338.15	0.1008	0.00294	0.0003
338.15	0	0.000433	4.3e-05
343.15	0.8963	0.0272	0.0028
343.15	0.766	0.0209	0.0021
343.15	0.6728	0.0169	0.0017
343.15	0.5857	0.0131	0.0013
343.15	0.481	0.0101	0.001
343.15	0.4126	0.00858	0.00086
343.15	0.3171	0.00672	0.00068
343.15	0.2083	0.00478	0.00048
343.15	0.1008	0.00265	0.00027
343.15	0	0.000404	4.1e-05
348.15	0.8963	0.0224	0.0023
348.15	0.766	0.0173	0.0018
348.15	0.6728	0.0146	0.0015
348.15	0.5857	0.0114	0.0011
348.15	0.481	0.00882	0.00089
348.15	0.4126	0.00752	0.00076
348.15	0.3171	0.00579	0.00058
348.15	0.2083	0.00438	0.00044
348.15	0.1008	0.00246	0.00025
348.15	0	0.000378	3.8e-05

System: 1-ethyl-1-methylpyrrolidinium glycolate + water; phases: Liquid
Fixed: Pressure, kPa = 100
Property: Mass density, kg/m3 (Liquid); method: Vibrating tube method
Temperature, K	Mole fraction of 1-ethyl-1-methylpyrrolidinium glycolate	Mass density, kg/m3	uncertainty
298.15	0.8839	1134.3	2
298.15	0.825	1134.5	1.9
298.15	0.729	1134.7	1.6
298.15	0.6086	1134.3	1.4
298.15	0.5357	1133.9	1.2
298.15	0.4258	1132.3	1.1
298.15	0.3464	1130	1.1
298.15	0.2905	1127.2	1
298.15	0.2024	1118.3	1
298.15	0.1293	1100.6	1
298.15	0.0541	1057.7	1.1
298.15	0	997.1	1
303.15	0.8839	1130.9	2
303.15	0.825	1131.1	1.9
303.15	0.729	1131.3	1.6
303.15	0.6086	1130.9	1.3
303.15	0.5357	1130.4	1.2
303.15	0.4258	1128.8	1.1
303.15	0.3464	1126.5	1.1
303.15	0.2905	1123.6	1
303.15	0.2024	1114.7	1
303.15	0.1293	1097.2	1
303.15	0.0541	1055.1	1
303.15	0	995.7	1
308.15	0.8839	1127.6	2
308.15	0.825	1127.7	1.8
308.15	0.729	1127.9	1.6
308.15	0.6086	1127.5	1.3
308.15	0.5357	1127	1.2
308.15	0.4258	1125.4	1.1
308.15	0.3464	1123	1.1
308.15	0.2905	1120.1	1
308.15	0.2024	1111.2	1
308.15	0.1293	1093.7	1
308.15	0.0541	1052.3	1
308.15	0	994	1
313.15	0.8839	1124.3	2
313.15	0.825	1124.4	1.8
313.15	0.729	1124.6	1.6
313.15	0.6086	1124.1	1.3
313.15	0.5357	1123.6	1.2
313.15	0.4258	1121.9	1.1
313.15	0.3464	1119.5	1.1
313.15	0.2905	1116.6	1
313.15	0.2024	1107.6	1
313.15	0.1293	1090.3	1
313.15	0.0541	1049.5	1
313.15	0	992.2	1
318.15	0.8839	1121	2
318.15	0.825	1121.1	1.8
318.15	0.729	1121.3	1.6
318.15	0.6086	1120.8	1.3
318.15	0.5357	1120.3	1.2
318.15	0.4258	1118.5	1.1
318.15	0.3464	1116	1.1
318.15	0.2905	1113.1	1
318.15	0.2024	1104	1
318.15	0.1293	1086.8	1
318.15	0.0541	1046.6	1
318.15	0	990.2	1
323.15	0.8839	1117.7	2
323.15	0.825	1117.9	1.8
323.15	0.729	1118	1.6
323.15	0.6086	1117.5	1.3
323.15	0.5357	1116.9	1.2
323.15	0.4258	1115.2	1.1
323.15	0.3464	1112.6	1.1
323.15	0.2905	1109.6	1
323.15	0.2024	1100.4	1
323.15	0.1293	1083.3	1
323.15	0.0541	1043.7	1
323.15	0	987.9	1
328.15	0.8839	1114.5	2
328.15	0.825	1114.6	1.8
328.15	0.729	1114.8	1.6
328.15	0.6086	1114.2	1.3
328.15	0.5357	1113.6	1.2
328.15	0.4258	1111.8	1.1
328.15	0.3464	1109.2	1.1
328.15	0.2905	1106.1	1
328.15	0.2024	1096.8	1
328.15	0.1293	1079.8	1
328.15	0.0541	1040.6	1
328.15	0	985.7	1
333.15	0.8839	1111.3	2
333.15	0.825	1111.4	1.8
333.15	0.729	1111.5	1.6
333.15	0.6086	1111	1.3
333.15	0.5357	1110.4	1.2
333.15	0.4258	1108.5	1.1
333.15	0.3464	1105.7	1.1
333.15	0.2905	1102.6	1
333.15	0.2024	1093.3	1
333.15	0.1293	1076.2	1
333.15	0.0541	1037.5	1
333.15	0	983.2	1
338.15	0.8839	1108.2	2
338.15	0.825	1108.3	1.8
338.15	0.729	1108.3	1.6
338.15	0.6086	1107.7	1.3
338.15	0.5357	1107.1	1.2
338.15	0.4258	1105.1	1.1
338.15	0.3464	1102.4	1.1
338.15	0.2905	1099.2	1
338.15	0.2024	1089.7	1
338.15	0.1293	1072.7	1
338.15	0.0541	1034.3	1
338.15	0	980.3	1
343.15	0.8839	1105.1	2
343.15	0.825	1105.1	1.8
343.15	0.729	1105.2	1.5
343.15	0.6086	1104.6	1.3
343.15	0.5357	1103.9	1.2
343.15	0.4258	1101.8	1.1
343.15	0.3464	1099	1.1
343.15	0.2905	1095.7	1
343.15	0.2024	1086.1	1
343.15	0.1293	1069.1	1
343.15	0.0541	1031.1	1
343.15	0	978.1	1
348.15	0.8839	1102	2
348.15	0.825	1102	1.8
348.15	0.729	1102.1	1.5
348.15	0.6086	1101.4	1.3
348.15	0.5357	1100.7	1.2
348.15	0.4258	1098.6	1.1
348.15	0.3464	1095.6	1.1
348.15	0.2905	1092.9	1
348.15	0.2024	1082.6	1
348.15	0.1293	1065.5	1.1
348.15	0.0541	1027.6	1.1
348.15	0	974.8	1

System: 1-ethyl-1-methylpyrrolidinium glycolate + water; phases: Liquid
Fixed: Pressure, kPa = 100
Property: Viscosity, Pa*s (Liquid); method: Falling or rolling sphere viscometry
Temperature, K	Mole fraction of 1-ethyl-1-methylpyrrolidinium glycolate	Viscosity, Pa*s	uncertainty
298.15	0.8839	0.271	0.031
298.15	0.825	0.241	0.027
298.15	0.729	0.195	0.021
298.15	0.6086	0.145	0.015
298.15	0.5357	0.119	0.012
298.15	0.4258	0.084	0.0086
298.15	0.3464	0.0611	0.0062
298.15	0.2905	0.0462	0.0047
298.15	0.2024	0.0252	0.0025
298.15	0.1293	0.0118	0.0012
298.15	0	0.00089	8.9e-05
303.15	0.8839	0.2	0.022
303.15	0.825	0.179	0.019
303.15	0.729	0.146	0.016
303.15	0.6086	0.11	0.011
303.15	0.5357	0.0906	0.0093
303.15	0.4258	0.065	0.0066
303.15	0.3464	0.0482	0.0049
303.15	0.2905	0.0372	0.0037
303.15	0.2024	0.0199	0.002
303.15	0.1293	0.00963	0.00097
303.15	0	0.000797	8e-05
308.15	0.8839	0.152	0.016
308.15	0.825	0.137	0.015
308.15	0.729	0.112	0.012
308.15	0.6086	0.0854	0.0087
308.15	0.5357	0.0708	0.0072
308.15	0.4258	0.0514	0.0052
308.15	0.3464	0.0383	0.0039
308.15	0.2905	0.03	0.003
308.15	0.2024	0.0165	0.0017
308.15	0.1293	0.008	0.0008
308.15	0	0.000719	7.2e-05
313.15	0.8839	0.119	0.012
313.15	0.825	0.106	0.011
313.15	0.729	0.0877	0.009
313.15	0.6086	0.0676	0.0068
313.15	0.5357	0.0564	0.0057
313.15	0.4258	0.0413	0.0042
313.15	0.3464	0.0305	0.0031
313.15	0.2905	0.0235	0.0024
313.15	0.2024	0.0135	0.0014
313.15	0.1293	0.00675	0.00068
313.15	0	0.000653	6.6e-05
318.15	0.8839	0.0928	0.0096
318.15	0.825	0.0836	0.0086
318.15	0.729	0.07	0.0071
318.15	0.6086	0.0542	0.0055
318.15	0.5357	0.0457	0.0046
318.15	0.4258	0.0338	0.0034
318.15	0.3464	0.0254	0.0026
318.15	0.2905	0.02	0.002
318.15	0.2024	0.0116	0.0012
318.15	0.1293	0.00569	0.00057
318.15	0	0.000596	6e-05
323.15	0.8839	0.0746	0.0076
323.15	0.825	0.067	0.0068
323.15	0.729	0.0566	0.0057
323.15	0.6086	0.0445	0.0045
323.15	0.5357	0.0375	0.0038
323.15	0.4258	0.0277	0.0028
323.15	0.3464	0.0209	0.0021
323.15	0.2905	0.0164	0.0017
323.15	0.2024	0.00982	0.00099
323.15	0.1293	0.00485	0.00049
323.15	0	0.000547	5.5e-05
328.15	0.8839	0.0619	0.0063
328.15	0.825	0.0557	0.0056
328.15	0.729	0.0468	0.0047
328.15	0.6086	0.0372	0.0038
328.15	0.5357	0.0314	0.0032
328.15	0.4258	0.0233	0.0023
328.15	0.3464	0.0178	0.0018
328.15	0.2905	0.0139	0.0014
328.15	0.2024	0.00855	0.00086
328.15	0.1293	0.00434	0.00044
328.15	0	0.000504	5.1e-05
333.15	0.8839	0.0499	0.0051
333.15	0.825	0.0455	0.0046
333.15	0.729	0.0388	0.0039
333.15	0.6086	0.0311	0.0031
333.15	0.5357	0.0265	0.0027
333.15	0.4258	0.02	0.002
333.15	0.3464	0.0155	0.0016
333.15	0.2905	0.0125	0.0013
333.15	0.2024	0.00754	0.00076
333.15	0.1293	0.00412	0.00041
333.15	0	0.000466	4.7e-05
338.15	0.8839	0.0416	0.0042
338.15	0.825	0.0381	0.0039
338.15	0.729	0.0326	0.0033
338.15	0.6086	0.0261	0.0026
338.15	0.5357	0.0224	0.0023
338.15	0.4258	0.0168	0.0017
338.15	0.3464	0.0132	0.0013
338.15	0.2905	0.0106	0.0011
338.15	0.2024	0.00681	0.00068
338.15	0.1293	0.00387	0.00077
338.15	0	0.000433	4.3e-05
343.15	0.8839	0.0353	0.0036
343.15	0.825	0.0324	0.0033
343.15	0.729	0.0279	0.0028
343.15	0.6086	0.0224	0.0023
343.15	0.5357	0.0192	0.0019
343.15	0.4258	0.0145	0.0015
343.15	0.3464	0.0112	0.0011
343.15	0.2905	0.00903	0.00091
343.15	0.2024	0.00596	0.0006
343.15	0.1293	0.00358	0.00072
343.15	0	0.000404	4.1e-05
348.15	0.8839	0.0301	0.0031
348.15	0.825	0.0277	0.0028
348.15	0.729	0.024	0.0024
348.15	0.6086	0.0193	0.0019
348.15	0.5357	0.0166	0.0017
348.15	0.4258	0.0125	0.0013
348.15	0.3464	0.00971	0.00098
348.15	0.2905	0.00783	0.00079
348.15	0.2024	0.00564	0.00057
348.15	0.1293	0.00355	0.00107
348.15	0	0.000378	3.8e-05

System: N-ethyl-N-methylmorpholinium glycolate + water; phases: Liquid
Fixed: Pressure, kPa = 100
Property: Mass density, kg/m3 (Liquid); method: Vibrating tube method
Temperature, K	Mole fraction of N-ethyl-N-methylmorpholinium glycolate	Mass density, kg/m3	uncertainty
298.15	0.8256	1228	2.1
298.15	0.7573	1226.9	1.9
298.15	0.6669	1224.6	1.6
298.15	0.5793	1221.9	1.4
298.15	0.4809	1217.5	1.2
298.15	0.3907	1211.3	1.1
298.15	0.288	1199.7	1.1
298.15	0.2209	1186.5	1
298.15	0.1688	1170.3	1
298.15	0.0933	1128.6	1.3
298.15	0	997.1	1
303.15	0.8256	1224.8	2.1
303.15	0.7573	1223.6	1.9
303.15	0.6669	1221.2	1.6
303.15	0.5793	1218.5	1.4
303.15	0.4809	1214.1	1.2
303.15	0.3907	1207.9	1.1
303.15	0.288	1196.3	1.1
303.15	0.2209	1183.1	1
303.15	0.1688	1167	1
303.15	0.0933	1125.6	1
303.15	0	995.7	1
308.15	0.8256	1221.5	2.1
308.15	0.7573	1220.2	1.9
308.15	0.6669	1217.9	1.6
308.15	0.5793	1215.1	1.4
308.15	0.4809	1210.7	1.2
308.15	0.3907	1204.5	1.1
308.15	0.288	1192.8	1.1
308.15	0.2209	1179.6	1
308.15	0.1688	1163.7	1
308.15	0.0933	1122.6	1
308.15	0	994	1
313.15	0.8256	1218.2	2.1
313.15	0.7573	1216.9	1.9
313.15	0.6669	1214.6	1.6
313.15	0.5793	1211.8	1.4
313.15	0.4809	1207.3	1.2
313.15	0.3907	1201.1	1.1
313.15	0.288	1189.4	1.1
313.15	0.2209	1176.2	1
313.15	0.1688	1160.4	1
313.15	0.0933	1119.5	1
313.15	0	992.2	1
318.15	0.8256	1214.9	2.1
318.15	0.7573	1213.7	1.8
318.15	0.6669	1211.2	1.6
318.15	0.5793	1208.5	1.4
318.15	0.4809	1204	1.2
318.15	0.3907	1197.7	1.1
318.15	0.288	1186	1.1
318.15	0.2209	1172.8	1
318.15	0.1688	1157	1
318.15	0.0933	1116.4	1
318.15	0	990.2	1
323.15	0.8256	1211.7	2.1
323.15	0.7573	1210.3	1.8
323.15	0.6669	1207.9	1.6
323.15	0.5793	1205.2	1.4
323.15	0.4809	1200.6	1.2
323.15	0.3907	1194.3	1.1
323.15	0.288	1182.6	1.1
323.15	0.2209	1169.4	1
323.15	0.1688	1153.6	1
323.15	0.0933	1113.2	1
323.15	0	987.9	1
328.15	0.8256	1208.5	2.1
328.15	0.7573	1207	1.8
328.15	0.6669	1204.7	1.6
328.15	0.5793	1201.9	1.4
328.15	0.4809	1197.3	1.2
328.15	0.3907	1191	1.1
328.15	0.288	1179.2	1.1
328.15	0.2209	1166	1
328.15	0.1688	1150.2	1
328.15	0.0933	1110	1
328.15	0	985.7	1
333.15	0.8256	1205.2	2
333.15	0.7573	1203.8	1.8
333.15	0.6669	1201.5	1.6
333.15	0.5793	1198.6	1.4
333.15	0.4809	1194	1.2
333.15	0.3907	1187.6	1.1
333.15	0.288	1175.8	1.1
333.15	0.2209	1162.6	1
333.15	0.1688	1146.8	1
333.15	0.0933	1106.8	1
333.15	0	983.2	1
338.15	0.8256	1202.1	2
338.15	0.7573	1200.8	1.8
338.15	0.6669	1198.3	1.6
338.15	0.5793	1195.4	1.4
338.15	0.4809	1190.7	1.2
338.15	0.3907	1184.3	1.1
338.15	0.288	1172.4	1.1
338.15	0.2209	1159.2	1
338.15	0.1688	1143.4	1
338.15	0.0933	1103.5	1
338.15	0	980.3	1
343.15	0.8256	1199	2
343.15	0.7573	1197.6	1.8
343.15	0.6669	1195.1	1.6
343.15	0.5793	1192.2	1.4
343.15	0.4809	1187.5	1.2
343.15	0.3907	1181	1.1
343.15	0.288	1169	1.1
343.15	0.2209	1155.8	1
343.15	0.1688	1140	1
343.15	0.0933	1100.2	1
343.15	0	978.1	1
348.15	0.8256	1195.9	2
348.15	0.7573	1194.5	1.8
348.15	0.6669	1192	1.6
348.15	0.5793	1189	1.4
348.15	0.4809	1184.2	1.2
348.15	0.3907	1177.7	1.1
348.15	0.288	1165.7	1.1
348.15	0.2209	1152.4	1
348.15	0.1688	1136.6	1.1
348.15	0.0933	1096.8	1.4
348.15	0	974.8	1

System: N-ethyl-N-methylmorpholinium glycolate + water; phases: Liquid
Fixed: Pressure, kPa = 100
Property: Viscosity, Pa*s (Liquid); method: Falling or rolling sphere viscometry
Temperature, K	Mole fraction of N-ethyl-N-methylmorpholinium glycolate	Viscosity, Pa*s	uncertainty
298.15	0.5793	1.779	0.266
298.15	0.4809	0.842	0.113
298.15	0.3907	0.359	0.043
298.15	0.288	0.0953	0.0102
298.15	0.2209	0.0431	0.0044
298.15	0.1688	0.0214	0.0022
298.15	0	0.00089	8.9e-05
303.15	0.6669	1.723	0.256
303.15	0.5793	1.005	0.139
303.15	0.4809	0.494	0.061
303.15	0.3907	0.224	0.025
303.15	0.288	0.0697	0.0071
303.15	0.2209	0.0329	0.0033
303.15	0.1688	0.017	0.0017
303.15	0	0.000797	8e-05
308.15	0.7573	1.866	0.281
308.15	0.6669	1.151	0.161
308.15	0.5793	0.678	0.088
308.15	0.4809	0.339	0.04
308.15	0.3907	0.158	0.017
308.15	0.288	0.0523	0.0053
308.15	0.2209	0.0258	0.0026
308.15	0.1688	0.0139	0.0014
308.15	0	0.000719	7.2e-05
313.15	0.8256	1.882	0.284
313.15	0.7573	1.354	0.194
313.15	0.6669	0.838	0.112
313.15	0.5793	0.496	0.061
313.15	0.4809	0.25	0.028
313.15	0.3907	0.118	0.012
313.15	0.288	0.0405	0.0041
313.15	0.2209	0.0201	0.002
313.15	0.1688	0.0113	0.0011
313.15	0	0.000653	6.6e-05
318.15	0.8256	1.219	0.173
318.15	0.7573	0.884	0.119
318.15	0.6669	0.555	0.07
318.15	0.5793	0.334	0.039
318.15	0.4809	0.174	0.019
318.15	0.3907	0.0856	0.0088
318.15	0.288	0.032	0.0032
318.15	0.2209	0.0168	0.0017
318.15	0.1688	0.00961	0.00097
318.15	0	0.000596	6e-05
323.15	0.8256	0.882	0.119
323.15	0.7573	0.642	0.082
323.15	0.6669	0.405	0.049
323.15	0.5793	0.246	0.028
323.15	0.4809	0.13	0.014
323.15	0.3907	0.0654	0.0066
323.15	0.288	0.0255	0.0026
323.15	0.2209	0.0139	0.0014
323.15	0.1688	0.00815	0.00082
323.15	0	0.000547	5.5e-05
328.15	0.8256	0.587	0.074
328.15	0.7573	0.435	0.053
328.15	0.6669	0.283	0.032
328.15	0.5793	0.179	0.019
328.15	0.4809	0.0986	0.0102
328.15	0.3907	0.054	0.0054
328.15	0.288	0.0208	0.0021
328.15	0.2209	0.0117	0.0012
328.15	0.1688	0.00697	0.0007
328.15	0	0.000504	5.1e-05
333.15	0.8256	0.441	0.054
333.15	0.7573	0.329	0.038
333.15	0.6669	0.217	0.024
333.15	0.5793	0.138	0.015
333.15	0.4809	0.0776	0.0079
333.15	0.3907	0.0434	0.0044
333.15	0.288	0.0173	0.0017
333.15	0.2209	0.00979	0.00098
333.15	0.1688	0.006	0.0006
333.15	0	0.000466	4.7e-05
338.15	0.8256	0.34	0.04
338.15	0.7573	0.253	0.029
338.15	0.6669	0.165	0.018
338.15	0.5793	0.105	0.011
338.15	0.4809	0.059	0.006
338.15	0.3907	0.0324	0.0033
338.15	0.288	0.0146	0.0015
338.15	0.2209	0.00855	0.00086
338.15	0.1688	0.0052	0.00052
338.15	0	0.000433	4.3e-05
343.15	0.8256	0.258	0.029
343.15	0.7573	0.195	0.021
343.15	0.6669	0.131	0.014
343.15	0.5793	0.0853	0.0087
343.15	0.4809	0.0496	0.005
343.15	0.3907	0.0289	0.0029
343.15	0.288	0.0124	0.0012
343.15	0.2209	0.00741	0.00074
343.15	0.1688	0.00455	0.00046
343.15	0	0.000404	4.1e-05
348.15	0.8256	0.196	0.022
348.15	0.7573	0.15	0.016
348.15	0.6669	0.102	0.011
348.15	0.5793	0.0679	0.0069
348.15	0.4809	0.0404	0.0041
348.15	0.3907	0.0242	0.0024
348.15	0.288	0.0107	0.0011
348.15	0.2209	0.00646	0.00065
348.15	0.1688	0.00401	0.0004
348.15	0	0.000378	3.8e-05
