Measured thermophysical data. Phase behaviour of the pseudo-ternary system carbon dioxide + ethanol + fish oil at high pressures
Source: J. Chem. Thermodyn., 2017, 10.1016/j.jct.2017.07.032
Compound 1: ethanol, C2H6O, InChI=1S/C2H6O/c1-2-3/h3H,2H2,1H3, purity 99.9%
Compound 2: carbon dioxide, CO2, InChI=1S/CO2/c2-1-3, purity 99.9%

System: carbon dioxide + ethanol; phases: Liquid, Gas
Property: Vapor or sublimation pressure, kPa (Liquid); method: Closed cell (Static) method
Mole fraction of carbon dioxide	Temperature, K	Vapor or sublimation pressure, kPa	uncertainty
0.2647	323.15	4670	470
0.2771	323.15	5120	340
0.3058	323.15	5340	340
0.3128	323.15	5780	330
0.4128	323.15	7070	320
0.4795	323.15	7690	320
0.5069	323.15	7960	310
0.5455	323.15	8160	300
0.6348	323.15	8440	300
0.6279	323.15	8460	300
0.6535	323.15	8510	310
0.6875	323.15	8690	310
0.293	343.15	7010	320
0.3785	343.15	8050	340
0.426	343.15	9040	340
0.4968	343.15	9980	320
0.613	343.15	10980	310
0.691	343.15	11500	310

System: carbon dioxide + ethanol; phases: Gas, Liquid
Property: Mole fraction of carbon dioxide (Gas); method: volumetric method
Mole fraction of carbon dioxide	Temperature, K	Mole fraction of carbon dioxide	uncertainty
0.2647	323.15	0.984	0.0101
0.2771	323.15	0.9859	0.01
0.3058	323.15	0.9819	0.01
0.3128	323.15	0.9837	0.01
0.4128	323.15	0.9814	0.01
0.4795	323.15	0.9739	0.01
0.5069	323.15	0.9764	0.01
0.5455	323.15	0.9754	0.01
0.6348	323.15	0.974	0.0105
0.6279	323.15	0.9671	0.01
0.6535	323.15	0.9679	0.0102
0.6875	323.15	0.963	0.0101
0.293	343.15	0.9679	0.01
0.3785	343.15	0.9656	0.01
0.426	343.15	0.9614	0.0101
0.4968	343.15	0.9484	0.0101
0.613	343.15	0.9432	0.0102
0.691	343.15	0.906	0.0112
