Measured thermophysical data. CO2 absorption using aqueous potassium lysinate solutions: Vapor - liquid equilibrium data and modelling
Source: J. Chem. Thermodyn., 2017, 10.1016/j.jct.2017.07.041
Compound 1: potassium L-lysinate, C6H13KN2O2, InChI=1S/C6H14N2O2.K/c7-4-2-1-3-5(8)6(9)10;/h5H,1-4,7-8H2,(H,9,10);/q;+1/p-1/t5-;/m0./s1, purity 97%
Compound 2: carbon dioxide, CO2, InChI=1S/CO2/c2-1-3, purity 99.995%
Compound 3: 2-aminoethan-1-ol, C2H7NO, InChI=1S/C2H7NO/c3-1-2-4/h4H,1-3H2, purity 99.12%
Compound 4: water, H2O, InChI=1S/H2O/h1H2, purity 99.8%

System: carbon dioxide + 2-aminoethan-1-ol + water; phases: Liquid, Gas
Fixed: Temperature, K = 313.2
Fixed: Solvent: Mass fraction of 2-aminoethan-1-ol = 0.153
Property: Molality, mol/kg of carbon dioxide (Liquid); method: Volumetric method
Pressure, kPa	Molality, mol/kg of carbon dioxide	uncertainty
8.31	1.3	0.14
9.69	1.413	0.096
12.98	1.513	0.076
16.57	1.573	0.052
20.52	1.619	0.044
24.04	1.652	0.039
28.65	1.687	0.037
35.04	1.729	0.035
41.29	1.763	0.034
49.41	1.802	0.033
58.47	1.838	0.032
67.51	1.87	0.032

System: carbon dioxide + potassium L-lysinate + water; phases: Liquid, Gas
Property: Molality, mol/kg of carbon dioxide (Liquid); method: Volumetric method
Solvent: Mass fraction of potassium L-lysinate	Temperature, K	Pressure, kPa	Molality, mol/kg of carbon dioxide	uncertainty
0.09	298.2	4.3	0.542	0.074
0.09	298.2	7.09	0.682	0.044
0.09	298.2	13.7	0.772	0.031
0.09	298.2	23.25	0.824	0.022
0.09	298.2	37.36	0.872	0.021
0.09	298.2	60.96	0.921	0.021
0.09	298.2	85.15	0.953	0.022
0.09	313.2	9.7	0.507	0.063
0.09	313.2	12.2	0.609	0.044
0.09	313.2	18.87	0.697	0.033
0.09	313.2	27.55	0.754	0.024
0.09	313.2	37.39	0.792	0.021
0.09	313.2	64.52	0.855	0.021
0.09	313.2	85.69	0.887	0.022
0.09	313.2	103.77	0.907	0.022
0.09	328.2	17.21	0.427	0.133
0.09	328.2	18.19	0.501	0.068
0.09	328.2	20.41	0.568	0.08
0.09	328.2	22.9	0.606	0.055
0.09	328.2	24.63	0.625	0.037
0.09	328.2	26.22	0.639	0.027
0.09	328.2	28.38	0.656	0.026
0.09	328.2	34.93	0.694	0.022
0.09	328.2	45.08	0.734	0.021
0.09	328.2	58.99	0.772	0.02
0.09	328.2	68.64	0.792	0.02
0.09	328.2	86.76	0.824	0.02
0.09	328.2	100.74	0.842	0.02
0.09	328.2	125.64	0.87	0.02
0.09	343.2	36.45	0.476	0.044
0.09	343.2	38.43	0.509	0.038
0.09	343.2	41.81	0.548	0.028
0.09	343.2	52.07	0.614	0.022
0.09	343.2	71.55	0.68	0.02
0.09	343.2	96.87	0.731	0.019
0.09	343.2	116.12	0.758	0.019
0.09	343.2	141.73	0.787	0.02
0.174	298.2	3.76	0.942	0.177
0.174	298.2	4.07	1.063	0.113
0.174	298.2	4.97	1.176	0.07
0.174	298.2	5.93	1.238	0.04
0.174	298.2	7.26	1.293	0.118
0.174	298.2	8.9	1.342	0.066
0.174	298.2	11.53	1.398	0.044
0.174	298.2	13.67	1.433	0.039
0.174	298.2	25.19	1.564	0.031
0.174	298.2	45.21	1.682	0.03
0.174	298.2	61.02	1.743	0.029
0.174	298.2	105.68	1.854	0.032
0.174	313.2	7.91	0.757	0.303
0.174	313.2	8.21	0.909	0.271
0.174	313.2	9.03	1.12	0.259
0.174	313.2	13.22	1.307	0.05
0.174	313.2	15.94	1.365	0.067
0.174	313.2	18.91	1.41	0.05
0.174	313.2	28.79	1.507	0.037
0.174	313.2	39.5	1.576	0.028
0.174	313.2	58.54	1.666	0.027
0.174	313.2	93.47	1.771	0.029
0.174	313.2	105.51	1.797	0.027
0.174	328.2	16.78	0.935	0.097
0.174	328.2	18.54	1.102	0.063
0.174	328.2	24.35	1.253	0.045
0.174	328.2	36.02	1.377	0.031
0.174	328.2	48.68	1.453	0.026
0.174	328.2	62.79	1.513	0.026
0.174	328.2	77.18	1.561	0.026
0.174	328.2	91.57	1.599	0.026
0.174	328.2	104.84	1.63	0.025
0.174	328.2	123.13	1.667	0.027
0.174	343.2	33.42	0.986	0.1
0.174	343.2	37.81	1.118	0.056
0.174	343.2	42.69	1.188	0.024
0.174	343.2	58.88	1.315	0.026
0.174	343.2	73.25	1.383	0.025
0.174	343.2	83.08	1.418	0.024
0.174	343.2	96.66	1.458	0.027
0.174	343.2	112.6	1.497	0.026
0.174	343.2	127.3	1.528	0.025
0.174	343.2	139.14	1.55	0.024
0.174	353.2	50.61	0.926	0.077
0.174	353.2	54.03	1.01	0.053
0.174	353.2	61.97	1.116	0.033
0.174	353.2	70.88	1.151	0.027
0.174	353.2	81.3	1.208	0.027
0.174	353.2	90.56	1.245	0.026
0.174	353.2	102.91	1.287	0.025
0.174	353.2	113.38	1.317	0.025
0.174	353.2	124.87	1.346	0.025
0.174	353.2	146.43	1.389	0.025
0.253	313.2	7.54	1.176	0.561
0.253	313.2	7.86	1.573	0.441
0.253	313.2	8.24	1.734	0.197
0.253	313.2	10.99	1.979	0.149
0.253	313.2	17.1	2.156	0.08
0.253	313.2	20.86	2.219	0.049
0.253	313.2	25.58	2.282	0.055
0.253	313.2	28.6	2.317	0.04
0.253	313.2	34.02	2.37	0.04
0.253	313.2	38.27	2.405	0.038
0.253	313.2	47.15	2.471	0.038
0.253	313.2	59.24	2.539	0.037
0.253	313.2	73.06	2.605	0.035
0.253	313.2	103.3	2.716	0.047
0.253	313.2	108.09	2.732	0.047
0.253	328.2	16.72	1.66	0.142
0.253	328.2	18.97	1.818	0.072
0.253	328.2	20.66	1.885	0.098
0.253	328.2	22.67	1.941	0.091
0.253	328.2	25.22	1.995	0.059
0.253	328.2	27.82	2.039	0.054
0.253	328.2	31.75	2.09	0.055
0.253	328.2	36.47	2.14	0.035
0.253	328.2	40.58	2.178	0.032
0.253	328.2	45.24	2.216	0.036
0.253	328.2	63.57	2.305	0.033
0.253	328.2	85.29	2.397	0.035
0.253	328.2	109.61	2.476	0.035
0.253	328.2	121.75	2.513	0.037
0.253	353.2	47.37	1.449	0.112
0.253	353.2	50.53	1.587	0.088
0.253	353.2	55.17	1.698	0.057
0.253	353.2	60.74	1.777	0.047
0.253	353.2	67.88	1.849	0.039
0.253	353.2	79.79	1.934	0.034
0.253	353.2	93.93	2.009	0.032
0.253	353.2	114.5	2.09	0.032
0.253	353.2	129.21	2.134	0.031
0.253	353.2	144.28	2.175	0.035
0.331	298.2	4.23	2.608	0.273
0.331	298.2	5.38	2.808	0.198
0.331	298.2	7.04	2.942	0.139
0.331	298.2	9.14	3.051	0.142
0.331	298.2	11.6	3.145	0.111
0.331	298.2	14.42	3.225	0.091
0.331	298.2	16.98	3.288	0.083
0.331	298.2	20.07	3.349	0.064
0.331	298.2	23.41	3.394	0.058
0.331	298.2	29.89	3.483	0.057
0.331	298.2	37.18	3.574	0.053
0.331	298.2	45.73	3.653	0.054
0.331	298.2	52.97	3.744	0.05
0.331	298.2	64.87	3.819	0.047
0.331	298.2	78.23	3.887	0.047
0.331	298.2	90.69	3.96	0.048
0.331	298.2	107.15	4.027	0.047
0.331	313.2	7.66	2.205	0.329
0.331	313.2	9.43	2.668	0.075
0.331	313.2	13.47	2.879	0.064
0.331	313.2	14.89	2.925	0.147
0.331	313.2	16.6	2.973	0.063
0.331	313.2	18.7	3.02	0.051
0.331	313.2	20.56	3.057	0.132
0.331	313.2	23.68	3.112	0.095
0.331	313.2	26.64	3.157	0.057
0.331	313.2	37.52	3.287	0.056
0.331	313.2	50.56	3.404	0.049
0.331	313.2	66.25	3.508	0.053
0.331	313.2	81.74	3.597	0.052
0.331	313.2	96.85	3.667	0.045
0.331	313.2	117.76	3.751	0.045
0.331	328.2	17.79	2.587	0.073
0.331	328.2	26	2.853	0.064
0.331	328.2	29.32	2.914	0.137
0.331	328.2	32.92	2.966	0.044
0.331	328.2	35.79	3.002	0.052
0.331	328.2	40.47	3.053	0.043
0.331	328.2	47.41	3.117	0.047
0.331	328.2	58.52	3.2	0.047
0.331	328.2	72.54	3.284	0.05
0.331	328.2	86.22	3.352	0.046
0.331	328.2	100.63	3.415	0.049
0.331	328.2	116.13	3.474	0.05
0.331	328.2	128.7	3.515	0.044
0.331	343.2	29.32	2.051	0.257
0.331	343.2	30.55	2.25	0.189
0.331	343.2	31.89	2.376	0.121
0.331	343.2	34.63	2.502	0.129
0.331	343.2	37.25	2.583	0.045
0.331	343.2	40.33	2.663	0.039
0.331	343.2	45.15	2.739	0.062
0.331	343.2	51.67	2.819	0.053
0.331	343.2	60.35	2.903	0.046
0.331	343.2	69.03	2.967	0.043
0.331	343.2	81.78	3.045	0.042
0.331	343.2	95.15	3.11	0.041
0.331	343.2	110.51	3.174	0.041
0.331	343.2	122.54	3.214	0.041
0.331	353.2	43.67	1.958	0.223
0.331	353.2	46.17	2.189	0.165
0.331	353.2	49.57	2.368	0.113
0.331	353.2	51.72	2.443	0.122
0.331	353.2	55.26	2.528	0.067
0.331	353.2	57.82	2.574	0.068
0.331	353.2	61.68	2.632	0.053
0.331	353.2	64.42	2.667	0.053
0.331	353.2	70.58	2.733	0.048
0.331	353.2	78	2.794	0.045
0.331	353.2	85.98	2.85	0.043
0.331	353.2	95.18	2.904	0.042
0.331	353.2	108.13	2.967	0.042
0.331	353.2	119.16	3.012	0.042
0.331	353.2	131.24	3.056	0.041
0.331	353.2	145.82	3.103	0.042
0.412	313.2	6.78	3.282	0.438
0.412	313.2	7.01	3.521	0.329
0.412	313.2	9.38	3.939	0.184
0.412	313.2	12.63	4.129	0.154
0.412	313.2	15.78	4.246	0.104
0.412	313.2	18.22	4.322	0.106
0.412	313.2	22.17	4.411	0.084
0.412	313.2	27.11	4.508	0.074
0.412	313.2	39.29	4.684	0.069
0.412	313.2	53.36	4.836	0.065
0.412	313.2	68.36	4.961	0.064
0.412	313.2	85.59	5.071	0.063
0.412	313.2	103.56	5.185	0.064
0.412	328.2	14.94	3.451	0.336
0.412	328.2	15.96	3.643	0.173
0.412	328.2	18.47	3.842	0.223
0.412	328.2	22.5	4.002	0.112
0.412	328.2	26.95	4.121	0.089
0.412	328.2	31.04	4.203	0.078
0.412	328.2	34.25	4.256	0.074
0.412	328.2	54.45	4.435	0.061
0.412	328.2	81.17	4.631	0.06
0.412	328.2	100.63	4.74	0.059
0.412	328.2	121.55	4.84	0.06
0.412	353.2	48.71	3.207	0.105
0.412	353.2	53.12	3.344	0.094
0.412	353.2	56.18	3.405	0.07
0.412	353.2	63.67	3.527	0.066
0.412	353.2	68.56	3.591	0.057
0.412	353.2	83.01	3.72	0.055
0.412	353.2	92.47	3.785	0.053
0.412	353.2	103.97	3.861	0.053
0.412	353.2	116.67	3.922	0.052

System: potassium L-lysinate + water; phases: Liquid, Gas
Property: Vapor or sublimation pressure, kPa (Liquid); method: Closed cell (Static) method
Temperature, K	Mass fraction of potassium L-lysinate	Vapor or sublimation pressure, kPa	uncertainty
298.2	0.09	3.14	3
313.2	0.09	7.61	3
328.2	0.09	15.65	3
343.2	0.09	30.01	3.01
298.2	0.174	3.3	3
313.2	0.174	7.42	3
328.2	0.174	15.25	3
343.2	0.174	28.66	3.01
353.2	0.174	43.1	3.02
313.2	0.253	7.05	3
328.2	0.253	14.76	3.01
353.2	0.253	39.42	3.01
298.2	0.331	3.06	3
313.2	0.331	6.61	3
328.2	0.331	13.43	3
343.2	0.331	25.78	3.01
353.2	0.331	38.94	3.01
313.2	0.412	5.93	3
328.2	0.412	12.74	3.01
353.2	0.412	37.15	3.01

System: 2-aminoethan-1-ol + water; phases: Liquid, Gas
Property: Vapor or sublimation pressure, kPa (Liquid); method: Closed cell (Static) method
Mass fraction of 2-aminoethan-1-ol	Temperature, K	Vapor or sublimation pressure, kPa	uncertainty
0.153	313.2	7.02	3
