Measured thermophysical data. Speed of sound in ionic liquids with a common ion as a function of pressure and temperature
Source: J. Chem. Thermodyn., 2018, 10.1016/j.jct.2017.09.009
Compound 1: 1-butyl-1-methylpiperidinium bis(trifluoromethanesulfonyl)imide, C12H22F6N2O4S2, InChI=1S/C10H22N.C2F6NO4S2/c1-3-4-8-11(2)9-6-5-7-10-11;3-1(4,5)14(10,11)9-15(12,13)2(6,7)8/h3-10H2,1-2H3;/q+1;-1, purity 99%
Compound 2: 1-butyl-1-methylpyrrolidinium bis[(trifluoromethyl)sulfonyl]imide, C11H20F6N2O4S2, InChI=1S/C9H20N.C2F6NO4S2/c1-3-4-7-10(2)8-5-6-9-10;3-1(4,5)14(10,11)9-15(12,13)2(6,7)8/h3-9H2,1-2H3;/q+1;-1, purity 99%
Compound 3: triethylsulfonium bis((trifluoromethyl)sulfonyl)imide, C8H15F6NO4S3, InChI=1S/C6H15S.C2F6NO4S2/c1-4-7(5-2)6-3;3-1(4,5)14(10,11)9-15(12,13)2(6,7)8/h4-6H2,1-3H3;/q+1;-1, purity 99%
Compound 4: 1-butylpyridinium bis[(trifluoromethyl)sulfonyl]imide, C11H14F6N2O4S2, InChI=1S/C9H14N.C2F6NO4S2/c1-2-3-7-10-8-5-4-6-9-10;3-1(4,5)14(10,11)9-15(12,13)2(6,7)8/h4-6,8-9H,2-3,7H2,1H3;/q+1;-1, purity 99%
Compound 5: 1-butyl-3-methylimidazolium dicyanamide, C10H15N5, InChI=1S/C8H15N2.C2N3/c1-3-4-5-10-7-6-9(2)8-10;3-1-5-2-4/h6-8H,3-5H2,1-2H3;/q+1;-1, purity 98%
Compound 6: 1-butyl-3-methylimidazolium hexafluoroantimonate, C8H15F6N2Sb, InChI=1S/C8H15N2.6FH.Sb/c1-3-4-5-10-7-6-9(2)8-10;;;;;;;/h6-8H,3-5H2,1-2H3;6*1H;/q+1;;;;;;;+5/p-6, purity 99%
Compound 7: 1-butyl-3-methylimidazolium trifluoromethanesulfonate, C9H15F3N2O3S, InChI=1S/C8H15N2.CHF3O3S/c1-3-4-5-10-7-6-9(2)8-10;2-1(3,4)8(5,6)7/h6-8H,3-5H2,1-2H3;(H,5,6,7)/q+1;/p-1, purity 99%
Compound 8: 1-butyl-3-methylimidazolium methyl sulfate, C9H18N2O4S, InChI=1S/C8H15N2.CH4O4S/c1-3-4-5-10-7-6-9(2)8-10;1-5-6(2,3)4/h6-8H,3-5H2,1-2H3;1H3,(H,2,3,4)/q+1;/p-1, purity 99%

System: 1-butyl-1-methylpiperidinium bis(trifluoromethanesulfonyl)imide; phases: Liquid
Property: Refractive index (Na D-line) (Liquid); method: Standard Abbe refractometry
Temperature, K	Pressure, kPa	Refractive index (Na D-line)	uncertainty
298.15	101.325	1.4298	0.0029

System: 1-butyl-1-methylpiperidinium bis(trifluoromethanesulfonyl)imide; phases: Liquid
Fixed: Pressure, kPa = 101.325
Property: Mass density, kg/m3 (Liquid); method: Vibrating tube method
Temperature, K	Mass density, kg/m3	uncertainty
283.15	1395.6	2.8
288.15	1391.1	2.8
293.15	1386.6	2.8
298.15	1382.2	2.8
303.15	1377.9	2.8
308.15	1373.6	2.8
313.15	1369.3	2.8
318.15	1364.9	2.8
323.15	1360.7	2.8
328.15	1356.4	2.8
333.15	1352.1	2.7
338.15	1347.8	2.7
343.15	1343.6	2.7
348.15	1339.3	2.7
353.15	1335.1	2.7
358.15	1330.9	2.7
363.15	1326.7	2.7

System: 1-butyl-1-methylpiperidinium bis(trifluoromethanesulfonyl)imide; phases: Liquid
Fixed: Frequency, MHz = 1.5
Property: Speed of sound, m/s (Liquid); method: Single path-length method
Temperature, K	Pressure, kPa	Speed of sound, m/s	uncertainty
283.15	100	1337	18.7
283.15	5000	1354	19
283.15	10000	1371.3	19.2
283.15	20000	1405.1	19.7
283.15	30000	1436.8	20.1
283.15	40000	1466.8	20.6
283.15	50000	1495.2	21
283.15	60000	1522.8	21.3
283.15	70000	1549.7	21.7
283.15	80000	1575.7	22.1
283.15	90000	1600.9	22.4
283.15	95000	1613.4	22.6
293.15	100	1311.2	18.4
293.15	5000	1328.2	18.6
293.15	10000	1345.3	18.9
293.15	20000	1378.6	19.3
293.15	30000	1410.4	19.8
293.15	40000	1440.6	20.2
293.15	50000	1469.3	20.6
293.15	60000	1496.6	21
293.15	70000	1523.2	21.4
293.15	80000	1548.7	21.7
293.15	90000	1573.7	22.1
293.15	95000	1585.9	22.2
303.15	100	1286.2	18
303.15	5000	1303.6	18.3
303.15	10000	1320.8	18.5
303.15	20000	1353.9	19
303.15	30000	1386.1	19.4
303.15	40000	1416.7	19.9
303.15	50000	1445.6	20.3
303.15	60000	1473	20.7
303.15	70000	1499.7	21
303.15	80000	1525.3	21.4
303.15	90000	1550.1	21.7
303.15	95000	1562.2	21.9
313.15	100	1262	17.7
313.15	5000	1279.8	18
313.15	10000	1297.4	18.2
313.15	20000	1330.8	18.7
313.15	30000	1363	19.1
313.15	40000	1394	19.6
313.15	50000	1423.6	20
313.15	60000	1451.7	20.4
313.15	70000	1478.1	20.7
313.15	80000	1504.4	21.1
313.15	90000	1529.5	21.4
313.15	95000	1541.7	21.6
323.15	100	1239.1	17.4
323.15	5000	1257.8	17.7
323.15	10000	1275.5	17.9
323.15	20000	1309.7	18.4
323.15	30000	1342	18.8
323.15	40000	1373.3	19.3
323.15	50000	1403.2	19.7
323.15	60000	1431.8	20.1
323.15	70000	1458.8	20.5
323.15	80000	1484.9	20.8
323.15	90000	1509.8	21.2
323.15	95000	1522.1	21.3
333.15	100	1217	17.1
333.15	5000	1235.8	17.3
333.15	10000	1254.5	17.6
333.15	20000	1289.4	18.1
333.15	30000	1322	18.5
333.15	40000	1353.2	19
333.15	50000	1383.5	19.4
333.15	60000	1412.3	19.8
333.15	70000	1439.9	20.2
333.15	80000	1467	20.6
333.15	90000	1491.8	20.9
333.15	95000	1503.9	21.1
343.15	100	1195.8	16.8
343.15	5000	1215.5	17.1
343.15	10000	1234.7	17.3
343.15	20000	1270.7	17.8
343.15	30000	1303.6	18.3
343.15	40000	1334.5	18.7
343.15	60000	1395.5	19.6

System: 1-butyl-1-methylpyrrolidinium bis[(trifluoromethyl)sulfonyl]imide; phases: Liquid
Property: Refractive index (Na D-line) (Liquid); method: Standard Abbe refractometry
Temperature, K	Pressure, kPa	Refractive index (Na D-line)	uncertainty
298.15	101.325	1.423	0.0029

System: 1-butyl-1-methylpyrrolidinium bis[(trifluoromethyl)sulfonyl]imide; phases: Liquid
Fixed: Pressure, kPa = 101.325
Property: Mass density, kg/m3 (Liquid); method: Vibrating tube method
Temperature, K	Mass density, kg/m3	uncertainty
283.15	1408.3	2.9
288.15	1403.8	2.9
293.15	1399.3	2.8
298.15	1394.8	2.8
303.15	1390.3	2.8
308.15	1385.9	2.8
313.15	1381.4	2.8
318.15	1377	2.8
323.15	1372.6	2.8
328.15	1368.2	2.8
333.15	1363.8	2.8
338.15	1359.5	2.8
343.15	1355.1	2.8

System: 1-butyl-1-methylpyrrolidinium bis[(trifluoromethyl)sulfonyl]imide; phases: Liquid
Fixed: Frequency, MHz = 1.5
Property: Speed of sound, m/s (Liquid); method: Single path-length method
Temperature, K	Pressure, kPa	Speed of sound, m/s	uncertainty
283.15	100	1310.9	18.4
283.15	5000	1328	18.6
283.15	10000	1344.6	18.9
283.15	20000	1377.3	19.3
283.15	30000	1408.6	19.8
283.15	40000	1438.2	20.2
283.15	50000	1466.3	20.6
283.15	60000	1493.1	20.9
283.15	70000	1519.3	21.3
283.15	80000	1544.1	21.6
283.15	90000	1568.3	22
283.15	95000	1580.1	22.1
293.15	100	1286.9	18
293.15	5000	1304	18.3
293.15	10000	1320.9	18.5
293.15	20000	1353.6	19
293.15	30000	1385.1	19.4
293.15	40000	1415.2	19.8
293.15	50000	1443.6	20.2
293.15	60000	1470.9	20.6
293.15	70000	1496.6	21
293.15	80000	1521.7	21.3
293.15	90000	1546.1	21.7
293.15	95000	1558	21.8
303.15	100	1262.8	17.7
303.15	5000	1280.5	18
303.15	10000	1297.8	18.2
303.15	20000	1330.8	18.7
303.15	30000	1362.5	19.1
303.15	40000	1393	19.5
303.15	50000	1422.1	19.9
303.15	60000	1449.7	20.3
303.15	70000	1476.1	20.7
303.15	80000	1501.5	21.1
303.15	90000	1526	21.4
303.15	95000	1538	21.6
313.15	100	1239.9	17.4
313.15	5000	1258.1	17.7
313.15	10000	1275.8	17.9
313.15	20000	1309.4	18.4
313.15	30000	1341.3	18.8
313.15	40000	1372.2	19.2
313.15	50000	1401.8	19.7
313.15	60000	1429.9	20.1
313.15	70000	1456.5	20.4
313.15	80000	1482.3	20.8
313.15	90000	1507	21.1
313.15	95000	1519.1	21.3
323.15	100	1217.7	17.1
323.15	5000	1236.4	17.4
323.15	10000	1254.7	17.6
323.15	20000	1289.1	18.1
323.15	30000	1321.4	18.5
323.15	40000	1352.3	19
323.15	50000	1382.3	19.4
323.15	60000	1410.9	19.8
323.15	70000	1438.1	20.2
323.15	80000	1464	20.5
323.15	90000	1489.1	20.9
323.15	95000	1501.3	21
333.15	100	1196.3	16.8
333.15	5000	1215.6	17.1
333.15	10000	1234.4	17.3
333.15	20000	1269.7	17.8
333.15	30000	1302.4	18.3
333.15	40000	1333.6	18.7
333.15	50000	1363.7	19.1
333.15	60000	1392.8	19.5
333.15	70000	1420.5	19.9
333.15	80000	1446.8	20.3
333.15	90000	1472	20.6
333.15	95000	1484.2	20.8
343.15	100	1175.9	16.5
343.15	5000	1195.6	16.8
343.15	10000	1215	17.1
343.15	20000	1251.2	17.6
343.15	30000	1284.6	18
343.15	40000	1316.1	18.5
343.15	50000	1346.2	18.9
343.15	60000	1375.3	19.3
343.15	70000	1403.6	19.7
343.15	80000	1430.3	20.1
343.15	90000	1456.5	20.4
343.15	95000	1469.2	20.6

System: triethylsulfonium bis((trifluoromethyl)sulfonyl)imide; phases: Liquid
Property: Refractive index (Na D-line) (Liquid); method: Standard Abbe refractometry
Temperature, K	Pressure, kPa	Refractive index (Na D-line)	uncertainty
298.15	101.325	1.4264	0.0029

System: triethylsulfonium bis((trifluoromethyl)sulfonyl)imide; phases: Liquid
Fixed: Pressure, kPa = 101.325
Property: Mass density, kg/m3 (Liquid); method: Vibrating tube method
Temperature, K	Mass density, kg/m3	uncertainty
283.15	1475.5	3
288.15	1470.6	3
293.15	1465.6	3
298.15	1460.7	3
303.15	1455.9	3
308.15	1451	3
313.15	1446.2	2.9
318.15	1441.3	2.9
323.15	1436.5	2.9
328.15	1431.8	2.9
333.15	1427	2.9
338.15	1422.3	2.9
343.15	1417.5	2.9

System: triethylsulfonium bis((trifluoromethyl)sulfonyl)imide; phases: Liquid
Fixed: Frequency, MHz = 1.5
Property: Speed of sound, m/s (Liquid); method: Single path-length method
Temperature, K	Pressure, kPa	Speed of sound, m/s	uncertainty
283.15	100	1279.9	17.9
283.15	5000	1295.8	18.2
283.15	10000	1311.5	18.4
283.15	20000	1341.8	18.8
283.15	30000	1371	19.2
283.15	40000	1399.3	19.6
283.15	50000	1426.1	20
283.15	60000	1451.7	20.4
283.15	70000	1476	20.7
283.15	80000	1499.7	21
283.15	90000	1522.2	21.3
283.15	95000	1533.1	21.5
293.15	100	1256.3	17.6
293.15	5000	1272.8	17.9
293.15	10000	1288.9	18.1
293.15	20000	1319.5	18.5
293.15	30000	1348.8	18.9
293.15	40000	1377.2	19.3
293.15	50000	1404.5	19.7
293.15	60000	1430.6	20.1
293.15	70000	1455.4	20.4
293.15	80000	1479.2	20.7
293.15	90000	1502.1	21.1
293.15	95000	1513.5	21.2
303.15	100	1233	17.3
303.15	5000	1250	17.5
303.15	10000	1266.7	17.8
303.15	20000	1298.1	18.2
303.15	30000	1327.8	18.6
303.15	40000	1356.5	19
303.15	50000	1384.3	19.4
303.15	60000	1410.8	19.8
303.15	70000	1436.1	20.1
303.15	80000	1460.4	20.5
303.15	90000	1483.7	20.8
303.15	95000	1495.1	21
313.15	100	1210.6	17
313.15	5000	1228	17.2
313.15	10000	1245.1	17.5
313.15	20000	1277.5	17.9
313.15	30000	1307.7	18.3
313.15	40000	1336.5	18.7
313.15	50000	1364.5	19.1
313.15	60000	1391.4	19.5
313.15	70000	1417.3	19.9
313.15	80000	1441.9	20.2
313.15	90000	1465.4	20.5
313.15	95000	1477	20.7
323.15	100	1188.9	16.7
323.15	5000	1206.9	16.9
323.15	10000	1224.4	17.2
323.15	20000	1257.7	17.6
323.15	30000	1288.6	18.1
323.15	40000	1317.8	18.5
323.15	50000	1346	18.9
323.15	60000	1373.2	19.3
323.15	70000	1399.6	19.6
323.15	80000	1424.7	20
323.15	90000	1448.6	20.3
323.15	95000	1460.3	20.5
333.15	100	1168.6	16.4
333.15	5000	1186.7	16.7
333.15	10000	1204.8	16.9
333.15	20000	1238.9	17.4
333.15	30000	1270.5	17.8
333.15	40000	1300.1	18.2
333.15	50000	1328.3	18.6
333.15	60000	1355.7	19
333.15	70000	1382.4	19.4
333.15	80000	1407.9	19.7
333.15	90000	1432.2	20.1
333.15	95000	1444	20.2
343.15	100	1148.8	16.1
343.15	5000	1167.1	16.4
343.15	10000	1185.6	16.6
343.15	20000	1220.6	17.1
343.15	30000	1253.2	17.6
343.15	40000	1283.5	18
343.15	50000	1311.6	18.4
343.15	60000	1339.2	18.8
343.15	70000	1365.6	19.2
343.15	80000	1391.6	19.5
343.15	90000	1415.9	19.9
343.15	95000	1427.9	20

System: 1-butylpyridinium bis[(trifluoromethyl)sulfonyl]imide; phases: Liquid
Property: Refractive index (Na D-line) (Liquid); method: Standard Abbe refractometry
Temperature, K	Pressure, kPa	Refractive index (Na D-line)	uncertainty
298.15	101.325	1.4433	0.0029

System: 1-butylpyridinium bis[(trifluoromethyl)sulfonyl]imide; phases: Liquid
Fixed: Pressure, kPa = 101.325
Property: Mass density, kg/m3 (Liquid); method: Vibrating tube method
Temperature, K	Mass density, kg/m3	uncertainty
283.15	1463.4	3
288.15	1458.6	3
293.15	1453.8	3
298.15	1449.1	3
303.15	1444.3	2.9
308.15	1439.6	2.9
313.15	1434.9	2.9
318.15	1430.2	2.9
323.15	1425.5	2.9
328.15	1420.9	2.9
333.15	1416.2	2.9
338.15	1411.6	2.9
343.15	1407	2.9

System: 1-butylpyridinium bis[(trifluoromethyl)sulfonyl]imide; phases: Liquid
Fixed: Frequency, MHz = 1.5
Property: Speed of sound, m/s (Liquid); method: Single path-length method
Temperature, K	Pressure, kPa	Speed of sound, m/s	uncertainty
283.15	100	1288.1	18.1
283.15	5000	1304	18.3
283.15	10000	1319.7	18.5
283.15	20000	1350.1	18.9
283.15	30000	1379.7	19.4
283.15	40000	1407.8	19.7
283.15	50000	1434.8	20.1
283.15	60000	1460.4	20.5
283.15	70000	1484.9	20.8
283.15	80000	1508.7	21.2
283.15	90000	1531.6	21.5
283.15	95000	1542.9	21.6
293.15	100	1264.1	17.7
293.15	5000	1280.6	18
293.15	10000	1296.4	18.2
293.15	20000	1327.4	18.6
293.15	30000	1356.9	19
293.15	40000	1385.4	19.4
293.15	50000	1412.7	19.8
293.15	60000	1438.7	20.2
293.15	70000	1463.5	20.5
293.15	80000	1487.3	20.9
293.15	90000	1510.3	21.2
293.15	95000	1521.6	21.3
303.15	100	1240.5	17.4
303.15	5000	1257.5	17.6
303.15	10000	1274	17.9
303.15	20000	1305.5	18.3
303.15	30000	1335.2	18.7
303.15	40000	1364	19.1
303.15	50000	1391.8	19.5
303.15	60000	1418.4	19.9
303.15	70000	1443.7	20.2
303.15	80000	1467.7	20.6
303.15	90000	1490.9	20.9
303.15	95000	1502.3	21.1
313.15	100	1217.9	17.1
313.15	5000	1235.3	17.3
313.15	10000	1252.4	17.6
313.15	20000	1284.6	18
313.15	30000	1314.9	18.4
313.15	40000	1343.7	18.8
313.15	50000	1371.8	19.2
313.15	60000	1398.7	19.6
313.15	70000	1424.3	20
313.15	80000	1448.9	20.3
313.15	90000	1472.6	20.6
313.15	95000	1484.1	20.8
323.15	100	1196.1	16.8
323.15	5000	1214	17
323.15	10000	1231.6	17.3
323.15	20000	1264.7	17.7
323.15	30000	1295.5	18.2
323.15	40000	1324.7	18.6
323.15	50000	1352.7	19
323.15	60000	1380.2	19.4
323.15	70000	1406.4	19.7
323.15	80000	1431.5	20.1
323.15	90000	1455.3	20.4
323.15	95000	1467.1	20.6
333.15	100	1175.1	16.5
333.15	5000	1193.6	16.8
333.15	10000	1211.6	17
333.15	20000	1245.6	17.5
333.15	30000	1277.1	17.9
333.15	40000	1306.6	18.3
333.15	50000	1334.9	18.7
333.15	60000	1362.4	19.1
333.15	70000	1389.1	19.5
333.15	80000	1414.4	19.8
333.15	90000	1438.7	20.2
333.15	95000	1450.6	20.3
343.15	100	1155.1	16.2
343.15	5000	1173.5	16.5
343.15	10000	1192.2	16.7
343.15	20000	1227.3	17.2
343.15	30000	1259.5	17.7
343.15	40000	1289.6	18.1
343.15	50000	1318.4	18.5
343.15	60000	1346	18.9
343.15	80000	1398.9	19.6
343.15	90000	1423.7	20
343.15	95000	1435.8	20.1

System: 1-butyl-3-methylimidazolium dicyanamide; phases: Liquid
Property: Refractive index (Na D-line) (Liquid); method: Standard Abbe refractometry
Temperature, K	Pressure, kPa	Refractive index (Na D-line)	uncertainty
298.15	101.325	1.509	0.0031

System: 1-butyl-3-methylimidazolium dicyanamide; phases: Liquid
Fixed: Pressure, kPa = 101.325
Property: Mass density, kg/m3 (Liquid); method: Vibrating tube method
Temperature, K	Mass density, kg/m3	uncertainty
283.15	1070.1	2.3
288.15	1066.9	2.3
293.15	1063.6	2.3
298.15	1060.4	2.3
303.15	1057.1	2.3
308.15	1053.9	2.3
313.15	1050.7	2.3
318.15	1047.5	2.3
323.15	1044.4	2.3
328.15	1041.3	2.2
333.15	1038.1	2.2
338.15	1035	2.2
343.15	1031.9	2.2

System: 1-butyl-3-methylimidazolium dicyanamide; phases: Liquid
Fixed: Frequency, MHz = 1.5
Property: Speed of sound, m/s (Liquid); method: Single path-length method
Temperature, K	Pressure, kPa	Speed of sound, m/s	uncertainty
283.15	100	1774.6	24.9
283.15	5000	1787.5	25.1
283.15	10000	1800.6	25.3
283.15	20000	1826	25.6
283.15	30000	1850.5	26
283.15	40000	1874.1	26.3
283.15	50000	1896.8	26.6
283.15	60000	1919	26.9
283.15	70000	1940.7	27.2
283.15	80000	1961.7	27.5
283.15	90000	1982.1	27.8
283.15	95000	1992.3	28
293.15	100	1748.6	24.6
293.15	5000	1761.8	24.8
293.15	10000	1775.1	24.9
293.15	20000	1800.9	25.3
293.15	30000	1825.8	25.6
293.15	40000	1849.7	26
293.15	50000	1872.9	26.3
293.15	60000	1895.3	26.6
293.15	70000	1917	26.9
293.15	80000	1938.5	27.2
293.15	90000	1959.2	27.5
293.15	95000	1969.2	27.6
303.15	100	1724.9	24.2
303.15	5000	1738.5	24.4
303.15	10000	1752	24.6
303.15	20000	1778.4	25
303.15	30000	1803.9	25.3
303.15	40000	1828.5	25.7
303.15	50000	1852.2	26
303.15	60000	1875	26.3
303.15	70000	1897.3	26.6
303.15	80000	1919	26.9
303.15	90000	1940.2	27.2
303.15	95000	1950.4	27.4
313.15	100	1700	23.9
313.15	5000	1714	24.1
313.15	10000	1727.9	24.3
313.15	20000	1754.5	24.7
313.15	30000	1780.6	25
313.15	40000	1805.6	25.4
313.15	50000	1829.8	25.7
313.15	60000	1853	26
313.15	70000	1875.9	26.3
313.15	80000	1897.6	26.6
313.15	90000	1919.4	26.9
313.15	95000	1929.7	27.1
323.15	100	1676.1	23.6
323.15	5000	1690.4	23.8
323.15	10000	1704.4	24
323.15	20000	1731.5	24.3
323.15	30000	1757.9	24.7
323.15	40000	1783.6	25.1
323.15	50000	1808.1	25.4
323.15	60000	1832	25.7
323.15	70000	1855	26.1
323.15	80000	1877.2	26.4
323.15	90000	1899.3	26.7
323.15	95000	1909.8	26.8
333.15	100	1652.8	23.2
333.15	5000	1667.1	23.4
333.15	10000	1681.2	23.6
333.15	20000	1709	24
333.15	30000	1735.6	24.4
333.15	40000	1761.6	24.7
333.15	50000	1786.7	25.1
333.15	60000	1811.2	25.4
333.15	70000	1834.4	25.8
333.15	80000	1857	26.1
333.15	90000	1879	26.4
333.15	95000	1889.7	26.5
343.15	100	1631.8	22.9
343.15	5000	1646.3	23.1
343.15	10000	1661	23.3
343.15	20000	1689.6	23.7
343.15	30000	1716.4	24.1
343.15	40000	1742.8	24.5
343.15	50000	1768.7	24.8
343.15	60000	1793.4	25.2
343.15	70000	1817.2	25.5
343.15	80000	1840	25.8
343.15	90000	1863	26.2
343.15	95000	1873.4	26.3

System: 1-butyl-3-methylimidazolium hexafluoroantimonate; phases: Liquid
Property: Refractive index (Na D-line) (Liquid); method: Standard Abbe refractometry
Temperature, K	Pressure, kPa	Refractive index (Na D-line)	uncertainty
298.15	101.325	1.4165	0.0029

System: 1-butyl-3-methylimidazolium hexafluoroantimonate; phases: Liquid
Fixed: Pressure, kPa = 101.325
Property: Mass density, kg/m3 (Liquid); method: Vibrating tube method
Temperature, K	Mass density, kg/m3	uncertainty
283.15	1701.1	3.5
288.15	1695.6	3.5
293.15	1690.2	3.5
298.15	1684.9	3.5
303.15	1679.6	3.5
308.15	1674.3	3.4
313.15	1669	3.4
318.15	1663.8	3.4
323.15	1658.5	3.4
328.15	1653.3	3.4
333.15	1648.1	3.4
338.15	1642.9	3.4
343.15	1637.8	3.4

System: 1-butyl-3-methylimidazolium hexafluoroantimonate; phases: Liquid
Fixed: Frequency, MHz = 1.5
Property: Speed of sound, m/s (Liquid); method: Single path-length method
Temperature, K	Pressure, kPa	Speed of sound, m/s	uncertainty
283.15	100	1315.3	18.4
283.15	5000	1327.3	18.6
283.15	10000	1339.2	18.8
283.15	20000	1362.9	19.1
283.15	30000	1386	19.4
283.15	40000	1408.4	19.7
283.15	50000	1429.8	20
283.15	60000	1450.5	20.3
283.15	70000	1470.2	20.6
283.15	80000	1489.5	20.9
283.15	90000	1508.3	21.1
283.15	95000	1517.7	21.3
293.15	100	1292	18.1
293.15	5000	1304.2	18.3
293.15	10000	1316.1	18.5
293.15	20000	1339.6	18.8
293.15	30000	1362.5	19.1
293.15	40000	1384.9	19.4
293.15	50000	1406.6	19.7
293.15	60000	1427.4	20
293.15	70000	1447.5	20.3
293.15	80000	1466.6	20.6
293.15	90000	1485.4	20.8
293.15	95000	1494.6	21
303.15	100	1269.8	17.8
303.15	5000	1282.2	18
303.15	10000	1294.5	18.2
303.15	20000	1318.2	18.5
303.15	30000	1341.1	18.8
303.15	40000	1363.6	19.1
303.15	50000	1385.6	19.4
303.15	60000	1406.7	19.7
303.15	70000	1427	20
303.15	80000	1446.7	20.3
303.15	90000	1465.6	20.5
303.15	95000	1474.9	20.7
313.15	100	1248	17.5
313.15	5000	1261	17.7
313.15	10000	1273.6	17.9
313.15	20000	1297.7	18.2
313.15	30000	1320.8	18.5
313.15	40000	1343.4	18.8
313.15	50000	1365.5	19.1
313.15	60000	1386.9	19.4
313.15	70000	1407.6	19.7
313.15	80000	1427.5	20
313.15	90000	1446.7	20.3
313.15	95000	1456.1	20.4
323.15	100	1227.2	17.2
323.15	5000	1240.4	17.4
323.15	10000	1253.5	17.6
323.15	20000	1278.4	17.9
323.15	30000	1301.9	18.3
323.15	40000	1324.5	18.6
323.15	50000	1346.7	18.9
323.15	60000	1368.3	19.2
323.15	70000	1389.4	19.5
323.15	80000	1409.8	19.8
323.15	90000	1429.3	20
323.15	95000	1438.7	20.2
333.15	100	1207.3	16.9
333.15	5000	1220.9	17.1
333.15	10000	1234.4	17.3
333.15	20000	1260	17.7
333.15	30000	1284	18
333.15	40000	1306.9	18.3
333.15	50000	1329	18.6
333.15	60000	1350.8	18.9
333.15	70000	1372	19.2
333.15	80000	1392.8	19.5
333.15	90000	1412.6	19.8
333.15	95000	1422.1	19.9
343.15	100	1187.7	16.7
343.15	5000	1201.8	16.9
343.15	10000	1215.5	17.1
343.15	20000	1242	17.4
343.15	30000	1266.9	17.8
343.15	40000	1290.2	18.1
343.15	50000	1312.5	18.4
343.15	60000	1334.7	18.7
343.15	70000	1356.1	19
343.15	80000	1377.1	19.3
343.15	90000	1397.1	19.6
343.15	95000	1406.9	19.7

System: 1-butyl-3-methylimidazolium trifluoromethanesulfonate; phases: Liquid
Property: Refractive index (Na D-line) (Liquid); method: Standard Abbe refractometry
Temperature, K	Pressure, kPa	Refractive index (Na D-line)	uncertainty
298.15	101.325	1.4379	0.0029

System: 1-butyl-3-methylimidazolium trifluoromethanesulfonate; phases: Liquid
Fixed: Pressure, kPa = 101.325
Property: Mass density, kg/m3 (Liquid); method: Vibrating tube method
Temperature, K	Mass density, kg/m3	uncertainty
283.15	1309.8	2.7
288.15	1305.7	2.6
293.15	1301.7	2.6
298.15	1297.7	2.6
303.15	1293.7	2.6
308.15	1289.7	2.6
313.15	1285.7	2.6
318.15	1281.7	2.6
323.15	1277.7	2.6
328.15	1273.8	2.6
333.15	1269.8	2.6
338.15	1265.9	2.6
343.15	1262	2.6

System: 1-butyl-3-methylimidazolium trifluoromethanesulfonate; phases: Liquid
Fixed: Frequency, MHz = 1.5
Property: Speed of sound, m/s (Liquid); method: Single path-length method
Temperature, K	Pressure, kPa	Speed of sound, m/s	uncertainty
283.15	100	1444	20.2
283.15	5000	1459.7	20.5
283.15	10000	1475.3	20.7
283.15	20000	1505.1	21.1
283.15	30000	1533.5	21.5
283.15	40000	1560.6	21.9
283.15	50000	1586.7	22.2
283.15	60000	1611.4	22.6
283.15	70000	1635.2	22.9
283.15	80000	1658.2	23.2
283.15	90000	1680.4	23.6
283.15	95000	1691.4	23.7
293.15	100	1420.9	19.9
293.15	5000	1437.1	20.2
293.15	10000	1453	20.4
293.15	20000	1483.3	20.8
293.15	30000	1512	21.2
293.15	40000	1539.5	21.6
293.15	50000	1565.8	22
293.15	60000	1591	22.3
293.15	70000	1615.2	22.6
293.15	80000	1638.5	23
293.15	90000	1661	23.3
293.15	95000	1672.1	23.4
303.15	100	1400.1	19.6
303.15	5000	1416.6	19.9
303.15	10000	1433	20.1
303.15	20000	1463.9	20.5
303.15	30000	1493.1	20.9
303.15	40000	1521	21.3
303.15	50000	1547.6	21.7
303.15	60000	1573.3	22.1
303.15	70000	1598	22.4
303.15	80000	1621.7	22.7
303.15	90000	1644.5	23
303.15	95000	1655.8	23.2
313.15	100	1380	19.3
313.15	5000	1396.9	19.6
313.15	10000	1413.4	19.8
313.15	20000	1444.7	20.3
313.15	30000	1474.4	20.7
313.15	40000	1502.5	21.1
313.15	50000	1529.7	21.4
313.15	60000	1555.7	21.8
313.15	70000	1580.5	22.2
313.15	80000	1604.7	22.5
313.15	90000	1627.8	22.8
313.15	95000	1639	23
323.15	100	1358.8	19.1
323.15	5000	1375.9	19.3
323.15	10000	1392.7	19.5
323.15	20000	1424.9	20
323.15	30000	1455	20.4
323.15	40000	1483.7	20.8
323.15	50000	1511.1	21.2
323.15	60000	1537.5	21.6
323.15	70000	1562.8	21.9
323.15	80000	1587.1	22.2
323.15	90000	1610.5	22.6
323.15	95000	1622.1	22.7
333.15	100	1337.2	18.7
333.15	5000	1354.7	19
333.15	10000	1371.7	19.2
333.15	20000	1404.6	19.7
333.15	30000	1435.7	20.1
333.15	40000	1464.8	20.5
333.15	50000	1492.9	20.9
333.15	60000	1519.6	21.3
333.15	70000	1545.2	21.7
333.15	80000	1569.7	22
333.15	90000	1593.7	22.3
333.15	95000	1605.1	22.5
343.15	100	1316.4	18.5
343.15	5000	1334.1	18.7
343.15	10000	1351.5	19
343.15	20000	1385.3	19.4
343.15	30000	1417	19.9
343.15	40000	1446.9	20.3
343.15	50000	1475.3	20.7
343.15	60000	1502.1	21.1
343.15	70000	1528.7	21.4
343.15	80000	1553.8	21.8
343.15	90000	1577.8	22.1
343.15	95000	1589.5	22.3

System: 1-butyl-3-methylimidazolium methyl sulfate; phases: Liquid
Property: Refractive index (Na D-line) (Liquid); method: Standard Abbe refractometry
Temperature, K	Pressure, kPa	Refractive index (Na D-line)	uncertainty
298.15	101.325	1.4792	0.003

System: 1-butyl-3-methylimidazolium methyl sulfate; phases: Liquid
Fixed: Pressure, kPa = 101.325
Property: Mass density, kg/m3 (Liquid); method: Vibrating tube method
Temperature, K	Mass density, kg/m3	uncertainty
283.15	1218.1	2.5
288.15	1214.7	2.5
293.15	1211.2	2.5
298.15	1207.8	2.4
303.15	1204.4	2.4
308.15	1201.1	2.4
313.15	1197.8	2.4
318.15	1194.4	2.4
323.15	1191.1	2.4
328.15	1187.8	2.4
333.15	1184.5	2.4
338.15	1181.2	2.4
343.15	1178	2.4

System: 1-butyl-3-methylimidazolium methyl sulfate; phases: Liquid
Fixed: Frequency, MHz = 1.5
Property: Speed of sound, m/s (Liquid); method: Single path-length method
Temperature, K	Pressure, kPa	Speed of sound, m/s	uncertainty
283.15	100	1703.2	23.9
283.15	5000	1717.3	24.1
283.15	10000	1731.5	24.3
283.15	20000	1758.9	24.7
283.15	30000	1785.4	25
283.15	40000	1810.7	25.4
283.15	50000	1835.2	25.7
283.15	60000	1858.7	26
283.15	70000	1881.8	26.4
283.15	80000	1904.1	26.7
283.15	90000	1925.7	27
283.15	95000	1935.9	27.1
293.15	100	1676.6	23.5
293.15	5000	1690.7	23.7
293.15	10000	1704.9	23.9
293.15	20000	1732.1	24.3
293.15	30000	1758.5	24.6
293.15	40000	1784	25
293.15	50000	1808.7	25.3
293.15	60000	1832.5	25.7
293.15	70000	1855.4	26
293.15	80000	1877.8	26.3
293.15	90000	1899.2	26.6
293.15	95000	1909.4	26.8
303.15	100	1651.6	23.1
303.15	5000	1666.1	23.4
303.15	10000	1680.5	23.6
303.15	20000	1708.3	23.9
303.15	30000	1735.1	24.3
303.15	40000	1760.9	24.7
303.15	50000	1785.9	25
303.15	60000	1810.1	25.4
303.15	70000	1833.5	25.7
303.15	80000	1856.2	26
303.15	90000	1878	26.3
303.15	95000	1888.6	26.5
313.15	100	1626.8	22.8
313.15	5000	1641.4	23
313.15	10000	1656	23.2
313.15	20000	1684.3	23.6
313.15	30000	1711.6	24
313.15	40000	1737.7	24.4
313.15	50000	1763.1	24.7
313.15	60000	1787.7	25.1
313.15	70000	1811.5	25.4
313.15	80000	1834.3	25.7
313.15	90000	1856.8	26
313.15	95000	1867.6	26.2
323.15	100	1603.3	22.5
323.15	5000	1618.2	22.7
323.15	10000	1633	22.9
323.15	20000	1661.7	23.3
323.15	30000	1689.4	23.7
323.15	40000	1716	24.1
323.15	50000	1741.6	24.4
323.15	60000	1766.7	24.8
323.15	70000	1790.7	25.1
323.15	80000	1814.1	25.4
323.15	90000	1836.5	25.7
323.15	95000	1847.5	25.9
333.15	100	1579.8	22.1
333.15	5000	1595.1	22.4
333.15	10000	1610.2	22.6
333.15	20000	1639.4	23
333.15	30000	1667.5	23.4
333.15	40000	1694.5	23.8
333.15	50000	1720.4	24.1
333.15	60000	1745.5	24.5
333.15	70000	1770.2	24.8
333.15	80000	1793.8	25.1
333.15	90000	1816.7	25.5
333.15	95000	1827.6	25.6
343.15	100	1558.1	21.8
343.15	5000	1573.6	22.1
343.15	10000	1589.2	22.3
343.15	20000	1619	22.7
343.15	30000	1647.5	23.1
343.15	40000	1675.1	23.5
343.15	50000	1701.6	23.8
343.15	60000	1727.1	24.2
343.15	70000	1751.9	24.6
343.15	80000	1776.1	24.9
343.15	90000	1799.3	25.2
343.15	95000	1810.7	25.4
