Measured thermophysical data. Enthalpies of combustion and formation of a-D-glucoheptono-1,4-lactone and a,b-glucooctanoic-1,4-lactone
Source: J. Chem. Thermodyn., 2008, 10.1016/j.jct.2007.12.007
Compound 1: carbon dioxide, CO2, InChI=1S/CO2/c2-1-3
Compound 2: water, H2O, InChI=1S/H2O/h1H2
Compound 3: oxygen, O2, InChI=1S/O2/c1-2
Compound 4: alpha, beta-Glucooctanoic gamma-lactone, C8H14O8, InChI=1S/C8H14O8/c9-1-2(10)3(11)4(12)7-5(13)6(14)8(15)16-7/h2-7,9-14H,1H2/t2-,3-,4+,5+,6-,7-/m1/s1
Compound 5: D-glycero-D-gulo-Heptonic acid, gamma-lactone, C7H12O7, InChI=1S/C7H12O7/c8-1-2(9)3(10)6-4(11)5(12)7(13)14-6/h2-6,8-12H,1H2/t2-,3-,4+,5-,6+/m1/s1

System: alpha, beta-Glucooctanoic gamma-lactone; phases: Crystal
Property: Molar heat capacity at constant pressure, J/K/mol (Crystal); method: Small sample (50 mg) DSC
Temperature, K	Pressure, kPa	Molar heat capacity at constant pressure, J/K/mol	uncertainty
298.15	101.325	245.3377188	4.7638392

System: alpha, beta-Glucooctanoic gamma-lactone; phases: Crystal
Property: Mass density, kg/m3 (Crystal); method: Pycnometric method
Temperature, K	Pressure, kPa	Mass density, kg/m3	uncertainty
298.15	101.325	1587	32

System: D-glycero-D-gulo-Heptonic acid, gamma-lactone; phases: Crystal
Property: Molar heat capacity at constant pressure, J/K/mol (Crystal); method: Small sample (50 mg) DSC
Temperature, K	Pressure, kPa	Molar heat capacity at constant pressure, J/K/mol	uncertainty
298.15	101.325	212.3292996	4.1633196

Reaction: -1 alpha, beta-Glucooctanoic gamma-lactone + 8 carbon dioxide + 7 water + -7.5 oxygen
Property: Specific internal energy of reaction at constant volume, J/g
-14524

Reaction: -1 D-glycero-D-gulo-Heptonic acid, gamma-lactone + 7 carbon dioxide + 6 water + -6.5 oxygen
Property: Specific internal energy of reaction at constant volume, J/g
-14049.6
