Measured thermophysical data. Density, viscosity, and excess properties of aqueous solution of diethylenetriamine (DETA)
Source: J. Chem. Thermodyn., 2009, 10.1016/j.jct.2008.11.012
Compound 1: di(2-aminoethyl)amine, C4H13N3, InChI=1S/C4H13N3/c5-1-3-7-4-2-6/h7H,1-6H2, purity 99%
Compound 2: water, H2O, InChI=1S/H2O/h1H2, purity 99%

System: di(2-aminoethyl)amine; phases: Liquid
Fixed: Pressure, kPa = 101
Property: Mass density, kg/m3 (Liquid); method: Vibrating tube method
Temperature, K	Mass density, kg/m3	uncertainty
293.15	951	1
303.15	942.3	1
313.15	933.8	1
323.15	925.5	1
333.15	917	1
343.15	908.9	1
353.15	900.4	1
363.15	891.9	1

System: di(2-aminoethyl)amine; phases: Liquid
Fixed: Pressure, kPa = 101
Property: Viscosity, Pa*s (Liquid); method: Concentric cylinders viscometry
Temperature, K	Viscosity, Pa*s	uncertainty
293.15	0.0070385	0.0002848
303.15	0.0048044	0.0001946
313.15	0.0034001	0.0001378
323.15	0.002695	0.0001092
333.15	0.0021094	8.56e-05
343.15	0.0017034	6.92e-05
353.15	0.0014091	5.73e-05
363.15	0.0011899	4.85e-05

System: water; phases: Liquid
Fixed: Pressure, kPa = 101
Property: Mass density, kg/m3 (Liquid); method: Vibrating tube method
Temperature, K	Mass density, kg/m3	uncertainty
293.15	999.2	1
303.15	996.5	1
313.15	993	1
323.15	988.7	1
333.15	983.7	1
343.15	978.3	1
353.15	972.3	1
363.15	965.9	1

System: water; phases: Liquid
Fixed: Pressure, kPa = 101
Property: Viscosity, Pa*s (Liquid); method: Concentric cylinders viscometry
Temperature, K	Viscosity, Pa*s	uncertainty
293.15	0.001006	4.11e-05
303.15	0.0007988	3.27e-05
313.15	0.0006546	2.69e-05
323.15	0.0005427	2.25e-05
333.15	0.0004596	1.91e-05
343.15	0.0004271	1.79e-05
353.15	0.0003731	1.57e-05
363.15	0.0002983	1.28e-05

System: di(2-aminoethyl)amine + water; phases: Liquid
Fixed: Pressure, kPa = 101
Property: Mass density, kg/m3 (Liquid); method: Vibrating tube method
Temperature, K	Mole fraction of di(2-aminoethyl)amine	Mass density, kg/m3	uncertainty
293.15	0	999.2	1
293.15	0.0095	1001.5	1
293.15	0.0299	1004.2	1
293.15	0.0565	1011.5	1
293.15	0.0696	1014.5	1
293.15	0.1043	1023.8	1
293.15	0.125	1026.5	1
293.15	0.1591	1030.7	1
293.15	0.2076	1029.4	1
293.15	0.2449	1027.5	1
293.15	0.3099	1019.1	1
293.15	0.3438	1014.1	1
293.15	0.4112	1004.1	1
293.15	0.4974	992.8	1
293.15	0.6111	979	1
293.15	0.6988	971.8	1
293.15	0.8073	963.4	1
293.15	0.8954	957.5	1
293.15	1	951	1
303.15	0	996.5	1
303.15	0.0095	998.6	1
303.15	0.0299	1000.7	1
303.15	0.0565	1007.1	1
303.15	0.0696	1009.6	1
303.15	0.1043	1017.1	1
303.15	0.125	1019.8	1
303.15	0.1591	1023	1
303.15	0.2076	1021.4	1
303.15	0.2449	1018.6	1
303.15	0.3099	1010.2	1
303.15	0.3438	1005.7	1
303.15	0.4112	995	1
303.15	0.4974	983.7	1
303.15	0.6111	970.6	1
303.15	0.6988	962.7	1
303.15	0.8073	954.3	1
303.15	0.8954	948.4	1
303.15	1	942.3	1
313.15	0	993	1
313.15	0.0095	994.9	1
313.15	0.0299	996.7	1
313.15	0.0565	1002.2	1
313.15	0.0696	1004.3	1
313.15	0.1043	1010.7	1
313.15	0.125	1012.9	1
313.15	0.1591	1015.4	1
313.15	0.2076	1013.2	1
313.15	0.2449	1009.9	1
313.15	0.3099	1001.5	1
313.15	0.3438	997.1	1
313.15	0.4112	986.4	1
313.15	0.4974	975.1	1
313.15	0.6111	962.1	1
313.15	0.6988	954.2	1
313.15	0.8073	947.3	1
313.15	0.8954	939.8	1
313.15	1	933.8	1
323.15	0	988.7	1
323.15	0.0095	990.5	1
323.15	0.0299	991.7	1
323.15	0.0565	996.8	1
323.15	0.0696	998.6	1
323.15	0.1043	1004.2	1
323.15	0.125	1005.7	1
323.15	0.1591	1007.9	1
323.15	0.2076	1004.8	1
323.15	0.2449	1001.9	1
323.15	0.3099	993.1	1
323.15	0.3438	988.4	1
323.15	0.4112	978	1
323.15	0.4974	966.8	1
323.15	0.6111	953.7	1
323.15	0.6988	945.9	1
323.15	0.8073	939.1	1
323.15	0.8954	931.5	1
323.15	1	925.5	1
333.15	0	983.7	1
333.15	0.0095	985.5	1
333.15	0.0299	986.5	1
333.15	0.0565	991	1
333.15	0.0696	992.4	1
333.15	0.1043	997.2	1
333.15	0.125	998.2	1
333.15	0.1591	999.9	1
333.15	0.2076	996.3	1
333.15	0.2449	993.1	1
333.15	0.3099	984.1	1
333.15	0.3438	979.6	1
333.15	0.4112	969.2	1
333.15	0.4974	956.8	1
333.15	0.6111	945.1	1
333.15	0.6988	937.3	1
333.15	0.8073	929.1	1
333.15	0.8954	922.9	1
333.15	1	917	1
343.15	0	978.3	1
343.15	0.0095	980	1
343.15	0.0299	980.8	1
343.15	0.0565	984.7	1
343.15	0.0696	985.8	1
343.15	0.1043	990.1	1
343.15	0.125	990.5	1
343.15	0.1591	992.3	1
343.15	0.2076	987.6	1
343.15	0.2449	984.2	1
343.15	0.3099	975.4	1
343.15	0.3438	970.7	1
343.15	0.4112	960.5	1
343.15	0.4974	949.5	1
343.15	0.6111	936.5	1
343.15	0.6988	929.1	1
343.15	0.8073	920.7	1
343.15	0.8954	914.6	1
343.15	1	908.9	1
353.15	0	972.3	1
353.15	0.0095	973.8	1
353.15	0.0299	974.6	1
353.15	0.0565	978.1	1
353.15	0.0696	978.9	1
353.15	0.1043	982.6	1
353.15	0.125	982.3	1
353.15	0.1591	982.9	1
353.15	0.2076	978.5	1
353.15	0.2449	975.1	1
353.15	0.3099	966.3	1
353.15	0.3438	961.7	1
353.15	0.4112	951.7	1
353.15	0.4974	940.8	1
353.15	0.6111	927.8	1
353.15	0.6988	920.4	1
353.15	0.8073	912.2	1
353.15	0.8954	906.1	1
353.15	1	900.4	1
363.15	0	965.9	1
363.15	0.0095	967.3	1
363.15	0.0299	967.7	1
363.15	0.0565	970.9	1
363.15	0.0696	971.7	1
363.15	0.1043	974.7	1
363.15	0.125	974.2	1
363.15	0.1591	974.2	1
363.15	0.2076	969.5	1
363.15	0.2449	966.1	1
363.15	0.3099	957	1
363.15	0.3438	952.6	1
363.15	0.4112	942.7	1
363.15	0.4974	931.9	1
363.15	0.6111	919.1	1
363.15	0.6988	911.8	1
363.15	0.8073	903.6	1
363.15	0.8954	897.5	1
363.15	1	891.9	1

System: di(2-aminoethyl)amine + water; phases: Liquid
Fixed: Pressure, kPa = 101
Property: Viscosity, Pa*s (Liquid); method: Concentric cylinders viscometry
Temperature, K	Mole fraction of di(2-aminoethyl)amine	Viscosity, Pa*s	uncertainty
293.15	0	0.001006	4.11e-05
293.15	0.0095	0.0013104	5.33e-05
293.15	0.0299	0.0020762	8.43e-05
293.15	0.0565	0.0040094	0.0001625
293.15	0.0696	0.005418	0.0002197
293.15	0.1043	0.011632	0.0004714
293.15	0.125	0.017944	0.0007275
293.15	0.1591	0.031068	0.0012586
293.15	0.2076	0.05068	0.0020462
293.15	0.2449	0.059622	0.0024094
293.15	0.3099	0.059416	0.0024013
293.15	0.3438	0.055521	0.0022425
293.15	0.4112	0.043081	0.0017446
293.15	0.4974	0.030131	0.0012208
293.15	0.6111	0.019458	0.000788
293.15	0.6988	0.015122	0.000612
293.15	0.8073	0.010611	0.0004294
293.15	0.8954	0.0085152	0.0003446
293.15	1	0.0070385	0.0002848
303.15	0	0.0007988	3.27e-05
303.15	0.0095	0.0010168	4.15e-05
303.15	0.0299	0.001557	6.33e-05
303.15	0.0565	0.0028413	0.0001152
303.15	0.0696	0.0037357	0.0001515
303.15	0.1043	0.0073294	0.000297
303.15	0.125	0.010567	0.0004284
303.15	0.1591	0.01694	0.0006867
303.15	0.2076	0.025627	0.0010389
303.15	0.2449	0.029469	0.0011943
303.15	0.3099	0.029549	0.0011974
303.15	0.3438	0.027966	0.0011336
303.15	0.4112	0.022696	0.0009199
303.15	0.4974	0.016769	0.0006797
303.15	0.6111	0.011538	0.0004674
303.15	0.6988	0.009116	0.0003692
303.15	0.8073	0.0068988	0.0002793
303.15	0.8954	0.0057131	0.0002313
303.15	1	0.0048044	0.0001946
313.15	0	0.0006546	2.69e-05
313.15	0.0095	0.0008263	3.38e-05
313.15	0.0299	0.0012225	4.98e-05
313.15	0.0565	0.002101	8.53e-05
313.15	0.0696	0.0026839	0.0001089
313.15	0.1043	0.0048767	0.0001976
313.15	0.125	0.0066899	0.0002711
313.15	0.1591	0.010127	0.0004103
313.15	0.2076	0.014343	0.0005811
313.15	0.2449	0.016203	0.0006562
313.15	0.3099	0.016324	0.0006611
313.15	0.3438	0.015607	0.0006322
313.15	0.4112	0.01299	0.0005262
313.15	0.4974	0.010168	0.0004119
313.15	0.6111	0.0073749	0.0002987
313.15	0.6988	0.0059439	0.0002407
313.15	0.8073	0.0047407	0.000192
313.15	0.8954	0.0040169	0.0001627
313.15	1	0.0034001	0.0001378
323.15	0	0.0005427	2.25e-05
323.15	0.0095	0.0006854	2.82e-05
323.15	0.0299	0.0009871	4.03e-05
323.15	0.0565	0.0016153	6.57e-05
323.15	0.0696	0.0020119	8.17e-05
323.15	0.1043	0.0034233	0.0001388
323.15	0.125	0.004514	0.000183
323.15	0.1591	0.0065052	0.0002635
323.15	0.2076	0.0087333	0.0003537
323.15	0.2449	0.0097285	0.0003939
323.15	0.3099	0.0098362	0.0003982
323.15	0.3438	0.0094918	0.0003844
323.15	0.4112	0.0081403	0.0003297
323.15	0.4974	0.0066222	0.0002682
323.15	0.6111	0.0050319	0.0002038
323.15	0.6988	0.0041749	0.0001691
323.15	0.8073	0.0034449	0.0001396
323.15	0.8954	0.0029763	0.0001206
323.15	1	0.002695	0.0001092
333.15	0	0.0004596	1.91e-05
333.15	0.0095	0.0005792	2.39e-05
333.15	0.0299	0.0008166	3.34e-05
333.15	0.0565	0.0012826	5.22e-05
333.15	0.0696	0.0015616	6.35e-05
333.15	0.1043	0.0025254	0.0001025
333.15	0.125	0.0032064	0.00013
333.15	0.1591	0.0044301	0.0001795
333.15	0.2076	0.0056979	0.0002308
333.15	0.2449	0.0062713	0.0002539
333.15	0.3099	0.0063664	0.0002578
333.15	0.3438	0.0061905	0.0002507
333.15	0.4112	0.0054402	0.0002203
333.15	0.4974	0.0045721	0.0001852
333.15	0.6111	0.0036196	0.0001467
333.15	0.6988	0.0030827	0.0001249
333.15	0.8073	0.002618	0.0001061
333.15	0.8954	0.0023008	9.33e-05
333.15	1	0.0021094	8.56e-05
343.15	0	0.0004271	1.79e-05
343.15	0.0095	0.0004978	2.07e-05
343.15	0.0299	0.0006873	2.82e-05
343.15	0.0565	0.0010437	4.26e-05
343.15	0.0696	0.0012444	5.07e-05
343.15	0.1043	0.0019187	7.79e-05
343.15	0.125	0.0023764	9.64e-05
343.15	0.1591	0.0031741	0.0001287
343.15	0.2076	0.0039377	0.0001595
343.15	0.2449	0.0042929	0.0001739
343.15	0.3099	0.004372	0.0001771
343.15	0.3438	0.004277	0.0001732
343.15	0.4112	0.0038458	0.0001558
343.15	0.4974	0.0033078	0.0001341
343.15	0.6111	0.0027206	0.0001103
343.15	0.6988	0.002366	9.6e-05
343.15	0.8073	0.0020671	8.39e-05
343.15	0.8954	0.0018329	7.44e-05
343.15	1	0.0017034	6.92e-05
353.15	0	0.0003731	1.57e-05
353.15	0.0095	0.0004312	1.8e-05
353.15	0.0299	0.0005864	2.42e-05
353.15	0.0565	0.0008677	3.55e-05
353.15	0.0696	0.0010167	4.15e-05
353.15	0.1043	0.0015072	6.13e-05
353.15	0.125	0.0018235	7.41e-05
353.15	0.1591	0.0023732	9.63e-05
353.15	0.2076	0.002852	0.0001156
353.15	0.2449	0.0030855	0.000125
353.15	0.3099	0.0031506	0.0001277
353.15	0.3438	0.0030999	0.0001256
353.15	0.4112	0.0028413	0.0001152
353.15	0.4974	0.002502	0.0001015
353.15	0.6111	0.0021181	8.59e-05
353.15	0.6988	0.0018762	7.62e-05
353.15	0.8073	0.001677	6.81e-05
353.15	0.8954	0.001504	6.11e-05
353.15	1	0.0014091	5.73e-05
363.15	0	0.0002983	1.28e-05
363.15	0.0095	0.0003693	1.56e-05
363.15	0.0299	0.0004995	2.07e-05
363.15	0.0565	0.0007364	3.02e-05
363.15	0.0696	0.0008452	3.46e-05
363.15	0.1043	0.0012129	4.94e-05
363.15	0.125	0.0014388	5.85e-05
363.15	0.1591	0.0018396	7.47e-05
363.15	0.2076	0.0021485	8.72e-05
363.15	0.2449	0.0023105	9.37e-05
363.15	0.3099	0.0023646	9.59e-05
363.15	0.3438	0.002337	9.48e-05
363.15	0.4112	0.0021759	8.83e-05
363.15	0.4974	0.0019554	7.94e-05
363.15	0.6111	0.001696	6.89e-05
363.15	0.6988	0.0015256	6.2e-05
363.15	0.8073	0.0013871	5.64e-05
363.15	0.8954	0.0012604	5.13e-05
363.15	1	0.0011899	4.85e-05
