Measured thermophysical data. Low temperature heat capacity of Na4UO5 and Na4NpO5
Source: J. Chem. Thermodyn., 2015, 10.1016/j.jct.2015.08.003
Compound 1: sodium uranate(VI) [Na4UO5], Na4O5U, InChI=1S/4Na.5O.U/q4*+1;;4*-1;, purity 98.4%
Compound 2: sodium neptunate(VI) [Na4NpO5], Na4NpO5, InChI=1S/4Na.Np.5O/q4*+1;;;4*-1, purity 99.5%

System: sodium uranate(VI) [Na4UO5]; phases: Crystal
Property: Mass density, kg/m3 (Crystal); method: X-ray diffraction
Temperature, K	Pressure, kPa	Mass density, kg/m3	uncertainty
300	101.325	5152	36

System: sodium uranate(VI) [Na4UO5]; phases: Crystal
Fixed: Pressure, kPa = 101.325
Property: Molar heat capacity at constant pressure, J/K/mol (Crystal); method: RELAXCAL
Temperature, K	Molar heat capacity at constant pressure, J/K/mol	uncertainty
1.92	0.00593	0.00053
1.95	0.00639	0.00055
1.99	0.0066	0.00056
2.03	0.00709	0.00059
2.07	0.00747	0.00065
2.11	0.00821	0.00069
2.16	0.00865	0.00072
2.2	0.00919	0.00075
2.25	0.00977	0.00078
2.29	0.0102	0.0008
2.34	0.0113	0.0009
2.38	0.0117	0.0009
2.43	0.0128	0.001
2.48	0.0134	0.001
2.53	0.0143	0.0011
2.58	0.0154	0.0012
2.63	0.0161	0.0012
2.69	0.0175	0.0013
2.74	0.0186	0.0014
2.8	0.0203	0.0015
2.85	0.0206	0.0015
2.91	0.0212	0.0016
2.97	0.0247	0.0018
3.03	0.026	0.0019
3.09	0.027	0.002
3.16	0.0293	0.0021
3.22	0.0313	0.0023
3.28	0.0325	0.0024
3.35	0.0335	0.0024
3.42	0.0372	0.0027
3.49	0.0399	0.0029
3.56	0.0424	0.003
3.63	0.0451	0.0032
3.71	0.0473	0.0034
3.78	0.0522	0.0037
3.86	0.0536	0.0038
3.94	0.0578	0.0041
4.03	0.0613	0.0044
4.1	0.0667	0.0048
4.19	0.0694	0.0049
4.28	0.0745	0.0053
4.36	0.0811	0.0058
4.45	0.0844	0.006
4.54	0.09	0.0064
4.64	0.0959	0.0068
4.73	0.103	0.007
4.83	0.109	0.008
4.93	0.115	0.008
5.03	0.123	0.009
5.13	0.131	0.009
5.24	0.14	0.01
5.34	0.146	0.01
5.45	0.158	0.011
5.56	0.166	0.012
5.68	0.176	0.012
5.79	0.186	0.013
5.91	0.196	0.014
6.03	0.21	0.015
6.16	0.222	0.016
6.28	0.234	0.016
6.41	0.249	0.017
6.54	0.264	0.019
6.68	0.279	0.02
6.81	0.295	0.021
6.96	0.315	0.022
7.12	0.333	0.023
7.27	0.355	0.025
7.41	0.375	0.026
7.57	0.395	0.028
7.72	0.42	0.029
7.88	0.447	0.031
8.04	0.465	0.033
8.2	0.492	0.034
8.37	0.524	0.037
8.54	0.551	0.039
8.71	0.588	0.041
8.89	0.615	0.043
9.07	0.651	0.046
9.26	0.691	0.048
9.45	0.728	0.051
9.64	0.771	0.054
9.84	0.816	0.057
10.04	0.864	0.035
10.25	0.908	0.037
10.46	0.962	0.039
10.67	1.0161	0.0416
10.89	1.0725	0.0439
11.11	1.1392	0.0466
11.34	1.1998	0.0491
11.57	1.2632	0.0517
11.81	1.3339	0.0545
12.05	1.4125	0.0577
12.3	1.4924	0.061
12.55	1.5738	0.0643
12.81	1.6681	0.0681
13.06	1.7629	0.072
13.33	1.8701	0.0764
13.6	1.9728	0.0805
13.88	2.0882	0.0852
14.16	2.1993	0.0897
14.45	2.3245	0.0948
14.74	2.4536	0.1001
15.04	2.5813	0.1053
15.35	2.7223	0.111
15.66	2.8701	0.117
15.98	3.0319	0.1236
16.32	3.2008	0.1304
16.63	3.366	0.1372
17	3.5489	0.1446
17.34	3.754	0.1529
17.7	3.9711	0.1617
18.06	4.1908	0.1707
18.42	4.4038	0.1793
18.8	4.6251	0.1883
19.17	4.85	0.1974
19.57	5.0977	0.2075
19.98	5.407	0.2201
20.37	5.6465	0.2311
20.8	5.9563	0.2435
21.21	6.2423	0.2552
21.65	6.5652	0.2683
22.09	6.8973	0.2818
22.54	7.2516	0.2961
23	7.6106	0.3106
23.49	7.93	0.3237
23.95	8.3169	0.3394
24.47	8.7734	0.358
24.93	9.1949	0.375
25.47	9.606	0.3917
25.99	10.053	0.41
26.5	10.509	0.428
27.05	10.997	0.448
27.6	11.494	0.468
28.16	12.018	0.49
28.74	12.564	0.512
29.33	13.129	0.535
29.92	13.703	0.558
30.53	14.287	0.582
31.16	14.896	0.606
31.79	15.543	0.633
32.44	16.18	0.658
33.1	16.863	0.686
33.78	17.567	0.715
34.49	18.263	0.743
35.2	19.006	0.773
35.91	19.759	0.804
36.64	20.564	0.836
37.4	21.409	0.871
38.16	22.257	0.905
38.93	23.126	0.941
39.95	24.347	0.99
41.62	26.309	1.07
43.29	28.298	1.15
44.96	30.351	1.234
46.63	32.399	1.317
48.3	34.486	1.402
49.96	36.58	1.487
51.64	38.704	1.573
53.3	40.82	1.659
54.98	43.053	1.75
56.64	45.303	1.841
58.32	47.545	1.932
59.99	49.956	2.03
61.67	52.216	2.122
63.33	54.606	2.219
64.99	56.902	2.312
66.67	58.963	2.396
68.34	61.38	2.494
70	63.597	3.396
71.67	65.956	3.522
73.35	68.269	3.645
75.01	70.592	3.769
76.69	72.935	3.894
78.36	75.296	4.02
80.04	77.375	4.131
81.71	79.782	4.26
83.38	82.033	4.38
85.04	84.258	4.498
86.72	86.463	4.616
88.39	88.563	4.728
90.05	90.767	4.846
91.72	92.988	4.964
93.38	95.047	5.074
95.06	97.096	5.184
96.73	99.204	5.296
98.39	101.4	5.41
100.07	103.46	6.34
101.74	105.45	6.46
103.4	107.42	6.58
105.08	109.35	6.7
106.75	111.42	6.82
108.4	113.42	6.95
110.08	115.46	7.07
111.76	117.47	7.19
113.43	119.3	7.31
115.11	121.22	7.42
116.77	123.02	7.53
118.45	124.84	7.65
120.11	126.59	7.75
121.79	128.34	7.86
123.45	130.03	7.96
125.13	131.61	8.06
126.79	133.5	8.18
128.48	135.13	8.28
130.15	136.65	8.37
131.82	138.32	8.47
133.49	140.08	8.58
135.16	141.63	8.67
136.83	143.06	8.76
138.5	144.61	8.86
140.18	146.03	8.94
141.84	147.42	9.03
143.51	149.03	9.13
145.18	150.44	9.21
146.86	151.79	9.3
148.52	153.11	9.38
150.2	154.41	10.75
151.87	155.67	10.84
153.54	157.06	10.94
155.21	158.47	11.04
156.89	159.73	11.12
158.57	161.07	11.22
160.24	162.31	11.3
161.9	163.7	11.4
163.57	164.92	11.49
165.25	165.91	11.55
166.92	167.14	11.64
168.59	168.3	11.72
170.26	169.22	11.79
171.93	170.63	11.88
173.6	171.73	11.96
175.27	172.85	12.04
176.94	173.92	12.11
178.61	175	12.19
180.28	175.82	12.24
181.95	177.05	12.33
183.61	178.04	12.4
185.28	179	12.47
186.95	179.87	12.53
188.62	180.89	12.6
190.3	181.94	12.67
191.96	183.02	12.75
193.63	184.02	12.82
195.32	184.77	12.87
196.97	185.87	12.94
198.64	186.91	13.02
200.31	187.85	13.08
201.98	188.42	13.12
203.65	189.55	13.2
205.31	190.19	13.25
206.98	191.15	13.31
208.64	191.78	13.36
210.32	192.62	13.41
211.99	193.38	13.47
213.66	194.27	13.53
215.32	195.25	13.6
216.99	195.84	13.64
218.66	196.75	13.7
220.32	197.67	13.77
221.98	198.23	13.81
223.65	198.97	13.86
225.31	199.42	13.89
226.98	200.17	13.94
228.64	200.83	13.99
230.3	201.33	14.02
231.97	201.9	14.06
233.64	202.39	14.09
235.32	203.19	14.15
236.98	203.97	14.2
238.65	204.81	14.26
240.31	205.37	14.3
241.98	205.95	14.34
243.65	206.36	14.37
245.31	206.87	14.41
246.97	207.46	14.45
248.64	208.04	14.49
250.3	208.66	14.53
251.97	209.12	14.56
253.63	209.84	14.61
255.29	209.94	14.62
256.95	210.17	14.64
258.61	210.66	14.67
260.28	211.34	14.72
261.94	211.66	14.74
263.6	212.09	14.77
265.27	212.68	14.81
266.94	212.89	14.83
268.6	213.3	14.85
270.26	213.48	14.87
271.93	214.09	14.91
273.59	214.46	14.94
275.25	214.75	14.96
276.92	214.85	14.96
278.58	215.27	14.99
280.24	215.47	15.01
281.9	215.98	15.04
283.56	216.8	15.1
285.22	217.1	15.12
286.87	217.15	15.12
288.66	218.27	15.2

System: sodium uranate(VI) [Na4UO5]; phases: Crystal
Fixed: Pressure, kPa = 101.325
Property: Molar heat capacity at constant pressure, J/K/mol (Crystal); method: RELAXCAL
Temperature, K	Molar heat capacity at constant pressure, J/K/mol	uncertainty
1	0.000988	0.00015447
2	0.00786	0.0006155
3	0.02632	0.001954
4	0.06165	0.004496
5	0.11867	0.00858
6	0.20154	0.01452
7	0.31382	0.02254
8	0.45842	0.03288
9	0.6378	0.04569
10	0.85403	0.06114
11	1.1091	0.0465
12	1.4048	0.0588
13	1.7433	0.073
14	2.1269	0.0889
15	2.5577	0.1069
16	3.0374	0.1269
17	3.5665	0.1489
18	4.1424	0.1729
19	4.758	0.1985
20	5.398	0.2251
25	9.2442	0.3853
30	13.806	0.575
35	18.832	0.784
40	24.311	1.013
45	30.237	1.259
50	36.554	1.522
55	43.165	1.798
60	49.967	2.081
65	56.865	2.368
70	63.783	2.656
75	70.662	3.879
80	77.46	4.253
85	84.144	4.62
90	90.688	4.979
95	97.076	5.33
100	103.29	5.67
110	115.16	7.24
120	126.23	7.94
130	136.48	8.58
140	145.91	9.17
150	154.55	9.72
160	162.44	11.59
170	169.62	12.11
180	176.14	12.57
190	182.08	13
200	187.46	13.38
210	192.36	13.73
220	196.82	14.05
230	200.87	14.34
240	204.57	14.6
250	207.95	14.84
260	211.03	15.06
270	213.86	15.26
273.15	214.7	15.32
280	216.45	15.45
290	218.83	15.62
298.15	220.63	15.75
300	221.02	15.77

System: sodium uranate(VI) [Na4UO5]; phases: Crystal
Fixed: Pressure, kPa = 101.325
Property: Molar entropy, J/K/mol (Crystal); method: relaxation calorimeter
Temperature, K	Molar entropy, J/K/mol	uncertainty
1	0.0003312	6.063e-05
2	0.00279	0.0003114
3	0.00914	0.0009958
4	0.02124	0.002296
5	0.04081	0.004396
6	0.06947	0.007468
7	0.10868	0.01167
8	0.15975	0.01714
9	0.22383	0.02401
10	0.30197	0.03237
11	0.39508	0.04234
12	0.50402	0.05401
13	0.62961	0.06746
14	0.77262	0.08277
15	0.93383	0.10003
16	1.114	0.1193
17	1.3138	0.1407
18	1.5338	0.1643
19	1.7741	0.19
20	2.0342	0.2178
25	3.6289	0.3886
30	5.7097	0.6113
35	8.2093	0.8789
40	11.076	1.186
45	14.278	1.529
50	17.787	1.904
55	21.579	2.31
60	25.626	2.744
65	29.897	3.201
70	34.364	3.679
75	39	4.175
80	43.778	4.687
85	48.675	5.211
90	53.67	5.746
95	58.745	6.289
100	63.883	6.839
110	74.291	7.954
120	84.791	9.078
130	95.305	10.203
140	105.77	11.32
150	116.14	12.43
160	126.37	13.53
170	136.43	14.61
180	146.32	15.66
190	156	16.7
200	165.48	17.72
210	174.75	18.71
220	183.8	19.68
230	192.64	20.62
240	201.27	21.55
250	209.69	22.45
260	217.9	23.33
270	225.92	24.19
273.15	228.41	24.45
280	233.75	25.02
290	241.39	25.84
298.15	247.48	26.49
300	248.84	26.64

System: sodium uranate(VI) [Na4UO5]; phases: Crystal
Fixed: Pressure, kPa = 101.325
Property: Molar enthalpy, kJ/mol (Crystal); method: relaxation calorimeter
Temperature, K	Molar enthalpy, kJ/mol	uncertainty
1	2.4961e-07	9.029e-08
2	4.6753e-06	3.97e-07
3	2.1765e-05	1.669e-06
4	6.5749e-05	4.881e-06
5	0.00015591	1.141e-05
6	0.00031602	2.294e-05
7	0.0005737	4.145e-05
8	0.00095982	6.914e-05
9	0.00151	0.0001085
10	0.00225	0.0001615
11	0.00324	0.0002323
12	0.00449	0.0003217
13	0.00607	0.0004346
14	0.008	0.0005726
15	0.01034	0.00074
16	0.01314	0.00094
17	0.01644	0.001176
18	0.0203	0.001451
19	0.02475	0.001769
20	0.02983	0.002131
25	0.06594	0.00471
30	0.12336	0.00881
35	0.20477	0.01462
40	0.31245	0.02231
45	0.44865	0.03203
50	0.61548	0.04393
55	0.81468	0.05815
60	1.0475	0.0748
65	1.3145	0.0938
70	1.6161	0.1154
75	1.9523	0.1393
80	2.3226	0.1658
85	2.7267	0.1946
90	3.1638	0.2258
95	3.6333	0.2593
100	4.1343	0.2951
110	5.2272	0.3731
120	6.4348	0.4593
130	7.749	0.5531
140	9.1617	0.6539
150	10.665	0.761
160	12.25	0.874
170	13.911	0.993
180	15.64	1.116
190	17.432	1.244
200	19.28	1.376
210	21.18	1.512
220	23.126	1.651
230	25.115	1.793
240	27.142	1.937
250	29.205	2.084
260	31.3	2.234
270	33.425	2.386
273.15	34.1	2.434
280	35.576	2.539
290	37.753	2.695
298.15	39.544	2.822
300	39.952	2.851

System: sodium neptunate(VI) [Na4NpO5]; phases: Crystal
Property: Mass density, kg/m3 (Crystal); method: X-ray diffraction
Temperature, K	Pressure, kPa	Mass density, kg/m3	uncertainty
300	101.325	5199	31

System: sodium neptunate(VI) [Na4NpO5]; phases: Crystal
Fixed: Pressure, kPa = 101.325
Property: Molar heat capacity at constant pressure, J/K/mol (Crystal); method: RELAXCAL
Temperature, K	Molar heat capacity at constant pressure, J/K/mol	uncertainty
2.45	0.7049	0.04956
2.5	0.71848	0.05052
2.55	0.73698	0.05179
2.61	0.75366	0.05297
2.67	0.77466	0.05442
2.73	0.79286	0.05571
2.8	0.81229	0.05704
2.87	0.83549	0.05864
2.94	0.86034	0.06037
3.01	0.88756	0.06226
3.09	0.91791	0.06436
3.17	0.94721	0.0664
3.26	0.97847	0.06858
3.35	1.0102	0.0708
3.44	1.0462	0.0733
3.54	1.085	0.076
3.64	1.1295	0.0791
3.74	1.1692	0.0819
3.85	1.2177	0.0852
3.96	1.2634	0.0884
4.08	1.3175	0.0922
4.2	1.376	0.0962
4.32	1.4347	0.1003
4.45	1.4997	0.1048
4.58	1.5616	0.1091
4.72	1.6229	0.1134
4.87	1.6834	0.1176
5.02	1.753	0.1224
5.18	1.8274	0.1276
5.34	1.8994	0.1326
5.51	1.9794	0.1381
5.68	2.066	0.1441
5.87	2.1356	0.149
6.05	2.2158	0.1545
6.25	2.3078	0.1609
6.46	2.3937	0.1669
6.68	2.4782	0.1728
6.89	2.5563	0.1782
7.12	2.6612	0.1855
7.35	2.7249	0.1899
7.51	2.7831	0.1939
7.75	2.8785	0.2006
8.01	2.9485	0.2054
8.27	3.0341	0.2114
8.54	3.1179	0.2172
8.82	3.2051	0.2233
9.11	3.2834	0.2287
9.42	3.3551	0.2337
9.73	3.4302	0.2389
10.05	3.4996	0.1422
10.39	3.5645	0.1449
10.75	3.6224	0.1472
11.06	3.6978	0.1503
11.43	3.7817	0.1537
11.82	3.863	0.157
12.21	3.9576	0.1608
12.62	4.0521	0.1647
13.05	4.1628	0.1692
13.5	4.2716	0.1736
13.95	4.3849	0.1782
14.42	4.5254	0.1839
14.93	4.6819	0.1903
15.43	4.8503	0.1971
15.96	5.0366	0.2047
16.5	5.1695	0.2101
17.09	5.4416	0.2212
17.66	5.6846	0.2311
18.27	5.8974	0.2397
18.91	6.259	0.2544
19.56	6.4976	0.2641
20.23	6.8914	0.2808
20.92	7.2645	0.2959
21.65	7.6765	0.3128
22.39	8.1704	0.333
23.16	8.6915	0.354
23.97	9.2049	0.3753
24.77	9.9987	0.4074
25.6	10.525	0.428
26.51	11.225	0.457
27.34	11.963	0.487
28.28	12.767	0.52
29.25	13.606	0.554
30.25	14.511	0.591
31.29	15.443	0.628
32.38	16.421	0.668
33.5	17.463	0.71
34.65	18.594	0.756
35.85	19.774	0.804
37.08	21.005	0.854
38.35	22.319	0.908
39.67	23.667	0.962
41.03	25.15	1.023
42.44	26.686	1.085
43.89	28.328	1.152
45.36	30.051	1.222
47.01	31.939	1.298
48.62	33.994	1.382
50.28	35.98	1.462
52.03	38.14	1.55
53.78	40.32	1.639
55.66	42.651	1.733
57.57	45.008	1.829
59.53	47.601	1.934
61.59	50.208	2.04
63.7	52.949	2.151
65.88	55.908	2.272
68.16	58.818	2.39
70.52	61.879	3.304
72.93	65.058	3.474
75.44	68.365	3.65
78	71.37	3.81
80.7	75.402	4.026
83.52	78.164	4.173
86.34	82.246	4.391
89.31	85.845	4.583
92.43	90.203	4.816
95.57	93.8	5.008
98.91	98.385	5.253
102.3	102.34	6.27
105.76	106.62	6.53
109.46	111.36	6.82
113.18	115.85	7.1
116.98	119.41	7.31
121.02	123.8	7.58
125.19	128.19	7.85
129.51	132.43	8.11
133.99	136.86	8.38
138.61	141.15	8.64
143.4	145.8	8.93
148.36	150.07	9.19
153.46	154.06	10.73
158.77	158.4	11.03
164.23	162.51	11.32
169.89	166.34	11.58
175.75	170.6	11.88
181.8	174.59	12.16
188.06	178.47	12.43
194.56	182.52	12.71
201.26	186.09	12.96
208.19	189.61	13.2
215.38	193.34	13.46
222.76	196.86	13.71
230.42	199.63	13.9
238.37	202.54	14.11
246.59	204.81	14.26
255.08	207.29	14.44
263.86	210.2	14.64
272.95	212.24	14.78
282.35	214.72	14.95
292.25	218.4	15.21

System: sodium neptunate(VI) [Na4NpO5]; phases: Crystal
Fixed: Pressure, kPa = 101.325
Property: Molar heat capacity at constant pressure, J/K/mol (Crystal); method: RELAXCAL
Temperature, K	Molar heat capacity at constant pressure, J/K/mol	uncertainty
0.5	0.13749	0.01114
1	0.27618	0.02006
2	0.56397	0.03975
3	0.88509	0.06206
4	1.2816	0.0897
4.5	1.5181	0.1061
5	1.7469	0.122
5.5	1.9739	0.1377
6	2.1955	0.1531
7	2.6069	0.1817
8	2.9537	0.2058
9	3.252	0.2265
10	3.4939	0.2434
11	3.6937	0.1539
12	3.9126	0.163
13	4.1508	0.1729
14	4.4035	0.1835
15	4.7077	0.1961
16	5.0394	0.21
17	5.4041	0.2252
18	5.8071	0.242
19	6.2539	0.2606
20	6.7498	0.2812
25	10.055	0.419
30	14.294	0.595
35	18.933	0.789
40	24.048	1.002
45	29.625	1.234
50	35.575	1.482
55	41.791	1.74
60	48.177	2.006
65	54.66	2.276
70	61.189	2.548
75	67.724	3.616
80	74.236	3.963
85	80.695	4.308
90	87.078	4.649
95	93.361	4.984
100	99.522	5.313
110	111.4	6.82
120	122.6	7.51
130	133.03	8.15
140	142.68	8.74
150	151.52	9.28
160	159.61	11.12
170	166.97	11.63
180	173.66	12.09
190	179.74	12.52
200	185.25	12.9
210	190.26	13.25
220	194.81	13.57
230	198.94	13.85
240	202.71	14.12
250	206.14	14.36
260	209.28	14.57
270	212.15	14.77
273.15	213	14.83
280	214.77	14.96
290	217.18	15.12
298.15	219.01	15.25
300	219.4	15.28

System: sodium neptunate(VI) [Na4NpO5]; phases: Crystal
Fixed: Pressure, kPa = 101.325
Property: Molar entropy, J/K/mol (Crystal); method: relaxation calorimeter
Temperature, K	Molar entropy, J/K/mol	uncertainty
0.5	0.12363	0.01406
1	0.26138	0.02787
2	0.54047	0.05674
3	0.82897	0.0868
4	1.1367	0.1189
4.5	1.3013	0.1361
5	1.473	0.154
5.5	1.6501	0.1725
6	1.8313	0.1914
7	2.2005	0.23
8	2.5713	0.2687
9	2.9365	0.3068
10	3.2919	0.344
11	3.6345	0.3797
12	3.9654	0.4143
13	4.2881	0.448
14	4.605	0.4811
15	4.9192	0.5139
16	5.2336	0.5468
17	5.55	0.5798
18	5.8703	0.6133
19	6.1962	0.6473
20	6.5295	0.6821
25	8.3652	0.8739
30	10.568	1.104
35	13.113	1.37
40	15.97	1.668
45	19.12	1.997
50	22.547	2.355
55	26.227	2.74
60	30.136	3.148
65	34.248	3.578
70	38.537	4.026
75	42.982	4.49
80	47.561	4.968
85	52.255	5.459
90	57.049	5.96
95	61.925	6.469
100	66.871	6.986
110	76.919	8.035
120	87.098	9.099
130	97.328	10.167
140	107.54	11.23
150	117.69	12.29
160	127.74	13.34
170	137.64	14.38
180	147.37	15.39
190	156.93	16.39
200	166.29	17.37
210	175.45	18.33
220	184.41	19.26
230	193.16	20.18
240	201.71	21.07
250	210.05	21.94
260	218.2	22.79
270	226.15	23.62
273.15	228.62	23.88
280	233.92	24.44
290	241.5	25.23
298.15	247.54	25.86
300	248.9	26

System: sodium neptunate(VI) [Na4NpO5]; phases: Crystal
Fixed: Pressure, kPa = 101.325
Property: Molar enthalpy, kJ/mol (Crystal); method: relaxation calorimeter
Temperature, K	Molar enthalpy, kJ/mol	uncertainty
0.5	3.4349e-05	7.378e-06
1	0.00013769	1.198e-05
2	0.00055777	4.049e-05
3	0.00128	9.1e-05
4	0.00237	0.0001671
4.5	0.00307	0.0002156
5	0.00388	0.0002724
5.5	0.00481	0.0003376
6	0.00585	0.0004098
7	0.00826	0.0005776
8	0.01104	0.000771
9	0.01414	0.000987
10	0.01751	0.001221
11	0.02111	0.001472
12	0.02491	0.001737
13	0.02894	0.002017
14	0.03322	0.002315
15	0.03777	0.002632
16	0.04265	0.002972
17	0.04787	0.003336
18	0.05347	0.003726
19	0.0595	0.004146
20	0.06601	0.004599
25	0.10745	0.00749
30	0.16819	0.01172
35	0.25107	0.01749
40	0.35833	0.02496
45	0.49234	0.03429
50	0.65522	0.04564
55	0.84855	0.0591
60	1.0734	0.0748
65	1.3305	0.0927
70	1.6201	0.1128
75	1.9424	0.1353
80	2.2973	0.16
85	2.6847	0.187
90	3.1041	0.2162
95	3.5553	0.2476
100	4.0375	0.2812
110	5.0927	0.3547
120	6.2633	0.4362
130	7.5421	0.5253
140	8.9213	0.6213
150	10.393	0.724
160	11.949	0.832
170	13.583	0.946
180	15.286	1.065
190	17.054	1.188
200	18.879	1.315
210	20.757	1.446
220	22.683	1.58
230	24.652	1.717
240	26.661	1.857
250	28.705	1.999
260	30.782	2.144
270	32.89	2.291
273.15	33.559	2.337
280	35.025	2.439
290	37.185	2.59
298.15	38.962	2.713
300	39.368	2.742
