Measured thermophysical data. Thermodynamic and X-ray studies of layered perovskite KCa2NaNb4O13
Source: J. Chem. Thermodyn., 2019, 10.1016/j.jct.2019.06.031
Compound 1: calcium niobium potassium sodium oxide (Ca2Nb4KNaO13), Ca2KNaNb4O13, InChI=1S/2Ca.K.Na.4Nb.13O/q2*+2;2*+1;4*+5;13*-2, purity 98%

System: calcium niobium potassium sodium oxide (Ca2Nb4KNaO13); phases: Crystal 2
Fixed: Pressure, kPa = 101.325
Property: Molar heat capacity at constant pressure, J/K/mol (Crystal 2); method: Vacuum adiabatic calorimetry
Temperature, K	Molar heat capacity at constant pressure, J/K/mol	uncertainty
6.81	0.0288	0.0079
6.96	0.0292	0.0079
7.12	0.0295	0.0079
7.29	0.0301	0.0079
7.46	0.0308	0.0079
7.64	0.0316	0.008
7.82	0.0325	0.008
8	0.034	0.008
8.2	0.0354	0.008
8.39	0.0375	0.008
8.59	0.0399	0.008
8.8	0.0451	0.0081
9.01	0.0522	0.0081
9.24	0.0637	0.0083
9.46	0.0801	0.0084
9.69	0.116	0.009
9.93	0.142	0.01
10.4	0.226	0.013
10.83	0.34	0.017
11.37	0.53	0.025
11.92	0.79	0.035
12.47	1.09	0.047
13.02	1.4	0.059
13.59	1.74	0.072
14.17	2.08	0.086
14.75	2.451	0.101
15.32	2.808	0.115
15.9	3.231	0.132
16.48	3.717	0.151
17.06	4.131	0.168
17.64	4.684	0.19
18.23	5.176	0.21
18.82	5.843	0.237
19.2	6.301	0.255
19.8	7.046	0.285
21.35	9.197	0.105
23.77	12.76	0.14
26.8	17.03	0.18
29.39	21.5	0.23
32.04	26.61	0.28
34.75	32.03	0.33
37.5	37.86	0.39
40.29	43.66	0.2
43.12	49.53	0.23
45.97	55.92	0.25
48.85	63.32	0.28
51.75	70.56	0.31
55.73	81.74	0.36
59.07	89.87	0.39
62.03	97.33	0.43
65.01	104.9	0.5
68	112.7	0.5
71	120.5	0.5
74.25	128.8	0.6
77.76	136.4	0.6
81.28	145.2	0.6
84.8	155.4	0.7
88.34	164.5	0.7
91.89	172.5	0.7
95.44	180.6	0.8
99.01	188.3	0.8
102.83	196	0.8
106.89	204.4	0.9
111.01	212.8	0.9
115.08	221	0.9
115.13	221.1	0.9
117.29	223.1	0.9
120.78	230.2	1
124.25	236.6	1
127.98	242.6	1
131.02	247.4	1
134.51	252.8	1.1
138.21	258.6	1.1
141.71	264.5	1.1
145.01	269.7	1.1
148.65	275.7	1.2
152.21	280.8	1.2
155.42	285.7	1.2
159.02	291.2	1.2
162.54	296.6	1.2
166.21	301.8	1.3
169.84	306	1.3
173.12	309.6	1.3
176.71	313.6	1.3
180.21	316.8	1.3
127.62	240.9	1
131.66	248.2	1
135.65	255.1	1.1
139.55	260.8	1.1
143.39	267.1	1.1
147.16	273.2	1.1
150.87	279	1.2
154.53	284.4	1.2
158.14	289.8	1.2
161.71	295	1.2
165.23	300	1.3
168.71	304.6	1.3
172.16	309.2	1.3
175.57	313.7	1.3
178.95	317.7	1.3
182.29	321.8	1.3
185.61	325.5	1.4
188.95	329.9	1.4
192.21	333.4	1.4
195.45	336.7	1.4
198.66	340.1	1.4
201.85	343.6	1.4
205.02	346.9	1.4
208.18	349.9	1.5
211.32	352.9	1.5
214.45	355.8	1.5
217.56	358.8	1.5
220.66	361.9	1.5
223.76	364.6	1.5
226.83	367.9	1.5
229.8	370.1	1.5
232.94	373.5	1.5
235.98	376.8	1.6
239.13	379.5	1.6
242.16	382.1	1.6
245.17	383.9	1.6
248.19	386.1	1.6
251.2	388.4	1.6
254.21	390.7	1.6
257.22	393.5	1.6
260.22	395.8	1.6
263.21	398.2	1.6
266.21	400.3	1.7
269.2	402.6	1.7
272.18	404.3	1.7
275.17	407.1	1.7
278.15	408.5	1.7
281.13	410.8	1.7
284.11	412.5	1.7
287.27	414.5	1.7
290.25	416.1	1.7
293.22	417.6	1.7
296.19	420.1	1.7
299.15	422.2	1.7
303.48	424.3	1.8
308.78	427	1.8
314.04	429.7	1.8
319.26	432.2	1.8
324.44	434.7	1.8
329.58	436.8	1.8
334.65	439.1	1.8
339.66	441	1.8
344.59	442.5	1.8

System: calcium niobium potassium sodium oxide (Ca2Nb4KNaO13); phases: Crystal 2
Fixed: Pressure, kPa = 101.325
Property: Molar heat capacity at constant pressure, J/K/mol (Crystal 2); method: Vacuum adiabatic calorimetry
Temperature, K	Molar heat capacity at constant pressure, J/K/mol	uncertainty
5	0.0171	0.0079
7	0.0291	0.008
10	0.1522	0.0121
15	2.615	0.107
20	7.279	0.294
25	14.25	0.16
30	22.68	0.24
35	32.59	0.34
40	42.92	0.44
45	53.88	0.24
50	66.07	0.3
60	92.54	0.41
70	117.8	0.5
80	143.3	0.6
90	167.9	0.7
100	190.5	0.8
110	210.7	0.9
120	228.8	1
130	245.6	1
140	261.7	1.1
150	277.5	1.2
160	292.7	1.2
170	306.1	1.3
180	318.8	1.3
190	330.5	1.4
200	341.5	1.4
210	351.8	1.5
220	361.5	1.5
230	370.7	1.5
240	379.5	1.6
250	387.8	1.6
260	395.7	1.6
270	403	1.7
280	409.9	1.7
290	416.3	1.7
298.15	421.1	1.7
300	422.1	1.7
310	427.6	1.8
320	432.6	1.8
330	437.1	1.8
340	441	1.8
345	442.6	1.8

System: calcium niobium potassium sodium oxide (Ca2Nb4KNaO13); phases: Crystal 2
Fixed: Pressure, kPa = 101.325
Property: Molar enthalpy, kJ/mol (Crystal 2); method: Vacuum adiabatic calorimetry
Temperature, K	Molar enthalpy, kJ/mol	uncertainty
5	3.41e-05	3.9e-05
7	7.93e-05	5.47e-05
10	0.0002513	8.06e-05
15	0.006208	0.000289
20	0.02953	0.00122
25	0.08344	0.00338
30	0.1748	0.0071
35	0.3127	0.0126
40	0.5013	0.0202
45	0.743	0.0079
50	1.042	0.011
60	1.836	0.019
70	2.885	0.03
80	4.191	0.043
90	5.748	0.029
100	7.542	0.036
110	9.55	0.044
120	11.75	0.05
130	14.12	0.06
140	16.66	0.07
150	19.36	0.09
160	22.21	0.1
170	25.2	0.11
180	28.33	0.12
190	31.58	0.14
200	34.94	0.15
210	38.4	0.16
220	41.97	0.18
230	45.63	0.19
240	49.38	0.21
250	53.22	0.23
260	57.14	0.24
270	61.13	0.26
280	65.2	0.27
290	69.33	0.29
298.15	72.74	0.31
300	73.52	0.31
310	77.77	0.33
320	82.07	0.34
330	86.42	0.36
340	90.81	0.38
345	93.02	0.39

System: calcium niobium potassium sodium oxide (Ca2Nb4KNaO13); phases: Crystal 2
Fixed: Pressure, kPa = 101.325
Property: Molar entropy, J/K/mol (Crystal 2); method: Vacuum adiabatic calorimetry
Temperature, K	Molar entropy, J/K/mol	uncertainty
5	0.0113	0.0117
7	0.0188	0.0118
10	0.0382	0.012
15	0.4839	0.0324
20	1.796	0.11
25	4.172	0.252
30	7.482	0.453
35	11.71	0.71
40	16.74	1.01
45	22.41	0.35
50	28.71	0.44
60	43.11	0.66
70	59.22	0.9
80	76.62	1.17
90	94.94	0.65
100	113.8	0.8
110	133	0.9
120	152	1
130	171	1.1
140	189.8	1.2
150	208.4	1.3
160	226.8	1.4
170	245	1.5
180	262.9	1.7
190	280.4	1.8
200	297.7	1.9
210	314.6	2
220	331.2	2.1
230	347.4	2.2
240	363.4	2.3
250	379.1	2.4
260	394.4	2.4
270	409.5	2.5
280	424.2	2.6
290	438.8	2.7
298.15	450.4	2.8
300	453	2.8
310	466.9	2.9
320	480.6	3
330	494	3.1
340	507	3.1
345	513.5	3.2

System: calcium niobium potassium sodium oxide (Ca2Nb4KNaO13); phases: Crystal 2
Fixed: Pressure, kPa = 101.325
Property: Mass density, kg/m3 (Crystal 2); method: X-ray diffraction
Temperature, K	Mass density, kg/m3	uncertainty
298	4281	16
373	4273	16
473	4257	16
573	4246	16
673	4228	16
773	4215	16
873	4196	15
973	4182	15
1073	4161	15
1173	4145	15
1273	4128	15

System: calcium niobium potassium sodium oxide (Ca2Nb4KNaO13); phases: Crystal 1
Property: Mass density, kg/m3 (Crystal 1); method: X-ray diffraction
Temperature, K	Pressure, kPa	Mass density, kg/m3	uncertainty
1373	101.325	4090	18
