Measured thermophysical data. Solubility of b-carotene in ethanol- and triolein-modified CO2
Source: J. Chem. Thermodyn., 2011, 10.1016/j.jct.2011.07.013
Compound 1: .beta.-carotene, C40H56, InChI=1S/C40H56/c1-31(19-13-21-33(3)25-27-37-35(5)23-15-29-39(37,7)8)17-11-12-18-32(2)20-14-22-34(4)26-28-38-36(6)24-16-30-40(38,9)10/h11-14,17-22,25-28H,15-16,23-24,29-30H2,1-10H3/b12-11+,19-13+,20-14+,27-25+,28-26+,31-17+,32-18+,33-21+,34-22+, purity 95%
Compound 2: ethanol, C2H6O, InChI=1S/C2H6O/c1-2-3/h3H,2H2,1H3, purity 99.9%
Compound 3: 1,2,3-tri(cis-9-octadecenoyl)glycerol, C57H104O6, InChI=1S/C57H104O6/c1-4-7-10-13-16-19-22-25-28-31-34-37-40-43-46-49-55(58)61-52-54(63-57(60)51-48-45-42-39-36-33-30-27-24-21-18-15-12-9-6-3)53-62-56(59)50-47-44-41-38-35-32-29-26-23-20-17-14-11-8-5-2/h25-30,54H,4-24,31-53H2,1-3H3/b28-25-,29-26-,30-27-, purity 99%
Compound 4: carbon dioxide, CO2, InChI=1S/CO2/c2-1-3, purity 99%

System: carbon dioxide + .beta.-carotene; phases: Gas, Crystal
Property: Mole fraction of .beta.-carotene (Gas); method: Chromatography
Temperature, K	Pressure, kPa	Mole fraction of .beta.-carotene	uncertainty
313.1	29340	2.97e-07	1.59e-07
313.1	33580	3.8e-07	1.59e-07
313.2	17830	1.77e-07	1.58e-07
313.2	29540	3.61e-07	1.59e-07
313.2	33590	4.57e-07	1.59e-07
313.3	22330	2.08e-07	1.58e-07
313.3	29520	3.08e-07	1.59e-07
313.3	29640	3.24e-07	1.59e-07
313.3	33600	3.82e-07	1.59e-07
313.3	33770	4.1e-07	1.59e-07
313.4	17840	1.87e-07	1.58e-07
313.4	22280	2.3e-07	1.58e-07
313.4	22420	2.17e-07	1.58e-07
313.4	22430	2.24e-07	1.58e-07
323.1	18990	1.26e-07	1.26e-07
323.2	22950	2.61e-07	1.59e-07
323.2	23000	3.11e-07	1.59e-07
323.2	28540	4.8e-07	1.59e-07
323.3	19000	1.63e-07	1.58e-07
323.3	19060	1.83e-07	1.58e-07
323.3	22980	2.54e-07	1.59e-07
323.3	28620	4.38e-07	1.59e-07
323.3	28680	5.06e-07	1.59e-07
323.3	28690	4.88e-07	1.59e-07
323.4	18990	2.25e-07	1.58e-07
323.4	23020	3.77e-07	1.59e-07
323.4	33960	5.24e-07	1.62e-07
323.4	34000	6.7e-07	1.62e-07
323.4	34110	6.52e-07	1.62e-07
333.2	28280	7.54e-07	1.63e-07
333.2	28380	6.92e-07	1.62e-07
333.2	28380	7.2e-07	1.62e-07
333.3	22890	4.17e-07	1.59e-07
333.3	28380	7.08e-07	1.62e-07
333.3	34110	1.025e-06	1.64e-07
333.3	34140	1.071e-06	1.66e-07
333.3	34150	1.087e-06	1.66e-07
333.4	17490	2.96e-07	1.58e-07
333.4	34100	1.051e-06	1.65e-07
333.4	17490	3.15e-07	1.58e-07
333.5	17480	2.71e-07	1.58e-07
333.5	17530	3.1e-07	1.58e-07
333.5	22810	3.8e-07	1.59e-07
333.5	22930	4.16e-07	1.59e-07
333.6	22980	3.66e-07	1.59e-07

System: ethanol + carbon dioxide + .beta.-carotene; phases: Gas, Crystal
Property: Mole fraction of .beta.-carotene (Gas); method: Chromatography
Temperature, K	Pressure, kPa	Mole fraction of ethanol	Mole fraction of .beta.-carotene	uncertainty
313.2	23480	0.01251	4.36e-07	1.2e-07
313.2	23550	0.0125	4.37e-07	1.2e-07
313.2	23560	0.0125	4.62e-07	1.19e-07
313.2	27480	0.01214	5.48e-07	5.48e-07
313.2	23550	0.0125	4.91e-07	1.18e-07
313.3	33730	0.01172	6.62e-07	1.39e-07
313.4	17920	0.01329	3.54e-07	3.54e-07
313.4	17960	0.01328	3.56e-07	1.19e-07
313.4	17990	0.01327	2.94e-07	2.94e-07
313.4	27440	0.01216	5.39e-07	3.49e-07
313.4	33720	0.01172	6.64e-07	1.4e-07
313.4	33750	0.01172	6.55e-07	1.41e-07
313.4	33850	0.01171	6.71e-07	1.39e-07
313.4	17990	0.01327	3.25e-07	3.25e-07
313.5	27440	0.01216	5.24e-07	5.24e-07
313.5	27450	0.01216	5.19e-07	5.19e-07
323.2	18710	0.01414	5.96e-07	3.27e-07
323.2	18760	0.01414	5.77e-07	3.27e-07
323.2	18770	0.01414	6.46e-07	3.27e-07
323.2	18810	0.01414	6.56e-07	3.27e-07
323.3	22770	0.01334	7.47e-07	1.54e-07
323.3	22780	0.01334	7.56e-07	1.51e-07
323.3	22830	0.01334	7.22e-07	1.68e-07
323.3	27620	0.01272	1.087e-06	4.35e-07
323.3	27670	0.01272	1.118e-06	4.95e-07
323.3	27710	0.01272	1.099e-06	7.03e-07
323.3	27720	0.01272	1.203e-06	2.71e-07
323.3	33380	0.01221	1.352e-06	1.4e-07
323.3	33400	0.01221	1.39e-06	1.51e-07
323.3	33460	0.01221	1.262e-06	1.24e-07
323.3	33480	0.01221	1.381e-06	1.48e-07
323.3	22780	0.01334	7.68e-07	1.47e-07
333.1	22810	0.01416	9.05e-07	1.36e-07
333.1	23070	0.01416	9.11e-07	1.44e-07
333.1	23080	0.01416	9.59e-07	1.34e-07
333.1	23100	0.01416	9.03e-07	1.47e-07
333.1	23070	0.01416	9.61e-07	1.34e-07
333.2	18260	0.01563	6.11e-07	1.21e-07
333.2	18280	0.01563	6.5e-07	1.21e-07
333.2	18330	0.01563	6.77e-07	1.21e-07
333.3	33600	0.01272	1.755e-06	1.24e-07
333.3	33640	0.01272	1.792e-06	1.59e-07
333.3	33650	0.01272	1.845e-06	1.89e-07
333.3	33670	0.01272	1.781e-06	1.24e-07
333.3	33690	0.01272	1.84e-06	1.39e-07
333.5	27970	0.01335	1.487e-06	1.44e-07
333.5	28020	0.01335	1.496e-06	1.47e-07
333.5	28060	0.01335	1.492e-06	1.46e-07
333.5	28120	0.01335	1.514e-06	1.55e-07

System: 1,2,3-tri(cis-9-octadecenoyl)glycerol + carbon dioxide + .beta.-carotene; phases: Gas, Crystal
Property: Mole fraction of .beta.-carotene (Gas); method: Chromatography
Temperature, K	Pressure, kPa	Mole fraction of 1,2,3-tri(cis-9-octadecenoyl)glycerol	Mole fraction of .beta.-carotene	uncertainty
313.2	16070	0.01006	1.86e-07	1.86e-07
313.4	15330	0.00935	2.06e-07	2.06e-07
313.4	28680	0.03064	2.82e-07	2.82e-07
313.4	28900	0.03139	3.11e-07	3.11e-07
313.5	34520	0.03704	3.9e-07	3.9e-07
313.6	20130	0.01804	2.68e-07	2.68e-07
313.6	29030	0.02958	2.75e-07	2.75e-07
313.6	34510	0.03671	3.58e-07	3.58e-07
313.6	34510	0.03712	3.71e-07	3.71e-07
313.7	28510	0.02958	2.54e-07	2.54e-07
313.8	20090	0.0188	2.88e-07	2.88e-07
323.2	15900	0.00127	3.5e-08	3.5e-08
323.3	21400	0.01019	4.94e-07	4.94e-07
323.4	21420	0.01053	4.25e-07	4.25e-07
323.4	28750	0.02622	1.338e-06	4.58e-07
323.4	28880	0.02629	1.277e-06	5.29e-07
323.4	28910	0.02595	1.225e-06	4.61e-07
323.4	33440	0.03699	2.327e-06	1.193e-06
323.5	15940	0.00132	1.02e-07	1.02e-07
323.5	15980	0.00083	4e-08	4e-08
323.5	15990	0.00113	6.4e-08	6.4e-08
323.5	21460	0.0104	7.03e-07	4.99e-07
323.5	28800	0.02688	1.324e-06	4.48e-07
323.5	33430	0.0372	2.52e-06	1.058e-06
323.5	33480	0.03523	2.089e-06	4.8e-07
323.5	33510	0.03769	2.568e-06	1.741e-06
323.8	21450	0.01	4.69e-07	4.48e-07
333.3	16720	0.00274	1.91e-07	1.91e-07
333.3	21890	0.0101	7.07e-07	7.07e-07
333.3	27930	0.0255	1.964e-06	6.65e-07
333.3	32240	0.03792	3.239e-06	4.71e-07
333.3	32520	0.03856	3.201e-06	4.71e-07
333.4	16710	0.00317	1.9e-07	1.9e-07
333.4	21840	0.0094	7.06e-07	4.41e-07
333.4	21880	0.00986	7.41e-07	4.42e-07
333.4	21890	0.01014	7.69e-07	4.41e-07
333.4	27780	0.02508	1.993e-06	4.45e-07
333.4	28180	0.02544	1.989e-06	4.46e-07
333.5	16670	0.00188	1.75e-07	1.75e-07
333.5	28070	0.0258	1.944e-06	4.6e-07
333.5	32420	0.03814	3.274e-06	4.86e-07
333.6	16750	0.00169	2.08e-07	2.08e-07
333.6	32210	0.03874	3.166e-06	4.64e-07
