Measured thermophysical data. Phase equilibrium measurements and thermodynamic modelling for the  system (CO2 + ethyl palmitate + ethanol) at high pressures
Source: J. Chem. Thermodyn., 2013, 10.1016/j.jct.2012.08.012
Compound 1: carbon dioxide, CO2, InChI=1S/CO2/c2-1-3, purity 99.9%
Compound 2: ethanol, C2H6O, InChI=1S/C2H6O/c1-2-3/h3H,2H2,1H3, purity 99.5%
Compound 3: ethyl hexadecanoate, C18H36O2, InChI=1S/C18H36O2/c1-3-5-6-7-8-9-10-11-12-13-14-15-16-17-18(19)20-4-2/h3-17H2,1-2H3, purity 95%

System: carbon dioxide + ethyl hexadecanoate; phases: Liquid, Gas
Property: Vapor or sublimation pressure, kPa (Liquid); method: Closed cell (Static) method
Temperature, K	Mole fraction of carbon dioxide	Vapor or sublimation pressure, kPa	uncertainty
303.15	0.5033	3100	80
303.15	0.5845	4140	110
303.15	0.7398	5590	130
303.15	0.8163	5950	180
303.15	0.8666	6430	220
313.15	0.5033	3520	90
313.15	0.5845	4820	90
313.15	0.7398	6510	130
313.15	0.8163	7750	200
313.15	0.8666	8510	230
313.15	0.8984	9570	280
313.15	0.9368	10750	300
323.15	0.5033	4110	90
323.15	0.5845	5280	90
323.15	0.7398	7600	150
323.15	0.8163	9540	210
323.15	0.8666	10500	250
323.15	0.8984	12060	310
323.15	0.9368	13450	290
333.15	0.5033	4590	90
333.15	0.5845	5930	110
333.15	0.7398	8980	150
333.15	0.8163	11380	220
333.15	0.8666	12950	270
333.15	0.8984	14700	300
333.15	0.9368	15800	280
343.15	0.5033	5250	110
343.15	0.5845	6900	120
343.15	0.7398	9980	150
343.15	0.8163	13230	230
343.15	0.8666	14860	270
343.15	0.8984	17050	290
343.15	0.9368	18310	260
353.15	0.5033	6020	110
353.15	0.5845	7570	120
353.15	0.7398	11100	230
353.15	0.8163	14940	230
353.15	0.8666	17100	310
353.15	0.8984	19050	250
353.15	0.9368	20360	260

System: carbon dioxide + ethyl hexadecanoate; phases: Liquid, Gas
Property: Vapor or sublimation pressure, kPa (Liquid); method: Closed cell (Static) method
Temperature, K	Mole fraction of carbon dioxide	Vapor or sublimation pressure, kPa	uncertainty
303.15	0.9913	6740	420
313.15	0.9628	11070	300
313.15	0.9808	10430	370
313.15	0.9913	9640	450
323.15	0.9628	13670	290
323.15	0.9808	13300	330
323.15	0.9913	12150	520
333.15	0.9628	16420	290
333.15	0.9808	15730	360
333.15	0.9913	14480	540
343.15	0.9628	18760	250
343.15	0.9808	18280	350
343.15	0.9913	16740	650
353.15	0.9628	20860	260
353.15	0.9808	20300	320
353.15	0.9913	18750	620

System: carbon dioxide + ethyl hexadecanoate; phases: Liquid mixture 1, Liquid mixture 2
Fixed: Temperature, K = 303.15
Property: Vapor or sublimation pressure, kPa (Liquid mixture 1); method: Closed cell (Static) method
Mole fraction of carbon dioxide	Vapor or sublimation pressure, kPa	uncertainty
0.8984	7000	110
0.9368	7940	90
0.9628	8070	70
0.9808	7570	120

System: carbon dioxide + ethyl hexadecanoate; phases: Liquid mixture 1, Liquid mixture 2, Gas
Property: Vapor or sublimation pressure, kPa (Liquid mixture 1); method: Closed cell (Static) method
Mole fraction of carbon dioxide	Vapor or sublimation pressure, kPa	uncertainty
0.8984	6780	60

System: carbon dioxide + ethyl hexadecanoate; phases: Liquid mixture 1, Liquid mixture 2, Gas
Property: Vapor or sublimation pressure, kPa (Liquid mixture 1); method: Closed cell (Static) method
Temperature, K	Vapor or sublimation pressure, kPa	uncertainty
303.15	6780	350

System: ethanol + carbon dioxide + ethyl hexadecanoate; phases: Liquid, Gas
Property: Vapor or sublimation pressure, kPa (Liquid); method: Closed cell (Static) method
Temperature, K	Mole fraction of carbon dioxide	Mole fraction of ethyl hexadecanoate	Vapor or sublimation pressure, kPa	uncertainty
303.15	0.4634	0.2683	3520	100
303.15	0.6163	0.1919	4780	140
303.15	0.7882	0.1059	5790	170
303.15	0.9005	0.0498	6330	230
303.15	0.9377	0.0312	6400	310
303.15	0.9712	0.0144	6530	320
303.15	0.5055	0.1236	4720	100
303.15	0.6075	0.0981	5380	120
303.15	0.7016	0.0746	5570	150
303.15	0.7824	0.0544	5970	170
303.15	0.8488	0.0378	6120	160
303.15	0.903	0.0243	6200	180
303.15	0.9499	0.0125	6410	210
303.15	0.4436	0.0795	4600	100
303.15	0.647	0.0504	5670	140
303.15	0.8104	0.0271	6160	170
303.15	0.8782	0.0174	6250	160
303.15	0.9395	0.0086	6380	170
313.15	0.4634	0.2683	4260	100
313.15	0.6163	0.1919	6010	130
313.15	0.7882	0.1059	7330	180
313.15	0.9005	0.0498	8580	260
313.15	0.9377	0.0312	9460	320
313.15	0.9712	0.0144	9670	320
313.15	0.5055	0.1236	5440	110
313.15	0.6075	0.0981	6400	130
313.15	0.7016	0.0746	6900	150
313.15	0.7824	0.0544	7540	170
313.15	0.8488	0.0378	7620	190
313.15	0.903	0.0243	7880	240
313.15	0.9499	0.0125	8460	250
313.15	0.4436	0.0795	5440	110
313.15	0.647	0.0504	6960	150
313.15	0.8104	0.0271	7720	170
313.15	0.8782	0.0174	7750	180
313.15	0.9395	0.0086	7990	250
323.15	0.4634	0.2683	5050	100
323.15	0.6163	0.1919	7050	120
323.15	0.7882	0.1059	9070	200
323.15	0.9005	0.0498	11220	280
323.15	0.9377	0.0312	12200	310
323.15	0.9712	0.0144	12090	280
323.15	0.5055	0.1236	6620	130
323.15	0.6075	0.0981	7720	140
323.15	0.7016	0.0746	8260	160
323.15	0.7824	0.0544	8990	180
323.15	0.8488	0.0378	9480	250
323.15	0.903	0.0243	10120	300
323.15	0.9499	0.0125	11020	270
323.15	0.4436	0.0795	6340	110
323.15	0.647	0.0504	8340	150
323.15	0.8104	0.0271	9230	180
323.15	0.8782	0.0174	9650	220
323.15	0.9395	0.0086	10360	280
333.15	0.4634	0.2683	5750	100
333.15	0.6163	0.1919	8050	120
333.15	0.7882	0.1059	11100	210
333.15	0.9005	0.0498	13790	260
333.15	0.9377	0.0312	14720	300
333.15	0.9712	0.0144	14230	270
333.15	0.5055	0.1236	7630	120
333.15	0.6075	0.0981	8950	140
333.15	0.7016	0.0746	9760	170
333.15	0.7824	0.0544	10910	200
333.15	0.8488	0.0378	11800	270
333.15	0.903	0.0243	12320	310
333.15	0.9499	0.0125	13220	260
333.15	0.4436	0.0795	7290	110
333.15	0.647	0.0504	9610	150
333.15	0.8104	0.0271	11160	190
333.15	0.8782	0.0174	11660	230
333.15	0.9395	0.0086	12400	260
343.15	0.4634	0.2683	6540	110
343.15	0.6163	0.1919	9090	130
343.15	0.7882	0.1059	12910	200
343.15	0.9005	0.0498	15990	250
343.15	0.9377	0.0312	16980	290
343.15	0.9712	0.0144	16410	270
343.15	0.5055	0.1236	8670	110
343.15	0.6075	0.0981	10060	140
343.15	0.7016	0.0746	11300	170
343.15	0.7824	0.0544	12590	200
343.15	0.8488	0.0378	13940	250
343.15	0.903	0.0243	14520	310
343.15	0.9499	0.0125	15410	250
343.15	0.4436	0.0795	8150	110
343.15	0.647	0.0504	11070	150
343.15	0.8104	0.0271	12810	190
343.15	0.8782	0.0174	13580	230
343.15	0.9395	0.0086	14490	260
353.15	0.4634	0.2683	7400	110
353.15	0.6163	0.1919	10210	140
353.15	0.7882	0.1059	14710	200
353.15	0.9005	0.0498	18120	250
353.15	0.9377	0.0312	19050	290
353.15	0.9712	0.0144	18560	290
353.15	0.5055	0.1236	9400	110
353.15	0.6075	0.0981	11300	150
353.15	0.7016	0.0746	12770	180
353.15	0.7824	0.0544	14450	270
353.15	0.8488	0.0378	15800	250
353.15	0.903	0.0243	16570	300
353.15	0.9499	0.0125	17360	260
353.15	0.4436	0.0795	9050	120
353.15	0.647	0.0504	12230	140
353.15	0.8104	0.0271	14510	190
353.15	0.8782	0.0174	15520	230
353.15	0.9395	0.0086	16440	270
