Measured thermophysical data. Speeds of sound, isentropic compressibilities, viscosities and excess molar volumes of binary mixtures of methylcyclohexane + 2-alkanols or ethanol at T = 298.15 K
Source: J. Chem. Thermodyn., 2006, 10.1016/j.jct.2005.04.019
Compound 1: methylcyclohexane, C7H14, InChI=1S/C7H14/c1-7-5-3-2-4-6-7/h7H,2-6H2,1H3, purity 99%
Compound 2: ethanol, C2H6O, InChI=1S/C2H6O/c1-2-3/h3H,2H2,1H3, purity 99%
Compound 3: propan-2-ol, C3H8O, InChI=1S/C3H8O/c1-3(2)4/h3-4H,1-2H3, purity 99%
Compound 4: pentan-2-ol, C5H12O, InChI=1S/C5H12O/c1-3-4-5(2)6/h5-6H,3-4H2,1-2H3, purity 98%
Compound 5: 2-hexanol, C6H14O, InChI=1S/C6H14O/c1-3-4-5-6(2)7/h6-7H,3-5H2,1-2H3, purity 98%
Compound 6: 2-heptanol, C7H16O, InChI=1S/C7H16O/c1-3-4-5-6-7(2)8/h7-8H,3-6H2,1-2H3, purity 99%
Compound 7: 2-octanol, C8H18O, InChI=1S/C8H18O/c1-3-4-5-6-7-8(2)9/h8-9H,3-7H2,1-2H3, purity 97%
Compound 8: butan-2-ol, C4H10O, InChI=1S/C4H10O/c1-3-4(2)5/h4-5H,3H2,1-2H3, purity 99%

System: methylcyclohexane; phases: Liquid
Property: Viscosity, Pa*s (Liquid); method: Capillary tube (Ostwald; Ubbelohde) method
Temperature, K	Pressure, kPa	Viscosity, Pa*s	uncertainty
298.15	101.325	0.000683	7e-06

System: methylcyclohexane; phases: Liquid
Property: Speed of sound, m/s (Liquid); method: Quartz crystal interferometer (Mittal Enterprises, India)
Temperature, K	Pressure, kPa	Speed of sound, m/s	uncertainty
298.15	101.325	1209	2

System: methylcyclohexane; phases: Liquid
Property: Mass density, kg/m3 (Liquid); method: Vibrating tube method
Temperature, K	Pressure, kPa	Mass density, kg/m3	uncertainty
298.15	101.325	764.99	0.41

System: ethanol; phases: Liquid
Property: Viscosity, Pa*s (Liquid); method: Capillary tube (Ostwald; Ubbelohde) method
Temperature, K	Pressure, kPa	Viscosity, Pa*s	uncertainty
298.15	101.325	0.001093	9e-06

System: ethanol; phases: Liquid
Property: Speed of sound, m/s (Liquid); method: Quartz crystal interferometer (Mittal Enterprises, India)
Temperature, K	Pressure, kPa	Speed of sound, m/s	uncertainty
298.15	101.325	1145	2

System: ethanol; phases: Liquid
Property: Mass density, kg/m3 (Liquid); method: Vibrating tube method
Temperature, K	Pressure, kPa	Mass density, kg/m3	uncertainty
298.15	101.325	785.32	0.41

System: propan-2-ol; phases: Liquid
Property: Viscosity, Pa*s (Liquid); method: Capillary tube (Ostwald; Ubbelohde) method
Temperature, K	Pressure, kPa	Viscosity, Pa*s	uncertainty
298.15	101.325	0.002098	1.6e-05

System: propan-2-ol; phases: Liquid
Property: Speed of sound, m/s (Liquid); method: Quartz crystal interferometer (Mittal Enterprises, India)
Temperature, K	Pressure, kPa	Speed of sound, m/s	uncertainty
298.15	101.325	1142	2

System: propan-2-ol; phases: Liquid
Property: Mass density, kg/m3 (Liquid); method: Vibrating tube method
Temperature, K	Pressure, kPa	Mass density, kg/m3	uncertainty
298.15	101.325	781.06	0.41

System: pentan-2-ol; phases: Liquid
Property: Viscosity, Pa*s (Liquid); method: Capillary tube (Ostwald; Ubbelohde) method
Temperature, K	Pressure, kPa	Viscosity, Pa*s	uncertainty
298.15	101.325	0.003421	3.9e-05

System: pentan-2-ol; phases: Liquid
Property: Speed of sound, m/s (Liquid); method: Quartz crystal interferometer (Mittal Enterprises, India)
Temperature, K	Pressure, kPa	Speed of sound, m/s	uncertainty
298.15	101.325	1235	3

System: pentan-2-ol; phases: Liquid
Property: Mass density, kg/m3 (Liquid); method: Vibrating tube method
Temperature, K	Pressure, kPa	Mass density, kg/m3	uncertainty
298.15	101.325	805.4	0.83

System: 2-hexanol; phases: Liquid
Property: Viscosity, Pa*s (Liquid); method: Capillary tube (Ostwald; Ubbelohde) method
Temperature, K	Pressure, kPa	Viscosity, Pa*s	uncertainty
298.15	101.325	0.004204	4.8e-05

System: 2-hexanol; phases: Liquid
Property: Mass density, kg/m3 (Liquid); method: Vibrating tube method
Temperature, K	Pressure, kPa	Mass density, kg/m3	uncertainty
298.15	101.325	810.25	0.83

System: 2-heptanol; phases: Liquid
Property: Viscosity, Pa*s (Liquid); method: Capillary tube (Ostwald; Ubbelohde) method
Temperature, K	Pressure, kPa	Viscosity, Pa*s	uncertainty
298.15	101.325	0.005346	3.9e-05

System: 2-heptanol; phases: Liquid
Property: Mass density, kg/m3 (Liquid); method: Vibrating tube method
Temperature, K	Pressure, kPa	Mass density, kg/m3	uncertainty
298.15	101.325	813.33	0.42

System: 2-octanol; phases: Liquid
Property: Viscosity, Pa*s (Liquid); method: Capillary tube (Ostwald; Ubbelohde) method
Temperature, K	Pressure, kPa	Viscosity, Pa*s	uncertainty
298.15	101.325	0.006568	0.000104

System: 2-octanol; phases: Liquid
Property: Mass density, kg/m3 (Liquid); method: Vibrating tube method
Temperature, K	Pressure, kPa	Mass density, kg/m3	uncertainty
298.15	101.325	816.13	1.27

System: butan-2-ol; phases: Liquid
Property: Viscosity, Pa*s (Liquid); method: Capillary tube (Ostwald; Ubbelohde) method
Temperature, K	Pressure, kPa	Viscosity, Pa*s	uncertainty
298.15	101.325	0.002907	2.2e-05

System: butan-2-ol; phases: Liquid
Property: Speed of sound, m/s (Liquid); method: Quartz crystal interferometer (Mittal Enterprises, India)
Temperature, K	Pressure, kPa	Speed of sound, m/s	uncertainty
298.15	101.325	1213	2

System: butan-2-ol; phases: Liquid
Property: Mass density, kg/m3 (Liquid); method: Vibrating tube method
Temperature, K	Pressure, kPa	Mass density, kg/m3	uncertainty
298.15	101.325	802.54	0.42

System: ethanol + methylcyclohexane; phases: Liquid
Fixed: Temperature, K = 298.15
Fixed: Pressure, kPa = 101
Property: Viscosity, Pa*s (Liquid); method: CAPTUB:UFactor:2
Mole fraction of methylcyclohexane	Viscosity, Pa*s	uncertainty
0.0499	0.001034	1.4e-05
0.1024	0.000987	1.3e-05
0.1492	0.000949	1.3e-05
0.194	0.000915	1.2e-05
0.2467	0.000886	1.2e-05
0.313	0.000853	1.2e-05
0.3363	0.000841	1.1e-05
0.4015	0.00081	1.1e-05
0.4438	0.00079	1.1e-05
0.4752	0.000776	1.1e-05
0.5844	0.000732	1e-05
0.7002	0.000692	1e-05
0.8147	0.000672	1e-05
0.8864	0.000667	1e-05

System: ethanol + methylcyclohexane; phases: Liquid
Fixed: Temperature, K = 298.15
Fixed: Pressure, kPa = 101
Property: Speed of sound, m/s (Liquid); method: Quartz crystal interferometer (Mittal Enterprises, India)
Mole fraction of methylcyclohexane	Speed of sound, m/s	uncertainty
0.1037	1146	4
0.1893	1151	4
0.3143	1157	4
0.4007	1162	4
0.4788	1166	4
0.5884	1173	4
0.6993	1181	4
0.8209	1191	4
0.8943	1196	4
0.9473	1202	4

System: ethanol + methylcyclohexane; phases: Liquid
Fixed: Temperature, K = 298.15
Fixed: Pressure, kPa = 101
Property: Mass density, kg/m3 (Liquid); method: VIBTUB:UFactor:2
Mole fraction of methylcyclohexane	Mass density, kg/m3	uncertainty
0.0499	782.02	0.46
0.1024	779.14	0.46
0.1492	776.99	0.46
0.194	775.25	0.46
0.2467	773.53	0.46
0.313	771.77	0.46
0.3363	771.24	0.46
0.4015	769.94	0.46
0.4438	769.21	0.46
0.4752	768.72	0.46
0.5844	767.23	0.46
0.7002	765.95	0.46
0.8147	765.03	0.46
0.8864	764.74	0.46

System: propan-2-ol + methylcyclohexane; phases: Liquid
Fixed: Temperature, K = 298.15
Fixed: Pressure, kPa = 101
Property: Viscosity, Pa*s (Liquid); method: CAPTUB:UFactor:2
Mole fraction of methylcyclohexane	Viscosity, Pa*s	uncertainty
0.0648	0.001771	2.2e-05
0.1102	0.001589	2e-05
0.1475	0.001462	1.9e-05
0.2041	0.001315	1.7e-05
0.2422	0.001232	1.6e-05
0.303	0.001113	1.5e-05
0.3511	0.001034	1.4e-05
0.3947	0.000975	1.3e-05
0.4603	0.000896	1.2e-05
0.4954	0.00086	1.2e-05
0.5589	0.000801	1.1e-05
0.578	0.000789	1.1e-05
0.6707	0.000734	1e-05
0.7727	0.000695	1e-05
0.9011	0.000679	1e-05

System: propan-2-ol + methylcyclohexane; phases: Liquid
Fixed: Temperature, K = 298.15
Fixed: Pressure, kPa = 101
Property: Speed of sound, m/s (Liquid); method: Quartz crystal interferometer (Mittal Enterprises, India)
Mole fraction of methylcyclohexane	Speed of sound, m/s	uncertainty
0.1123	1143	4
0.2053	1143	4
0.3034	1144	4
0.3937	1148	4
0.5031	1155	4
0.5788	1160	4
0.6715	1168	4
0.7466	1176	4
0.7715	1178	4
0.8299	1184	4
0.8993	1194	4
0.9472	1201	4

System: propan-2-ol + methylcyclohexane; phases: Liquid
Fixed: Temperature, K = 298.15
Fixed: Pressure, kPa = 101
Property: Mass density, kg/m3 (Liquid); method: VIBTUB:UFactor:2
Mole fraction of methylcyclohexane	Mass density, kg/m3	uncertainty
0.0648	778.57	0.46
0.1102	776.98	0.46
0.1475	775.78	0.46
0.2041	774.1	0.46
0.2422	773.07	0.46
0.303	771.57	0.46
0.3511	770.5	0.46
0.3947	769.61	0.46
0.4603	768.4	0.46
0.4954	767.81	0.46
0.5589	766.86	0.46
0.578	766.6	0.46
0.6707	765.53	0.46
0.7727	764.75	0.46
0.9011	764.45	0.46

System: methylcyclohexane + pentan-2-ol; phases: Liquid
Fixed: Temperature, K = 298.15
Fixed: Pressure, kPa = 101
Property: Viscosity, Pa*s (Liquid); method: CAPTUB:UFactor:2
Mole fraction of methylcyclohexane	Viscosity, Pa*s	uncertainty
0.067	0.002764	4.1e-05
0.1011	0.002501	3.7e-05
0.1561	0.002148	3.2e-05
0.2088	0.001863	2.7e-05
0.2653	0.001618	2.4e-05
0.2991	0.001488	2.2e-05
0.3581	0.001317	1.9e-05
0.3974	0.001219	1.8e-05
0.4481	0.001113	1.6e-05
0.4885	0.001044	1.5e-05
0.6007	0.000901	1.3e-05
0.6973	0.000819	1.2e-05
0.8001	0.00075	1.1e-05
0.8981	0.000704	1e-05

System: methylcyclohexane + pentan-2-ol; phases: Liquid
Fixed: Temperature, K = 298.15
Fixed: Pressure, kPa = 101
Property: Speed of sound, m/s (Liquid); method: Quartz crystal interferometer (Mittal Enterprises, India)
Mole fraction of methylcyclohexane	Speed of sound, m/s	uncertainty
0.1026	1227	4
0.2018	1219	4
0.3077	1211	4
0.3999	1206	4
0.4976	1203	4
0.5997	1202	4
0.6984	1204	4
0.8007	1207	4
0.8998	1211	4
0.9488	1211	4

System: methylcyclohexane + pentan-2-ol; phases: Liquid
Fixed: Temperature, K = 298.15
Fixed: Pressure, kPa = 101
Property: Mass density, kg/m3 (Liquid); method: VIBTUB:UFactor:2
Mole fraction of methylcyclohexane	Mass density, kg/m3	uncertainty
0.067	801.75	0.82
0.1011	799.88	0.8
0.1561	796.91	0.78
0.2088	794.12	0.76
0.2653	791.21	0.73
0.2991	789.53	0.72
0.3581	786.7	0.7
0.3974	784.89	0.68
0.4481	782.64	0.66
0.4885	780.93	0.64
0.6007	776.49	0.6
0.6973	773.05	0.56
0.8001	769.78	0.53
0.8981	767.12	0.49

System: methylcyclohexane + 2-hexanol; phases: Liquid
Fixed: Temperature, K = 298.15
Fixed: Pressure, kPa = 101
Property: Viscosity, Pa*s (Liquid); method: CAPTUB:UFactor:2
Mole fraction of methylcyclohexane	Viscosity, Pa*s	uncertainty
0.1017	0.003089	4.5e-05
0.1514	0.002701	3.9e-05
0.2026	0.002344	3.4e-05
0.2473	0.002082	3e-05
0.2995	0.001836	2.6e-05
0.3508	0.001632	2.3e-05
0.4019	0.001468	2.1e-05
0.452	0.001345	1.9e-05
0.4972	0.001227	1.7e-05
0.5955	0.001052	1.5e-05
0.6956	0.000917	1.3e-05
0.8089	0.000798	1.1e-05
0.8987	0.000729	1e-05

System: methylcyclohexane + 2-hexanol; phases: Liquid
Fixed: Temperature, K = 298.15
Fixed: Pressure, kPa = 101
Property: Speed of sound, m/s (Liquid); method: Quartz crystal interferometer (Mittal Enterprises, India)
Mole fraction of methylcyclohexane	Speed of sound, m/s	uncertainty
0.1002	1252	4
0.2041	1239	4
0.2837	1231	4
0.3521	1225	4
0.3989	1222	4
0.4948	1216	4
0.5978	1212	4
0.6904	1209	4
0.808	1208	4
0.8967	1214	4
0.9509	1215	4

System: methylcyclohexane + 2-hexanol; phases: Liquid
Fixed: Temperature, K = 298.15
Fixed: Pressure, kPa = 101
Property: Mass density, kg/m3 (Liquid); method: VIBTUB:UFactor:2
Mole fraction of methylcyclohexane	Mass density, kg/m3	uncertainty
0.1017	804.9	0.81
0.1514	802.31	0.79
0.2026	799.67	0.76
0.2473	797.41	0.75
0.2995	794.85	0.72
0.3508	792.24	0.7
0.4019	789.75	0.68
0.452	787.34	0.66
0.4972	785.2	0.64
0.5955	780.68	0.6
0.6956	776.28	0.57
0.8089	771.63	0.52
0.8987	768.24	0.49

System: methylcyclohexane + 2-heptanol; phases: Liquid
Fixed: Temperature, K = 298.15
Fixed: Pressure, kPa = 101
Property: Viscosity, Pa*s (Liquid); method: CAPTUB:UFactor:2
Mole fraction of methylcyclohexane	Viscosity, Pa*s	uncertainty
0.103	0.003935	4.8e-05
0.1524	0.003415	4.2e-05
0.2071	0.002945	3.6e-05
0.2564	0.002587	3.2e-05
0.3047	0.002287	2.9e-05
0.3558	0.002013	2.5e-05
0.4019	0.001817	2.3e-05
0.4469	0.001649	2.1e-05
0.4951	0.00149	1.9e-05
0.5969	0.001225	1.6e-05
0.703	0.001017	1.4e-05
0.7979	0.000879	1.2e-05
0.8883	0.000773	1.1e-05

System: methylcyclohexane + 2-heptanol; phases: Liquid
Fixed: Temperature, K = 298.15
Fixed: Pressure, kPa = 101
Property: Speed of sound, m/s (Liquid); method: Quartz crystal interferometer (Mittal Enterprises, India)
Mole fraction of methylcyclohexane	Speed of sound, m/s	uncertainty
0.0998	1278	4
0.1479	1272	4
0.206	1263	4
0.3053	1250	4
0.3966	1239	4
0.5005	1229	4
0.5973	1223	4
0.7017	1223	4
0.7974	1222	4
0.9017	1219	4
0.9514	1215	4

System: methylcyclohexane + 2-heptanol; phases: Liquid
Fixed: Temperature, K = 298.15
Fixed: Pressure, kPa = 101
Property: Mass density, kg/m3 (Liquid); method: VIBTUB:UFactor:2
Mole fraction of methylcyclohexane	Mass density, kg/m3	uncertainty
0.103	808.34	0.46
0.1524	805.84	0.46
0.2071	803.04	0.46
0.2564	800.53	0.46
0.3047	798.08	0.46
0.3558	795.52	0.46
0.4019	793.23	0.46
0.4469	791.02	0.46
0.4951	788.67	0.46
0.5969	783.72	0.46
0.703	778.57	0.46
0.7979	773.96	0.46
0.8883	769.71	0.46

System: methylcyclohexane + 2-octanol; phases: Liquid
Fixed: Temperature, K = 298.15
Fixed: Pressure, kPa = 101
Property: Viscosity, Pa*s (Liquid); method: CAPTUB:UFactor:2
Mole fraction of methylcyclohexane	Viscosity, Pa*s	uncertainty
0.1006	0.004941	8.8e-05
0.1185	0.004692	8.3e-05
0.1672	0.004097	7.1e-05
0.2104	0.003651	6.2e-05
0.2489	0.003308	5.5e-05
0.2536	0.003263	5.5e-05
0.3171	0.002769	4.5e-05
0.347	0.00258	4.2e-05
0.3979	0.002268	3.6e-05
0.4503	0.002022	3.2e-05
0.5168	0.00172	2.6e-05
0.5766	0.0015	2.3e-05
0.5969	0.001443	2.2e-05
0.684	0.001199	1.7e-05
0.8058	0.000943	1.3e-05
0.9002	0.000793	1.1e-05

System: methylcyclohexane + 2-octanol; phases: Liquid
Fixed: Temperature, K = 298.15
Fixed: Pressure, kPa = 101
Property: Speed of sound, m/s (Liquid); method: Quartz crystal interferometer (Mittal Enterprises, India)
Mole fraction of methylcyclohexane	Speed of sound, m/s	uncertainty
0.1001	1292	4
0.2032	1282	4
0.3003	1269	4
0.4001	1258	4
0.5043	1247	4
0.5973	1239	4
0.6889	1231	4
0.8109	1222	4
0.9008	1219	4
0.9466	1216	4

System: methylcyclohexane + 2-octanol; phases: Liquid
Fixed: Temperature, K = 298.15
Fixed: Pressure, kPa = 101
Property: Mass density, kg/m3 (Liquid); method: VIBTUB:UFactor:2
Mole fraction of methylcyclohexane	Mass density, kg/m3	uncertainty
0.1006	811.52	1.19
0.1185	810.68	1.17
0.1672	808.39	1.13
0.2104	806.32	1.09
0.2489	804.45	1.05
0.2536	804.22	1.05
0.3171	801.09	0.99
0.347	799.59	0.97
0.3979	797.02	0.93
0.4503	794.35	0.88
0.5168	790.9	0.83
0.5766	787.77	0.78
0.5969	786.69	0.76
0.684	782.06	0.69
0.8058	775.5	0.6
0.9002	770.39	0.53

System: butan-2-ol + methylcyclohexane; phases: Liquid
Fixed: Temperature, K = 298.15
Fixed: Pressure, kPa = 101
Property: Viscosity, Pa*s (Liquid); method: CAPTUB:UFactor:2
Mole fraction of methylcyclohexane	Viscosity, Pa*s	uncertainty
0.1026	0.002207	2.8e-05
0.1536	0.001933	2.4e-05
0.2015	0.00172	2.2e-05
0.2544	0.001509	1.9e-05
0.3307	0.001281	1.7e-05
0.3604	0.001216	1.6e-05
0.4086	0.001107	1.5e-05
0.4679	0.001002	1.3e-05
0.5012	0.000953	1.3e-05
0.5872	0.000856	1.2e-05
0.6926	0.00077	1.1e-05
0.7844	0.000729	1e-05
0.8916	0.000696	1e-05

System: butan-2-ol + methylcyclohexane; phases: Liquid
Fixed: Temperature, K = 298.15
Fixed: Pressure, kPa = 101
Property: Speed of sound, m/s (Liquid); method: Quartz crystal interferometer (Mittal Enterprises, India)
Mole fraction of methylcyclohexane	Speed of sound, m/s	uncertainty
0.0988	1207	4
0.2015	1199	4
0.3058	1193	4
0.3993	1190	4
0.5007	1189	4
0.6001	1189	4
0.7	1192	4
0.7737	1196	4
0.8996	1203	4
0.9489	1206	4

System: butan-2-ol + methylcyclohexane; phases: Liquid
Fixed: Temperature, K = 298.15
Fixed: Pressure, kPa = 101
Property: Mass density, kg/m3 (Liquid); method: VIBTUB:UFactor:2
Mole fraction of methylcyclohexane	Mass density, kg/m3	uncertainty
0.1026	796.47	0.46
0.1536	793.6	0.46
0.2015	791.01	0.46
0.2544	788.28	0.46
0.3307	784.56	0.46
0.3604	783.2	0.46
0.4086	781.07	0.46
0.4679	778.61	0.46
0.5012	777.3	0.46
0.5872	774.19	0.46
0.6926	770.91	0.46
0.7844	768.54	0.46
0.8916	766.35	0.46
