Measured thermophysical data. Thermodynamics and selectivity of separation based on activity coefficients at infinite dilution of various solutes in ionic liquid [HMMIM][BF4]
Source: J. Chem. Thermodyn., 2018, 10.1016/j.jct.2018.05.017
Compound 1: 1-hexyl-2,3-dimethylimidazolium tetrafluoroborate, C11H21BF4N2, InChI=1S/C11H21N2.BF4/c1-4-5-6-7-8-13-10-9-12(3)11(13)2;2-1(3,4)5/h9-10H,4-8H2,1-3H3;/q+1;-1, purity 99%
Compound 2: pentane, C5H12, InChI=1S/C5H12/c1-3-5-4-2/h3-5H2,1-2H3, purity 99%
Compound 3: hexane, C6H14, InChI=1S/C6H14/c1-3-5-6-4-2/h3-6H2,1-2H3, purity 99%
Compound 4: heptane, C7H16, InChI=1S/C7H16/c1-3-5-7-6-4-2/h3-7H2,1-2H3, purity 99%
Compound 5: octane, C8H18, InChI=1S/C8H18/c1-3-5-7-8-6-4-2/h3-8H2,1-2H3, purity 99%
Compound 6: 2,2,4-trimethylpentane, C8H18, InChI=1S/C8H18/c1-7(2)6-8(3,4)5/h7H,6H2,1-5H3, purity 99%
Compound 7: nonane, C9H20, InChI=1S/C9H20/c1-3-5-7-9-8-6-4-2/h3-9H2,1-2H3, purity 99%
Compound 8: decane, C10H22, InChI=1S/C10H22/c1-3-5-7-9-10-8-6-4-2/h3-10H2,1-2H3, purity 99%
Compound 9: cyclohexane, C6H12, InChI=1S/C6H12/c1-2-4-6-5-3-1/h1-6H2, purity 99%
Compound 10: methylcyclohexane, C7H14, InChI=1S/C7H14/c1-7-5-3-2-4-6-7/h7H,2-6H2,1H3, purity 99%
Compound 11: cyclohexene, C6H10, InChI=1S/C6H10/c1-2-4-6-5-3-1/h1-2H,3-6H2, purity 99%
Compound 12: benzene, C6H6, InChI=1S/C6H6/c1-2-4-6-5-3-1/h1-6H, purity 99%
Compound 13: toluene, C7H8, InChI=1S/C7H8/c1-7-5-3-2-4-6-7/h2-6H,1H3, purity 99%
Compound 14: ethylbenzene, C8H10, InChI=1S/C8H10/c1-2-8-6-4-3-5-7-8/h3-7H,2H2,1H3, purity 99%
Compound 15: 1,2-dimethylbenzene, C8H10, InChI=1S/C8H10/c1-7-5-3-4-6-8(7)2/h3-6H,1-2H3, purity 99%
Compound 16: 1,3-dimethylbenzene, C8H10, InChI=1S/C8H10/c1-7-4-3-5-8(2)6-7/h3-6H,1-2H3, purity 99%
Compound 17: 1,4-dimethylbenzene, C8H10, InChI=1S/C8H10/c1-7-3-5-8(2)6-4-7/h3-6H,1-2H3, purity 99%
Compound 18: acetonitrile, C2H3N, InChI=1S/C2H3N/c1-2-3/h1H3, purity 99%
Compound 19: acetone, C3H6O, InChI=1S/C3H6O/c1-3(2)4/h1-2H3, purity 99%
Compound 20: tetrahydrofuran, C4H8O, InChI=1S/C4H8O/c1-2-4-5-3-1/h1-4H2, purity 99%
Compound 21: ethyl acetate, C4H8O2, InChI=1S/C4H8O2/c1-3-6-4(2)5/h3H2,1-2H3, purity 99%
Compound 22: dichloromethane, CH2Cl2, InChI=1S/CH2Cl2/c2-1-3/h1H2, purity 99%
Compound 23: trichloromethane, CHCl3, InChI=1S/CHCl3/c2-1(3)4/h1H, purity 99%
Compound 24: tetrachloromethane, CCl4, InChI=1S/CCl4/c2-1(3,4)5, purity 99%
Compound 25: 1,4-dioxane, C4H8O2, InChI=1S/C4H8O2/c1-2-6-4-3-5-1/h1-4H2, purity 99%
Compound 26: methanol, CH4O, InChI=1S/CH4O/c1-2/h2H,1H3, purity 99%
Compound 27: ethanol, C2H6O, InChI=1S/C2H6O/c1-2-3/h3H,2H2,1H3, purity 99%
Compound 28: propan-1-ol, C3H8O, InChI=1S/C3H8O/c1-2-3-4/h4H,2-3H2,1H3, purity 99%
Compound 29: propan-2-ol, C3H8O, InChI=1S/C3H8O/c1-3(2)4/h3-4H,1-2H3, purity 99%
Compound 30: butan-1-ol, C4H10O, InChI=1S/C4H10O/c1-2-3-4-5/h5H,2-4H2,1H3, purity 99%
Compound 31: 2-methyl-1-propanol, C4H10O, InChI=1S/C4H10O/c1-4(2)3-5/h4-5H,3H2,1-2H3, purity 99%
Compound 32: butan-2-ol, C4H10O, InChI=1S/C4H10O/c1-3-4(2)5/h4-5H,3H2,1-2H3, purity 99%

System: 1-hexyl-2,3-dimethylimidazolium tetrafluoroborate; phases: Liquid
Fixed: Pressure, kPa = 101.325
Property: Mass density, kg/m3 (Liquid); method: Vibrating tube method
Temperature, K	Mass density, kg/m3	uncertainty
313.15	1129.8	2.4
323.15	1123.3	2.4
333.15	1116.8	2.4
343.15	1110.3	2.4
353.15	1103.87	2.42

System: 1-hexyl-2,3-dimethylimidazolium tetrafluoroborate + pentane; phases: Liquid
Fixed: Mole fraction of pentane = 0
Fixed: Pressure, kPa = 101.325
Property: Activity coefficient of pentane (Liquid); method: Chromatography
Temperature, K	Activity coefficient of pentane	uncertainty
313.15	28.87	3.04
323.15	25.57	2.69
333.15	22.91	2.41
343.15	20.61	2.17
353.15	18.84	1.98

System: 1-hexyl-2,3-dimethylimidazolium tetrafluoroborate + hexane; phases: Liquid
Fixed: Mole fraction of hexane = 0
Fixed: Pressure, kPa = 101.325
Property: Activity coefficient of hexane (Liquid); method: Chromatography
Temperature, K	Activity coefficient of hexane	uncertainty
313.15	31.01	3.26
323.15	29.47	3.1
333.15	27.9	2.94
343.15	26.3	2.77
353.15	24.98	2.63

System: 1-hexyl-2,3-dimethylimidazolium tetrafluoroborate + heptane; phases: Liquid
Fixed: Mole fraction of heptane = 0
Fixed: Pressure, kPa = 101.325
Property: Activity coefficient of heptane (Liquid); method: Chromatography
Temperature, K	Activity coefficient of heptane	uncertainty
313.15	47.9	5.04
323.15	45.36	4.78
333.15	42.79	4.51
343.15	40.23	4.24
353.15	37.43	3.94

System: 1-hexyl-2,3-dimethylimidazolium tetrafluoroborate + octane; phases: Liquid
Fixed: Mole fraction of octane = 0
Fixed: Pressure, kPa = 101.325
Property: Activity coefficient of octane (Liquid); method: Chromatography
Temperature, K	Activity coefficient of octane	uncertainty
313.15	65.07	6.85
323.15	64.06	6.75
333.15	62.11	6.54
343.15	61.17	6.44
353.15	60.41	6.36

System: 1-hexyl-2,3-dimethylimidazolium tetrafluoroborate + 2,2,4-trimethylpentane; phases: Liquid
Fixed: Mole fraction of 2,2,4-trimethylpentane = 0
Fixed: Pressure, kPa = 101.325
Property: Activity coefficient of 2,2,4-trimethylpentane (Liquid); method: Chromatography
Temperature, K	Activity coefficient of 2,2,4-trimethylpentane	uncertainty
313.15	59.24	6.24
323.15	59.01	6.21
333.15	58.17	6.13
343.15	57.5	6.06
353.15	57.23	6.03

System: 1-hexyl-2,3-dimethylimidazolium tetrafluoroborate + nonane; phases: Liquid
Fixed: Mole fraction of nonane = 0
Fixed: Pressure, kPa = 101.325
Property: Activity coefficient of nonane (Liquid); method: Chromatography
Temperature, K	Activity coefficient of nonane	uncertainty
313.15	89.47	9.43
323.15	83.48	8.79
333.15	77.75	8.19
343.15	72.59	7.65
353.15	67.4	7.1

System: 1-hexyl-2,3-dimethylimidazolium tetrafluoroborate + decane; phases: Liquid
Fixed: Mole fraction of decane = 0
Fixed: Pressure, kPa = 101.325
Property: Activity coefficient of decane (Liquid); method: Chromatography
Temperature, K	Activity coefficient of decane	uncertainty
313.15	125.21	13.2
323.15	120.59	12.71
333.15	112.49	11.85
343.15	102.07	10.76
353.15	92.05	9.7

System: 1-hexyl-2,3-dimethylimidazolium tetrafluoroborate + cyclohexane; phases: Liquid
Fixed: Mole fraction of cyclohexane = 0
Fixed: Pressure, kPa = 101.325
Property: Activity coefficient of cyclohexane (Liquid); method: Chromatography
Temperature, K	Activity coefficient of cyclohexane	uncertainty
313.15	19.82	2.09
323.15	19.61	2.06
333.15	19.47	2.05
343.15	19.13	2.01
353.15	18.85	1.98

System: 1-hexyl-2,3-dimethylimidazolium tetrafluoroborate + methylcyclohexane; phases: Liquid
Fixed: Mole fraction of methylcyclohexane = 0
Fixed: Pressure, kPa = 101.325
Property: Activity coefficient of methylcyclohexane (Liquid); method: Chromatography
Temperature, K	Activity coefficient of methylcyclohexane	uncertainty
313.15	25.45	2.68
323.15	25.42	2.67
333.15	24.897	2.62
343.15	24.49	2.58
353.15	23.89	2.51

System: 1-hexyl-2,3-dimethylimidazolium tetrafluoroborate + cyclohexene; phases: Liquid
Fixed: Mole fraction of cyclohexene = 0
Fixed: Pressure, kPa = 101.325
Property: Activity coefficient of cyclohexene (Liquid); method: Chromatography
Temperature, K	Activity coefficient of cyclohexene	uncertainty
313.15	9.89	1.04
323.15	9.67	1.02
333.15	9.51	1
343.15	9.36	0.98
353.15	9.08	0.95

System: 1-hexyl-2,3-dimethylimidazolium tetrafluoroborate + benzene; phases: Liquid
Fixed: Mole fraction of benzene = 0
Fixed: Pressure, kPa = 101.325
Property: Activity coefficient of benzene (Liquid); method: Chromatography
Temperature, K	Activity coefficient of benzene	uncertainty
313.15	1.54	0.16
323.15	1.55	0.16
333.15	1.57	0.16
343.15	1.58	0.16
353.15	1.59	0.17

System: 1-hexyl-2,3-dimethylimidazolium tetrafluoroborate + toluene; phases: Liquid
Fixed: Mole fraction of toluene = 0
Fixed: Pressure, kPa = 101.325
Property: Activity coefficient of toluene (Liquid); method: Chromatography
Temperature, K	Activity coefficient of toluene	uncertainty
313.15	2.21	0.23
323.15	2.26	0.24
333.15	2.31	0.24
343.15	2.35	0.25
353.15	2.4	0.25

System: 1-hexyl-2,3-dimethylimidazolium tetrafluoroborate + ethylbenzene; phases: Liquid
Fixed: Mole fraction of ethylbenzene = 0
Fixed: Pressure, kPa = 101.325
Property: Activity coefficient of ethylbenzene (Liquid); method: Chromatography
Temperature, K	Activity coefficient of ethylbenzene	uncertainty
313.15	3.81	0.4
323.15	3.84	0.4
333.15	3.88	0.41
343.15	3.93	0.41
353.15	3.95	0.42

System: 1-hexyl-2,3-dimethylimidazolium tetrafluoroborate + 1,2-dimethylbenzene; phases: Liquid
Fixed: Mole fraction of 1,2-dimethylbenzene = 0
Fixed: Pressure, kPa = 101.325
Property: Activity coefficient of 1,2-dimethylbenzene (Liquid); method: Chromatography
Temperature, K	Activity coefficient of 1,2-dimethylbenzene	uncertainty
313.15	2.38	0.25
323.15	2.57	0.27
333.15	2.76	0.29
343.15	2.97	0.31
353.15	3.16	0.33

System: 1-hexyl-2,3-dimethylimidazolium tetrafluoroborate + 1,3-dimethylbenzene; phases: Liquid
Fixed: Mole fraction of 1,3-dimethylbenzene = 0
Fixed: Pressure, kPa = 101.325
Property: Activity coefficient of 1,3-dimethylbenzene (Liquid); method: Chromatography
Temperature, K	Activity coefficient of 1,3-dimethylbenzene	uncertainty
313.15	3.37	0.35
323.15	3.46	0.36
333.15	3.59	0.38
343.15	3.67	0.39
353.15	3.79	0.4

System: 1-hexyl-2,3-dimethylimidazolium tetrafluoroborate + 1,4-dimethylbenzene; phases: Liquid
Fixed: Mole fraction of 1,4-dimethylbenzene = 0
Fixed: Pressure, kPa = 101.325
Property: Activity coefficient of 1,4-dimethylbenzene (Liquid); method: Chromatography
Temperature, K	Activity coefficient of 1,4-dimethylbenzene	uncertainty
313.15	2.84	0.3
323.15	3.05	0.32
333.15	3.29	0.35
343.15	3.51	0.37
353.15	3.76	0.4

System: 1-hexyl-2,3-dimethylimidazolium tetrafluoroborate + acetonitrile; phases: Liquid
Fixed: Mole fraction of acetonitrile = 0
Fixed: Pressure, kPa = 101.325
Property: Activity coefficient of acetonitrile (Liquid); method: Chromatography
Temperature, K	Activity coefficient of acetonitrile	uncertainty
313.15	0.52	0.06
323.15	0.54	0.06
333.15	0.56	0.06
343.15	0.57	0.06
353.15	0.58	0.06

System: 1-hexyl-2,3-dimethylimidazolium tetrafluoroborate + acetone; phases: Liquid
Fixed: Mole fraction of acetone = 0
Fixed: Pressure, kPa = 101.325
Property: Activity coefficient of acetone (Liquid); method: Chromatography
Temperature, K	Activity coefficient of acetone	uncertainty
313.15	0.84	0.09
323.15	0.87	0.09
333.15	0.9	0.09
343.15	0.93	0.09
353.15	0.96	0.1

System: 1-hexyl-2,3-dimethylimidazolium tetrafluoroborate + tetrahydrofuran; phases: Liquid
Fixed: Mole fraction of tetrahydrofuran = 0
Fixed: Pressure, kPa = 101.325
Property: Activity coefficient of tetrahydrofuran (Liquid); method: Chromatography
Temperature, K	Activity coefficient of tetrahydrofuran	uncertainty
313.15	1.6	0.17
323.15	1.62	0.17
333.15	1.63	0.17
343.15	1.65	0.17
353.15	1.58	0.16

System: 1-hexyl-2,3-dimethylimidazolium tetrafluoroborate + ethyl acetate; phases: Liquid
Fixed: Mole fraction of ethyl acetate = 0
Fixed: Pressure, kPa = 101.325
Property: Activity coefficient of ethyl acetate (Liquid); method: Chromatography
Temperature, K	Activity coefficient of ethyl acetate	uncertainty
313.15	2.01	0.21
323.15	2.12	0.22
333.15	2.16	0.23
343.15	2.21	0.23
353.15	2.26	0.24

System: 1-hexyl-2,3-dimethylimidazolium tetrafluoroborate + dichloromethane; phases: Liquid
Fixed: Mole fraction of dichloromethane = 0
Fixed: Pressure, kPa = 101.325
Property: Activity coefficient of dichloromethane (Liquid); method: Chromatography
Temperature, K	Activity coefficient of dichloromethane	uncertainty
313.15	0.7	0.07
323.15	0.74	0.08
333.15	0.8	0.08
343.15	0.87	0.09
353.15	0.93	0.09

System: 1-hexyl-2,3-dimethylimidazolium tetrafluoroborate + trichloromethane; phases: Liquid
Fixed: Mole fraction of trichloromethane = 0
Fixed: Pressure, kPa = 101.325
Property: Activity coefficient of trichloromethane (Liquid); method: Chromatography
Temperature, K	Activity coefficient of trichloromethane	uncertainty
313.15	0.68	0.07
323.15	0.72	0.08
333.15	0.77	0.08
343.15	0.82	0.08
353.15	0.87	0.09

System: 1-hexyl-2,3-dimethylimidazolium tetrafluoroborate + tetrachloromethane; phases: Liquid
Fixed: Mole fraction of tetrachloromethane = 0
Fixed: Pressure, kPa = 101.325
Property: Activity coefficient of tetrachloromethane (Liquid); method: Chromatography
Temperature, K	Activity coefficient of tetrachloromethane	uncertainty
313.15	3.5	0.37
323.15	3.61	0.38
333.15	3.7	0.4
343.15	3.72	0.39
353.15	3.86	0.41

System: 1-hexyl-2,3-dimethylimidazolium tetrafluoroborate + 1,4-dioxane; phases: Liquid
Fixed: Mole fraction of 1,4-dioxane = 0
Fixed: Pressure, kPa = 101.325
Property: Activity coefficient of 1,4-dioxane (Liquid); method: Chromatography
Temperature, K	Activity coefficient of 1,4-dioxane	uncertainty
313.15	1.08	0.11
323.15	1.09	0.11
333.15	1.1	0.11
343.15	1.12	0.11
353.15	1.13	0.12

System: 1-hexyl-2,3-dimethylimidazolium tetrafluoroborate + methanol; phases: Liquid
Fixed: Mole fraction of methanol = 0
Fixed: Pressure, kPa = 101.325
Property: Activity coefficient of methanol (Liquid); method: Chromatography
Temperature, K	Activity coefficient of methanol	uncertainty
313.15	0.96	0.1
323.15	0.91	0.09
333.15	0.86	0.09
343.15	0.82	0.08
353.15	0.78	0.08

System: 1-hexyl-2,3-dimethylimidazolium tetrafluoroborate + ethanol; phases: Liquid
Fixed: Mole fraction of ethanol = 0
Fixed: Pressure, kPa = 101.325
Property: Activity coefficient of ethanol (Liquid); method: Chromatography
Temperature, K	Activity coefficient of ethanol	uncertainty
313.15	1.4	0.14
323.15	1.31	0.13
333.15	1.23	0.13
343.15	1.16	0.12
353.15	1.09	0.11

System: 1-hexyl-2,3-dimethylimidazolium tetrafluoroborate + propan-1-ol; phases: Liquid
Fixed: Mole fraction of propan-1-ol = 0
Fixed: Pressure, kPa = 101.325
Property: Activity coefficient of propan-1-ol (Liquid); method: Chromatography
Temperature, K	Activity coefficient of propan-1-ol	uncertainty
313.15	1.74	0.18
323.15	1.65	0.17
333.15	1.53	0.16
343.15	1.43	0.15
353.15	1.33	0.14

System: 1-hexyl-2,3-dimethylimidazolium tetrafluoroborate + propan-2-ol; phases: Liquid
Fixed: Mole fraction of propan-2-ol = 0
Fixed: Pressure, kPa = 101.325
Property: Activity coefficient of propan-2-ol (Liquid); method: Chromatography
Temperature, K	Activity coefficient of propan-2-ol	uncertainty
313.15	1.75	0.18
323.15	1.67	0.17
333.15	1.58	0.16
343.15	1.46	0.15
353.15	1.39	0.14

System: 1-hexyl-2,3-dimethylimidazolium tetrafluoroborate + butan-1-ol; phases: Liquid
Fixed: Mole fraction of butan-1-ol = 0
Fixed: Pressure, kPa = 101.325
Property: Activity coefficient of butan-1-ol (Liquid); method: Chromatography
Temperature, K	Activity coefficient of butan-1-ol	uncertainty
313.15	2.77	0.29
323.15	2.67	0.28
333.15	2.5	0.3
343.15	2.37	0.25
353.15	2.27	0.24

System: 1-hexyl-2,3-dimethylimidazolium tetrafluoroborate + 2-methyl-1-propanol; phases: Liquid
Fixed: Mole fraction of 2-methyl-1-propanol = 0
Fixed: Pressure, kPa = 101.325
Property: Activity coefficient of 2-methyl-1-propanol (Liquid); method: Chromatography
Temperature, K	Activity coefficient of 2-methyl-1-propanol	uncertainty
313.15	2.28	0.24
323.15	2.15	0.23
333.15	2.01	0.21
343.15	1.9	0.2
353.15	1.85	0.19

System: 1-hexyl-2,3-dimethylimidazolium tetrafluoroborate + butan-2-ol; phases: Liquid
Fixed: Mole fraction of butan-2-ol = 0
Fixed: Pressure, kPa = 101.325
Property: Activity coefficient of butan-2-ol (Liquid); method: Chromatography
Temperature, K	Activity coefficient of butan-2-ol	uncertainty
313.15	2.65	0.28
323.15	2.56	0.27
333.15	2.48	0.26
343.15	2.38	0.25
353.15	2.28	0.24
