Measured thermophysical data. Thermodynamics of proton dissociations from aqueous glycine at temperatures from 278.15 to 393.15 K, molalities from 0 to 1.0 mol.kg-1, and at the pressure 0.35 MPa: Apparent molar heat capacities and apparent molar volumes of glycine, glycinium chloride, and sodium glycinate
Source: J. Chem. Thermodyn., 2006, 10.1016/j.jct.2005.06.017
Compound 1: 2-aminoacetic acid, C2H5NO2, InChI=1S/C2H5NO2/c3-1-2(4)5/h1,3H2,(H,4,5), purity 99.9%
Compound 2: water, H2O, InChI=1S/H2O/h1H2
Compound 3: hydrogen chloride, ClH, InChI=1S/ClH/h1H
Compound 4: sodium hydroxide, HNaO, InChI=1S/Na.H2O/h;1H2/q+1;/p-1

System: 2-aminoacetic acid + water; phases: Liquid
Fixed: Pressure, kPa = 350
Property: Apparent molar heat capacity, J/K/mol (Liquid); method: Extra sensitive DSC
Temperature, K	Molality, mol/kg of 2-aminoacetic acid	Apparent molar heat capacity, J/K/mol	uncertainty
278.15	0.015	8	51.7
278.15	0.03	-15	29
278.15	0.0503	-20.9	17.2
278.15	0.0804	-3	12.7
278.15	0.125	-6.1	8.2
278.15	0.2493	-3.6	4.2
278.15	0.5056	4.4	1.9
283.15	0.015	25	51.7
283.15	0.03	1	29.1
283.15	0.0503	-5	17.2
283.15	0.0804	12.3	12.8
283.15	0.125	10.3	8.3
283.15	0.2493	12.4	4.2
283.15	0.5056	18.7	1.9
288.15	0.015	38	51.7
288.15	0.03	14	29.1
288.15	0.0503	11	17.3
288.15	0.0804	25.5	12.8
288.15	0.125	23.6	8.3
288.15	0.2493	25.3	4.2
288.15	0.5056	30.5	1.8
293.15	0.015	50	51.8
293.15	0.03	25	29.1
293.15	0.0503	24	17.3
293.15	0.0804	36.5	12.3
293.15	0.125	34.1	7.9
293.15	0.2493	35.4	4.1
293.15	0.5056	40.4	1.7
298.15	0.015	59	51.8
298.15	0.03	33	28.6
298.15	0.0503	34.8	17.1
298.15	0.0804	45.4	11.8
298.15	0.125	42.9	7.6
298.15	0.2493	44	3.9
298.15	0.5056	48.3	1.8
303.15	0.015	67	51.8
303.15	0.03	41	28.6
303.15	0.0503	43.7	17.1
303.15	0.0804	52.8	11.8
303.15	0.125	50.1	7.7
303.15	0.2493	51.1	4
303.15	0.5056	55.2	1.8
308.15	0.015	73	51.8
308.15	0.03	48	28.6
308.15	0.0503	51	17.1
308.15	0.0804	59.1	11.9
308.15	0.125	55.8	7.6
308.15	0.2493	57	3.9
308.15	0.5056	60.9	1.8
313.15	0.015	78	51.8
313.15	0.03	54	28.6
313.15	0.0503	57.3	17
313.15	0.0804	64.5	11.7
313.15	0.125	61.3	7.6
313.15	0.2493	62.4	4
313.15	0.5056	66	1.8
318.15	0.015	83	51.8
318.15	0.03	59	28.6
318.15	0.0503	62.2	17
318.15	0.0804	68.8	11.8
318.15	0.125	65.7	7.7
318.15	0.2493	66.8	4
318.15	0.5056	70.2	1.8
323.15	0.015	86	51.8
323.15	0.03	63	28.1
323.15	0.0503	66.8	16.9
323.15	0.0804	72.7	11.7
323.15	0.125	69.3	7.6
323.15	0.2493	70.6	4
323.15	0.5056	73.9	1.9
328.15	0.015	90	51.9
328.15	0.03	67	28.1
328.15	0.0503	70.8	16.8
328.15	0.0804	76	11.6
328.15	0.125	72.6	7.5
328.15	0.2493	73.8	3.9
328.15	0.5056	77.1	1.9
333.15	0.015	92	51.9
333.15	0.03	70	28.1
333.15	0.0503	74.5	16.7
333.15	0.0804	79	11.6
333.15	0.125	75.4	7.5
333.15	0.2493	76.7	3.9
333.15	0.5056	80	1.9
338.15	0.015	95	51.9
338.15	0.03	73	28.1
338.15	0.0503	78	16.6
338.15	0.0804	81.6	11.6
338.15	0.125	77.9	7.6
338.15	0.2493	79.2	3.9
338.15	0.5056	82.5	1.9
343.15	0.015	97	51.9
343.15	0.03	75	27.6
343.15	0.0503	80.6	16.5
343.15	0.0804	83.6	11.6
343.15	0.125	80	7.6
343.15	0.2493	81.3	3.9
343.15	0.5056	84.6	1.9
348.15	0.015	99	51.9
348.15	0.03	77	27.6
348.15	0.0503	83.1	16.5
348.15	0.0804	85.6	11.7
348.15	0.125	81.8	7.6
348.15	0.2493	83.1	3.9
348.15	0.5056	86.4	1.9
353.15	0.015	101	51.9
353.15	0.03	79	27.6
353.15	0.0503	85.3	16.5
353.15	0.0804	87.3	11.8
353.15	0.125	83.4	7.6
353.15	0.2493	84.8	4
353.15	0.5056	88.1	1.9
358.15	0.015	102	51.9
358.15	0.03	81	27.6
358.15	0.0503	87.1	16.5
358.15	0.0804	88.9	11.8
358.15	0.125	84.8	7.7
358.15	0.2493	86.2	4
358.15	0.5056	89.5	1.9
363.15	0.015	103	51.9
363.15	0.03	82	27.6
363.15	0.0503	88.9	16.6
363.15	0.0804	90.2	11.9
363.15	0.125	86	7.7
363.15	0.2493	87.3	4
363.15	0.5056	90.7	1.9
368.15	0.015	104	51.9
368.15	0.03	83	27.6
368.15	0.0503	90.2	16.5
368.15	0.0804	91	11.8
368.15	0.125	86.9	7.7
368.15	0.2493	88.3	4
368.15	0.5056	91.6	1.9
373.15	0.015	104	51.9
373.15	0.03	83	27.6
373.15	0.0503	91.1	16.4
373.15	0.0804	91.7	11.8
373.15	0.125	87.5	7.7
373.15	0.2493	89	4
373.15	0.5056	92.4	1.9
378.15	0.015	104	51.9
378.15	0.03	83	27.1
378.15	0.0503	92.1	16.4
378.15	0.0804	92.3	11.8
378.15	0.125	87.9	7.6
378.15	0.2493	89.4	3.9
378.15	0.5056	92.9	1.9
383.15	0.015	103.9	51.9
383.15	0.03	84	27.6
383.15	0.0503	93.3	16.4
383.15	0.0804	92.9	11.7
383.15	0.125	88.2	7.6
383.15	0.2493	89.9	3.9
383.15	0.5056	93.3	2
388.15	0.015	103.5	51.9
388.15	0.03	84	27.6
388.15	0.0503	94.5	16.4
388.15	0.0804	93.1	11.7
388.15	0.125	88.2	7.6
388.15	0.2493	90	3.9
388.15	0.5056	93.6	2
393.15	0.015	101.4	51.9
393.15	0.03	84	27.6
393.15	0.0503	95.6	16.5
393.15	0.0804	92.9	11.5
393.15	0.125	87.7	7.4
393.15	0.2493	89.7	3.9
393.15	0.5056	93.6	1.9

System: 2-aminoacetic acid + water; phases: Liquid
Fixed: Pressure, kPa = 350
Property: Apparent molar volume, m3/mol (Liquid); method: Calculated with densities of this investigation
Temperature, K	Molality, mol/kg of 2-aminoacetic acid	Apparent molar volume, m3/mol	uncertainty
278.15	0.015	4.4e-05	1.138e-05
278.15	0.03	4.78e-05	2.06e-06
278.15	0.0503	5.204e-05	1.29e-06
278.15	0.0804	4.66e-05	7.6e-07
278.15	0.125	4.35e-05	5.5e-07
278.15	0.2493	4.1e-05	2.7e-07
278.15	0.5056	4.195e-05	1.8e-07
278.15	1.0027	4.286e-05	2e-07
283.15	0.015	4.67e-05	4.19e-06
283.15	0.03	4.81e-05	2.49e-06
283.15	0.0503	4.912e-05	1.56e-06
283.15	0.0804	4.551e-05	9.5e-07
283.15	0.125	4.334e-05	5.3e-07
283.15	0.2493	4.199e-05	3.3e-07
283.15	0.5056	4.238e-05	2e-07
283.15	1.0027	4.33e-05	1.4e-07
288.15	0.015	4.4e-05	7.13e-06
288.15	0.03	4.74e-05	2.4e-06
288.15	0.0503	5.072e-05	1.12e-06
288.15	0.0804	4.668e-05	6.4e-07
288.15	0.125	4.441e-05	5.4e-07
288.15	0.2493	4.223e-05	2.2e-07
288.15	0.5056	4.295e-05	1.6e-07
288.15	1.0027	4.375e-05	1.2e-07
298.15	0.015	4.7e-05	5.16e-06
298.15	0.03	4.787e-05	1.84e-06
298.15	0.0503	4.983e-05	1.09e-06
298.15	0.0804	4.645e-05	6.4e-07
298.15	0.125	4.48e-05	4.3e-07
298.15	0.2493	4.312e-05	2.2e-07
298.15	0.5056	4.373e-05	1.6e-07
298.15	1.0027	4.44e-05	1e-07
308.15	0.015	4.63e-05	6.14e-06
308.15	0.03	4.671e-05	1.77e-06
308.15	0.0503	4.91e-05	1.08e-06
308.15	0.0804	4.638e-05	6.4e-07
308.15	0.125	4.514e-05	4.5e-07
308.15	0.2493	4.366e-05	2.3e-07
308.15	0.5056	4.427e-05	1.6e-07
308.15	1.0027	4.489e-05	1.1e-07
318.15	0.015	4.25e-05	3.09e-06
318.15	0.03	4.654e-05	1.75e-06
318.15	0.0503	4.834e-05	1.06e-06
318.15	0.0804	4.661e-05	6.4e-07
318.15	0.125	4.539e-05	4.3e-07
318.15	0.2493	4.415e-05	2.3e-07
318.15	0.5056	4.462e-05	1.5e-07
318.15	1.0027	4.524e-05	1.2e-07
328.15	0.015	4.09e-05	3.15e-06
328.15	0.03	4.635e-05	1.83e-06
328.15	0.0503	4.729e-05	1.04e-06
328.15	0.0804	4.667e-05	6.4e-07
328.15	0.125	4.551e-05	4.3e-07
328.15	0.2493	4.449e-05	2.2e-07
328.15	0.5056	4.472e-05	1.5e-07
328.15	1.0027	4.549e-05	2e-07
338.15	0.015	3.94e-05	4.94e-06
338.15	0.03	4.125e-05	1.59e-06
338.15	0.0503	4.576e-05	1.77e-06
338.15	0.0804	4.701e-05	1.12e-06
338.15	0.125	4.494e-05	5.7e-07
338.15	0.2493	4.448e-05	3.8e-07
338.15	0.5056	4.495e-05	2.1e-07
338.15	1.0027	4.552e-05	9e-08
348.15	0.015	4.69e-05	3.43e-06
348.15	0.03	4.64e-05	1.7e-06
348.15	0.0503	4.704e-05	1.03e-06
348.15	0.0804	4.624e-05	6.4e-07
348.15	0.125	4.55e-05	4e-07
348.15	0.2493	4.467e-05	2.4e-07
348.15	0.5056	4.5e-05	1.6e-07
348.15	1.0027	4.556e-05	9e-08
358.15	0.015	4.69e-05	3.52e-06
358.15	0.03	4.509e-05	1.65e-06
358.15	0.0503	4.623e-05	1.01e-06
358.15	0.0804	4.594e-05	6.3e-07
358.15	0.125	4.524e-05	4e-07
358.15	0.2493	4.449e-05	2.4e-07
358.15	0.5056	4.495e-05	1.6e-07
358.15	1.0027	4.551e-05	1e-07
368.15	0.015	4.634e-05	3.39e-06
368.15	0.03	4.49e-05	2.27e-06
368.15	0.0503	4.573e-05	1.09e-06
368.15	0.0804	4.672e-05	7e-07
368.15	0.125	4.538e-05	4.9e-07
368.15	0.2493	4.452e-05	2.6e-07
368.15	0.5056	4.496e-05	1.7e-07
368.15	1.0027	4.539e-05	7e-08

System: 2-aminoacetic acid + hydrogen chloride + water; phases: Liquid
Fixed: Pressure, kPa = 350
Property: Apparent molar heat capacity, J/K/mol (Liquid); method: Extra sensitive DSC
Temperature, K	Molality, mol/kg of 2-aminoacetic acid	Molality, mol/kg of hydrogen chloride	Apparent molar heat capacity, J/K/mol	uncertainty
278.15	0.0075	0.0075	35	103.4
278.15	0.0151	0.0151	-35.1	51.2
278.15	0.0309	0.031	-92.6	24.8
278.15	0.0499	0.0501	-26.3	15.4
278.15	0.0805	0.0807	-20.4	10
278.15	0.1001	0.1004	-16.1	8
278.15	0.1752	0.1757	-8.6	5.1
278.15	0.2985	0.2994	1.8	3.2
278.15	0.4963	0.4978	12.3	2.3
283.15	0.0075	0.0075	35	103.4
283.15	0.0151	0.0151	-17.5	51.3
283.15	0.0309	0.031	-71.9	24.8
283.15	0.0499	0.0501	-8.7	15.4
283.15	0.0805	0.0807	-2.9	9.9
283.15	0.1001	0.1004	1.1	8
283.15	0.1752	0.1757	7.9	5.1
283.15	0.2985	0.2994	17.5	3.2
283.15	0.4963	0.4978	26.9	2.3
288.15	0.0075	0.0075	33	103.4
288.15	0.0151	0.0151	-2.6	51.3
288.15	0.0309	0.031	-54.9	24.9
288.15	0.0499	0.0501	5.5	15.5
288.15	0.0805	0.0807	11.4	10
288.15	0.1001	0.1004	15.1	8
288.15	0.1752	0.1757	21.1	5.1
288.15	0.2985	0.2994	30.1	3.1
288.15	0.4963	0.4978	38.8	2.4
293.15	0.0075	0.0075	30	103.4
293.15	0.0151	0.0151	7.9	51.3
293.15	0.0309	0.031	-42.4	24.9
293.15	0.0499	0.0501	16.5	15.5
293.15	0.0805	0.0807	22.4	9.9
293.15	0.1001	0.1004	25.9	8.1
293.15	0.1752	0.1757	31.9	5.1
293.15	0.2985	0.2994	40.2	3.2
293.15	0.4963	0.4978	48.2	2.4
298.15	0.0075	0.0075	27	103.4
298.15	0.0151	0.0151	13.8	51.3
298.15	0.0309	0.031	-33.8	24.9
298.15	0.0499	0.0501	24.7	15.5
298.15	0.0805	0.0807	30.7	10
298.15	0.1001	0.1004	34.2	8.1
298.15	0.1752	0.1757	40.2	5.2
298.15	0.2985	0.2994	47.9	3.2
298.15	0.4963	0.4978	55.6	2.4
303.15	0.0075	0.0075	25	103.3
303.15	0.0151	0.0151	17.7	51.3
303.15	0.0309	0.031	-26.9	24.9
303.15	0.0499	0.0501	31.1	15.5
303.15	0.0805	0.0807	37.5	10
303.15	0.1001	0.1004	40.8	8.1
303.15	0.1752	0.1757	46.9	5.2
303.15	0.2985	0.2994	54.4	3.2
303.15	0.4963	0.4978	61.8	2.3
308.15	0.0075	0.0075	23	103.3
308.15	0.0151	0.0151	20.6	51.4
308.15	0.0309	0.031	-21.9	24.9
308.15	0.0499	0.0501	36.1	15.6
308.15	0.0805	0.0807	42.6	10
308.15	0.1001	0.1004	46	8
308.15	0.1752	0.1757	52.1	5.2
308.15	0.2985	0.2994	59.4	3.2
308.15	0.4963	0.4978	66.6	2.3
313.15	0.0075	0.0075	22	103.3
313.15	0.0151	0.0151	23.3	51.4
313.15	0.0309	0.031	-16.6	25
313.15	0.0499	0.0501	40.2	15.6
313.15	0.0805	0.0807	46.6	9.9
313.15	0.1001	0.1004	49.8	8.1
313.15	0.1752	0.1757	56.1	5.2
313.15	0.2985	0.2994	63.6	3.2
313.15	0.4963	0.4978	70.6	2.3
318.15	0.0075	0.0075	21	103.3
318.15	0.0151	0.0151	24	51.4
318.15	0.0309	0.031	-14.5	25
318.15	0.0499	0.0501	42.6	15.6
318.15	0.0805	0.0807	49.1	9.9
318.15	0.1001	0.1004	52.3	8.1
318.15	0.1752	0.1757	59	5.2
318.15	0.2985	0.2994	66.4	3.2
318.15	0.4963	0.4978	73.4	2.3
323.15	0.0075	0.0075	20	103.3
323.15	0.0151	0.0151	23.7	51.4
323.15	0.0309	0.031	-13.2	25
323.15	0.0499	0.0501	44.4	15.6
323.15	0.0805	0.0807	51.1	10
323.15	0.1001	0.1004	54.1	8.1
323.15	0.1752	0.1757	61.3	5.2
323.15	0.2985	0.2994	68.8	3.2
323.15	0.4963	0.4978	75.8	2.3
328.15	0.0075	0.0075	18	103.3
328.15	0.0151	0.0151	23.4	51.4
328.15	0.0309	0.031	-11.9	25
328.15	0.0499	0.0501	45.7	15.6
328.15	0.0805	0.0807	52.4	10
328.15	0.1001	0.1004	55.5	8.1
328.15	0.1752	0.1757	63.1	5.2
328.15	0.2985	0.2994	70.7	3.2
328.15	0.4963	0.4978	77.7	2.3
333.15	0.0075	0.0075	17	103.3
333.15	0.0151	0.0151	23.5	51.4
333.15	0.0309	0.031	-11.3	25
333.15	0.0499	0.0501	46.8	15.6
333.15	0.0805	0.0807	53.4	10
333.15	0.1001	0.1004	56.6	8.1
333.15	0.1752	0.1757	64.5	5.2
333.15	0.2985	0.2994	72.2	3.2
333.15	0.4963	0.4978	79.4	2.3
338.15	0.0075	0.0075	17	103.3
338.15	0.0151	0.0151	22.3	51.4
338.15	0.0309	0.031	-10.7	25
338.15	0.0499	0.0501	47.3	15.6
338.15	0.0805	0.0807	54.2	10
338.15	0.1001	0.1004	57.4	8.1
338.15	0.1752	0.1757	65.5	5.2
338.15	0.2985	0.2994	73.4	3.2
338.15	0.4963	0.4978	80.6	2.3
343.15	0.0075	0.0075	17	103.3
343.15	0.0151	0.0151	22.7	51.4
343.15	0.0309	0.031	-10.8	25
343.15	0.0499	0.0501	47.6	15.6
343.15	0.0805	0.0807	54.4	10
343.15	0.1001	0.1004	57.7	8.1
343.15	0.1752	0.1757	66	5.2
343.15	0.2985	0.2994	73.9	3.2
343.15	0.4963	0.4978	81.2	2.3
348.15	0.0075	0.0075	16	103.3
348.15	0.0151	0.0151	22.3	51.4
348.15	0.0309	0.031	-10.9	25
348.15	0.0499	0.0501	47.5	15.6
348.15	0.0805	0.0807	54.4	10
348.15	0.1001	0.1004	57.8	8.1
348.15	0.1752	0.1757	66.2	5.1
348.15	0.2985	0.2994	74.2	3.2
348.15	0.4963	0.4978	81.6	2.3
353.15	0.0075	0.0075	16	103.3
353.15	0.0151	0.0151	22	51.4
353.15	0.0309	0.031	-10.3	25
353.15	0.0499	0.0501	47.7	15.6
353.15	0.0805	0.0807	54.6	10
353.15	0.1001	0.1004	57.9	8.1
353.15	0.1752	0.1757	66.3	5.1
353.15	0.2985	0.2994	74.4	3.2
353.15	0.4963	0.4978	82.1	2.3
358.15	0.0075	0.0075	15	103.3
358.15	0.0151	0.0151	21.9	51.4
358.15	0.0309	0.031	-10.5	25
358.15	0.0499	0.0501	47.4	15.6
358.15	0.0805	0.0807	54.3	10
358.15	0.1001	0.1004	57.7	8.1
358.15	0.1752	0.1757	66.1	5.1
358.15	0.2985	0.2994	74.3	3.2
358.15	0.4963	0.4978	82.2	2.3
363.15	0.0075	0.0075	15	103.3
363.15	0.0151	0.0151	21	51.4
363.15	0.0309	0.031	-11.2	25
363.15	0.0499	0.0501	46.4	15.6
363.15	0.0805	0.0807	53.5	10
363.15	0.1001	0.1004	56.9	8.1
363.15	0.1752	0.1757	65.4	5.1
363.15	0.2985	0.2994	73.8	3.2
363.15	0.4963	0.4978	81.9	2.3
368.15	0.0075	0.0075	15	103.3
368.15	0.0151	0.0151	19.3	51.4
368.15	0.0309	0.031	-12.6	25
368.15	0.0499	0.0501	45.4	15.6
368.15	0.0805	0.0807	52.3	10
368.15	0.1001	0.1004	55.8	8.1
368.15	0.1752	0.1757	64.4	5.1
368.15	0.2985	0.2994	73	3.2
368.15	0.4963	0.4978	81.3	2.3
373.15	0.0075	0.0075	15	103.3
373.15	0.0151	0.0151	18.3	51.3
373.15	0.0309	0.031	-13.8	25
373.15	0.0499	0.0501	43.9	15.6
373.15	0.0805	0.0807	51	10
373.15	0.1001	0.1004	54.5	8.1
373.15	0.1752	0.1757	63.1	5.1
373.15	0.2985	0.2994	72	3.2
373.15	0.4963	0.4978	80.5	2.3
378.15	0.0075	0.0075	15	103.3
378.15	0.0151	0.0151	14.1	51.3
378.15	0.0309	0.031	-17.3	25
378.15	0.0499	0.0501	41.3	15.6
378.15	0.0805	0.0807	48.6	9.9
378.15	0.1001	0.1004	52.3	8.1
378.15	0.1752	0.1757	61.2	5.1
378.15	0.2985	0.2994	70.3	3.2
378.15	0.4963	0.4978	79.2	2.3
383.15	0.0075	0.0075	14	103.3
383.15	0.0151	0.0151	12.5	51.3
383.15	0.0309	0.031	-19.6	24.9
383.15	0.0499	0.0501	39.4	15.6
383.15	0.0805	0.0807	46.6	9.9
383.15	0.1001	0.1004	50.5	8.1
383.15	0.1752	0.1757	59.3	5.1
383.15	0.2985	0.2994	68.8	3.2
383.15	0.4963	0.4978	78	2.3
388.15	0.0075	0.0075	15	103.3
388.15	0.0151	0.0151	8	51.3
388.15	0.0309	0.031	-23	24.9
388.15	0.0499	0.0501	36.3	15.6
388.15	0.0805	0.0807	43.7	9.9
388.15	0.1001	0.1004	47.8	8.1
388.15	0.1752	0.1757	56.7	5.1
388.15	0.2985	0.2994	66.6	3.2
388.15	0.4963	0.4978	76.2	2.3
393.15	0.0075	0.0075	17	103.3
393.15	0.0151	0.0151	1.1	51.3
393.15	0.0309	0.031	-27.5	24.9
393.15	0.0499	0.0501	32.9	15.5
393.15	0.0805	0.0807	39.7	9.9
393.15	0.1001	0.1004	44.5	8
393.15	0.1752	0.1757	53.8	5.1
393.15	0.2985	0.2994	64	3.2
393.15	0.4963	0.4978	73.9	2.3

System: 2-aminoacetic acid + hydrogen chloride + water; phases: Liquid
Fixed: Pressure, kPa = 350
Property: Apparent molar volume, m3/mol (Liquid); method: Calculated with densities of this investigation
Temperature, K	Molality, mol/kg of 2-aminoacetic acid	Molality, mol/kg of hydrogen chloride	Apparent molar volume, m3/mol	uncertainty
278.15	0.0075	0.0075	9.1e-05	3.222e-05
278.15	0.0151	0.0151	6.79e-05	1.134e-05
278.15	0.0309	0.031	4.97e-05	3.87e-06
278.15	0.0499	0.0501	5.71e-05	2.81e-06
278.15	0.0805	0.0807	6.01e-05	1.85e-06
278.15	0.1001	0.1004	6.61e-05	2.51e-06
278.15	0.1752	0.1757	6.48e-05	1.39e-06
278.15	0.2985	0.2994	6.62e-05	1.4e-06
278.15	0.4963	0.4978	6.59e-05	6.7e-07
278.15	0.9966	0.9996	6.59e-05	2.5e-07
283.15	0.0075	0.0075	8.91e-05	3.142e-05
283.15	0.0151	0.0151	5.61e-05	9.11e-06
283.15	0.0309	0.031	5.4e-05	4.25e-06
283.15	0.0499	0.0501	5.91e-05	2.92e-06
283.15	0.0805	0.0807	6.18e-05	1.91e-06
283.15	0.1001	0.1004	6.46e-05	2.82e-06
283.15	0.1752	0.1757	6.55e-05	1.64e-06
283.15	0.2985	0.2994	6.65e-05	7.9e-07
283.15	0.4963	0.4978	6.67e-05	6.8e-07
283.15	0.9966	0.9996	6.68e-05	2.6e-07
288.15	0.0075	0.0075	7.98e-05	2.756e-05
288.15	0.0151	0.0151	6.69e-05	1.115e-05
288.15	0.0309	0.031	5.65e-05	4.48e-06
288.15	0.0499	0.0501	6.09e-05	3.02e-06
288.15	0.0805	0.0807	6.3e-05	1.95e-06
288.15	0.1001	0.1004	6.66e-05	2.84e-06
288.15	0.1752	0.1757	6.61e-05	1.65e-06
288.15	0.2985	0.2994	6.72e-05	1.04e-06
288.15	0.4963	0.4978	6.74e-05	6.8e-07
288.15	0.9966	0.9996	6.73e-05	1.9e-07
298.15	0.0075	0.0075	4e-05	1.969e-05
298.15	0.0151	0.0151	5e-05	1.759e-05
298.15	0.0309	0.031	4.32e-05	5.93e-06
298.15	0.0499	0.0501	5.95e-05	5.76e-06
298.15	0.0805	0.0807	6.37e-05	3.67e-06
298.15	0.1001	0.1004	6.74e-05	2.77e-06
298.15	0.1752	0.1757	6.72e-05	1.57e-06
298.15	0.2985	0.2994	6.81e-05	8.8e-07
298.15	0.4963	0.4978	6.85e-05	6.8e-07
298.15	0.9966	0.9996	6.83e-05	1.9e-07
308.15	0.0075	0.0075	7.37e-05	2.51e-05
308.15	0.0151	0.0151	6.58e-05	1.093e-05
308.15	0.0309	0.031	5.859e-05	4.67e-06
308.15	0.0499	0.0501	6.471e-05	3.24e-06
308.15	0.0805	0.0807	6.608e-05	2.06e-06
308.15	0.1001	0.1004	6.8e-05	2.62e-06
308.15	0.1752	0.1757	6.8e-05	1.5e-06
308.15	0.2985	0.2994	6.872e-05	9.2e-07
308.15	0.4963	0.4978	6.931e-05	6.5e-07
308.15	0.9966	0.9996	6.914e-05	2.2e-07
318.15	0.0075	0.0075	7.52e-05	2.57e-05
318.15	0.0151	0.0151	6.8e-05	1.136e-05
318.15	0.0309	0.031	6.268e-05	5.04e-06
318.15	0.0499	0.0501	6.528e-05	3.27e-06
318.15	0.0805	0.0807	6.688e-05	2.09e-06
318.15	0.1001	0.1004	6.84e-05	2.47e-06
318.15	0.1752	0.1757	6.88e-05	1.43e-06
318.15	0.2985	0.2994	6.919e-05	7.7e-07
318.15	0.4963	0.4978	6.994e-05	6.3e-07
318.15	0.9966	0.9996	6.973e-05	2.4e-07
328.15	0.0075	0.0075	7.17e-05	2.431e-05
328.15	0.0151	0.0151	7.33e-05	1.239e-05
328.15	0.0309	0.031	6.325e-05	5.09e-06
328.15	0.0499	0.0501	6.638e-05	3.33e-06
328.15	0.0805	0.0807	6.754e-05	2.11e-06
328.15	0.1001	0.1004	6.86e-05	2.32e-06
328.15	0.1752	0.1757	6.904e-05	1.35e-06
328.15	0.2985	0.2994	6.952e-05	6.5e-07
328.15	0.4963	0.4978	7.01e-05	6.1e-07
328.15	0.9966	0.9996	7.015e-05	2e-07
338.15	0.0075	0.0075	7.07e-05	2.392e-05
338.15	0.0151	0.0151	7.2e-05	1.214e-05
338.15	0.0309	0.031	6.432e-05	5.19e-06
338.15	0.0499	0.0501	6.699e-05	3.37e-06
338.15	0.0805	0.0807	6.701e-05	2.09e-06
338.15	0.1001	0.1004	6.9e-05	1.93e-06
338.15	0.1752	0.1757	6.926e-05	1.1e-06
338.15	0.2985	0.2994	6.979e-05	7e-07
338.15	0.4963	0.4978	7.042e-05	5.4e-07
338.15	0.9966	0.9996	7.044e-05	1.9e-07
348.15	0.0075	0.0075	7.53e-05	2.574e-05
348.15	0.0151	0.0151	7.11e-05	1.196e-05
348.15	0.0309	0.031	6.529e-05	5.28e-06
348.15	0.0499	0.0501	6.715e-05	3.38e-06
348.15	0.0805	0.0807	6.817e-05	2.14e-06
348.15	0.1001	0.1004	6.83e-05	2.39e-06
348.15	0.1752	0.1757	6.91e-05	1.35e-06
348.15	0.2985	0.2994	6.967e-05	6.9e-07
348.15	0.4963	0.4978	7.055e-05	6.2e-07
348.15	0.9966	0.9996	7.061e-05	1.9e-07
358.15	0.0075	0.0075	7.28e-05	2.475e-05
358.15	0.0151	0.0151	7.01e-05	1.177e-05
358.15	0.0309	0.031	6.45e-05	5.21e-06
358.15	0.0499	0.0501	6.736e-05	3.39e-06
358.15	0.0805	0.0807	6.792e-05	2.13e-06
358.15	0.1001	0.1004	6.84e-05	2.25e-06
358.15	0.1752	0.1757	6.896e-05	1.27e-06
358.15	0.2985	0.2994	6.955e-05	6.7e-07
358.15	0.4963	0.4978	7.039e-05	5.9e-07
358.15	0.9966	0.9996	7.064e-05	1.9e-07
368.15	0.0075	0.0075	6.03e-05	1.991e-05
368.15	0.0151	0.0151	6.37e-05	1.053e-05
368.15	0.0309	0.031	6.07e-05	5.47e-06
368.15	0.0499	0.0501	6.36e-05	4.32e-06
368.15	0.0805	0.0807	6.59e-05	2.74e-06
368.15	0.1001	0.1004	6.64e-05	2.36e-06
368.15	0.1752	0.1757	6.84e-05	1.35e-06
368.15	0.2985	0.2994	6.936e-05	6.4e-07
368.15	0.4963	0.4978	7.014e-05	6.3e-07
368.15	0.9966	0.9996	7.052e-05	1.9e-07

System: 2-aminoacetic acid + sodium hydroxide + water; phases: Liquid
Fixed: Pressure, kPa = 350
Property: Apparent molar heat capacity, J/K/mol (Liquid); method: Extra sensitive DSC
Temperature, K	Molality, mol/kg of 2-aminoacetic acid	Molality, mol/kg of sodium hydroxide	Apparent molar heat capacity, J/K/mol	uncertainty
278.15	0.015	0.0148	-71.3	53.7
278.15	0.03	0.0296	-68.2	27.5
278.15	0.0495	0.0489	-60	17.5
278.15	0.085	0.084	-56	11.6
278.15	0.1746	0.1725	-45	8.1
278.15	0.3487	0.3446	-24.1	6.7
278.15	0.653	0.6453	1.1	3.3
283.15	0.015	0.0148	-38.6	53.3
283.15	0.03	0.0296	-35.4	27.2
283.15	0.0495	0.0489	-28.1	17.2
283.15	0.085	0.084	-24.9	11.2
283.15	0.1746	0.1725	-15.6	7.7
283.15	0.3487	0.3446	2.3	6.3
283.15	0.653	0.6453	23.8	3.1
288.15	0.015	0.0148	-13.4	52.8
288.15	0.03	0.0296	-10.6	26.9
288.15	0.0495	0.0489	-3.9	17
288.15	0.085	0.084	-1	11
288.15	0.1746	0.1725	7.5	7.4
288.15	0.3487	0.3446	23.2	6.1
288.15	0.653	0.6453	41.8	3
293.15	0.015	0.0148	9	52.4
293.15	0.03	0.0296	9.8	26.7
293.15	0.0495	0.0489	15.8	16.8
293.15	0.085	0.084	18.3	10.9
293.15	0.1746	0.1725	26	7.2
293.15	0.3487	0.3446	40.2	5.8
293.15	0.653	0.6453	56.7	3
298.15	0.015	0.0148	26.5	52.4
298.15	0.03	0.0296	26.5	26.4
298.15	0.0495	0.0489	31.9	16.6
298.15	0.085	0.084	34	10.7
298.15	0.1746	0.1725	41.1	7
298.15	0.3487	0.3446	54	5.6
298.15	0.653	0.6453	68.9	2.9
303.15	0.015	0.0148	41	52.4
303.15	0.03	0.0296	40.8	26.3
303.15	0.0495	0.0489	45.3	16.5
303.15	0.085	0.084	46.9	10.5
303.15	0.1746	0.1725	53.7	6.9
303.15	0.3487	0.3446	65.6	5.5
303.15	0.653	0.6453	79.2	2.8
308.15	0.015	0.0148	52.2	52.5
308.15	0.03	0.0296	52.2	26.3
308.15	0.0495	0.0489	56.2	16.4
308.15	0.085	0.084	57.7	10.4
308.15	0.1746	0.1725	64	6.7
308.15	0.3487	0.3446	75.4	5.4
308.15	0.653	0.6453	88	2.7
313.15	0.015	0.0148	62.4	52.5
313.15	0.03	0.0296	61.7	26.3
313.15	0.0495	0.0489	65.5	16.2
313.15	0.085	0.084	66.7	10.3
313.15	0.1746	0.1725	72.9	6.6
313.15	0.3487	0.3446	83.7	5.3
313.15	0.653	0.6453	95.5	2.6
318.15	0.015	0.0148	70.1	52.5
318.15	0.03	0.0296	69.4	26.3
318.15	0.0495	0.0489	73.1	16.1
318.15	0.085	0.084	74.1	10.2
318.15	0.1746	0.1725	80.1	6.6
318.15	0.3487	0.3446	90.5	5.2
318.15	0.653	0.6453	101.8	2.7
323.15	0.015	0.0148	76.7	52.5
323.15	0.03	0.0296	75.9	26.4
323.15	0.0495	0.0489	79.4	16
323.15	0.085	0.084	80.2	10.2
323.15	0.1746	0.1725	86.2	6.5
323.15	0.3487	0.3446	96.3	5.1
323.15	0.653	0.6453	107.2	2.6
328.15	0.015	0.0148	81.9	52.5
328.15	0.03	0.0296	81.1	26.4
328.15	0.0495	0.0489	84.7	16
328.15	0.085	0.084	85.3	10.1
328.15	0.1746	0.1725	91.3	6.4
328.15	0.3487	0.3446	101.2	5
328.15	0.653	0.6453	111.8	2.6
333.15	0.015	0.0148	86.2	52.5
333.15	0.03	0.0296	85.4	26.4
333.15	0.0495	0.0489	89	16.1
333.15	0.085	0.084	89.6	10
333.15	0.1746	0.1725	95.6	6.4
333.15	0.3487	0.3446	105.3	5
333.15	0.653	0.6453	115.7	2.6
338.15	0.015	0.0148	88.9	52.6
338.15	0.03	0.0296	88.8	26.4
338.15	0.0495	0.0489	92.4	16.1
338.15	0.085	0.084	93.1	10
338.15	0.1746	0.1725	99.1	6.3
338.15	0.3487	0.3446	108.8	5
338.15	0.653	0.6453	119	2.6
343.15	0.015	0.0148	91.2	52.6
343.15	0.03	0.0296	91.3	26.4
343.15	0.0495	0.0489	94.9	16.1
343.15	0.085	0.084	95.7	9.9
343.15	0.1746	0.1725	101.7	6.3
343.15	0.3487	0.3446	111.4	4.9
343.15	0.653	0.6453	121.5	2.5
348.15	0.015	0.0148	92.5	52.6
348.15	0.03	0.0296	93	26.4
348.15	0.0495	0.0489	96.7	16.1
348.15	0.085	0.084	97.6	9.9
348.15	0.1746	0.1725	103.8	6.2
348.15	0.3487	0.3446	113.5	4.9
348.15	0.653	0.6453	123.6	2.5
353.15	0.015	0.0148	92.8	52.6
353.15	0.03	0.0296	93.9	26.4
353.15	0.0495	0.0489	97.8	16.1
353.15	0.085	0.084	99	9.9
353.15	0.1746	0.1725	105.2	6.2
353.15	0.3487	0.3446	115.1	4.9
353.15	0.653	0.6453	125.1	2.5
358.15	0.015	0.0148	92.5	52.6
358.15	0.03	0.0296	94.1	26.4
358.15	0.0495	0.0489	98.4	16.1
358.15	0.085	0.084	99.6	9.8
358.15	0.1746	0.1725	106.1	6.2
358.15	0.3487	0.3446	116.1	4.9
358.15	0.653	0.6453	126.2	2.5
363.15	0.015	0.0148	91	52.6
363.15	0.03	0.0296	93.3	26.4
363.15	0.0495	0.0489	98.1	16.1
363.15	0.085	0.084	99.6	9.8
363.15	0.1746	0.1725	106.3	6.2
363.15	0.3487	0.3446	116.5	4.9
363.15	0.653	0.6453	126.7	2.5
368.15	0.015	0.0148	89.8	52.6
368.15	0.03	0.0296	92.4	26.4
368.15	0.0495	0.0489	97.2	16.1
368.15	0.085	0.084	99	9.8
368.15	0.1746	0.1725	106.1	6.2
368.15	0.3487	0.3446	116.5	4.9
368.15	0.653	0.6453	126.8	2.5
373.15	0.015	0.0148	87.9	52.5
373.15	0.03	0.0296	90.7	26.4
373.15	0.0495	0.0489	95.9	16.1
373.15	0.085	0.084	97.9	9.8
373.15	0.1746	0.1725	105.3	6.2
373.15	0.3487	0.3446	115.9	4.9
373.15	0.653	0.6453	126.5	2.5
378.15	0.015	0.0148	84.9	52.5
378.15	0.03	0.0296	88.1	26.4
378.15	0.0495	0.0489	93.8	16.1
378.15	0.085	0.084	96.1	9.8
378.15	0.1746	0.1725	103.9	6.2
378.15	0.3487	0.3446	114.9	4.9
378.15	0.653	0.6453	125.6	2.5
383.15	0.015	0.0148	81.6	52.5
383.15	0.03	0.0296	85.6	26.4
383.15	0.0495	0.0489	91.4	16.1
383.15	0.085	0.084	93.9	9.8
383.15	0.1746	0.1725	102.2	6.3
383.15	0.3487	0.3446	113.5	5
383.15	0.653	0.6453	124.5	2.5
388.15	0.015	0.0148	78.2	52.5
388.15	0.03	0.0296	82.5	26.4
388.15	0.0495	0.0489	88.5	16.1
388.15	0.085	0.084	91.4	9.8
388.15	0.1746	0.1725	99.9	6.3
388.15	0.3487	0.3446	111.6	5
388.15	0.653	0.6453	123	2.5
393.15	0.015	0.0148	74	52.5
393.15	0.03	0.0296	78.2	26.4
393.15	0.0495	0.0489	84.5	16
393.15	0.085	0.084	87.9	9.9
393.15	0.1746	0.1725	97	6.4
393.15	0.3487	0.3446	109.2	5
393.15	0.653	0.6453	121	2.6

System: 2-aminoacetic acid + sodium hydroxide + water; phases: Liquid
Fixed: Pressure, kPa = 350
Property: Apparent molar volume, m3/mol (Liquid); method: Calculated with densities of this investigation
Temperature, K	Molality, mol/kg of 2-aminoacetic acid	Molality, mol/kg of sodium hydroxide	Apparent molar volume, m3/mol	uncertainty
278.15	0.085	0.084	3.83e-05	5.57e-06
278.15	0.1746	0.1725	4.27e-05	1.67e-06
278.15	0.3487	0.3446	4.07e-05	1.32e-06
278.15	0.653	0.6453	4.196e-05	6.7e-07
283.15	0.085	0.084	3.99e-05	2.2e-06
283.15	0.1746	0.1725	4.2e-05	1.39e-06
283.15	0.3487	0.3446	4.19e-05	1.22e-06
283.15	0.653	0.6453	4.297e-05	6e-07
288.15	0.085	0.084	4.1e-05	1.61e-06
288.15	0.1746	0.1725	4.26e-05	1.29e-06
288.15	0.3487	0.3446	4.29e-05	1.13e-06
288.15	0.653	0.6453	4.381e-05	5.9e-07
298.15	0.085	0.084	4.26e-05	1.48e-06
298.15	0.1746	0.1725	4.38e-05	1.21e-06
298.15	0.3487	0.3446	4.42e-05	1.13e-06
298.15	0.653	0.6453	4.509e-05	5.7e-07
308.15	0.085	0.084	4.38e-05	1.5e-06
308.15	0.1746	0.1725	4.48e-05	1.21e-06
308.15	0.3487	0.3446	4.53e-05	1.13e-06
308.15	0.653	0.6453	4.603e-05	5.6e-07
318.15	0.085	0.084	4.45e-05	1.67e-06
318.15	0.1746	0.1725	4.53e-05	1.22e-06
318.15	0.3487	0.3446	4.59e-05	1.13e-06
318.15	0.653	0.6453	4.666e-05	5.6e-07
328.15	0.085	0.084	4.51e-05	1.53e-06
328.15	0.1746	0.1725	4.58e-05	1.22e-06
328.15	0.3487	0.3446	4.65e-05	1.13e-06
328.15	0.653	0.6453	4.717e-05	5.6e-07
338.15	0.085	0.084	4.53e-05	1.76e-06
338.15	0.1746	0.1725	4.62e-05	1.31e-06
338.15	0.3487	0.3446	4.68e-05	1.13e-06
338.15	0.653	0.6453	4.748e-05	5.8e-07
348.15	0.085	0.084	4.56e-05	2.01e-06
348.15	0.1746	0.1725	4.61e-05	1.31e-06
348.15	0.3487	0.3446	4.68e-05	1.13e-06
348.15	0.653	0.6453	4.755e-05	5.7e-07
358.15	0.085	0.084	4.55e-05	1.84e-06
358.15	0.1746	0.1725	4.6e-05	1.22e-06
358.15	0.3487	0.3446	4.68e-05	1.13e-06
358.15	0.653	0.6453	4.747e-05	5.7e-07
368.15	0.085	0.084	4.5e-05	1.68e-06
368.15	0.1746	0.1725	4.55e-05	1.31e-06
368.15	0.3487	0.3446	4.66e-05	1.13e-06
368.15	0.653	0.6453	4.729e-05	5.9e-07
