Measured thermophysical data. Solubility of argon and nitrogen in aqueous solutions of tetra-n-butylammonium bromide (TBAB) from 283.15 to 298.15 K and 101.325 kPa partial pressure of gas
Source: J. Chem. Thermodyn., 2018, 10.1016/j.jct.2018.07.001
Compound 1: tetrabutylammonium bromide, C16H36BrN, InChI=1S/C16H36N.BrH/c1-5-9-13-17(14-10-6-2,15-11-7-3)16-12-8-4;/h5-16H2,1-4H3;1H/q+1;/p-1, purity 98%
Compound 2: argon, Ar, InChI=1S/Ar, purity 99.999%
Compound 3: nitrogen, N2, InChI=1S/N2/c1-2, purity 99.99%
Compound 4: water, H2O, InChI=1S/H2O/h1H2

System: tetrabutylammonium bromide + water; phases: Liquid
Fixed: Pressure, kPa = 75
Property: Mass density, kg/m3 (Liquid); method: Vibrating tube method
Temperature, K	Molality, mol/kg of tetrabutylammonium bromide	Mass density, kg/m3	uncertainty
283.15	0	999.7	0.8
288.15	0	999.1	0.8
293.15	0	998.2	0.8
298.15	0	997	0.7
283.15	0.2	1005.1	0.8
288.15	0.2	1004.2	0.8
293.15	0.2	1003.1	0.8
298.15	0.2	1001.6	0.7
283.15	0.4	1010.5	0.8
288.15	0.4	1009.3	0.8
293.15	0.4	1007.8	0.7
298.15	0.4	1006.3	0.7
283.15	0.6	1015.8	0.8
288.15	0.6	1014.2	0.7
293.15	0.6	1012.4	0.7
298.15	0.6	1010.6	0.7
283.15	0.8	1020.8	0.7
288.15	0.8	1018.7	0.7
293.15	0.8	1016.7	0.7
298.15	0.8	1014.7	0.6
283.15	1	1025.3	0.7
288.15	1	1022.8	0.7
293.15	1	1020.6	0.6
298.15	1	1018.5	0.6

System: argon + tetrabutylammonium bromide + water; phases: Liquid, Gas
Property: Mole fraction of argon (Liquid); method: Phase equilibration
Pressure, kPa	Temperature, K	Solvent: Molality, mol/kg of tetrabutylammonium bromide	Mole fraction of argon	uncertainty
93.259	283.15	0.2	3.072e-05	2.5e-07
93.414	283.15	0.4	3.093e-05	2.5e-07
93.438	283.15	0.6	3.105e-05	2.5e-07
93.502	283.15	0.8	3.114e-05	2.5e-07
93.568	283.15	1	3.122e-05	2.5e-07
93.48	288.15	0.2	2.781e-05	2.4e-07
93.443	288.15	0.4	2.822e-05	2.4e-07
93.625	288.15	0.6	2.864e-05	2.4e-07
93.609	288.15	0.8	2.884e-05	2.4e-07
93.702	288.15	1	2.907e-05	2.4e-07
93.525	293.15	0.2	2.493e-05	2.3e-07
93.603	293.15	0.4	2.549e-05	2.3e-07
93.611	293.15	0.6	2.594e-05	2.3e-07
93.695	293.15	0.8	2.659e-05	2.3e-07
93.666	293.15	1	2.742e-05	2.4e-07
93.676	298.15	0.2	2.29e-05	2.2e-07
93.647	298.15	0.4	2.342e-05	2.2e-07
93.684	298.15	0.6	2.411e-05	2.3e-07
93.714	298.15	0.8	2.471e-05	2.3e-07
93.759	298.15	1.001	2.56e-05	2.3e-07

System: nitrogen + tetrabutylammonium bromide + water; phases: Liquid, Gas
Property: Mole fraction of nitrogen (Liquid); method: Phase equilibration
Pressure, kPa	Temperature, K	Solvent: Molality, mol/kg of tetrabutylammonium bromide	Mole fraction of nitrogen	uncertainty
94.202	283.15	0.2	1.407e-05	1.6e-07
94.285	283.15	0.4	1.415e-05	1.6e-07
94.337	283.15	0.6	1.424e-05	1.6e-07
94.257	283.15	0.8	1.43e-05	1.6e-07
94.357	283.15	1	1.446e-05	1.6e-07
94.22	288.15	0.2	1.265e-05	1.7e-07
94.301	288.15	0.4	1.279e-05	1.6e-07
94.409	288.15	0.6	1.295e-05	1.6e-07
94.465	288.15	0.8	1.317e-05	1.7e-07
94.476	288.15	1	1.342e-05	1.7e-07
94.421	293.15	0.2	1.175e-05	1.6e-07
94.277	293.15	0.4	1.206e-05	1.6e-07
94.364	293.15	0.6	1.235e-05	1.6e-07
94.336	293.15	0.8	1.259e-05	1.6e-07
94.373	293.15	1	1.296e-05	1.9e-07
94.458	298.15	0.2	1.096e-05	1.6e-07
94.369	298.15	0.4	1.141e-05	1.6e-07
94.317	298.15	0.6	1.176e-05	1.6e-07
94.346	298.15	0.8	1.205e-05	1.7e-07
94.41	298.15	1.001	1.242e-05	1.7e-07
