Measured thermophysical data. Vapor pressures and vaporization enthalpies of a series of esters used in flavors by correlation gas chromatography
Source: J. Chem. Thermodyn., 2015, 10.1016/j.jct.2015.02.015
Compound 1: 2-buten-1-ol, 3-methyl-, acetate, C7H12O2, InChI=1S/C7H12O2/c1-6(2)4-5-9-7(3)8/h4H,5H2,1-3H3, purity 98%
Compound 2: (2E,4E)-2,4-hexadien-1-yl acetate, C8H12O2, InChI=1S/C8H12O2/c1-3-4-5-6-7-10-8(2)9/h3-6H,7H2,1-2H3/b4-3+,6-5+, purity 97%
Compound 3: ethyl 2-methylpentanoate, C8H16O2, InChI=1S/C8H16O2/c1-4-6-7(3)8(9)10-5-2/h7H,4-6H2,1-3H3, purity 98%
Compound 4: (Z)-3-hexenyl propionate, C9H16O2, InChI=1S/C9H16O2/c1-3-5-6-7-8-11-9(10)4-2/h5-6H,3-4,7-8H2,1-2H3/b6-5-, purity 98%
Compound 5: allyl hexanoate, C9H16O2, InChI=1S/C9H16O2/c1-3-5-6-7-9(10)11-8-4-2/h4H,2-3,5-8H2,1H3, purity 99%
Compound 6: pentyl butanoate, C9H18O2, InChI=1S/C9H18O2/c1-3-5-6-8-11-9(10)7-4-2/h3-8H2,1-2H3, purity 98%
Compound 7: 3-methylbutyl 2-methylpropanoate, C9H18O2, InChI=1S/C9H18O2/c1-7(2)5-6-11-9(10)8(3)4/h7-8H,5-6H2,1-4H3, purity 98%
Compound 8: 2-phenylethyl acetate, C10H12O2, InChI=1S/C10H12O2/c1-9(11)12-8-7-10-5-3-2-4-6-10/h2-6H,7-8H2,1H3, purity 97%
Compound 9: (Z)-3-hexen-1-yl butyrate, C10H18O2, InChI=1S/C10H18O2/c1-3-5-6-7-9-12-10(11)8-4-2/h5-6H,3-4,7-9H2,1-2H3/b6-5-, purity 98%
Compound 10: (.+-.)-cis-3-hexenyl 2-methylbutyrate, C11H20O2, InChI=1S/C11H20O2/c1-4-6-7-8-9-13-11(12)10(3)5-2/h6-7,10H,4-5,8-9H2,1-3H3/b7-6-, purity 97%
Compound 11: ethyl trans-3-phenylpropenoate, C11H12O2, InChI=1S/C11H12O2/c1-2-13-11(12)9-8-10-6-4-3-5-7-10/h3-9H,2H2,1H3/b9-8+, purity 98%
Compound 12: 2-phenylethyl propanoate, C11H14O2, InChI=1S/C11H14O2/c1-2-11(12)13-9-8-10-6-4-3-5-7-10/h3-7H,2,8-9H2,1H3, purity 98%
Compound 13: (Z)-oct-5-en-1-yl propionate, C11H20O2, InChI=1S/C11H20O2/c1-3-5-6-7-8-9-10-13-11(12)4-2/h5-6H,3-4,7-10H2,1-2H3/b6-5-, purity 97%
Compound 14: heptyl butanoate, C11H22O2, InChI=1S/C11H22O2/c1-3-5-6-7-8-10-13-11(12)9-4-2/h3-10H2,1-2H3, purity 98%
Compound 15: phenethyl butyrate, C12H16O2, InChI=1S/C12H16O2/c1-2-6-12(13)14-10-9-11-7-4-3-5-8-11/h3-5,7-8H,2,6,9-10H2,1H3, purity 95%
Compound 16: linalool acetate, C12H20O2, InChI=1S/C12H20O2/c1-6-12(5,14-11(4)13)9-7-8-10(2)3/h6,8H,1,7,9H2,2-5H3, purity 81%
Compound 17: 3,7-dimethyl-6-octen-1-yl acetate, C12H22O2, InChI=1S/C12H22O2/c1-10(2)6-5-7-11(3)8-9-14-12(4)13/h6,11H,5,7-9H2,1-4H3, purity 81%
Compound 18: phenethyl hexanoate, C14H20O2, InChI=1S/C14H20O2/c1-2-3-5-10-14(15)16-12-11-13-8-6-4-7-9-13/h4,6-9H,2-3,5,10-12H2,1H3, purity 99%

System: 2-buten-1-ol, 3-methyl-, acetate; phases: Liquid, Gas
Property: Molar enthalpy of vaporization or sublimation, kJ/mol (Liquid); method: Correlation gas chromatography
Temperature, K	Molar enthalpy of vaporization or sublimation, kJ/mol	uncertainty
298.15	47.8	3

System: 2-buten-1-ol, 3-methyl-, acetate; phases: Liquid, Gas
Property: Vapor or sublimation pressure, kPa (Liquid); method: Gas chromatography
Temperature, K	Vapor or sublimation pressure, kPa	uncertainty
298.15	0.468	0.037

System: 2-buten-1-ol, 3-methyl-, acetate; phases: Liquid, Gas
Property: Normal boiling temperature, K (Liquid); method: gas chromatography
Normal boiling temperature, K	uncertainty
421.8	6.2

System: (2E,4E)-2,4-hexadien-1-yl acetate; phases: Liquid, Gas
Property: Molar enthalpy of vaporization or sublimation, kJ/mol (Liquid); method: Correlation gas chromatography
Temperature, K	Molar enthalpy of vaporization or sublimation, kJ/mol	uncertainty
298.15	54.7	3.1

System: (2E,4E)-2,4-hexadien-1-yl acetate; phases: Liquid, Gas
Property: Vapor or sublimation pressure, kPa (Liquid); method: Gas chromatography
Temperature, K	Vapor or sublimation pressure, kPa	uncertainty
298.15	0.089	0.007

System: (2E,4E)-2,4-hexadien-1-yl acetate; phases: Liquid, Gas
Property: Normal boiling temperature, K (Liquid); method: gas chromatography
Normal boiling temperature, K	uncertainty
453.8	6.2

System: ethyl 2-methylpentanoate; phases: Liquid, Gas
Property: Molar enthalpy of vaporization or sublimation, kJ/mol (Liquid); method: Correlation gas chromatography
Temperature, K	Molar enthalpy of vaporization or sublimation, kJ/mol	uncertainty
298.15	48.4	3.2

System: ethyl 2-methylpentanoate; phases: Liquid, Gas
Property: Vapor or sublimation pressure, kPa (Liquid); method: Gas chromatography
Temperature, K	Vapor or sublimation pressure, kPa	uncertainty
298.15	0.41	0.089

System: ethyl 2-methylpentanoate; phases: Liquid, Gas
Property: Normal boiling temperature, K (Liquid); method: gas chromatography
Normal boiling temperature, K	uncertainty
428.3	6.2

System: (Z)-3-hexenyl propionate; phases: Liquid, Gas
Property: Molar enthalpy of vaporization or sublimation, kJ/mol (Liquid); method: Correlation gas chromatography
Temperature, K	Molar enthalpy of vaporization or sublimation, kJ/mol	uncertainty
298.15	55.7	2.4

System: (Z)-3-hexenyl propionate; phases: Liquid, Gas
Property: Vapor or sublimation pressure, kPa (Liquid); method: Gas chromatography
Temperature, K	Vapor or sublimation pressure, kPa	uncertainty
298.15	0.0662	0.0076

System: (Z)-3-hexenyl propionate; phases: Liquid, Gas
Property: Normal boiling temperature, K (Liquid); method: gas chromatography
Normal boiling temperature, K	uncertainty
461.2	6.2

System: allyl hexanoate; phases: Liquid, Gas
Property: Molar enthalpy of vaporization or sublimation, kJ/mol (Liquid); method: Correlation gas chromatography
Temperature, K	Molar enthalpy of vaporization or sublimation, kJ/mol	uncertainty
298.15	55.2	3.4

System: allyl hexanoate; phases: Liquid, Gas
Property: Vapor or sublimation pressure, kPa (Liquid); method: Gas chromatography
Temperature, K	Vapor or sublimation pressure, kPa	uncertainty
298.15	0.0819	0.0208

System: allyl hexanoate; phases: Liquid, Gas
Property: Normal boiling temperature, K (Liquid); method: gas chromatography
Normal boiling temperature, K	uncertainty
458	6

System: pentyl butanoate; phases: Liquid, Gas
Property: Molar enthalpy of vaporization or sublimation, kJ/mol (Liquid); method: Correlation gas chromatography
Temperature, K	Molar enthalpy of vaporization or sublimation, kJ/mol	uncertainty
298.15	53.6	1.7

System: pentyl butanoate; phases: Liquid, Gas
Property: Vapor or sublimation pressure, kPa (Liquid); method: Gas chromatography
Temperature, K	Vapor or sublimation pressure, kPa	uncertainty
298.15	0.109	0.009

System: pentyl butanoate; phases: Liquid, Gas
Property: Normal boiling temperature, K (Liquid); method: gas chromatography
Normal boiling temperature, K	uncertainty
452.6	6.2

System: 3-methylbutyl 2-methylpropanoate; phases: Liquid, Gas
Property: Molar enthalpy of vaporization or sublimation, kJ/mol (Liquid); method: Correlation gas chromatography
Temperature, K	Molar enthalpy of vaporization or sublimation, kJ/mol	uncertainty
298.15	51.7	3.4

System: 3-methylbutyl 2-methylpropanoate; phases: Liquid, Gas
Property: Vapor or sublimation pressure, kPa (Liquid); method: Gas chromatography
Temperature, K	Vapor or sublimation pressure, kPa	uncertainty
298.15	0.18	0.042

System: 3-methylbutyl 2-methylpropanoate; phases: Liquid, Gas
Property: Normal boiling temperature, K (Liquid); method: gas chromatography
Normal boiling temperature, K	uncertainty
444.7	6.2

System: 2-phenylethyl acetate; phases: Liquid, Gas
Property: Molar enthalpy of vaporization or sublimation, kJ/mol (Liquid); method: Correlation gas chromatography
Temperature, K	Molar enthalpy of vaporization or sublimation, kJ/mol	uncertainty
298.15	61.3	2.9

System: 2-phenylethyl acetate; phases: Liquid, Gas
Property: Vapor or sublimation pressure, kPa (Liquid); method: Gas chromatography
Temperature, K	Vapor or sublimation pressure, kPa	uncertainty
298.15	0.0132	0.001

System: 2-phenylethyl acetate; phases: Liquid, Gas
Property: Normal boiling temperature, K (Liquid); method: gas chromatography
Normal boiling temperature, K	uncertainty
498.4	6.2

System: (Z)-3-hexen-1-yl butyrate; phases: Liquid, Gas
Property: Molar enthalpy of vaporization or sublimation, kJ/mol (Liquid); method: Correlation gas chromatography
Temperature, K	Molar enthalpy of vaporization or sublimation, kJ/mol	uncertainty
298.15	59.9	3.7

System: (Z)-3-hexen-1-yl butyrate; phases: Liquid, Gas
Property: Vapor or sublimation pressure, kPa (Liquid); method: Gas chromatography
Temperature, K	Vapor or sublimation pressure, kPa	uncertainty
298.15	0.0257	0.0048

System: (Z)-3-hexen-1-yl butyrate; phases: Liquid, Gas
Property: Normal boiling temperature, K (Liquid); method: gas chromatography
Normal boiling temperature, K	uncertainty
480	6

System: (.+-.)-cis-3-hexenyl 2-methylbutyrate; phases: Liquid, Gas
Property: Molar enthalpy of vaporization or sublimation, kJ/mol (Liquid); method: Correlation gas chromatography
Temperature, K	Molar enthalpy of vaporization or sublimation, kJ/mol	uncertainty
298.15	61.5	1.8

System: (.+-.)-cis-3-hexenyl 2-methylbutyrate; phases: Liquid, Gas
Property: Vapor or sublimation pressure, kPa (Liquid); method: Gas chromatography
Temperature, K	Vapor or sublimation pressure, kPa	uncertainty
298.15	0.0153	0.0023

System: (.+-.)-cis-3-hexenyl 2-methylbutyrate; phases: Liquid, Gas
Property: Normal boiling temperature, K (Liquid); method: gas chromatography
Normal boiling temperature, K	uncertainty
488.4	6.2

System: ethyl trans-3-phenylpropenoate; phases: Liquid, Gas
Property: Molar enthalpy of vaporization or sublimation, kJ/mol (Liquid); method: Correlation gas chromatography
Temperature, K	Molar enthalpy of vaporization or sublimation, kJ/mol	uncertainty
298.15	70.4	3.2

System: ethyl trans-3-phenylpropenoate; phases: Liquid, Gas
Property: Vapor or sublimation pressure, kPa (Liquid); method: Gas chromatography
Temperature, K	Vapor or sublimation pressure, kPa	uncertainty
298.15	0.0015	0.0001

System: ethyl trans-3-phenylpropenoate; phases: Liquid, Gas
Property: Normal boiling temperature, K (Liquid); method: gas chromatography
Normal boiling temperature, K	uncertainty
540.1	6.2

System: 2-phenylethyl propanoate; phases: Liquid, Gas
Property: Molar enthalpy of vaporization or sublimation, kJ/mol (Liquid); method: Correlation gas chromatography
Temperature, K	Molar enthalpy of vaporization or sublimation, kJ/mol	uncertainty
298.15	65.6	3.5

System: 2-phenylethyl propanoate; phases: Liquid, Gas
Property: Vapor or sublimation pressure, kPa (Liquid); method: Gas chromatography
Temperature, K	Vapor or sublimation pressure, kPa	uncertainty
298.15	0.0048	0.0004

System: 2-phenylethyl propanoate; phases: Liquid, Gas
Property: Normal boiling temperature, K (Liquid); method: gas chromatography
Normal boiling temperature, K	uncertainty
517.3	6.2

System: (Z)-oct-5-en-1-yl propionate; phases: Liquid, Gas
Property: Molar enthalpy of vaporization or sublimation, kJ/mol (Liquid); method: Correlation gas chromatography
Temperature, K	Molar enthalpy of vaporization or sublimation, kJ/mol	uncertainty
298.15	65.3	3.5

System: (Z)-oct-5-en-1-yl propionate; phases: Liquid, Gas
Property: Vapor or sublimation pressure, kPa (Liquid); method: Gas chromatography
Temperature, K	Vapor or sublimation pressure, kPa	uncertainty
298.15	0.007	0.0005

System: (Z)-oct-5-en-1-yl propionate; phases: Liquid, Gas
Property: Normal boiling temperature, K (Liquid); method: gas chromatography
Normal boiling temperature, K	uncertainty
499.6	6.2

System: heptyl butanoate; phases: Liquid, Gas
Property: Molar enthalpy of vaporization or sublimation, kJ/mol (Liquid); method: Correlation gas chromatography
Temperature, K	Molar enthalpy of vaporization or sublimation, kJ/mol	uncertainty
298.15	65.1	2.6

System: heptyl butanoate; phases: Liquid, Gas
Property: Vapor or sublimation pressure, kPa (Liquid); method: Gas chromatography
Temperature, K	Vapor or sublimation pressure, kPa	uncertainty
298.15	0.0078	0.0011

System: heptyl butanoate; phases: Liquid, Gas
Property: Normal boiling temperature, K (Liquid); method: gas chromatography
Normal boiling temperature, K	uncertainty
497.6	6.2

System: phenethyl butyrate; phases: Liquid, Gas
Property: Molar enthalpy of vaporization or sublimation, kJ/mol (Liquid); method: Correlation gas chromatography
Temperature, K	Molar enthalpy of vaporization or sublimation, kJ/mol	uncertainty
298.15	69.7	3.2

System: phenethyl butyrate; phases: Liquid, Gas
Property: Vapor or sublimation pressure, kPa (Liquid); method: Gas chromatography
Temperature, K	Vapor or sublimation pressure, kPa	uncertainty
298.15	0.0019	0.0002

System: phenethyl butyrate; phases: Liquid, Gas
Property: Normal boiling temperature, K (Liquid); method: gas chromatography
Normal boiling temperature, K	uncertainty
533.9	6.2

System: linalool acetate; phases: Liquid, Gas
Property: Molar enthalpy of vaporization or sublimation, kJ/mol (Liquid); method: Correlation gas chromatography
Temperature, K	Molar enthalpy of vaporization or sublimation, kJ/mol	uncertainty
298.15	62.5	1.8

System: linalool acetate; phases: Liquid, Gas
Property: Vapor or sublimation pressure, kPa (Liquid); method: Gas chromatography
Temperature, K	Vapor or sublimation pressure, kPa	uncertainty
298.15	0.0122	0.001

System: linalool acetate; phases: Liquid, Gas
Property: Normal boiling temperature, K (Liquid); method: gas chromatography
Normal boiling temperature, K	uncertainty
494.7	6.2

System: 3,7-dimethyl-6-octen-1-yl acetate; phases: Liquid, Gas
Property: Molar enthalpy of vaporization or sublimation, kJ/mol (Liquid); method: Correlation gas chromatography
Temperature, K	Molar enthalpy of vaporization or sublimation, kJ/mol	uncertainty
298.15	67.8	3.9

System: 3,7-dimethyl-6-octen-1-yl acetate; phases: Liquid, Gas
Property: Vapor or sublimation pressure, kPa (Liquid); method: Gas chromatography
Temperature, K	Vapor or sublimation pressure, kPa	uncertainty
298.15	0.004	0.0009

System: 3,7-dimethyl-6-octen-1-yl acetate; phases: Liquid, Gas
Property: Normal boiling temperature, K (Liquid); method: gas chromatography
Normal boiling temperature, K	uncertainty
510.7	6.2

System: phenethyl hexanoate; phases: Liquid, Gas
Property: Molar enthalpy of vaporization or sublimation, kJ/mol (Liquid); method: Correlation gas chromatography
Temperature, K	Molar enthalpy of vaporization or sublimation, kJ/mol	uncertainty
298.15	78.8	3.4

System: phenethyl hexanoate; phases: Liquid, Gas
Property: Vapor or sublimation pressure, kPa (Liquid); method: Gas chromatography
Temperature, K	Vapor or sublimation pressure, kPa	uncertainty
298.15	0.00023	2e-05

System: phenethyl hexanoate; phases: Liquid, Gas
Property: Normal boiling temperature, K (Liquid); method: gas chromatography
Normal boiling temperature, K	uncertainty
570	6
