Measured thermophysical data. Synthesis and thermodynamics studies of ionic liquid 1-methyl-3-pentylimidazolium bromide ([C5mim][Br]) with amino acids (L-cysteine and N-acetyl-L-cysteine) at different temperatures
Source: J. Chem. Thermodyn., 2017, 10.1016/j.jct.2017.03.040
Compound 1: (R)-2-amino-3-mercaptopropanoic acid, C3H7NO2S, InChI=1S/C3H7NO2S/c4-2(1-7)3(5)6/h2,7H,1,4H2,(H,5,6)/t2-/m0/s1, purity 99%
Compound 2: N-acetyl-L-cysteine, C5H9NO3S, InChI=1S/C5H9NO3S/c1-3(7)6-4(2-10)5(8)9/h4,10H,2H2,1H3,(H,6,7)(H,8,9)/t4-/m0/s1, purity 99%
Compound 3: 1-pentyl-3-methylimidazolium bromide, C9H17BrN2, InChI=1S/C9H17N2.BrH/c1-3-4-5-6-11-8-7-10(2)9-11;/h7-9H,3-6H2,1-2H3;1H/q+1;/p-1
Compound 4: water, H2O, InChI=1S/H2O/h1H2

System: (R)-2-amino-3-mercaptopropanoic acid + water + 1-pentyl-3-methylimidazolium bromide; phases: Liquid
Fixed: Pressure, kPa = 100
Property: Mass density, kg/m3 (Liquid); method: Vibrating tube method
Temperature, K	Solvent: Molality, mol/kg of 1-pentyl-3-methylimidazolium bromide	Molality, mol/kg of (R)-2-amino-3-mercaptopropanoic acid	Mass density, kg/m3	uncertainty
288.15	0	0	999.1	0.38
288.15	0	0.09747	1003.7	0.38
288.15	0	0.19848	1008.47	0.39
288.15	0	0.29857	1013.2	0.39
288.15	0	0.39681	1017.83	0.4
288.15	0	0.49322	1022.38	0.4
288.15	0	0.6	1027.42	0.41
288.15	0	0.69215	1031.77	0.42
298.15	0	0	997.04	0.38
298.15	0	0.09747	1001.64	0.38
298.15	0	0.19848	1006.41	0.39
298.15	0	0.29857	1011.13	0.39
298.15	0	0.39681	1015.77	0.4
298.15	0	0.49322	1020.32	0.4
298.15	0	0.6	1025.36	0.41
298.15	0	0.69215	1029.71	0.42
308.15	0	0	994.03	0.38
308.15	0	0.09747	998.63	0.38
308.15	0	0.19848	1003.4	0.38
308.15	0	0.29857	1008.12	0.39
308.15	0	0.39681	1012.76	0.4
308.15	0	0.49322	1017.31	0.4
308.15	0	0.6	1022.35	0.41
308.15	0	0.69215	1026.7	0.42
318.15	0	0	990.22	0.38
318.15	0	0.09747	994.82	0.38
318.15	0	0.19848	999.59	0.38
318.15	0	0.29857	1004.32	0.39
318.15	0	0.39681	1008.96	0.39
318.15	0	0.49322	1013.51	0.4
318.15	0	0.6	1018.55	0.41
318.15	0	0.69215	1022.9	0.42
288.15	0.005	0	999.3	0.38
288.15	0.005	0.09931	1003.99	0.38
288.15	0.005	0.19883	1008.68	0.39
288.15	0.005	0.29959	1013.43	0.39
288.15	0.005	0.39796	1018.07	0.4
288.15	0.005	0.49964	1022.86	0.41
288.15	0.005	0.5958	1027.4	0.41
288.15	0.005	0.68435	1031.57	0.42
298.15	0.005	0	997.23	0.38
298.15	0.005	0.09931	1001.92	0.38
298.15	0.005	0.19883	1006.61	0.39
298.15	0.005	0.29959	1011.36	0.39
298.15	0.005	0.39796	1016	0.4
298.15	0.005	0.49964	1020.79	0.4
298.15	0.005	0.5958	1025.32	0.41
298.15	0.005	0.68435	1029.5	0.42
308.15	0.005	0	994.23	0.38
308.15	0.005	0.09931	998.91	0.38
308.15	0.005	0.19883	1003.6	0.38
308.15	0.005	0.29959	1008.35	0.39
308.15	0.005	0.39796	1012.99	0.4
308.15	0.005	0.49964	1017.78	0.4
308.15	0.005	0.5958	1022.32	0.41
308.15	0.005	0.68435	1026.49	0.42
318.15	0.005	0	990.42	0.38
318.15	0.005	0.09931	995.1	0.38
318.15	0.005	0.19883	999.8	0.38
318.15	0.005	0.29959	1004.55	0.39
318.15	0.005	0.39796	1009.19	0.39
318.15	0.005	0.49964	1013.99	0.4
318.15	0.005	0.5958	1018.52	0.41
318.15	0.005	0.68435	1022.7	0.42
288.15	0.01	0	999.5	0.38
288.15	0.01	0.09928	1004.18	0.38
288.15	0.01	0.19865	1008.86	0.39
288.15	0.01	0.29913	1013.59	0.39
288.15	0.01	0.39801	1018.25	0.4
288.15	0.01	0.49734	1022.93	0.41
288.15	0.01	0.59651	1027.6	0.41
288.15	0.01	0.70095	1032.52	0.42
298.15	0.01	0	997.42	0.38
298.15	0.01	0.09928	1002.1	0.38
298.15	0.01	0.19865	1006.78	0.39
298.15	0.01	0.29913	1011.51	0.39
298.15	0.01	0.39801	1016.17	0.4
298.15	0.01	0.49734	1020.85	0.4
298.15	0.01	0.59651	1025.52	0.41
298.15	0.01	0.70095	1030.44	0.42
308.15	0.01	0	994.42	0.38
308.15	0.01	0.09928	999.1	0.38
308.15	0.01	0.19865	1003.78	0.38
308.15	0.01	0.29913	1008.51	0.39
308.15	0.01	0.39801	1013.17	0.4
308.15	0.01	0.49734	1017.85	0.4
308.15	0.01	0.59651	1022.52	0.41
308.15	0.01	0.70095	1027.44	0.42
318.15	0.01	0	990.62	0.38
318.15	0.01	0.09928	995.3	0.38
318.15	0.01	0.19865	999.98	0.38
318.15	0.01	0.29913	1004.72	0.39
318.15	0.01	0.39801	1009.38	0.39
318.15	0.01	0.49734	1014.06	0.4
318.15	0.01	0.59651	1018.73	0.41
318.15	0.01	0.70095	1023.65	0.42
288.15	0.03	0	1000.31	0.38
288.15	0.03	0.0997	1005	0.38
288.15	0.03	0.19526	1009.5	0.39
288.15	0.03	0.29612	1014.24	0.39
288.15	0.03	0.40022	1019.14	0.4
288.15	0.03	0.49658	1023.67	0.41
288.15	0.03	0.59406	1028.26	0.41
288.15	0.03	0.69416	1032.97	0.42
298.15	0.03	0	998.19	0.38
298.15	0.03	0.0997	1002.88	0.38
298.15	0.03	0.19526	1007.38	0.39
298.15	0.03	0.29612	1012.13	0.39
298.15	0.03	0.40022	1017.02	0.4
298.15	0.03	0.49658	1021.56	0.4
298.15	0.03	0.59406	1026.14	0.41
298.15	0.03	0.69416	1030.85	0.42
308.15	0.03	0	995.2	0.38
308.15	0.03	0.0997	999.89	0.38
308.15	0.03	0.19526	1004.39	0.39
308.15	0.03	0.29612	1009.14	0.39
308.15	0.03	0.40022	1014.04	0.4
308.15	0.03	0.49658	1018.57	0.4
308.15	0.03	0.59406	1023.16	0.41
308.15	0.03	0.69416	1027.87	0.42
318.15	0.03	0	991.41	0.38
318.15	0.03	0.0997	996.11	0.38
318.15	0.03	0.19526	1000.61	0.38
318.15	0.03	0.29612	1005.36	0.39
318.15	0.03	0.40022	1010.26	0.39
318.15	0.03	0.49658	1014.79	0.4
318.15	0.03	0.59406	1019.38	0.41
318.15	0.03	0.69416	1024.09	0.42
288.15	0.05	0	1001.11	0.38
288.15	0.05	0.09936	1005.78	0.38
288.15	0.05	0.19793	1010.42	0.39
288.15	0.05	0.29832	1015.13	0.39
288.15	0.05	0.39783	1019.81	0.4
288.15	0.05	0.49438	1024.35	0.41
288.15	0.05	0.59903	1029.27	0.41
288.15	0.05	0.69913	1033.97	0.42
298.15	0.05	0	998.96	0.38
298.15	0.05	0.09936	1003.63	0.38
298.15	0.05	0.19793	1008.26	0.39
298.15	0.05	0.29832	1012.98	0.39
298.15	0.05	0.39783	1017.66	0.4
298.15	0.05	0.49438	1022.2	0.4
298.15	0.05	0.59903	1027.12	0.41
298.15	0.05	0.69913	1031.82	0.42
308.15	0.05	0	995.98	0.38
308.15	0.05	0.09936	1000.65	0.38
308.15	0.05	0.19793	1005.29	0.39
308.15	0.05	0.29832	1010	0.39
308.15	0.05	0.39783	1014.68	0.4
308.15	0.05	0.49438	1019.22	0.4
308.15	0.05	0.59903	1024.14	0.41
308.15	0.05	0.69913	1028.85	0.42
318.15	0.05	0	992.21	0.38
318.15	0.05	0.09936	996.88	0.38
318.15	0.05	0.19793	1001.51	0.38
318.15	0.05	0.29832	1006.23	0.39
318.15	0.05	0.39783	1010.91	0.39
318.15	0.05	0.49438	1015.45	0.4
318.15	0.05	0.59903	1020.37	0.41
318.15	0.05	0.69913	1025.07	0.42

System: (R)-2-amino-3-mercaptopropanoic acid + water + 1-pentyl-3-methylimidazolium bromide; phases: Liquid
Fixed: Pressure, kPa = 100
Fixed: Frequency, MHz = 3
Property: Speed of sound, m/s (Liquid); method: Single path-length method
Temperature, K	Solvent: Molality, mol/kg of 1-pentyl-3-methylimidazolium bromide	Molality, mol/kg of (R)-2-amino-3-mercaptopropanoic acid	Speed of sound, m/s	uncertainty
288.15	0	0	1466.5	1.5
288.15	0	0.09747	1474	1.5
288.15	0	0.19848	1481.8	1.5
288.15	0	0.29857	1489.5	1.5
288.15	0	0.39681	1497.1	1.5
288.15	0	0.49322	1504.5	1.5
288.15	0	0.6	1512.7	1.5
288.15	0	0.69215	1519.8	1.5
298.15	0	0	1496.6	1.5
298.15	0	0.09747	1503.6	1.5
298.15	0	0.19848	1510.9	1.5
298.15	0	0.29857	1518	1.5
298.15	0	0.39681	1525.1	1.5
298.15	0	0.49322	1532	1.5
298.15	0	0.6	1539.6	1.5
298.15	0	0.69215	1546.2	1.5
308.15	0	0	1519.6	1.5
308.15	0	0.09747	1525.8	1.5
308.15	0	0.19848	1532.2	1.5
308.15	0	0.29857	1538.6	1.5
308.15	0	0.39681	1544.9	1.5
308.15	0	0.49322	1551	1.5
308.15	0	0.6	1557.8	1.5
308.15	0	0.69215	1563.6	1.5
318.15	0	0	1536.3	1.5
318.15	0	0.09747	1541.9	1.5
318.15	0	0.19848	1547.8	1.5
318.15	0	0.29857	1553.6	1.5
318.15	0	0.39681	1559.3	1.5
318.15	0	0.49322	1564.8	1.5
318.15	0	0.6	1571	1.5
318.15	0	0.69215	1576.4	1.5
288.15	0.005	0	1467.7	1.5
288.15	0.005	0.09931	1475.3	1.5
288.15	0.005	0.19883	1483	1.5
288.15	0.005	0.29959	1490.7	1.5
288.15	0.005	0.39796	1498.3	1.5
288.15	0.005	0.49964	1506.1	1.5
288.15	0.005	0.5958	1513.5	1.5
288.15	0.005	0.68435	1520.3	1.5
298.15	0.005	0	1497.3	1.5
298.15	0.005	0.09931	1504.4	1.5
298.15	0.005	0.19883	1511.5	1.5
298.15	0.005	0.29959	1518.8	1.5
298.15	0.005	0.39796	1525.8	1.5
298.15	0.005	0.49964	1533.1	1.5
298.15	0.005	0.5958	1540	1.5
298.15	0.005	0.68435	1546.3	1.5
308.15	0.005	0	1520.3	1.5
308.15	0.005	0.09931	1526.6	1.5
308.15	0.005	0.19883	1532.9	1.5
308.15	0.005	0.29959	1539.3	1.5
308.15	0.005	0.39796	1545.6	1.5
308.15	0.005	0.49964	1552.1	1.5
308.15	0.005	0.5958	1558.2	1.5
308.15	0.005	0.68435	1563.8	1.5
318.15	0.005	0	1536.7	1.5
318.15	0.005	0.09931	1542.5	1.5
318.15	0.005	0.19883	1548.2	1.5
318.15	0.005	0.29959	1554.1	1.5
318.15	0.005	0.39796	1559.8	1.5
318.15	0.005	0.49964	1565.6	1.5
318.15	0.005	0.5958	1571.2	1.5
318.15	0.005	0.68435	1576.3	1.5
288.15	0.01	0	1468.5	1.5
288.15	0.01	0.09928	1476.1	1.5
288.15	0.01	0.19865	1483.8	1.5
288.15	0.01	0.29913	1491.5	1.5
288.15	0.01	0.39801	1499.1	1.5
288.15	0.01	0.49734	1506.7	1.5
288.15	0.01	0.59651	1514.3	1.5
288.15	0.01	0.70095	1522.4	1.5
298.15	0.01	0	1498	1.5
298.15	0.01	0.09928	1505.1	1.5
298.15	0.01	0.19865	1512.2	1.5
298.15	0.01	0.29913	1519.4	1.5
298.15	0.01	0.39801	1526.4	1.5
298.15	0.01	0.49734	1533.5	1.5
298.15	0.01	0.59651	1540.6	1.5
298.15	0.01	0.70095	1548.1	1.5
308.15	0.01	0	1520.7	1.5
308.15	0.01	0.09928	1527	1.5
308.15	0.01	0.19865	1533.3	1.5
308.15	0.01	0.29913	1539.7	1.5
308.15	0.01	0.39801	1545.9	1.5
308.15	0.01	0.49734	1552.2	1.5
308.15	0.01	0.59651	1558.5	1.5
308.15	0.01	0.70095	1565.1	1.5
318.15	0.01	0	1537.4	1.5
318.15	0.01	0.09928	1543.1	1.5
318.15	0.01	0.19865	1548.8	1.5
318.15	0.01	0.29913	1554.6	1.5
318.15	0.01	0.39801	1560.3	1.5
318.15	0.01	0.49734	1566.1	1.5
318.15	0.01	0.59651	1571.8	1.5
318.15	0.01	0.70095	1577.8	1.5
288.15	0.03	0	1470.8	1.5
288.15	0.03	0.0997	1478.5	1.5
288.15	0.03	0.19526	1485.8	1.5
288.15	0.03	0.29612	1493.5	1.5
288.15	0.03	0.40022	1501.5	1.5
288.15	0.03	0.49658	1508.9	1.5
288.15	0.03	0.59406	1516.4	1.5
288.15	0.03	0.69416	1524.1	1.5
298.15	0.03	0	1500.3	1.5
298.15	0.03	0.0997	1507.5	1.5
298.15	0.03	0.19526	1514.3	1.5
298.15	0.03	0.29612	1521.5	1.5
298.15	0.03	0.40022	1528.9	1.5
298.15	0.03	0.49658	1535.8	1.5
298.15	0.03	0.59406	1542.7	1.5
298.15	0.03	0.69416	1549.8	1.5
308.15	0.03	0	1522.5	1.5
308.15	0.03	0.0997	1528.8	1.5
308.15	0.03	0.19526	1534.9	1.5
308.15	0.03	0.29612	1541.3	1.5
308.15	0.03	0.40022	1547.8	1.5
308.15	0.03	0.49658	1553.9	1.5
308.15	0.03	0.59406	1560.1	1.5
308.15	0.03	0.69416	1566.4	1.5
318.15	0.03	0	1539.1	1.5
318.15	0.03	0.0997	1544.8	1.5
318.15	0.03	0.19526	1550.3	1.5
318.15	0.03	0.29612	1556.1	1.5
318.15	0.03	0.40022	1562.1	1.5
318.15	0.03	0.49658	1567.6	1.5
318.15	0.03	0.59406	1573.2	1.5
318.15	0.03	0.69416	1579	1.5
288.15	0.05	0	1473.7	1.5
288.15	0.05	0.09936	1481.3	1.5
288.15	0.05	0.19793	1488.8	1.5
288.15	0.05	0.29832	1496.5	1.5
288.15	0.05	0.39783	1504.1	1.5
288.15	0.05	0.49438	1511.5	1.5
288.15	0.05	0.59903	1519.5	1.5
288.15	0.05	0.69913	1527.1	1.5
298.15	0.05	0	1502.8	1.5
298.15	0.05	0.09936	1509.9	1.5
298.15	0.05	0.19793	1516.9	1.5
298.15	0.05	0.29832	1524	1.5
298.15	0.05	0.39783	1531.1	1.5
298.15	0.05	0.49438	1537.9	1.5
298.15	0.05	0.59903	1545.4	1.5
298.15	0.05	0.69913	1552.6	1.5
308.15	0.05	0	1524.6	1.5
308.15	0.05	0.09936	1530.8	1.5
308.15	0.05	0.19793	1537	1.5
308.15	0.05	0.29832	1543.4	1.5
308.15	0.05	0.39783	1549.6	1.5
308.15	0.05	0.49438	1555.7	1.5
308.15	0.05	0.59903	1562.3	1.5
308.15	0.05	0.69913	1568.6	1.5
318.15	0.05	0	1541	1.5
318.15	0.05	0.09936	1546.7	1.5
318.15	0.05	0.19793	1552.3	1.5
318.15	0.05	0.29832	1558.1	1.5
318.15	0.05	0.39783	1563.8	1.5
318.15	0.05	0.49438	1569.3	1.5
318.15	0.05	0.59903	1575.3	1.5
318.15	0.05	0.69913	1581	1.5

System: N-acetyl-L-cysteine + water + 1-pentyl-3-methylimidazolium bromide; phases: Liquid
Fixed: Pressure, kPa = 100
Property: Mass density, kg/m3 (Liquid); method: Vibrating tube method
Temperature, K	Solvent: Molality, mol/kg of 1-pentyl-3-methylimidazolium bromide	Molality, mol/kg of N-acetyl-L-cysteine	Mass density, kg/m3	uncertainty
288.15	0	0	999.1	0.38
288.15	0	0.09902	1003.53	0.38
288.15	0	0.19811	1007.96	0.39
288.15	0	0.29764	1012.41	0.39
288.15	0	0.39699	1016.85	0.4
288.15	0	0.49923	1021.42	0.4
288.15	0	0.59915	1025.88	0.41
288.15	0	0.69031	1029.96	0.42
298.15	0	0	997.04	0.38
298.15	0	0.09902	1001.37	0.38
298.15	0	0.19811	1005.7	0.39
298.15	0	0.29764	1010.05	0.39
298.15	0	0.39699	1014.39	0.4
298.15	0	0.49923	1018.86	0.4
298.15	0	0.59915	1023.22	0.41
298.15	0	0.69031	1027.21	0.42
308.15	0	0	994.03	0.38
308.15	0	0.09902	998.26	0.38
308.15	0	0.19811	1002.49	0.38
308.15	0	0.29764	1006.74	0.39
308.15	0	0.39699	1010.98	0.39
308.15	0	0.49923	1015.35	0.4
308.15	0	0.59915	1019.61	0.41
308.15	0	0.69031	1023.51	0.42
318.15	0	0	990.22	0.38
318.15	0	0.09902	994.33	0.38
318.15	0	0.19811	998.44	0.38
318.15	0	0.29764	1002.57	0.39
318.15	0	0.39699	1006.7	0.39
318.15	0	0.49923	1010.94	0.4
318.15	0	0.59915	1015.09	0.41
318.15	0	0.69031	1018.87	0.41
288.15	0.005	0	999.3	0.38
288.15	0.005	0.09925	1003.74	0.38
288.15	0.005	0.19669	1008.09	0.39
288.15	0.005	0.29859	1012.64	0.39
288.15	0.005	0.40044	1017.2	0.4
288.15	0.005	0.49783	1021.55	0.4
288.15	0.005	0.59624	1025.94	0.41
288.15	0.005	0.69817	1030.5	0.42
298.15	0.005	0	997.23	0.38
298.15	0.005	0.09925	1001.57	0.38
298.15	0.005	0.19669	1005.82	0.39
298.15	0.005	0.29859	1010.27	0.39
298.15	0.005	0.40044	1014.72	0.4
298.15	0.005	0.49783	1018.98	0.4
298.15	0.005	0.59624	1023.28	0.41
298.15	0.005	0.69817	1027.73	0.42
308.15	0.005	0	994.23	0.38
308.15	0.005	0.09925	998.46	0.38
308.15	0.005	0.19669	1002.62	0.38
308.15	0.005	0.29859	1006.97	0.39
308.15	0.005	0.40044	1011.32	0.39
308.15	0.005	0.49783	1015.47	0.4
308.15	0.005	0.59624	1019.67	0.41
308.15	0.005	0.69817	1024.02	0.42
318.15	0.005	0	990.42	0.38
318.15	0.005	0.09925	994.54	0.38
318.15	0.005	0.19669	998.58	0.38
318.15	0.005	0.29859	1002.81	0.39
318.15	0.005	0.40044	1007.03	0.39
318.15	0.005	0.49783	1011.07	0.4
318.15	0.005	0.59624	1015.15	0.41
318.15	0.005	0.69817	1019.38	0.42
288.15	0.01	0	999.5	0.38
288.15	0.01	0.09902	1003.93	0.38
288.15	0.01	0.19895	1008.39	0.39
288.15	0.01	0.29776	1012.8	0.39
288.15	0.01	0.39964	1017.35	0.4
288.15	0.01	0.49582	1021.65	0.4
288.15	0.01	0.59931	1026.27	0.41
288.15	0.01	0.69809	1030.68	0.42
298.15	0.01	0	997.42	0.38
298.15	0.01	0.09902	1001.75	0.38
298.15	0.01	0.19895	1006.11	0.39
298.15	0.01	0.29776	1010.43	0.39
298.15	0.01	0.39964	1014.87	0.4
298.15	0.01	0.49582	1019.07	0.4
298.15	0.01	0.59931	1023.59	0.41
298.15	0.01	0.69809	1027.91	0.42
308.15	0.01	0	994.42	0.38
308.15	0.01	0.09902	998.64	0.38
308.15	0.01	0.19895	1002.91	0.38
308.15	0.01	0.29776	1007.12	0.39
308.15	0.01	0.39964	1011.47	0.39
308.15	0.01	0.49582	1015.57	0.4
308.15	0.01	0.59931	1019.99	0.41
308.15	0.01	0.69809	1024.2	0.42
318.15	0.01	0	990.62	0.38
318.15	0.01	0.09902	994.72	0.38
318.15	0.01	0.19895	998.87	0.38
318.15	0.01	0.29776	1002.96	0.39
318.15	0.01	0.39964	1007.19	0.39
318.15	0.01	0.49582	1011.18	0.4
318.15	0.01	0.59931	1015.47	0.41
318.15	0.01	0.69809	1019.56	0.42
288.15	0.03	0	1000.31	0.38
288.15	0.03	0.09907	1004.73	0.38
288.15	0.03	0.20023	1009.23	0.39
288.15	0.03	0.2975	1013.57	0.39
288.15	0.03	0.39747	1018.03	0.4
288.15	0.03	0.49934	1022.57	0.41
288.15	0.03	0.59431	1026.8	0.41
288.15	0.03	0.69055	1031.09	0.42
298.15	0.03	0	998.19	0.38
298.15	0.03	0.09907	1002.51	0.38
298.15	0.03	0.20023	1006.92	0.39
298.15	0.03	0.2975	1011.16	0.39
298.15	0.03	0.39747	1015.51	0.4
298.15	0.03	0.49934	1019.95	0.4
298.15	0.03	0.59431	1024.09	0.41
298.15	0.03	0.69055	1028.29	0.42
308.15	0.03	0	995.2	0.38
308.15	0.03	0.09907	999.42	0.38
308.15	0.03	0.20023	1003.73	0.39
308.15	0.03	0.2975	1007.87	0.39
308.15	0.03	0.39747	1012.12	0.4
308.15	0.03	0.49934	1016.46	0.4
308.15	0.03	0.59431	1020.51	0.41
308.15	0.03	0.69055	1024.6	0.42
318.15	0.03	0	991.41	0.38
318.15	0.03	0.09907	995.51	0.38
318.15	0.03	0.20023	999.7	0.38
318.15	0.03	0.2975	1003.73	0.39
318.15	0.03	0.39747	1007.86	0.39
318.15	0.03	0.49934	1012.08	0.4
318.15	0.03	0.59431	1016.01	0.41
318.15	0.03	0.69055	1019.99	0.42
288.15	0.05	0	1001.11	0.38
288.15	0.05	0.09986	1005.56	0.38
288.15	0.05	0.19946	1009.99	0.39
288.15	0.05	0.29782	1014.37	0.39
288.15	0.05	0.3993	1018.88	0.4
288.15	0.05	0.49627	1023.2	0.41
288.15	0.05	0.59908	1027.77	0.41
288.15	0.05	0.6987	1032.2	0.42
298.15	0.05	0	998.96	0.38
298.15	0.05	0.09986	1003.3	0.38
298.15	0.05	0.19946	1007.64	0.39
298.15	0.05	0.29782	1011.92	0.39
298.15	0.05	0.3993	1016.33	0.4
298.15	0.05	0.49627	1020.55	0.4
298.15	0.05	0.59908	1025.02	0.41
298.15	0.05	0.6987	1029.35	0.42
308.15	0.05	0	995.98	0.38
308.15	0.05	0.09986	1000.22	0.38
308.15	0.05	0.19946	1004.46	0.39
308.15	0.05	0.29782	1008.64	0.39
308.15	0.05	0.3993	1012.95	0.4
308.15	0.05	0.49627	1017.07	0.4
308.15	0.05	0.59908	1021.44	0.41
308.15	0.05	0.6987	1025.68	0.42
318.15	0.05	0	992.21	0.38
318.15	0.05	0.09986	996.33	0.38
318.15	0.05	0.19946	1000.45	0.38
318.15	0.05	0.29782	1004.51	0.39
318.15	0.05	0.3993	1008.7	0.39
318.15	0.05	0.49627	1012.71	0.4
318.15	0.05	0.59908	1016.95	0.41
318.15	0.05	0.6987	1021.07	0.42

System: N-acetyl-L-cysteine + water + 1-pentyl-3-methylimidazolium bromide; phases: Liquid
Fixed: Pressure, kPa = 100
Fixed: Frequency, MHz = 3
Property: Speed of sound, m/s (Liquid); method: Single path-length method
Temperature, K	Solvent: Molality, mol/kg of 1-pentyl-3-methylimidazolium bromide	Molality, mol/kg of N-acetyl-L-cysteine	Speed of sound, m/s	uncertainty
288.15	0	0	1466.5	1.5
288.15	0	0.09902	1472.9	1.5
288.15	0	0.19811	1479.4	1.5
288.15	0	0.29764	1485.8	1.5
288.15	0	0.39699	1492.3	1.5
288.15	0	0.49923	1498.9	1.5
288.15	0	0.59915	1505.4	1.5
288.15	0	0.69031	1511.3	1.5
298.15	0	0	1496.6	1.5
298.15	0	0.09902	1501.8	1.5
298.15	0	0.19811	1507	1.5
298.15	0	0.29764	1512.3	1.5
298.15	0	0.39699	1517.5	1.5
298.15	0	0.49923	1522.9	1.5
298.15	0	0.59915	1528.2	1.5
298.15	0	0.69031	1533	1.5
308.15	0	0	1519.6	1.5
308.15	0	0.09902	1523.8	1.5
308.15	0	0.19811	1527.9	1.5
308.15	0	0.29764	1532.1	1.5
308.15	0	0.39699	1536.3	1.5
308.15	0	0.49923	1540.6	1.5
308.15	0	0.59915	1544.8	1.5
308.15	0	0.69031	1548.6	1.5
318.15	0	0	1536.3	1.5
318.15	0	0.09902	1539.8	1.5
318.15	0	0.19811	1543.2	1.5
318.15	0	0.29764	1546.7	1.5
318.15	0	0.39699	1550.2	1.5
318.15	0	0.49923	1553.8	1.5
318.15	0	0.59915	1557.3	1.5
318.15	0	0.69031	1560.5	1.5
288.15	0.005	0	1467.7	1.5
288.15	0.005	0.09925	1474.1	1.5
288.15	0.005	0.19669	1480.4	1.5
288.15	0.005	0.29859	1487	1.5
288.15	0.005	0.40044	1493.6	1.5
288.15	0.005	0.49783	1499.9	1.5
288.15	0.005	0.59624	1506.3	1.5
288.15	0.005	0.69817	1512.9	1.5
298.15	0.005	0	1497.3	1.5
298.15	0.005	0.09925	1502.5	1.5
298.15	0.005	0.19669	1507.6	1.5
298.15	0.005	0.29859	1513	1.5
298.15	0.005	0.40044	1518.3	1.5
298.15	0.005	0.49783	1523.5	1.5
298.15	0.005	0.59624	1528.6	1.5
298.15	0.005	0.69817	1534	1.5
308.15	0.005	0	1520.3	1.5
308.15	0.005	0.09925	1524.5	1.5
308.15	0.005	0.19669	1528.6	1.5
308.15	0.005	0.29859	1532.8	1.5
308.15	0.005	0.40044	1537.1	1.5
308.15	0.005	0.49783	1541.2	1.5
308.15	0.005	0.59624	1545.3	1.5
308.15	0.005	0.69817	1549.6	1.5
318.15	0.005	0	1536.7	1.5
318.15	0.005	0.09925	1540.2	1.5
318.15	0.005	0.19669	1543.6	1.5
318.15	0.005	0.29859	1547.2	1.5
318.15	0.005	0.40044	1550.7	1.5
318.15	0.005	0.49783	1554.2	1.5
318.15	0.005	0.59624	1557.6	1.5
318.15	0.005	0.69817	1561.2	1.5
288.15	0.01	0	1468.5	1.5
288.15	0.01	0.09902	1474.9	1.5
288.15	0.01	0.19895	1481.4	1.5
288.15	0.01	0.29776	1487.8	1.5
288.15	0.01	0.39964	1494.3	1.5
288.15	0.01	0.49582	1500.6	1.5
288.15	0.01	0.59931	1507.2	1.5
288.15	0.01	0.69809	1513.6	1.5
298.15	0.01	0	1498	1.5
298.15	0.01	0.09902	1503.2	1.5
298.15	0.01	0.19895	1508.4	1.5
298.15	0.01	0.29776	1513.6	1.5
298.15	0.01	0.39964	1518.9	1.5
298.15	0.01	0.49582	1524	1.5
298.15	0.01	0.59931	1529.4	1.5
298.15	0.01	0.69809	1534.6	1.5
308.15	0.01	0	1520.7	1.5
308.15	0.01	0.09902	1524.8	1.5
308.15	0.01	0.19895	1529	1.5
308.15	0.01	0.29776	1533.1	1.5
308.15	0.01	0.39964	1537.4	1.5
308.15	0.01	0.49582	1541.4	1.5
308.15	0.01	0.59931	1545.7	1.5
308.15	0.01	0.69809	1549.9	1.5
318.15	0.01	0	1537.4	1.5
318.15	0.01	0.09902	1540.8	1.5
318.15	0.01	0.19895	1544.3	1.5
318.15	0.01	0.29776	1547.8	1.5
318.15	0.01	0.39964	1551.3	1.5
318.15	0.01	0.49582	1554.7	1.5
318.15	0.01	0.59931	1558.3	1.5
318.15	0.01	0.69809	1561.7	1.5
288.15	0.03	0	1470.8	1.5
288.15	0.03	0.09907	1477.2	1.5
288.15	0.03	0.20023	1483.7	1.5
288.15	0.03	0.2975	1490	1.5
288.15	0.03	0.39747	1496.4	1.5
288.15	0.03	0.49934	1503	1.5
288.15	0.03	0.59431	1509.1	1.5
288.15	0.03	0.69055	1515.3	1.5
298.15	0.03	0	1500.3	1.5
298.15	0.03	0.09907	1505.5	1.5
298.15	0.03	0.20023	1510.8	1.5
298.15	0.03	0.2975	1515.9	1.5
298.15	0.03	0.39747	1521.1	1.5
298.15	0.03	0.49934	1526.4	1.5
298.15	0.03	0.59431	1531.4	1.5
298.15	0.03	0.69055	1536.4	1.5
308.15	0.03	0	1522.5	1.5
308.15	0.03	0.09907	1526.7	1.5
308.15	0.03	0.20023	1530.9	1.5
308.15	0.03	0.2975	1534.9	1.5
308.15	0.03	0.39747	1539.1	1.5
308.15	0.03	0.49934	1543.3	1.5
308.15	0.03	0.59431	1547.3	1.5
308.15	0.03	0.69055	1551.3	1.5
318.15	0.03	0	1539.1	1.5
318.15	0.03	0.09907	1542.5	1.5
318.15	0.03	0.20023	1546	1.5
318.15	0.03	0.2975	1549.4	1.5
318.15	0.03	0.39747	1552.8	1.5
318.15	0.03	0.49934	1556.4	1.5
318.15	0.03	0.59431	1559.6	1.5
318.15	0.03	0.69055	1563	1.5
288.15	0.05	0	1473.7	1.5
288.15	0.05	0.09986	1480.1	1.5
288.15	0.05	0.19946	1486.5	1.5
288.15	0.05	0.29782	1492.8	1.5
288.15	0.05	0.3993	1499.3	1.5
288.15	0.05	0.49627	1505.5	1.5
288.15	0.05	0.59908	1512.1	1.5
288.15	0.05	0.6987	1518.5	1.5
298.15	0.05	0	1502.8	1.5
298.15	0.05	0.09986	1508	1.5
298.15	0.05	0.19946	1513.2	1.5
298.15	0.05	0.29782	1518.3	1.5
298.15	0.05	0.3993	1523.6	1.5
298.15	0.05	0.49627	1528.6	1.5
298.15	0.05	0.59908	1534	1.5
298.15	0.05	0.6987	1539.2	1.5
308.15	0.05	0	1524.6	1.5
308.15	0.05	0.09986	1528.7	1.5
308.15	0.05	0.19946	1532.8	1.5
308.15	0.05	0.29782	1536.9	1.5
308.15	0.05	0.3993	1541.1	1.5
308.15	0.05	0.49627	1545.1	1.5
308.15	0.05	0.59908	1549.4	1.5
308.15	0.05	0.6987	1553.5	1.5
318.15	0.05	0	1541	1.5
318.15	0.05	0.09986	1544.4	1.5
318.15	0.05	0.19946	1547.9	1.5
318.15	0.05	0.29782	1551.3	1.5
318.15	0.05	0.3993	1554.8	1.5
318.15	0.05	0.49627	1558.1	1.5
318.15	0.05	0.59908	1561.7	1.5
318.15	0.05	0.6987	1565.1	1.5

System: (R)-2-amino-3-mercaptopropanoic acid + water; phases: Liquid
Fixed: Pressure, kPa = 100
Property: Mass density, kg/m3 (Liquid); method: Vibrating tube method
Temperature, K	Molality, mol/kg of (R)-2-amino-3-mercaptopropanoic acid	Mass density, kg/m3	uncertainty
288.15	0.09747	1003.7	0.3
288.15	0.19848	1008.47	0.31
288.15	0.29857	1013.2	0.31
288.15	0.39681	1017.83	0.31
288.15	0.49322	1022.38	0.32
288.15	0.6	1027.42	0.33
288.15	0.69215	1031.77	0.34
298.15	0.09747	1001.64	0.3
298.15	0.19848	1006.41	0.31
298.15	0.29857	1011.13	0.31
298.15	0.39681	1015.77	0.31
298.15	0.49322	1020.32	0.32
298.15	0.6	1025.36	0.33
298.15	0.69215	1029.71	0.34
308.15	0.09747	998.63	0.3
308.15	0.19848	1003.4	0.31
308.15	0.29857	1008.12	0.31
308.15	0.39681	1012.76	0.31
308.15	0.49322	1017.31	0.32
308.15	0.6	1022.35	0.33
308.15	0.69215	1026.7	0.34
318.15	0.09747	994.82	0.3
318.15	0.19848	999.59	0.31
318.15	0.29857	1004.32	0.31
318.15	0.39681	1008.96	0.31
318.15	0.49322	1013.51	0.32
318.15	0.6	1018.55	0.33
318.15	0.69215	1022.9	0.34
288.15	0	999.1	0.3
298.15	0	997.04	0.3
308.15	0	994.03	0.3
318.15	0	990.22	0.3

System: (R)-2-amino-3-mercaptopropanoic acid + water; phases: Liquid
Fixed: Pressure, kPa = 100
Fixed: Frequency, MHz = 3
Property: Speed of sound, m/s (Liquid); method: Single path-length method
Temperature, K	Molality, mol/kg of (R)-2-amino-3-mercaptopropanoic acid	Speed of sound, m/s	uncertainty
288.15	0.09747	1474	1
288.15	0.19848	1481.8	1
288.15	0.29857	1489.5	1
288.15	0.39681	1497.1	1
288.15	0.49322	1504.5	1
288.15	0.6	1512.7	1
288.15	0.69215	1519.8	1
298.15	0.09747	1503.6	1
298.15	0.19848	1510.9	1
298.15	0.29857	1518	1
298.15	0.39681	1525.1	1
298.15	0.49322	1532	1
298.15	0.6	1539.6	1
298.15	0.69215	1546.2	1
308.15	0.09747	1525.8	1
308.15	0.19848	1532.2	1
308.15	0.29857	1538.6	1
308.15	0.39681	1544.9	1
308.15	0.49322	1551	1
308.15	0.6	1557.8	1
308.15	0.69215	1563.6	1
318.15	0.09747	1541.9	1
318.15	0.19848	1547.8	1
318.15	0.29857	1553.6	1
318.15	0.39681	1559.3	1
318.15	0.49322	1564.8	1
318.15	0.6	1571	1
318.15	0.69215	1576.4	1
288.15	0	1466.5	1
298.15	0	1496.6	1
308.15	0	1519.6	1
318.15	0	1536.3	1

System: water + 1-pentyl-3-methylimidazolium bromide; phases: Liquid
Fixed: Pressure, kPa = 100
Property: Mass density, kg/m3 (Liquid); method: Vibrating tube method
Temperature, K	Molality, mol/kg of 1-pentyl-3-methylimidazolium bromide	Mass density, kg/m3	uncertainty
288.15	0.005	999.3	0.3
298.15	0.005	997.23	0.3
308.15	0.005	994.23	0.3
318.15	0.005	990.42	0.3
288.15	0.01	999.5	0.3
298.15	0.01	997.42	0.3
308.15	0.01	994.42	0.3
318.15	0.01	990.62	0.3
288.15	0.03	1000.31	0.3
298.15	0.03	998.19	0.3
308.15	0.03	995.2	0.3
318.15	0.03	991.41	0.3
288.15	0.05	1001.11	0.3
298.15	0.05	998.96	0.3
308.15	0.05	995.98	0.3
318.15	0.05	992.21	0.3
288.15	0	999.1	0.3
298.15	0	997.04	0.3
308.15	0	994.03	0.3
318.15	0	990.22	0.3

System: water + 1-pentyl-3-methylimidazolium bromide; phases: Liquid
Fixed: Pressure, kPa = 100
Fixed: Frequency, MHz = 3
Property: Speed of sound, m/s (Liquid); method: Single path-length method
Temperature, K	Molality, mol/kg of 1-pentyl-3-methylimidazolium bromide	Speed of sound, m/s	uncertainty
288.15	0.005	1467.7	1
298.15	0.005	1497.3	1
308.15	0.005	1520.3	1
318.15	0.005	1536.7	1
288.15	0.01	1468.5	1
298.15	0.01	1498	1
308.15	0.01	1520.7	1
318.15	0.01	1537.4	1
288.15	0.03	1470.8	1
298.15	0.03	1500.3	1
308.15	0.03	1522.5	1
318.15	0.03	1539.1	1
288.15	0.05	1473.7	1
298.15	0.05	1502.8	1
308.15	0.05	1524.6	1
318.15	0.05	1541	1
288.15	0	1466.5	1
298.15	0	1496.6	1
308.15	0	1519.6	1
318.15	0	1536.3	1

System: N-acetyl-L-cysteine + water; phases: Liquid
Fixed: Pressure, kPa = 100
Property: Mass density, kg/m3 (Liquid); method: Vibrating tube method
Temperature, K	Molality, mol/kg of N-acetyl-L-cysteine	Mass density, kg/m3	uncertainty
288.15	0.09902	1003.53	0.3
288.15	0.19811	1007.96	0.31
288.15	0.29764	1012.41	0.31
288.15	0.39699	1016.85	0.32
288.15	0.49923	1021.42	0.32
288.15	0.59915	1025.88	0.33
288.15	0.69031	1029.96	0.34
298.15	0.09902	1001.37	0.3
298.15	0.19811	1005.7	0.31
298.15	0.29764	1010.05	0.31
298.15	0.39699	1014.39	0.31
298.15	0.49923	1018.86	0.32
298.15	0.59915	1023.22	0.33
298.15	0.69031	1027.21	0.34
308.15	0.09902	998.26	0.3
308.15	0.19811	1002.49	0.31
308.15	0.29764	1006.74	0.31
308.15	0.39699	1010.98	0.31
308.15	0.49923	1015.35	0.32
308.15	0.59915	1019.61	0.33
308.15	0.69031	1023.51	0.34
318.15	0.09902	994.33	0.3
318.15	0.19811	998.44	0.31
318.15	0.29764	1002.57	0.31
318.15	0.39699	1006.7	0.31
318.15	0.49923	1010.94	0.32
318.15	0.59915	1015.09	0.33
318.15	0.69031	1018.87	0.34
288.15	0	999.1	0.3
298.15	0	997.04	0.3
308.15	0	994.03	0.3
318.15	0	990.22	0.3

System: N-acetyl-L-cysteine + water; phases: Liquid
Fixed: Pressure, kPa = 100
Fixed: Frequency, MHz = 3
Property: Speed of sound, m/s (Liquid); method: Single path-length method
Temperature, K	Molality, mol/kg of N-acetyl-L-cysteine	Speed of sound, m/s	uncertainty
288.15	0.09902	1472.9	1
288.15	0.19811	1479.4	1
288.15	0.29764	1485.8	1
288.15	0.39699	1492.3	1
288.15	0.49923	1498.9	1
288.15	0.59915	1505.4	1
288.15	0.69031	1511.3	1
298.15	0.09902	1501.8	1
298.15	0.19811	1507	1
298.15	0.29764	1512.3	1
298.15	0.39699	1517.5	1
298.15	0.49923	1522.9	1
298.15	0.59915	1528.2	1
298.15	0.69031	1533	1
308.15	0.09902	1523.8	1
308.15	0.19811	1527.9	1
308.15	0.29764	1532.1	1
308.15	0.39699	1536.3	1
308.15	0.49923	1540.6	1
308.15	0.59915	1544.8	1
308.15	0.69031	1548.6	1
318.15	0.09902	1539.8	1
318.15	0.19811	1543.2	1
318.15	0.29764	1546.7	1
318.15	0.39699	1550.2	1
318.15	0.49923	1553.8	1
318.15	0.59915	1557.3	1
318.15	0.69031	1560.5	1
288.15	0	1466.5	1
298.15	0	1496.6	1
308.15	0	1519.6	1
318.15	0	1536.3	1
