Measured thermophysical data. Acquisition and evaluation of thermodynamic data for mirabilite-thenardite equilibria at 0.1 MPa
Source: J. Chem. Thermodyn., 2017, 10.1016/j.jct.2017.03.028
Compound 1: sodium sulfate, Na2O4S, InChI=1S/2Na.H2O4S/c;;1-5(2,3)4/h;;(H2,1,2,3,4)/q2*+1;/p-2, purity 99.7%
Compound 2: sodium sulfate decahydrate, H20Na2O14S, InChI=1S/2Na.H2O4S.10H2O/c;;1-5(2,3)4;;;;;;;;;;/h;;(H2,1,2,3,4);10*1H2/q2*+1;;;;;;;;;;;/p-2, purity 99.8%
Compound 3: water, H2O, InChI=1S/H2O/h1H2

Reaction: -1 sodium sulfate decahydrate + 1 sodium sulfate + 10 water
Property: Thermodynamic equilibrium constant
3.16e-20
1.64e-18
1.24e-16
1.33e-15
