Measured thermophysical data. Density and activity of pertechnetic acid aqueous solutions at T = 298.15 K
Source: J. Chem. Thermodyn., 2015, 10.1016/j.jct.2015.07.006
Compound 1: pertechnetic acid, HO4Tc, InChI=1S/H2O.3O.Tc/h1H2;;;;/q;;;;+1/p-1, purity 99%
Compound 2: water, H2O, InChI=1S/H2O/h1H2, purity 99%

System: water + pertechnetic acid; phases: Liquid
Fixed: Temperature, K = 298.15
Fixed: Pressure, kPa = 100
Property: (Relative) activity of water (Liquid); method: Novasina AW-Center water activity meter
Molality, mol/kg of pertechnetic acid	(Relative) activity of water	uncertainty
8.323	0.574	0.039
7.918	0.602	0.039
7.54	0.626	0.039
7.187	0.646	0.039
6.849	0.665	0.039
6.537	0.683	0.039
6.254	0.7	0.039
5.722	0.73	0.039
5.485	0.744	0.039
5.257	0.757	0.039
5.049	0.77	0.039
4.851	0.781	0.039
4.661	0.792	0.039
4.46	0.805	0.039
4.038	0.823	0.039
3.884	0.832	0.039
3.693	0.846	0.039
3.49	0.858	0.039
3.33	0.863	0.039
3.042	0.88	0.039
2.908	0.886	0.039
2.783	0.895	0.039
2.667	0.896	0.039
2.555	0.901	0.039
2.45	0.905	0.039
2.211	0.914	0.039
2.106	0.919	0.039
2.034	0.923	0.039
1.696	0.938	0.039
1.535	0.944	0.039
1.398	0.95	0.039

System: water + pertechnetic acid; phases: Liquid
Fixed: Temperature, K = 298.15
Fixed: Pressure, kPa = 100
Property: Mass density, kg/m3 (Liquid); method: Vibrating tube method
Molality, mol/kg of pertechnetic acid	Mass density, kg/m3	uncertainty
8.323	1679.31	3.48
7.918	1657.06	3.44
7.54	1634.13	3.39
7.187	1612.75	3.34
6.849	1593.38	3.29
6.537	1574.08	3.26
6.254	1556.61	3.21
5.722	1523.34	3.14
5.485	1507.23	3.1
5.257	1490.81	3.07
5.049	1475.34	3.04
4.851	1460.83	3.01
4.661	1446.75	2.97
4.46	1434.87	2.94
4.038	1399.11	2.87
3.884	1389.83	2.85
3.693	1374.94	2.83
3.49	1348.06	2.76
3.33	1335.81	2.73
3.042	1314.68	2.68
2.908	1303.34	2.66
2.783	1293.03	2.64
2.667	1283.23	2.62
2.555	1272.74	2.6
2.45	1263.95	2.57
2.211	1243.09	2.53
2.106	1235.3	2.51
2.034	1225.06	2.5
1.696	1195.28	2.43
1.535	1178.55	2.4
1.398	1164.11	2.36
1.347	1155.88	2.34
1.265	1146.5	2.32
1.182	1137.34	2.3
1.096	1127.7	2.28
1.007	1117.47	2.26
0.98	1107.47	2.24
0.888	1097.53	2.22
0.163	1016.23	2.05
0.127	1011.76	2.04
0.115	1010.3	2.04
0.114	1009.95	2.04
0.103	1008.77	2.04
0.1	1008.7	2.04
0.00159	996.95	2.01
0.00124	996.91	2.01
0.00113	996.91	2.01
0.00113	996.92	2.01
0.00102	996.91	2.01
0.000983	996.83	2.01
