Measured thermophysical data. Thermodynamics of solvation of some small peptides in water at T = 298.15 K
Source: J. Chem. Thermodyn., 2006, 10.1016/j.jct.2005.10.020
Compound 1: 2-acetamidoacetamide, C4H8N2O2, InChI=1S/C4H8N2O2/c1-3(7)6-2-4(5)8/h2H2,1H3,(H2,5,8)(H,6,7)
Compound 2: (S)-2-(acetylamino)-3-methylbutanamide, C7H14N2O2, InChI=1S/C7H14N2O2/c1-4(2)6(7(8)11)9-5(3)10/h4,6H,1-3H3,(H2,8,11)(H,9,10)/t6-/m0/s1
Compound 3: N-Acetyl-L-alanine amide, C5H10N2O2, InChI=1S/C5H10N2O2/c1-3(5(6)9)7-4(2)8/h3H,1-2H3,(H2,6,9)(H,7,8)/t3-/m0/s1
Compound 4: N-acetyl-L-prolinamide, C7H12N2O2, InChI=1S/C7H12N2O2/c1-5(10)9-4-2-3-6(9)7(8)11/h6H,2-4H2,1H3,(H2,8,11)/t6-/m0/s1
Compound 5: pentanamide, 2-(acetylamino)-4-methyl-, (2S)-, C8H16N2O2, InChI=1S/C8H16N2O2/c1-5(2)4-7(8(9)12)10-6(3)11/h5,7H,4H2,1-3H3,(H2,9,12)(H,10,11)/t7-/m0/s1
Compound 6: 2,5-diketopiperazine, C4H6N2O2, InChI=1S/C4H6N2O2/c7-3-1-5-4(8)2-6-3/h1-2H2,(H,5,8)(H,6,7)
Compound 7: 1,4-dimethyl-2,5-piperazinedione, C6H10N2O2, InChI=1S/C6H10N2O2/c1-7-3-6(10)8(2)4-5(7)9/h3-4H2,1-2H3
Compound 8: water, H2O, InChI=1S/H2O/h1H2

System: water + (S)-2-(acetylamino)-3-methylbutanamide; phases: Liquid
Fixed: Pressure, kPa = 101
Property: Molar enthalpy of solution, kJ/mol (Liquid); method: CALVET:UFactor:2
Molality, mol/kg of (S)-2-(acetylamino)-3-methylbutanamide	Temperature, K	Molar enthalpy of solution, kJ/mol	uncertainty
0.00234	296.84	9.07	0.18
0.00258	306.89	11.48	0.23
0.00266	306.89	11.37	0.23
0.003	306.89	11.4	0.23
0.00301	296.84	9.2	0.19
0.0034	296.84	9.08	0.18
0.00403	316.95	13.15	0.26
0.00408	306.89	11.28	0.23
0.00413	316.95	13.59	0.27
0.00414	316.95	13.56	0.27
0.0046	316.95	13.62	0.27
0.0047	296.84	9.24	0.19
0.00503	316.95	13.65	0.27
0.00516	316.95	13.7	0.27
0.00544	296.84	9.1	0.18
0.00643	306.89	11.32	0.23
0.00833	296.84	8.92	0.18
0.01024	306.89	11.29	0.23
0.0116	306.89	11.4	0.23

System: water + N-acetyl-L-prolinamide; phases: Liquid
Fixed: Pressure, kPa = 101
Property: Molar enthalpy of solution, kJ/mol (Liquid); method: CALVET:UFactor:2
Molality, mol/kg of N-acetyl-L-prolinamide	Temperature, K	Molar enthalpy of solution, kJ/mol	uncertainty
0.00307	316.95	7.3	0.15
0.00348	316.95	7.32	0.15
0.00446	306.89	6.2	0.12
0.00545	296.84	4.85	0.1
0.00548	306.89	6.14	0.12
0.00583	296.84	4.86	0.1
0.0059	306.89	6.36	0.13
0.00598	316.95	7.34	0.15
0.00652	316.95	7.32	0.15
0.00654	296.84	4.82	0.1
0.00684	306.89	6.2	0.12
0.00686	316.95	7.37	0.15
0.00691	306.89	6.13	0.12
0.00765	296.84	4.84	0.1
0.00797	316.95	7.22	0.14
0.00828	306.89	6.28	0.13

System: water + pentanamide, 2-(acetylamino)-4-methyl-, (2S)-; phases: Liquid
Fixed: Pressure, kPa = 101
Property: Molar enthalpy of solution, kJ/mol (Liquid); method: CALVET:UFactor:2
Molality, mol/kg of pentanamide, 2-(acetylamino)-4-methyl-, (2S)-	Temperature, K	Molar enthalpy of solution, kJ/mol	uncertainty
0.0015	306.89	3.48	0.08
0.00183	316.95	7.26	0.15
0.00199	316.95	7.2	0.15
0.00235	306.89	3.67	0.08
0.00248	316.95	7.16	0.15
0.00252	306.89	3.68	0.08
0.00297	316.95	7.28	0.15
0.0032	306.89	3.77	0.08
0.00342	316.95	7.34	0.15
0.00625	296.84	-0.03	0.04
0.00685	296.84	-0.03	0.01
0.00744	296.84	-0.04	0.01
0.00837	296.84	-0.03	0.01

System: 2-acetamidoacetamide + water; phases: Liquid
Fixed: Pressure, kPa = 101
Fixed: Temperature, K = 298.15
Property: Molar enthalpy of solution, kJ/mol (Liquid); method: batch microcalorimeter
Molality, mol/kg of 2-acetamidoacetamide	Molar enthalpy of solution, kJ/mol	uncertainty
0.0105	15.89	0.16
0.0133	15.7	0.16
0.0168	15.68	0.16
0.0189	15.81	0.16
0.0193	15.79	0.16
0.0204	15.58	0.16

System: 2-acetamidoacetamide + water; phases: Liquid
Fixed: Pressure, kPa = 101
Property: Molar enthalpy of solution, kJ/mol (Liquid); method: CALVET:UFactor:2
Molality, mol/kg of 2-acetamidoacetamide	Temperature, K	Molar enthalpy of solution, kJ/mol	uncertainty
0.00013	296.84	15.86	0.32
0.00176	306.89	16.67	0.33
0.00302	296.84	15.81	0.32
0.00364	306.89	16.39	0.33
0.00391	306.89	16.16	0.32
0.00396	306.89	16.15	0.32
0.00406	306.89	16.36	0.33
0.00425	316.95	16.46	0.33
0.00432	296.84	15.97	0.32
0.00473	306.89	16.23	0.32
0.00489	306.89	16.42	0.33
0.00568	296.84	15.66	0.31
0.00571	306.89	16.27	0.33
0.00656	316.95	16.66	0.33
0.00721	316.95	16.67	0.33
0.00761	306.89	16.4	0.33
0.00864	316.95	16.56	0.33
0.00865	316.95	16.47	0.33
0.01108	316.95	16.61	0.33

System: 2,5-diketopiperazine + water; phases: Liquid
Fixed: Pressure, kPa = 101
Property: Molar enthalpy of solution, kJ/mol (Liquid); method: CALVET:UFactor:2
Molality, mol/kg of 2,5-diketopiperazine	Temperature, K	Molar enthalpy of solution, kJ/mol	uncertainty
0.0024	316.95	26.6	0.53
0.00264	306.89	26.7	0.53
0.00269	306.89	26.33	0.53
0.00365	306.89	26.62	0.53
0.00375	316.95	26.86	0.54
0.00392	306.89	26.43	0.53
0.00424	316.95	26.9	0.54
0.00428	306.89	26.35	0.53
0.00456	306.89	26.81	0.54
0.00456	316.95	26.71	0.53
0.00461	316.95	26.72	0.53
0.00472	296.84	26.54	0.53
0.00494	306.89	26.6	0.53
0.00564	306.89	26.67	0.53
0.00567	296.84	26.38	0.53
0.00608	296.84	26.36	0.53
0.00654	296.84	26.47	0.53
0.00723	306.89	26.11	0.52
0.00767	296.84	26.21	0.52
0.00845	296.84	26.14	0.53
0.00848	296.84	26.3	0.53
0.01006	316.95	26.61	0.53

System: 1,4-dimethyl-2,5-piperazinedione + water; phases: Liquid
Fixed: Pressure, kPa = 101
Property: Molar enthalpy of solution, kJ/mol (Liquid); method: CALVET:UFactor:4
Molality, mol/kg of 1,4-dimethyl-2,5-piperazinedione	Temperature, K	Molar enthalpy of solution, kJ/mol	uncertainty
0.00138	316.95	5.33	0.21
0.00148	306.89	4.32	0.17
0.002	296.84	3.81	0.15
0.00256	316.95	5.46	0.22
0.00278	306.89	4.87	0.2
0.00306	316.95	5.36	0.21
0.00322	306.89	4.62	0.19
0.00323	296.84	3.86	0.15
0.0033	296.84	3.93	0.16
0.00368	316.95	5.31	0.21
0.00412	306.89	4.38	0.18
0.00437	306.89	4.66	0.19
0.00442	306.89	4.31	0.17
0.00443	306.89	4.97	0.2
0.00445	296.84	3.91	0.16
0.00541	306.89	4.43	0.18
0.00599	296.84	3.98	0.16
0.00613	316.95	5.29	0.21
0.00636	296.84	3.93	0.16
0.00703	296.84	4	0.16
0.00858	316.95	5.44	0.22
0.00861	306.89	4.11	0.17

System: water + N-Acetyl-L-alanine amide; phases: Liquid
Fixed: Pressure, kPa = 101
Property: Molar enthalpy of solution, kJ/mol (Liquid); method: CALVET:UFactor:2
Molality, mol/kg of N-Acetyl-L-alanine amide	Temperature, K	Molar enthalpy of solution, kJ/mol	uncertainty
0.0038	316.95	7.61	0.16
0.00391	316.95	7.92	0.16
0.00395	316.95	7.6	0.17
0.00493	306.89	6.93	0.14
0.00657	306.89	6.92	0.14
0.00679	306.89	6.97	0.14
0.00693	296.84	5.42	0.11
0.00731	296.84	5.38	0.11
0.00816	316.95	7.6	0.15
0.00865	316.95	7.73	0.15
0.00867	306.89	6.91	0.14
0.00965	296.84	5.38	0.11
0.00988	306.89	6.83	0.14
0.0102	306.89	6.89	0.14
0.01132	306.89	6.93	0.14
0.01195	296.84	5.13	0.1
