Measured thermophysical data. Solubility of daidzin in different organic solvents and (ethyl alcohol + water) mixed solvents
Source: J. Chem. Thermodyn., 2015, 10.1016/j.jct.2015.04.025
Compound 1: daidzin, C21H20O9, InChI=1S/C21H20O9/c22-8-16-18(25)19(26)20(27)21(30-16)29-12-5-6-13-15(7-12)28-9-14(17(13)24)10-1-3-11(23)4-2-10/h1-7,9,16,18-23,25-27H,8H2/t16-,18-,19+,20-,21-/m1/s1, purity 98%
Compound 2: tetrahydrofuran, C4H8O, InChI=1S/C4H8O/c1-2-4-5-3-1/h1-4H2, purity 99%
Compound 3: acetone, C3H6O, InChI=1S/C3H6O/c1-3(2)4/h1-2H3, purity 99.5%
Compound 4: methanol, CH4O, InChI=1S/CH4O/c1-2/h2H,1H3, purity 99.5%
Compound 5: butan-1-ol, C4H10O, InChI=1S/C4H10O/c1-2-3-4-5/h5H,2-4H2,1H3, purity 99.5%
Compound 6: acetonitrile, C2H3N, InChI=1S/C2H3N/c1-2-3/h1H3, purity 99.9%
Compound 7: propan-2-ol, C3H8O, InChI=1S/C3H8O/c1-3(2)4/h3-4H,1-2H3, purity 99.5%
Compound 8: ethyl acetate, C4H8O2, InChI=1S/C4H8O2/c1-3-6-4(2)5/h3H2,1-2H3, purity 99.5%
Compound 9: trichloromethane, CHCl3, InChI=1S/CHCl3/c2-1(3)4/h1H, purity 99%
Compound 10: cyclohexane, C6H12, InChI=1S/C6H12/c1-2-4-6-5-3-1/h1-6H2, purity 99.5%
Compound 11: ethanol, C2H6O, InChI=1S/C2H6O/c1-2-3/h3H,2H2,1H3, purity 99.7%
Compound 12: water, H2O, InChI=1S/H2O/h1H2

System: tetrahydrofuran + daidzin; phases: Liquid, Crystal
Fixed: Pressure, kPa = 101.1
Property: Mole fraction of daidzin (Liquid); method: Chromatography
Temperature, K	Mole fraction of daidzin	uncertainty
283.2	0.000784	6.9e-05
293.2	0.00182	0.00027
303.2	0.00684	0.00099
313.2	0.0165	0.0022
323.2	0.0417	0.0066

System: acetone + daidzin; phases: Liquid, Crystal
Fixed: Pressure, kPa = 101.1
Property: Mole fraction of daidzin (Liquid); method: Chromatography
Temperature, K	Mole fraction of daidzin	uncertainty
283.2	0.0001477	1.85e-05
293.2	0.000241	2.6e-05
303.2	0.000326	2.8e-05
313.2	0.000458	5.2e-05
323.2	0.000553	9e-05

System: methanol + daidzin; phases: Liquid, Crystal
Fixed: Pressure, kPa = 101.1
Property: Mole fraction of daidzin (Liquid); method: Chromatography
Temperature, K	Mole fraction of daidzin	uncertainty
283.2	8.78e-05	1.39e-05
293.2	0.0001617	1.52e-05
303.2	0.000339	1.2e-05
313.2	0.000516	7.2e-05
323.2	0.000794	0.00013

System: butan-1-ol + daidzin; phases: Liquid, Crystal
Fixed: Pressure, kPa = 101.1
Property: Mole fraction of daidzin (Liquid); method: Chromatography
Temperature, K	Mole fraction of daidzin	uncertainty
283.2	0.0001412	2.5e-06
293.2	0.0002108	4.9e-06
303.2	0.0002531	1.13e-05
313.2	0.000353	2e-05
323.2	0.000479	2.4e-05

System: acetonitrile + daidzin; phases: Liquid, Crystal
Fixed: Pressure, kPa = 101.1
Property: Mole fraction of daidzin (Liquid); method: Chromatography
Temperature, K	Mole fraction of daidzin	uncertainty
283.2	5.77e-06	3.7e-07
293.2	9e-06	4.5e-07
303.2	1.397e-05	1.82e-06
313.2	2e-05	3.2e-06
323.2	3.3e-05	2.4e-06

System: propan-2-ol + daidzin; phases: Liquid, Crystal
Fixed: Pressure, kPa = 101.1
Property: Mole fraction of daidzin (Liquid); method: Chromatography
Temperature, K	Mole fraction of daidzin	uncertainty
283.2	0.00016	2.2e-05
293.2	0.0002018	9.9e-06
303.2	0.000283	4.2e-05
313.2	0.000427	2e-05
323.2	0.000503	9.8e-05

System: ethyl acetate + daidzin; phases: Liquid, Crystal
Fixed: Pressure, kPa = 101.1
Property: Mole fraction of daidzin (Liquid); method: Chromatography
Temperature, K	Mole fraction of daidzin	uncertainty
283.2	5.38e-06	8e-07
293.2	7.88e-06	3.9e-07
303.2	1.58e-05	2.8e-06
313.2	4.24e-05	7.8e-06
323.2	6.74e-05	7e-06

System: trichloromethane + daidzin; phases: Liquid, Crystal
Fixed: Pressure, kPa = 101.1
Property: Mole fraction of daidzin (Liquid); method: Chromatography
Temperature, K	Mole fraction of daidzin	uncertainty
283.2	3.83e-07	3e-08
293.2	8.76e-07	9.7e-08
303.2	1.6e-06	3.2e-07
313.2	2.36e-06	4.6e-07
323.2	3.2e-06	3.6e-07

System: cyclohexane + daidzin; phases: Liquid, Crystal
Fixed: Pressure, kPa = 101.1
Property: Mole fraction of daidzin (Liquid); method: Chromatography
Temperature, K	Mole fraction of daidzin	uncertainty
283.2	1.252e-07	7.3e-09
293.2	2.95e-07	2.6e-08
303.2	5.56e-07	1.04e-07
313.2	1.023e-06	1.58e-07
323.2	1.37e-06	2.6e-07

System: ethanol + daidzin + water; phases: Liquid, Crystal
Fixed: Pressure, kPa = 101.1
Property: Mole fraction of daidzin (Liquid); method: Chromatography
Temperature, K	Solvent: Mole fraction of ethanol	Mole fraction of daidzin	uncertainty
283.2	0	2.364e-06	1.76e-07
293.2	0	4.096e-06	1.21e-07
303.2	0	6.91e-06	5.4e-07
313.2	0	9.39e-06	9.2e-07
323.2	0	1.58e-05	2.6e-06
283.2	0.2	1.006e-05	1.08e-06
293.2	0.2	1.609e-05	1.67e-06
303.2	0.2	3.54e-05	5.2e-06
313.2	0.2	6.64e-05	7.2e-06
323.2	0.2	0.00011032	7.83e-06
283.2	0.5	2.277e-05	1.13e-06
293.2	0.5	4.25e-05	6e-06
303.2	0.5	7.7e-05	7.9e-06
313.2	0.5	0.0001334	1.7e-05
323.2	0.5	0.0002127	1.79e-05
283.2	0.8	2.736e-05	1.019e-05
293.2	0.8	6.16e-05	1.69e-05
303.2	0.8	0.0001311	2.06e-05
313.2	0.8	0.0001942	2.15e-05
323.2	0.8	0.000368	3.2e-05
283.2	1	0.0002912	1.79e-05
293.2	1	0.0003967	1.97e-05
303.2	1	0.000499	5.6e-05
313.2	1	0.0006688	8.2e-06
323.2	1	0.000813	4e-05

System: daidzin + water; phases: Liquid, Crystal
Fixed: Pressure, kPa = 101.1
Property: Mole fraction of daidzin (Liquid); method: Chromatography
Temperature, K	Mole fraction of daidzin	uncertainty
283.2	2.364e-06	1.76e-07
293.2	4.096e-06	1.21e-07
303.2	6.91e-06	5.4e-07
313.2	9.39e-06	9.2e-07
323.2	1.58e-05	2.6e-06

System: ethanol + daidzin; phases: Liquid, Crystal
Fixed: Pressure, kPa = 101.1
Property: Mole fraction of daidzin (Liquid); method: Chromatography
Temperature, K	Mole fraction of daidzin	uncertainty
283.2	0.0002912	1.79e-05
293.2	0.0003967	1.97e-05
303.2	0.000499	5.6e-05
313.2	0.0006688	8.2e-06
323.2	0.000813	4e-05
