Measured thermophysical data. (Liquid + liquid) equilibria for ternary mixtures of (methanol or ethanol + toluene or m-xylene + n-dodecane)
Source: J. Chem. Thermodyn., 2006, 10.1016/j.jct.2005.04.004
Compound 1: methanol, CH4O, InChI=1S/CH4O/c1-2/h2H,1H3
Compound 2: ethanol, C2H6O, InChI=1S/C2H6O/c1-2-3/h3H,2H2,1H3
Compound 3: dodecane, C12H26, InChI=1S/C12H26/c1-3-5-7-9-11-12-10-8-6-4-2/h3-12H2,1-2H3
Compound 4: toluene, C7H8, InChI=1S/C7H8/c1-7-5-3-2-4-6-7/h2-6H,1H3
Compound 5: 1,3-dimethylbenzene, C8H10, InChI=1S/C8H10/c1-7-4-3-5-8(2)6-7/h3-6H,1-2H3

System: methanol + toluene + dodecane; phases: Liquid mixture 1, Liquid mixture 2
Fixed: Pressure, kPa = 101.32
Property: Mole fraction of toluene (Liquid mixture 1); method: CHROM:UFactor:24
Property: Mole fraction of toluene (Liquid mixture 2); method: CHROM:UFactor:24
Property: Mole fraction of methanol (Liquid mixture 2); method: CHROM:UFactor:24
Temperature, K	Mole fraction of methanol	Mole fraction of toluene	uncertainty	Mole fraction of toluene	uncertainty	Mole fraction of methanol	uncertainty
298.15	0.2622	0.3406	0.0817	0.0805	0.0097	0.8878	
298.15	0.2165	0.2542	0.061	0.0579	0.0069	0.9135	
298.15	0.2023	0.1672	0.0401	0.0346	0.0042	0.945	
298.15	0.1922	0.1446	0.0347	0.0278	0.0033	0.9547	
298.15	0.168	0.1283	0.0308	0.0232	0.0028	0.9607	
303.15	0.2943	0.3286	0.0789	0.0815	0.0098	0.8799	
303.15	0.2741	0.3001	0.072	0.0683	0.0082	0.9005	
303.15	0.239	0.2418	0.058	0.0514	0.0062	0.923	
303.15	0.2162	0.1734	0.0416	0.0311	0.0037	0.945	
303.15	0.21	0.1243	0.0298	0.0218	0.0026	0.9609	
313.15	0.3279	0.3193	0.0766	0.0923	0.0111	0.8562	
313.15	0.282	0.3042	0.073	0.0724	0.0087	0.885	
313.15	0.2657	0.2345	0.0563	0.0548	0.0066	0.9104	
313.15	0.2623	0.1528	0.0367	0.0337	0.004	0.9398	
313.15	0.2588	0.1274	0.0306	0.0238	0.0029	0.9569	

System: methanol + 1,3-dimethylbenzene + dodecane; phases: Liquid mixture 1, Liquid mixture 2
Fixed: Pressure, kPa = 101.32
Property: Mole fraction of methanol (Liquid mixture 1); method: CHROM:UFactor:8
Property: Mole fraction of 1,3-dimethylbenzene (Liquid mixture 2); method: CHROM:UFactor:8
Property: Mole fraction of methanol (Liquid mixture 2); method: CHROM:UFactor:8
Temperature, K	Mole fraction of 1,3-dimethylbenzene	Mole fraction of methanol	uncertainty	Mole fraction of 1,3-dimethylbenzene	uncertainty	Mole fraction of methanol	uncertainty
298.15	0.3633	0.1746	0.014	0.0728	0.0058	0.889	
298.15	0.2792	0.1525	0.0122	0.0562	0.0045	0.9137	
298.15	0.2236	0.1422	0.0114	0.0433	0.0035	0.9324	
298.15	0.1768	0.1401	0.0112	0.0308	0.0025	0.9499	
298.15	0.1353	0.1345	0.0108	0.0224	0.0018	0.9614	
303.15	0.3413	0.1934	0.0155	0.0801	0.0064	0.8816	
303.15	0.2704	0.1884	0.0151	0.0623	0.005	0.8948	
303.15	0.2318	0.1838	0.0147	0.0555	0.0044	0.9039	
303.15	0.2092	0.1723	0.0138	0.0447	0.0036	0.916	
303.15	0.1732	0.1675	0.0134	0.0324	0.0026	0.9453	
313.15	0.3411	0.1983	0.0159	0.0811	0.0065	0.85	
313.15	0.2671	0.1977	0.0158	0.0621	0.005	0.8836	
313.15	0.2313	0.1968	0.0157	0.0528	0.0042	0.9043	
313.15	0.2008	0.1856	0.0148	0.0461	0.0037	0.9128	
313.15	0.1782	0.183	0.0146	0.0372	0.003	0.9323	

System: ethanol + toluene + dodecane; phases: Liquid mixture 1, Liquid mixture 2
Fixed: Pressure, kPa = 101.32
Property: Mole fraction of ethanol (Liquid mixture 1); method: CHROM:UFactor:12
Property: Mole fraction of toluene (Liquid mixture 2); method: CHROM:UFactor:12
Property: Mole fraction of ethanol (Liquid mixture 2); method: CHROM:UFactor:12
Temperature, K	Mole fraction of toluene	Mole fraction of ethanol	uncertainty	Mole fraction of toluene	uncertainty	Mole fraction of ethanol	uncertainty
298.15	0.3824	0.2115	0.0254	0.1523	0.0183	0.7683	
298.15	0.3458	0.2092	0.0251	0.1253	0.015	0.8055	
298.15	0.2643	0.2015	0.0242	0.0945	0.0113	0.843	
298.15	0.2258	0.1849	0.0222	0.0768	0.0092	0.869	
298.15	0.1463	0.1723	0.0207	0.0456	0.0055	0.9138	
303.15	0.3627	0.2402	0.0288	0.1527	0.0183	0.7576	
303.15	0.2795	0.237	0.0284	0.1125	0.0135	0.8018	
303.15	0.2602	0.2315	0.0278	0.1027	0.0123	0.8185	
303.15	0.2242	0.2275	0.0273	0.0854	0.0102	0.8419	
303.15	0.1425	0.2221	0.0267	0.0524	0.0063	0.8974	
313.15	0.3486	0.2905	0.0349	0.1658	0.0199	0.7297	
313.15	0.2614	0.2884	0.0346	0.1079	0.0129	0.7904	
313.15	0.2316	0.2872	0.0345	0.0942	0.0113	0.8146	
313.15	0.1983	0.2854	0.0342	0.0769	0.0092	0.8598	
313.15	0.1472	0.2786	0.0334	0.0563	0.0068	0.888	

System: ethanol + 1,3-dimethylbenzene + dodecane; phases: Liquid mixture 2, Liquid mixture 1
Fixed: Pressure, kPa = 101.32
Property: Mole fraction of 1,3-dimethylbenzene (Liquid mixture 2); method: CHROM:UFactor:12
Property: Mole fraction of 1,3-dimethylbenzene (Liquid mixture 1); method: CHROM:UFactor:12
Property: Mole fraction of ethanol (Liquid mixture 1); method: CHROM:UFactor:12
Temperature, K	Mole fraction of ethanol	Mole fraction of 1,3-dimethylbenzene	uncertainty	Mole fraction of 1,3-dimethylbenzene	uncertainty	Mole fraction of ethanol	uncertainty
298.15	0.8001	0.1311	0.0157	0.3517	0.0563	0.197	
298.15	0.8509	0.0867	0.0104	0.2551	0.0408	0.1953	
298.15	0.8709	0.0729	0.0087	0.2194	0.0351	0.1918	
298.15	0.8909	0.0608	0.0073	0.1893	0.0303	0.1834	
298.15	0.9187	0.0428	0.0051	0.1472	0.0236	0.1601	
303.15	0.7875	0.1327	0.0159	0.3245	0.0519	0.311	
303.15	0.824	0.1035	0.0124	0.2784	0.0445	0.2997	
303.15	0.8536	0.0802	0.0096	0.2202	0.0352	0.2586	
303.15	0.8839	0.0617	0.0074	0.1781	0.0285	0.2483	
303.15	0.9104	0.0471	0.0057	0.1442	0.0231	0.2304	
313.15	0.7616	0.1328	0.0159	0.3477	0.0556	0.3071	
313.15	0.8079	0.1104	0.0132	0.2952	0.0472	0.3039	
313.15	0.8513	0.0835	0.01	0.2384	0.0381	0.2692	
313.15	0.8789	0.0729	0.0087	0.2086	0.0334	0.2572	
313.15	0.8946	0.0583	0.007	0.1698	0.0272	0.249	
