Measured thermophysical data. Interaction of cephalosporin drugs with dodecyltrimethylammonium Bromide
Source: J. Chem. Thermodyn., 2013, 10.1016/j.jct.2013.04.007
Compound 1: dodecyltrimethylammonium bromide, C15H34BrN, InChI=1S/C15H34N.BrH/c1-5-6-7-8-9-10-11-12-13-14-15-16(2,3)4;/h5-15H2,1-4H3;1H/q+1;/p-1, purity 99%
Compound 2: water, H2O, InChI=1S/H2O/h1H2
Compound 3: cefadroxil, C16H17N3O5S, InChI=1S/C16H17N3O5S/c1-7-6-25-15-11(14(22)19(15)12(7)16(23)24)18-13(21)10(17)8-2-4-9(20)5-3-8/h2-5,10-11,15,20H,6,17H2,1H3,(H,18,21)(H,23,24)/t10-,11-,15-/m1/s1, purity 98%

System: dodecyltrimethylammonium bromide + water + cefadroxil; phases: Liquid
Fixed: Temperature, K = 303.15
Fixed: Pressure, kPa = 101
Property: Electrical conductivity, S/m (Liquid); method: 4510 conductivity meter
Amount concentration (molarity), mol/dm3 of cefadroxil	Amount concentration (molarity), mol/dm3 of dodecyltrimethylammonium bromide	Electrical conductivity, S/m	uncertainty
0.001	0	0.0001	0.00015
0.000993	0.00033	0.00247	0.00015
0.000987	0.00066	0.00429	0.00015
0.00098	0.00098	0.00593	0.00015
0.000974	0.0013	0.00729	0.00015
0.000968	0.00161	0.00859	0.00015
0.000962	0.00192	0.00967	0.000154
0.000955	0.00223	0.01064	0.000169
0.000949	0.00253	0.01157	0.000184
0.000943	0.00283	0.01236	0.000197
0.000937	0.00313	0.01315	0.000209
0.000932	0.00342	0.01386	0.000221
0.000926	0.0037	0.01451	0.000231
0.00092	0.00399	0.01509	0.00024
0.000915	0.00427	0.01561	0.000248
0.000909	0.00455	0.0161	0.000256
0.000904	0.00482	0.01662	0.000264
0.000898	0.00509	0.01705	0.000271
0.000893	0.00536	0.01746	0.000278
0.000888	0.00562	0.01783	0.000284
0.000882	0.00588	0.01826	0.000291
0.000872	0.0064	0.01893	0.000301
0.000862	0.0069	0.01957	0.000311
0.000852	0.00739	0.02	0.000318
0.000843	0.00787	0.0205	0.000326
0.000833	0.00833	0.0211	0.000336
0.000811	0.00946	0.0221	0.000352
0.000789	0.01053	0.0229	0.000364
0.000769	0.01154	0.0235	0.000374
0.00075	0.0125	0.0242	0.000385
0.000732	0.01341	0.0246	0.000391
0.000714	0.01429	0.0251	0.000399
0.000682	0.01591	0.0255	0.000406
0.000652	0.01739	0.0258	0.00041

System: water + cefadroxil; phases: Liquid
Property: Electrical conductivity, S/m (Liquid); method: 4510 conductivity meter
Temperature, K	Pressure, kPa	Amount concentration (molarity), mol/dm3 of cefadroxil	Electrical conductivity, S/m	uncertainty
303.15	101	0.001	0.0001	0.00015
