Measured thermophysical data. Volumetric properties of binary mixtures of tributylamine with benzene derivatives and comparison with ERAS model results at temperatures from (293.15 to 333.15) K
Source: J. Chem. Thermodyn., 2012, 10.1016/j.jct.2011.10.027
Compound 1: tributylamine, C12H27N, InChI=1S/C12H27N/c1-4-7-10-13(11-8-5-2)12-9-6-3/h4-12H2,1-3H3, purity 99%
Compound 2: toluene, C7H8, InChI=1S/C7H8/c1-7-5-3-2-4-6-7/h2-6H,1H3, purity 99.9%
Compound 3: ethylbenzene, C8H10, InChI=1S/C8H10/c1-2-8-6-4-3-5-7-8/h3-7H,2H2,1H3, purity 99%
Compound 4: 1,2-dimethylbenzene, C8H10, InChI=1S/C8H10/c1-7-5-3-4-6-8(7)2/h3-6H,1-2H3, purity 99%
Compound 5: 1,3-dimethylbenzene, C8H10, InChI=1S/C8H10/c1-7-4-3-5-8(2)6-7/h3-6H,1-2H3, purity 99%
Compound 6: 1,4-dimethylbenzene, C8H10, InChI=1S/C8H10/c1-7-3-5-8(2)6-4-7/h3-6H,1-2H3, purity 99%
Compound 7: nitrobenzene, C6H5NO2, InChI=1S/C6H5NO2/c8-7(9)6-4-2-1-3-5-6/h1-5H, purity 99%

System: tributylamine; phases: Liquid
Property: Refractive index (Na D-line) (Liquid); method: Standard Abbe refractometry
Temperature, K	Pressure, kPa	Refractive index (Na D-line)	uncertainty
293.15	101.325	1.4259	0.0005

System: tributylamine; phases: Liquid
Fixed: Pressure, kPa = 101.325
Property: Mass density, kg/m3 (Liquid); method: Vibrating tube method
Temperature, K	Mass density, kg/m3	uncertainty
293.15	776.91	0.24
298.15	773.18	0.24
303.15	769.45	0.24
313.15	761.97	0.24
323.15	754.45	0.24
333.15	746.88	0.24

System: toluene; phases: Liquid
Property: Refractive index (Na D-line) (Liquid); method: Standard Abbe refractometry
Temperature, K	Pressure, kPa	Refractive index (Na D-line)	uncertainty
293.15	101.325	1.493	0.0005

System: toluene; phases: Liquid
Fixed: Pressure, kPa = 101.325
Property: Mass density, kg/m3 (Liquid); method: Vibrating tube method
Temperature, K	Mass density, kg/m3	uncertainty
293.15	866.89	0.13
298.15	862.24	0.13
303.15	857.58	0.13
313.15	848.2	0.13
323.15	838.76	0.13
333.15	829.22	0.14

System: ethylbenzene; phases: Liquid
Property: Refractive index (Na D-line) (Liquid); method: Standard Abbe refractometry
Temperature, K	Pressure, kPa	Refractive index (Na D-line)	uncertainty
293.15	101.325	1.4922	0.0005

System: ethylbenzene; phases: Liquid
Fixed: Pressure, kPa = 101.325
Property: Mass density, kg/m3 (Liquid); method: Vibrating tube method
Temperature, K	Mass density, kg/m3	uncertainty
293.15	866.99	0.24
298.15	862.59	0.24
303.15	858.18	0.24
313.15	849.33	0.24
323.15	840.42	0.24
333.15	831.42	0.24

System: 1,2-dimethylbenzene; phases: Liquid
Property: Refractive index (Na D-line) (Liquid); method: Standard Abbe refractometry
Temperature, K	Pressure, kPa	Refractive index (Na D-line)	uncertainty
293.15	101.325	1.5015	0.0005

System: 1,2-dimethylbenzene; phases: Liquid
Fixed: Pressure, kPa = 101.325
Property: Mass density, kg/m3 (Liquid); method: Vibrating tube method
Temperature, K	Mass density, kg/m3	uncertainty
293.15	879.79	0.23
298.15	875.58	0.23
303.15	871.37	0.24
313.15	862.78	0.24
323.15	854.02	0.24
333.15	845.2	0.24

System: 1,3-dimethylbenzene; phases: Liquid
Property: Refractive index (Na D-line) (Liquid); method: Standard Abbe refractometry
Temperature, K	Pressure, kPa	Refractive index (Na D-line)	uncertainty
293.15	101.325	1.4936	0.0005

System: 1,3-dimethylbenzene; phases: Liquid
Fixed: Pressure, kPa = 101.325
Property: Mass density, kg/m3 (Liquid); method: Vibrating tube method
Temperature, K	Mass density, kg/m3	uncertainty
293.15	864.18	0.24
298.15	859.88	0.24
303.15	855.56	0.24
313.15	846.85	0.24
323.15	837.92	0.24
333.15	829.01	0.24

System: 1,4-dimethylbenzene; phases: Liquid
Property: Refractive index (Na D-line) (Liquid); method: Standard Abbe refractometry
Temperature, K	Pressure, kPa	Refractive index (Na D-line)	uncertainty
293.15	101.325	1.4922	0.0005

System: 1,4-dimethylbenzene; phases: Liquid
Fixed: Pressure, kPa = 101.325
Property: Mass density, kg/m3 (Liquid); method: Vibrating tube method
Temperature, K	Mass density, kg/m3	uncertainty
293.15	861.02	0.24
298.15	856.68	0.24
303.15	852.33	0.24
313.15	843.59	0.24
323.15	834.81	0.24
333.15	825.96	0.24

System: nitrobenzene; phases: Liquid
Property: Refractive index (Na D-line) (Liquid); method: Standard Abbe refractometry
Temperature, K	Pressure, kPa	Refractive index (Na D-line)	uncertainty
293.15	101.325	1.549	0.0005

System: nitrobenzene; phases: Liquid
Fixed: Pressure, kPa = 101.325
Property: Mass density, kg/m3 (Liquid); method: Vibrating tube method
Temperature, K	Mass density, kg/m3	uncertainty
293.15	1203.13	0.4
298.15	1198.17	0.39
303.15	1193.21	0.39
313.15	1183.3	0.38
323.15	1173.38	0.37
333.15	1163.45	0.36

System: tributylamine + toluene; phases: Liquid
Fixed: Pressure, kPa = 101
Property: Mass density, kg/m3 (Liquid); method: Vibrating tube method
Temperature, K	Mole fraction of tributylamine	Mass density, kg/m3	uncertainty
293.15	0.0818	851.2	0.14
293.15	0.1626	838.57	0.14
293.15	0.2401	828.4	0.15
293.15	0.3243	819.07	0.15
293.15	0.3987	811.93	0.16
293.15	0.4789	805.28	0.17
293.15	0.5592	799.41	0.17
293.15	0.6414	794.14	0.18
293.15	0.7238	789.42	0.2
293.15	0.7985	785.62	0.21
293.15	0.8802	781.79	0.22
293.15	0.8991	780.96	0.22
298.15	0.0818	846.71	0.14
298.15	0.1626	834.2	0.14
298.15	0.2401	824.14	0.15
298.15	0.3243	814.89	0.15
298.15	0.3987	807.83	0.16
298.15	0.4789	801.25	0.17
298.15	0.5592	795.44	0.18
298.15	0.6414	790.22	0.19
298.15	0.7238	785.56	0.2
298.15	0.7985	781.8	0.21
298.15	0.8802	778.01	0.22
298.15	0.8991	777.2	0.22
303.15	0.0818	842.2	0.14
303.15	0.1626	829.81	0.14
303.15	0.2401	819.86	0.15
303.15	0.3243	810.71	0.15
303.15	0.3987	803.72	0.16
303.15	0.4789	797.2	0.17
303.15	0.5592	791.46	0.18
303.15	0.6414	786.3	0.19
303.15	0.7238	781.69	0.2
303.15	0.7985	777.97	0.21
303.15	0.8802	774.23	0.22
303.15	0.8991	773.42	0.22
313.15	0.0818	833.14	0.14
313.15	0.1626	821	0.14
313.15	0.2401	811.26	0.15
313.15	0.3243	802.29	0.16
313.15	0.3987	795.46	0.16
313.15	0.4789	789.08	0.17
313.15	0.5592	783.47	0.18
313.15	0.6414	778.42	0.19
313.15	0.7238	773.92	0.2
313.15	0.7985	770.28	0.21
313.15	0.8802	766.64	0.22
313.15	0.8991	765.85	0.22
323.15	0.0818	824.01	0.14
323.15	0.1626	812.13	0.15
323.15	0.2401	802.6	0.15
323.15	0.3243	793.83	0.16
323.15	0.3987	787.15	0.16
323.15	0.4789	780.92	0.17
323.15	0.5592	775.43	0.18
323.15	0.6414	770.5	0.19
323.15	0.7238	766.11	0.2
323.15	0.7985	762.56	0.21
323.15	0.8802	759	0.22
323.15	0.8991	758.23	0.22
333.15	0.0818	814.79	0.14
333.15	0.1626	803.18	0.15
333.15	0.2401	793.86	0.15
333.15	0.3243	785.3	0.16
333.15	0.3987	778.78	0.17
333.15	0.4789	772.69	0.17
333.15	0.5592	767.34	0.18
333.15	0.6414	762.52	0.19
333.15	0.7238	758.24	0.2
333.15	0.7985	754.78	0.21
333.15	0.8802	751.31	0.22
333.15	0.8991	750.57	0.23

System: ethylbenzene + tributylamine; phases: Liquid
Fixed: Pressure, kPa = 101
Property: Mass density, kg/m3 (Liquid); method: Vibrating tube method
Temperature, K	Mole fraction of tributylamine	Mass density, kg/m3	uncertainty
293.15	0.0829	852.96	0.24
293.15	0.1602	841.78	0.24
293.15	0.2404	831.68	0.24
293.15	0.3189	823	0.24
293.15	0.3972	815.35	0.24
293.15	0.4788	808.26	0.24
293.15	0.572	801.08	0.24
293.15	0.6382	796.47	0.24
293.15	0.7192	791.35	0.24
293.15	0.8022	786.64	0.24
293.15	0.8765	782.75	0.24
293.15	0.9556	778.92	0.24
298.15	0.0829	848.66	0.24
298.15	0.1602	837.56	0.24
298.15	0.2404	827.53	0.24
298.15	0.3189	818.92	0.24
298.15	0.3972	811.33	0.24
298.15	0.4788	804.3	0.24
298.15	0.572	797.17	0.24
298.15	0.6382	792.6	0.24
298.15	0.7192	787.52	0.24
298.15	0.8022	782.83	0.24
298.15	0.8765	778.98	0.24
298.15	0.9556	775.18	0.24
303.15	0.0829	844.35	0.24
303.15	0.1602	833.34	0.24
303.15	0.2404	823.38	0.24
303.15	0.3189	814.83	0.24
303.15	0.3972	807.3	0.24
303.15	0.4788	800.32	0.24
303.15	0.572	793.25	0.24
303.15	0.6382	788.71	0.24
303.15	0.7192	783.67	0.24
303.15	0.8022	779.02	0.24
303.15	0.8765	775.21	0.24
303.15	0.9556	771.44	0.24
313.15	0.0829	835.7	0.24
313.15	0.1602	824.84	0.24
313.15	0.2404	815.04	0.24
313.15	0.3189	806.62	0.24
313.15	0.3972	799.2	0.24
313.15	0.4788	792.33	0.24
313.15	0.572	785.37	0.24
313.15	0.6382	780.91	0.24
313.15	0.7192	775.96	0.24
313.15	0.8022	771.38	0.24
313.15	0.8765	767.62	0.24
313.15	0.9556	763.92	0.24
323.15	0.0829	827	0.24
323.15	0.1602	816.3	0.24
323.15	0.2404	806.64	0.24
323.15	0.3189	798.36	0.24
323.15	0.3972	791.06	0.24
323.15	0.4788	784.3	0.24
323.15	0.572	777.45	0.24
323.15	0.6382	773.07	0.24
323.15	0.7192	768.2	0.24
323.15	0.8022	763.69	0.24
323.15	0.8765	760	0.24
323.15	0.9556	756.36	0.24
333.15	0.0829	818.22	0.24
333.15	0.1602	807.68	0.24
333.15	0.2404	798.19	0.24
333.15	0.3189	790.04	0.24
333.15	0.3972	782.85	0.24
333.15	0.4788	776.21	0.24
333.15	0.572	769.48	0.24
333.15	0.6382	765.18	0.24
333.15	0.7192	760.39	0.24
333.15	0.8022	755.96	0.24
333.15	0.8765	752.32	0.24
333.15	0.9556	748.76	0.24

System: 1,2-dimethylbenzene + tributylamine; phases: Liquid
Fixed: Pressure, kPa = 101
Property: Mass density, kg/m3 (Liquid); method: Vibrating tube method
Temperature, K	Mole fraction of tributylamine	Mass density, kg/m3	uncertainty
293.15	0.0762	865.26	0.24
293.15	0.1611	851.26	0.24
293.15	0.2324	840.99	0.24
293.15	0.3142	830.6	0.24
293.15	0.3986	821.15	0.24
293.15	0.481	812.95	0.24
293.15	0.5686	805.17	0.24
293.15	0.6368	799.67	0.24
293.15	0.7145	793.98	0.24
293.15	0.769	790.27	0.24
293.15	0.8741	783.74	0.24
293.15	0.9545	779.3	0.24
298.15	0.0762	861.1	0.24
298.15	0.1611	847.17	0.24
298.15	0.2324	836.94	0.24
298.15	0.3142	826.6	0.24
298.15	0.3986	817.19	0.24
298.15	0.481	809.03	0.24
298.15	0.5686	801.29	0.24
298.15	0.6368	795.83	0.24
298.15	0.7145	790.16	0.24
298.15	0.769	786.47	0.24
298.15	0.8741	779.98	0.24
298.15	0.9545	775.56	0.24
303.15	0.0762	856.94	0.24
303.15	0.1611	843.07	0.24
303.15	0.2324	832.88	0.24
303.15	0.3142	822.59	0.24
303.15	0.3986	813.22	0.24
303.15	0.481	805.1	0.24
303.15	0.5686	797.4	0.24
303.15	0.6368	791.97	0.24
303.15	0.7145	786.34	0.24
303.15	0.769	782.67	0.24
303.15	0.8741	776.21	0.24
303.15	0.9545	771.81	0.24
313.15	0.0762	848.59	0.24
313.15	0.1611	834.83	0.24
313.15	0.2324	824.73	0.24
313.15	0.3142	814.54	0.24
313.15	0.3986	805.26	0.24
313.15	0.481	797.21	0.24
313.15	0.5686	789.61	0.24
313.15	0.6368	784.23	0.24
313.15	0.7145	778.66	0.24
313.15	0.769	775.03	0.24
313.15	0.8741	768.65	0.24
313.15	0.9545	764.3	0.24
323.15	0.0762	840.19	0.24
323.15	0.1611	826.55	0.24
323.15	0.2324	816.54	0.24
323.15	0.3142	806.44	0.24
323.15	0.3986	797.25	0.24
323.15	0.481	789.28	0.24
323.15	0.5686	781.76	0.24
323.15	0.6368	776.45	0.24
323.15	0.7145	770.94	0.24
323.15	0.769	767.36	0.24
323.15	0.8741	761.06	0.24
323.15	0.9545	756.75	0.24
333.15	0.0762	831.72	0.24
333.15	0.1611	818.19	0.24
333.15	0.2324	808.28	0.24
333.15	0.3142	798.29	0.24
333.15	0.3986	789.19	0.24
333.15	0.481	781.29	0.24
333.15	0.5686	773.87	0.24
333.15	0.6368	768.61	0.24
333.15	0.7145	763.17	0.24
333.15	0.769	759.64	0.24
333.15	0.8741	753.41	0.24
333.15	0.9545	749.14	0.24

System: tributylamine + 1,3-dimethylbenzene; phases: Liquid
Fixed: Pressure, kPa = 101
Property: Mass density, kg/m3 (Liquid); method: Vibrating tube method
Temperature, K	Mole fraction of tributylamine	Mass density, kg/m3	uncertainty
293.15	0.0803	851.21	0.24
293.15	0.1564	840.57	0.24
293.15	0.2405	830.31	0.24
293.15	0.3223	821.61	0.24
293.15	0.3983	814.42	0.24
293.15	0.4784	807.64	0.24
293.15	0.5497	802.22	0.24
293.15	0.6375	796.16	0.24
293.15	0.7175	791.21	0.24
293.15	0.7958	786.77	0.24
293.15	0.8823	782.31	0.24
293.15	0.9616	778.58	0.24
298.15	0.0803	846.99	0.24
298.15	0.1564	836.42	0.24
298.15	0.2405	826.21	0.24
298.15	0.3223	817.57	0.24
298.15	0.3983	810.43	0.24
298.15	0.4784	803.69	0.24
298.15	0.5497	798.31	0.24
298.15	0.6375	792.3	0.24
298.15	0.7175	787.38	0.24
298.15	0.7958	782.98	0.24
298.15	0.8823	778.55	0.24
298.15	0.9616	774.84	0.24
303.15	0.0803	842.76	0.24
303.15	0.1564	832.26	0.24
303.15	0.2405	822.11	0.24
303.15	0.3223	813.53	0.24
303.15	0.3983	806.43	0.24
303.15	0.4784	799.74	0.24
303.15	0.5497	794.4	0.24
303.15	0.6375	788.42	0.24
303.15	0.7175	783.55	0.24
303.15	0.7958	779.18	0.24
303.15	0.8823	774.78	0.24
303.15	0.9616	771.1	0.24
313.15	0.0803	834.27	0.24
313.15	0.1564	823.89	0.24
313.15	0.2405	813.87	0.24
313.15	0.3223	805.4	0.24
313.15	0.3983	798.4	0.24
313.15	0.4784	791.81	0.24
313.15	0.5497	786.54	0.24
313.15	0.6375	780.65	0.24
313.15	0.7175	775.85	0.24
313.15	0.7958	771.54	0.24
313.15	0.8823	767.21	0.24
313.15	0.9616	763.6	0.24
323.15	0.0803	825.72	0.24
323.15	0.1564	815.48	0.24
323.15	0.2405	805.59	0.24
323.15	0.3223	797.23	0.24
323.15	0.3983	790.32	0.24
323.15	0.4784	783.83	0.24
323.15	0.5497	778.64	0.24
323.15	0.6375	772.84	0.24
323.15	0.7175	768.1	0.24
323.15	0.7958	763.87	0.24
323.15	0.8823	759.6	0.24
323.15	0.9616	756.05	0.24
333.15	0.0803	817.11	0.24
333.15	0.1564	806.98	0.24
333.15	0.2405	797.24	0.24
333.15	0.3223	788.99	0.24
333.15	0.3983	782.19	0.24
333.15	0.4784	775.79	0.24
333.15	0.5497	770.68	0.24
333.15	0.6375	764.97	0.24
333.15	0.7175	760.32	0.24
333.15	0.7958	756.15	0.24
333.15	0.8823	751.95	0.24
333.15	0.9616	748.45	0.24

System: tributylamine + 1,4-dimethylbenzene; phases: Liquid
Fixed: Pressure, kPa = 101
Property: Mass density, kg/m3 (Liquid); method: Vibrating tube method
Temperature, K	Mole fraction of tributylamine	Mass density, kg/m3	uncertainty
293.15	0.0834	848.23	0.24
293.15	0.1617	837.85	0.24
293.15	0.2416	828.6	0.24
293.15	0.3196	820.59	0.24
293.15	0.3984	813.4	0.2
293.15	0.482	806.6	0.2
293.15	0.56	800.89	0.24
293.15	0.633	796.02	0.24
293.15	0.7229	790.59	0.24
293.15	0.7717	787.86	0.24
293.15	0.878	782.45	0.24
293.15	0.9458	779.3	0.24
298.15	0.0834	843.97	0.24
298.15	0.1617	833.67	0.24
298.15	0.2416	824.47	0.24
298.15	0.3196	816.53	0.24
298.15	0.3984	809.38	0.24
298.15	0.482	802.64	0.24
298.15	0.56	796.97	0.24
298.15	0.633	792.14	0.24
298.15	0.7229	786.75	0.24
298.15	0.7717	784.05	0.24
298.15	0.878	778.68	0.24
298.15	0.9458	775.56	0.24
303.15	0.0834	839.71	0.24
303.15	0.1617	829.48	0.24
303.15	0.2416	820.35	0.24
303.15	0.3196	812.46	0.24
303.15	0.3984	805.37	0.24
303.15	0.482	798.67	0.24
303.15	0.56	793.04	0.24
303.15	0.633	788.26	0.24
303.15	0.7229	782.91	0.24
303.15	0.7717	780.24	0.24
303.15	0.878	774.9	0.24
303.15	0.9458	771.81	0.24
313.15	0.0834	831.14	0.24
313.15	0.1617	821.06	0.24
313.15	0.2416	812.06	0.24
313.15	0.3196	804.29	0.24
313.15	0.3984	797.3	0.2
313.15	0.482	790.72	0.24
313.15	0.56	785.17	0.24
313.15	0.633	780.46	0.24
313.15	0.7229	775.2	0.24
313.15	0.7717	772.57	0.24
313.15	0.878	767.33	0.24
313.15	0.9458	764.28	0.24
323.15	0.0834	822.53	0.24
323.15	0.1617	812.59	0.24
323.15	0.2416	803.72	0.24
323.15	0.3196	796.06	0.24
323.15	0.3984	789.19	0.24
323.15	0.482	782.71	0.24
323.15	0.56	777.26	0.24
323.15	0.633	772.62	0.24
323.15	0.7229	767.45	0.24
323.15	0.7717	764.86	0.24
323.15	0.878	759.71	0.24
323.15	0.9458	756.72	0.24
333.15	0.0834	813.86	0.24
333.15	0.1617	804.05	0.24
333.15	0.2416	795.32	0.24
333.15	0.3196	787.79	0.24
333.15	0.3984	781.03	0.24
333.15	0.482	774.64	0.24
333.15	0.56	769.29	0.24
333.15	0.633	764.73	0.24
333.15	0.7229	759.65	0.24
333.15	0.7717	757.1	0.24
333.15	0.878	752.04	0.24
333.15	0.9458	749.1	0.24

System: nitrobenzene + tributylamine; phases: Liquid
Fixed: Pressure, kPa = 101
Property: Mass density, kg/m3 (Liquid); method: Vibrating tube method
Temperature, K	Mole fraction of tributylamine	Mass density, kg/m3	uncertainty
293.15	0.0806	1132.44	0.37
293.15	0.1692	1068.2	0.32
293.15	0.2426	1023.24	0.27
293.15	0.3259	979.47	0.25
293.15	0.3993	945.96	0.25
293.15	0.4829	912.69	0.25
293.15	0.5607	885.41	0.24
293.15	0.6392	861.09	0.24
293.15	0.7176	839.19	0.24
293.15	0.7976	819.27	0.24
293.15	0.8779	801.19	0.24
293.15	0.9546	785.56	0.24
298.15	0.0806	1127.65	0.36
298.15	0.1692	1063.58	0.31
298.15	0.2426	1018.75	0.27
298.15	0.3259	975.11	0.25
298.15	0.3993	941.69	0.25
298.15	0.4829	908.52	0.24
298.15	0.5607	881.32	0.24
298.15	0.6392	857.07	0.24
298.15	0.7176	835.25	0.24
298.15	0.7976	815.39	0.24
298.15	0.8779	797.38	0.24
298.15	0.9546	781.8	0.24
303.15	0.0806	1122.87	0.36
303.15	0.1692	1058.97	0.31
303.15	0.2426	1014.26	0.27
303.15	0.3259	970.74	0.25
303.15	0.3993	937.43	0.25
303.15	0.4829	904.33	0.24
303.15	0.5607	877.22	0.24
303.15	0.6392	853.04	0.24
303.15	0.7176	831.29	0.24
303.15	0.7976	811.5	0.24
303.15	0.8779	793.55	0.24
303.15	0.9546	778.03	0.24
313.15	0.0806	1113.29	0.35
313.15	0.1692	1049.72	0.3
313.15	0.2426	1005.27	0.26
313.15	0.3259	961.98	0.25
313.15	0.3993	928.86	0.25
313.15	0.4829	895.96	0.24
313.15	0.5607	869.01	0.24
313.15	0.6392	844.97	0.24
313.15	0.7176	823.36	0.24
313.15	0.7976	803.7	0.24
313.15	0.8779	785.88	0.24
313.15	0.9546	770.48	0.24
323.15	0.0806	1103.7	0.34
323.15	0.1692	1040.46	0.29
323.15	0.2426	996.24	0.26
323.15	0.3259	953.2	0.25
323.15	0.3993	920.27	0.25
323.15	0.4829	887.56	0.25
323.15	0.5607	860.76	0.24
323.15	0.6392	836.86	0.24
323.15	0.7176	815.4	0.24
323.15	0.7976	795.86	0.24
323.15	0.8779	778.17	0.24
323.15	0.9546	762.89	0.24
333.15	0.0806	1094.1	0.34
333.15	0.1692	1031.17	0.29
333.15	0.2426	987.2	0.26
333.15	0.3259	944.4	0.25
333.15	0.3993	911.63	0.25
333.15	0.4829	879.12	0.25
333.15	0.5607	852.46	0.24
333.15	0.6392	828.72	0.24
333.15	0.7176	807.4	0.24
333.15	0.7976	787.99	0.24
333.15	0.8779	770.42	0.24
333.15	0.9546	755.25	0.24
