Measured thermophysical data. Thermodynamic models for determination of the solubility of DL-malic acid in methanol plus (acetonitrile, N,N-dimethylformamide, isopropyl alcohol) binary solvent mixtures
Source: J. Chem. Thermodyn., 2015, 10.1016/j.jct.2015.02.002
Compound 1: hydroxybutanedioic acid, C4H6O5, InChI=1S/C4H6O5/c5-2(4(8)9)1-3(6)7/h2,5H,1H2,(H,6,7)(H,8,9), purity 99%
Compound 2: methanol, CH4O, InChI=1S/CH4O/c1-2/h2H,1H3, purity 99.7%
Compound 3: acetonitrile, C2H3N, InChI=1S/C2H3N/c1-2-3/h1H3, purity 99.7%
Compound 4: dimethylformamide, C3H7NO, InChI=1S/C3H7NO/c1-4(2)3-5/h3H,1-2H3, purity 99.7%
Compound 5: propan-2-ol, C3H8O, InChI=1S/C3H8O/c1-3(2)4/h3-4H,1-2H3, purity 99.7%

System: hydroxybutanedioic acid; phases: Crystal, Liquid, Air at 1 atmosphere
Property: Normal melting temperature, K (Crystal); method: VISOBS
Normal melting temperature, K	uncertainty
403.15	0.5

System: methanol + acetonitrile + hydroxybutanedioic acid; phases: Liquid, Crystal
Fixed: Pressure, kPa = 101.3
Property: Mole fraction of hydroxybutanedioic acid (Liquid); method: gravimetric
Solvent: Mole fraction of acetonitrile	Temperature, K	Mole fraction of hydroxybutanedioic acid	uncertainty
0.079	278.15	0.065	0.0014
0.205	278.15	0.0556	0.0012
0.341	278.15	0.0465	0.0011
0.487	278.15	0.0358	0.001
0.644	278.15	0.0244	0.001
0.815	278.15	0.013	0.0011
0.079	283.15	0.0759	0.0016
0.205	283.15	0.065	0.0014
0.341	283.15	0.0543	0.0013
0.487	283.15	0.0414	0.0012
0.644	283.15	0.0287	0.0012
0.815	283.15	0.0152	0.0013
0.079	288.15	0.088	0.0019
0.205	288.15	0.0754	0.0016
0.341	288.15	0.0628	0.0015
0.487	288.15	0.0481	0.0014
0.644	288.15	0.0331	0.0014
0.815	288.15	0.0182	0.0015
0.079	293.15	0.1018	0.0021
0.205	293.15	0.0868	0.0019
0.341	293.15	0.0723	0.0017
0.487	293.15	0.0559	0.0016
0.644	293.15	0.0383	0.0016
0.815	293.15	0.021	0.0017
0.079	298.15	0.1186	0.0025
0.205	298.15	0.1	0.0022
0.341	298.15	0.0834	0.0019
0.487	298.15	0.0641	0.0018
0.644	298.15	0.0444	0.0018
0.815	298.15	0.0243	0.002
0.079	303.15	0.1371	0.0029
0.205	303.15	0.1147	0.0025
0.341	303.15	0.096	0.0022
0.487	303.15	0.074	0.0021
0.644	303.15	0.0516	0.0021
0.815	303.15	0.0287	0.0023
0.079	308.15	0.1576	0.0033
0.205	308.15	0.1329	0.0029
0.341	308.15	0.111	0.0026
0.487	308.15	0.085	0.0024
0.644	308.15	0.0592	0.0024
0.815	308.15	0.0335	0.0025
0.079	313.15	0.1838	0.0039
0.205	313.15	0.1544	0.0034
0.341	313.15	0.1288	0.003
0.487	313.15	0.0982	0.0028
0.644	313.15	0.0685	0.0027
0.815	313.15	0.0391	0.0029
0.079	318.15	0.2131	0.0045
0.205	318.15	0.1797	0.0039
0.341	318.15	0.1485	0.0035
0.487	318.15	0.1138	0.0033
0.644	318.15	0.0787	0.0031
0.815	318.15	0.0457	0.0033
0.079	323.15	0.2462	0.0052
0.205	323.15	0.2061	0.0045
0.341	323.15	0.171	0.004
0.487	323.15	0.1312	0.0038
0.644	323.15	0.0908	0.0036
0.815	323.15	0.0528	0.0038
0.079	328.15	0.2799	0.0058
0.205	328.15	0.2356	0.0051
0.341	328.15	0.1948	0.0045
0.487	328.15	0.1494	0.0043
0.644	328.15	0.1044	0.0041
0.815	328.15	0.0607	0.0044

System: methanol + dimethylformamide + hydroxybutanedioic acid; phases: Liquid, Crystal
Fixed: Pressure, kPa = 101.3
Property: Mole fraction of hydroxybutanedioic acid (Liquid); method: gravimetric
Solvent: Mole fraction of dimethylformamide	Temperature, K	Mole fraction of hydroxybutanedioic acid	uncertainty
0.085	278.15	0.0648	0.0014
0.183	278.15	0.0542	0.0012
0.3	278.15	0.0408	0.0011
0.44	278.15	0.0272	0.0009
0.611	278.15	0.0139	0.0007
0.825	278.15	0.0076	0.0005
0.085	283.15	0.0752	0.0016
0.183	283.15	0.0617	0.0014
0.3	283.15	0.0469	0.0012
0.44	283.15	0.0312	0.0011
0.611	283.15	0.0167	0.0008
0.825	283.15	0.0092	0.0006
0.085	288.15	0.0866	0.0018
0.183	288.15	0.0703	0.0016
0.3	288.15	0.0536	0.0014
0.44	288.15	0.0357	0.0012
0.611	288.15	0.0196	0.0009
0.825	288.15	0.0113	0.0007
0.085	293.15	0.0994	0.0021
0.183	293.15	0.0799	0.0018
0.3	293.15	0.0613	0.0016
0.44	293.15	0.0414	0.0014
0.611	293.15	0.0231	0.001
0.825	293.15	0.0133	0.0008
0.085	298.15	0.115	0.0024
0.183	298.15	0.0912	0.002
0.3	298.15	0.0702	0.0018
0.44	298.15	0.0481	0.0016
0.611	298.15	0.0269	0.0011
0.825	298.15	0.0159	0.0009
0.085	303.15	0.132	0.0028
0.183	303.15	0.1038	0.0023
0.3	303.15	0.0806	0.002
0.44	303.15	0.0554	0.0018
0.611	303.15	0.0312	0.0013
0.825	303.15	0.0187	0.001
0.085	308.15	0.1507	0.0032
0.183	308.15	0.1179	0.0026
0.3	308.15	0.0917	0.0023
0.44	308.15	0.0638	0.0021
0.611	308.15	0.036	0.0015
0.825	308.15	0.0215	0.0012
0.085	313.15	0.1735	0.0037
0.183	313.15	0.1343	0.003
0.3	313.15	0.105	0.0026
0.44	313.15	0.0721	0.0023
0.611	313.15	0.0415	0.0017
0.825	313.15	0.0248	0.0014
0.085	318.15	0.1985	0.0042
0.183	318.15	0.1523	0.0034
0.3	318.15	0.1186	0.0029
0.44	318.15	0.0827	0.0026
0.611	318.15	0.0476	0.0019
0.825	318.15	0.0287	0.0016
0.085	323.15	0.2261	0.0048
0.183	323.15	0.1722	0.0039
0.3	323.15	0.134	0.0033
0.44	323.15	0.094	0.003
0.611	323.15	0.0547	0.0022
0.825	323.15	0.0326	0.0018
0.085	328.15	0.2559	0.0054
0.183	328.15	0.1943	0.0045
0.3	328.15	0.1516	0.0037
0.44	328.15	0.1076	0.0034
0.611	328.15	0.0627	0.0026
0.825	328.15	0.0374	0.0021

System: methanol + propan-2-ol + hydroxybutanedioic acid; phases: Liquid, Crystal
Fixed: Pressure, kPa = 101.3
Property: Mole fraction of hydroxybutanedioic acid (Liquid); method: gravimetric
Solvent: Mole fraction of propan-2-ol	Temperature, K	Mole fraction of hydroxybutanedioic acid	uncertainty
0.085	278.15	0.0694	0.0015
0.185	278.15	0.0569	0.0013
0.302	278.15	0.046	0.0011
0.442	278.15	0.0361	0.001
0.613	278.15	0.0264	0.0008
0.826	278.15	0.019	0.0007
0.085	283.15	0.0804	0.0017
0.185	283.15	0.0663	0.0015
0.302	283.15	0.0546	0.0013
0.442	283.15	0.0432	0.0011
0.613	283.15	0.0317	0.0009
0.826	283.15	0.0233	0.0008
0.085	288.15	0.0928	0.002
0.185	288.15	0.077	0.0017
0.302	288.15	0.0637	0.0015
0.442	288.15	0.051	0.0013
0.613	288.15	0.0382	0.0011
0.826	288.15	0.0281	0.001
0.085	293.15	0.1068	0.0023
0.185	293.15	0.0897	0.002
0.302	293.15	0.0745	0.0017
0.442	293.15	0.06	0.0015
0.613	293.15	0.0453	0.0013
0.826	293.15	0.0339	0.0011
0.085	298.15	0.1234	0.0026
0.185	298.15	0.1041	0.0023
0.302	298.15	0.0879	0.002
0.442	298.15	0.0707	0.0018
0.613	298.15	0.0535	0.0015
0.826	298.15	0.0404	0.0013
0.085	303.15	0.1423	0.003
0.185	303.15	0.1214	0.0026
0.302	303.15	0.1025	0.0023
0.442	303.15	0.0829	0.0021
0.613	303.15	0.0628	0.0017
0.826	303.15	0.0482	0.0015
0.085	308.15	0.1632	0.0034
0.185	308.15	0.14	0.003
0.302	308.15	0.1191	0.0027
0.442	308.15	0.0979	0.0024
0.613	308.15	0.075	0.002
0.826	308.15	0.0572	0.0018
0.085	313.15	0.1895	0.004
0.185	313.15	0.1626	0.0035
0.302	313.15	0.1381	0.0031
0.442	313.15	0.1146	0.0028
0.613	313.15	0.0891	0.0024
0.826	313.15	0.0683	0.0021
0.085	318.15	0.2184	0.0046
0.185	318.15	0.1882	0.0041
0.302	318.15	0.161	0.0036
0.442	318.15	0.1332	0.0032
0.613	318.15	0.1046	0.0027
0.826	318.15	0.0819	0.0024
0.085	323.15	0.2503	0.0052
0.185	323.15	0.2168	0.0046
0.302	323.15	0.1859	0.0041
0.442	323.15	0.1555	0.0037
0.613	323.15	0.1232	0.0032
0.826	323.15	0.0993	0.0028
0.085	328.15	0.2838	0.0059
0.185	328.15	0.2476	0.0053
0.302	328.15	0.215	0.0048
0.442	328.15	0.1817	0.0043
0.613	328.15	0.1457	0.0037
0.826	328.15	0.1183	0.0033
