Measured thermophysical data. Thermodynamic and molecular investigation into the solubility, stability and self-assembly of gabapentin anhydrate and hydrate
Source: J. Chem. Thermodyn., 2017, 10.1016/j.jct.2017.05.041
Compound 1: 2-(1-(aminomethyl)cyclohexyl)acetic acid, C9H17NO2, InChI=1S/C9H17NO2/c10-7-9(6-8(11)12)4-2-1-3-5-9/h1-7,10H2,(H,11,12), purity 99.6%
Compound 2: ethanol, C2H6O, InChI=1S/C2H6O/c1-2-3/h3H,2H2,1H3, purity 99.7%
Compound 3: methanol, CH4O, InChI=1S/CH4O/c1-2/h2H,1H3, purity 99.5%
Compound 4: 2-(1-(aminomethyl)cyclohexyl)acetic acid monohydrate, C9H19NO3, InChI=1S/C9H17NO2.H2O/c10-7-9(6-8(11)12)4-2-1-3-5-9;/h1-7,10H2,(H,11,12);1H2, purity 99.6%
Compound 5: water, H2O, InChI=1S/H2O/h1H2, purity 99.8%

System: 2-(1-(aminomethyl)cyclohexyl)acetic acid; phases: Crystal
Property: Mass density, kg/m3 (Crystal); method: X-ray diffraction
Temperature, K	Pressure, kPa	Mass density, kg/m3	uncertainty
293	101.325	1239	10

System: 2-(1-(aminomethyl)cyclohexyl)acetic acid monohydrate; phases: Crystal
Property: Mass density, kg/m3 (Crystal); method: X-ray diffraction
Temperature, K	Pressure, kPa	Mass density, kg/m3	uncertainty
293	101.325	1210	12

System: 2-(1-(aminomethyl)cyclohexyl)acetic acid + methanol + water; phases: Liquid, Crystal
Fixed: Pressure, kPa = 100
Property: Mole fraction of 2-(1-(aminomethyl)cyclohexyl)acetic acid (Liquid); method: Gravimetric  Method
Temperature, K	Solvent: Mole fraction of water	Mole fraction of 2-(1-(aminomethyl)cyclohexyl)acetic acid	uncertainty
283.15	0	0.00718	0.00072
283.15	0.1	0.00914	0.00091
283.15	0.2	0.01046	0.00105
283.15	0.3	0.01235	0.00124
283.15	0.4	0.01354	0.00135
283.15	0.5	0.01384	0.00138
283.15	0.6	0.01324	0.00132
288.15	0	0.00795	0.0008
288.15	0.1	0.00992	0.00099
288.15	0.2	0.01141	0.00114
288.15	0.3	0.01336	0.00134
288.15	0.4	0.01449	0.00145
288.15	0.5	0.0152	0.00152
288.15	0.6	0.01484	0.00148
293.15	0	0.00878	0.00088
293.15	0.1	0.01094	0.00109
293.15	0.2	0.01293	0.00129
293.15	0.3	0.01481	0.00148
293.15	0.4	0.01654	0.00165
293.15	0.5	0.01736	0.00174
293.15	0.6	0.01762	0.00176
293.15	0.7	0.01643	0.00164
298.15	0	0.00943	0.00094
298.15	0.1	0.01196	0.0012
298.15	0.2	0.01419	0.00142
298.15	0.3	0.01649	0.00165
298.15	0.4	0.01808	0.00181
298.15	0.5	0.01953	0.00195
298.15	0.6	0.01955	0.00196
298.15	0.7	0.0185	0.00185
298.15	0.8	0.01597	0.0016
303.15	0	0.01066	0.00107
303.15	0.1	0.01308	0.00131
303.15	0.2	0.01621	0.00162
303.15	0.3	0.01926	0.00193
303.15	0.4	0.02135	0.00214
303.15	0.5	0.02254	0.00225
303.15	0.6	0.02272	0.00227
303.15	0.7	0.02176	0.00218
303.15	0.8	0.0189	0.00189
308.15	0	0.01165	0.00117
308.15	0.1	0.01472	0.00147
308.15	0.2	0.01791	0.00179
308.15	0.3	0.02138	0.00214
308.15	0.4	0.02383	0.00238
308.15	0.5	0.02528	0.00253
308.15	0.6	0.02544	0.00254
308.15	0.7	0.02406	0.00241
308.15	0.8	0.02155	0.00216
313.15	0	0.01275	0.00128
313.15	0.1	0.01618	0.00162
313.15	0.2	0.01994	0.00199
313.15	0.3	0.02389	0.00239
313.15	0.4	0.02681	0.00268
313.15	0.5	0.02802	0.0028
313.15	0.6	0.02838	0.00284
313.15	0.7	0.02762	0.00276
313.15	0.8	0.02474	0.00247
313.15	0.9	0.02128	0.00213
318.15	0	0.01403	0.0014
318.15	0.1	0.01749	0.00175
318.15	0.2	0.02201	0.0022
318.15	0.3	0.02748	0.00275
318.15	0.4	0.0306	0.00306
318.15	0.5	0.03298	0.0033
318.15	0.6	0.0333	0.00333
318.15	0.7	0.03138	0.00314
318.15	0.8	0.02797	0.0028
318.15	0.9	0.02504	0.00251
323.15	0	0.01598	0.0016
323.15	0.1	0.01985	0.00199
323.15	0.2	0.02479	0.00248
323.15	0.3	0.02967	0.00297
323.15	0.4	0.03378	0.00338
323.15	0.5	0.03723	0.00372
323.15	0.6	0.03772	0.00377
323.15	0.7	0.0363	0.00363
323.15	0.8	0.03191	0.00319
323.15	0.9	0.02928	0.00293

System: 2-(1-(aminomethyl)cyclohexyl)acetic acid + methanol + water; phases: Liquid, Crystal of intercomponent compound 1
Fixed: Pressure, kPa = 100
Property: Mole fraction of 2-(1-(aminomethyl)cyclohexyl)acetic acid (Liquid); method: Gravimetric  Method
Temperature, K	Solvent: Mole fraction of water	Mole fraction of 2-(1-(aminomethyl)cyclohexyl)acetic acid	uncertainty
283.15	0.7034	0.01132	0.00113
283.15	0.8018	0.00895	0.0009
283.15	0.9009	0.00853	0.00085
283.15	1	0.00922	0.00092
288.15	0.7042	0.01372	0.00137
288.15	0.8023	0.01123	0.00112
288.15	0.901	0.00982	0.00098
288.15	1	0.01045	0.00105
293.15	0.8027	0.01345	0.00135
293.15	0.9012	0.01163	0.00116
293.15	1	0.01146	0.00115
298.15	0.9014	0.01343	0.00134
298.15	1	0.01229	0.00123
303.15	0.9016	0.01529	0.00153
303.15	1	0.01348	0.00135
308.15	0.9018	0.01787	0.00179
308.15	1	0.01502	0.0015
313.15	1	0.01649	0.00165
318.15	1	0.01851	0.00185
323.15	1	0.02173	0.00217
278.15	0.7029	0.00968	0.00097

System: 2-(1-(aminomethyl)cyclohexyl)acetic acid + ethanol + water; phases: Liquid, Crystal
Fixed: Pressure, kPa = 100
Property: Mole fraction of 2-(1-(aminomethyl)cyclohexyl)acetic acid (Liquid); method: Gravimetric  Method
Temperature, K	Solvent: Mole fraction of water	Mole fraction of 2-(1-(aminomethyl)cyclohexyl)acetic acid	uncertainty
283.15	0	0.00134	0.00013
283.15	0.1	0.00258	0.00026
283.15	0.2	0.00396	0.0004
283.15	0.3	0.006	0.0006
283.15	0.4	0.00889	0.00089
283.15	0.5	0.011	0.0011
288.15	0	0.00153	0.00015
288.15	0.1	0.00297	0.0003
288.15	0.2	0.00456	0.00046
288.15	0.3	0.00705	0.00071
288.15	0.4	0.00999	0.001
288.15	0.5	0.01313	0.00131
293.15	0	0.0017	0.00017
293.15	0.1	0.00327	0.00033
293.15	0.2	0.00517	0.00052
293.15	0.3	0.00819	0.00082
293.15	0.4	0.01183	0.00118
293.15	0.5	0.01521	0.00152
298.15	0	0.00187	0.00019
298.15	0.1	0.00342	0.00034
298.15	0.2	0.00549	0.00055
298.15	0.3	0.009	0.0009
298.15	0.4	0.0126	0.00126
298.15	0.5	0.01739	0.00174
298.15	0.6	0.02097	0.0021
303.15	0	0.00224	0.00022
303.15	0.1	0.00378	0.00038
303.15	0.2	0.00619	0.00062
303.15	0.3	0.0103	0.00103
303.15	0.4	0.01481	0.00148
303.15	0.5	0.02151	0.00215
303.15	0.6	0.02422	0.00242
303.15	0.7	0.02548	0.00255
308.15	0	0.00243	0.00024
308.15	0.1	0.00426	0.00043
308.15	0.2	0.00698	0.0007
308.15	0.3	0.01153	0.00115
308.15	0.4	0.01651	0.00165
308.15	0.5	0.02402	0.0024
308.15	0.6	0.02805	0.00281
308.15	0.7	0.02893	0.00289
313.15	0	0.00267	0.00027
313.15	0.1	0.00473	0.00047
313.15	0.2	0.00811	0.00081
313.15	0.3	0.01361	0.00136
313.15	0.4	0.01881	0.00188
313.15	0.5	0.02602	0.0026
313.15	0.6	0.03062	0.00306
313.15	0.7	0.03313	0.00331
313.15	0.8	0.03154	0.00316
318.15	0	0.003	0.0003
318.15	0.1	0.00514	0.00051
318.15	0.2	0.00891	0.00089
318.15	0.3	0.015	0.0015
318.15	0.4	0.02141	0.00214
318.15	0.5	0.02967	0.00297
318.15	0.6	0.03554	0.00356
318.15	0.7	0.03776	0.00378
318.15	0.8	0.03664	0.00367
318.15	0.9	0.02988	0.00299
323.15	0	0.00329	0.00033
323.15	0.1	0.00565	0.00057
323.15	0.2	0.00997	0.001
323.15	0.3	0.01734	0.00173
323.15	0.4	0.02505	0.00251
323.15	0.5	0.03461	0.00346
323.15	0.6	0.03943	0.00394
323.15	0.7	0.04288	0.00429
323.15	0.8	0.04128	0.00413
323.15	0.9	0.03468	0.00347

System: 2-(1-(aminomethyl)cyclohexyl)acetic acid + ethanol + water; phases: Liquid, Crystal of intercomponent compound 1
Fixed: Pressure, kPa = 100
Property: Mole fraction of 2-(1-(aminomethyl)cyclohexyl)acetic acid (Liquid); method: Gravimetric  Method
Temperature, K	Solvent: Mole fraction of water	Mole fraction of 2-(1-(aminomethyl)cyclohexyl)acetic acid	uncertainty
283.15	0.605	0.01243	0.00124
283.15	0.7032	0.01043	0.00104
283.15	0.8018	0.00907	0.00091
283.15	0.9007	0.00679	0.00068
283.15	0.9504	0.00812	0.00081
283.15	0.9802	0.00897	0.0009
283.15	1	0.00922	0.00092
288.15	0.6061	0.01497	0.0015
288.15	0.704	0.01308	0.00131
288.15	0.8024	0.01174	0.00117
288.15	0.9009	0.0089	0.00089
288.15	0.9505	0.00939	0.00094
288.15	0.9802	0.01021	0.00102
288.15	1	0.01045	0.00105
293.15	0.6073	0.01799	0.0018
293.15	0.7051	0.01662	0.00166
293.15	0.803	0.01472	0.00147
293.15	0.9011	0.01096	0.0011
293.15	0.9505	0.01014	0.00101
293.15	0.9802	0.01066	0.00107
293.15	1	0.01146	0.00115
298.15	0.7065	0.02127	0.00213
298.15	0.8036	0.01747	0.00175
298.15	0.9013	0.01313	0.00131
298.15	1	0.01229	0.00123
303.15	0.8045	0.0218	0.00218
303.15	0.9017	0.01693	0.00169
303.15	1	0.01348	0.00135
308.15	0.8054	0.02632	0.00263
308.15	0.9021	0.02035	0.00204
308.15	1	0.01502	0.0015
313.15	0.9025	0.02471	0.00247
313.15	1	0.01649	0.00165
318.15	1	0.01851	0.00185
323.15	1	0.02173	0.00217

System: 2-(1-(aminomethyl)cyclohexyl)acetic acid + ethanol + water; phases: Liquid, Crystal
Fixed: Temperature, K = 293.15
Fixed: Pressure, kPa = 100
Property: Mass fraction of 2-(1-(aminomethyl)cyclohexyl)acetic acid (Liquid); method: Gravimetric  Method
Mass fraction of water	Mass fraction of 2-(1-(aminomethyl)cyclohexyl)acetic acid	uncertainty
0	0.0063	0.0004
0.0556	0.0148	0.0009
0.0857	0.0213	0.0013
0.1407	0.0364	0.0022
0.1955	0.0556	0.0033
0.2573	0.0753	0.0045
0.2726	0.0842	0.0051
0.294	0.0911	0.0055

System: 2-(1-(aminomethyl)cyclohexyl)acetic acid + ethanol + water; phases: Liquid, Crystal of intercomponent compound 1
Fixed: Temperature, K = 293.15
Fixed: Pressure, kPa = 100
Property: Mass fraction of 2-(1-(aminomethyl)cyclohexyl)acetic acid (Liquid); method: Gravimetric  Method
Mass fraction of water	Mass fraction of 2-(1-(aminomethyl)cyclohexyl)acetic acid	uncertainty
0.3277	0.1012	0.0061
0.4254	0.0987	0.0059
0.5665	0.0918	0.0055
0.7114	0.082	0.0049
0.8071	0.0836	0.005
0.8996	0.1004	0.006

System: 2-(1-(aminomethyl)cyclohexyl)acetic acid + methanol; phases: Liquid, Crystal
Fixed: Pressure, kPa = 100
Property: Mole fraction of 2-(1-(aminomethyl)cyclohexyl)acetic acid (Liquid); method: Gravimetric  Method
Temperature, K	Mole fraction of 2-(1-(aminomethyl)cyclohexyl)acetic acid	uncertainty
283.15	0.00718	0.00072
288.15	0.00795	0.0008
293.15	0.00878	0.00088
298.15	0.00943	0.00094
303.15	0.01066	0.00107
308.15	0.01165	0.00117
313.15	0.01275	0.00128
318.15	0.01403	0.0014
323.15	0.01598	0.0016

System: 2-(1-(aminomethyl)cyclohexyl)acetic acid + water; phases: Liquid, Crystal of intercomponent compound 1
Fixed: Pressure, kPa = 100
Property: Mole fraction of 2-(1-(aminomethyl)cyclohexyl)acetic acid (Liquid); method: Gravimetric  Method
Temperature, K	Mole fraction of 2-(1-(aminomethyl)cyclohexyl)acetic acid	uncertainty
283.15	0.00922	0.00092
288.15	0.01045	0.00105
293.15	0.01146	0.00115
298.15	0.01229	0.00123
303.15	0.01348	0.00135
308.15	0.01502	0.0015
313.15	0.01649	0.00165
318.15	0.01851	0.00185
323.15	0.02173	0.00217

System: 2-(1-(aminomethyl)cyclohexyl)acetic acid + ethanol; phases: Liquid, Crystal
Fixed: Pressure, kPa = 100
Property: Mole fraction of 2-(1-(aminomethyl)cyclohexyl)acetic acid (Liquid); method: Gravimetric  Method
Temperature, K	Mole fraction of 2-(1-(aminomethyl)cyclohexyl)acetic acid	uncertainty
283.15	0.00134	0.00013
288.15	0.00153	0.00015
293.15	0.0017	0.00017
298.15	0.00187	0.00019
303.15	0.00224	0.00022
308.15	0.00243	0.00024
313.15	0.00267	0.00027
318.15	0.003	0.0003
323.15	0.00329	0.00033
