Measured thermophysical data. High-pressure phase diagram of the drug mitotane in compressed and/or supercritical CO2
Source: J. Chem. Thermodyn., 2010, 10.1016/j.jct.2009.08.017
Compound 1: carbon dioxide, CO2, InChI=1S/CO2/c2-1-3, purity 99.9%
Compound 2: naphthalene, C10H8, InChI=1S/C10H8/c1-2-6-10-8-4-3-7-9(10)5-1/h1-8H, purity 98.5%
Compound 3: biphenyl, C12H10, InChI=1S/C12H10/c1-3-7-11(8-4-1)12-9-5-2-6-10-12/h1-10H, purity 98%
Compound 4: 1,1-dichloro-2-(2-chlorophenyl)-2-(4-chlorophenyl)ethane, C14H10Cl4, InChI=1S/C14H10Cl4/c15-10-7-5-9(6-8-10)13(14(17)18)11-3-1-2-4-12(11)16/h1-8,13-14H, purity 98%

System: 1,1-dichloro-2-(2-chlorophenyl)-2-(4-chlorophenyl)ethane; phases: Crystal, Liquid, Gas
Property: Molar enthalpy of transition or fusion, kJ/mol (Crystal); method: DSC
Molar enthalpy of transition or fusion, kJ/mol	uncertainty
28.317107196	0.8449056

System: 1,1-dichloro-2-(2-chlorophenyl)-2-(4-chlorophenyl)ethane; phases: Crystal, Liquid, Air at 1 atmosphere
Property: Normal melting temperature, K (Crystal); method: DTA
Normal melting temperature, K	uncertainty
353.15	0.5

System: naphthalene + carbon dioxide; phases: Fluid (supercritical or subcritical phases), Crystal
Property: Mole fraction of naphthalene (Fluid (supercritical or subcritical phases)); method: Synthetic-Static method
Temperature, K	Pressure, kPa	Mole fraction of naphthalene	uncertainty
328.2	11000	0.0052	0.0021
328.2	12200	0.0105	0.0024
328.2	13500	0.0178	0.0033
328.2	13600	0.0215	0.0034
328.2	14300	0.0252	0.0025
328.2	14700	0.0291	0.0033
338.2	13500	0.0105	0.0033
338.2	16100	0.0289	0.0031
338.2	19400	0.0488	0.0037
338.2	21300	0.069	0.0052

System: biphenyl + carbon dioxide; phases: Fluid (supercritical or subcritical phases), Crystal
Fixed: Temperature, K = 328.4
Property: Mole fraction of biphenyl (Fluid (supercritical or subcritical phases)); method: Synthetic-Static method
Pressure, kPa	Mole fraction of biphenyl	uncertainty
15400	0.0148	0.001
16900	0.0178	0.0009
19300	0.022	0.0011
20100	0.0252	0.002

System: 1,1-dichloro-2-(2-chlorophenyl)-2-(4-chlorophenyl)ethane + carbon dioxide; phases: Fluid (supercritical or subcritical phases), Crystal
Property: Mole fraction of 1,1-dichloro-2-(2-chlorophenyl)-2-(4-chlorophenyl)ethane (Fluid (supercritical or subcritical phases)); method: Synthetic-Static method
Temperature, K	Pressure, kPa	Mole fraction of 1,1-dichloro-2-(2-chlorophenyl)-2-(4-chlorophenyl)ethane	uncertainty
298.2	6650	0.0007	0.0002
298.2	9510	0.0014	0.0002
303.2	7960	0.0007	0.0002
303.2	10520	0.0014	0.0002
313.2	10210	0.0007	0.0002
313.2	12910	0.0014	0.0002
313.2	14570	0.0021	0.0002
313.2	16330	0.0024	0.0001
313.2	18530	0.0028	0.0001
323.2	12650	0.0007	0.0002
323.2	14850	0.0014	0.0002
323.2	16920	0.0021	0.0002
323.2	18230	0.0024	0.0002
323.2	20000	0.0028	0.0002
333.2	14580	0.0007	0.0002
333.2	16840	0.0014	0.0002
333.2	19410	0.0021	0.0003
333.2	20030	0.0024	0.0002
333.2	21840	0.0028	0.0002
