Measured thermophysical data. Aqueous solutions of [EMIM] 1,1,2,2-tetrafluoroethanesulfonate and [EMIM] trifluoromethanesulfonate: A thermodynamic study
Source: J. Chem. Thermodyn., 2018, 10.1016/j.jct.2017.12.019
Compound 1: 1-ethyl-3-methylimidazolium trifluoromethanesulfonate, C7H11F3N2O3S, InChI=1S/C6H11N2.CHF3O3S/c1-3-8-5-4-7(2)6-8;2-1(3,4)8(5,6)7/h4-6H,3H2,1-2H3;(H,5,6,7)/q+1;/p-1
Compound 2: 1-ethyl-3-methyl-1H-imidazolium 1,1,2,2-tetrafluoroethane-1-sulfonate, C8H12F4N2O3S, InChI=1S/C6H11N2.C2H2F4O3S/c1-3-8-5-4-7(2)6-8;3-1(4)2(5,6)10(7,8)9/h4-6H,3H2,1-2H3;1H,(H,7,8,9)/q+1;/p-1
Compound 3: water, H2O, InChI=1S/H2O/h1H2

System: 1-ethyl-3-methylimidazolium trifluoromethanesulfonate; phases: Liquid
Fixed: Pressure, kPa = 101.325
Property: Mass density, kg/m3 (Liquid); method: Vibrating tube method
Temperature, K	Mass density, kg/m3	uncertainty
288.15	1390.26	1.13
293.15	1386.08	1.13
298.15	1381.85	1.12
303.15	1377.65	1.12
308.15	1373.47	1.12
313.15	1369.32	1.12
318.15	1365.16	1.12
323.15	1361.04	1.12
328.15	1356.94	1.11
333.15	1352.85	1.11

System: 1-ethyl-3-methyl-1H-imidazolium 1,1,2,2-tetrafluoroethane-1-sulfonate; phases: Crystal, Liquid, Air at 1 atmosphere
Property: Normal melting temperature, K (Crystal); method: DTA
Normal melting temperature, K	uncertainty
317.6	1.1

System: 1-ethyl-3-methyl-1H-imidazolium 1,1,2,2-tetrafluoroethane-1-sulfonate; phases: Crystal, Liquid, Air at 1 atmosphere
Property: Molar enthalpy of transition or fusion, kJ/mol (Crystal); method: DSC
Molar enthalpy of transition or fusion, kJ/mol	uncertainty
20.2	1.1

System: 1-ethyl-3-methyl-1H-imidazolium 1,1,2,2-tetrafluoroethane-1-sulfonate; phases: Metastable liquid
Fixed: Pressure, kPa = 101.325
Property: Mass density, kg/m3 (Metastable liquid); method: Vibrating tube method
Temperature, K	Mass density, kg/m3	uncertainty
288.15	1440.74	1.02
293.15	1436.51	1.02
298.15	1432.24	1.02
303.15	1427.98	1.02
308.15	1423.75	1.02
313.15	1419.56	1.02
318.15	1415.34	1.02
323.15	1411.17	1.02
328.15	1407.01	1.02
333.15	1402.86	1.02

System: water + 1-ethyl-3-methyl-1H-imidazolium 1,1,2,2-tetrafluoroethane-1-sulfonate; phases: Liquid
Fixed: Pressure, kPa = 100
Property: (Relative) activity of water (Liquid); method: chilled-mirror dew-point technique
Temperature, K	Mole fraction of water	(Relative) activity of water	uncertainty
288.17	0.95941	0.9663	0.002
293.18	0.95941	0.9671	0.002
298.17	0.95941	0.967	0.002
303.13	0.95941	0.9669	0.002
308.11	0.95941	0.9675	0.002
313.08	0.95941	0.9677	0.002
318.08	0.95941	0.9668	0.002
288.18	0.92111	0.947	0.002
293.18	0.92111	0.9457	0.002
298.18	0.92111	0.9448	0.002
303.14	0.92111	0.9439	0.002
308.12	0.92111	0.9445	0.002
313.09	0.92111	0.945	0.002
318.1	0.92111	0.9441	0.002
288.17	0.8683	0.9139	0.002
293.18	0.8683	0.9125	0.002
298.18	0.8683	0.9118	0.002
303.14	0.8683	0.9104	0.002
308.13	0.8683	0.9095	0.002
313.1	0.8683	0.9086	0.002
318.11	0.8683	0.9063	0.002
288.18	0.80774	0.8638	0.002
293.19	0.80774	0.8601	0.002
298.19	0.80774	0.8582	0.002
303.15	0.80774	0.8566	0.002
308.14	0.80774	0.8542	0.002
313.11	0.80774	0.8526	0.002
318.12	0.80774	0.8499	0.002
288.19	0.7027	0.7623	0.002
293.19	0.7027	0.7586	0.002
298.19	0.7027	0.7543	0.002
303.15	0.7027	0.7508	0.002
308.14	0.7027	0.7462	0.002
313.11	0.7027	0.742	0.002
318.12	0.7027	0.7376	0.002
288.17	0.50904	0.5212	0.002
293.18	0.50904	0.5158	0.002
298.17	0.50904	0.5096	0.002
303.13	0.50904	0.5036	0.002
308.12	0.50904	0.4979	0.002
313.09	0.50904	0.4915	0.002
318.1	0.50904	0.486	0.002
288.17	0.40682	0.4034	0.002
293.16	0.40682	0.3969	0.002
298.17	0.40682	0.3906	0.002
303.13	0.40682	0.3849	0.002
308.11	0.40682	0.3796	0.002
313.08	0.40682	0.3735	0.002
318.08	0.40682	0.3688	0.002
288.15	0.30172	0.2826	0.002
293.15	0.30172	0.2766	0.002
298.15	0.30172	0.2708	0.002
303.11	0.30172	0.2654	0.002
308.09	0.30172	0.2609	0.002
313.07	0.30172	0.2557	0.002
318.06	0.30172	0.252	0.002
288.15	0.21308	0.1878	0.002
293.15	0.21308	0.1831	0.002
298.14	0.21308	0.1787	0.002
303.1	0.21308	0.1746	0.002
308.08	0.21308	0.1716	0.002
313.05	0.21308	0.1678	0.002
318.05	0.21308	0.1657	0.002
288.11	0.11494	0.0948	0.002
293.11	0.11494	0.0923	0.002
298.09	0.11494	0.09	0.002
303.06	0.11494	0.0879	0.002
308.04	0.11494	0.0865	0.002
313.01	0.11494	0.0847	0.002
317.99	0.11494	0.084	0.002

System: water + 1-ethyl-3-methyl-1H-imidazolium 1,1,2,2-tetrafluoroethane-1-sulfonate; phases: Liquid
Fixed: Pressure, kPa = 100
Property: Excess molar enthalpy (molar enthalpy of mixing), kJ/mol (Liquid); method: Flow calorimetry
Temperature, K	Mole fraction of 1-ethyl-3-methyl-1H-imidazolium 1,1,2,2-tetrafluoroethane-1-sulfonate	Excess molar enthalpy (molar enthalpy of mixing), kJ/mol	uncertainty
288.15	0.002652	0.00715	0.00083
288.15	0.001327	0.00361	0.0008
288.15	0.000885	0.00243	0.00079
288.15	0.000443	0.00125	0.00078
298.15	0.001327	0.00568	0.00082
298.15	0.000885	0.00379	0.0008
298.15	0.000443	0.0019	0.00079
308.15	0.001328	0.0078	0.00084
308.15	0.000886	0.0052	0.00082
308.15	0.000443	0.00258	0.0008
318.15	0.001328	0.00999	0.00088
318.15	0.000886	0.00663	0.00083
318.15	0.000443	0.00326	0.0008

System: water + 1-ethyl-3-methyl-1H-imidazolium 1,1,2,2-tetrafluoroethane-1-sulfonate; phases: Liquid, Crystal
Fixed: Pressure, kPa = 100
Property: Solid-liquid equilibrium temperature, K (Liquid); method: VISOBS
Mole fraction of water	Solid-liquid equilibrium temperature, K	uncertainty
0.9133	266.9	0.3
0.8692	264.2	0.3
0.8266	260.9	0.3
0.7826	256.8	0.3
0.7099	249.4	0.3
0.6415	241.8	0.3

System: water + 1-ethyl-3-methyl-1H-imidazolium 1,1,2,2-tetrafluoroethane-1-sulfonate; phases: Liquid
Fixed: Pressure, kPa = 100
Property: Mass density, kg/m3 (Liquid); method: Vibrating tube method
Temperature, K	Molality, mol/kg of 1-ethyl-3-methyl-1H-imidazolium 1,1,2,2-tetrafluoroethane-1-sulfonate	Mass density, kg/m3	uncertainty
288.15	0.14282	12.611	0.002
288.15	0.12188	10.801	0.002
288.15	0.09851	8.766	0.002
288.15	0.07897	7.05	0.002
288.15	0.06627	5.936	0.002
288.15	0.05536	4.962	0.002
293.15	0.14282	12.475	0.002
293.15	0.12188	10.692	0.002
293.15	0.09851	8.679	0.002
293.15	0.07897	6.974	0.002
293.15	0.06627	5.88	0.002
293.15	0.05536	4.916	0.002
298.15	0.14282	12.348	0.002
298.15	0.12188	10.583	0.002
298.15	0.09851	8.593	0.002
298.15	0.07897	6.902	0.002
298.15	0.06627	5.822	0.002
298.15	0.05536	4.867	0.002
303.15	0.14282	12.227	0.002
303.15	0.12188	10.48	0.002
303.15	0.09851	8.51	0.002
303.15	0.07897	6.84	0.002
303.15	0.06627	5.766	0.002
303.15	0.05536	4.822	0.002
308.15	0.14282	12.117	0.002
308.15	0.12188	10.384	0.002
308.15	0.09851	8.433	0.002
308.15	0.07897	6.777	0.002
308.15	0.06627	5.716	0.002
308.15	0.05536	4.779	0.002
313.15	0.14282	12.005	0.002
313.15	0.12188	10.291	0.002
313.15	0.09851	8.357	0.002
313.15	0.07897	6.717	0.002
313.15	0.06627	5.665	0.002
313.15	0.05536	4.736	0.002
318.15	0.14282	11.903	0.002
318.15	0.12188	10.202	0.002
318.15	0.09851	8.286	0.002
318.15	0.07897	6.66	0.002
318.15	0.06627	5.619	0.002
318.15	0.05536	4.698	0.002

System: water + 1-ethyl-3-methylimidazolium trifluoromethanesulfonate; phases: Liquid
Fixed: Pressure, kPa = 100
Property: (Relative) activity of water (Liquid); method: chilled-mirror dew-point technique
Temperature, K	Mole fraction of water	(Relative) activity of water	uncertainty
288.29	0.95026	0.9547	0.002
293.12	0.95026	0.9565	0.002
298.13	0.95026	0.9577	0.002
303.12	0.95026	0.9595	0.002
308.12	0.95026	0.9601	0.002
313.11	0.95026	0.9612	0.002
318.13	0.95026	0.9621	0.002
288.13	0.90404	0.9296	0.002
293.15	0.90404	0.931	0.002
298.15	0.90404	0.9326	0.002
303.13	0.90404	0.9338	0.002
308.13	0.90404	0.934	0.002
313.11	0.90404	0.9348	0.002
318.14	0.90404	0.9352	0.002
288.14	0.80052	0.8548	0.002
293.16	0.80052	0.8543	0.002
298.16	0.80052	0.8534	0.002
303.14	0.80052	0.8529	0.002
308.14	0.80052	0.8518	0.002
313.12	0.80052	0.8501	0.002
318.15	0.80052	0.849	0.002
288.36	0.69992	0.7516	0.002
293.16	0.69992	0.7474	0.002
298.16	0.69992	0.7455	0.002
303.14	0.69992	0.7432	0.002
308.14	0.69992	0.7396	0.002
313.12	0.69992	0.7365	0.002
318.14	0.69992	0.7328	0.002
288.15	0.60561	0.6438	0.002
293.16	0.60561	0.6403	0.002
298.25	0.60561	0.6366	0.002
303.14	0.60561	0.6325	0.002
308.14	0.60561	0.6287	0.002
313.13	0.60561	0.6246	0.002
318.15	0.60561	0.6198	0.002
288.45	0.501	0.5197	0.002
293.15	0.501	0.515	0.002
298.15	0.501	0.5107	0.002
303.13	0.501	0.506	0.002
308.12	0.501	0.5011	0.002
313.11	0.501	0.4959	0.002
318.13	0.501	0.4909	0.002
288.12	0.42562	0.4316	0.002
293.15	0.42562	0.4265	0.002
298.15	0.42562	0.4213	0.002
303.12	0.42562	0.4163	0.002
308.12	0.42562	0.4112	0.002
313.1	0.42562	0.4061	0.002
318.12	0.42562	0.4011	0.002
288.11	0.29781	0.2814	0.002
293.12	0.29781	0.2771	0.002
298.11	0.29781	0.273	0.002
303.09	0.29781	0.2687	0.002
308.11	0.29781	0.2642	0.002
313.1	0.29781	0.2602	0.002
318.09	0.29781	0.2561	0.002
288.14	0.20498	0.1844	0.002
293.09	0.20498	0.1812	0.002
298.08	0.20498	0.1781	0.002
303.06	0.20498	0.1749	0.002
308.05	0.20498	0.1718	0.002
313.04	0.20498	0.1689	0.002
318.06	0.20498	0.1659	0.002
288.15	0.10877	0.0915	0.002
293.03	0.10877	0.0899	0.002
298.05	0.10877	0.0883	0.002
303.02	0.10877	0.0867	0.002
308.01	0.10877	0.0851	0.002
313	0.10877	0.0838	0.002
318.02	0.10877	0.0825	0.002

System: water + 1-ethyl-3-methylimidazolium trifluoromethanesulfonate; phases: Liquid
Fixed: Pressure, kPa = 100
Property: Excess molar enthalpy (molar enthalpy of mixing), kJ/mol (Liquid); method: Flow calorimetry
Temperature, K	Mole fraction of 1-ethyl-3-methylimidazolium trifluoromethanesulfonate	Excess molar enthalpy (molar enthalpy of mixing), kJ/mol	uncertainty
288.15	0.002392	0.0016	0.00079
288.15	0.001994	0.00133	0.00079
288.15	0.001596	0.00103	0.00078
288.15	0.001197	0.00077	0.00078
288.15	0.000798	0.00051	0.00078
288.15	0.000399	0.00025	0.00078
298.15	0.002394	0.00564	0.00082
298.15	0.001995	0.00454	0.00081
298.15	0.001597	0.00364	0.0008
298.15	0.001198	0.00273	0.0008
298.15	0.000799	0.00182	0.00079
298.15	0.0004	0.0009	0.00078
308.15	0.002392	0.00912	0.00086
308.15	0.001994	0.00759	0.00084
308.15	0.001596	0.00599	0.00082
308.15	0.001197	0.00449	0.00081
308.15	0.000798	0.00298	0.0008
308.15	0.000399	0.00147	0.00079
318.15	0.002392	0.0128	0.00096
318.15	0.001994	0.01065	0.0009
318.15	0.001596	0.00849	0.00084
318.15	0.001197	0.00635	0.00083
318.15	0.000798	0.00421	0.00081
318.15	0.000399	0.00206	0.00079

System: water + 1-ethyl-3-methylimidazolium trifluoromethanesulfonate; phases: Liquid, Crystal
Fixed: Pressure, kPa = 100
Property: Solid-liquid equilibrium temperature, K (Liquid); method: VISOBS
Mole fraction of water	Solid-liquid equilibrium temperature, K	uncertainty
0.9401	267.8	0.3
0.8795	264.3	0.3
0.8224	259.8	0.3
0.7824	256.4	0.3
0.7011	247.8	0.3
0.658	241.7	0.3

System: water + 1-ethyl-3-methylimidazolium trifluoromethanesulfonate; phases: Liquid
Fixed: Pressure, kPa = 100
Property: Mass density, kg/m3 (Liquid); method: Vibrating tube method
Temperature, K	Molality, mol/kg of 1-ethyl-3-methylimidazolium trifluoromethanesulfonate	Mass density, kg/m3	uncertainty
288.15	0.1541	11.111	0.002
288.15	0.14044	10.143	0.002
288.15	0.13534	9.789	0.002
288.15	0.13419	9.694	0.002
288.15	0.11308	8.19	0.002
288.15	0.10595	7.683	0.002
288.15	0.1029	7.469	0.002
288.15	0.05596	4.086	0.002
288.15	0.05229	3.817	0.002
288.15	0.04116	3.003	0.002
293.15	0.1541	10.988	0.002
293.15	0.14044	10.03	0.002
293.15	0.13534	9.681	0.002
293.15	0.13419	9.585	0.002
293.15	0.11308	8.102	0.002
293.15	0.10595	7.597	0.002
293.15	0.1029	7.389	0.002
293.15	0.05596	4.044	0.002
293.15	0.05229	3.779	0.002
293.15	0.04116	2.976	0.002
298.15	0.1541	10.869	0.002
298.15	0.14044	9.921	0.002
298.15	0.13534	9.576	0.002
298.15	0.13419	9.481	0.002
298.15	0.11308	8.017	0.002
298.15	0.10595	7.518	0.002
298.15	0.1029	7.31	0.002
298.15	0.05596	4.003	0.002
298.15	0.05229	3.741	0.002
298.15	0.04116	2.947	0.002
303.15	0.1541	10.76	0.002
303.15	0.14044	9.818	0.002
303.15	0.13534	9.477	0.002
303.15	0.13419	9.384	0.002
303.15	0.11308	7.932	0.002
303.15	0.10595	7.442	0.002
303.15	0.1029	7.236	0.002
303.15	0.05596	3.962	0.002
303.15	0.05229	3.703	0.002
303.15	0.04116	2.918	0.002
308.15	0.1541	10.654	0.002
308.15	0.14044	9.722	0.002
308.15	0.13534	9.384	0.002
308.15	0.13419	9.293	0.002
308.15	0.11308	7.856	0.002
308.15	0.10595	7.37	0.002
308.15	0.1029	7.166	0.002
308.15	0.05596	3.925	0.002
308.15	0.05229	3.669	0.002
308.15	0.04116	2.892	0.002
313.15	0.1541	10.55	0.002
313.15	0.14044	9.627	0.002
313.15	0.13534	9.294	0.002
313.15	0.13419	9.203	0.002
313.15	0.11308	7.78	0.002
313.15	0.10595	7.299	0.002
313.15	0.1029	7.097	0.002
313.15	0.05596	3.887	0.002
313.15	0.05229	3.633	0.002
313.15	0.04116	2.864	0.002
318.15	0.1541	10.453	0.002
318.15	0.14044	9.541	0.002
318.15	0.13534	9.208	0.002
318.15	0.13419	9.12	0.002
318.15	0.11308	7.709	0.002
318.15	0.10595	7.233	0.002
318.15	0.1029	7.031	0.002
318.15	0.05596	3.853	0.002
318.15	0.05229	3.6	0.002
318.15	0.04116	2.839	0.002
