Measured thermophysical data. Experimental and computational study of the molecular energetics of the monoiodoanisole isomers
Source: J. Chem. Thermodyn., 2012, 10.1016/j.jct.2011.12.001
Compound 1: iodine, I2, InChI=1S/I2/c1-2
Compound 2: carbon dioxide, CO2, InChI=1S/CO2/c2-1-3
Compound 3: water, H2O, InChI=1S/H2O/h1H2
Compound 4: oxygen, O2, InChI=1S/O2/c1-2
Compound 5: 1-iodo-2-methoxybenzene, C7H7IO, InChI=1S/C7H7IO/c1-9-7-5-3-2-4-6(7)8/h2-5H,1H3, purity 98%
Compound 6: 3-iodoanisole, C7H7IO, InChI=1S/C7H7IO/c1-9-7-4-2-3-6(8)5-7/h2-5H,1H3, purity 98%
Compound 7: 1-iodo-4-methoxybenzene, C7H7IO, InChI=1S/C7H7IO/c1-9-7-4-2-6(8)3-5-7/h2-5H,1H3, purity 98%

System: 1-iodo-2-methoxybenzene; phases: Liquid, Gas
Property: Molar enthalpy of vaporization or sublimation, kJ/mol (Liquid); method: drop calorimetry
Temperature, K	Molar enthalpy of vaporization or sublimation, kJ/mol	uncertainty
298.15	65.3	2.8

System: 1-iodo-2-methoxybenzene; phases: Liquid, Gas
Property: Molar enthalpy of transition or fusion, kJ/mol (Liquid); method: drop calorimetry
Temperature, K	Molar enthalpy of transition or fusion, kJ/mol	uncertainty
324.2	69.1	0.4

System: 3-iodoanisole; phases: Liquid, Gas
Property: Molar enthalpy of vaporization or sublimation, kJ/mol (Liquid); method: drop calorimetry
Temperature, K	Molar enthalpy of vaporization or sublimation, kJ/mol	uncertainty
298.15	62.5	2.6

System: 3-iodoanisole; phases: Liquid, Gas
Property: Molar enthalpy of transition or fusion, kJ/mol (Liquid); method: drop calorimetry
Temperature, K	Molar enthalpy of transition or fusion, kJ/mol	uncertainty
324.2	66.3	0.2

System: 1-iodo-4-methoxybenzene; phases: Crystal, Gas
Property: Molar enthalpy of vaporization or sublimation, kJ/mol (Crystal); method: Derived by Second law
Temperature, K	Molar enthalpy of vaporization or sublimation, kJ/mol	uncertainty
298.15	83.4	2.1

System: 1-iodo-4-methoxybenzene; phases: Liquid, Gas
Property: Molar enthalpy of vaporization or sublimation, kJ/mol (Liquid); method: drop calorimetry
Temperature, K	Molar enthalpy of vaporization or sublimation, kJ/mol	uncertainty
298.15	82.6	3

System: 1-iodo-4-methoxybenzene; phases: Crystal, Gas
Property: Molar enthalpy of transition or fusion, kJ/mol (Crystal); method: drop calorimetry
Temperature, K	Molar enthalpy of transition or fusion, kJ/mol	uncertainty
349.4	90.4	0.6

System: 1-iodo-4-methoxybenzene; phases: Crystal, Gas
Property: Vapor or sublimation pressure, kPa (Crystal); method: Calculated from knudsen effusion weight loss
Temperature, K	Vapor or sublimation pressure, kPa	uncertainty
271.17	0.000123	2e-05
271.17	0.00012	2e-05
271.17	0.000116	2e-05
273.17	0.000161	2.1e-05
273.17	0.000156	2.1e-05
273.17	0.000153	2.1e-05
275.13	0.000213	2.1e-05
275.13	0.000211	2.1e-05
275.13	0.000196	2.1e-05
277.16	0.000279	2.2e-05
277.16	0.000267	2.2e-05
277.16	0.000258	2.2e-05
279.06	0.00035	2e-05
279.06	0.000334	2.3e-05
279.06	0.000332	2.3e-05
281.16	0.000463	2.6e-05
281.16	0.000446	2.6e-05
281.16	0.000429	2.5e-05
283.17	0.000606	2.9e-05
283.17	0.000571	2.8e-05
283.17	0.000555	2.8e-05
285.14	0.000749	3.3e-05
285.14	0.000718	3.2e-05
287.14	0.000979	4e-05
287.14	0.000924	3.8e-05
287.14	0.000923	3.8e-05

Reaction: -1 3-iodoanisole + .5 iodine + 7 carbon dioxide + 3.5 water + -8.25 oxygen
Property: Specific internal energy of reaction at constant volume, J/g
-15814.8

Reaction: -1 1-iodo-4-methoxybenzene + .5 iodine + 7 carbon dioxide + 3.5 water + -8.25 oxygen
Property: Specific internal energy of reaction at constant volume, J/g
-15732.1

Reaction: -1 1-iodo-2-methoxybenzene + .5 iodine + 7 carbon dioxide + 3.5 water + -8.25 oxygen
Property: Specific internal energy of reaction at constant volume, J/g
-15816.9
