Measured thermophysical data. Density and viscosity of four binary mixtures of [C2mmim][NTf2]/[C4mmim][NTf2] + dimethyl carbonate/diethyl carbonate
Source: J. Chem. Thermodyn., 2019, 10.1016/j.jct.2018.10.015
Compound 1: dimethyl carbonate, C3H6O3, InChI=1S/C3H6O3/c1-5-3(4)6-2/h1-2H3, purity 99%
Compound 2: diethyl carbonate, C5H10O3, InChI=1S/C5H10O3/c1-3-7-5(6)8-4-2/h3-4H2,1-2H3, purity 99%
Compound 3: 1-ethyl-2,3-dimethylimidazolium bis[(trifluoromethyl)sulfonyl]imide, C9H13F6N3O4S2, InChI=1S/C7H13N2.C2F6NO4S2/c1-4-9-6-5-8(3)7(9)2;3-1(4,5)14(10,11)9-15(12,13)2(6,7)8/h5-6H,4H2,1-3H3;/q+1;-1
Compound 4: 1-butyl-2,3-dimethyl-1H-imidazolium bis(trifluoromethylsulfonyl)amide, C11H17F6N3O4S2, InChI=1S/C9H17N2.C2F6NO4S2/c1-4-5-6-11-8-7-10(3)9(11)2;3-1(4,5)14(10,11)9-15(12,13)2(6,7)8/h7-8H,4-6H2,1-3H3;/q+1;-1

System: dimethyl carbonate; phases: Liquid
Fixed: Pressure, kPa = 101.3
Property: Mass density, kg/m3 (Liquid); method: Vibrating tube method
Temperature, K	Mass density, kg/m3	uncertainty
293.15	1069.7	2.4
298.15	1063.1	2.4
303.15	1056.4	2.4
308.15	1049.7	2.4
313.15	1043.1	2.4
318.15	1036.4	2.4
323.15	1029.6	2.4
328.15	1022.8	2.4

System: dimethyl carbonate; phases: Liquid
Fixed: Pressure, kPa = 101.3
Property: Viscosity, Pa*s (Liquid); method: Concentric cylinders viscometry
Temperature, K	Viscosity, Pa*s	uncertainty
293.15	0.000629	9e-06
298.15	0.00059	8e-06
303.15	0.000555	8e-06
308.15	0.000525	8e-06
313.15	0.000495	7e-06
318.15	0.000475	7e-06
323.15	0.000446	7e-06
328.15	0.000425	7e-06

System: diethyl carbonate; phases: Liquid
Fixed: Pressure, kPa = 101.3
Property: Mass density, kg/m3 (Liquid); method: Vibrating tube method
Temperature, K	Mass density, kg/m3	uncertainty
293.15	974.9	2.4
298.15	969.3	2.4
303.15	963.7	2.4
308.15	958	2.4
313.15	952.4	2.4
318.15	946.7	2.4
323.15	940.9	2.4
328.15	935.2	2.4

System: diethyl carbonate; phases: Liquid
Fixed: Pressure, kPa = 101.3
Property: Viscosity, Pa*s (Liquid); method: Concentric cylinders viscometry
Temperature, K	Viscosity, Pa*s	uncertainty
293.15	0.000805	1.1e-05
298.15	0.000751	1e-05
303.15	0.000702	1e-05
308.15	0.000659	9e-06
313.15	0.00062	9e-06
318.15	0.000584	8e-06
323.15	0.000552	8e-06
328.15	0.000523	8e-06

System: 1-ethyl-2,3-dimethylimidazolium bis[(trifluoromethyl)sulfonyl]imide; phases: Liquid
Fixed: Pressure, kPa = 101.3
Property: Mass density, kg/m3 (Liquid); method: Vibrating tube method
Temperature, K	Mass density, kg/m3	uncertainty
293.15	1495.8	2.5
298.15	1491	2.5
303.15	1486.3	2.5
308.15	1481.5	2.5
313.15	1476.7	2.5
318.15	1472	2.5
323.15	1467.2	2.5
328.15	1462.4	2.5

System: 1-ethyl-2,3-dimethylimidazolium bis[(trifluoromethyl)sulfonyl]imide; phases: Liquid
Fixed: Pressure, kPa = 101.3
Property: Viscosity, Pa*s (Liquid); method: Concentric cylinders viscometry
Temperature, K	Viscosity, Pa*s	uncertainty
293.15	0.08988	0.00126
298.15	0.07134	0.00092
303.15	0.05764	0.0007
308.15	0.04726	0.00058
313.15	0.03924	0.00048
318.15	0.033	0.0004
323.15	0.02805	0.00034
328.15	0.02416	0.00029

System: 1-butyl-2,3-dimethyl-1H-imidazolium bis(trifluoromethylsulfonyl)amide; phases: Liquid
Fixed: Pressure, kPa = 101.3
Property: Mass density, kg/m3 (Liquid); method: Vibrating tube method
Temperature, K	Mass density, kg/m3	uncertainty
293.15	1423.1	2.5
298.15	1418.5	2.5
303.15	1413.9	2.5
308.15	1409.3	2.5
313.15	1404.8	2.5
318.15	1400.2	2.5
323.15	1395.6	2.5
328.15	1391	2.5

System: 1-butyl-2,3-dimethyl-1H-imidazolium bis(trifluoromethylsulfonyl)amide; phases: Liquid
Fixed: Pressure, kPa = 101.3
Property: Viscosity, Pa*s (Liquid); method: Concentric cylinders viscometry
Temperature, K	Viscosity, Pa*s	uncertainty
293.15	0.1336	0.0023
298.15	0.10182	0.00155
303.15	0.07923	0.00107
308.15	0.06274	0.00078
313.15	0.05056	0.0006
318.15	0.04138	0.0005
323.15	0.03432	0.00042
328.15	0.02891	0.00035

System: 1-ethyl-2,3-dimethylimidazolium bis[(trifluoromethyl)sulfonyl]imide + dimethyl carbonate; phases: Liquid
Fixed: Pressure, kPa = 101.3
Property: Mass density, kg/m3 (Liquid); method: Vibrating tube method
Temperature, K	Mole fraction of 1-ethyl-2,3-dimethylimidazolium bis[(trifluoromethyl)sulfonyl]imide	Mass density, kg/m3	uncertainty
293.15	0	1069.7	2.4
293.15	0.099	1189	2.5
293.15	0.1994	1269.4	2.5
293.15	0.298	1325	2.5
293.15	0.4006	1368.1	2.5
293.15	0.5003	1400.9	2.5
293.15	0.5738	1420.8	2.5
293.15	0.6927	1447.3	2.5
293.15	0.8138	1469.2	2.5
293.15	0.8951	1481.5	2.5
293.15	1	1495.8	2.5
298.15	0	1063.1	2.4
298.15	0.099	1183	2.5
298.15	0.1994	1263.8	2.5
298.15	0.298	1319.6	2.5
298.15	0.4006	1362.9	2.5
298.15	0.5003	1395.7	2.5
298.15	0.5738	1415.7	2.5
298.15	0.6927	1442.3	2.5
298.15	0.8138	1464.3	2.5
298.15	0.8951	1476.7	2.5
298.15	1	1491	2.5
303.15	0	1056.4	2.4
303.15	0.099	1177	2.5
303.15	0.1994	1258.1	2.5
303.15	0.298	1314.2	2.5
303.15	0.4006	1357.7	2.5
303.15	0.5003	1390.6	2.5
303.15	0.5738	1410.6	2.5
303.15	0.6927	1437.4	2.5
303.15	0.8138	1459.4	2.5
303.15	0.8951	1471.8	2.5
303.15	1	1486.3	2.5
308.15	0	1049.7	2.4
308.15	0.099	1171	2.5
308.15	0.1994	1252.4	2.5
308.15	0.298	1308.8	2.5
308.15	0.4006	1352.5	2.5
308.15	0.5003	1385.5	2.5
308.15	0.5738	1405.6	2.5
308.15	0.6927	1432.4	2.5
308.15	0.8138	1454.5	2.5
308.15	0.8951	1467	3
308.15	1	1481.5	2.5
313.15	0	1043.1	2.4
313.15	0.099	1164.8	2.5
313.15	0.1994	1246.8	2.5
313.15	0.298	1303.4	2.5
313.15	0.4006	1347.3	2.5
313.15	0.5003	1380.4	2.5
313.15	0.5738	1400.5	2.5
313.15	0.6927	1427.5	2.5
313.15	0.8138	1449.7	2.5
313.15	0.8951	1462.2	2.5
313.15	1	1476.7	2.5
318.15	0	1036.4	2.4
318.15	0.099	1158.7	2.5
318.15	0.1994	1241.2	2.5
318.15	0.298	1298	2.5
318.15	0.4006	1342.1	2.5
318.15	0.5003	1375.3	2.5
318.15	0.5738	1395.5	2.5
318.15	0.6927	1422.6	2.5
318.15	0.8138	1444.8	2.5
318.15	0.8951	1457.4	2.5
318.15	1	1472	2.5
323.15	0	1029.6	2.4
323.15	0.099	1152.5	2.5
323.15	0.1994	1235.5	2.5
323.15	0.298	1292.7	2.5
323.15	0.4006	1336.9	2.5
323.15	0.5003	1370.2	2.5
323.15	0.5738	1390.5	2.5
323.15	0.6927	1417.6	2.5
323.15	0.8138	1440	2.5
323.15	0.8951	1452.6	2.5
323.15	1	1467.2	2.5
328.15	0	1022.8	2.4
328.15	0.099	1146.3	2.5
328.15	0.1994	1230	2.5
328.15	0.298	1287.3	2.5
328.15	0.4006	1331.7	2.5
328.15	0.5003	1365.2	2.5
328.15	0.5738	1385.5	2.5
328.15	0.6927	1412.7	2.5
328.15	0.8138	1435.1	2.5
328.15	0.8951	1447.8	2.5
328.15	1	1462.4	2.5

System: 1-ethyl-2,3-dimethylimidazolium bis[(trifluoromethyl)sulfonyl]imide + dimethyl carbonate; phases: Liquid
Fixed: Pressure, kPa = 101.3
Property: Viscosity, Pa*s (Liquid); method: Concentric cylinders viscometry
Temperature, K	Mole fraction of 1-ethyl-2,3-dimethylimidazolium bis[(trifluoromethyl)sulfonyl]imide	Viscosity, Pa*s	uncertainty
293.15	0	0.000629	9e-06
293.15	0.099	0.001706	2.2e-05
293.15	0.1994	0.003137	4e-05
293.15	0.298	0.005492	6.9e-05
293.15	0.4006	0.009266	0.000115
293.15	0.5003	0.01465	0.00018
293.15	0.5738	0.0201	0.00025
293.15	0.6927	0.03198	0.0004
293.15	0.8138	0.04928	0.00061
293.15	0.8951	0.06402	0.0008
293.15	1	0.08988	0.00126
298.15	0	0.00059	8e-06
298.15	0.099	0.001581	2e-05
298.15	0.1994	0.002849	3.5e-05
298.15	0.298	0.0049	5.9e-05
298.15	0.4006	0.008114	9.8e-05
298.15	0.5003	0.01258	0.00015
298.15	0.5738	0.01703	0.00021
298.15	0.6927	0.02657	0.00032
298.15	0.8138	0.04016	0.00049
298.15	0.8951	0.0516	0.00062
298.15	1	0.07134	0.00092
303.15	0	0.000555	8e-06
303.15	0.099	0.001469	1.9e-05
303.15	0.1994	0.0026	3.2e-05
303.15	0.298	0.004402	5.3e-05
303.15	0.4006	0.007169	8.6e-05
303.15	0.5003	0.01091	0.00013
303.15	0.5738	0.0146	0.00018
303.15	0.6927	0.02236	0.00027
303.15	0.8138	0.03322	0.00041
303.15	0.8951	0.04225	0.00052
303.15	1	0.05764	0.0007
308.15	0	0.000525	8e-06
308.15	0.099	0.001368	1.8e-05
308.15	0.1994	0.002383	2.9e-05
308.15	0.298	0.00398	4.8e-05
308.15	0.4006	0.006384	7.7e-05
308.15	0.5003	0.009555	0.000115
308.15	0.5738	0.01264	0.00015
308.15	0.6927	0.01905	0.00023
308.15	0.8138	0.02785	0.00034
308.15	0.8951	0.03508	0.00043
308.15	1	0.04726	0.00058
313.15	0	0.000495	7e-06
313.15	0.099	0.001276	1.6e-05
313.15	0.1994	0.002192	2.7e-05
313.15	0.298	0.003619	4.4e-05
313.15	0.4006	0.005728	6.9e-05
313.15	0.5003	0.00844	0.000101
313.15	0.5738	0.01105	0.00013
313.15	0.6927	0.01638	0.0002
313.15	0.8138	0.02362	0.00028
313.15	0.8951	0.02948	0.00036
313.15	1	0.03924	0.00048
318.15	0	0.000475	7e-06
318.15	0.099	0.001193	1.5e-05
318.15	0.1994	0.002023	2.5e-05
318.15	0.298	0.003308	4e-05
318.15	0.4006	0.005173	6.2e-05
318.15	0.5003	0.007511	9e-05
318.15	0.5738	0.00974	0.000117
318.15	0.6927	0.01424	0.00017
318.15	0.8138	0.02025	0.00024
318.15	0.8951	0.02506	0.0003
318.15	1	0.033	0.0004
323.15	0	0.000446	7e-06
323.15	0.099	0.001114	1.5e-05
323.15	0.1994	0.00187	2.3e-05
323.15	0.298	0.003037	3.7e-05
323.15	0.4006	0.004699	5.6e-05
323.15	0.5003	0.00673	8e-05
323.15	0.5738	0.008649	0.000103
323.15	0.6927	0.01248	0.00015
323.15	0.8138	0.01752	0.00021
323.15	0.8951	0.02153	0.00026
323.15	1	0.02805	0.00034
328.15	0	0.000425	7e-06
328.15	0.099	0.001042	1.4e-05
328.15	0.1994	0.001737	2.1e-05
328.15	0.298	0.002802	3.4e-05
328.15	0.4006	0.004286	5.1e-05
328.15	0.5003	0.006083	7.2e-05
328.15	0.5738	0.007757	9.2e-05
328.15	0.6927	0.01106	0.00013
328.15	0.8138	0.01534	0.00018
328.15	0.8951	0.01872	0.00022
328.15	1	0.02416	0.00029

System: 1-ethyl-2,3-dimethylimidazolium bis[(trifluoromethyl)sulfonyl]imide + diethyl carbonate; phases: Liquid
Fixed: Pressure, kPa = 101.3
Property: Mass density, kg/m3 (Liquid); method: Vibrating tube method
Temperature, K	Mole fraction of 1-ethyl-2,3-dimethylimidazolium bis[(trifluoromethyl)sulfonyl]imide	Mass density, kg/m3	uncertainty
293.15	0	974.9	2.4
293.15	0.1731	1150.1	2.5
293.15	0.302	1242.2	2.4
293.15	0.4028	1298.8	2.4
293.15	0.4991	1343.7	2.5
293.15	0.6093	1387	2.5
293.15	0.7039	1418.8	2.5
293.15	0.7951	1445.6	2.5
293.15	0.8901	1470.6	2.5
293.15	1	1495.8	2.5
298.15	0	969.3	2.4
298.15	0.1731	1144.8	2.5
298.15	0.302	1237.1	2.4
298.15	0.4028	1293.7	2.5
298.15	0.4991	1338.7	2.5
298.15	0.6093	1382	3
298.15	0.7039	1413.9	2.5
298.15	0.7951	1440.8	2.5
298.15	0.8901	1465.8	2.5
298.15	1	1491	2.5
303.15	0	963.7	2.4
303.15	0.1731	1139.5	2.4
303.15	0.302	1232	2.4
303.15	0.4028	1288.6	2.4
303.15	0.4991	1333.7	2.5
303.15	0.6093	1377.1	2.5
303.15	0.7039	1409	3
303.15	0.7951	1435.9	2.5
303.15	0.8901	1461	2.5
303.15	1	1486.3	2.5
308.15	0	958	2.4
308.15	0.1731	1134.2	2.4
308.15	0.302	1226.9	2.4
308.15	0.4028	1283.6	2.4
308.15	0.4991	1328.7	2.5
308.15	0.6093	1372.2	2.5
308.15	0.7039	1404.1	2.5
308.15	0.7951	1431.1	2.5
308.15	0.8901	1456.2	2.5
308.15	1	1481.5	2.5
313.15	0	952.4	2.4
313.15	0.1731	1128.9	2.4
313.15	0.302	1221.7	2.4
313.15	0.4028	1278.5	2.4
313.15	0.4991	1323.7	2.5
313.15	0.6093	1367.3	2.5
313.15	0.7039	1399.3	2.5
313.15	0.7951	1426.2	2.5
313.15	0.8901	1451.4	2.5
313.15	1	1476.7	2.5
318.15	0	946.7	2.4
318.15	0.1731	1123.6	2.4
318.15	0.302	1216.5	2.4
318.15	0.4028	1273.5	2.4
318.15	0.4991	1318.8	2.5
318.15	0.6093	1362.4	2.5
318.15	0.7039	1394.4	2.5
318.15	0.7951	1421.4	2.5
318.15	0.8901	1446.6	2.5
318.15	1	1472	2.5
323.15	0	940.9	2.4
323.15	0.1731	1118.3	2.4
323.15	0.302	1211.3	2.4
323.15	0.4028	1268.4	2.4
323.15	0.4991	1313.8	2.5
323.15	0.6093	1357.5	2.5
323.15	0.7039	1389.6	2.5
323.15	0.7951	1416.6	2.5
323.15	0.8901	1441.8	2.5
323.15	1	1467.2	2.5
328.15	0	935.2	2.4
328.15	0.1731	1112.9	2.5
328.15	0.302	1206.2	2.5
328.15	0.4028	1263.4	2.4
328.15	0.4991	1308.9	2.5
328.15	0.6093	1352.5	2.5
328.15	0.7039	1384.7	2.5
328.15	0.7951	1411.8	2.5
328.15	0.8901	1437	2.5
328.15	1	1462.4	2.5

System: 1-ethyl-2,3-dimethylimidazolium bis[(trifluoromethyl)sulfonyl]imide + diethyl carbonate; phases: Liquid
Fixed: Pressure, kPa = 101.3
Property: Viscosity, Pa*s (Liquid); method: Concentric cylinders viscometry
Temperature, K	Mole fraction of 1-ethyl-2,3-dimethylimidazolium bis[(trifluoromethyl)sulfonyl]imide	Viscosity, Pa*s	uncertainty
293.15	0	0.000805	1.1e-05
293.15	0.1731	0.003168	4.2e-05
293.15	0.302	0.006382	8e-05
293.15	0.4028	0.01053	0.00013
293.15	0.4991	0.01614	0.0002
293.15	0.6093	0.02506	0.00031
293.15	0.7039	0.03542	0.00044
293.15	0.7951	0.04811	0.00059
293.15	0.8901	0.06472	0.00081
293.15	1	0.08988	0.00126
298.15	0	0.000751	1e-05
298.15	0.1731	0.002871	3.5e-05
298.15	0.302	0.005646	6.8e-05
298.15	0.4028	0.009149	0.000111
298.15	0.4991	0.01379	0.00017
298.15	0.6093	0.02102	0.00026
298.15	0.7039	0.02927	0.00036
298.15	0.7951	0.03924	0.00048
298.15	0.8901	0.05212	0.00063
298.15	1	0.07134	0.00092
303.15	0	0.000702	1e-05
303.15	0.1731	0.002615	3.2e-05
303.15	0.302	0.005032	6.1e-05
303.15	0.4028	0.008021	9.7e-05
303.15	0.4991	0.0119	0.00014
303.15	0.6093	0.01784	0.00022
303.15	0.7039	0.02452	0.0003
303.15	0.7951	0.03249	0.0004
303.15	0.8901	0.04265	0.00052
303.15	1	0.05764	0.0007
308.15	0	0.000659	9e-06
308.15	0.1731	0.002394	2.9e-05
308.15	0.302	0.004515	5.5e-05
308.15	0.4028	0.007089	8.5e-05
308.15	0.4991	0.01037	0.00012
308.15	0.6093	0.01531	0.00018
308.15	0.7039	0.02078	0.00025
308.15	0.7951	0.02723	0.00033
308.15	0.8901	0.03538	0.00043
308.15	1	0.04726	0.00058
313.15	0	0.00062	9e-06
313.15	0.1731	0.002201	2.7e-05
313.15	0.302	0.004076	4.9e-05
313.15	0.4028	0.006312	7.6e-05
313.15	0.4991	0.009113	0.000109
313.15	0.6093	0.01327	0.00016
313.15	0.7039	0.01781	0.00021
313.15	0.7951	0.0231	0.00028
313.15	0.8901	0.02972	0.00036
313.15	1	0.03924	0.00048
318.15	0	0.000584	8e-06
318.15	0.1731	0.002032	2.5e-05
318.15	0.302	0.0037	4.5e-05
318.15	0.4028	0.005657	6.8e-05
318.15	0.4991	0.00807	9.7e-05
318.15	0.6093	0.0116	0.00014
318.15	0.7039	0.01541	0.00018
318.15	0.7951	0.0198	0.00024
318.15	0.8901	0.02524	0.0003
318.15	1	0.033	0.0004
323.15	0	0.000552	8e-06
323.15	0.1731	0.001882	2.3e-05
323.15	0.302	0.003375	4.1e-05
323.15	0.4028	0.005102	6.1e-05
323.15	0.4991	0.007196	8.6e-05
323.15	0.6093	0.01022	0.00012
323.15	0.7039	0.01345	0.00016
323.15	0.7951	0.01714	0.00021
323.15	0.8901	0.02166	0.00026
323.15	1	0.02805	0.00034
328.15	0	0.000523	8e-06
328.15	0.1731	0.00175	2.2e-05
328.15	0.302	0.003098	3.7e-05
328.15	0.4028	0.004633	5.5e-05
328.15	0.4991	0.006468	7.7e-05
328.15	0.6093	0.009095	0.000108
328.15	0.7039	0.01186	0.00014
328.15	0.7951	0.015	0.00018
328.15	0.8901	0.01881	0.00022
328.15	1	0.02416	0.00029

System: 1-butyl-2,3-dimethyl-1H-imidazolium bis(trifluoromethylsulfonyl)amide + dimethyl carbonate; phases: Liquid
Fixed: Pressure, kPa = 101.3
Property: Mass density, kg/m3 (Liquid); method: Vibrating tube method
Temperature, K	Mole fraction of 1-butyl-2,3-dimethyl-1H-imidazolium bis(trifluoromethylsulfonyl)amide	Mass density, kg/m3	uncertainty
293.15	0	1069.7	2.4
293.15	0.0976	1176	2.5
293.15	0.1935	1242.1	2.4
293.15	0.299	1291.6	2.4
293.15	0.4011	1325.8	2.4
293.15	0.4954	1350.1	2.5
293.15	0.5974	1371	2.5
293.15	0.6988	1387.8	2.5
293.15	0.7987	1401.5	2.5
293.15	0.9	1413.2	2.5
293.15	1	1423.1	2.5
298.15	0	1063.1	2.4
298.15	0.0976	1170.1	2.5
298.15	0.1935	1236.6	2.4
298.15	0.299	1286.4	2.4
298.15	0.4011	1320.8	2.4
298.15	0.4954	1345.2	2.5
298.15	0.5974	1366.2	2.5
298.15	0.6988	1383	2.5
298.15	0.7987	1396.8	2.5
298.15	0.9	1408.5	2.5
298.15	1	1418.5	2.5
303.15	0	1056.4	2.4
303.15	0.0976	1164.2	2.5
303.15	0.1935	1231.1	2.4
303.15	0.299	1281.2	2.4
303.15	0.4011	1315.7	2.4
303.15	0.4954	1340.2	2.5
303.15	0.5974	1361.4	2.5
303.15	0.6988	1378.3	2.5
303.15	0.7987	1392.1	2.5
303.15	0.9	1403.9	2.5
303.15	1	1413.9	2.5
308.15	0	1049.7	2.4
308.15	0.0976	1158.2	2.5
308.15	0.1935	1225.6	2.4
308.15	0.299	1275.9	2.4
308.15	0.4011	1310.7	2.4
308.15	0.4954	1335.3	2.4
308.15	0.5974	1356.5	2.5
308.15	0.6988	1373.5	2.5
308.15	0.7987	1387.4	2.5
308.15	0.9	1399.2	2.5
308.15	1	1409.3	2.5
313.15	0	1043.1	2.4
313.15	0.0976	1152.2	2.5
313.15	0.1935	1220.1	2.4
313.15	0.299	1270.7	2.4
313.15	0.4011	1305.6	2.4
313.15	0.4954	1330.4	2.4
313.15	0.5974	1351.7	2.5
313.15	0.6988	1368.8	2.5
313.15	0.7987	1382.7	2.5
313.15	0.9	1394.6	2.5
313.15	1	1404.8	2.5
318.15	0	1036.4	2.4
318.15	0.0976	1146.2	2.5
318.15	0.1935	1214.5	2.4
318.15	0.299	1265.5	2.4
318.15	0.4011	1300.6	2.4
318.15	0.4954	1325.5	2.4
318.15	0.5974	1346.9	2.5
318.15	0.6988	1364	2.5
318.15	0.7987	1378.1	2.5
318.15	0.9	1390	2.5
318.15	1	1400.2	2.5
323.15	0	1029.6	2.4
323.15	0.0976	1140.2	2.5
323.15	0.1935	1209	2.4
323.15	0.299	1260.3	2.4
323.15	0.4011	1295.6	2.4
323.15	0.4954	1320.6	2.4
323.15	0.5974	1342.1	2.5
323.15	0.6988	1359.3	2.5
323.15	0.7987	1373.4	2.5
323.15	0.9	1385.4	2.5
323.15	1	1395.6	2.5
328.15	0	1022.8	2.4
328.15	0.0976	1133.9	2.5
328.15	0.1935	1203.6	2.5
328.15	0.299	1255.1	2.4
328.15	0.4011	1290.5	2.4
328.15	0.4954	1315.6	2.4
328.15	0.5974	1337.2	2.5
328.15	0.6988	1354.6	2.5
328.15	0.7987	1368.7	2.5
328.15	0.9	1380.8	2.5
328.15	1	1391	2.5

System: 1-butyl-2,3-dimethyl-1H-imidazolium bis(trifluoromethylsulfonyl)amide + dimethyl carbonate; phases: Liquid
Fixed: Pressure, kPa = 101.3
Property: Viscosity, Pa*s (Liquid); method: Concentric cylinders viscometry
Temperature, K	Mole fraction of 1-butyl-2,3-dimethyl-1H-imidazolium bis(trifluoromethylsulfonyl)amide	Viscosity, Pa*s	uncertainty
293.15	0	0.000629	9e-06
293.15	0.0976	0.001828	2.4e-05
293.15	0.1935	0.003518	4.6e-05
293.15	0.299	0.006864	8.7e-05
293.15	0.4011	0.01211	0.00015
293.15	0.4954	0.0195	0.00024
293.15	0.5974	0.03106	0.00039
293.15	0.6988	0.04737	0.0006
293.15	0.7987	0.0689	0.00089
293.15	0.9	0.0975	0.00145
293.15	1	0.1336	0.0023
298.15	0	0.00059	8e-06
298.15	0.0976	0.001686	2.1e-05
298.15	0.1935	0.003172	3.9e-05
298.15	0.299	0.006035	7.3e-05
298.15	0.4011	0.01038	0.00013
298.15	0.4954	0.01634	0.0002
298.15	0.5974	0.02545	0.00031
298.15	0.6988	0.03801	0.00047
298.15	0.7987	0.05423	0.00066
298.15	0.9	0.07554	0.00101
298.15	1	0.10182	0.00155
303.15	0	0.000555	8e-06
303.15	0.0976	0.001561	2e-05
303.15	0.1935	0.002876	3.5e-05
303.15	0.299	0.005352	6.5e-05
303.15	0.4011	0.008997	0.000109
303.15	0.4954	0.01388	0.00017
303.15	0.5974	0.02116	0.00026
303.15	0.6988	0.03101	0.00038
303.15	0.7987	0.0435	0.00054
303.15	0.9	0.05963	0.00074
303.15	1	0.07923	0.00107
308.15	0	0.000525	8e-06
308.15	0.0976	0.001445	1.9e-05
308.15	0.1935	0.002623	3.2e-05
308.15	0.299	0.004784	5.8e-05
308.15	0.4011	0.007873	9.5e-05
308.15	0.4954	0.01192	0.00014
308.15	0.5974	0.01783	0.00022
308.15	0.6988	0.02568	0.00031
308.15	0.7987	0.03546	0.00044
308.15	0.9	0.04791	0.00059
308.15	1	0.06274	0.00078
313.15	0	0.000495	7e-06
313.15	0.0976	0.001343	1.7e-05
313.15	0.1935	0.002405	3e-05
313.15	0.299	0.004306	5.2e-05
313.15	0.4011	0.00695	8.4e-05
313.15	0.4954	0.01034	0.00012
313.15	0.5974	0.0152	0.00018
313.15	0.6988	0.02155	0.00026
313.15	0.7987	0.02934	0.00036
313.15	0.9	0.03906	0.00048
313.15	1	0.05056	0.0006
318.15	0	0.000475	7e-06
318.15	0.0976	0.00125	1.6e-05
318.15	0.1935	0.002214	2.7e-05
318.15	0.299	0.0039	4.7e-05
318.15	0.4011	0.006184	7.4e-05
318.15	0.4954	0.00906	0.000109
318.15	0.5974	0.0131	0.00016
318.15	0.6988	0.0183	0.00022
318.15	0.7987	0.02458	0.0003
318.15	0.9	0.03232	0.00039
318.15	1	0.04138	0.0005
323.15	0	0.000446	7e-06
323.15	0.0976	0.001165	1.5e-05
323.15	0.1935	0.002046	2.5e-05
323.15	0.299	0.003553	4.3e-05
323.15	0.4011	0.005543	6.7e-05
323.15	0.4954	0.008	9.6e-05
323.15	0.5974	0.0114	0.00014
323.15	0.6988	0.01571	0.00019
323.15	0.7987	0.02085	0.00025
323.15	0.9	0.02709	0.00033
323.15	1	0.03432	0.00042
328.15	0	0.000425	7e-06
328.15	0.0976	0.001091	1.4e-05
328.15	0.1935	0.001904	2.3e-05
328.15	0.299	0.003258	3.9e-05
328.15	0.4011	0.005017	6e-05
328.15	0.4954	0.007129	8.5e-05
328.15	0.5974	0.01003	0.00012
328.15	0.6988	0.01364	0.00016
328.15	0.7987	0.01791	0.00022
328.15	0.9	0.02304	0.00028
328.15	1	0.02891	0.00035

System: 1-butyl-2,3-dimethyl-1H-imidazolium bis(trifluoromethylsulfonyl)amide + diethyl carbonate; phases: Liquid
Fixed: Pressure, kPa = 101.3
Property: Mass density, kg/m3 (Liquid); method: Vibrating tube method
Temperature, K	Mole fraction of 1-butyl-2,3-dimethyl-1H-imidazolium bis(trifluoromethylsulfonyl)amide	Mass density, kg/m3	uncertainty
293.15	0	974.9	2.4
293.15	0.0996	1078.2	2.4
293.15	0.199	1156.1	2.4
293.15	0.299	1216.4	2.4
293.15	0.3982	1263.9	2.4
293.15	0.4985	1302.6	2.4
293.15	0.5979	1334.6	2.4
293.15	0.698	1361.8	2.5
293.15	0.8	1385.4	2.5
293.15	0.9012	1405.7	2.5
293.15	1	1423.1	2.5
298.15	0	969.3	2.4
298.15	0.0996	1072.9	2.4
298.15	0.199	1151	2.4
298.15	0.299	1211.4	2.4
298.15	0.3982	1259	3
298.15	0.4985	1297.7	2.4
298.15	0.5979	1329.8	2.4
298.15	0.698	1357.1	2.5
298.15	0.8	1380.8	2.5
298.15	0.9012	1401.1	2.5
298.15	1	1418.5	2.5
303.15	0	963.7	2.4
303.15	0.0996	1067.5	2.4
303.15	0.199	1145.8	2.4
303.15	0.299	1206.4	2.4
303.15	0.3982	1254.1	2.4
303.15	0.4985	1292.9	2.4
303.15	0.5979	1325.1	2.4
303.15	0.698	1352.4	2.5
303.15	0.8	1376.1	2.5
303.15	0.9012	1396.5	2.5
303.15	1	1413.9	2.5
308.15	0	958	2.4
308.15	0.0996	1062.1	2.4
308.15	0.199	1140.6	2.4
308.15	0.299	1201.3	2.4
308.15	0.3982	1249.1	2.4
308.15	0.4985	1288.1	2.4
308.15	0.5979	1320.3	2.4
308.15	0.698	1347.6	2.5
308.15	0.8	1371.4	2.5
308.15	0.9012	1391.9	2.5
308.15	1	1409.3	2.5
313.15	0	952.4	2.4
313.15	0.0996	1056.8	2.4
313.15	0.199	1135.4	2.4
313.15	0.299	1196.3	2.4
313.15	0.3982	1244.2	2.4
313.15	0.4985	1283.2	2.4
313.15	0.5979	1315.5	2.4
313.15	0.698	1342.9	2.5
313.15	0.8	1366.8	2.5
313.15	0.9012	1387.2	2.5
313.15	1	1404.8	2.5
318.15	0	946.7	2.4
318.15	0.0996	1051.4	2.4
318.15	0.199	1130.3	2.4
318.15	0.299	1191.3	2.4
318.15	0.3982	1239.3	2.4
318.15	0.4985	1278.4	2.4
318.15	0.5979	1310.8	2.4
318.15	0.698	1338.2	2.5
318.15	0.8	1362.1	2.5
318.15	0.9012	1382.6	2.5
318.15	1	1400.2	2.5
323.15	0	940.9	2.4
323.15	0.0996	1046	2.4
323.15	0.199	1125.1	2.4
323.15	0.299	1186.3	2.4
323.15	0.3982	1234.4	2.4
323.15	0.4985	1273.6	2.4
323.15	0.5979	1306	3
323.15	0.698	1333.6	2.4
323.15	0.8	1357.5	2.5
323.15	0.9012	1378	3
323.15	1	1395.6	2.5
328.15	0	935.2	2.4
328.15	0.0996	1040.5	2.5
328.15	0.199	1119.8	2.4
328.15	0.299	1181.2	2.4
328.15	0.3982	1229.5	2.4
328.15	0.4985	1268.7	2.4
328.15	0.5979	1301.3	2.4
328.15	0.698	1328.8	2.5
328.15	0.8	1352.8	2.5
328.15	0.9012	1373.4	2.5
328.15	1	1391	2.5

System: 1-butyl-2,3-dimethyl-1H-imidazolium bis(trifluoromethylsulfonyl)amide + diethyl carbonate; phases: Liquid
Fixed: Pressure, kPa = 101.3
Property: Viscosity, Pa*s (Liquid); method: Concentric cylinders viscometry
Temperature, K	Mole fraction of 1-butyl-2,3-dimethyl-1H-imidazolium bis(trifluoromethylsulfonyl)amide	Viscosity, Pa*s	uncertainty
293.15	0	0.000805	1.1e-05
293.15	0.0996	0.002172	2.8e-05
293.15	0.199	0.004104	5.3e-05
293.15	0.299	0.007648	9.6e-05
293.15	0.3982	0.0131	0.00016
293.15	0.4985	0.02135	0.00027
293.15	0.5979	0.03314	0.00042
293.15	0.698	0.04942	0.00062
293.15	0.8	0.07145	0.00093
293.15	0.9012	0.09934	0.00149
293.15	1	0.1336	0.0023
298.15	0	0.000751	1e-05
298.15	0.0996	0.001989	2.5e-05
298.15	0.199	0.003665	4.5e-05
298.15	0.299	0.006684	8.1e-05
298.15	0.3982	0.01119	0.00014
298.15	0.4985	0.01782	0.00022
298.15	0.5979	0.02706	0.00033
298.15	0.698	0.03958	0.00049
298.15	0.8	0.0562	0.00069
298.15	0.9012	0.07675	0.00103
298.15	1	0.10182	0.00155
303.15	0	0.000702	1e-05
303.15	0.0996	0.001829	2.3e-05
303.15	0.199	0.003295	4e-05
303.15	0.299	0.005892	7.2e-05
303.15	0.3982	0.009654	0.000117
303.15	0.4985	0.01506	0.00018
303.15	0.5979	0.02244	0.00027
303.15	0.698	0.03224	0.0004
303.15	0.8	0.04495	0.00056
303.15	0.9012	0.06057	0.00075
303.15	1	0.07923	0.00107
308.15	0	0.000659	9e-06
308.15	0.0996	0.001689	2.1e-05
308.15	0.199	0.002979	3.7e-05
308.15	0.299	0.005234	6.3e-05
308.15	0.3982	0.00841	0.000102
308.15	0.4985	0.01288	0.00016
308.15	0.5979	0.01886	0.00023
308.15	0.698	0.02664	0.00033
308.15	0.8	0.03659	0.00045
308.15	0.9012	0.04862	0.0006
308.15	1	0.06274	0.00078
313.15	0	0.00062	9e-06
313.15	0.0996	0.001565	2e-05
313.15	0.199	0.002708	3.3e-05
313.15	0.299	0.004682	5.7e-05
313.15	0.3982	0.00739	8.9e-05
313.15	0.4985	0.01112	0.00013
313.15	0.5979	0.01603	0.00019
313.15	0.698	0.02231	0.00027
313.15	0.8	0.03021	0.00037
313.15	0.9012	0.03965	0.00049
313.15	1	0.05056	0.0006
318.15	0	0.000584	8e-06
318.15	0.0996	0.001456	1.9e-05
318.15	0.199	0.002472	3e-05
318.15	0.299	0.004215	5.1e-05
318.15	0.3982	0.006543	7.9e-05
318.15	0.4985	0.009697	0.000117
318.15	0.5979	0.01378	0.00017
318.15	0.698	0.0189	0.00023
318.15	0.8	0.02527	0.00031
318.15	0.9012	0.03278	0.0004
318.15	1	0.04138	0.0005
323.15	0	0.000552	8e-06
323.15	0.0996	0.001359	1.7e-05
323.15	0.199	0.002268	2.8e-05
323.15	0.299	0.003816	4.6e-05
323.15	0.3982	0.005835	7e-05
323.15	0.4985	0.008523	0.000102
323.15	0.5979	0.01195	0.00014
323.15	0.698	0.01618	0.00019
323.15	0.8	0.02139	0.00026
323.15	0.9012	0.02746	0.00033
323.15	1	0.03432	0.00042
328.15	0	0.000523	8e-06
328.15	0.0996	0.001271	1.6e-05
328.15	0.199	0.00209	2.6e-05
328.15	0.299	0.003473	4.2e-05
328.15	0.3982	0.005245	6.3e-05
328.15	0.4985	0.007565	9e-05
328.15	0.5979	0.01047	0.00013
328.15	0.698	0.01402	0.00017
328.15	0.8	0.01835	0.00022
328.15	0.9012	0.02333	0.00028
328.15	1	0.02891	0.00035
