Measured thermophysical data. Preparation and characterization of amine (N-methyl diethanolamine)-based transition temperature mixtures (deep eutectic analogues solvents)
Source: J. Chem. Thermodyn., 2019, 10.1016/j.jct.2018.12.014
Compound 1: methyltriphenylphosphonium bromide, C19H18BrP, InChI=1S/C19H18P.BrH/c1-20(17-11-5-2-6-12-17,18-13-7-3-8-14-18)19-15-9-4-10-16-19;/h2-16H,1H3;1H/q+1;/p-1, purity 99%
Compound 2: N-methyldiethanolamine, C5H13NO2, InChI=1S/C5H13NO2/c1-6(2-4-7)3-5-8/h7-8H,2-5H2,1H3, purity 98%

System: N-methyldiethanolamine; phases: Liquid
Fixed: Pressure, kPa = 101
Property: Mass density, kg/m3 (Liquid); method: Vibrating tube method
Temperature, K	Mass density, kg/m3	uncertainty
293.15	1040.31	8.36
298.15	1036.42	8.33
303.15	1032.55	8.3
308.15	1028.7	8.27
313.15	1025.14	8.24
318.15	1021.34	8.21
323.15	1017.55	8.18
328.15	1013.89	8.15
333.15	1010.07	8.12
338.15	1006.37	8.09
343.15	1002.33	8.06
348.15	998.62	8.03
353.15	995.05	8

System: N-methyldiethanolamine; phases: Liquid
Fixed: Pressure, kPa = 101
Property: Refractive index (Na D-line) (Liquid); method: Standard Abbe refractometry
Temperature, K	Refractive index (Na D-line)	uncertainty
293.15	1.46942	0.00423
298.15	1.46732	0.00423
303.15	1.46498	0.00422
308.15	1.46285	0.00421
313.15	1.46099	0.00421
318.15	1.45879	0.0042
323.15	1.4568	0.0042
328.15	1.45461	0.00419
333.15	1.45252	0.00418
338.15	1.45042	0.00418
343.15	1.44855	0.00417

System: methyltriphenylphosphonium bromide + N-methyldiethanolamine; phases: Liquid
Fixed: Pressure, kPa = 101
Property: Mass density, kg/m3 (Liquid); method: Vibrating tube method
Temperature, K	Mass fraction of methyltriphenylphosphonium bromide	Mass density, kg/m3	uncertainty
293.15	0.2998	1124.09	8.27
298.15	0.2998	1120.4	8.24
303.15	0.2998	1116.71	8.21
308.15	0.2998	1113.03	8.19
313.15	0.2998	1109.36	8.16
318.15	0.2998	1105.69	8.14
323.15	0.2998	1102.01	8.11
328.15	0.2998	1098.34	8.09
333.15	0.2998	1094.66	8.06
338.15	0.2998	1090.99	8.04
343.15	0.2998	1087.31	8.01
348.15	0.2998	1083.63	7.98
353.15	0.2998	1080.06	7.96
293.15	0.2306	1106.7	8.4
298.15	0.2306	1102.99	8.37
303.15	0.2306	1099.26	8.34
308.15	0.2306	1095.54	8.32
313.15	0.2306	1091.82	8.29
318.15	0.2306	1088.09	8.26
323.15	0.2306	1084.36	8.24
328.15	0.2306	1080.63	8.21
333.15	0.2306	1076.9	8.18
338.15	0.2306	1073.17	8.15
343.15	0.2306	1069.43	8.13
348.15	0.2306	1065.72	8.1
353.15	0.2306	1062.05	8.08
293.15	0.1578	1086.84	8.52
298.15	0.1578	1083.1	8.49
303.15	0.1578	1079.34	8.47
308.15	0.1578	1075.59	8.44
313.15	0.1578	1071.84	8.41
318.15	0.1578	1068.08	8.38
323.15	0.1578	1064.32	8.35
328.15	0.1578	1060.54	8.32
333.15	0.1578	1056.77	8.29
338.15	0.1578	1052.98	8.27
343.15	0.1578	1049.19	8.24
348.15	0.1578	1045.47	8.21
353.15	0.1578	1041.65	8.18
293.15	0	1040.31	8.36
298.15	0	1036.42	8.33
303.15	0	1032.55	8.3
308.15	0	1028.7	8.27
313.15	0	1025.14	8.24
318.15	0	1021.34	8.21
323.15	0	1017.55	8.18
328.15	0	1013.89	8.15
333.15	0	1010.07	8.12
338.15	0	1006.37	8.09
343.15	0	1002.33	8.06
348.15	0	998.62	8.03
353.15	0	995.05	8

System: methyltriphenylphosphonium bromide + N-methyldiethanolamine; phases: Liquid
Fixed: Pressure, kPa = 101
Property: Refractive index (Na D-line) (Liquid); method: Standard Abbe refractometry
Temperature, K	Mass fraction of methyltriphenylphosphonium bromide	Refractive index (Na D-line)	uncertainty
293.15	0.2998	1.52077	0.00379
298.15	0.2998	1.51904	0.00379
303.15	0.2998	1.51732	0.00379
308.15	0.2998	1.51557	0.00378
313.15	0.2998	1.51383	0.00378
318.15	0.2998	1.51212	0.00378
323.15	0.2998	1.5103	0.00378
328.15	0.2998	1.5083	0.00378
333.15	0.2998	1.50644	0.00377
338.15	0.2998	1.50466	0.00376
343.15	0.2998	1.50288	0.00376
293.15	0.2306	1.50867	0.00383
298.15	0.2306	1.50694	0.00382
303.15	0.2306	1.50517	0.00382
308.15	0.2306	1.5034	0.00382
313.15	0.2306	1.50162	0.00381
318.15	0.2306	1.49961	0.00381
323.15	0.2306	1.49793	0.00381
328.15	0.2306	1.49584	0.0038
333.15	0.2306	1.4942	0.0038
338.15	0.2306	1.49244	0.00379
343.15	0.2306	1.49064	0.00379
293.15	0.1578	1.49579	0.00385
298.15	0.1578	1.49402	0.00384
303.15	0.1578	1.49224	0.00384
308.15	0.1578	1.49037	0.00384
313.15	0.1578	1.48865	0.00384
318.15	0.1578	1.4869	0.00384
323.15	0.1578	1.48502	0.00384
328.15	0.1578	1.48313	0.00383
333.15	0.1578	1.48114	0.00383
338.15	0.1578	1.47935	0.00383
343.15	0.1578	1.47746	0.00382
293.15	0	1.46942	0.00423
298.15	0	1.46732	0.00423
303.15	0	1.46498	0.00422
308.15	0	1.46285	0.00421
313.15	0	1.46099	0.00421
318.15	0	1.45879	0.0042
323.15	0	1.4568	0.0042
328.15	0	1.45461	0.00419
333.15	0	1.45252	0.00418
338.15	0	1.45042	0.00418
343.15	0	1.44855	0.00417
