Measured thermophysical data. The physicochemical properties of 1,3,5-trimethyl-1,3,5-tris(3,3,3-trifluoropropyl)cyclotrisiloxane with various aromatic hydrocarbons at T = (308.15 to 323.15) K
Source: J. Chem. Thermodyn., 2016, 10.1016/j.jct.2015.12.025
Compound 1: 2,4,6-trimethyl-2,4,6-tris(3,3,3-trifluoropropyl)-1,3,5,2,4,6-trioxatrisilinane, C12H21F9O3Si3, InChI=1S/C12H21F9O3Si3/c1-25(7-4-10(13,14)15)22-26(2,8-5-11(16,17)18)24-27(3,23-25)9-6-12(19,20)21/h4-9H2,1-3H3
Compound 2: nitrobenzene, C6H5NO2, InChI=1S/C6H5NO2/c8-7(9)6-4-2-1-3-5-6/h1-5H
Compound 3: anisole, C7H8O, InChI=1S/C7H8O/c1-8-7-5-3-2-4-6-7/h2-6H,1H3
Compound 4: ethylbenzene, C8H10, InChI=1S/C8H10/c1-2-8-6-4-3-5-7-8/h3-7H,2H2,1H3
Compound 5: (1,1-dimethylethyl)benzene, C10H14, InChI=1S/C10H14/c1-10(2,3)9-7-5-4-6-8-9/h4-8H,1-3H3

System: 2,4,6-trimethyl-2,4,6-tris(3,3,3-trifluoropropyl)-1,3,5,2,4,6-trioxatrisilinane; phases: Liquid
Fixed: Pressure, kPa = 102
Property: Mass density, kg/m3 (Liquid); method: Vibrating tube method
Temperature, K	Mass density, kg/m3	uncertainty
308.15	1236.63	1.01
313.15	1230.05	1.01
318.15	1223.55	1.01
323.15	1216.99	1.01

System: 2,4,6-trimethyl-2,4,6-tris(3,3,3-trifluoropropyl)-1,3,5,2,4,6-trioxatrisilinane; phases: Liquid
Fixed: Pressure, kPa = 102
Property: Refractive index (Na D-line) (Liquid); method: Standard Abbe refractometry
Temperature, K	Refractive index (Na D-line)	uncertainty
308.15	1.36011	0.00035
313.15	1.35808	0.00035
318.15	1.35609	0.00035
323.15	1.35407	0.00035
318.15	1.35608	0.00035

System: nitrobenzene; phases: Liquid
Fixed: Pressure, kPa = 102
Property: Mass density, kg/m3 (Liquid); method: Vibrating tube method
Temperature, K	Mass density, kg/m3	uncertainty
308.15	1188.17	1.01
313.15	1183.21	1.01
318.15	1178.24	1.01
323.15	1173.26	1.01
298.15	1198.2	1.01
303.15	1193.25	1.01

System: nitrobenzene; phases: Liquid
Fixed: Pressure, kPa = 102
Property: Refractive index (Na D-line) (Liquid); method: Standard Abbe refractometry
Temperature, K	Refractive index (Na D-line)	uncertainty
308.15	1.545	0.00035
313.15	1.5425	0.00035
318.15	1.54005	0.00035
323.15	1.53757	0.00035
298.15	1.54992	0.00035
303.15	1.54746	0.00035

System: anisole; phases: Liquid
Fixed: Pressure, kPa = 102
Property: Mass density, kg/m3 (Liquid); method: Vibrating tube method
Temperature, K	Mass density, kg/m3	uncertainty
308.15	980.04	1
313.15	975.25	1
318.15	970.52	1
323.15	965.73	1
298.15	989.32	1

System: anisole; phases: Liquid
Fixed: Pressure, kPa = 102
Property: Refractive index (Na D-line) (Liquid); method: Standard Abbe refractometry
Temperature, K	Refractive index (Na D-line)	uncertainty
308.15	1.50865	0.00035
313.15	1.50604	0.00035
318.15	1.50341	0.00035
323.15	1.50073	0.00035
298.15	1.5146	0.00035

System: ethylbenzene; phases: Liquid
Fixed: Pressure, kPa = 102
Property: Mass density, kg/m3 (Liquid); method: Vibrating tube method
Temperature, K	Mass density, kg/m3	uncertainty
308.15	853.71	1
313.15	849.29	1
318.15	844.7	1.01
323.15	840.28	1.01
298.15	862.58	1

System: ethylbenzene; phases: Liquid
Fixed: Pressure, kPa = 102
Property: Refractive index (Na D-line) (Liquid); method: Standard Abbe refractometry
Temperature, K	Refractive index (Na D-line)	uncertainty
308.15	1.4876	0.00035
313.15	1.48491	0.00035
318.15	1.48217	0.00035
323.15	1.47944	0.00035
298.15	1.49301	0.00035
303.15	1.4903	0.00035

System: (1,1-dimethylethyl)benzene; phases: Liquid
Fixed: Pressure, kPa = 102
Property: Mass density, kg/m3 (Liquid); method: Vibrating tube method
Temperature, K	Mass density, kg/m3	uncertainty
308.15	854.12	1
313.15	849.98	1
318.15	845.87	1
323.15	841.72	1
298.15	862.28	1

System: (1,1-dimethylethyl)benzene; phases: Liquid
Fixed: Pressure, kPa = 102
Property: Refractive index (Na D-line) (Liquid); method: Standard Abbe refractometry
Temperature, K	Refractive index (Na D-line)	uncertainty
308.15	1.48509	0.00035
313.15	1.48256	0.00035
318.15	1.48007	0.00035
323.15	1.47754	0.00035
298.15	1.49009	0.00035

System: nitrobenzene + 2,4,6-trimethyl-2,4,6-tris(3,3,3-trifluoropropyl)-1,3,5,2,4,6-trioxatrisilinane; phases: Liquid
Fixed: Pressure, kPa = 102
Property: Mass density, kg/m3 (Liquid); method: Vibrating tube method
Temperature, K	Mole fraction of 2,4,6-trimethyl-2,4,6-tris(3,3,3-trifluoropropyl)-1,3,5,2,4,6-trioxatrisilinane	Mass density, kg/m3	uncertainty
308.15	0	1188.17	1.01
308.15	0.05	1199.58	1.01
308.15	0.0999	1207.93	1.01
308.15	0.1499	1214.25	1.01
308.15	0.1919	1218.36	1.01
308.15	0.2499	1222.85	1.01
308.15	0.2999	1225.81	1.01
308.15	0.3501	1228.12	1.01
308.15	0.3999	1229.99	1.01
308.15	0.4499	1231.5	1.01
308.15	0.5008	1232.67	1.01
308.15	0.55	1233.65	1.01
308.15	0.6001	1234.37	1.01
308.15	0.6501	1234.9	1.01
308.15	0.6997	1235.32	1.01
308.15	0.75	1235.76	1.01
308.15	0.8002	1236.01	1.01
308.15	0.8498	1236.19	1.01
308.15	0.9002	1236.26	1.01
308.15	0.9492	1236.47	1.01
308.15	1	1236.63	1.01
313.15	0	1183.21	1.01
313.15	0.05	1194.53	1.01
313.15	0.0999	1202.66	1.01
313.15	0.1499	1208.83	1.01
313.15	0.1919	1212.79	1.01
313.15	0.2499	1217.11	1.01
313.15	0.2999	1220.01	1.01
313.15	0.3501	1222.19	1.01
313.15	0.3999	1224	1.01
313.15	0.4499	1225.36	1.01
313.15	0.5008	1226.56	1.01
313.15	0.55	1227.39	1.01
313.15	0.6001	1228.07	1.01
313.15	0.6501	1228.58	1.01
313.15	0.6997	1229.04	1.01
313.15	0.75	1229.34	1.01
313.15	0.8002	1229.55	1.01
313.15	0.8498	1229.72	1.01
313.15	0.9002	1229.82	1.01
313.15	0.9492	1229.88	1.01
313.15	1	1230.05	1.01
318.15	0	1178.24	1.01
318.15	0.05	1189.25	1.01
318.15	0.0999	1197.26	1.01
318.15	0.1499	1203.23	1.01
318.15	0.1919	1207.17	1.01
318.15	0.2499	1211.37	1.01
318.15	0.2999	1214.12	1.01
318.15	0.3501	1216.28	1.01
318.15	0.3999	1218.01	1.01
318.15	0.4499	1219.29	1.01
318.15	0.5008	1220.4	1.01
318.15	0.55	1221.21	1.01
318.15	0.6001	1221.84	1.01
318.15	0.6501	1222.33	1.01
318.15	0.6997	1222.69	1.01
318.15	0.75	1222.98	1.01
318.15	0.8002	1223.17	1.01
318.15	0.8498	1223.28	1.01
318.15	0.9002	1223.34	1.01
318.15	0.9492	1223.44	1.01
318.15	1	1223.55	1.01
323.15	0	1173.26	1.01
323.15	0.05	1184.09	1.01
323.15	0.0999	1191.9	1.01
323.15	0.1499	1197.73	1.01
323.15	0.1919	1201.58	1.01
323.15	0.2499	1205.62	1.01
323.15	0.2999	1208.26	1.01
323.15	0.3501	1210.32	1.01
323.15	0.3999	1211.97	1.01
323.15	0.4499	1213.19	1.01
323.15	0.5008	1214.21	1.01
323.15	0.55	1215	1.01
323.15	0.6001	1215.54	1.01
323.15	0.6501	1216	1.01
323.15	0.6997	1216.31	1.01
323.15	0.75	1216.56	1.01
323.15	0.8002	1216.72	1.01
323.15	0.8498	1216.78	1.01
323.15	0.9002	1216.83	1.01
323.15	0.9492	1216.88	1.01
323.15	1	1216.99	1.01

System: nitrobenzene + 2,4,6-trimethyl-2,4,6-tris(3,3,3-trifluoropropyl)-1,3,5,2,4,6-trioxatrisilinane; phases: Liquid
Fixed: Pressure, kPa = 102
Property: Refractive index (Na D-line) (Liquid); method: Standard Abbe refractometry
Temperature, K	Mole fraction of 2,4,6-trimethyl-2,4,6-tris(3,3,3-trifluoropropyl)-1,3,5,2,4,6-trioxatrisilinane	Refractive index (Na D-line)	uncertainty
308.15	0	1.545	0.00035
308.15	0.05	1.51601	0.00036
308.15	0.0999	1.49288	0.00036
308.15	0.1499	1.47398	0.00035
308.15	0.1919	1.46058	0.00035
308.15	0.2499	1.44494	0.00035
308.15	0.2999	1.43355	0.00035
308.15	0.3501	1.42369	0.00035
308.15	0.3999	1.41513	0.00035
308.15	0.4499	1.40755	0.00035
308.15	0.5008	1.4007	0.00035
308.15	0.55	1.39478	0.00035
308.15	0.6001	1.38938	0.00035
308.15	0.6501	1.38448	0.00035
308.15	0.6997	1.38006	0.00035
308.15	0.75	1.376	0.00035
308.15	0.8002	1.37227	0.00035
308.15	0.8498	1.36887	0.00035
308.15	0.9002	1.36567	0.00035
308.15	0.9492	1.36284	0.00035
308.15	1	1.36011	0.00035
313.15	0	1.5425	0.00035
313.15	0.05	1.51362	0.00036
313.15	0.0999	1.49054	0.00036
313.15	0.1499	1.47168	0.00035
313.15	0.1919	1.4583	0.00035
313.15	0.2499	1.4427	0.00035
313.15	0.2999	1.43137	0.00035
313.15	0.3501	1.42151	0.00035
313.15	0.3999	1.41296	0.00035
313.15	0.4499	1.4054	0.00035
313.15	0.5008	1.39858	0.00035
313.15	0.55	1.3927	0.00035
313.15	0.6001	1.38728	0.00035
313.15	0.6501	1.38239	0.00035
313.15	0.6997	1.378	0.00035
313.15	0.75	1.37391	0.00035
313.15	0.8002	1.37021	0.00035
313.15	0.8498	1.36681	0.00035
313.15	0.9002	1.36365	0.00035
313.15	0.9492	1.36084	0.00035
313.15	1	1.35808	0.00035
318.15	0	1.54005	0.00035
318.15	0.05	1.51123	0.00036
318.15	0.0999	1.48816	0.00036
318.15	0.1499	1.46935	0.00035
318.15	0.1919	1.45605	0.00035
318.15	0.2499	1.44048	0.00035
318.15	0.2999	1.42916	0.00035
318.15	0.3501	1.41931	0.00035
318.15	0.3999	1.41082	0.00035
318.15	0.4499	1.40325	0.00035
318.15	0.5008	1.39644	0.00035
318.15	0.55	1.39053	0.00035
318.15	0.6001	1.38519	0.00035
318.15	0.6501	1.38032	0.00035
318.15	0.6997	1.37594	0.00035
318.15	0.75	1.37188	0.00035
318.15	0.8002	1.36817	0.00035
318.15	0.8498	1.36478	0.00035
318.15	0.9002	1.36163	0.00035
318.15	0.9492	1.35878	0.00035
318.15	1	1.35609	0.00035
323.15	0	1.53757	0.00035
323.15	0.05	1.50882	0.00036
323.15	0.0999	1.48586	0.00036
323.15	0.1499	1.46705	0.00035
323.15	0.1919	1.45377	0.00035
323.15	0.2499	1.43827	0.00035
323.15	0.2999	1.42695	0.00035
323.15	0.3501	1.41713	0.00035
323.15	0.3999	1.40865	0.00035
323.15	0.4499	1.40109	0.00035
323.15	0.5008	1.39433	0.00035
323.15	0.55	1.38845	0.00035
323.15	0.6001	1.3831	0.00035
323.15	0.6501	1.37824	0.00035
323.15	0.6997	1.37384	0.00035
323.15	0.75	1.36984	0.00035
323.15	0.8002	1.36612	0.00035
323.15	0.8498	1.36274	0.00035
323.15	0.9002	1.35959	0.00035
323.15	0.9492	1.35679	0.00035
323.15	1	1.35407	0.00035

System: anisole + 2,4,6-trimethyl-2,4,6-tris(3,3,3-trifluoropropyl)-1,3,5,2,4,6-trioxatrisilinane; phases: Liquid
Fixed: Pressure, kPa = 102
Property: Mass density, kg/m3 (Liquid); method: Vibrating tube method
Temperature, K	Mole fraction of 2,4,6-trimethyl-2,4,6-tris(3,3,3-trifluoropropyl)-1,3,5,2,4,6-trioxatrisilinane	Mass density, kg/m3	uncertainty
308.15	0	980.04	1
308.15	0.0502	1018.9	1.01
308.15	0.0999	1050.1	1.01
308.15	0.15	1076.1	1.01
308.15	0.1999	1097.79	1.01
308.15	0.2501	1116.38	1.01
308.15	0.2998	1132.25	1.01
308.15	0.3498	1146.05	1.01
308.15	0.4001	1158.32	1.01
308.15	0.4497	1169.15	1.01
308.15	0.4997	1178.65	1.01
308.15	0.5453	1186.4	1.01
308.15	0.6001	1194.94	1.01
308.15	0.6498	1201.9	1.01
308.15	0.6995	1208.15	1.01
308.15	0.7502	1214.01	1.01
308.15	0.8	1219.27	1.01
308.15	0.8491	1223.97	1.01
308.15	0.8997	1228.56	1.01
308.15	0.9497	1232.67	1.01
308.15	1	1236.63	1.01
313.15	0	975.25	1
313.15	0.0502	1013.91	1.01
313.15	0.0999	1044.97	1.01
313.15	0.15	1070.73	1.01
313.15	0.1999	1092.31	1.01
313.15	0.2501	1110.76	1.01
313.15	0.2998	1126.52	1.01
313.15	0.3498	1140.29	1.01
313.15	0.4001	1152.45	1.01
313.15	0.4497	1163.11	1.01
313.15	0.4997	1172.56	1.01
313.15	0.5453	1180.31	1.01
313.15	0.6001	1188.71	1.01
313.15	0.6498	1195.72	1.01
313.15	0.6995	1201.84	1.01
313.15	0.7502	1207.72	1.01
313.15	0.8	1212.9	1.01
313.15	0.8491	1217.59	1.01
313.15	0.8997	1222.13	1.01
313.15	0.9497	1226.23	1.01
313.15	1	1230.05	1.01
318.15	0	970.52	1
318.15	0.0502	1008.94	1.01
318.15	0.0999	1039.74	1.01
318.15	0.15	1065.35	1.01
318.15	0.1999	1086.77	1.01
318.15	0.2501	1105.11	1.01
318.15	0.2998	1120.84	1.01
318.15	0.3498	1134.47	1.01
318.15	0.4001	1146.5	1.01
318.15	0.4497	1156.93	1.01
318.15	0.4997	1166.57	1.01
318.15	0.5453	1174.14	1.01
318.15	0.6001	1182.53	1.01
318.15	0.6498	1189.43	1.01
318.15	0.6995	1195.66	1.01
318.15	0.7502	1201.45	1.01
318.15	0.8	1206.52	1.01
318.15	0.8491	1211.19	1.01
318.15	0.8997	1215.62	1.01
318.15	0.9497	1219.73	1.01
318.15	1	1223.55	1.01
323.15	0	965.73	1
323.15	0.0502	1003.9	1.01
323.15	0.0999	1034.53	1.01
323.15	0.15	1059.95	1.01
323.15	0.1999	1081.24	1.01
323.15	0.2501	1099.47	1.01
323.15	0.2998	1115.01	1.01
323.15	0.3498	1128.62	1.01
323.15	0.4001	1140.45	1.01
323.15	0.4497	1151	1.01
323.15	0.4997	1160.21	1.01
323.15	0.5453	1168.04	1.01
323.15	0.6001	1176.37	1.01
323.15	0.6498	1183.1	1.01
323.15	0.6995	1189.14	1.01
323.15	0.7502	1194.99	1.01
323.15	0.8	1200.09	1.01
323.15	0.8491	1204.79	1.01
323.15	0.8997	1209.23	1.01
323.15	0.9497	1213.21	1.01
323.15	1	1216.99	1.01

System: anisole + 2,4,6-trimethyl-2,4,6-tris(3,3,3-trifluoropropyl)-1,3,5,2,4,6-trioxatrisilinane; phases: Liquid
Fixed: Pressure, kPa = 102
Property: Refractive index (Na D-line) (Liquid); method: Standard Abbe refractometry
Temperature, K	Mole fraction of 2,4,6-trimethyl-2,4,6-tris(3,3,3-trifluoropropyl)-1,3,5,2,4,6-trioxatrisilinane	Refractive index (Na D-line)	uncertainty
308.15	0	1.50865	0.00035
308.15	0.0502	1.48464	0.00036
308.15	0.0999	1.4658	0.00035
308.15	0.15	1.45042	0.00035
308.15	0.1999	1.43774	0.00035
308.15	0.2501	1.42699	0.00035
308.15	0.2998	1.41796	0.00035
308.15	0.3498	1.41011	0.00035
308.15	0.4001	1.40327	0.00035
308.15	0.4497	1.39729	0.00035
308.15	0.4997	1.39198	0.00035
308.15	0.5453	1.38765	0.00035
308.15	0.6001	1.38297	0.00035
308.15	0.6498	1.37914	0.00035
308.15	0.6995	1.3757	0.00035
308.15	0.7502	1.3725	0.00035
308.15	0.8	1.3696	0.00035
308.15	0.8491	1.36697	0.00035
308.15	0.8997	1.3645	0.00035
308.15	0.9497	1.36221	0.00035
308.15	1	1.36011	0.00035
313.15	0	1.50604	0.00035
313.15	0.0502	1.48208	0.00036
313.15	0.0999	1.4633	0.00035
313.15	0.15	1.44796	0.00035
313.15	0.1999	1.43532	0.00035
313.15	0.2501	1.42468	0.00035
313.15	0.2998	1.41563	0.00035
313.15	0.3498	1.40783	0.00035
313.15	0.4001	1.401	0.00035
313.15	0.4497	1.39509	0.00035
313.15	0.4997	1.3898	0.00035
313.15	0.5453	1.38551	0.00035
313.15	0.6001	1.38081	0.00035
313.15	0.6498	1.37703	0.00035
313.15	0.6995	1.37358	0.00035
313.15	0.7502	1.37039	0.00035
313.15	0.8	1.36751	0.00035
313.15	0.8491	1.36492	0.00035
313.15	0.8997	1.36245	0.00035
313.15	0.9497	1.36019	0.00035
313.15	1	1.35808	0.00035
318.15	0	1.50341	0.00035
318.15	0.0502	1.47955	0.00036
318.15	0.0999	1.46089	0.00035
318.15	0.15	1.44565	0.00035
318.15	0.1999	1.43308	0.00035
318.15	0.2501	1.42242	0.00035
318.15	0.2998	1.41345	0.00035
318.15	0.3498	1.40566	0.00035
318.15	0.4001	1.39886	0.00035
318.15	0.4497	1.39295	0.00035
318.15	0.4997	1.38766	0.00035
318.15	0.5453	1.38335	0.00035
318.15	0.6001	1.37871	0.00035
318.15	0.6498	1.37495	0.00035
318.15	0.6995	1.37151	0.00035
318.15	0.7502	1.36832	0.00035
318.15	0.8	1.36547	0.00035
318.15	0.8491	1.36288	0.00035
318.15	0.8997	1.36042	0.00035
318.15	0.9497	1.35818	0.00035
318.15	1	1.35609	0.00035
323.15	0	1.50073	0.00035
323.15	0.0502	1.47695	0.00036
323.15	0.0999	1.45834	0.00035
323.15	0.15	1.44317	0.00035
323.15	0.1999	1.43068	0.00035
323.15	0.2501	1.42006	0.00035
323.15	0.2998	1.41113	0.00035
323.15	0.3498	1.40338	0.00035
323.15	0.4001	1.39659	0.00035
323.15	0.4497	1.39069	0.00035
323.15	0.4997	1.38549	0.00035
323.15	0.5453	1.3812	0.00035
323.15	0.6001	1.37655	0.00035
323.15	0.6498	1.37279	0.00035
323.15	0.6995	1.36941	0.00035
323.15	0.7502	1.36625	0.00035
323.15	0.8	1.36338	0.00035
323.15	0.8491	1.36086	0.00035
323.15	0.8997	1.35837	0.00035
323.15	0.9497	1.35616	0.00035
323.15	1	1.35407	0.00035

System: ethylbenzene + 2,4,6-trimethyl-2,4,6-tris(3,3,3-trifluoropropyl)-1,3,5,2,4,6-trioxatrisilinane; phases: Liquid
Fixed: Pressure, kPa = 102
Property: Mass density, kg/m3 (Liquid); method: Vibrating tube method
Temperature, K	Mole fraction of 2,4,6-trimethyl-2,4,6-tris(3,3,3-trifluoropropyl)-1,3,5,2,4,6-trioxatrisilinane	Mass density, kg/m3	uncertainty
308.15	0	853.71	1
308.15	0.05	905.01	1.02
308.15	0.1	947.97	1.01
308.15	0.15	984.47	1.01
308.15	0.1967	1013.95	1.01
308.15	0.25	1043.11	1.01
308.15	0.2998	1066.87	1.01
308.15	0.35	1088.17	1.01
308.15	0.377	1098.7	1.01
308.15	0.4437	1121.97	1.01
308.15	0.5001	1139.32	1.01
308.15	0.5492	1152.93	1.01
308.15	0.5994	1165.69	1.01
308.15	0.6499	1177.11	1.01
308.15	0.6997	1187.73	1.01
308.15	0.7502	1197.39	1.01
308.15	0.7999	1206.57	1.01
308.15	0.8498	1214.84	1.01
308.15	0.9002	1222.62	1.01
308.15	0.9498	1229.79	1.01
308.15	1	1236.63	1.01
313.15	0	849.29	1
313.15	0.05	900.4	1.02
313.15	0.1	943.16	1.02
313.15	0.15	979.55	1.01
313.15	0.1967	1008.92	1.01
313.15	0.25	1037.94	1.01
313.15	0.2998	1061.66	1.01
313.15	0.35	1082.82	1.01
313.15	0.377	1093.23	1.01
313.15	0.4437	1116.36	1.01
313.15	0.5001	1133.58	1.01
313.15	0.5492	1147.02	1.01
313.15	0.5994	1159.63	1.01
313.15	0.6499	1171.2	1.01
313.15	0.6997	1181.59	1.01
313.15	0.7502	1191.42	1.01
313.15	0.7999	1200.31	1.01
313.15	0.8498	1208.54	1.01
313.15	0.9002	1216.17	1.01
313.15	0.9498	1223.31	1.01
313.15	1	1230.05	1.01
318.15	0	844.7	1.01
318.15	0.05	895.69	1.02
318.15	0.1	938.39	1.02
318.15	0.15	974.46	1.01
318.15	0.1967	1003.57	1.01
318.15	0.25	1032.55	1.01
318.15	0.2998	1056.21	1.01
318.15	0.35	1077.22	1.01
318.15	0.377	1087.75	1.01
318.15	0.4437	1110.93	1.01
318.15	0.5001	1127.97	1.01
318.15	0.5492	1141.17	1.01
318.15	0.5994	1153.7	1.01
318.15	0.6499	1165.14	1.01
318.15	0.6997	1175.49	1.01
318.15	0.7502	1185.03	1.01
318.15	0.7999	1193.75	1.01
318.15	0.8498	1202.09	1.01
318.15	0.9002	1209.67	1.01
318.15	0.9498	1216.79	1.01
318.15	1	1223.55	1.01
323.15	0	840.28	1.01
323.15	0.05	890.85	1.02
323.15	0.1	933.5	1.02
323.15	0.15	969.52	1.01
323.15	0.1967	998.43	1.01
323.15	0.25	1027.19	1.01
323.15	0.2998	1050.74	1.01
323.15	0.35	1071.74	1.01
323.15	0.377	1082.06	1.01
323.15	0.4437	1104.98	1.01
323.15	0.5001	1121.88	1.01
323.15	0.5492	1135.21	1.01
323.15	0.5994	1147.6	1.01
323.15	0.6499	1158.94	1.01
323.15	0.6997	1169.24	1.01
323.15	0.7502	1178.51	1.01
323.15	0.7999	1187.44	1.01
323.15	0.8498	1195.57	1.01
323.15	0.9002	1203.21	1.01
323.15	0.9498	1210.24	1.01
323.15	1	1216.99	1.01

System: ethylbenzene + 2,4,6-trimethyl-2,4,6-tris(3,3,3-trifluoropropyl)-1,3,5,2,4,6-trioxatrisilinane; phases: Liquid
Fixed: Pressure, kPa = 102
Property: Refractive index (Na D-line) (Liquid); method: Standard Abbe refractometry
Temperature, K	Mole fraction of 2,4,6-trimethyl-2,4,6-tris(3,3,3-trifluoropropyl)-1,3,5,2,4,6-trioxatrisilinane	Refractive index (Na D-line)	uncertainty
308.15	0	1.4876	0.00035
308.15	0.05	1.46829	0.00035
308.15	0.1	1.4527	0.00035
308.15	0.15	1.43984	0.00035
308.15	0.1967	1.42972	0.00035
308.15	0.25	1.41987	0.00035
308.15	0.2998	1.41202	0.00035
308.15	0.35	1.40515	0.00035
308.15	0.377	1.40179	0.00035
308.15	0.4437	1.39447	0.00035
308.15	0.5001	1.38911	0.00035
308.15	0.5492	1.38496	0.00035
308.15	0.5994	1.3811	0.00035
308.15	0.6499	1.3776	0.00035
308.15	0.6997	1.37445	0.00035
308.15	0.7502	1.37152	0.00035
308.15	0.7999	1.36888	0.00035
308.15	0.8498	1.36642	0.00035
308.15	0.9002	1.36413	0.00035
308.15	0.9498	1.36206	0.00035
308.15	1	1.36011	0.00035
313.15	0	1.48491	0.00035
313.15	0.05	1.46563	0.00035
313.15	0.1	1.45013	0.00035
313.15	0.15	1.43731	0.00035
313.15	0.1967	1.42722	0.00035
313.15	0.25	1.41742	0.00035
313.15	0.2998	1.40962	0.00035
313.15	0.35	1.40278	0.00035
313.15	0.377	1.39946	0.00035
313.15	0.4437	1.39219	0.00035
313.15	0.5001	1.38686	0.00035
313.15	0.5492	1.38275	0.00035
313.15	0.5994	1.37891	0.00035
313.15	0.6499	1.37545	0.00035
313.15	0.6997	1.37234	0.00035
313.15	0.7502	1.36941	0.00035
313.15	0.7999	1.36677	0.00035
313.15	0.8498	1.36437	0.00035
313.15	0.9002	1.3621	0.00035
313.15	0.9498	1.36004	0.00035
313.15	1	1.35808	0.00035
318.15	0	1.48217	0.00035
318.15	0.05	1.46295	0.00035
318.15	0.1	1.44755	0.00035
318.15	0.15	1.43479	0.00035
318.15	0.1967	1.42478	0.00035
318.15	0.25	1.41503	0.00035
318.15	0.2998	1.40725	0.00035
318.15	0.35	1.40047	0.00035
318.15	0.377	1.39713	0.00035
318.15	0.4437	1.38991	0.00035
318.15	0.5001	1.38464	0.00035
318.15	0.5492	1.38053	0.00035
318.15	0.5994	1.37672	0.00035
318.15	0.6499	1.37326	0.00035
318.15	0.6997	1.37017	0.00035
318.15	0.7502	1.36729	0.00035
318.15	0.7999	1.36471	0.00035
318.15	0.8498	1.36228	0.00035
318.15	0.9002	1.36007	0.00035
318.15	0.9498	1.35799	0.00035
318.15	1	1.35608	0.00035
323.15	0	1.47944	0.00035
323.15	0.05	1.46034	0.00035
323.15	0.1	1.445	0.00035
323.15	0.15	1.43233	0.00035
323.15	0.1967	1.42233	0.00035
323.15	0.25	1.41266	0.00035
323.15	0.2998	1.40493	0.00035
323.15	0.35	1.39817	0.00035
323.15	0.377	1.39485	0.00035
323.15	0.4437	1.38768	0.00035
323.15	0.5001	1.38243	0.00035
323.15	0.5492	1.37836	0.00035
323.15	0.5994	1.37458	0.00035
323.15	0.6499	1.37112	0.00035
323.15	0.6997	1.36807	0.00035
323.15	0.7502	1.36521	0.00035
323.15	0.7999	1.36262	0.00035
323.15	0.8498	1.36025	0.00035
323.15	0.9002	1.35801	0.00035
323.15	0.9498	1.356	0.00035
323.15	1	1.35407	0.00035

System: (1,1-dimethylethyl)benzene + 2,4,6-trimethyl-2,4,6-tris(3,3,3-trifluoropropyl)-1,3,5,2,4,6-trioxatrisilinane; phases: Liquid
Fixed: Pressure, kPa = 102
Property: Mass density, kg/m3 (Liquid); method: Vibrating tube method
Temperature, K	Mole fraction of 2,4,6-trimethyl-2,4,6-tris(3,3,3-trifluoropropyl)-1,3,5,2,4,6-trioxatrisilinane	Mass density, kg/m3	uncertainty
308.15	0	854.12	1
308.15	0.0476	894.32	1.02
308.15	0.1	933.32	1.01
308.15	0.15	966.19	1.01
308.15	0.2	995.76	1.01
308.15	0.25	1022.23	1.01
308.15	0.2999	1046.09	1.01
308.15	0.3499	1067.85	1.01
308.15	0.3999	1087.64	1.01
308.15	0.45	1105.84	1.01
308.15	0.5	1122.55	1.01
308.15	0.5498	1137.88	1.01
308.15	0.6	1152.22	1.01
308.15	0.6499	1165.5	1.01
308.15	0.7001	1177.76	1.01
308.15	0.75	1189.19	1.01
308.15	0.7995	1199.87	1.01
308.15	0.8499	1209.99	1.01
308.15	0.8954	1218.66	1.01
308.15	0.9485	1228.1	1.01
308.15	1	1236.63	1.01
313.15	0	849.98	1
313.15	0.0476	889.93	1.02
313.15	0.1	928.72	1.01
313.15	0.15	961.47	1.01
313.15	0.2	990.72	1.01
313.15	0.25	1017.01	1.01
313.15	0.2999	1040.82	1.01
313.15	0.3499	1062.39	1.01
313.15	0.3999	1082.11	1.01
313.15	0.45	1100.2	1.01
313.15	0.5	1116.79	1.01
313.15	0.5498	1132.05	1.01
313.15	0.6	1146.28	1.01
313.15	0.6499	1159.37	1.01
313.15	0.7001	1171.65	1.01
313.15	0.75	1183.03	1.01
313.15	0.7995	1193.61	1.01
313.15	0.8499	1203.62	1.01
313.15	0.8954	1212.17	1.01
313.15	0.9485	1221.55	1.01
313.15	1	1230.05	1.01
318.15	0	845.87	1
318.15	0.0476	885.61	1.02
318.15	0.1	924.21	1.01
318.15	0.15	956.76	1.01
318.15	0.2	985.86	1.01
318.15	0.25	1012	1.01
318.15	0.2999	1035.68	1.01
318.15	0.3499	1057.13	1.01
318.15	0.3999	1076.69	1.01
318.15	0.45	1094.66	1.01
318.15	0.5	1111.16	1.01
318.15	0.5498	1126.36	1.01
318.15	0.6	1140.41	1.01
318.15	0.6499	1153.46	1.01
318.15	0.7001	1165.58	1.01
318.15	0.75	1176.83	1.01
318.15	0.7995	1187.3	1.01
318.15	0.8499	1197.27	1.01
318.15	0.8954	1205.76	1.01
318.15	0.9485	1215.06	1.01
318.15	1	1223.55	1.01
323.15	0	841.72	1
323.15	0.0476	881.21	1.02
323.15	0.1	919.56	1.01
323.15	0.15	951.94	1.01
323.15	0.2	980.83	1.01
323.15	0.25	1006.81	1.01
323.15	0.2999	1030.38	1.01
323.15	0.3499	1051.7	1.01
323.15	0.3999	1071.16	1.01
323.15	0.45	1089.02	1.01
323.15	0.5	1105.4	1.01
323.15	0.5498	1120.47	1.01
323.15	0.6	1134.47	1.01
323.15	0.6499	1147.45	1.01
323.15	0.7001	1159.5	1.01
323.15	0.75	1170.74	1.01
323.15	0.7995	1181.13	1.01
323.15	0.8499	1190.93	1.01
323.15	0.8954	1199.34	1.01
323.15	0.9485	1208.56	1.01
323.15	1	1216.99	1.01

System: (1,1-dimethylethyl)benzene + 2,4,6-trimethyl-2,4,6-tris(3,3,3-trifluoropropyl)-1,3,5,2,4,6-trioxatrisilinane; phases: Liquid
Fixed: Pressure, kPa = 102
Property: Refractive index (Na D-line) (Liquid); method: Standard Abbe refractometry
Temperature, K	Mole fraction of 2,4,6-trimethyl-2,4,6-tris(3,3,3-trifluoropropyl)-1,3,5,2,4,6-trioxatrisilinane	Refractive index (Na D-line)	uncertainty
308.15	0	1.48509	0.00035
308.15	0.0476	1.47051	0.00035
308.15	0.1	1.45684	0.00035
308.15	0.15	1.44555	0.00035
308.15	0.2	1.4356	0.00035
308.15	0.25	1.42681	0.00035
308.15	0.2999	1.41901	0.00035
308.15	0.3499	1.41199	0.00035
308.15	0.3999	1.40568	0.00035
308.15	0.45	1.39992	0.00035
308.15	0.5	1.39466	0.00035
308.15	0.5498	1.38992	0.00035
308.15	0.6	1.38555	0.00035
308.15	0.6499	1.38151	0.00035
308.15	0.7001	1.37773	0.00035
308.15	0.75	1.37427	0.00035
308.15	0.7995	1.37106	0.00035
308.15	0.8499	1.36804	0.00035
308.15	0.8954	1.36548	0.00035
308.15	0.9485	1.36268	0.00035
308.15	1	1.36011	0.00035
313.15	0	1.48256	0.00035
313.15	0.0476	1.46805	0.00035
313.15	0.1	1.45441	0.00035
313.15	0.15	1.44313	0.00035
313.15	0.2	1.43327	0.00035
313.15	0.25	1.4245	0.00035
313.15	0.2999	1.41671	0.00035
313.15	0.3499	1.40972	0.00035
313.15	0.3999	1.40344	0.00035
313.15	0.45	1.3977	0.00035
313.15	0.5	1.39251	0.00035
313.15	0.5498	1.38774	0.00035
313.15	0.6	1.38337	0.00035
313.15	0.6499	1.37934	0.00035
313.15	0.7001	1.37562	0.00035
313.15	0.75	1.3722	0.00035
313.15	0.7995	1.36902	0.00035
313.15	0.8499	1.36599	0.00035
313.15	0.8954	1.36342	0.00035
313.15	0.9485	1.36065	0.00035
313.15	1	1.35808	0.00035
318.15	0	1.48007	0.00035
318.15	0.0476	1.4656	0.00035
318.15	0.1	1.452	0.00035
318.15	0.15	1.44079	0.00035
318.15	0.2	1.43091	0.00035
318.15	0.25	1.42218	0.00035
318.15	0.2999	1.41444	0.00035
318.15	0.3499	1.40747	0.00035
318.15	0.3999	1.4012	0.00035
318.15	0.45	1.39552	0.00035
318.15	0.5	1.39033	0.00035
318.15	0.5498	1.38566	0.00035
318.15	0.6	1.38127	0.00035
318.15	0.6499	1.37726	0.00035
318.15	0.7001	1.37352	0.00035
318.15	0.75	1.3701	0.00035
318.15	0.7995	1.36693	0.00035
318.15	0.8499	1.36394	0.00035
318.15	0.8954	1.36142	0.00035
318.15	0.9485	1.35863	0.00035
318.15	1	1.35609	0.00035
323.15	0	1.47754	0.00035
323.15	0.0476	1.46312	0.00035
323.15	0.1	1.4496	0.00035
323.15	0.15	1.4384	0.00035
323.15	0.2	1.42856	0.00035
323.15	0.25	1.41985	0.00035
323.15	0.2999	1.41212	0.00035
323.15	0.3499	1.40521	0.00035
323.15	0.3999	1.39899	0.00035
323.15	0.45	1.3933	0.00035
323.15	0.5	1.38813	0.00035
323.15	0.5498	1.3834	0.00035
323.15	0.6	1.37906	0.00035
323.15	0.6499	1.37512	0.00035
323.15	0.7001	1.37141	0.00035
323.15	0.75	1.36801	0.00035
323.15	0.7995	1.36485	0.00035
323.15	0.8499	1.36193	0.00035
323.15	0.8954	1.35939	0.00035
323.15	0.9485	1.35667	0.00035
323.15	1	1.35407	0.00035
