Measured thermophysical data. P.rho.T measurements and modelling of (n-decane + m-xylene) mixtures from 293.15 K to 363.15 K at pressures up to 60 MPa
Source: J. Chem. Thermodyn., 2019, 10.1016/j.jct.2019.03.025
Compound 1: decane, C10H22, InChI=1S/C10H22/c1-3-5-7-9-10-8-6-4-2/h3-10H2,1-2H3, purity 99%
Compound 2: 1,3-dimethylbenzene, C8H10, InChI=1S/C8H10/c1-7-4-3-5-8(2)6-7/h3-6H,1-2H3, purity 99%

System: 1,3-dimethylbenzene; phases: Liquid
Property: Mass density, kg/m3 (Liquid); method: Vibrating tube method
Pressure, kPa	Temperature, K	Mass density, kg/m3	uncertainty
100	293.15	864.2	0.9
1000	293.15	864.4	0.9
3000	293.15	865.8	0.9
5000	293.15	866.9	0.9
10000	293.15	870.5	0.9
15000	293.15	873.8	0.9
20000	293.15	877	0.9
25000	293.15	880.2	0.9
30000	293.15	883.2	0.9
35000	293.15	886	1
40000	293.15	888.7	1
50000	293.15	894.4	1
60000	293.15	899.1	1
100	303.15	855	0.9
1000	303.15	855.4	0.9
3000	303.15	857.5	0.9
5000	303.15	858.8	0.9
10000	303.15	862.3	0.9
15000	303.15	865.8	0.9
20000	303.15	869	0.9
25000	303.15	872.2	0.9
30000	303.15	875.3	0.9
35000	303.15	878.2	1
40000	303.15	881	1
50000	303.15	886.7	1
60000	303.15	892	1
100	313.15	846.7	0.9
1000	313.15	846.9	0.9
3000	313.15	848.6	0.9
5000	313.15	850.1	0.9
10000	313.15	854	0.9
15000	313.15	857.6	0.9
20000	313.15	861.1	0.9
25000	313.15	864.5	0.9
30000	313.15	867.7	0.9
35000	313.15	870.9	0.9
40000	313.15	873.8	1
50000	313.15	879.8	1
60000	313.15	885.1	1
100	323.15	837.7	0.9
1000	323.15	838.6	0.9
3000	323.15	840.2	0.9
5000	323.15	841.9	0.9
10000	323.15	845.9	0.9
15000	323.15	849.8	0.9
20000	323.15	853.6	0.9
25000	323.15	857	0.9
30000	323.15	860.4	0.9
35000	323.15	863.7	0.9
40000	323.15	866.9	1
50000	323.15	873	1
60000	323.15	878.8	1
100	333.15	829	0.9
1000	333.15	829.8	0.9
3000	333.15	831.7	0.9
5000	333.15	833.4	0.9
10000	333.15	837.6	0.9
15000	333.15	841.6	0.9
20000	333.15	845.6	0.9
25000	333.15	849.3	0.9
30000	333.15	852.8	0.9
35000	333.15	856.2	0.9
40000	333.15	859.7	1
50000	333.15	866	1
60000	333.15	871.9	1
100	343.15	820	0.9
1000	343.15	821.1	0.9
3000	343.15	823	0.9
5000	343.15	825	0.9
10000	343.15	829.4	0.9
15000	343.15	833.6	0.9
20000	343.15	837.9	0.9
25000	343.15	841.7	0.9
30000	343.15	845.5	0.9
35000	343.15	849.2	0.9
40000	343.15	852.5	1
50000	343.15	859.1	1
60000	343.15	865	1
100	353.15	811.3	0.8
1000	353.15	812.2	0.8
3000	353.15	814.3	0.9
5000	353.15	816.2	0.9
10000	353.15	821	0.9
15000	353.15	825.7	0.9
20000	353.15	829.8	0.9
25000	353.15	834	0.9
30000	353.15	838	0.9
35000	353.15	841.7	0.9
40000	353.15	845.3	1
50000	353.15	852.1	1
60000	353.15	858.5	1
100	363.15	802.2	0.8
1000	363.15	803.3	0.8
3000	363.15	805.5	0.8
5000	363.15	807.6	0.8
10000	363.15	812.4	0.9
15000	363.15	817.6	0.9
20000	363.15	821.8	0.9
25000	363.15	826	0.9
30000	363.15	830.2	0.9
35000	363.15	834.2	0.9
40000	363.15	838.1	0.9
50000	363.15	845.2	1
60000	363.15	852	1

System: decane + 1,3-dimethylbenzene; phases: Liquid
Property: Mass density, kg/m3 (Liquid); method: Vibrating tube method
Mole fraction of decane	Pressure, kPa	Temperature, K	Mass density, kg/m3	uncertainty
0	100	293.15	864.2	0.9
0	1000	293.15	864.4	0.9
0	3000	293.15	865.8	0.9
0	5000	293.15	866.9	0.9
0	10000	293.15	870.5	0.9
0	15000	293.15	873.8	0.9
0	20000	293.15	877	0.9
0	25000	293.15	880.2	0.9
0	30000	293.15	883.2	0.9
0	35000	293.15	886	1
0	40000	293.15	888.7	1
0	50000	293.15	894.4	1
0	60000	293.15	899.1	1
0	100	303.15	855	0.9
0	1000	303.15	855.4	0.9
0	3000	303.15	857.5	0.9
0	5000	303.15	858.8	0.9
0	10000	303.15	862.3	0.9
0	15000	303.15	865.8	0.9
0	20000	303.15	869	0.9
0	25000	303.15	872.2	0.9
0	30000	303.15	875.3	0.9
0	35000	303.15	878.2	1
0	40000	303.15	881	1
0	50000	303.15	886.7	1
0	60000	303.15	892	1
0	100	313.15	846.7	0.9
0	1000	313.15	846.9	0.9
0	3000	313.15	848.6	0.9
0	5000	313.15	850.1	0.9
0	10000	313.15	854	0.9
0	15000	313.15	857.6	0.9
0	20000	313.15	861.1	0.9
0	25000	313.15	864.5	0.9
0	30000	313.15	867.7	0.9
0	35000	313.15	870.9	0.9
0	40000	313.15	873.8	1
0	50000	313.15	879.8	1
0	60000	313.15	885.1	1
0	100	323.15	837.7	0.9
0	1000	323.15	838.6	0.9
0	3000	323.15	840.2	0.9
0	5000	323.15	841.9	0.9
0	10000	323.15	845.9	0.9
0	15000	323.15	849.8	0.9
0	20000	323.15	853.6	0.9
0	25000	323.15	857	0.9
0	30000	323.15	860.4	0.9
0	35000	323.15	863.7	0.9
0	40000	323.15	866.9	1
0	50000	323.15	873	1
0	60000	323.15	878.8	1
0	100	333.15	829	0.9
0	1000	333.15	829.8	0.9
0	3000	333.15	831.7	0.9
0	5000	333.15	833.4	0.9
0	10000	333.15	837.6	0.9
0	15000	333.15	841.6	0.9
0	20000	333.15	845.6	0.9
0	25000	333.15	849.3	0.9
0	30000	333.15	852.8	0.9
0	35000	333.15	856.2	0.9
0	40000	333.15	859.7	1
0	50000	333.15	866	1
0	60000	333.15	871.9	1
0	100	343.15	820	0.9
0	1000	343.15	821.1	0.9
0	3000	343.15	823	0.9
0	5000	343.15	825	0.9
0	10000	343.15	829.4	0.9
0	15000	343.15	833.6	0.9
0	20000	343.15	837.9	0.9
0	25000	343.15	841.7	0.9
0	30000	343.15	845.5	0.9
0	35000	343.15	849.2	0.9
0	40000	343.15	852.5	1
0	50000	343.15	859.1	1
0	60000	343.15	865	1
0	100	353.15	811.3	0.8
0	1000	353.15	812.2	0.8
0	3000	353.15	814.3	0.9
0	5000	353.15	816.2	0.9
0	10000	353.15	821	0.9
0	15000	353.15	825.7	0.9
0	20000	353.15	829.8	0.9
0	25000	353.15	834	0.9
0	30000	353.15	838	0.9
0	35000	353.15	841.7	0.9
0	40000	353.15	845.3	1
0	50000	353.15	852.1	1
0	60000	353.15	858.5	1
0	100	363.15	802.2	0.8
0	1000	363.15	803.3	0.8
0	3000	363.15	805.5	0.8
0	5000	363.15	807.6	0.8
0	10000	363.15	812.4	0.9
0	15000	363.15	817.6	0.9
0	20000	363.15	821.8	0.9
0	25000	363.15	826	0.9
0	30000	363.15	830.2	0.9
0	35000	363.15	834.2	0.9
0	40000	363.15	838.1	0.9
0	50000	363.15	845.2	1
0	60000	363.15	852	1
0.2005	100	293.15	825.1	0.9
0.2005	1000	293.15	825.4	0.9
0.2005	3000	293.15	826.8	0.9
0.2005	5000	293.15	828	0.9
0.2005	10000	293.15	831.7	0.9
0.2005	15000	293.15	835.1	0.9
0.2005	20000	293.15	838.3	0.9
0.2005	25000	293.15	841.5	0.9
0.2005	30000	293.15	844.5	0.9
0.2005	35000	293.15	847.3	0.9
0.2005	40000	293.15	850.1	1
0.2005	50000	293.15	855.8	1
0.2005	60000	293.15	860.6	1
0.2005	100	303.15	816	0.8
0.2005	1000	303.15	816.7	0.8
0.2005	3000	303.15	818.7	0.9
0.2005	5000	303.15	820.1	0.9
0.2005	10000	303.15	823.8	0.9
0.2005	15000	303.15	827.3	0.9
0.2005	20000	303.15	830.6	0.9
0.2005	25000	303.15	833.8	0.9
0.2005	30000	303.15	837	0.9
0.2005	35000	303.15	840.1	0.9
0.2005	40000	303.15	842.9	1
0.2005	50000	303.15	848.6	1
0.2005	60000	303.15	853.9	1
0.2005	100	313.15	808.1	0.8
0.2005	1000	313.15	808.4	0.8
0.2005	3000	313.15	810.1	0.8
0.2005	5000	313.15	811.7	0.9
0.2005	10000	313.15	815.7	0.9
0.2005	15000	313.15	819.4	0.9
0.2005	20000	313.15	822.9	0.9
0.2005	25000	313.15	826.4	0.9
0.2005	30000	313.15	829.7	0.9
0.2005	35000	313.15	833	0.9
0.2005	40000	313.15	835.9	0.9
0.2005	50000	313.15	841.9	1
0.2005	60000	313.15	847.2	1
0.2005	100	323.15	799.4	0.8
0.2005	1000	323.15	800.3	0.8
0.2005	3000	323.15	802	0.8
0.2005	5000	323.15	803.8	0.8
0.2005	10000	323.15	808	0.9
0.2005	15000	323.15	811.9	0.9
0.2005	20000	323.15	815.8	0.9
0.2005	25000	323.15	819.2	0.9
0.2005	30000	323.15	822.7	0.9
0.2005	35000	323.15	826	0.9
0.2005	40000	323.15	829.2	0.9
0.2005	50000	323.15	835.3	1
0.2005	60000	323.15	841.2	1
0.2005	100	333.15	791.1	0.8
0.2005	1000	333.15	791.9	0.8
0.2005	3000	333.15	793.8	0.8
0.2005	5000	333.15	795.6	0.8
0.2005	10000	333.15	799.9	0.9
0.2005	15000	333.15	804.1	0.9
0.2005	20000	333.15	808.1	0.9
0.2005	25000	333.15	811.9	0.9
0.2005	30000	333.15	815.4	0.9
0.2005	35000	333.15	818.9	0.9
0.2005	40000	333.15	822.4	0.9
0.2005	50000	333.15	828.7	1
0.2005	60000	333.15	834.6	1
0.2005	100	343.15	782.3	0.8
0.2005	1000	343.15	783.5	0.8
0.2005	3000	343.15	785.4	0.8
0.2005	5000	343.15	787.5	0.8
0.2005	10000	343.15	792	0.8
0.2005	15000	343.15	796.4	0.9
0.2005	20000	343.15	800.7	0.9
0.2005	25000	343.15	804.6	0.9
0.2005	30000	343.15	808.4	0.9
0.2005	35000	343.15	812.1	0.9
0.2005	40000	343.15	815.5	0.9
0.2005	50000	343.15	822.1	1
0.2005	60000	343.15	828.1	1
0.2005	100	353.15	773.9	0.8
0.2005	1000	353.15	774.8	0.8
0.2005	3000	353.15	777.1	0.8
0.2005	5000	353.15	779.1	0.8
0.2005	10000	353.15	784	0.8
0.2005	15000	353.15	788.7	0.9
0.2005	20000	353.15	793	0.9
0.2005	25000	353.15	797.2	0.9
0.2005	30000	353.15	801.2	0.9
0.2005	35000	353.15	805	0.9
0.2005	40000	353.15	808.6	0.9
0.2005	50000	353.15	815.4	1
0.2005	60000	353.15	821.8	1
0.2005	100	363.15	765.1	0.8
0.2005	1000	363.15	766.2	0.8
0.2005	3000	363.15	768.6	0.8
0.2005	5000	363.15	770.8	0.8
0.2005	10000	363.15	775.7	0.8
0.2005	15000	363.15	781	0.9
0.2005	20000	363.15	785.3	0.9
0.2005	25000	363.15	789.5	0.9
0.2005	30000	363.15	793.8	0.9
0.2005	35000	363.15	797.8	0.9
0.2005	40000	363.15	801.7	0.9
0.2005	50000	363.15	808.8	1
0.2005	60000	363.15	815.6	1
0.3999	100	293.15	793.6	0.8
0.3999	1000	293.15	794.1	0.8
0.3999	3000	293.15	795.4	0.8
0.3999	5000	293.15	796.6	0.8
0.3999	10000	293.15	800.4	0.9
0.3999	15000	293.15	803.7	0.9
0.3999	20000	293.15	807	0.9
0.3999	25000	293.15	810.2	0.9
0.3999	30000	293.15	813.3	0.9
0.3999	35000	293.15	816.1	0.9
0.3999	40000	293.15	818.8	0.9
0.3999	50000	293.15	824.5	1
0.3999	60000	293.15	829.2	1
0.3999	100	303.15	784.6	0.8
0.3999	1000	303.15	785.6	0.8
0.3999	3000	303.15	787.4	0.8
0.3999	5000	303.15	789	0.8
0.3999	10000	303.15	792.5	0.8
0.3999	15000	303.15	796.2	0.9
0.3999	20000	303.15	799.5	0.9
0.3999	25000	303.15	802.7	0.9
0.3999	30000	303.15	805.9	0.9
0.3999	35000	303.15	809	0.9
0.3999	40000	303.15	811.8	0.9
0.3999	50000	303.15	817.5	1
0.3999	60000	303.15	822.7	1
0.3999	100	313.15	777	0.8
0.3999	1000	313.15	777.4	0.8
0.3999	3000	313.15	779.1	0.8
0.3999	5000	313.15	780.8	0.8
0.3999	10000	313.15	784.7	0.8
0.3999	15000	313.15	788.5	0.9
0.3999	20000	313.15	792.1	0.9
0.3999	25000	313.15	795.6	0.9
0.3999	30000	313.15	798.8	0.9
0.3999	35000	313.15	802.1	0.9
0.3999	40000	313.15	805	0.9
0.3999	50000	313.15	810.9	1
0.3999	60000	313.15	816.2	1
0.3999	100	323.15	768.6	0.8
0.3999	1000	323.15	769.5	0.8
0.3999	3000	323.15	771.3	0.8
0.3999	5000	323.15	773.1	0.8
0.3999	10000	323.15	777.3	0.8
0.3999	15000	323.15	781.2	0.9
0.3999	20000	323.15	785.1	0.9
0.3999	25000	323.15	788.6	0.9
0.3999	30000	323.15	792.1	0.9
0.3999	35000	323.15	795.3	0.9
0.3999	40000	323.15	798.6	0.9
0.3999	50000	323.15	804.7	1
0.3999	60000	323.15	810.5	1
0.3999	100	333.15	760.5	0.8
0.3999	1000	333.15	761.3	0.8
0.3999	3000	333.15	763.3	0.8
0.3999	5000	333.15	765.1	0.8
0.3999	10000	333.15	769.5	0.8
0.3999	15000	333.15	773.7	0.8
0.3999	20000	333.15	777.7	0.9
0.3999	25000	333.15	781.4	0.9
0.3999	30000	333.15	785	0.9
0.3999	35000	333.15	788.4	0.9
0.3999	40000	333.15	792	0.9
0.3999	50000	333.15	798.2	1
0.3999	60000	333.15	804.2	1
0.3999	100	343.15	752	0.8
0.3999	1000	343.15	753.1	0.8
0.3999	3000	343.15	755.1	0.8
0.3999	5000	343.15	757.2	0.8
0.3999	10000	343.15	761.8	0.8
0.3999	15000	343.15	766.1	0.8
0.3999	20000	343.15	770.5	0.9
0.3999	25000	343.15	774.3	0.9
0.3999	30000	343.15	778.2	0.9
0.3999	35000	343.15	781.9	0.9
0.3999	40000	343.15	785.3	0.9
0.3999	50000	343.15	791.9	1
0.3999	60000	343.15	797.8	1
0.3999	100	353.15	743.8	0.8
0.3999	1000	353.15	744.7	0.8
0.3999	3000	353.15	747	0.8
0.3999	5000	353.15	749	0.8
0.3999	10000	353.15	753.9	0.8
0.3999	15000	353.15	758.7	0.8
0.3999	20000	353.15	763	0.9
0.3999	25000	353.15	767.2	0.9
0.3999	30000	353.15	771.2	0.9
0.3999	35000	353.15	775	0.9
0.3999	40000	353.15	778.6	0.9
0.3999	50000	353.15	785.4	1
0.3999	60000	353.15	791.8	1
0.3999	100	363.15	735.2	0.8
0.3999	1000	363.15	736.4	0.8
0.3999	3000	363.15	738.8	0.8
0.3999	5000	363.15	741	0.8
0.3999	10000	363.15	745.9	0.8
0.3999	15000	363.15	751.2	0.8
0.3999	20000	363.15	755.6	0.9
0.3999	25000	363.15	759.8	0.9
0.3999	30000	363.15	764.1	0.9
0.3999	35000	363.15	768.1	0.9
0.3999	40000	363.15	772	0.9
0.3999	50000	363.15	779.1	1
0.3999	60000	363.15	785.8	1
0.603	100	293.15	768.3	0.8
0.603	1000	293.15	768.8	0.8
0.603	3000	293.15	770.2	0.8
0.603	5000	293.15	771.4	0.8
0.603	10000	293.15	775.2	0.8
0.603	15000	293.15	778.6	0.8
0.603	20000	293.15	781.8	0.9
0.603	25000	293.15	785	0.9
0.603	30000	293.15	788.1	0.9
0.603	35000	293.15	790.9	0.9
0.603	40000	293.15	793.7	0.9
0.603	50000	293.15	799.4	1
0.603	60000	293.15	804	1
0.603	100	303.15	759.3	0.8
0.603	1000	303.15	760.5	0.8
0.603	3000	303.15	762.3	0.8
0.603	5000	303.15	763.9	0.8
0.603	10000	303.15	767.5	0.8
0.603	15000	303.15	771.2	0.8
0.603	20000	303.15	774.4	0.9
0.603	25000	303.15	777.8	0.9
0.603	30000	303.15	780.9	0.9
0.603	35000	303.15	784.1	0.9
0.603	40000	303.15	786.9	0.9
0.603	50000	303.15	792.6	1
0.603	60000	303.15	797.8	1
0.603	100	313.15	752	0.8
0.603	1000	313.15	752.5	0.8
0.603	3000	313.15	754.1	0.8
0.603	5000	313.15	755.8	0.8
0.603	10000	313.15	759.8	0.8
0.603	15000	313.15	763.6	0.8
0.603	20000	313.15	767.2	0.9
0.603	25000	313.15	770.7	0.9
0.603	30000	313.15	773.9	0.9
0.603	35000	313.15	777.2	0.9
0.603	40000	313.15	780.1	0.9
0.603	50000	313.15	786.1	1
0.603	60000	313.15	791.3	1
0.603	100	323.15	743.9	0.8
0.603	1000	323.15	744.7	0.8
0.603	3000	323.15	746.5	0.8
0.603	5000	323.15	748.3	0.8
0.603	10000	323.15	752.6	0.8
0.603	15000	323.15	756.6	0.8
0.603	20000	323.15	760.4	0.9
0.603	25000	323.15	763.8	0.9
0.603	30000	323.15	767.4	0.9
0.603	35000	323.15	770.6	0.9
0.603	40000	323.15	773.9	0.9
0.603	50000	323.15	779.9	1
0.603	60000	323.15	785.8	1
0.603	100	333.15	735.9	0.8
0.603	1000	333.15	736.7	0.8
0.603	3000	333.15	738.7	0.8
0.603	5000	333.15	740.5	0.8
0.603	10000	333.15	744.9	0.8
0.603	15000	333.15	749.2	0.8
0.603	20000	333.15	753.2	0.9
0.603	25000	333.15	756.9	0.9
0.603	30000	333.15	760.5	0.9
0.603	35000	333.15	763.9	0.9
0.603	40000	333.15	767.4	0.9
0.603	50000	333.15	773.7	1
0.603	60000	333.15	779.6	1
0.603	100	343.15	727.6	0.8
0.603	1000	343.15	728.7	0.8
0.603	3000	343.15	730.7	0.8
0.603	5000	343.15	732.8	0.8
0.603	10000	343.15	737.5	0.8
0.603	15000	343.15	741.8	0.8
0.603	20000	343.15	746.2	0.8
0.603	25000	343.15	750	0.9
0.603	30000	343.15	753.9	0.9
0.603	35000	343.15	757.6	0.9
0.603	40000	343.15	761	0.9
0.603	50000	343.15	767.6	1
0.603	60000	343.15	773.4	1
0.603	100	353.15	719.6	0.8
0.603	1000	353.15	720.5	0.8
0.603	3000	353.15	722.8	0.8
0.603	5000	353.15	724.8	0.8
0.603	10000	353.15	729.8	0.8
0.603	15000	353.15	734.6	0.8
0.603	20000	353.15	739	0.8
0.603	25000	353.15	743.1	0.9
0.603	30000	353.15	747.1	0.9
0.603	35000	353.15	750.9	0.9
0.603	40000	353.15	754.5	0.9
0.603	50000	353.15	761.3	1
0.603	60000	353.15	767.6	1
0.603	100	363.15	711.3	0.7
0.603	1000	363.15	712.5	0.8
0.603	3000	363.15	714.9	0.8
0.603	5000	363.15	717.1	0.8
0.603	10000	363.15	722	0.8
0.603	15000	363.15	727.4	0.8
0.603	20000	363.15	731.7	0.8
0.603	25000	363.15	735.9	0.9
0.603	30000	363.15	740.2	0.9
0.603	35000	363.15	744.3	0.9
0.603	40000	363.15	748.2	0.9
0.603	50000	363.15	755.2	1
0.603	60000	363.15	761.8	1.1
0.7998	100	293.15	748.3	0.8
0.7998	1000	293.15	748.9	0.8
0.7998	3000	293.15	750.2	0.8
0.7998	5000	293.15	751.5	0.8
0.7998	10000	293.15	755.2	0.8
0.7998	15000	293.15	758.6	0.8
0.7998	20000	293.15	761.8	0.9
0.7998	25000	293.15	765.1	0.9
0.7998	30000	293.15	768.2	0.9
0.7998	35000	293.15	771	0.9
0.7998	40000	293.15	773.8	0.9
0.7998	50000	293.15	779.4	1
0.7998	60000	293.15	784.1	1
0.7998	100	303.15	739.4	0.8
0.7998	1000	303.15	740.8	0.8
0.7998	3000	303.15	742.4	0.8
0.7998	5000	303.15	744	0.8
0.7998	10000	303.15	747.7	0.8
0.7998	15000	303.15	751.4	0.8
0.7998	20000	303.15	754.7	0.9
0.7998	25000	303.15	758	0.9
0.7998	30000	303.15	761.2	0.9
0.7998	35000	303.15	764.3	0.9
0.7998	40000	303.15	767.1	0.9
0.7998	50000	303.15	772.8	1
0.7998	60000	303.15	778	1
0.7998	100	313.15	732.3	0.8
0.7998	1000	313.15	732.8	0.8
0.7998	3000	313.15	734.4	0.8
0.7998	5000	313.15	736.1	0.8
0.7998	10000	313.15	740.2	0.8
0.7998	15000	313.15	743.9	0.8
0.7998	20000	313.15	747.6	0.8
0.7998	25000	313.15	751.1	0.9
0.7998	30000	313.15	754.3	0.9
0.7998	35000	313.15	757.6	0.9
0.7998	40000	313.15	760.5	0.9
0.7998	50000	313.15	766.4	1
0.7998	60000	313.15	771.6	1
0.7998	100	323.15	724.4	0.8
0.7998	1000	323.15	725.2	0.8
0.7998	3000	323.15	727	0.8
0.7998	5000	323.15	728.8	0.8
0.7998	10000	323.15	733.1	0.8
0.7998	15000	323.15	737.1	0.8
0.7998	20000	323.15	741	0.8
0.7998	25000	323.15	744.4	0.9
0.7998	30000	323.15	747.9	0.9
0.7998	35000	323.15	751.2	0.9
0.7998	40000	323.15	754.4	0.9
0.7998	50000	323.15	760.4	1
0.7998	60000	323.15	766.3	1
0.7998	100	333.15	716.6	0.8
0.7998	1000	333.15	717.4	0.8
0.7998	3000	333.15	719.4	0.8
0.7998	5000	333.15	721.2	0.8
0.7998	10000	333.15	725.7	0.8
0.7998	15000	333.15	729.9	0.8
0.7998	20000	333.15	733.9	0.8
0.7998	25000	333.15	737.7	0.9
0.7998	30000	333.15	741.3	0.9
0.7998	35000	333.15	744.7	0.9
0.7998	40000	333.15	748.2	0.9
0.7998	50000	333.15	754.4	1
0.7998	60000	333.15	760.4	1.1
0.7998	100	343.15	708.4	0.7
0.7998	1000	343.15	709.4	0.8
0.7998	3000	343.15	711.5	0.8
0.7998	5000	343.15	713.6	0.8
0.7998	10000	343.15	718.3	0.8
0.7998	15000	343.15	722.6	0.8
0.7998	20000	343.15	727	0.8
0.7998	25000	343.15	730.9	0.9
0.7998	30000	343.15	734.7	0.9
0.7998	35000	343.15	738.4	0.9
0.7998	40000	343.15	741.8	0.9
0.7998	50000	343.15	748.5	1
0.7998	60000	343.15	754.2	1.1
0.7998	100	353.15	700.5	0.7
0.7998	1000	353.15	701.4	0.7
0.7998	3000	353.15	703.7	0.8
0.7998	5000	353.15	705.8	0.8
0.7998	10000	353.15	710.8	0.8
0.7998	15000	353.15	715.6	0.8
0.7998	20000	353.15	720	0.8
0.7998	25000	353.15	724.1	0.9
0.7998	30000	353.15	728.1	0.9
0.7998	35000	353.15	731.9	0.9
0.7998	40000	353.15	735.4	0.9
0.7998	50000	353.15	742.2	1
0.7998	60000	353.15	748.5	1.1
0.7998	100	363.15	692.3	0.7
0.7998	1000	363.15	693.5	0.7
0.7998	3000	363.15	695.9	0.7
0.7998	5000	363.15	698.2	0.8
0.7998	10000	363.15	703	0.8
0.7998	15000	363.15	708.5	0.8
0.7998	20000	363.15	712.8	0.8
0.7998	25000	363.15	717	0.9
0.7998	30000	363.15	721.4	0.9
0.7998	35000	363.15	725.4	0.9
0.7998	40000	363.15	729.3	0.9
0.7998	50000	363.15	736.3	1
0.7998	60000	363.15	742.9	1.1
