Measured thermophysical data. N-phenyl-carbazole as a potential liquid organic hydrogen carrier: Thermochemical and computational study
Source: J. Chem. Thermodyn., 2019, 10.1016/j.jct.2018.12.032
Compound 1: carbon dioxide, CO2, InChI=1S/CO2/c2-1-3
Compound 2: nitrogen, N2, InChI=1S/N2/c1-2
Compound 3: water, H2O, InChI=1S/H2O/h1H2
Compound 4: oxygen, O2, InChI=1S/O2/c1-2
Compound 5: N-phenylcarbazole, C18H13N, InChI=1S/C18H13N/c1-2-8-14(9-3-1)19-17-12-6-4-10-15(17)16-11-5-7-13-18(16)19/h1-13H, purity 99%

System: N-phenylcarbazole; phases: Liquid, Gas
Property: Molar enthalpy of vaporization or sublimation, kJ/mol (Liquid); method: Correlation gas chromatography
Temperature, K	Molar enthalpy of vaporization or sublimation, kJ/mol	uncertainty
298.15	100.2	2.4

System: N-phenylcarbazole; phases: Liquid, Gas
Property: Molar enthalpy of vaporization or sublimation, kJ/mol (Liquid); method: Correlation gas chromatography
Temperature, K	Molar enthalpy of vaporization or sublimation, kJ/mol	uncertainty
298.15	99.1	2.1

System: N-phenylcarbazole; phases: Liquid, Gas
Property: Molar enthalpy of vaporization or sublimation, kJ/mol (Liquid); method: Correlation gas chromatography
Temperature, K	Molar enthalpy of vaporization or sublimation, kJ/mol	uncertainty
298.15	100	2.2

System: N-phenylcarbazole; phases: Crystal, Liquid, Air at 1 atmosphere
Property: Normal melting temperature, K (Crystal); method: DTA
Normal melting temperature, K	uncertainty
367.9	0.5

System: N-phenylcarbazole; phases: Crystal, Liquid, Air at 1 atmosphere
Property: Molar enthalpy of transition or fusion, kJ/mol (Crystal); method: DSC
Molar enthalpy of transition or fusion, kJ/mol	uncertainty
19.4	0.5

System: N-phenylcarbazole; phases: Glass, Liquid, Air at 1 atmosphere
Property: Triple point temperature, K (Glass); method: DSC
Triple point temperature, K	uncertainty
254.8	0.8

System: N-phenylcarbazole; phases: Crystal, Gas
Property: Vapor or sublimation pressure, kPa (Crystal); method: Transpiration method
Temperature, K	Vapor or sublimation pressure, kPa	uncertainty
330.1	9.2e-06	1.04e-05
336.4	2.01e-05	1.1e-05
343.5	4.67e-05	1.26e-05
349.2	9.26e-05	1.52e-05
356.1	0.00019	2.1e-05
362.8	0.0003947	3.35e-05

System: N-phenylcarbazole; phases: Metastable liquid, Gas
Property: Vapor or sublimation pressure, kPa (Metastable liquid); method: Transpiration method
Temperature, K	Vapor or sublimation pressure, kPa	uncertainty
350	0.000128	1.7e-05
356.1	0.000224	2.4e-05
362.8	0.000395	3.4e-05
368.5	0.000657	4.9e-05
372.4	0.000913	6.7e-05
377.3	0.001342	9.3e-05

Reaction: -1 N-phenylcarbazole + 18 carbon dioxide + .5 nitrogen + 6.5 water + -21.25 oxygen
Property: Specific internal energy of reaction at constant volume, J/g
-37526.5
