Measured thermophysical data. Speeds of sound for (CH4 + He) mixtures from p = (0.5 to 20) MPa at T = (273.16 to 375) K
Source: J. Chem. Thermodyn., 2019, 10.1016/j.jct.2019.07.011
Compound 1: methane, CH4, InChI=1S/CH4/h1H4, purity 99.9995%
Compound 2: helium, He, InChI=1S/He, purity 99.9999%

System: methane + helium; phases: Gas
Fixed: Frequency, MHz = 0.002
Property: Speed of sound, m/s (Gas); method: Spherical resonator
Mole fraction of methane	Temperature, K	Pressure, kPa	Speed of sound, m/s	uncertainty
0.950015	273.16	495.33	438.872	0.719
0.950015	273.16	1010.24	437.114	0.716
0.950015	273.16	2010.57	433.899	0.711
0.950015	273.16	2988.84	431.215	0.707
0.950015	273.16	4423.28	428.279	0.702
0.950015	273.16	5984.1	426.789	0.7
0.950015	273.16	6475.85	426.753	0.7
0.950015	273.16	6972.39	426.958	0.7
0.950015	273.16	7524.33	427.475	0.701
0.950015	273.16	8589.46	429.444	0.704
0.950015	273.16	9523.81	432.263	0.709
0.950015	273.16	10523.48	436.501	0.716
0.950015	273.16	11506.05	441.941	0.723
0.950015	273.16	12532.37	449.01	0.734
0.950015	273.16	13316.89	455.316	0.744
0.950015	273.16	14040.39	461.811	0.754
0.950015	273.16	14722.31	468.484	0.765
0.950015	273.16	15299.18	474.531	0.774
0.950015	273.16	15853.21	480.648	0.783
0.950015	273.16	16515.9	488.342	0.795
0.950015	273.16	17032.23	494.578	0.805
0.950015	273.16	17532.63	500.832	0.815
0.950015	273.16	18009.23	506.918	0.824
0.950015	273.16	18551.86	514.011	0.835
0.950015	273.16	19088.31	521.156	0.846
0.950015	273.16	19870.71	531.762	0.863
0.950015	300	483.64	458.745	0.75
0.950015	300	985.69	457.694	0.748
0.950015	300	1995.98	455.802	0.745
0.950015	300	3212.73	454.098	0.742
0.950015	300	4475.17	453.091	0.741
0.950015	300	5513.26	452.955	0.74
0.950015	300	6460.78	453.379	0.741
0.950015	300	7011.85	453.899	0.742
0.950015	300	7542.96	454.596	0.743
0.950015	300	8430.77	456.229	0.746
0.950015	300	9344.19	458.509	0.749
0.950015	300	10533.54	462.721	0.756
0.950015	300	11499.83	466.769	0.762
0.950015	300	12506.69	471.789	0.77
0.950015	300	13305.29	476.352	0.777
0.950015	300	13998.31	480.716	0.783
0.950015	300	14698.91	485.507	0.791
0.950015	300	15301.86	489.916	0.798
0.950015	300	15901.6	494.558	0.805
0.950015	300	16491.04	499.36	0.813
0.950015	300	17004.62	503.74	0.819
0.950015	300	17524.99	508.329	0.827
0.950015	300	18012.63	512.777	0.833
0.950015	300	18514.84	517.493	0.841
0.950015	300	19010.97	522.29	0.848
0.950015	300	19447.13	526.603	0.855
0.950015	325	479.57	476.043	0.777
0.950015	325	979.32	475.453	0.776
0.950015	325	1677.36	474.762	0.774
0.950015	325	2455.46	474.189	0.773
0.950015	325	3481.42	473.831	0.773
0.950015	325	4486.07	473.854	0.773
0.950015	325	5510.15	474.344	0.774
0.950015	325	6498.07	475.287	0.776
0.950015	325	7001.28	475.958	0.776
0.950015	325	7498.52	476.746	0.777
0.950015	325	8512.46	478.751	0.78
0.950015	325	9503.9	481.247	0.785
0.950015	325	10501.73	484.313	0.79
0.950015	325	11469.17	487.817	0.795
0.950015	325	12516.99	492.249	0.801
0.950015	325	13295.03	495.908	0.807
0.950015	325	14011.07	499.577	0.813
0.950015	325	14716.21	503.462	0.819
0.950015	325	15308.6	506.936	0.824
0.950015	325	16002.6	511.232	0.831
0.950015	325	16552.19	514.814	0.836
0.950015	325	17002	517.854	0.841
0.950015	325	17513.14	521.429	0.847
0.950015	325	17960.77	524.657	0.852
0.950015	325	18520.73	528.846	0.858
0.950015	325	19024.48	532.708	0.864
0.950015	325	19536.17	536.749	0.87
0.950015	350	476.77	491.904	0.801
0.950015	350	985.81	491.679	0.801
0.950015	350	1988.48	491.412	0.8
0.950015	350	3557.71	491.722	0.801
0.950015	350	5005.45	492.679	0.802
0.950015	350	6520.87	494.522	0.805
0.950015	350	8537.32	498.362	0.811
0.950015	350	10534.33	503.83	0.819
0.950015	350	12031.82	509.021	0.827
0.950015	350	13418.11	514.869	0.836
0.950015	350	14519.42	519.931	0.844
0.950015	350	15599.13	525.36	0.853
0.950015	350	16625.92	530.933	0.861
0.950015	350	17511.64	536.049	0.869
0.950015	350	18437.31	541.708	0.878
0.950015	350	19236.98	546.808	0.886
0.950015	350	20020.05	551.995	0.894
0.950015	350	20965.89	558.461	0.904
0.950015	375	508.08	506.893	0.824
0.950015	375	970.3	506.945	0.824
0.950015	375	1994.94	507.226	0.825
0.950015	375	3486.11	508.112	0.826
0.950015	375	4994.34	509.679	0.828
0.950015	375	6507.4	511.941	0.832
0.950015	375	8534.51	516.241	0.838
0.950015	375	10526.41	521.645	0.847
0.950015	375	12040.93	526.636	0.855
0.950015	375	13432.39	531.867	0.863
0.950015	375	14509.69	536.352	0.87
0.950015	375	15609.39	541.303	0.877
0.950015	375	16573.3	545.933	0.884
0.950015	375	17518.13	550.715	0.892
0.950015	375	18321.91	555.023	0.899
0.950015	375	19198.12	559.901	0.906
0.899933	273.16	491.07	449.799	0.736
0.899933	273.16	993.4	448.499	0.734
0.899933	273.16	1705.33	446.82	0.731
0.899933	273.16	2484.93	445.245	0.729
0.899933	273.16	3490.42	443.67	0.726
0.899933	273.16	4498.37	442.685	0.725
0.899933	273.16	5505.71	442.375	0.724
0.899933	273.16	6493.02	442.801	0.725
0.899933	273.16	7508.09	444.067	0.727
0.899933	273.16	8481.65	446.196	0.73
0.899933	273.16	9521.13	449.338	0.735
0.899933	273.16	10522.3	453.42	0.742
0.899933	273.16	11530.33	458.538	0.749
0.899933	273.16	12637.71	465.332	0.76
0.899933	273.16	13633.37	472.451	0.771
0.899933	273.16	14536.78	479.702	0.782
0.899933	273.16	15350.91	486.78	0.793
0.899933	273.16	16041.41	493.253	0.803
0.899933	273.16	16537.03	498.116	0.81
0.899933	273.16	17048.09	503.308	0.818
0.899933	273.16	17547.76	508.548	0.827
0.899933	273.16	18059.1	514.054	0.835
0.899933	273.16	18536.62	519.322	0.843
0.899933	273.16	19116.94	525.878	0.853
0.899933	300	482.33	469.85	0.767
0.899933	300	1000.98	469.176	0.766
0.899933	300	1985.54	468.062	0.764
0.899933	300	2984.62	467.344	0.763
0.899933	300	4487.26	467.101	0.763
0.899933	300	5490.05	467.577	0.763
0.899933	300	6494.83	468.59	0.765
0.899933	300	7501.43	470.201	0.767
0.899933	300	9026.42	473.764	0.773
0.899933	300	10503.57	478.718	0.78
0.899933	300	11505.01	482.859	0.787
0.899933	300	12492.05	487.56	0.794
0.899933	300	13505.38	493.085	0.803
0.899933	300	14495.13	499.048	0.812
0.899933	300	15514.52	505.799	0.822
0.899933	300	16489.81	512.809	0.834
0.899933	300	16993.59	516.634	0.839
0.899933	300	17510.91	520.691	0.846
0.899933	300	18011.62	524.748	0.852
0.899933	300	18523.05	529.002	0.859
0.899933	300	19042.85	533.448	0.865
0.899933	300	19955.15	541.498	0.878
0.899933	325	473.9	486.997	0.793
0.899933	325	976.85	486.836	0.793
0.899933	325	1477.54	486.663	0.793
0.899933	325	2481.56	486.492	0.792
0.899933	325	3486.42	486.705	0.793
0.899933	325	4485.52	487.28	0.794
0.899933	325	5487.25	488.283	0.795
0.899933	325	6484.73	489.677	0.798
0.899933	325	7483.33	491.535	0.8
0.899933	325	8497.39	493.863	0.804
0.899933	325	9494.23	496.639	0.809
0.899933	325	10492.66	499.871	0.814
0.899933	325	11475.31	503.566	0.819
0.899933	325	12500.25	507.854	0.826
0.899933	325	13503.38	512.522	0.833
0.899933	325	14493.45	517.559	0.841
0.899933	325	15293.58	521.983	0.847
0.899933	325	15994.51	526.061	0.854
0.899933	325	16484.64	529.048	0.858
0.899933	325	16992.2	532.23	0.864
0.899933	325	17520.21	535.657	0.869
0.899933	325	17995.45	538.814	0.873
0.899933	325	18490.3	542.215	0.879
0.899933	325	18993.41	545.758	0.884
0.899933	325	19503.94	549.411	0.89
0.899933	325	19905.77	552.384	0.895
0.899933	350	489.4	503.045	0.818
0.899933	350	990	503.092	0.818
0.899933	350	1981.52	503.391	0.819
0.899933	350	3476.8	504.312	0.82
0.899933	350	4993.27	506.115	0.823
0.899933	350	6484.03	508.509	0.827
0.899933	350	7487.58	510.596	0.83
0.899933	350	8493.7	513.012	0.833
0.899933	350	9502.08	515.827	0.838
0.899933	350	10503.14	518.95	0.843
0.899933	350	11996.27	524.334	0.851
0.899933	350	13498.05	530.471	0.861
0.899933	350	14498.21	535.04	0.868
0.899933	350	15505	539.958	0.875
0.899933	350	16499.97	545.162	0.883
0.899933	350	17495.27	550.647	0.892
0.899933	350	18508.51	556.568	0.901
0.899933	350	19509.3	562.67	0.91
0.899933	350	20352.39	568.049	0.919
0.899933	375	480.89	517.606	0.841
0.899933	375	974.52	518.004	0.841
0.899933	375	1977.77	518.72	0.842
0.899933	375	2982.45	519.779	0.844
0.899933	375	4474.76	521.686	0.847
0.899933	375	5993.9	524.499	0.851
0.899933	375	7482.9	527.662	0.856
0.899933	375	8485.87	530.296	0.86
0.899933	375	9494.86	533.164	0.865
0.899933	375	10490.61	536.22	0.869
0.899933	375	11481.69	539.605	0.875
0.899933	375	12499.83	543.464	0.881
0.899933	375	13464.61	547.302	0.887
0.899933	375	14474.74	551.755	0.894
0.899933	375	15492.62	556.408	0.901
0.899933	375	16439.96	560.926	0.908
0.899933	375	17489.72	566.34	0.916
0.899933	375	18171.66	569.916	0.922
0.899933	375	18704.92	572.844	0.926
