Measured thermophysical data. Solubility modelling, solution thermodynamics and preferential solvation for nitroxoline in solvent mixtures of ethyl acetate + (methanol, ethanol, n-propanol and isopropanol)
Source: J. Chem. Thermodyn., 2017, 10.1016/j.jct.2017.05.037
Compound 1: 5-nitro-8-quinolinol, C9H6N2O3, InChI=1S/C9H6N2O3/c12-8-4-3-7(11(13)14)6-2-1-5-10-9(6)8/h1-5,12H, purity 98.2%
Compound 2: methanol, CH4O, InChI=1S/CH4O/c1-2/h2H,1H3, purity 99.3%
Compound 3: ethanol, C2H6O, InChI=1S/C2H6O/c1-2-3/h3H,2H2,1H3, purity 99.5%
Compound 4: propan-1-ol, C3H8O, InChI=1S/C3H8O/c1-2-3-4/h4H,2-3H2,1H3, purity 99.4%
Compound 5: propan-2-ol, C3H8O, InChI=1S/C3H8O/c1-3(2)4/h3-4H,1-2H3, purity 99.4%
Compound 6: ethyl acetate, C4H8O2, InChI=1S/C4H8O2/c1-3-6-4(2)5/h3H2,1-2H3, purity 99.5%

System: 5-nitro-8-quinolinol + ethyl acetate + methanol; phases: Liquid, Crystal
Fixed: Pressure, kPa = 101.1
Property: Mole fraction of 5-nitro-8-quinolinol (Liquid); method: Chromatography
Temperature, K	Solvent: Mass fraction of ethyl acetate	Mole fraction of 5-nitro-8-quinolinol	uncertainty
278.15	0.1001	0.0006383	4.09e-05
283.15	0.1001	0.0007851	5.03e-05
288.15	0.1001	0.0009136	5.85e-05
293.15	0.1001	0.001117	7.2e-05
298.15	0.1001	0.001267	8.1e-05
303.15	0.1001	0.001539	9.9e-05
308.15	0.1001	0.001783	0.000114
313.15	0.1001	0.002135	0.000137
278.15	0.2009	0.0008722	5.59e-05
283.15	0.2009	0.001084	6.9e-05
288.15	0.2009	0.001213	7.8e-05
293.15	0.2009	0.001453	9.3e-05
298.15	0.2009	0.001755	0.000112
303.15	0.2009	0.002013	0.000129
308.15	0.2009	0.002399	0.000154
313.15	0.2009	0.00283	0.000181
278.15	0.2991	0.001158	7.4e-05
283.15	0.2991	0.001335	8.6e-05
288.15	0.2991	0.001604	0.000103
293.15	0.2991	0.001917	0.000123
298.15	0.2991	0.00219	0.00014
303.15	0.2991	0.00264	0.000169
308.15	0.2991	0.003085	0.000198
313.15	0.2991	0.00359	0.00023
278.15	0.4011	0.001403	9e-05
283.15	0.4011	0.001721	0.00011
288.15	0.4011	0.001966	0.000126
293.15	0.4011	0.002406	0.000154
298.15	0.4011	0.002765	0.000177
303.15	0.4011	0.003248	0.000208
308.15	0.4011	0.003793	0.000243
313.15	0.4011	0.004444	0.000285
278.15	0.5003	0.001672	0.000107
283.15	0.5003	0.002037	0.00013
288.15	0.5003	0.002341	0.00015
293.15	0.5003	0.002781	0.000178
298.15	0.5003	0.003326	0.000213
303.15	0.5003	0.00386	0.000247
308.15	0.5003	0.004512	0.000289
313.15	0.5003	0.005272	0.000338
278.15	0.6008	0.001994	0.000128
283.15	0.6008	0.002322	0.000149
288.15	0.6008	0.002828	0.000181
293.15	0.6008	0.003334	0.000214
298.15	0.6008	0.003928	0.000252
303.15	0.6008	0.00469	0.0003
308.15	0.6008	0.00549	0.000352
313.15	0.6008	0.006481	0.000415
278.15	0.6997	0.002304	0.000148
283.15	0.6997	0.002692	0.000172
288.15	0.6997	0.00327	0.000209
293.15	0.6997	0.003905	0.00025
298.15	0.6997	0.004569	0.000293
303.15	0.6997	0.005393	0.000345
308.15	0.6997	0.006402	0.00041
313.15	0.6997	0.00754	0.000483
278.15	0.7992	0.002595	0.000166
283.15	0.7992	0.003082	0.000197
288.15	0.7992	0.003752	0.00024
293.15	0.7992	0.004344	0.000278
298.15	0.7992	0.005217	0.000334
303.15	0.7992	0.006008	0.000385
308.15	0.7992	0.007178	0.00046
313.15	0.7992	0.008274	0.00053
278.15	0.9005	0.003027	0.000194
283.15	0.9005	0.0035	0.000224
288.15	0.9005	0.004136	0.000265
293.15	0.9005	0.004962	0.000318
298.15	0.9005	0.005934	0.00038
303.15	0.9005	0.006847	0.000439
308.15	0.9005	0.00821	0.000526
313.15	0.9005	0.009567	0.000613

System: 5-nitro-8-quinolinol + ethyl acetate + ethanol; phases: Liquid, Crystal
Fixed: Pressure, kPa = 101.1
Property: Mole fraction of 5-nitro-8-quinolinol (Liquid); method: Chromatography
Temperature, K	Solvent: Mass fraction of ethyl acetate	Mole fraction of 5-nitro-8-quinolinol	uncertainty
278.15	0.1006	0.0007222	4.63e-05
283.15	0.1006	0.0008495	5.44e-05
288.15	0.1006	0.001057	6.8e-05
293.15	0.1006	0.001216	7.8e-05
298.15	0.1006	0.00147	9.4e-05
303.15	0.1006	0.001714	0.00011
308.15	0.1006	0.002069	0.000133
313.15	0.1006	0.002453	0.000157
278.15	0.2011	0.0008956	5.74e-05
283.15	0.2011	0.001059	6.8e-05
288.15	0.2011	0.00125	8e-05
293.15	0.2011	0.001546	9.9e-05
298.15	0.2011	0.001778	0.000114
303.15	0.2011	0.002166	0.000139
308.15	0.2011	0.002511	0.000161
313.15	0.2011	0.003055	0.000196
278.15	0.2994	0.001118	7.2e-05
283.15	0.2994	0.001326	8.5e-05
288.15	0.2994	0.001543	9.9e-05
293.15	0.2994	0.001912	0.000122
298.15	0.2994	0.002191	0.00014
303.15	0.2994	0.002675	0.000171
308.15	0.2994	0.003082	0.000197
313.15	0.2994	0.003728	0.000239
278.15	0.4007	0.001363	8.7e-05
283.15	0.4007	0.001631	0.000104
288.15	0.4007	0.001936	0.000124
293.15	0.4007	0.002372	0.000152
298.15	0.4007	0.002714	0.000174
303.15	0.4007	0.003259	0.000209
308.15	0.4007	0.003765	0.000241
313.15	0.4007	0.004546	0.000291
278.15	0.4998	0.001661	0.000106
283.15	0.4998	0.001968	0.000126
288.15	0.4998	0.002327	0.000149
293.15	0.4998	0.002786	0.000178
298.15	0.4998	0.003217	0.000206
303.15	0.4998	0.003877	0.000248
308.15	0.4998	0.004503	0.000288
313.15	0.4998	0.005375	0.000344
278.15	0.6002	0.002002	0.000128
283.15	0.6002	0.002323	0.000149
288.15	0.6002	0.002852	0.000183
293.15	0.6002	0.00342	0.000219
298.15	0.6002	0.00403	0.000258
303.15	0.6002	0.004798	0.000307
308.15	0.6002	0.005597	0.000358
313.15	0.6002	0.006624	0.000424
278.15	0.6993	0.002375	0.000152
283.15	0.6993	0.002716	0.000174
288.15	0.6993	0.003338	0.000214
293.15	0.6993	0.003922	0.000251
298.15	0.6993	0.004798	0.000307
303.15	0.6993	0.005549	0.000355
308.15	0.6993	0.00662	0.000424
313.15	0.6993	0.007764	0.000497
278.15	0.8001	0.002704	0.000173
283.15	0.8001	0.003273	0.00021
288.15	0.8001	0.003781	0.000242
293.15	0.8001	0.004574	0.000293
298.15	0.8001	0.005546	0.000355
303.15	0.8001	0.006362	0.000407
308.15	0.8001	0.007434	0.000476
313.15	0.8001	0.008921	0.000571
278.15	0.9009	0.003059	0.000196
283.15	0.9009	0.003597	0.00023
288.15	0.9009	0.004362	0.000279
293.15	0.9009	0.005123	0.000328
298.15	0.9009	0.006225	0.000399
303.15	0.9009	0.007299	0.000467
308.15	0.9009	0.008371	0.000536
313.15	0.9009	0.01002	0.00064

System: 5-nitro-8-quinolinol + ethyl acetate + propan-1-ol; phases: Liquid, Crystal
Fixed: Pressure, kPa = 101.1
Property: Mole fraction of 5-nitro-8-quinolinol (Liquid); method: Chromatography
Temperature, K	Solvent: Mass fraction of ethyl acetate	Mole fraction of 5-nitro-8-quinolinol	uncertainty
278.15	0.1001	0.0007418	4.75e-05
283.15	0.1001	0.0008855	5.67e-05
288.15	0.1001	0.001069	6.8e-05
293.15	0.1001	0.001288	8.3e-05
298.15	0.1001	0.001547	9.9e-05
303.15	0.1001	0.001825	0.000117
308.15	0.1001	0.002158	0.000138
313.15	0.1001	0.002604	0.000167
278.15	0.2015	0.0009679	6.2e-05
283.15	0.2015	0.001139	7.3e-05
288.15	0.2015	0.001369	8.8e-05
293.15	0.2015	0.001652	0.000106
298.15	0.2015	0.001938	0.000124
303.15	0.2015	0.002316	0.000148
308.15	0.2015	0.002753	0.000176
313.15	0.2015	0.003204	0.000205
278.15	0.2999	0.001162	7.4e-05
283.15	0.2999	0.001388	8.9e-05
288.15	0.2999	0.001669	0.000107
293.15	0.2999	0.001994	0.000128
298.15	0.2999	0.002341	0.00015
303.15	0.2999	0.002837	0.000182
308.15	0.2999	0.003354	0.000215
313.15	0.2999	0.003934	0.000252
278.15	0.4006	0.001453	9.3e-05
283.15	0.4006	0.001698	0.000109
288.15	0.4006	0.002017	0.000129
293.15	0.4006	0.002361	0.000151
298.15	0.4006	0.002804	0.00018
303.15	0.4006	0.003383	0.000217
308.15	0.4006	0.004046	0.000259
313.15	0.4006	0.004791	0.000307
278.15	0.4997	0.001691	0.000108
283.15	0.4997	0.002077	0.000133
288.15	0.4997	0.002393	0.000153
293.15	0.4997	0.00286	0.000183
298.15	0.4997	0.003348	0.000214
303.15	0.4997	0.003942	0.000252
308.15	0.4997	0.004668	0.000299
313.15	0.4997	0.005575	0.000357
278.15	0.6008	0.0021	0.000135
283.15	0.6008	0.002428	0.000156
288.15	0.6008	0.002871	0.000184
293.15	0.6008	0.003347	0.000214
298.15	0.6008	0.003973	0.000254
303.15	0.6008	0.004726	0.000303
308.15	0.6008	0.005615	0.00036
313.15	0.6008	0.006685	0.000428
278.15	0.6994	0.002491	0.00016
283.15	0.6994	0.002903	0.000186
288.15	0.6994	0.003314	0.000212
293.15	0.6994	0.003946	0.000253
298.15	0.6994	0.004664	0.000299
303.15	0.6994	0.005457	0.00035
308.15	0.6994	0.006332	0.000406
313.15	0.6994	0.007526	0.000482
278.15	0.7991	0.002686	0.000172
283.15	0.7991	0.003165	0.000203
288.15	0.7991	0.003786	0.000242
293.15	0.7991	0.004496	0.000288
298.15	0.7991	0.005303	0.00034
303.15	0.7991	0.006239	0.0004
308.15	0.7991	0.007337	0.00047
313.15	0.7991	0.00865	0.000554
278.15	0.9003	0.003124	0.0002
283.15	0.9003	0.003597	0.00023
288.15	0.9003	0.004266	0.000273
293.15	0.9003	0.004994	0.00032
298.15	0.9003	0.005967	0.000382
303.15	0.9003	0.006976	0.000447
308.15	0.9003	0.008274	0.00053
313.15	0.9003	0.009891	0.000633

System: 5-nitro-8-quinolinol + ethyl acetate + propan-2-ol; phases: Liquid, Crystal
Fixed: Pressure, kPa = 101.1
Property: Mole fraction of 5-nitro-8-quinolinol (Liquid); method: Chromatography
Temperature, K	Solvent: Mass fraction of ethyl acetate	Mole fraction of 5-nitro-8-quinolinol	uncertainty
278.15	0.1006	0.000662	4.24e-05
283.15	0.1006	0.0007977	5.11e-05
288.15	0.1006	0.0009715	6.22e-05
293.15	0.1006	0.001176	7.5e-05
298.15	0.1006	0.001399	9e-05
303.15	0.1006	0.001656	0.000106
308.15	0.1006	0.00197	0.000126
313.15	0.1006	0.002342	0.00015
278.15	0.1994	0.0008639	5.53e-05
283.15	0.1994	0.00103	6.6e-05
288.15	0.1994	0.00125	8e-05
293.15	0.1994	0.001501	9.6e-05
298.15	0.1994	0.001778	0.000114
303.15	0.1994	0.002136	0.000137
308.15	0.1994	0.002477	0.000159
313.15	0.1994	0.00293	0.000188
278.15	0.2992	0.001089	7e-05
283.15	0.2992	0.001301	8.3e-05
288.15	0.2992	0.001563	0.0001
293.15	0.2992	0.001905	0.000122
298.15	0.2992	0.002204	0.000141
303.15	0.2992	0.002618	0.000168
308.15	0.2992	0.003161	0.000202
313.15	0.2992	0.003741	0.00024
278.15	0.4006	0.001348	8.6e-05
283.15	0.4006	0.001601	0.000103
288.15	0.4006	0.001932	0.000124
293.15	0.4006	0.00232	0.000149
298.15	0.4006	0.002736	0.000175
303.15	0.4006	0.003219	0.000206
308.15	0.4006	0.003871	0.000248
313.15	0.4006	0.00455	0.000291
278.15	0.4996	0.001609	0.000103
283.15	0.4996	0.001904	0.000122
288.15	0.4996	0.002265	0.000145
293.15	0.4996	0.002743	0.000176
298.15	0.4996	0.003267	0.000209
303.15	0.4996	0.003853	0.000247
308.15	0.4996	0.004565	0.000292
313.15	0.4996	0.005362	0.000343
278.15	0.6005	0.00187	0.00012
283.15	0.6005	0.002202	0.000141
288.15	0.6005	0.002641	0.000169
293.15	0.6005	0.003175	0.000203
298.15	0.6005	0.003779	0.000242
303.15	0.6005	0.004489	0.000288
308.15	0.6005	0.005278	0.000338
313.15	0.6005	0.006229	0.000399
278.15	0.7003	0.002148	0.000138
283.15	0.7003	0.002525	0.000162
288.15	0.7003	0.003042	0.000195
293.15	0.7003	0.003738	0.000239
298.15	0.7003	0.004276	0.000274
303.15	0.7003	0.005132	0.000329
308.15	0.7003	0.006039	0.000387
313.15	0.7003	0.007066	0.000453
278.15	0.7997	0.002468	0.000158
283.15	0.7997	0.002934	0.000188
288.15	0.7997	0.003437	0.00022
293.15	0.7997	0.004099	0.000263
298.15	0.7997	0.004884	0.000313
303.15	0.7997	0.00574	0.000368
308.15	0.7997	0.006845	0.000438
313.15	0.7997	0.008053	0.000516
278.15	0.9011	0.002853	0.000183
283.15	0.9011	0.003327	0.000213
288.15	0.9011	0.003964	0.000254
293.15	0.9011	0.004691	0.0003
298.15	0.9011	0.005565	0.000356
303.15	0.9011	0.006671	0.000427
308.15	0.9011	0.007856	0.000503
313.15	0.9011	0.009294	0.000595
