Measured thermophysical data. Isothermal (vapour + liquid) equilibrium of (cyclic ethers + chlorohexane) mixtures: Experimental results and SAFT modelling
Source: J. Chem. Thermodyn., 2008, 10.1016/j.jct.2008.03.017
Compound 1: 1,3-dioxolane, C3H6O2, InChI=1S/C3H6O2/c1-2-5-3-4-1/h1-3H2, purity 99%
Compound 2: 1,4-dioxane, C4H8O2, InChI=1S/C4H8O2/c1-2-6-4-3-5-1/h1-4H2, purity 99%
Compound 3: 1-chlorohexane, C6H13Cl, InChI=1S/C6H13Cl/c1-2-3-4-5-6-7/h2-6H2,1H3, purity 99%
Compound 4: tetrahydrofuran, C4H8O, InChI=1S/C4H8O/c1-2-4-5-3-1/h1-4H2, purity 99.5%
Compound 5: tetrahydropyran, C5H10O, InChI=1S/C5H10O/c1-2-4-6-5-3-1/h1-5H2, purity 99%

System: 1,3-dioxolane; phases: Liquid, Gas
Property: Vapor or sublimation pressure, kPa (Liquid); method: EBULLIO:UFactor:16
Temperature, K	Vapor or sublimation pressure, kPa	uncertainty
298.15	13.535	0.143
328.15	49.01	0.193

System: 1,3-dioxolane; phases: Liquid
Fixed: Pressure, kPa = 101.325
Property: Mass density, kg/m3 (Liquid); method: VIBTUB:UFactor:6
Temperature, K	Mass density, kg/m3	uncertainty
298.15	1058.62	0.71
328.15	1039.88	0.64

System: 1,4-dioxane; phases: Liquid, Gas
Property: Vapor or sublimation pressure, kPa (Liquid); method: EBULLIO:UFactor:16
Temperature, K	Vapor or sublimation pressure, kPa	uncertainty
298.15	4.9	0.13
328.15	19.54	0.15

System: 1,4-dioxane; phases: Liquid
Fixed: Pressure, kPa = 101.325
Property: Mass density, kg/m3 (Liquid); method: VIBTUB:UFactor:6
Temperature, K	Mass density, kg/m3	uncertainty
298.15	1027.87	0.6
328.15	1010.69	0.53

System: 1-chlorohexane; phases: Liquid, Gas
Property: Vapor or sublimation pressure, kPa (Liquid); method: EBULLIO:UFactor:16
Temperature, K	Vapor or sublimation pressure, kPa	uncertainty
298.15	1.255	0.126
328.15	5.965	0.132

System: 1-chlorohexane; phases: Liquid
Fixed: Pressure, kPa = 101.325
Property: Mass density, kg/m3 (Liquid); method: VIBTUB:UFactor:1
Temperature, K	Mass density, kg/m3	uncertainty
298.15	873.5	
328.15	859.01	

System: tetrahydrofuran; phases: Liquid, Gas
Property: Vapor or sublimation pressure, kPa (Liquid); method: EBULLIO:UFactor:16
Temperature, K	Vapor or sublimation pressure, kPa	uncertainty
298.15	21.61	0.155
328.15	70.615	0.217

System: tetrahydrofuran; phases: Liquid
Fixed: Pressure, kPa = 101.325
Property: Mass density, kg/m3 (Liquid); method: VIBTUB:UFactor:4
Temperature, K	Mass density, kg/m3	uncertainty
298.15	881.95	0.45
328.15	865.36	0.49

System: tetrahydropyran; phases: Liquid, Gas
Property: Vapor or sublimation pressure, kPa (Liquid); method: EBULLIO:UFactor:16
Temperature, K	Vapor or sublimation pressure, kPa	uncertainty
298.15	9.56	0.137
328.15	33.945	0.17

System: tetrahydropyran; phases: Liquid
Fixed: Pressure, kPa = 101.325
Property: Mass density, kg/m3 (Liquid); method: VIBTUB:UFactor:6
Temperature, K	Mass density, kg/m3	uncertainty
298.15	878.81	0.81
328.15	863.67	0.85

System: tetrahydrofuran + 1-chlorohexane; phases: Liquid, Gas
Property: Vapor or sublimation pressure, kPa (Liquid); method: EBULLIO:UFactor:4
Mole fraction of tetrahydrofuran	Temperature, K	Vapor or sublimation pressure, kPa	uncertainty
0.041	298.15	1.7	0.181
0.042	328.15	7.49	0.271
0.0716	298.15	2.09	0.187
0.0775	328.15	8.975	0.295
0.0968	298.15	2.46	0.193
0.1397	328.15	12.36	0.347
0.1542	298.15	3.5	0.209
0.196	328.15	15.485	0.396
0.1994	298.15	4.33	0.222
0.2565	328.15	19.145	0.453
0.269	298.15	5.795	0.245
0.3604	328.15	25.815	0.557
0.3765	298.15	8.02	0.28
0.4191	328.15	30.095	0.623
0.4555	298.15	9.765	0.307
0.4934	328.15	35.383	0.705
0.5099	298.15	10.9	0.325
0.5528	298.15	11.925	0.341
0.5688	328.15	40.606	0.786
0.6351	298.15	13.605	0.367
0.6351	328.15	45.42	0.861
0.705	298.15	15.365	0.394
0.7089	328.15	50.615	0.942
0.7847	328.15	55.915	1.024
0.7881	298.15	17.23	0.423
0.86	328.15	61.116	1.104
0.8612	298.15	18.76	0.447
0.9338	328.15	66.137	1.182
0.9349	298.15	20.275	0.471

System: tetrahydrofuran + 1-chlorohexane; phases: Gas, Liquid
Property: Mole fraction of tetrahydrofuran (Gas); method: Density calibration data
Mole fraction of tetrahydrofuran	Temperature, K	Mole fraction of tetrahydrofuran	uncertainty
0.041	298.15	0.3092	0.0108
0.042	328.15	0.25	0.0105
0.0716	298.15	0.4622	0.0108
0.0775	328.15	0.3912	0.0105
0.0968	298.15	0.5514	0.0106
0.1397	328.15	0.5728	0.0105
0.1542	298.15	0.7112	0.0103
0.196	328.15	0.6844	0.0103
0.1994	298.15	0.7771	0.0102
0.2565	328.15	0.7723	0.0102
0.269	298.15	0.8461	0.0101
0.3604	328.15	0.8624	0.0101
0.3765	298.15	0.9042	0.01
0.4191	328.15	0.884	0.01
0.4555	298.15	0.9317	0.01
0.4934	328.15	0.9152	0.01
0.5099	298.15	0.9468	0.01
0.5528	298.15	0.956	0.01
0.5688	328.15	0.9422	0.01
0.6351	298.15	0.9685	0.01
0.6351	328.15	0.9529	0.01
0.705	298.15	0.9793	0.01
0.7089	328.15	0.9675	0.01
0.7847	328.15	0.9803	0.01
0.7881	298.15	0.988	0.01
0.86	328.15	0.9919	0.0081
0.8612	298.15	0.9938	0.0062
0.9338	328.15	0.9976	0.0024
0.9349	298.15	0.9995	0.0005

System: tetrahydropyran + 1-chlorohexane; phases: Liquid, Gas
Property: Vapor or sublimation pressure, kPa (Liquid); method: EBULLIO:UFactor:4
Mole fraction of tetrahydropyran	Temperature, K	Vapor or sublimation pressure, kPa	uncertainty
0.0598	298.15	1.495	0.178
0.0614	328.15	6.995	0.264
0.1108	298.15	1.83	0.183
0.1153	328.15	8.225	0.283
0.1527	328.15	9.1	0.296
0.163	298.15	2.235	0.19
0.2147	298.15	2.605	0.195
0.2175	328.15	10.805	0.323
0.2754	328.15	12.345	0.347
0.2835	298.15	3.205	0.205
0.3323	298.15	3.66	0.212
0.3554	328.15	14.6	0.382
0.4129	328.15	16.145	0.406
0.4227	298.15	4.33	0.222
0.448	298.15	4.7	0.228
0.4775	328.15	18.21	0.439
0.5019	298.15	5.005	0.233
0.5382	328.15	19.89	0.465
0.5505	298.15	5.495	0.24
0.608	298.15	6.045	0.249
0.6165	328.15	22.29	0.502
0.7009	328.15	24.995	0.545
0.7048	298.15	6.92	0.263
0.7598	328.15	26.755	0.572
0.7654	298.15	7.405	0.27
0.8576	298.15	8.17	0.282
0.8576	328.15	29.63	0.617
0.9036	298.15	8.63	0.29
0.9044	328.15	30.95	0.638

System: tetrahydropyran + 1-chlorohexane; phases: Gas, Liquid
Property: Mole fraction of tetrahydropyran (Gas); method: Density calibration data
Mole fraction of tetrahydropyran	Temperature, K	Mole fraction of tetrahydropyran	uncertainty
0.0598	298.15	0.2476	0.0104
0.0614	328.15	0.2008	0.0103
0.1108	298.15	0.4182	0.0106
0.1153	328.15	0.3532	0.0104
0.1527	328.15	0.4499	0.0105
0.163	298.15	0.5479	0.0107
0.2147	298.15	0.632	0.0106
0.2175	328.15	0.5793	0.0107
0.2754	328.15	0.6487	0.0105
0.2835	298.15	0.7293	0.0104
0.3323	298.15	0.7708	0.0103
0.3554	328.15	0.7393	0.0104
0.4129	328.15	0.7907	0.0103
0.4227	298.15	0.8384	0.0102
0.448	298.15	0.8658	0.0101
0.4775	328.15	0.8451	0.0102
0.5019	298.15	0.8797	0.0101
0.5382	328.15	0.8707	0.0101
0.5505	298.15	0.9068	0.0101
0.608	298.15	0.9303	0.01
0.6165	328.15	0.91	0.0101
0.7009	328.15	0.9443	0.01
0.7048	298.15	0.9591	0.01
0.7598	328.15	0.9606	0.01
0.7654	298.15	0.977	0.01
0.8576	298.15	0.985	0.01
0.8576	328.15	0.9827	0.01
0.9036	298.15	0.99	0.01
0.9044	328.15	0.989	0.01

System: 1-chlorohexane + 1,3-dioxolane; phases: Liquid, Gas
Property: Vapor or sublimation pressure, kPa (Liquid); method: EBULLIO:UFactor:4
Mole fraction of 1,3-dioxolane	Temperature, K	Vapor or sublimation pressure, kPa	uncertainty
0.0115	328.15	6.905	0.262
0.016	298.15	1.58	0.179
0.0239	328.15	7.735	0.275
0.034	298.15	2	0.186
0.0492	328.15	9.7	0.306
0.068	298.15	2.7	0.197
0.0969	298.15	3.165	0.204
0.1055	328.15	13.485	0.365
0.1239	298.15	3.875	0.215
0.1468	298.15	4.205	0.22
0.1794	328.15	17.77	0.432
0.1924	298.15	5.115	0.235
0.2272	328.15	20.425	0.473
0.2932	328.15	23.83	0.526
0.2988	298.15	6.8	0.261
0.3588	298.15	7.38	0.27
0.3719	328.15	27.29	0.58
0.4029	298.15	7.94	0.279
0.4096	328.15	29.02	0.607
0.4682	298.15	8.85	0.293
0.4843	328.15	32.02	0.654
0.5566	298.15	9.77	0.307
0.5611	328.15	34.71	0.696
0.645	298.15	10.475	0.318
0.6504	328.15	37.675	0.743
0.724	328.15	39.945	0.778
0.7277	298.15	11.22	0.33
0.8203	298.15	11.91	0.341
0.8232	328.15	43.2	0.829
0.9222	298.15	12.805	0.355
0.9241	328.15	46.495	0.88

System: 1-chlorohexane + 1,3-dioxolane; phases: Gas, Liquid
Property: Mole fraction of 1,3-dioxolane (Gas); method: Density calibration data
Mole fraction of 1,3-dioxolane	Temperature, K	Mole fraction of 1,3-dioxolane	uncertainty
0.0115	328.15	0.124	0.0125
0.016	298.15	0.2263	0.0123
0.0239	328.15	0.2398	0.0114
0.034	298.15	0.3882	0.0113
0.0492	328.15	0.3868	0.0108
0.068	298.15	0.5488	0.0111
0.0969	298.15	0.6373	0.0107
0.1055	328.15	0.5917	0.0107
0.1239	298.15	0.6965	0.0105
0.1468	298.15	0.7267	0.0104
0.1794	328.15	0.7071	0.0105
0.1924	298.15	0.7841	0.0103
0.2272	328.15	0.757	0.0104
0.2932	328.15	0.8125	0.0102
0.2988	298.15	0.8543	0.0102
0.3588	298.15	0.8765	0.0101
0.3719	328.15	0.8469	0.0102
0.4029	298.15	0.8889	0.0101
0.4096	328.15	0.8676	0.0101
0.4682	298.15	0.909	0.0101
0.4843	328.15	0.8921	0.0101
0.5566	298.15	0.9264	0.01
0.5611	328.15	0.9123	0.0101
0.645	298.15	0.9432	0.01
0.6504	328.15	0.9309	0.01
0.724	328.15	0.9458	0.01
0.7277	298.15	0.9554	0.01
0.8203	298.15	0.9678	0.01
0.8232	328.15	0.9627	0.01
0.9222	298.15	0.984	0.01
0.9241	328.15	0.9818	0.01

System: 1,4-dioxane + 1-chlorohexane; phases: Liquid, Gas
Property: Vapor or sublimation pressure, kPa (Liquid); method: EBULLIO:UFactor:4
Mole fraction of 1,4-dioxane	Temperature, K	Vapor or sublimation pressure, kPa	uncertainty
0.0194	298.15	1.375	0.176
0.0194	298.15	1.375	0.176
0.021	328.15	6.515	0.256
0.0668	298.15	1.65	0.181
0.0713	328.15	7.665	0.274
0.1261	298.15	2.025	0.186
0.1285	328.15	8.84	0.292
0.1898	298.15	2.285	0.19
0.198	328.15	10.12	0.312
0.2508	328.15	11.08	0.327
0.2565	298.15	2.66	0.196
0.3235	298.15	2.91	0.2
0.3303	328.15	12.42	0.348
0.3994	328.15	13.33	0.362
0.4045	298.15	3.235	0.205
0.4794	298.15	3.455	0.209
0.4836	328.15	14.475	0.38
0.5517	328.15	15.265	0.393
0.5632	298.15	3.735	0.213
0.6367	298.15	3.905	0.216
0.6385	328.15	16.24	0.408
0.7129	328.15	16.97	0.419
0.7131	298.15	4.145	0.219
0.7871	298.15	4.28	0.222
0.79	328.15	17.725	0.431
0.8654	298.15	4.495	0.225
0.8666	328.15	18.42	0.442
0.9462	328.15	19.16	0.453
0.9477	298.15	4.665	0.228

System: 1,4-dioxane + 1-chlorohexane; phases: Gas, Liquid
Property: Mole fraction of 1,4-dioxane (Gas); method: Density calibration data
Mole fraction of 1,4-dioxane	Temperature, K	Mole fraction of 1,4-dioxane	uncertainty
0.0194	298.15	0.0981	0.0104
0.0194	298.15	0.0981	0.0104
0.021	328.15	0.0862	0.0103
0.0668	298.15	0.2731	0.0104
0.0713	328.15	0.2474	0.0103
0.1261	298.15	0.4301	0.0105
0.1285	328.15	0.413	0.0104
0.1898	298.15	0.5421	0.0107
0.198	328.15	0.5086	0.0107
0.2508	328.15	0.5794	0.0106
0.2565	298.15	0.6252	0.0106
0.3235	298.15	0.6889	0.0105
0.3303	328.15	0.6558	0.0105
0.3994	328.15	0.7119	0.0104
0.4045	298.15	0.7429	0.0104
0.4794	298.15	0.7857	0.0103
0.4836	328.15	0.7644	0.0103
0.5517	328.15	0.8013	0.0103
0.5632	298.15	0.8252	0.0102
0.6367	298.15	0.8532	0.0102
0.6385	328.15	0.8402	0.0102
0.7129	328.15	0.8721	0.0101
0.7131	298.15	0.8819	0.0101
0.7871	298.15	0.9089	0.0101
0.79	328.15	0.9021	0.0101
0.8654	298.15	0.9376	0.01
0.8666	328.15	0.935	0.01
0.9462	328.15	0.9705	0.01
0.9477	298.15	0.9725	0.01
