Measured thermophysical data. Measurements of activity coefficients at infinite dilution of organic compounds and water in isoquinolinium-based ionic liquid [C8iQuin][NTf2] using GLC
Source: J. Chem. Thermodyn., 2011, 10.1016/j.jct.2010.10.026
Compound 1: 2-octylisoquinolinium bis((trifluoromethyl)sulfonyl)amide, C19H24F6N2O4S2, InChI=1S/C17H24N.C2F6NO4S2/c1-2-3-4-5-6-9-13-18-14-12-16-10-7-8-11-17(16)15-18;3-1(4,5)14(10,11)9-15(12,13)2(6,7)8/h7-8,10-12,14-15H,2-6,9,13H2,1H3;/q+1;-1
Compound 2: hexane, C6H14, InChI=1S/C6H14/c1-3-5-6-4-2/h3-6H2,1-2H3, purity 99%
Compound 3: heptane, C7H16, InChI=1S/C7H16/c1-3-5-7-6-4-2/h3-7H2,1-2H3, purity 99%
Compound 4: octane, C8H18, InChI=1S/C8H18/c1-3-5-7-8-6-4-2/h3-8H2,1-2H3, purity 99%
Compound 5: nonane, C9H20, InChI=1S/C9H20/c1-3-5-7-9-8-6-4-2/h3-9H2,1-2H3, purity 99%
Compound 6: decane, C10H22, InChI=1S/C10H22/c1-3-5-7-9-10-8-6-4-2/h3-10H2,1-2H3, purity 99%
Compound 7: cyclopentane, C5H10, InChI=1S/C5H10/c1-2-4-5-3-1/h1-5H2, purity 99%
Compound 8: cyclohexane, C6H12, InChI=1S/C6H12/c1-2-4-6-5-3-1/h1-6H2, purity 99%
Compound 9: cycloheptane, C7H14, InChI=1S/C7H14/c1-2-4-6-7-5-3-1/h1-7H2, purity 99%
Compound 10: cyclooctane, C8H16, InChI=1S/C8H16/c1-2-4-6-8-7-5-3-1/h1-8H2, purity 99%
Compound 11: 1-pentene, C5H10, InChI=1S/C5H10/c1-3-5-4-2/h3H,1,4-5H2,2H3, purity 99%
Compound 12: hex-1-ene, C6H12, InChI=1S/C6H12/c1-3-5-6-4-2/h3H,1,4-6H2,2H3, purity 99%
Compound 13: 1-heptene, C7H14, InChI=1S/C7H14/c1-3-5-7-6-4-2/h3H,1,4-7H2,2H3, purity 99%
Compound 14: oct-1-ene, C8H16, InChI=1S/C8H16/c1-3-5-7-8-6-4-2/h3H,1,4-8H2,2H3, purity 99%
Compound 15: 1-hexyne, C6H10, InChI=1S/C6H10/c1-3-5-6-4-2/h1H,4-6H2,2H3, purity 99%
Compound 16: 1-heptyne, C7H12, InChI=1S/C7H12/c1-3-5-7-6-4-2/h1H,4-7H2,2H3, purity 99%
Compound 17: 1-octyne, C8H14, InChI=1S/C8H14/c1-3-5-7-8-6-4-2/h1H,4-8H2,2H3, purity 99%
Compound 18: benzene, C6H6, InChI=1S/C6H6/c1-2-4-6-5-3-1/h1-6H, purity 99%
Compound 19: toluene, C7H8, InChI=1S/C7H8/c1-7-5-3-2-4-6-7/h2-6H,1H3, purity 99%
Compound 20: ethylbenzene, C8H10, InChI=1S/C8H10/c1-2-8-6-4-3-5-7-8/h3-7H,2H2,1H3, purity 99%
Compound 21: 1,2-dimethylbenzene, C8H10, InChI=1S/C8H10/c1-7-5-3-4-6-8(7)2/h3-6H,1-2H3, purity 99%
Compound 22: 1,3-dimethylbenzene, C8H10, InChI=1S/C8H10/c1-7-4-3-5-8(2)6-7/h3-6H,1-2H3, purity 99%
Compound 23: 1,4-dimethylbenzene, C8H10, InChI=1S/C8H10/c1-7-3-5-8(2)6-4-7/h3-6H,1-2H3, purity 99%
Compound 24: methanol, CH4O, InChI=1S/CH4O/c1-2/h2H,1H3, purity 99%
Compound 25: ethanol, C2H6O, InChI=1S/C2H6O/c1-2-3/h3H,2H2,1H3, purity 99%
Compound 26: propan-1-ol, C3H8O, InChI=1S/C3H8O/c1-2-3-4/h4H,2-3H2,1H3, purity 99%
Compound 27: butan-1-ol, C4H10O, InChI=1S/C4H10O/c1-2-3-4-5/h5H,2-4H2,1H3, purity 99%
Compound 28: water, H2O, InChI=1S/H2O/h1H2, purity 99%
Compound 29: thiophene, C4H4S, InChI=1S/C4H4S/c1-2-4-5-3-1/h1-4H, purity 99%
Compound 30: tetrahydrofuran, C4H8O, InChI=1S/C4H8O/c1-2-4-5-3-1/h1-4H2, purity 99%
Compound 31: 2-methoxy-2-methylpropane, C5H12O, InChI=1S/C5H12O/c1-5(2,3)6-4/h1-4H3, purity 99%
Compound 32: diethyl ether, C4H10O, InChI=1S/C4H10O/c1-3-5-4-2/h3-4H2,1-2H3, purity 99%
Compound 33: dipropyl ether, C6H14O, InChI=1S/C6H14O/c1-3-5-7-6-4-2/h3-6H2,1-2H3, purity 99%
Compound 34: dibutyl ether, C8H18O, InChI=1S/C8H18O/c1-3-5-7-9-8-6-4-2/h3-8H2,1-2H3, purity 99%
Compound 35: acetone, C3H6O, InChI=1S/C3H6O/c1-3(2)4/h1-2H3, purity 99%
Compound 36: pentan-2-one, C5H10O, InChI=1S/C5H10O/c1-3-4-5(2)6/h3-4H2,1-2H3, purity 99%
Compound 37: pentan-3-one, C5H10O, InChI=1S/C5H10O/c1-3-5(6)4-2/h3-4H2,1-2H3, purity 99%
Compound 38: pentan-1-ol, C5H12O, InChI=1S/C5H12O/c1-2-3-4-5-6/h6H,2-5H2,1H3, purity 99%

System: hexane + 2-octylisoquinolinium bis((trifluoromethyl)sulfonyl)amide; phases: Liquid
Fixed: Mole fraction of hexane = 0
Fixed: Pressure, kPa = 101
Property: Activity coefficient of hexane (Liquid); method: Chromatography
Temperature, K	Activity coefficient of hexane	uncertainty
328.15	4.09	0.28
338.15	3.97	0.27
348.15	3.85	0.26
358.15	3.77	0.26
368.15	3.66	0.25

System: heptane + 2-octylisoquinolinium bis((trifluoromethyl)sulfonyl)amide; phases: Liquid
Fixed: Mole fraction of heptane = 0
Fixed: Pressure, kPa = 101
Property: Activity coefficient of heptane (Liquid); method: Chromatography
Temperature, K	Activity coefficient of heptane	uncertainty
328.15	4.87	0.33
338.15	4.74	0.32
348.15	4.62	0.31
358.15	4.51	0.31
368.15	4.39	0.3

System: octane + 2-octylisoquinolinium bis((trifluoromethyl)sulfonyl)amide; phases: Liquid
Fixed: Mole fraction of octane = 0
Fixed: Pressure, kPa = 101
Property: Activity coefficient of octane (Liquid); method: Chromatography
Temperature, K	Activity coefficient of octane	uncertainty
328.15	6.18	0.42
338.15	5.92	0.4
348.15	5.69	0.39
358.15	5.48	0.37
368.15	5.27	0.36

System: nonane + 2-octylisoquinolinium bis((trifluoromethyl)sulfonyl)amide; phases: Liquid
Fixed: Mole fraction of nonane = 0
Fixed: Pressure, kPa = 101
Property: Activity coefficient of nonane (Liquid); method: Chromatography
Temperature, K	Activity coefficient of nonane	uncertainty
328.15	7.45	0.51
338.15	7.19	0.49
348.15	6.91	0.47
358.15	6.71	0.46
368.15	6.49	0.44

System: decane + 2-octylisoquinolinium bis((trifluoromethyl)sulfonyl)amide; phases: Liquid
Fixed: Mole fraction of decane = 0
Fixed: Pressure, kPa = 101
Property: Activity coefficient of decane (Liquid); method: Chromatography
Temperature, K	Activity coefficient of decane	uncertainty
328.15	9.25	0.63
338.15	8.88	0.61
348.15	8.49	0.58
358.15	8.21	0.56
368.15	7.88	0.54

System: cyclopentane + 2-octylisoquinolinium bis((trifluoromethyl)sulfonyl)amide; phases: Liquid
Fixed: Mole fraction of cyclopentane = 0
Fixed: Pressure, kPa = 101
Property: Activity coefficient of cyclopentane (Liquid); method: Chromatography
Temperature, K	Activity coefficient of cyclopentane	uncertainty
328.15	2.52	0.17
338.15	2.46	0.17
348.15	2.39	0.16
358.15	2.33	0.16
368.15	2.27	0.15

System: cyclohexane + 2-octylisoquinolinium bis((trifluoromethyl)sulfonyl)amide; phases: Liquid
Fixed: Mole fraction of cyclohexane = 0
Fixed: Pressure, kPa = 101
Property: Activity coefficient of cyclohexane (Liquid); method: Chromatography
Temperature, K	Activity coefficient of cyclohexane	uncertainty
328.15	3.17	0.22
338.15	3.06	0.21
348.15	2.95	0.2
358.15	2.86	0.19
368.15	2.77	0.19

System: cycloheptane + 2-octylisoquinolinium bis((trifluoromethyl)sulfonyl)amide; phases: Liquid
Fixed: Mole fraction of cycloheptane = 0
Fixed: Pressure, kPa = 101
Property: Activity coefficient of cycloheptane (Liquid); method: Chromatography
Temperature, K	Activity coefficient of cycloheptane	uncertainty
328.15	3.63	0.25
338.15	3.5	0.24
348.15	3.35	0.23
358.15	3.26	0.22
368.15	3.15	0.21

System: cyclooctane + 2-octylisoquinolinium bis((trifluoromethyl)sulfonyl)amide; phases: Liquid
Fixed: Mole fraction of cyclooctane = 0
Fixed: Pressure, kPa = 101
Property: Activity coefficient of cyclooctane (Liquid); method: Chromatography
Temperature, K	Activity coefficient of cyclooctane	uncertainty
328.15	4.22	0.29
338.15	4.06	0.28
348.15	3.88	0.26
358.15	3.74	0.25
368.15	3.62	0.25

System: 1-pentene + 2-octylisoquinolinium bis((trifluoromethyl)sulfonyl)amide; phases: Liquid
Fixed: Mole fraction of 1-pentene = 0
Fixed: Pressure, kPa = 101
Property: Activity coefficient of 1-pentene (Liquid); method: Chromatography
Temperature, K	Activity coefficient of 1-pentene	uncertainty
328.15	2.65	0.18
338.15	2.62	0.18
348.15	2.59	0.18
358.15	2.56	0.17
368.15	2.53	0.17

System: hex-1-ene + 2-octylisoquinolinium bis((trifluoromethyl)sulfonyl)amide; phases: Liquid
Fixed: Mole fraction of hex-1-ene = 0
Fixed: Pressure, kPa = 101
Property: Activity coefficient of hex-1-ene (Liquid); method: Chromatography
Temperature, K	Activity coefficient of hex-1-ene	uncertainty
328.15	3.17	0.22
338.15	3.14	0.21
348.15	3.08	0.21
358.15	3.04	0.21
368.15	3	0.2

System: 1-heptene + 2-octylisoquinolinium bis((trifluoromethyl)sulfonyl)amide; phases: Liquid
Fixed: Mole fraction of 1-heptene = 0
Fixed: Pressure, kPa = 101
Property: Activity coefficient of 1-heptene (Liquid); method: Chromatography
Temperature, K	Activity coefficient of 1-heptene	uncertainty
328.15	3.95	0.27
338.15	3.89	0.26
348.15	3.83	0.26
358.15	3.77	0.26
368.15	3.72	0.25

System: oct-1-ene + 2-octylisoquinolinium bis((trifluoromethyl)sulfonyl)amide; phases: Liquid
Fixed: Mole fraction of oct-1-ene = 0
Fixed: Pressure, kPa = 101
Property: Activity coefficient of oct-1-ene (Liquid); method: Chromatography
Temperature, K	Activity coefficient of oct-1-ene	uncertainty
328.15	4.85	0.33
338.15	4.76	0.32
348.15	4.66	0.32
358.15	4.59	0.31
368.15	4.51	0.31

System: 1-hexyne + 2-octylisoquinolinium bis((trifluoromethyl)sulfonyl)amide; phases: Liquid
Fixed: Mole fraction of 1-hexyne = 0
Fixed: Pressure, kPa = 101
Property: Activity coefficient of 1-hexyne (Liquid); method: Chromatography
Temperature, K	Activity coefficient of 1-hexyne	uncertainty
328.15	1.6	0.11
338.15	1.62	0.11
348.15	1.63	0.11
358.15	1.65	0.11
368.15	1.66	0.11

System: 1-heptyne + 2-octylisoquinolinium bis((trifluoromethyl)sulfonyl)amide; phases: Liquid
Fixed: Mole fraction of 1-heptyne = 0
Fixed: Pressure, kPa = 101
Property: Activity coefficient of 1-heptyne (Liquid); method: Chromatography
Temperature, K	Activity coefficient of 1-heptyne	uncertainty
328.15	1.98	0.13
338.15	1.98	0.13
348.15	1.99	0.14
358.15	2	0.14
368.15	2	0.14

System: 1-octyne + 2-octylisoquinolinium bis((trifluoromethyl)sulfonyl)amide; phases: Liquid
Fixed: Mole fraction of 1-octyne = 0
Fixed: Pressure, kPa = 101
Property: Activity coefficient of 1-octyne (Liquid); method: Chromatography
Temperature, K	Activity coefficient of 1-octyne	uncertainty
328.15	2.4	0.16
338.15	2.41	0.16
348.15	2.4	0.16
358.15	2.43	0.17
368.15	2.44	0.17

System: benzene + 2-octylisoquinolinium bis((trifluoromethyl)sulfonyl)amide; phases: Liquid
Fixed: Mole fraction of benzene = 0
Fixed: Pressure, kPa = 101
Property: Activity coefficient of benzene (Liquid); method: Chromatography
Temperature, K	Activity coefficient of benzene	uncertainty
328.15	0.605	0.042
338.15	0.612	0.043
348.15	0.623	0.043
358.15	0.633	0.044
368.15	0.642	0.044

System: toluene + 2-octylisoquinolinium bis((trifluoromethyl)sulfonyl)amide; phases: Liquid
Fixed: Mole fraction of toluene = 0
Fixed: Pressure, kPa = 101
Property: Activity coefficient of toluene (Liquid); method: Chromatography
Temperature, K	Activity coefficient of toluene	uncertainty
328.15	0.728	0.048
338.15	0.745	0.049
348.15	0.762	0.05
358.15	0.778	0.051
368.15	0.796	0.052

System: ethylbenzene + 2-octylisoquinolinium bis((trifluoromethyl)sulfonyl)amide; phases: Liquid
Fixed: Mole fraction of ethylbenzene = 0
Fixed: Pressure, kPa = 101
Property: Activity coefficient of ethylbenzene (Liquid); method: Chromatography
Temperature, K	Activity coefficient of ethylbenzene	uncertainty
328.15	1	0.06
338.15	1.02	0.06
348.15	1.04	0.07
358.15	1.05	0.07
368.15	1.07	0.07

System: 1,2-dimethylbenzene + 2-octylisoquinolinium bis((trifluoromethyl)sulfonyl)amide; phases: Liquid
Fixed: Mole fraction of 1,2-dimethylbenzene = 0
Fixed: Pressure, kPa = 101
Property: Activity coefficient of 1,2-dimethylbenzene (Liquid); method: Chromatography
Temperature, K	Activity coefficient of 1,2-dimethylbenzene	uncertainty
328.15	0.799	0.052
338.15	0.823	0.053
348.15	0.843	0.054
358.15	0.861	0.055
368.15	0.88	0.056

System: 1,3-dimethylbenzene + 2-octylisoquinolinium bis((trifluoromethyl)sulfonyl)amide; phases: Liquid
Fixed: Mole fraction of 1,3-dimethylbenzene = 0
Fixed: Pressure, kPa = 101
Property: Activity coefficient of 1,3-dimethylbenzene (Liquid); method: Chromatography
Temperature, K	Activity coefficient of 1,3-dimethylbenzene	uncertainty
328.15	0.923	0.058
338.15	0.94	0.059
348.15	0.959	0.06
358.15	0.972	0.061
368.15	0.99	0.062

System: 1,4-dimethylbenzene + 2-octylisoquinolinium bis((trifluoromethyl)sulfonyl)amide; phases: Liquid
Fixed: Mole fraction of 1,4-dimethylbenzene = 0
Fixed: Pressure, kPa = 101
Property: Activity coefficient of 1,4-dimethylbenzene (Liquid); method: Chromatography
Temperature, K	Activity coefficient of 1,4-dimethylbenzene	uncertainty
328.15	0.938	0.059
338.15	0.956	0.06
348.15	0.967	0.061
358.15	0.983	0.062
368.15	0.995	0.062

System: methanol + 2-octylisoquinolinium bis((trifluoromethyl)sulfonyl)amide; phases: Liquid
Fixed: Mole fraction of methanol = 0
Fixed: Pressure, kPa = 101
Property: Activity coefficient of methanol (Liquid); method: Chromatography
Temperature, K	Activity coefficient of methanol	uncertainty
328.15	1.28	0.08
338.15	1.18	0.08
348.15	1.06	0.07
358.15	0.988	0.062
368.15	0.916	0.058

System: ethanol + 2-octylisoquinolinium bis((trifluoromethyl)sulfonyl)amide; phases: Liquid
Fixed: Mole fraction of ethanol = 0
Fixed: Pressure, kPa = 101
Property: Activity coefficient of ethanol (Liquid); method: Chromatography
Temperature, K	Activity coefficient of ethanol	uncertainty
328.15	1.45	0.1
338.15	1.32	0.09
348.15	1.2	0.08
358.15	1.1	0.07
368.15	1.03	0.06

System: propan-1-ol + 2-octylisoquinolinium bis((trifluoromethyl)sulfonyl)amide; phases: Liquid
Fixed: Mole fraction of propan-1-ol = 0
Fixed: Pressure, kPa = 101
Property: Activity coefficient of propan-1-ol (Liquid); method: Chromatography
Temperature, K	Activity coefficient of propan-1-ol	uncertainty
328.15	1.55	0.1
338.15	1.42	0.09
348.15	1.29	0.08
358.15	1.19	0.08
368.15	1.1	0.07

System: butan-1-ol + 2-octylisoquinolinium bis((trifluoromethyl)sulfonyl)amide; phases: Liquid
Fixed: Mole fraction of butan-1-ol = 0
Fixed: Pressure, kPa = 101
Property: Activity coefficient of butan-1-ol (Liquid); method: Chromatography
Temperature, K	Activity coefficient of butan-1-ol	uncertainty
328.15	1.75	0.12
338.15	1.6	0.11
348.15	1.42	0.09
358.15	1.31	0.09
368.15	1.21	0.08

System: water + 2-octylisoquinolinium bis((trifluoromethyl)sulfonyl)amide; phases: Liquid
Fixed: Mole fraction of water = 0
Fixed: Pressure, kPa = 101
Property: Activity coefficient of water (Liquid); method: Chromatography
Temperature, K	Activity coefficient of water	uncertainty
328.15	4.05	0.276
338.15	3.553	0.242
348.15	3.014	0.205
358.15	2.653	0.181
368.15	2.313	0.157

System: thiophene + 2-octylisoquinolinium bis((trifluoromethyl)sulfonyl)amide; phases: Liquid
Fixed: Mole fraction of thiophene = 0
Fixed: Pressure, kPa = 101
Property: Activity coefficient of thiophene (Liquid); method: Chromatography
Temperature, K	Activity coefficient of thiophene	uncertainty
328.15	0.564	0.041
338.15	0.571	0.041
348.15	0.575	0.041
358.15	0.58	0.041
368.15	0.586	0.042

System: tetrahydrofuran + 2-octylisoquinolinium bis((trifluoromethyl)sulfonyl)amide; phases: Liquid
Fixed: Mole fraction of tetrahydrofuran = 0
Fixed: Pressure, kPa = 101
Property: Activity coefficient of tetrahydrofuran (Liquid); method: Chromatography
Temperature, K	Activity coefficient of tetrahydrofuran	uncertainty
328.15	0.483	0.037
338.15	0.494	0.038
348.15	0.505	0.038
358.15	0.513	0.038
368.15	0.522	0.039

System: 2-methoxy-2-methylpropane + 2-octylisoquinolinium bis((trifluoromethyl)sulfonyl)amide; phases: Liquid
Fixed: Mole fraction of 2-methoxy-2-methylpropane = 0
Fixed: Pressure, kPa = 101
Property: Activity coefficient of 2-methoxy-2-methylpropane (Liquid); method: Chromatography
Temperature, K	Activity coefficient of 2-methoxy-2-methylpropane	uncertainty
328.15	1.35	0.09
338.15	1.37	0.09
348.15	1.39	0.09
358.15	1.4	0.09
368.15	1.42	0.09

System: diethyl ether + 2-octylisoquinolinium bis((trifluoromethyl)sulfonyl)amide; phases: Liquid
Fixed: Mole fraction of diethyl ether = 0
Fixed: Pressure, kPa = 101
Property: Activity coefficient of diethyl ether (Liquid); method: Chromatography
Temperature, K	Activity coefficient of diethyl ether	uncertainty
328.15	1.36	0.09
338.15	1.37	0.09
348.15	1.39	0.09
358.15	1.4	0.09
368.15	1.41	0.09

System: dipropyl ether + 2-octylisoquinolinium bis((trifluoromethyl)sulfonyl)amide; phases: Liquid
Fixed: Mole fraction of dipropyl ether = 0
Fixed: Pressure, kPa = 101
Property: Activity coefficient of dipropyl ether (Liquid); method: Chromatography
Temperature, K	Activity coefficient of dipropyl ether	uncertainty
328.15	2.56	0.17
338.15	2.53	0.17
348.15	2.51	0.17
358.15	2.47	0.17
368.15	2.45	0.17

System: dibutyl ether + 2-octylisoquinolinium bis((trifluoromethyl)sulfonyl)amide; phases: Liquid
Fixed: Mole fraction of dibutyl ether = 0
Fixed: Pressure, kPa = 101
Property: Activity coefficient of dibutyl ether (Liquid); method: Chromatography
Temperature, K	Activity coefficient of dibutyl ether	uncertainty
328.15	4.02	0.27
338.15	3.93	0.27
348.15	3.81	0.26
358.15	3.73	0.25
368.15	3.65	0.25

System: acetone + 2-octylisoquinolinium bis((trifluoromethyl)sulfonyl)amide; phases: Liquid
Fixed: Mole fraction of acetone = 0
Fixed: Pressure, kPa = 101
Property: Activity coefficient of acetone (Liquid); method: Chromatography
Temperature, K	Activity coefficient of acetone	uncertainty
328.15	0.402	0.034
338.15	0.405	0.034
348.15	0.407	0.034
358.15	0.409	0.034
368.15	0.412	0.034

System: pentan-2-one + 2-octylisoquinolinium bis((trifluoromethyl)sulfonyl)amide; phases: Liquid
Fixed: Mole fraction of pentan-2-one = 0
Fixed: Pressure, kPa = 101
Property: Activity coefficient of pentan-2-one (Liquid); method: Chromatography
Temperature, K	Activity coefficient of pentan-2-one	uncertainty
328.15	0.525	0.039
338.15	0.531	0.039
348.15	0.537	0.039
358.15	0.544	0.04
368.15	0.55	0.04

System: pentan-3-one + 2-octylisoquinolinium bis((trifluoromethyl)sulfonyl)amide; phases: Liquid
Fixed: Mole fraction of pentan-3-one = 0
Fixed: Pressure, kPa = 101
Property: Activity coefficient of pentan-3-one (Liquid); method: Chromatography
Temperature, K	Activity coefficient of pentan-3-one	uncertainty
328.15	0.533	0.039
338.15	0.541	0.04
348.15	0.55	0.04
358.15	0.557	0.04
368.15	0.563	0.04

System: pentan-1-ol + 2-octylisoquinolinium bis((trifluoromethyl)sulfonyl)amide; phases: Liquid
Fixed: Mole fraction of pentan-1-ol = 0
Fixed: Pressure, kPa = 101
Property: Activity coefficient of pentan-1-ol (Liquid); method: Chromatography
Temperature, K	Activity coefficient of pentan-1-ol	uncertainty
328.15	1.78	0.12
338.15	1.65	0.11
348.15	1.51	0.1
358.15	1.4	0.09
368.15	1.31	0.09
