Measured thermophysical data. Carbon dioxide solubility in aqueous sulfolane solution
Source: J. Chem. Thermodyn., 2019, 10.1016/j.jct.2018.12.004
Compound 1: carbon dioxide, CO2, InChI=1S/CO2/c2-1-3, purity 99.5%
Compound 2: sulfolane, C4H8O2S, InChI=1S/C4H8O2S/c5-7(6)3-1-2-4-7/h1-4H2, purity 99%
Compound 3: water, H2O, InChI=1S/H2O/h1H2, purity 99.9%

System: water + sulfolane + carbon dioxide; phases: Liquid, Gas
Property: Mole fraction of carbon dioxide (Liquid); method: Volumetric method
Solvent: Mole fraction of sulfolane	Temperature, K	Pressure, kPa	Mole fraction of carbon dioxide	uncertainty
0.0999	303.15	102	0.0009	0.0004
0.0999	303.15	196	0.0019	0.0004
0.0999	303.15	262	0.0025	0.0006
0.0999	303.15	340	0.0034	0.0006
0.0999	303.15	471	0.0046	0.0008
0.0999	303.15	615	0.0059	0.001
0.0999	303.15	815	0.0078	0.001
0.0999	303.15	1108	0.0106	0.0012
0.0999	313.15	111	0.0009	0.0004
0.0999	313.15	212	0.0017	0.0004
0.0999	313.15	282	0.0023	0.0006
0.0999	313.15	367	0.003	0.0006
0.0999	313.15	506	0.0042	0.0008
0.0999	313.15	657	0.0054	0.001
0.0999	313.15	871	0.0072	0.001
0.0999	313.15	1186	0.0096	0.0012
0.0999	323.15	121	0.0008	0.0004
0.0999	323.15	227	0.0016	0.0004
0.0999	323.15	301	0.0021	0.0006
0.0999	323.15	391	0.0029	0.0006
0.0999	323.15	537	0.0039	0.0008
0.0999	323.15	699	0.005	0.001
0.0999	323.15	922	0.0067	0.001
0.0999	323.15	1260	0.0088	0.0012
0.0999	333.15	133	0.0008	0.0004
0.0999	333.15	245	0.0015	0.0004
0.0999	333.15	322	0.002	0.0006
0.0999	333.15	417	0.0027	0.0006
0.0999	333.15	570	0.0037	0.0008
0.0999	333.15	740	0.0048	0.001
0.0999	333.15	975	0.0064	0.001
0.0999	333.15	1328	0.0084	0.0012
0.0999	343.15	147	0.0008	0.0004
0.0999	343.15	263	0.0015	0.0004
0.0999	343.15	344	0.002	0.0006
0.0999	343.15	442	0.0027	0.0006
0.0999	343.15	603	0.0036	0.0008
0.0999	343.15	781	0.0046	0.001
0.0999	343.15	1026	0.0062	0.001
0.0999	353.15	167	0.0008	0.0004
0.0999	353.15	287	0.0015	0.0004
0.0999	353.15	372	0.0019	0.0006
0.0999	353.15	476	0.0025	0.0006
0.0999	353.15	640	0.0035	0.0008
0.0999	353.15	824	0.0045	0.001
0.0999	353.15	1078	0.0061	0.001
0.2508	303.15	105	0.0021	0.0004
0.2508	303.15	168	0.0035	0.0006
0.2508	303.15	304	0.0062	0.0008
0.2508	303.15	435	0.0088	0.001
0.2508	303.15	595	0.0121	0.0012
0.2508	303.15	769	0.0159	0.0012
0.2508	303.15	1043	0.0208	0.0014
0.2508	313.15	117	0.0019	0.0004
0.2508	313.15	185	0.0032	0.0006
0.2508	313.15	332	0.0057	0.0008
0.2508	313.15	473	0.0081	0.001
0.2508	313.15	648	0.011	0.0012
0.2508	313.15	832	0.0147	0.0012
0.2508	313.15	1129	0.0191	0.0014
0.2508	323.15	128	0.0018	0.0004
0.2508	323.15	200	0.003	0.0006
0.2508	323.15	356	0.0054	0.0008
0.2508	323.15	507	0.0076	0.001
0.2508	323.15	693	0.0104	0.0012
0.2508	323.15	892	0.0138	0.0012
0.2508	323.15	1208	0.018	0.0014
0.2508	333.15	141	0.0017	0.0004
0.2508	333.15	219	0.0028	0.0006
0.2508	333.15	384	0.0051	0.0008
0.2508	333.15	543	0.0072	0.001
0.2508	333.15	742	0.0097	0.0012
0.2508	333.15	950	0.0131	0.0012
0.2508	333.15	1280	0.0172	0.0014
0.2508	343.15	157	0.0017	0.0004
0.2508	343.15	239	0.0027	0.0006
0.2508	343.15	411	0.0049	0.0008
0.2508	343.15	579	0.0069	0.001
0.2508	343.15	791	0.0093	0.0012
0.2508	343.15	1010	0.0125	0.0012
0.2508	353.15	176	0.0016	0.0004
0.2508	353.15	262	0.0026	0.0006
0.2508	353.15	444	0.0047	0.0008
0.2508	353.15	620	0.0066	0.001
0.2508	353.15	840	0.009	0.0012
0.2508	353.15	1070	0.0121	0.0014
0.3495	303.15	86	0.0026	0.0006
0.3495	303.15	185	0.0062	0.0008
0.3495	303.15	328	0.0109	0.001
0.3495	303.15	499	0.0169	0.0014
0.3495	303.15	626	0.0212	0.0016
0.3495	303.15	751	0.0255	0.0018
0.3495	313.15	95	0.0024	0.0006
0.3495	313.15	202	0.0057	0.0008
0.3495	313.15	355	0.0101	0.001
0.3495	313.15	540	0.0157	0.0014
0.3495	313.15	677	0.0196	0.0016
0.3495	313.15	812	0.0237	0.0018
0.3495	323.15	104	0.0023	0.0006
0.3495	323.15	219	0.0054	0.0008
0.3495	323.15	382	0.0095	0.001
0.3495	323.15	579	0.0147	0.0014
0.3495	323.15	727	0.0184	0.0016
0.3495	323.15	871	0.0222	0.0018
0.3495	333.15	116	0.0022	0.0006
0.3495	333.15	237	0.0051	0.0008
0.3495	333.15	410	0.009	0.001
0.3495	333.15	619	0.014	0.0014
0.3495	333.15	776	0.0174	0.0016
0.3495	333.15	930	0.021	0.0018
0.3495	343.15	129	0.0021	0.0006
0.3495	343.15	256	0.005	0.0008
0.3495	343.15	438	0.0087	0.001
0.3495	343.15	658	0.0135	0.0014
0.3495	343.15	825	0.0167	0.0016
0.3495	343.15	987	0.0201	0.0018
0.3495	353.15	148	0.002	0.0006
0.3495	353.15	281	0.0048	0.0008
0.3495	353.15	470	0.0084	0.001
0.3495	353.15	701	0.013	0.0014
0.3495	353.15	878	0.0159	0.0016
0.3495	353.15	1047	0.0193	0.0018
0.4692	303.15	114	0.005	0.0008
0.4692	303.15	207	0.0093	0.0012
0.4692	303.15	308	0.0139	0.0014
0.4692	303.15	430	0.0193	0.0018
0.4692	303.15	634	0.0287	0.002
0.4692	303.15	869	0.0403	0.0024
0.4692	313.15	124	0.0047	0.0008
0.4692	313.15	223	0.0087	0.0012
0.4692	313.15	330	0.0132	0.0014
0.4692	313.15	464	0.018	0.0018
0.4692	313.15	683	0.0267	0.002
0.4692	313.15	938	0.0374	0.0024
0.4692	323.15	136	0.0044	0.0008
0.4692	323.15	242	0.0081	0.0012
0.4692	323.15	353	0.0125	0.0014
0.4692	323.15	499	0.0167	0.0018
0.4692	323.15	734	0.0249	0.002
0.4692	323.15	1007	0.0349	0.0024
0.4692	333.15	149	0.0041	0.0008
0.4692	333.15	261	0.0077	0.0012
0.4692	333.15	380	0.0117	0.0014
0.4692	333.15	535	0.0157	0.0018
0.4692	333.15	783	0.0234	0.002
0.4692	333.15	1072	0.0331	0.0024
0.4692	343.15	164	0.0039	0.0008
0.4692	343.15	282	0.0073	0.0012
0.4692	343.15	411	0.0109	0.0014
0.4692	343.15	572	0.0148	0.0018
0.4692	343.15	833	0.0222	0.002
0.4692	343.15	1138	0.0314	0.0024
0.4692	353.15	186	0.0036	0.0008
0.4692	353.15	311	0.0067	0.0012
0.4692	353.15	614	0.0139	0.0018
0.4692	353.15	890	0.0209	0.002
0.4692	353.15	1205	0.0301	0.0024
0.5878	303.15	120	0.0073	0.0011
0.5878	303.15	203	0.0123	0.0014
0.5878	303.15	337	0.0204	0.0016
0.5878	303.15	476	0.0287	0.002
0.5878	303.15	582	0.035	0.0022
0.5878	303.15	743	0.0442	0.0026
0.5878	303.15	888	0.0528	0.0028
0.5878	313.15	132	0.0068	0.001
0.5878	313.15	222	0.0114	0.0014
0.5878	313.15	368	0.0188	0.0016
0.5878	313.15	518	0.0266	0.002
0.5878	313.15	633	0.0324	0.0022
0.5878	313.15	808	0.041	0.0026
0.5878	313.15	966	0.0489	0.0028
0.5878	323.15	146	0.0062	0.001
0.5878	323.15	243	0.0105	0.0014
0.5878	323.15	400	0.0174	0.0016
0.5878	323.15	561	0.0247	0.002
0.5878	323.15	685	0.0302	0.0022
0.5878	323.15	872	0.0382	0.0026
0.5878	323.15	1042	0.0457	0.0028
0.5878	333.15	161	0.0058	0.001
0.5878	333.15	264	0.0098	0.0014
0.5878	333.15	432	0.0162	0.0016
0.5878	333.15	604	0.0231	0.002
0.5878	333.15	736	0.0282	0.0024
0.5878	333.15	935	0.0358	0.0026
0.5878	333.15	1116	0.0429	0.003
0.5878	343.15	178	0.0054	0.001
0.5878	343.15	287	0.0092	0.0014
0.5878	343.15	466	0.0152	0.0016
0.5878	343.15	647	0.0217	0.002
0.5878	343.15	789	0.0264	0.0024
0.5878	343.15	997	0.0338	0.0026
0.5878	343.15	1188	0.0407	0.003
0.5878	353.15	200	0.0048	0.001
0.5878	353.15	315	0.0085	0.0014
0.5878	353.15	502	0.0143	0.0016
0.5878	353.15	695	0.0204	0.002
0.5878	353.15	843	0.0249	0.0024
0.5878	353.15	1061	0.0321	0.0026
0.5878	353.15	1260	0.0388	0.003
0.7384	303.15	100	0.0066	0.0011
0.7384	303.15	193	0.0131	0.0014
0.7384	303.15	338	0.0229	0.0018
0.7384	303.15	483	0.0326	0.0022
0.7384	303.15	630	0.0422	0.0026
0.7384	303.15	779	0.0516	0.003
0.7384	303.15	922	0.0607	0.0032
0.7384	313.15	110	0.0061	0.001
0.7384	313.15	212	0.0121	0.0014
0.7384	313.15	371	0.0212	0.0018
0.7384	313.15	530	0.0301	0.0022
0.7384	313.15	695	0.0387	0.0026
0.7384	313.15	856	0.0476	0.003
0.7384	313.15	1011	0.0562	0.0034
0.7384	323.15	122	0.0056	0.001
0.7384	323.15	233	0.0112	0.0014
0.7384	323.15	405	0.0196	0.0018
0.7384	323.15	576	0.028	0.0022
0.7384	323.15	756	0.0358	0.0026
0.7384	323.15	930	0.0441	0.003
0.7384	323.15	1098	0.0521	0.0034
0.7384	333.15	135	0.0052	0.001
0.7384	333.15	254	0.0104	0.0014
0.7384	333.15	438	0.0183	0.002
0.7384	333.15	621	0.0262	0.0022
0.7384	333.15	816	0.0333	0.0026
0.7384	333.15	1002	0.0412	0.003
0.7384	333.15	1180	0.049	0.0034
0.7384	343.15	147	0.005	0.001
0.7384	343.15	274	0.0099	0.0014
0.7384	343.15	470	0.0173	0.002
0.7384	343.15	664	0.0248	0.0022
0.7384	343.15	871	0.0315	0.0026
0.7384	343.15	1070	0.0389	0.003
0.7384	343.15	1254	0.0467	0.0034
0.7384	353.15	162	0.0047	0.001
0.7384	353.15	297	0.0093	0.0014
0.7384	353.15	504	0.0163	0.002
0.7384	353.15	708	0.0236	0.0022
0.7384	353.15	926	0.03	0.0026
0.7384	353.15	1137	0.037	0.003
0.7384	353.15	1325	0.0449	0.0034
0.8856	303.15	90	0.0076	0.0011
0.8856	303.15	173	0.0143	0.0015
0.8856	303.15	275	0.023	0.0019
0.8856	303.15	377	0.0312	0.0021
0.8856	303.15	475	0.0399	0.0025
0.8856	303.15	591	0.0497	0.0027
0.8856	303.15	727	0.061	0.0031
0.8856	313.15	100	0.0071	0.0011
0.8856	313.15	192	0.0133	0.0014
0.8856	313.15	306	0.0213	0.0018
0.8856	313.15	419	0.0289	0.0022
0.8856	313.15	530	0.037	0.0024
0.8856	313.15	659	0.0461	0.0026
0.8856	313.15	810	0.0567	0.003
0.8856	323.15	111	0.0066	0.001
0.8856	323.15	212	0.0124	0.0014
0.8856	323.15	336	0.0199	0.0018
0.8856	323.15	460	0.0269	0.0022
0.8856	323.15	582	0.0345	0.0024
0.8856	323.15	722	0.0431	0.0028
0.8856	323.15	889	0.053	0.003
0.8856	333.15	122	0.0062	0.001
0.8856	333.15	231	0.0116	0.0014
0.8856	333.15	366	0.0186	0.0018
0.8856	333.15	500	0.0252	0.0022
0.8856	333.15	633	0.0323	0.0024
0.8856	333.15	786	0.0403	0.0028
0.8856	333.15	967	0.0496	0.003
0.8856	343.15	134	0.0058	0.001
0.8856	343.15	250	0.011	0.0014
0.8856	343.15	394	0.0175	0.0018
0.8856	343.15	539	0.0238	0.0022
0.8856	343.15	684	0.0302	0.0024
0.8856	343.15	847	0.038	0.0028
0.8856	343.15	1042	0.0468	0.0032
0.8856	353.15	147	0.0054	0.001
0.8856	353.15	271	0.0103	0.0014
0.8856	353.15	426	0.0164	0.0018
0.8856	353.15	577	0.0225	0.0022
0.8856	353.15	732	0.0286	0.0024
0.8856	353.15	907	0.0359	0.0028
0.8856	353.15	1115	0.0443	0.0032
0.9313	303.15	109	0.0099	0.0011
0.9313	303.15	148	0.0135	0.0015
0.9313	303.15	252	0.0229	0.0017
0.9313	303.15	375	0.0335	0.0021
0.9313	303.15	514	0.0461	0.0023
0.9313	303.15	658	0.0582	0.0027
0.9313	303.15	782	0.0692	0.0029
0.9313	313.15	122	0.0093	0.0011
0.9313	313.15	166	0.0126	0.0015
0.9313	313.15	282	0.0215	0.0017
0.9313	313.15	420	0.0314	0.002
0.9313	313.15	579	0.043	0.0022
0.9313	313.15	738	0.0546	0.0027
0.9313	313.15	879	0.0648	0.0029
0.9313	323.15	137	0.0086	0.0011
0.9313	323.15	185	0.0118	0.0014
0.9313	323.15	314	0.0201	0.0016
0.9313	323.15	465	0.0294	0.002
0.9313	323.15	641	0.0403	0.0024
0.9313	323.15	817	0.0512	0.0026
0.9313	323.15	973	0.0608	0.003
0.9313	333.15	150	0.0081	0.001
0.9313	333.15	202	0.0111	0.0014
0.9313	333.15	343	0.0189	0.0016
0.9313	333.15	508	0.0277	0.002
0.9313	333.15	703	0.0378	0.0024
0.9313	333.15	892	0.0482	0.0026
0.9313	333.15	1064	0.0573	0.003
0.9313	343.15	164	0.0077	0.001
0.9313	343.15	221	0.0104	0.0014
0.9313	343.15	374	0.0178	0.0016
0.9313	343.15	552	0.0261	0.002
0.9313	343.15	759	0.0359	0.0024
0.9313	343.15	967	0.0456	0.0026
0.9313	343.15	1152	0.0542	0.003
0.9313	353.15	177	0.0073	0.001
0.9313	353.15	238	0.0099	0.0014
0.9313	353.15	403	0.0168	0.0016
0.9313	353.15	592	0.0248	0.002
0.9313	353.15	817	0.0339	0.0024
0.9313	353.15	1040	0.0432	0.0028
0.9313	353.15	1237	0.0515	0.003
