Measured thermophysical data. (Liquid + liquid) equilibrium data for the separation of 2,3-butanediol from aqueous streams using tetraoctyl ammonium 2-methyl-1-naphthoate
Source: J. Chem. Thermodyn., 2012, 10.1016/j.jct.2012.06.013
Compound 1: (R*,S*)-2,3-butanediol, C4H10O2, InChI=1S/C4H10O2/c1-3(5)4(2)6/h3-6H,1-2H3/t3-,4+
Compound 2: water, H2O, InChI=1S/H2O/h1H2, purity 99.8%
Compound 3: tetraoctylammonium 2-methyl-1-naphthoate, C44H77NO2, InChI=1S/C32H68N.C12H10O2/c1-5-9-13-17-21-25-29-33(30-26-22-18-14-10-6-2,31-27-23-19-15-11-7-3)32-28-24-20-16-12-8-4;1-8-6-7-9-4-2-3-5-10(9)11(8)12(13)14/h5-32H2,1-4H3;2-7H,1H3,(H,13,14)/q+1;/p-1

System: (R*,S*)-2,3-butanediol + water + tetraoctylammonium 2-methyl-1-naphthoate; phases: Liquid mixture 1, Liquid mixture 2
Fixed: Pressure, kPa = 101
Property: Mass fraction of water (Liquid mixture 1); method: Chromatography
Property: Mass fraction of water (Liquid mixture 2); method: Chromatography
Property: Mass fraction of (R*,S*)-2,3-butanediol (Liquid mixture 2); method: Chromatography
Temperature, K	Mass fraction of (R*,S*)-2,3-butanediol	Mass fraction of water	uncertainty	Mass fraction of water	uncertainty	Mass fraction of (R*,S*)-2,3-butanediol	uncertainty
313.2	0	0.103	0.01	0.999	0.001	0	
353.2	0.098	0.068	0.01	0.776	0.01	0.22	
353.2	0.111	0.06	0.01	0.69	0.01	0.305	
313.2	0.026	0.092	0.01	0.974	0.01	0.024	
353.2	0.13	0.057	0.01	0.6	0.011	0.391	
353.2	0.165	0.05	0.01	0.464	0.011	0.523	
313.2	0.102	0.082	0.01	0.872	0.01	0.124	
313.2	0.148	0.072	0.01	0.686	0.01	0.305	
313.2	0.206	0.06	0.01	0.501	0.011	0.487	
313.2	0.263	0.054	0.01	0.263	0.01	0.721	
333.2	0	0.091	0.01	0.999	0.001	0	
333.2	0.11	0.071	0.01	0.78	0.01	0.215	
333.2	0.025	0.086	0.01	0.972	0.01	0.027	
333.2	0.093	0.078	0.01	0.869	0.01	0.127	
333.2	0.131	0.066	0.01	0.681	0.01	0.312	
333.2	0.151	0.063	0.01	0.61	0.011	0.381	
333.2	0.172	0.057	0.01	0.497	0.011	0.491	
333.2	0.183	0.053	0.01	0.415	0.011	0.571	
353.2	0	0.089	0.01	0.999	0.001	0	
353.2	0.023	0.081	0.01	0.97	0.01	0.029	
353.2	0.083	0.073	0.01	0.867	0.01	0.131	

System: water + tetraoctylammonium 2-methyl-1-naphthoate; phases: Liquid mixture 1, Liquid mixture 2
Fixed: Pressure, kPa = 101
Property: Mass fraction of water (Liquid mixture 1); method: Chromatography
Temperature, K	Mass fraction of water	uncertainty
313.2	0.103	0.01
333.2	0.091	0.01
353.2	0.089	0.01

System: water + tetraoctylammonium 2-methyl-1-naphthoate; phases: Liquid mixture 2, Liquid mixture 1
Fixed: Pressure, kPa = 101
Property: Mass fraction of water (Liquid mixture 2); method: Chromatography
Temperature, K	Mass fraction of water	uncertainty
313.2	0.999	0.001
333.2	0.999	0.001
353.2	0.999	0.001
