Measured thermophysical data. The molar enthalpies of solution and vapour pressures of saturated aqueous solutions of some cesium salts
Source: J. Chem. Thermodyn., 2006, 10.1016/j.jct.2005.04.016
Compound 1: water, H2O, InChI=1S/H2O/h1H2
Compound 2: cesium chloride, ClCs, InChI=1S/ClH.Cs/h1H;/q;+1/p-1, purity 99.5%
Compound 3: cesium bromide, BrCs, InChI=1S/BrH.Cs/h1H;/q;+1/p-1, purity 99%
Compound 4: cesium nitrate, CsNO3, InChI=1S/Cs.NO3/c;2-1(3)4/q+1;-1, purity 99%
Compound 5: cesium sulfate, Cs2O4S, InChI=1S/2Cs.H2O4S/c;;1-5(2,3)4/h;;(H2,1,2,3,4)/q2*+1;/p-2, purity 99%
Compound 6: cesium formate, CHCsO2, InChI=1S/CH2O2.Cs/c2-1-3;/h1H,(H,2,3);/q;+1/p-1, purity 95%
Compound 7: cesium oxalate, C2Cs2O4, InChI=1S/C2H2O4.2Cs/c3-1(4)2(5)6;;/h(H,3,4)(H,5,6);;/q;2*+1/p-2, purity 97%

System: cesium chloride + water; phases: Liquid, Gas, Crystal
Property: Vapor or sublimation pressure, kPa (Liquid); method: CCELL:UFactor:3
Temperature, K	Vapor or sublimation pressure, kPa	uncertainty
280.55	0.697	0.05
282.15	0.786	0.055
282.45	0.787	0.055
284.85	0.94	0.064
287.75	1.122	0.075
289.55	1.259	0.084
292.25	1.49	0.078
294.05	1.664	0.081
295.85	1.852	0.083
297.75	2.061	0.086
298.45	2.171	0.087
298.95	2.196	0.087
300.25	2.414	0.09
302.15	2.665	0.093
304.05	2.95	0.097
305.75	3.248	0.101
305.85	3.251	0.101
307.85	3.591	0.105
309.65	3.965	0.11
311.35	4.302	0.114
312.75	4.732	0.12
313.35	4.76	0.12
314.65	5.187	0.126
317.55	5.951	0.135
317.95	5.98	0.136
320.75	6.788	0.146
321.05	6.802	0.146
324.85	8.108	0.164

System: cesium chloride + water; phases: Liquid
Fixed: Pressure, kPa = 101
Property: Molar enthalpy of solution, kJ/mol (Liquid); method: FLOW:UFactor:4
Molality, mol/kg of cesium chloride	Temperature, K	Molar enthalpy of solution, kJ/mol	uncertainty
0.0297	297.64	17.51	0.7
0.0602	297.29	17.901	0.716
0.0609	295.66	17.358	0.694
0.0618	293.16	18.793	0.752
0.0629	292.9	17.8	0.712
0.0636	294.44	18.032	0.721
0.0638	299.01	17.385	0.695

System: water + cesium bromide; phases: Liquid, Gas, Crystal
Property: Vapor or sublimation pressure, kPa (Liquid); method: CCELL:UFactor:3
Temperature, K	Vapor or sublimation pressure, kPa	uncertainty
281.35	0.919	0.063
283.55	1.052	0.071
284.85	1.177	0.079
286.85	1.333	0.076
286.95	1.333	0.076
288.65	1.49	0.078
290.45	1.675	0.081
294.25	2.095	0.086
294.95	2.142	0.087
295.95	2.335	0.089
297.95	2.611	0.093
298.75	2.755	0.095
300.55	3.056	0.098
302.25	3.362	0.102
303.95	3.72	0.107
307.05	4.361	0.115
308.55	4.78	0.121
310.55	5.275	0.127
312.35	5.785	0.134
314.65	6.498	0.144
316.15	6.986	0.15
317.85	7.62	0.158
318.25	7.663	0.159
319.85	8.368	0.168
321.75	9.118	0.178
323.75	9.97	0.19
325.55	10.794	0.2

System: water + cesium bromide; phases: Liquid
Fixed: Pressure, kPa = 101
Property: Molar enthalpy of solution, kJ/mol (Liquid); method: FLOW:UFactor:4
Molality, mol/kg of cesium bromide	Temperature, K	Molar enthalpy of solution, kJ/mol	uncertainty
0.0236	294.4	27.797	1.112
0.0237	292.34	26.638	1.066
0.0237	294.55	26.617	1.065
0.0237	295.49	26.399	1.056
0.0238	293.36	26.91	1.076
0.0239	292.49	26.156	1.046
0.0239	294.09	27.099	1.084
0.0239	295.19	27.679	1.107

System: water + cesium nitrate; phases: Liquid, Gas, Crystal
Property: Vapor or sublimation pressure, kPa (Liquid); method: CCELL:UFactor:4
Temperature, K	Vapor or sublimation pressure, kPa	uncertainty
280.95	1.056	0.095
282.95	1.178	0.105
284.85	1.343	0.102
286.55	1.499	0.104
287.45	1.592	0.106
289.35	1.803	0.109
291.25	2.033	0.113
293.15	2.289	0.117
295.05	2.589	0.122
296.75	2.858	0.127
298.65	3.199	0.133
300.65	3.592	0.139
302.25	3.954	0.145
302.55	3.99	0.146
304.25	4.426	0.153
306.05	4.88	0.161
308.05	5.45	0.17
309.95	6.025	0.18
311.95	6.666	0.191
312.65	7.079	0.198
314.65	7.68	0.208
316.55	8.422	0.221
317.65	9.206	0.234
318.45	9.252	0.235
319.55	10.085	0.249
321.55	11.067	0.266
323.55	12.164	0.284

System: water + cesium nitrate; phases: Liquid
Fixed: Pressure, kPa = 101
Property: Molar enthalpy of solution, kJ/mol (Liquid); method: FLOW:UFactor:8
Molality, mol/kg of cesium nitrate	Temperature, K	Molar enthalpy of solution, kJ/mol	uncertainty
0.0257	293.6	36.566	2.925
0.0257	294.42	37.845	3.028
0.0257	296.34	40.156	3.213
0.0258	294.26	35.42	2.834
0.0258	295.47	33.27	2.662
0.0259	294.19	37.415	2.993
0.0259	294.44	38.982	3.119

System: water + cesium sulfate; phases: Liquid, Gas, Crystal
Property: Vapor or sublimation pressure, kPa (Liquid); method: CCELL:UFactor:3
Temperature, K	Vapor or sublimation pressure, kPa	uncertainty
283.25	0.941	0.065
286.35	1.141	0.077
288.25	1.294	0.086
289.75	1.443	0.078
291.55	1.626	0.08
293.25	1.812	0.082
295.05	2.034	0.085
296.85	2.275	0.088
298.85	2.563	0.092
300.75	2.859	0.096
302.55	3.187	0.1
304.05	3.495	0.104
305.95	3.892	0.109
307.75	4.292	0.115
309.55	4.752	0.121
312.55	5.597	0.132
315.05	6.35	0.142
316.55	6.974	0.15
316.85	6.967	0.15
318.85	7.704	0.159
320.65	8.42	0.169
322.05	9.174	0.179
323.85	10.032	0.19
324.25	10.036	0.19
325.85	10.896	0.202
327.75	11.914	0.215

System: water + cesium sulfate; phases: Liquid
Fixed: Pressure, kPa = 101
Property: Molar enthalpy of solution, kJ/mol (Liquid); method: FLOW:UFactor:6
Molality, mol/kg of cesium sulfate	Temperature, K	Molar enthalpy of solution, kJ/mol	uncertainty
0.0279	293.75	16.979	1.019
0.0279	295.79	17.364	1.042
0.0279	296.18	16.583	0.995
0.0279	296.29	16.977	1.019
0.028	297.75	17.073	1.025
0.028	298.07	17.271	1.036
0.0284	297.07	16.45	0.987
0.0291	295.63	16.242	0.975
0.0301	297.33	17.487	1.049

System: cesium formate + water; phases: Liquid, Gas, Crystal
Property: Vapor or sublimation pressure, kPa (Liquid); method: CCELL:UFactor:3
Temperature, K	Vapor or sublimation pressure, kPa	uncertainty
281.45	0.197	0.02
283.25	0.226	0.021
285.05	0.259	0.023
286.85	0.295	0.026
288.55	0.332	0.028
290.55	0.38	0.031
292.25	0.429	0.034
294.05	0.485	0.037
295.85	0.544	0.041
297.75	0.616	0.045
299.55	0.689	0.05
303.05	0.833	0.058
303.25	0.862	0.06
305.15	0.971	0.067
306.75	1.077	0.073
308.55	1.202	0.081
310.45	1.328	0.077
312.35	1.478	0.079
314.05	1.634	0.081
316.05	1.815	0.084
317.75	2.001	0.086
321.65	2.428	0.092

System: cesium formate + water; phases: Liquid
Fixed: Pressure, kPa = 101
Property: Molar enthalpy of solution, kJ/mol (Liquid); method: FLOW:UFactor:6
Molality, mol/kg of cesium formate	Temperature, K	Molar enthalpy of solution, kJ/mol	uncertainty
0.0281	294.25	11.217	0.673
0.0282	295.65	10.806	0.648
0.0284	297.03	11.276	0.677
0.0564	293.25	11.563	0.694
0.0567	292.05	11.847	0.711
0.057	293.39	12.179	0.731
0.0581	292.82	10.669	0.64
0.0606	291.71	11.546	0.693

System: water + cesium oxalate; phases: Liquid, Gas, Crystal
Property: Vapor or sublimation pressure, kPa (Liquid); method: CCELL:UFactor:3
Temperature, K	Vapor or sublimation pressure, kPa	uncertainty
281.55	0.631	0.046
283.25	0.708	0.051
285.05	0.793	0.056
287.65	0.936	0.064
289.55	1.048	0.071
290.55	1.103	0.075
292.25	1.218	0.081
294.25	1.356	0.077
295.85	1.493	0.079
295.95	1.496	0.079
296.75	1.579	0.08
298.15	1.717	0.082
298.65	1.746	0.082
300.45	1.906	0.084
302.25	2.076	0.087
304.15	2.301	0.09
306.05	2.532	0.093
307.85	2.778	0.096
309.95	3.074	0.1
311.55	3.347	0.104
313.55	3.672	0.108
315.35	3.98	0.112
317.35	4.371	0.118
319.65	4.96	0.126
321.35	5.382	0.132
323.25	5.868	0.139

System: water + cesium oxalate; phases: Liquid
Fixed: Pressure, kPa = 101
Property: Molar enthalpy of solution, kJ/mol (Liquid); method: FLOW:UFactor:4
Molality, mol/kg of cesium oxalate	Temperature, K	Molar enthalpy of solution, kJ/mol	uncertainty
0.0142	290.74	22.273	0.891
0.0143	290.27	22.114	0.885
0.0144	292.14	21.966	0.879
0.0144	292.21	21.908	0.876
