Measured thermophysical data. Volumetric and refractive properties of binary mixtures containing 1,4-dioxane and chloroalkanes
Source: J. Chem. Thermodyn., 2007, 10.1016/j.jct.2006.05.003
Compound 1: 1,4-dioxane, C4H8O2, InChI=1S/C4H8O2/c1-2-6-4-3-5-1/h1-4H2
Compound 2: 1-chloropropane, C3H7Cl, InChI=1S/C3H7Cl/c1-2-3-4/h2-3H2,1H3
Compound 3: 1-chlorobutane, C4H9Cl, InChI=1S/C4H9Cl/c1-2-3-4-5/h2-4H2,1H3
Compound 4: 2-chlorobutane, C4H9Cl, InChI=1S/C4H9Cl/c1-3-4(2)5/h4H,3H2,1-2H3
Compound 5: 1-chloro-2-methylpropane, C4H9Cl, InChI=1S/C4H9Cl/c1-4(2)3-5/h4H,3H2,1-2H3
Compound 6: 2-chloro-2-methylpropane, C4H9Cl, InChI=1S/C4H9Cl/c1-4(2,3)5/h1-3H3

System: 1,4-dioxane; phases: Liquid
Fixed: Pressure, kPa = 101.325
Property: Refractive index (Na D-line) (Liquid); method: Standard Abbe refractometry
Temperature, K	Refractive index (Na D-line)	uncertainty
298.15	1.419948	0.000578
313.15	1.412637	0.000578

System: 1,4-dioxane; phases: Liquid
Fixed: Pressure, kPa = 101
Property: Mass density, kg/m3 (Liquid); method: VIBTUB:UFactor:8
Temperature, K	Mass density, kg/m3	uncertainty
298.15	1027.87	0.34
313.15	1010.69	0.28

System: 1-chloropropane; phases: Liquid
Fixed: Pressure, kPa = 101.325
Property: Refractive index (Na D-line) (Liquid); method: Standard Abbe refractometry
Temperature, K	Refractive index (Na D-line)	uncertainty
298.15	1.385604	0.000697
313.15	1.37673	0.000697

System: 1-chloropropane; phases: Liquid
Fixed: Pressure, kPa = 101
Property: Mass density, kg/m3 (Liquid); method: VIBTUB::UFactor:8
Temperature, K	Mass density, kg/m3	uncertainty
298.15	884.26	0.77
313.15	865.14	0.82

System: 1-chlorobutane; phases: Liquid
Fixed: Pressure, kPa = 101.325
Property: Refractive index (Na D-line) (Liquid); method: Standard Abbe refractometry
Temperature, K	Refractive index (Na D-line)	uncertainty
298.15	1.399499	0.000658
313.15	1.391332	0.000658

System: 1-chlorobutane; phases: Liquid
Fixed: Pressure, kPa = 101
Property: Mass density, kg/m3 (Liquid); method: VIBTUB::UFactor:8
Temperature, K	Mass density, kg/m3	uncertainty
298.15	880.69	0.77
313.15	863.82	0.82

System: 2-chlorobutane; phases: Liquid
Fixed: Pressure, kPa = 101.325
Property: Refractive index (Na D-line) (Liquid); method: Standard Abbe refractometry
Temperature, K	Refractive index (Na D-line)	uncertainty
298.15	1.394043	0.000665
313.15	1.385735	0.000665

System: 2-chlorobutane; phases: Liquid
Fixed: Pressure, kPa = 101
Property: Mass density, kg/m3 (Liquid); method: VIBTUB::UFactor:8
Temperature, K	Mass density, kg/m3	uncertainty
298.15	867.4	0.81
313.15	850.13	0.86

System: 1-chloro-2-methylpropane; phases: Liquid
Fixed: Pressure, kPa = 101.325
Property: Refractive index (Na D-line) (Liquid); method: Standard Abbe refractometry
Temperature, K	Refractive index (Na D-line)	uncertainty
298.15	1.395284	0.000672
313.15	1.386856	0.000672

System: 1-chloro-2-methylpropane; phases: Liquid
Fixed: Pressure, kPa = 101
Property: Mass density, kg/m3 (Liquid); method: VIBTUB::UFactor:8
Temperature, K	Mass density, kg/m3	uncertainty
298.15	871.13	0.8
313.15	853.51	0.85

System: 2-chloro-2-methylpropane; phases: Liquid
Fixed: Pressure, kPa = 101.325
Property: Refractive index (Na D-line) (Liquid); method: Standard Abbe refractometry
Temperature, K	Refractive index (Na D-line)	uncertainty
298.15	1.382241	0.00071
313.15	1.373143	0.00071

System: 2-chloro-2-methylpropane; phases: Liquid
Fixed: Pressure, kPa = 101
Property: Mass density, kg/m3 (Liquid); method: VIBTUB::UFactor:8
Temperature, K	Mass density, kg/m3	uncertainty
298.15	836.45	0.9
313.15	818.31	0.95

System: 1,4-dioxane + 1-chloropropane; phases: Liquid
Fixed: Pressure, kPa = 101
Property: Refractive index (Na D-line) (Liquid); method: Standard Abbe refractometry
Temperature, K	Mole fraction of 1,4-dioxane	Refractive index (Na D-line)	uncertainty
298.15	0	1.385604	0.000697
298.15	0.1027	1.389187	0.000699
298.15	0.2077	1.392806	0.000695
298.15	0.3029	1.396085	0.000691
298.15	0.4034	1.399566	0.000687
298.15	0.506	1.40308	0.000617
298.15	0.6062	1.406513	0.000681
298.15	0.706	1.409896	0.000679
298.15	0.8081	1.413365	0.000678
298.15	0.9059	1.416733	0.000676
298.15	0.9486	1.418181	0.000676
298.15	1	1.419948	0.000578
313.15	0	1.37673	0.000697
313.15	0.1009	1.380465	0.000693
313.15	0.2026	1.384323	0.000687
313.15	0.3067	1.388117	0.000668
313.15	0.4061	1.391688	0.000655
313.15	0.5056	1.395231	0.000618
313.15	0.6044	1.39872	0.000639
313.15	0.7114	1.402517	0.000642
313.15	0.8026	1.405761	0.000631
313.15	0.9011	1.409216	0.000618
313.15	0.951	1.410968	0.000592
313.15	1	1.412637	0.000578

System: 1,4-dioxane + 1-chloropropane; phases: Liquid
Fixed: Pressure, kPa = 101
Property: Mass density, kg/m3 (Liquid); method: VIBTUB:UFactor:8
Temperature, K	Mole fraction of 1,4-dioxane	Mass density, kg/m3	uncertainty
298.15	0	884.26	0.77
298.15	0.1027	898.64	0.7
298.15	0.2077	913.41	0.63
298.15	0.3029	926.89	0.57
298.15	0.4034	941.19	0.5
298.15	0.506	955.87	0.44
298.15	0.6062	970.28	0.38
298.15	0.706	984.73	0.32
298.15	0.8081	999.6	0.27
298.15	0.9059	1013.96	0.3
298.15	0.9486	1020.26	0.32
298.15	1	1027.87	0.34
313.15	0	865.14	0.82
313.15	0.1009	879.74	0.75
313.15	0.2026	894.27	0.69
313.15	0.3067	909.2	0.62
313.15	0.4061	923.53	0.56
313.15	0.5056	937.97	0.49
313.15	0.6044	952.38	0.44
313.15	0.7114	968.04	0.37
313.15	0.8026	981.42	0.32
313.15	0.9011	995.98	0.27
313.15	0.951	1003.38	0.27
313.15	1	1010.69	0.28

System: 1-chlorobutane + 1,4-dioxane; phases: Liquid
Fixed: Pressure, kPa = 101
Property: Refractive index (Na D-line) (Liquid); method: Standard Abbe refractometry
Temperature, K	Mole fraction of 1,4-dioxane	Refractive index (Na D-line)	uncertainty
298.15	0	1.399499	0.000658
298.15	0.0418	1.400106	0.000702
298.15	0.1141	1.401193	0.000699
298.15	0.2426	1.403285	0.000693
298.15	0.3358	1.404906	0.00069
298.15	0.4518	1.407087	0.000686
298.15	0.5509	1.409081	0.000683
298.15	0.5914	1.409937	0.000682
298.15	0.738	1.413233	0.000679
298.15	0.8235	1.41529	0.00059
298.15	0.9104	1.417518	0.000676
298.15	0.987	1.419597	0.000676
298.15	1	1.419948	0.000578
313.15	0	1.391332	0.000658
313.15	0.0344	1.391876	0.000656
313.15	0.117	1.39321	0.000653
313.15	0.2279	1.395063	0.000659
313.15	0.3499	1.397316	0.000676
313.15	0.4442	1.399168	0.000704
313.15	0.55	1.401377	0.00074
313.15	0.645	1.403512	0.000794
313.15	0.7456	1.405912	0.00084
313.15	0.8238	1.40786	0.000585
313.15	0.9143	1.410237	0.000959
313.15	0.9636	1.411594	0.001038
313.15	1	1.412637	0.000578

System: 1-chlorobutane + 1,4-dioxane; phases: Liquid
Fixed: Pressure, kPa = 101
Property: Mass density, kg/m3 (Liquid); method: VIBTUB:UFactor:8
Temperature, K	Mole fraction of 1,4-dioxane	Mass density, kg/m3	uncertainty
298.15	0	880.69	0.77
298.15	0.0418	885.54	0.75
298.15	0.1141	894.14	0.71
298.15	0.2426	910.06	0.63
298.15	0.3358	922.21	0.57
298.15	0.4518	938.11	0.5
298.15	0.5509	952.44	0.44
298.15	0.5914	958.52	0.42
298.15	0.738	981.64	0.33
298.15	0.8235	995.99	0.28
298.15	0.9104	1011.29	0.29
298.15	0.987	1025.41	0.33
298.15	1	1027.87	0.34
313.15	0	863.82	0.82
313.15	0.0344	867.83	0.8
313.15	0.117	877.61	0.75
313.15	0.2279	891.26	0.69
313.15	0.3499	907.15	0.62
313.15	0.4442	920.15	0.56
313.15	0.55	935.51	0.49
313.15	0.645	950.02	0.44
313.15	0.7456	966.15	0.38
313.15	0.8238	979.22	0.33
313.15	0.9143	995.01	0.27
313.15	0.9636	1003.94	0.27
313.15	1	1010.69	0.28

System: 2-chlorobutane + 1,4-dioxane; phases: Liquid
Fixed: Pressure, kPa = 101
Property: Refractive index (Na D-line) (Liquid); method: Standard Abbe refractometry
Temperature, K	Mole fraction of 1,4-dioxane	Refractive index (Na D-line)	uncertainty
298.15	0	1.394043	0.000665
298.15	0.0417	1.3949	0.000702
298.15	0.1061	1.396297	0.000699
298.15	0.2514	1.3996	0.000693
298.15	0.3493	1.401934	0.000689
298.15	0.4771	1.405125	0.000685
298.15	0.5563	1.407206	0.000683
298.15	0.6462	1.409609	0.00068
298.15	0.7343	1.412081	0.000679
298.15	0.8244	1.414661	0.000677
298.15	0.9112	1.417249	0.000676
298.15	0.9891	1.419624	0.000676
298.15	1	1.419948	0.000578
313.15	0	1.385735	0.000665
313.15	0.0475	1.386745	0.000664
313.15	0.1318	1.388647	0.000665
313.15	0.239	1.391201	0.000673
313.15	0.3413	1.393778	0.000691
313.15	0.4574	1.396831	0.00071
313.15	0.5546	1.399488	0.000733
313.15	0.6429	1.401951	0.000749
313.15	0.7326	1.404491	0.000779
313.15	0.8209	1.407092	0.000825
313.15	0.9121	1.409851	0.000864
313.15	0.9525	1.411131	0.000927
313.15	1	1.412637	0.000578

System: 2-chlorobutane + 1,4-dioxane; phases: Liquid
Fixed: Pressure, kPa = 101
Property: Mass density, kg/m3 (Liquid); method: VIBTUB:UFactor:8
Temperature, K	Mole fraction of 1,4-dioxane	Mass density, kg/m3	uncertainty
298.15	0	867.4	0.81
298.15	0.0417	872.75	0.79
298.15	0.1061	881.2	0.75
298.15	0.2514	901.2	0.65
298.15	0.3493	915.42	0.59
298.15	0.4771	934.94	0.51
298.15	0.5563	947.61	0.46
298.15	0.6462	962.58	0.4
298.15	0.7343	977.89	0.34
298.15	0.8244	994.21	0.28
298.15	0.9112	1010.56	0.29
298.15	0.9891	1025.72	0.33
298.15	1	1027.87	0.34
313.15	0	850.13	0.86
313.15	0.0475	856.2	0.83
313.15	0.1318	867.4	0.78
313.15	0.239	882.36	0.71
313.15	0.3413	897.3	0.65
313.15	0.4574	915.03	0.57
313.15	0.5546	930.53	0.51
313.15	0.6429	945.17	0.45
313.15	0.7326	960.65	0.39
313.15	0.8209	976.52	0.34
313.15	0.9121	993.58	0.28
313.15	0.9525	1001.37	0.26
313.15	1	1010.69	0.28

System: 1,4-dioxane + 1-chloro-2-methylpropane; phases: Liquid
Fixed: Pressure, kPa = 101
Property: Refractive index (Na D-line) (Liquid); method: Standard Abbe refractometry
Temperature, K	Mole fraction of 1,4-dioxane	Refractive index (Na D-line)	uncertainty
298.15	0	1.395284	0.000672
298.15	0.045	1.396155	0.000702
298.15	0.1196	1.397631	0.000698
298.15	0.2433	1.400246	0.000693
298.15	0.3412	1.40243	0.000689
298.15	0.4407	1.404715	0.000686
298.15	0.5447	1.40725	0.000683
298.15	0.6463	1.409835	0.00068
298.15	0.737	1.412305	0.000679
298.15	0.8305	1.414923	0.000677
298.15	0.9157	1.417423	0.000676
298.15	0.9515	1.418492	0.000676
298.15	1	1.419948	0.000578
313.15	0	1.386856	0.000672
313.15	0.0474	1.387829	0.00067
313.15	0.1492	1.390011	0.000669
313.15	0.2654	1.39259	0.000676
313.15	0.3687	1.395035	0.000696
313.15	0.4565	1.39721	0.00072
313.15	0.5541	1.399725	0.000749
313.15	0.6426	1.402112	0.000788
313.15	0.7423	1.404892	0.000829
313.15	0.8326	1.407524	0.000877
313.15	0.9112	1.409873	0.000913
313.15	0.9606	1.411388	0.000969
313.15	1	1.412637	0.000578

System: 1,4-dioxane + 1-chloro-2-methylpropane; phases: Liquid
Fixed: Pressure, kPa = 101
Property: Mass density, kg/m3 (Liquid); method: VIBTUB:UFactor:8
Temperature, K	Mole fraction of 1,4-dioxane	Mass density, kg/m3	uncertainty
298.15	0	871.13	0.8
298.15	0.045	876.79	0.77
298.15	0.1196	886.36	0.73
298.15	0.2433	902.87	0.65
298.15	0.3412	916.58	0.59
298.15	0.4407	931.19	0.53
298.15	0.5447	947.22	0.46
298.15	0.6463	963.67	0.4
298.15	0.737	979.04	0.34
298.15	0.8305	995.63	0.28
298.15	0.9157	1011.45	0.29
298.15	0.9515	1018.31	0.31
298.15	1	1027.87	0.34
313.15	0	853.51	0.85
313.15	0.0474	859.42	0.82
313.15	0.1492	872.58	0.76
313.15	0.2654	888.36	0.69
313.15	0.3687	903.12	0.62
313.15	0.4565	916.21	0.57
313.15	0.5541	931.39	0.51
313.15	0.6426	945.76	0.45
313.15	0.7423	962.69	0.39
313.15	0.8326	978.76	0.33
313.15	0.9112	993.38	0.28
313.15	0.9606	1002.9	0.26
313.15	1	1010.69	0.28

System: 1,4-dioxane + 2-chloro-2-methylpropane; phases: Liquid
Fixed: Pressure, kPa = 101
Property: Refractive index (Na D-line) (Liquid); method: Standard Abbe refractometry
Temperature, K	Mole fraction of 1,4-dioxane	Refractive index (Na D-line)	uncertainty
298.15	0	1.382241	0.00071
298.15	0.0458	1.383925	0.000702
298.15	0.1594	1.38814	0.000697
298.15	0.2576	1.391823	0.000693
298.15	0.3925	1.39689	0.000688
298.15	0.4632	1.399565	0.000685
298.15	0.5569	1.403125	0.000683
298.15	0.6611	1.40709	0.00068
298.15	0.7458	1.410325	0.000679
298.15	0.8395	1.4139	0.000677
298.15	0.9222	1.417033	0.000676
298.15	0.9639	1.418608	0.000676
298.15	1	1.419948	0.000578
313.15	0	1.373143	0.00071
313.15	0.0485	1.375025	0.000708
313.15	0.0903	1.376668	0.000707
313.15	0.2192	1.381748	0.000701
313.15	0.2827	1.384226	0.000705
313.15	0.3966	1.3888	0.000704
313.15	0.5029	1.393013	0.000694
313.15	0.6039	1.39702	0.00069
313.15	0.7025	1.400918	0.00068
313.15	0.8138	1.40529	0.000668
313.15	0.8959	1.408495	0.000661
313.15	0.9612	1.411048	0.000696
313.15	1	1.412637	0.000578

System: 1,4-dioxane + 2-chloro-2-methylpropane; phases: Liquid
Fixed: Pressure, kPa = 101
Property: Mass density, kg/m3 (Liquid); method: VIBTUB:UFactor:8
Temperature, K	Mole fraction of 1,4-dioxane	Mass density, kg/m3	uncertainty
298.15	0	836.45	0.9
298.15	0.0458	844.01	0.87
298.15	0.1594	862.91	0.79
298.15	0.2576	879.78	0.72
298.15	0.3925	904.15	0.62
298.15	0.4632	917.47	0.56
298.15	0.5569	935.61	0.49
298.15	0.6611	956.29	0.42
298.15	0.7458	973.39	0.35
298.15	0.8395	992.69	0.29
298.15	0.9222	1010.32	0.29
298.15	0.9639	1019.57	0.32
298.15	1	1027.87	0.34
313.15	0	818.31	0.95
313.15	0.0485	826.29	0.92
313.15	0.0903	833.3	0.89
313.15	0.2192	855.58	0.79
313.15	0.2827	866.86	0.75
313.15	0.3966	887.59	0.67
313.15	0.5029	907.54	0.59
313.15	0.6039	927.14	0.51
313.15	0.7025	946.96	0.44
313.15	0.8138	970.21	0.36
313.15	0.8959	987.89	0.3
313.15	0.9612	1002.17	0.26
313.15	1	1010.69	0.28
