Measured thermophysical data. Volumetric properties of aqueous solutions of diethylsulfoxide at temperatures from 298.15 K to 343.15 K
Source: J. Chem. Thermodyn., 2005, 10.1016/j.jct.2004.11.017
Compound 1: diethyl sulfoxide, C4H10OS, InChI=1S/C4H10OS/c1-3-6(5)4-2/h3-4H2,1-2H3, purity 99.8%
Compound 2: water, H2O, InChI=1S/H2O/h1H2

System: diethyl sulfoxide; phases: Liquid
Fixed: Pressure, kPa = 101
Property: Mass density, kg/m3 (Liquid); method: VIBTUB:UFactor:32
Temperature, K	Mass density, kg/m3	uncertainty
298.15	1010.2	1.4
303.15	1005.8	1.4
308.15	1001.4	1.3
313.15	997	1.3
318.15	992.6	1.4
323.15	988.2	1.5
328.15	983.9	1.5
333.15	979.5	1.6
338.15	975.1	1.7
343.15	970.6	1.8

System: diethyl sulfoxide + water; phases: Liquid
Fixed: Pressure, kPa = 101
Property: Mass density, kg/m3 (Liquid); method: VIBTUB:UFactor:32
Temperature, K	Mole fraction of diethyl sulfoxide	Mass density, kg/m3	uncertainty
298.15	0	996.6	1.3
298.15	0.0997	1027.6	1.7
298.15	0.1996	1038.6	1.9
298.15	0.2517	1038.4	1.9
298.15	0.2978	1037.8	1.9
298.15	0.3481	1035.8	1.9
298.15	0.3946	1034.7	1.8
298.15	0.4496	1031.6	1.8
298.15	0.5053	1029.6	1.8
298.15	0.5962	1026.4	1.7
298.15	0.6971	1021.9	1.6
298.15	0.8061	1018.2	1.6
298.15	0.8946	1015.3	1.5
298.15	1	1010.2	1.4
303.15	0	995.2	1.4
303.15	0.0997	1024.2	1.7
303.15	0.1996	1034.2	1.8
303.15	0.2517	1033.7	1.8
303.15	0.2978	1033.3	1.8
303.15	0.3481	1031.4	1.8
303.15	0.3946	1030.2	1.8
303.15	0.4496	1027.2	1.7
303.15	0.5053	1025.1	1.7
303.15	0.5962	1022.1	1.6
303.15	0.6971	1017.5	1.6
303.15	0.8061	1013.9	1.5
303.15	0.8946	1011	1.5
303.15	1	1005.8	1.4
308.15	0	993.6	1.4
308.15	0.0997	1020.7	1.6
308.15	0.1996	1029.8	1.8
308.15	0.2517	1029.6	1.8
308.15	0.2978	1028.8	1.7
308.15	0.3481	1026.8	1.7
308.15	0.3946	1025.7	1.7
308.15	0.4496	1022.7	1.7
308.15	0.5053	1020.6	1.6
308.15	0.5962	1017.6	1.6
308.15	0.6971	1013.1	1.5
308.15	0.8061	1009.6	1.4
308.15	0.8946	1006.7	1.4
308.15	1	1001.4	1.3
313.15	0	991.9	1.4
313.15	0.0997	1017.1	1.6
313.15	0.1996	1025.4	1.7
313.15	0.2517	1025	1.7
313.15	0.2978	1024.2	1.7
313.15	0.3481	1022.2	1.6
313.15	0.3946	1021.2	1.6
313.15	0.4496	1018.3	1.6
313.15	0.5053	1016.2	1.5
313.15	0.5962	1013.2	1.5
313.15	0.6971	1008.7	1.4
313.15	0.8061	1005.2	1.4
313.15	0.8946	1002.3	1.3
313.15	1	997	1.3
318.15	0	989.7	1.4
318.15	0.0997	1013.4	1.5
318.15	0.1996	1020.9	1.6
318.15	0.2517	1020.5	1.6
318.15	0.2978	1019.6	1.6
318.15	0.3481	1017.6	1.6
318.15	0.3946	1016.6	1.6
318.15	0.4496	1013.8	1.5
318.15	0.5053	1011.7	1.5
318.15	0.5962	1008.7	1.4
318.15	0.6971	1004.3	1.4
318.15	0.8061	1000.8	1.3
318.15	0.8946	997.9	1.3
318.15	1	992.6	1.4
323.15	0	987.6	1.5
323.15	0.0997	1009.6	1.4
323.15	0.1996	1016.3	1.5
323.15	0.2517	1015.8	1.5
323.15	0.2978	1015	1.5
323.15	0.3481	1013	1.5
323.15	0.3946	1012	1.5
323.15	0.4496	1009.2	1.4
323.15	0.5053	1007.1	1.4
323.15	0.5962	1004.2	1.4
323.15	0.6971	999.8	1.3
323.15	0.8061	996.4	1.3
323.15	0.8946	993.5	1.4
323.15	1	988.2	1.5
328.15	0	985.3	1.5
328.15	0.0997	1005.8	1.4
328.15	0.1996	1011.8	1.5
328.15	0.2517	1011.2	1.5
328.15	0.2978	1010.3	1.5
328.15	0.3481	1008.3	1.4
328.15	0.3946	1007.3	1.4
328.15	0.4496	1004.5	1.4
328.15	0.5053	1002.5	1.3
328.15	0.5962	999.6	1.3
328.15	0.6971	995.3	1.4
328.15	0.8061	991.9	1.4
328.15	0.8946	989.1	1.5
328.15	1	983.9	1.5
333.15	0	982.8	1.6
333.15	0.0997	1001.8	1.3
333.15	0.1996	1005.9	1.4
333.15	0.2517	1006.4	1.4
333.15	0.2978	1005.6	1.4
333.15	0.3481	1003.6	1.3
333.15	0.3946	1002.6	1.3
333.15	0.4496	999.9	1.3
333.15	0.5053	997.9	1.3
333.15	0.5962	995	1.4
333.15	0.6971	990.8	1.4
333.15	0.8061	987.4	1.5
333.15	0.8946	984.7	1.5
333.15	1	979.5	1.6
338.15	0	979.3	1.6
338.15	0.0997	997.8	1.3
338.15	0.1996	1001.3	1.3
338.15	0.2517	1001.7	1.3
338.15	0.2978	1000.8	1.3
338.15	0.3481	998.9	1.3
338.15	0.3946	997.8	1.3
338.15	0.4496	995.2	1.4
338.15	0.5053	993.2	1.4
338.15	0.5962	990.4	1.4
338.15	0.6971	986.2	1.5
338.15	0.8061	982.9	1.6
338.15	0.8946	980.2	1.6
338.15	1	975.1	1.7
343.15	0	977.5	1.6
343.15	0.0997	993.7	1.4
343.15	0.1996	997.1	1.3
343.15	0.2517	996.9	1.3
343.15	0.2978	996	1.4
343.15	0.3481	994.1	1.4
343.15	0.3946	993	1.4
343.15	0.4496	990.5	1.4
343.15	0.5053	988.5	1.5
343.15	0.5962	985.7	1.5
343.15	0.6971	981.7	1.6
343.15	0.8061	978.4	1.6
343.15	0.8946	975.7	1.7
343.15	1	970.6	1.8
