Measured thermophysical data. Experimental and computational energetic study of 1-R-2-phenylindole (R = H, CH3, C2H5)
Source: J. Chem. Thermodyn., 2015, 10.1016/j.jct.2015.01.012
Compound 1: carbon dioxide, CO2, InChI=1S/CO2/c2-1-3
Compound 2: nitrogen, N2, InChI=1S/N2/c1-2
Compound 3: water, H2O, InChI=1S/H2O/h1H2
Compound 4: oxygen, O2, InChI=1S/O2/c1-2
Compound 5: 2-phenyl-1H-indole, C14H11N, InChI=1S/C14H11N/c1-2-6-11(7-3-1)14-10-12-8-4-5-9-13(12)15-14/h1-10,15H, purity 99.6%
Compound 6: 1-methyl-2-phenylindole, C15H13N, InChI=1S/C15H13N/c1-16-14-10-6-5-9-13(14)11-15(16)12-7-3-2-4-8-12/h2-11H,1H3, purity 99.9%
Compound 7: 1-ethyl-2-phenylindole, C16H15N, InChI=1S/C16H15N/c1-2-17-15-11-7-6-10-14(15)12-16(17)13-8-4-3-5-9-13/h3-12H,2H2,1H3, purity 99.9%

System: 2-phenyl-1H-indole; phases: Crystal, Gas
Property: Vapor or sublimation pressure, kPa (Crystal); method: Calculated from knudsen effusion weight loss
Temperature, K	Vapor or sublimation pressure, kPa	uncertainty
382.1	0.001023	9.4e-05
380.12	0.000885	6.8e-05
378.15	0.000735	6.5e-05
376.1	0.000592	6.4e-05
374.12	0.0005	6.3e-05
372.16	0.000412	6.2e-05
370.1	0.000324	6.1e-05
368.13	0.000278	6.1e-05
366.16	0.000227	6.1e-05
364.08	0.000176	6e-05
362.11	0.000157	6e-05
360.16	0.000122	6e-05
382.1	0.001052	9.6e-05
380.12	0.000868	6.7e-05
378.15	0.000701	6.5e-05
376.1	0.00059	6.4e-05
374.12	0.000491	6.2e-05
372.16	0.000392	6.2e-05
370.1	0.000331	6.1e-05
368.13	0.00027	6.1e-05
366.16	0.000217	6e-05
364.08	0.000184	6e-05
362.11	0.000149	6e-05
360.16	0.000119	6e-05
382.1	0.001046	9.6e-05
380.12	0.000832	6.7e-05
378.15	0.000693	6.5e-05
376.1	0.000574	6.3e-05
374.12	0.000456	6.2e-05
372.16	0.000393	6.2e-05
370.1	0.000325	6.1e-05
368.13	0.000262	6.1e-05
366.16	0.000214	6e-05
364.08	0.000182	6e-05
362.11	0.000155	6e-05
360.16	0.000116	6e-05

System: 1-methyl-2-phenylindole; phases: Crystal, Gas
Property: Vapor or sublimation pressure, kPa (Crystal); method: Calculated from knudsen effusion weight loss
Temperature, K	Vapor or sublimation pressure, kPa	uncertainty
353.12	0.00092	6.8e-05
351.21	0.000745	6.6e-05
349.17	0.000585	6.3e-05
347.08	0.000494	6.3e-05
345.14	0.000414	6.2e-05
343.17	0.000323	6.1e-05
341.12	0.000251	6.1e-05
339.21	0.000214	6e-05
337.18	0.000158	6e-05
335.1	0.000128	6e-05
333.17	0.000104	6e-05
331.17	7.4e-05	6e-05
353.12	0.000943	6.9e-05
351.21	0.000772	6.6e-05
349.17	0.000593	6.4e-05
347.08	0.000497	6.3e-05
345.14	0.000404	6.2e-05
343.17	0.000316	6.1e-05
341.12	0.000252	6.1e-05
339.21	0.000204	6e-05
337.18	0.000157	6e-05
335.1	0.00013	6e-05
333.17	0.000102	6e-05
331.17	7.7e-05	6e-05
353.12	0.000939	6.9e-05
351.21	0.000745	6.6e-05
349.17	0.000586	6.3e-05
347.08	0.000501	6.3e-05
345.14	0.00039	6.2e-05
343.17	0.000308	6.1e-05
341.12	0.000254	6.1e-05
339.21	0.000197	6e-05
337.18	0.000154	6e-05
335.1	0.000126	6e-05
333.17	9.9e-05	6e-05
331.17	7.7e-05	6e-05

System: 1-ethyl-2-phenylindole; phases: Crystal, Gas
Property: Vapor or sublimation pressure, kPa (Crystal); method: Calculated from knudsen effusion weight loss
Temperature, K	Vapor or sublimation pressure, kPa	uncertainty
349.08	0.000974	6.9e-05
347.08	0.000766	6.6e-05
345.16	0.000625	6.4e-05
343.08	0.000478	6.2e-05
341.17	0.000387	6.2e-05
339.17	0.000307	6.1e-05
337.19	0.00024	6.1e-05
335.18	0.000192	6e-05
333.18	0.000145	6e-05
331.09	0.000119	6e-05
329.18	9.5e-05	6e-05
327.18	7.2e-05	6e-05
349.08	0.000987	6.9e-05
347.08	0.000779	6.6e-05
345.16	0.000624	6.4e-05
343.08	0.000472	6.2e-05
341.17	0.000379	6.1e-05
339.17	0.000291	6.1e-05
337.19	0.000239	6.1e-05
335.18	0.00019	6e-05
333.18	0.000144	6e-05
331.09	0.000115	6e-05
329.18	9.1e-05	6e-05
327.18	6.9e-05	6e-05
349.08	0.000986	6.9e-05
347.08	0.000775	6.6e-05
345.16	0.000605	6.4e-05
343.08	0.000472	6.2e-05
341.17	0.000368	6.1e-05
339.17	0.000287	6.1e-05
337.19	0.00024	6.1e-05
335.18	0.000184	6e-05
333.18	0.000143	6e-05
331.09	0.000114	6e-05
329.18	8.9e-05	6e-05
327.18	7.1e-05	6e-05

Reaction: -1 2-phenyl-1H-indole + 14 carbon dioxide + .5 nitrogen + 5.5 water + -16.75 oxygen
Property: Specific internal energy of reaction at constant volume, J/g
-37339.3

Reaction: -1 1-methyl-2-phenylindole + 15 carbon dioxide + .5 nitrogen + 6.5 water + -18.25 oxygen
Property: Specific internal energy of reaction at constant volume, J/g
-38040.3

Reaction: -1 1-ethyl-2-phenylindole + 16 carbon dioxide + .5 nitrogen + 7.5 water + -19.75 oxygen
Property: Specific internal energy of reaction at constant volume, J/g
-38567.8
