Measured thermophysical data. Removal of 2- and 3-methylthiophene from their mixtures with n-heptane using tetrahexylammonium bromide-based deep eutectic solvents as extractive desulfurization agents
Source: J. Chem. Thermodyn., 2018, 10.1016/j.jct.2018.05.026
Compound 1: heptane, C7H16, InChI=1S/C7H16/c1-3-5-7-6-4-2/h3-7H2,1-2H3, purity 99%
Compound 2: tetrahexylammonium bromide, C24H52BrN, InChI=1S/C24H52N.BrH/c1-5-9-13-17-21-25(22-18-14-10-6-2,23-19-15-11-7-3)24-20-16-12-8-4;/h5-24H2,1-4H3;1H/q+1;/p-1, purity 99%
Compound 3: 2-methylthiophene, C5H6S, InChI=1S/C5H6S/c1-5-3-2-4-6-5/h2-4H,1H3, purity 98%
Compound 4: 3-methylthiophene, C5H6S, InChI=1S/C5H6S/c1-5-2-3-6-4-5/h2-4H,1H3, purity 98%
Compound 5: 1,2-ethanediol, C2H6O2, InChI=1S/C2H6O2/c3-1-2-4/h3-4H,1-2H2, purity 99%
Compound 6: glycerol, C3H8O3, InChI=1S/C3H8O3/c4-1-3(6)2-5/h3-6H,1-2H2, purity 99%

System: heptane + 1,2-ethanediol + tetrahexylammonium bromide; phases: Liquid mixture 1, Liquid mixture 2
Property: Mass fraction of heptane (Liquid mixture 1); method: Chromatography
Solvent: Mole fraction of tetrahexylammonium bromide	Pressure, kPa	Temperature, K	Mass fraction of heptane	uncertainty
0.3175	101	298	0.085	0.01

System: heptane + glycerol + tetrahexylammonium bromide; phases: Liquid mixture 1, Liquid mixture 2
Property: Mass fraction of heptane (Liquid mixture 1); method: Chromatography
Solvent: Mole fraction of tetrahexylammonium bromide	Pressure, kPa	Temperature, K	Mass fraction of heptane	uncertainty
0.3168	101	298	0.042	0.01

System: 2-methylthiophene + 1,2-ethanediol + tetrahexylammonium bromide; phases: Liquid mixture 1, Liquid mixture 2
Property: Mass fraction of 2-methylthiophene (Liquid mixture 1); method: Titration method
Solvent: Mole fraction of tetrahexylammonium bromide	Temperature, K	Pressure, kPa	Mass fraction of 2-methylthiophene	uncertainty
0.3175	298	101	0.989	0.01

System: 2-methylthiophene + glycerol + tetrahexylammonium bromide; phases: Liquid mixture 1, Liquid mixture 2
Property: Mass fraction of 2-methylthiophene (Liquid mixture 1); method: Titration method
Solvent: Mole fraction of tetrahexylammonium bromide	Temperature, K	Pressure, kPa	Mass fraction of 2-methylthiophene	uncertainty
0.3168	298	101	0.814	0.011

System: 3-methylthiophene + 1,2-ethanediol + tetrahexylammonium bromide; phases: Liquid mixture 1, Liquid mixture 2
Property: Mass fraction of 3-methylthiophene (Liquid mixture 1); method: Titration method
Solvent: Mole fraction of tetrahexylammonium bromide	Temperature, K	Pressure, kPa	Mass fraction of 3-methylthiophene	uncertainty
0.3175	298	101	0.909	0.01

System: 3-methylthiophene + glycerol + tetrahexylammonium bromide; phases: Liquid mixture 1, Liquid mixture 2
Property: Mass fraction of 3-methylthiophene (Liquid mixture 1); method: Titration method
Solvent: Mole fraction of tetrahexylammonium bromide	Temperature, K	Pressure, kPa	Mass fraction of 3-methylthiophene	uncertainty
0.3168	298	101	0.799	0.012
