Measured thermophysical data. Thermodynamic investigation of L-carnitine
Source: J. Chem. Thermodyn., 2019, 10.1016/j.jct.2018.12.006
Compound 1: carbon dioxide, CO2, InChI=1S/CO2/c2-1-3
Compound 2: nitrogen, N2, InChI=1S/N2/c1-2
Compound 3: water, H2O, InChI=1S/H2O/h1H2
Compound 4: oxygen, O2, InChI=1S/O2/c1-2
Compound 5: (R)-3-hydroxy-4-(trimethylammonio)butanoate, C7H15NO3, InChI=1S/C7H15NO3/c1-8(2,3)5-6(9)4-7(10)11/h6,9H,4-5H2,1-3H3/t6-/m1/s1, purity 99.9%

System: (R)-3-hydroxy-4-(trimethylammonio)butanoate; phases: Crystal, Gas
Property: Molar enthalpy of vaporization or sublimation, kJ/mol (Crystal); method: Derived by Second law
Temperature, K	Molar enthalpy of vaporization or sublimation, kJ/mol	uncertainty
419	156	31

System: (R)-3-hydroxy-4-(trimethylammonio)butanoate; phases: Crystal
Fixed: Pressure, kPa = 100
Property: Molar heat capacity at constant pressure, J/K/mol (Crystal); method: Small (less than 1 g) adiabatic calorimetry
Temperature, K	Molar heat capacity at constant pressure, J/K/mol	uncertainty
6.08	0.53	0.03
6.27	0.571	0.032
6.41	0.622	0.034
6.56	0.669	0.035
6.69	0.727	0.038
6.83	0.774	0.039
6.95	0.787	0.04
7.08	0.832	0.042
7.19	0.851	0.043
7.48	0.985	0.048
7.82	1.107	0.053
8.18	1.278	0.06
8.52	1.441	0.066
8.75	1.53	0.07
9.06	1.689	0.076
9.34	1.836	0.082
9.62	2.018	0.09
9.93	2.207	0.097
10.24	2.402	0.105
10.56	2.616	0.114
10.88	2.869	0.124
11.21	3.127	0.135
11.62	3.417	0.147
11.9	3.675	0.157
12.69	4.369	0.186
13.96	5.657	0.238
15.22	7.205	0.302
16.5	8.836	0.368
17.79	10.57	0.44
19.1	12.27	0.51
20.43	13.99	0.19
22.35	16.18	0.22
24.86	19.02	0.24
27.27	21.98	0.27
29.7	24.73	0.29
32.15	27.39	0.32
34.61	30.12	0.35
37.06	32.92	0.38
39.52	35.77	0.41
41.98	38.6	0.26
44.45	41.3	0.27
46.92	43.9	0.29
49.4	46.7	0.3
51.56	49.36	0.32
53.43	51.37	0.33
55.31	53.34	0.34
57.23	55.32	0.35
59.08	57.13	0.36
60.96	58.68	0.36
62.84	60.64	0.37
64.71	62.32	0.38
66.57	64.28	0.39
68.43	65.98	0.4
70.29	67.73	0.41
72.16	69.2	0.42
74.04	70.9	0.43
75.9	72.29	0.44
77.76	74.17	0.45
79.61	75.69	0.45
81.77	77.54	0.46
84.24	79.31	0.47
86.69	81.13	0.48
84.82	79.43	0.47
88.65	82.96	0.49
92.22	85.77	0.52
95.79	88.51	0.53
99.36	91.34	0.54
102.92	94.28	0.56
106.48	96.97	0.57
110.02	99.66	0.58
113.57	102.4	0.6
117.1	105	0.6
120.63	107.7	0.6
124.16	110.4	0.6
127.68	113	0.6
131.19	115.4	0.7
134.7	117.9	0.7
138.2	120.5	0.7
141.66	122.9	0.7
145.14	125.4	0.7
148.61	127.8	0.7
152.07	130.3	0.7
155.53	132.7	0.7
158.97	135	0.8
162.41	137.4	0.8
165.85	139.7	0.8
169.27	142.1	0.8
172.68	144.4	0.8
176.08	146.7	0.8
179.48	149	0.8
182.87	151.1	0.8
186.24	153.1	0.8
189.61	154.7	0.8
192.97	156.2	0.9
196.22	157.8	0.9
199.57	159.7	0.9
202.89	161.9	0.9
203.31	162.1	0.9
206.21	163.8	0.9
206.83	163.9	0.9
209.52	165.7	0.9
210.24	166.4	0.9
212.83	167.6	0.9
213.66	168.2	0.9
216.13	169.6	0.9
219.43	171.7	0.9
222.71	173.9	0.9
225.97	176	1
229.25	178.3	1
232.54	180.4	1
235.81	182.5	1
239.07	184.6	1
242.32	186.7	1
245.56	188.8	1
248.62	190.6	1
251.85	192.6	1
255.07	194.8	1
257.5	196.2	1.1
260.89	199.2	1.1
264.26	200.6	1.1
267.64	203.5	1.1
271	205.7	1.1
274.35	208.2	1.1
277.7	210.3	1.1
281.03	212.6	1.1
284.35	214.7	1.1
287.63	217.8	1.2
290.92	219.8	1.2
294.21	221	1.2
297.46	224.2	1.2
300.21	225.9	1.2
302.94	227.7	1.2
306.14	230.3	1.2
309.33	232.6	1.2
312.5	234.8	1.2
315.65	237.1	1.2
318.79	239.5	1.3
321.91	241.3	1.3
325.01	243.5	1.3
328.09	245.8	1.3
331.16	248.1	1.3
334.21	250.7	1.3
337.21	251.9	1.3
340.22	254.1	1.3
343.21	256.3	1.3
346.17	258.6	1.4

System: (R)-3-hydroxy-4-(trimethylammonio)butanoate; phases: Crystal
Fixed: Pressure, kPa = 101.325
Property: Molar heat capacity at constant pressure, J/K/mol (Crystal); method: Small (less than 1 g) adiabatic calorimetry
Temperature, K	Molar heat capacity at constant pressure, J/K/mol	uncertainty
5	0.29	0.023
10	2.25	0.099
15	6.89	0.289
20	13.41	0.55
25	19.34	0.25
30	25.01	0.3
35	30.61	0.36
40	36.27	0.41
45	41.94	0.28
50	47.51	0.31
60	57.97	0.36
70	67.35	0.41
80	75.9	0.46
90	83.98	0.51
100	91.81	0.54
110	99.54	0.58
120	107.5	0.6
130	114.7	0.7
140	121.6	0.7
150	128.6	0.7
160	135.8	0.8
170	142.8	0.8
180	149.2	0.8
190	154.7	0.8
200	160.1	0.9
210	166	0.9
220	172.2	0.9
230	178.6	1
240	185.1	1
250	191.6	1
260	198.2	1.1
270	205	1.1
273.15	207.2	1.1
280	211.9	1.1
290	218.9	1.2
298.15	224.7	1.2
300	226	1.2
310	233.1	1.2
320	240.1	1.3
330	247.2	1.3
340	254.2	1.3
350	261	1.4

System: (R)-3-hydroxy-4-(trimethylammonio)butanoate; phases: Crystal
Fixed: Pressure, kPa = 101.325
Property: Molar enthalpy, kJ/mol (Crystal); method: Small (less than 1 g) adiabatic calorimetry
Temperature, K	Molar enthalpy, kJ/mol	uncertainty
5	0.000363	8.5e-05
10	0.00576	0.00031
15	0.0274	0.0012
20	0.07821	0.00328
25	0.1602	0.0022
30	0.2711	0.0041
35	0.4102	0.0057
40	0.5773	0.0076
45	0.7729	0.0067
50	0.9966	0.0082
60	1.525	0.011
70	2.152	0.015
80	2.869	0.02
90	3.669	0.027
100	4.548	0.033
110	5.504	0.038
120	6.539	0.044
130	7.651	0.05
140	8.832	0.057
150	10.08	0.06
160	11.4	0.07
170	12.8	0.08
180	14.26	0.09
190	15.78	0.1
200	17.35	0.1
210	18.98	0.11
220	20.67	0.12
230	22.43	0.13
240	24.25	0.14
250	26.13	0.15
260	28.08	0.16
270	30.09	0.17
273.15	30.74	0.18
280	32.18	0.18
290	34.33	0.19
298.15	36.14	0.2
300	36.56	0.21
310	38.85	0.22
320	41.22	0.23
330	43.66	0.24
340	46.16	0.26
350	48.74	0.27

System: (R)-3-hydroxy-4-(trimethylammonio)butanoate; phases: Crystal
Fixed: Pressure, kPa = 101.325
Property: Molar entropy, J/K/mol (Crystal); method: Small (less than 1 g) adiabatic calorimetry
Temperature, K	Molar entropy, J/K/mol	uncertainty
5	0.0967	0.0254
10	0.77	0.058
15	2.46	0.159
20	5.34	0.333
25	8.973	0.179
30	13	0.26
35	17.28	0.33
40	21.73	0.39
45	26.33	0.29
50	31.04	0.33
60	40.65	0.4
70	50.3	0.48
80	59.86	0.56
90	69.27	0.66
100	78.52	0.72
110	87.63	0.79
120	96.63	0.85
130	105.5	0.9
140	114.3	1
150	122.9	1
160	131.4	1.1
170	139.9	1.2
180	148.2	1.2
190	156.4	1.3
200	164.5	1.3
210	172.5	1.4
220	180.3	1.5
230	188.1	1.5
240	195.9	1.6
250	203.6	1.6
260	211.2	1.7
270	218.8	1.7
273.15	221.2	1.8
280	226.4	1.8
290	233.9	1.9
298.15	240.1	1.9
300	241.5	1.9
310	249	2
320	256.5	2
330	264	2.1
340	271.5	2.1
350	279	2.2

System: (R)-3-hydroxy-4-(trimethylammonio)butanoate; phases: Crystal
Fixed: Pressure, kPa = 101.325
Property: Mass density, kg/m3 (Crystal); method: X-ray diffraction
Temperature, K	Mass density, kg/m3	uncertainty
150	1256	6
175	1250	6
200	1253	6
225	1247	6
250	1247	6
275	1250	6
300	1245	6
325	1236	6
350	1239	6
375	1242	6
400	1236	6
425	1236	7

Reaction: -1 (R)-3-hydroxy-4-(trimethylammonio)butanoate + 7 carbon dioxide + .5 nitrogen + 7.5 water + -9.25 oxygen
Property: Specific internal energy of reaction at constant volume, J/g
-25668.4
