Measured thermophysical data. Phase diagrams of the quaternary system K+, NH4+//Cl-, SO4(2-)-H2O at 273.15 K and their application
Source: J. Chem. Thermodyn., 2019, 10.1016/j.jct.2019.03.003
Compound 1: water, H2O, InChI=1S/H2O/h1H2
Compound 2: ammonium sulfate, H8N2O4S, InChI=1S/2H3N.H2O4S/c;;1-5(2,3)4/h2*1H3;(H2,1,2,3,4), purity 99%
Compound 3: potassium sulfate, K2O4S, InChI=1S/2K.H2O4S/c;;1-5(2,3)4/h;;(H2,1,2,3,4)/q2*+1;/p-2, purity 99%
Compound 4: potassium chloride, ClK, InChI=1S/ClH.K/h1H;/q;+1/p-1, purity 99%
Compound 5: ammonium chloride (NH4Cl), ClH4N, InChI=1S/ClH.H3N/h1H;1H3, purity 99%

System: ammonium chloride (NH4Cl) + potassium chloride + water; phases: Liquid, Crystal
Fixed: Pressure, kPa = 101.325
Fixed: Temperature, K = 273.15
Property: Mass fraction of ammonium chloride (NH4Cl) (Liquid); method: Titration method
Mass fraction of potassium chloride	Mass fraction of ammonium chloride (NH4Cl)	uncertainty
0.1067	0.1828	0.04
0.1026	0.1849	0.04
0.0964	0.1914	0.04
0.0721	0.2012	0.04
0.061	0.2107	0.04
0.0408	0.2195	0.04
0.0379	0.2191	0.04
0	0.2272	0.04

System: ammonium chloride (NH4Cl) + potassium chloride + water; phases: Liquid, Crystal
Fixed: Pressure, kPa = 101.325
Fixed: Temperature, K = 273.15
Property: Mass fraction of potassium chloride (Liquid); method: Titration method
Mass fraction of ammonium chloride (NH4Cl)	Mass fraction of potassium chloride	uncertainty
0	0.2163	0.04
0.0215	0.2015	0.04
0.0306	0.2058	0.04
0.0395	0.1856	0.04
0.0597	0.179	0.04
0.0804	0.1633	0.04
0.1001	0.1497	0.04
0.1233	0.1381	0.04
0.143	0.1253	0.04
0.1617	0.1202	0.04
0.1828	0.1067	0.04

System: ammonium sulfate + potassium sulfate + water; phases: Liquid, Crystal
Fixed: Pressure, kPa = 101.325
Fixed: Temperature, K = 273.15
Property: Mass fraction of ammonium sulfate (Liquid); method: Titration method
Mass fraction of potassium sulfate	Mass fraction of ammonium sulfate	uncertainty
0.069	0	
0.0585	0.0194	0.0194
0.061	0.0395	0.0395
0.0741	0.0606	0.04
0.079	0.1021	0.04
0.0799	0.1175	0.04
0.074	0.1381	0.04
0.0774	0.1657	0.04
0.078	0.1997	0.04
0.07	0.2592	0.04
0.0691	0.293	0.04
0.0478	0.3299	0.04
0.0257	0.3738	0.04
0.0249	0.3923	0.04
0.0188	0.4026	0.04
0	0.414	0.04

System: ammonium sulfate + ammonium chloride (NH4Cl) + water; phases: Liquid, Crystal, Crystal
Property: Mass fraction of ammonium sulfate (Liquid); method: Titration method
Temperature, K	Pressure, kPa	Mass fraction of ammonium sulfate	uncertainty
273.15	101.325	0.2841	0.04

System: ammonium sulfate + ammonium chloride (NH4Cl) + water; phases: Liquid, Crystal, Crystal
Property: Mass fraction of ammonium chloride (NH4Cl) (Liquid); method: Titration method
Temperature, K	Pressure, kPa	Mass fraction of ammonium chloride (NH4Cl)	uncertainty
273.15	101.325	0.113	0.04

System: potassium sulfate + potassium chloride + water; phases: Liquid, Crystal, Crystal
Property: Mass fraction of potassium sulfate (Liquid); method: Titration method
Temperature, K	Pressure, kPa	Mass fraction of potassium sulfate	uncertainty
273.15	101.325	0.0083	0.0083

System: potassium sulfate + potassium chloride + water; phases: Liquid, Crystal, Crystal
Property: Mass fraction of potassium chloride (Liquid); method: Titration method
Temperature, K	Pressure, kPa	Mass fraction of potassium chloride	uncertainty
273.15	101.325	0.2149	0.04

System: ammonium chloride (NH4Cl) + water; phases: Liquid, Crystal
Property: Mass fraction of ammonium chloride (NH4Cl) (Liquid); method: Titration method
Pressure, kPa	Temperature, K	Mass fraction of ammonium chloride (NH4Cl)	uncertainty
101.325	273.15	0.2272	0.04

System: potassium chloride + water; phases: Liquid, Crystal
Property: Mass fraction of potassium chloride (Liquid); method: Titration method
Pressure, kPa	Temperature, K	Mass fraction of potassium chloride	uncertainty
101.325	273.15	0.2163	0.04

System: potassium sulfate + water; phases: Liquid, Crystal
Property: Mass fraction of potassium sulfate (Liquid); method: Titration method
Pressure, kPa	Temperature, K	Mass fraction of potassium sulfate	uncertainty
101.325	273.15	0.069	0.04

System: ammonium sulfate + water; phases: Liquid, Crystal
Property: Mass fraction of ammonium sulfate (Liquid); method: Titration method
Pressure, kPa	Temperature, K	Mass fraction of ammonium sulfate	uncertainty
101.325	273.15	0.414	0.04
