Measured thermophysical data. Physical properties of the pure 1-methyl-1-propylpyrrolidinium bis(trifluoromethylsulfonyl)imide ionic liquid and its binary mixtures with alcohols
Source: J. Chem. Thermodyn., 2014, 10.1016/j.jct.2013.08.021
Compound 1: 1-methyl-1-propylpyrrolidinium bis[(trifluoromethyl)sulfonyl]imide, C10H18F6N2O4S2, InChI=1S/C8H18N.C2F6NO4S2/c1-3-6-9(2)7-4-5-8-9;3-1(4,5)14(10,11)9-15(12,13)2(6,7)8/h3-8H2,1-2H3;/q+1;-1, purity 99%
Compound 2: methanol, CH4O, InChI=1S/CH4O/c1-2/h2H,1H3, purity 99.9%
Compound 3: ethanol, C2H6O, InChI=1S/C2H6O/c1-2-3/h3H,2H2,1H3, purity 99.9%
Compound 4: propan-1-ol, C3H8O, InChI=1S/C3H8O/c1-2-3-4/h4H,2-3H2,1H3, purity 99.9%

System: 1-methyl-1-propylpyrrolidinium bis[(trifluoromethyl)sulfonyl]imide; phases: Crystal, Liquid, Air at 1 atmosphere
Property: Normal melting temperature, K (Crystal); method: DTA
Normal melting temperature, K	uncertainty
284.15	2

System: 1-methyl-1-propylpyrrolidinium bis[(trifluoromethyl)sulfonyl]imide; phases: Liquid
Fixed: Pressure, kPa = 101
Property: Mass density, kg/m3 (Liquid); method: Vibrating tube method
Temperature, K	Mass density, kg/m3	uncertainty
293.15	1432.42	0.61
298.15	1427.86	0.6
303.15	1423.37	0.6
308.15	1418.86	0.59
313.15	1414.37	0.59
318.15	1409.9	0.58
323.15	1405.45	0.58
328.15	1401.01	0.58
333.15	1396.59	0.57
338.15	1392.17	0.57
343.15	1387.77	0.56

System: 1-methyl-1-propylpyrrolidinium bis[(trifluoromethyl)sulfonyl]imide; phases: Liquid
Fixed: Pressure, kPa = 101
Property: Speed of sound, m/s (Liquid); method: Sing-around technique in a fixed-path interferometer
Temperature, K	Speed of sound, m/s	uncertainty
293.15	1281.9	1.5
298.15	1270.6	1.5
303.15	1259	1.5
308.15	1249.1	1.5
313.15	1238.2	1.5
318.15	1227.4	1.5
323.15	1216.9	1.5
328.15	1205.9	1.5
333.15	1196.4	1.5
338.15	1186.3	1.5
343.15	1176.2	1.5

System: 1-methyl-1-propylpyrrolidinium bis[(trifluoromethyl)sulfonyl]imide; phases: Liquid
Fixed: Pressure, kPa = 101
Property: Refractive index (Na D-line) (Liquid); method: Standard Abbe refractometry
Temperature, K	Refractive index (Na D-line)	uncertainty
293.15	1.42208	0.00037
298.15	1.42069	0.00037
303.15	1.41928	0.00037
308.15	1.41787	0.00037
313.15	1.41644	0.00037
318.15	1.415	0.00037
323.15	1.41354	0.00037
328.15	1.41212	0.00037
333.15	1.41073	0.00037
338.15	1.40932	0.00037
343.15	1.40796	0.00037

System: 1-methyl-1-propylpyrrolidinium bis[(trifluoromethyl)sulfonyl]imide; phases: Liquid
Fixed: Pressure, kPa = 101
Property: Viscosity, Pa*s (Liquid); method: Capillary tube (Ostwald; Ubbelohde) method
Temperature, K	Viscosity, Pa*s	uncertainty
293.15	0.06661	0.00141
298.15	0.04935	0.00103
303.15	0.03852	0.00081
308.15	0.03093	0.00065
313.15	0.02617	0.00055
318.15	0.02239	0.00047
323.15	0.01931	0.00041
328.15	0.01713	0.00036
333.15	0.01507	0.00032
338.15	0.01336	0.00028
343.15	0.01193	0.00025

System: 1-methyl-1-propylpyrrolidinium bis[(trifluoromethyl)sulfonyl]imide; phases: Liquid
Fixed: Pressure, kPa = 101
Property: Molar heat capacity at constant pressure, J/K/mol (Liquid); method: Small sample (50 mg) DSC
Temperature, K	Molar heat capacity at constant pressure, J/K/mol	uncertainty
313.15	541	24
314.15	544	24
315.15	548	24
316.15	551	24
317.15	554	24
318.15	556	24
319.15	559	24
320.15	561	24
321.15	563	24
322.15	565	24
323.15	567	24
324.15	569	24
325.15	571	25
326.15	573	25
327.15	575	25
328.15	576	25
329.15	578	25
330.15	579	25
331.15	581	25
332.15	582	25
333.15	584	25
334.15	585	25
335.15	586	25
336.15	588	25
337.15	589	25
338.15	590	25
339.15	591	25
340.15	593	25
341.15	594	25
342.15	595	25
343.15	597	25
344.15	598	25
345.15	599	25
346.15	600	26
347.15	601	26
348.15	601	26
349.15	602	26
350.15	604	26
351.15	604	26
352.15	605	26
353.15	606	26

System: methanol; phases: Liquid
Fixed: Pressure, kPa = 101
Property: Mass density, kg/m3 (Liquid); method: Vibrating tube method
Temperature, K	Mass density, kg/m3	uncertainty
298.15	786.66	0.15
303.15	781.95	0.15
308.15	777.2	0.15

System: methanol; phases: Liquid
Fixed: Pressure, kPa = 101
Property: Speed of sound, m/s (Liquid); method: Sing-around technique in a fixed-path interferometer
Temperature, K	Speed of sound, m/s	uncertainty
298.15	1102.7	1.1
303.15	1086.3	1.1
308.15	1070.1	1.1

System: methanol; phases: Liquid
Fixed: Pressure, kPa = 101.325
Property: Refractive index (Na D-line) (Liquid); method: Standard Abbe refractometry
Temperature, K	Refractive index (Na D-line)	uncertainty
298.15	1.3265	0.00031
303.15	1.32452	0.00031
308.15	1.32254	0.00031

System: ethanol; phases: Liquid
Fixed: Pressure, kPa = 101
Property: Mass density, kg/m3 (Liquid); method: Vibrating tube method
Temperature, K	Mass density, kg/m3	uncertainty
298.15	785.48	0.15
303.15	781.16	0.15
308.15	776.81	0.15

System: ethanol; phases: Liquid
Fixed: Pressure, kPa = 101
Property: Speed of sound, m/s (Liquid); method: Sing-around technique in a fixed-path interferometer
Temperature, K	Speed of sound, m/s	uncertainty
298.15	1143.9	1.1
303.15	1128	1.1
308.15	1111.8	1.1

System: ethanol; phases: Liquid
Fixed: Pressure, kPa = 101.325
Property: Refractive index (Na D-line) (Liquid); method: Standard Abbe refractometry
Temperature, K	Refractive index (Na D-line)	uncertainty
298.15	1.35932	0.00031
303.15	1.35728	0.00031
308.15	1.35519	0.00031

System: propan-1-ol; phases: Liquid
Fixed: Pressure, kPa = 101
Property: Mass density, kg/m3 (Liquid); method: Vibrating tube method
Temperature, K	Mass density, kg/m3	uncertainty
298.15	799.87	0.14
303.15	795.94	0.14
308.15	791.78	0.15

System: propan-1-ol; phases: Liquid
Fixed: Pressure, kPa = 101
Property: Speed of sound, m/s (Liquid); method: Sing-around technique in a fixed-path interferometer
Temperature, K	Speed of sound, m/s	uncertainty
298.15	1206.6	1.2
303.15	1189.5	1.2
308.15	1172.4	1.2

System: propan-1-ol; phases: Liquid
Fixed: Pressure, kPa = 101.325
Property: Refractive index (Na D-line) (Liquid); method: Standard Abbe refractometry
Temperature, K	Refractive index (Na D-line)	uncertainty
298.15	1.38309	0.00031
303.15	1.38106	0.00031
308.15	1.37894	0.00031

System: methanol + 1-methyl-1-propylpyrrolidinium bis[(trifluoromethyl)sulfonyl]imide; phases: Liquid
Fixed: Pressure, kPa = 101
Property: Mass density, kg/m3 (Liquid); method: Vibrating tube method
Temperature, K	Mole fraction of methanol	Mass density, kg/m3	uncertainty
298.15	0	1427.86	0.6
298.15	0.0462	1423.37	0.56
298.15	0.0901	1418.77	0.53
298.15	0.1769	1408.88	0.47
298.15	0.2722	1396.02	0.41
298.15	0.3855	1376.42	0.34
298.15	0.568	1329.02	0.25
298.15	0.685	1279.72	0.23
298.15	0.798	1201.72	0.25
298.15	0.8984	1075.97	0.33
298.15	0.9467	973.15	0.59
298.15	1	786.66	0.15
303.15	0	1423.26	0.6
303.15	0.0462	1418.86	0.56
303.15	0.0901	1414.23	0.53
303.15	0.1769	1404.34	0.46
303.15	0.2722	1391.43	0.4
303.15	0.3855	1371.67	0.34
303.15	0.568	1324.31	0.25
303.15	0.685	1274.95	0.23
303.15	0.798	1196.89	0.25
303.15	0.8984	1071.1	0.32
303.15	0.9467	968.3	0.58
303.15	1	781.95	0.15
308.15	0	1418.83	0.59
308.15	0.0462	1414.35	0.56
308.15	0.0901	1409.69	0.52
308.15	0.1769	1399.8	0.46
308.15	0.2722	1386.85	0.4
308.15	0.3855	1367.04	0.34
308.15	0.568	1319.61	0.25
308.15	0.685	1270.18	0.23
308.15	0.798	1192.05	0.26
308.15	0.8984	1066.22	0.33
308.15	0.9467	963.44	0.59
308.15	1	777.2	0.15

System: methanol + 1-methyl-1-propylpyrrolidinium bis[(trifluoromethyl)sulfonyl]imide; phases: Liquid
Fixed: Pressure, kPa = 101
Property: Speed of sound, m/s (Liquid); method: Sing-around technique in a fixed-path interferometer
Temperature, K	Mole fraction of methanol	Speed of sound, m/s	uncertainty
298.15	0	1270.6	1.5
298.15	0.0462	1268.8	1.5
298.15	0.0901	1266.9	1.5
298.15	0.1769	1262.7	1.4
298.15	0.2722	1257.1	1.4
298.15	0.3855	1248.7	1.3
298.15	0.568	1228.6	1.3
298.15	0.685	1208.5	1.2
298.15	0.798	1180.4	1.2
298.15	0.8984	1144.6	1.2
298.15	0.9467	1124.5	1.2
298.15	1	1102.7	1.1
303.15	0	1259.5	1.5
303.15	0.0462	1257.7	1.5
303.15	0.0901	1255.8	1.5
303.15	0.1769	1251.6	1.4
303.15	0.2722	1246	1.4
303.15	0.3855	1237.4	1.3
303.15	0.568	1217	1.3
303.15	0.685	1196.8	1.2
303.15	0.798	1168.2	1.2
303.15	0.8984	1131.4	1.2
303.15	0.9467	1110.3	1.1
303.15	1	1086.3	1.1
308.15	0	1248.6	1.5
308.15	0.0462	1246.8	1.5
308.15	0.0901	1244.9	1.5
308.15	0.1769	1240.6	1.4
308.15	0.2722	1234.9	1.4
308.15	0.3855	1226.2	1.3
308.15	0.568	1205.7	1.3
308.15	0.685	1185.2	1.2
308.15	0.798	1156.1	1.2
308.15	0.8984	1118.3	1.2
308.15	0.9467	1096.2	1.1
308.15	1	1070.1	1.1

System: methanol + 1-methyl-1-propylpyrrolidinium bis[(trifluoromethyl)sulfonyl]imide; phases: Liquid
Fixed: Pressure, kPa = 101
Property: Refractive index (Na D-line) (Liquid); method: Standard Abbe refractometry
Temperature, K	Mole fraction of methanol	Refractive index (Na D-line)	uncertainty
298.15	0	1.42064	0.00037
298.15	0.0462	1.42002	0.00036
298.15	0.0901	1.41937	0.00036
298.15	0.1769	1.41794	0.00035
298.15	0.2722	1.41609	0.00034
298.15	0.3855	1.41327	0.00034
298.15	0.568	1.40659	0.00033
298.15	0.685	1.39953	0.00032
298.15	0.798	1.38838	0.00032
298.15	0.8984	1.37031	0.00032
298.15	0.9467	1.35498	0.00032
298.15	1	1.3265	0.00031
303.15	0	1.41926	0.00037
303.15	0.0462	1.41862	0.00036
303.15	0.0901	1.41801	0.00036
303.15	0.1769	1.41675	0.00035
303.15	0.2722	1.41503	0.00034
303.15	0.3855	1.41206	0.00034
303.15	0.568	1.4055	0.00033
303.15	0.685	1.39832	0.00032
303.15	0.798	1.38703	0.00032
303.15	0.8984	1.36877	0.00032
303.15	0.9467	1.35335	0.00032
303.15	1	1.32452	0.00031
308.15	0	1.41782	0.00037
308.15	0.0462	1.41719	0.00036
308.15	0.0901	1.41659	0.00036
308.15	0.1769	1.41551	0.00035
308.15	0.2722	1.4136	0.00034
308.15	0.3855	1.41063	0.00034
308.15	0.568	1.404	0.00033
308.15	0.685	1.39695	0.00032
308.15	0.798	1.38569	0.00032
308.15	0.8984	1.36712	0.00032
308.15	0.9467	1.35185	0.00032
308.15	1	1.32254	0.00031

System: ethanol + 1-methyl-1-propylpyrrolidinium bis[(trifluoromethyl)sulfonyl]imide; phases: Liquid
Fixed: Pressure, kPa = 101
Property: Mass density, kg/m3 (Liquid); method: Vibrating tube method
Temperature, K	Mole fraction of ethanol	Mass density, kg/m3	uncertainty
298.15	0	1427.86	0.6
298.15	0.016	1425.68	0.59
298.15	0.0703	1418.06	0.54
298.15	0.0986	1413.89	0.52
298.15	0.2816	1380.66	0.39
298.15	0.4082	1349.44	0.32
298.15	0.5143	1315.09	0.26
298.15	0.6077	1275.55	0.23
298.15	0.7059	1219.23	0.22
298.15	0.8034	1138.92	0.25
298.15	0.9002	1015	0.31
298.15	0.9468	927.02	0.48
298.15	1	785.48	0.15
303.15	0	1423.26	0.6
303.15	0.016	1421.16	0.58
303.15	0.0703	1413.56	0.54
303.15	0.0986	1409.36	0.52
303.15	0.2816	1376.07	0.39
303.15	0.4082	1344.8	0.31
303.15	0.5143	1310.32	0.26
303.15	0.6077	1270.84	0.23
303.15	0.7059	1214.5	0.22
303.15	0.8034	1134.21	0.25
303.15	0.9002	1010.37	0.3
303.15	0.9468	922.49	0.48
303.15	1	781.16	0.15
308.15	0	1418.83	0.59
308.15	0.016	1416.65	0.58
308.15	0.0703	1409.05	0.54
308.15	0.0986	1404.83	0.51
308.15	0.2816	1371.48	0.39
308.15	0.4082	1340.16	0.31
308.15	0.5143	1305.65	0.26
308.15	0.6077	1266.14	0.23
308.15	0.7059	1209.77	0.23
308.15	0.8034	1129.48	0.26
308.15	0.9002	1005.72	0.32
308.15	0.9468	917.93	0.48
308.15	1	776.81	0.15

System: ethanol + 1-methyl-1-propylpyrrolidinium bis[(trifluoromethyl)sulfonyl]imide; phases: Liquid
Fixed: Pressure, kPa = 101
Property: Speed of sound, m/s (Liquid); method: Sing-around technique in a fixed-path interferometer
Temperature, K	Mole fraction of ethanol	Speed of sound, m/s	uncertainty
298.15	0	1270.6	1.5
298.15	0.016	1269.2	1.5
298.15	0.0703	1266.3	1.5
298.15	0.0986	1264.6	1.5
298.15	0.2816	1252.4	1.4
298.15	0.4082	1241	1.3
298.15	0.5143	1228.8	1.3
298.15	0.6077	1215.8	1.2
298.15	0.7059	1198.4	1.2
298.15	0.8034	1177.6	1.2
298.15	0.9002	1155	1.2
298.15	0.9468	1146.8	1.2
298.15	1	1143.9	1.1
303.15	0	1259.5	1.5
303.15	0.016	1258.2	1.5
303.15	0.0703	1255.2	1.5
303.15	0.0986	1253	1.5
303.15	0.2816	1241.1	1.4
303.15	0.4082	1229.5	1.3
303.15	0.5143	1217.2	1.3
303.15	0.6077	1203.9	1.2
303.15	0.7059	1186.2	1.2
303.15	0.8034	1164.7	1.2
303.15	0.9002	1140.9	1.2
303.15	0.9468	1131.8	1.1
303.15	1	1128	1.1
308.15	0	1248.6	1.5
308.15	0.016	1247.2	1.5
308.15	0.0703	1244.3	1.5
308.15	0.0986	1242.6	1.5
308.15	0.2816	1229.9	1.4
308.15	0.4082	1218.2	1.3
308.15	0.5143	1205.7	1.3
308.15	0.6077	1192.1	1.2
308.15	0.7059	1174	1.2
308.15	0.8034	1151.9	1.2
308.15	0.9002	1127	1.2
308.15	0.9468	1117	1.1
308.15	1	1111.8	1.1

System: ethanol + 1-methyl-1-propylpyrrolidinium bis[(trifluoromethyl)sulfonyl]imide; phases: Liquid
Fixed: Pressure, kPa = 101
Property: Refractive index (Na D-line) (Liquid); method: Standard Abbe refractometry
Temperature, K	Mole fraction of ethanol	Refractive index (Na D-line)	uncertainty
298.15	0	1.42064	0.00037
298.15	0.016	1.42045	0.00037
298.15	0.0703	1.41973	0.00036
298.15	0.0986	1.41935	0.00036
298.15	0.2816	1.41621	0.00034
298.15	0.4082	1.41338	0.00033
298.15	0.5143	1.41021	0.00033
298.15	0.6077	1.40661	0.00032
298.15	0.7059	1.40144	0.00032
298.15	0.8034	1.39395	0.00032
298.15	0.9002	1.38228	0.00031
298.15	0.9468	1.37383	0.00031
298.15	1	1.35932	0.00031
303.15	0	1.41926	0.00037
303.15	0.016	1.41907	0.00037
303.15	0.0703	1.41834	0.00036
303.15	0.0986	1.41789	0.00036
303.15	0.2816	1.41485	0.00034
303.15	0.4082	1.412	0.00033
303.15	0.5143	1.40877	0.00033
303.15	0.6077	1.40521	0.00032
303.15	0.7059	1.39995	0.00032
303.15	0.8034	1.39236	0.00032
303.15	0.9002	1.38064	0.00031
303.15	0.9468	1.372	0.00031
303.15	1	1.35728	0.00031
308.15	0	1.41782	0.00037
308.15	0.016	1.41766	0.00037
308.15	0.0703	1.4169	0.00036
308.15	0.0986	1.41649	0.00036
308.15	0.2816	1.41339	0.00034
308.15	0.4082	1.41052	0.00033
308.15	0.5143	1.40732	0.00033
308.15	0.6077	1.40398	0.00032
308.15	0.7059	1.39878	0.00032
308.15	0.8034	1.39104	0.00032
308.15	0.9002	1.37888	0.00031
308.15	0.9468	1.37027	0.00032
308.15	1	1.35519	0.00031

System: propan-1-ol + 1-methyl-1-propylpyrrolidinium bis[(trifluoromethyl)sulfonyl]imide; phases: Liquid
Fixed: Pressure, kPa = 101
Property: Mass density, kg/m3 (Liquid); method: Vibrating tube method
Temperature, K	Mole fraction of propan-1-ol	Mass density, kg/m3	uncertainty
298.15	0	1427.86	0.6
298.15	0.0938	1411.16	0.52
298.15	0.1942	1390.36	0.45
298.15	0.3092	1361.8	0.37
298.15	0.3925	1336.96	0.32
298.15	0.5031	1296.59	0.26
298.15	0.6035	1249.57	0.23
298.15	0.6084	1246.93	0.23
298.15	0.6973	1192.26	0.22
298.15	0.8048	1102.79	0.24
298.15	0.8994	988.76	0.29
298.15	0.9465	912.36	0.39
298.15	1	799.87	0.14
303.15	0	1423.26	0.6
303.15	0.0938	1406.64	0.52
303.15	0.1942	1385.82	0.44
303.15	0.3092	1357.24	0.36
303.15	0.3925	1332.37	0.31
303.15	0.5031	1291.99	0.26
303.15	0.6035	1244.97	0.23
303.15	0.6084	1242.32	0.23
303.15	0.6973	1187.68	0.22
303.15	0.8048	1098.29	0.24
303.15	0.8994	984.42	0.28
303.15	0.9465	908.13	0.4
303.15	1	795.94	0.14
308.15	0	1418.83	0.59
308.15	0.0938	1402.12	0.52
308.15	0.1942	1381.28	0.44
308.15	0.3092	1352.68	0.36
308.15	0.3925	1327.8	0.31
308.15	0.5031	1287.39	0.26
308.15	0.6035	1240.35	0.23
308.15	0.6084	1237.71	0.22
308.15	0.6973	1183.08	0.22
308.15	0.8048	1093.76	0.25
308.15	0.8994	980.03	0.29
308.15	0.9465	903.87	0.4
308.15	1	791.78	0.15

System: propan-1-ol + 1-methyl-1-propylpyrrolidinium bis[(trifluoromethyl)sulfonyl]imide; phases: Liquid
Fixed: Pressure, kPa = 101
Property: Speed of sound, m/s (Liquid); method: Sing-around technique in a fixed-path interferometer
Temperature, K	Mole fraction of propan-1-ol	Speed of sound, m/s	uncertainty
298.15	0	1270.6	1.5
298.15	0.0938	1265.5	1.5
298.15	0.1942	1259.2	1.4
298.15	0.3092	1250.8	1.4
298.15	0.3925	1243.8	1.3
298.15	0.5031	1233	1.3
298.15	0.6035	1221.4	1.2
298.15	0.6084	1220.8	1.2
298.15	0.6973	1209.2	1.2
298.15	0.8048	1194.6	1.2
298.15	0.8994	1187.7	1.2
298.15	0.9465	1192	1.2
298.15	1	1206.6	1.2
303.15	0	1259.5	1.5
303.15	0.0938	1254.3	1.5
303.15	0.1942	1248	1.4
303.15	0.3092	1239.4	1.4
303.15	0.3925	1232.2	1.3
303.15	0.5031	1221.2	1.3
303.15	0.6035	1209.3	1.2
303.15	0.6084	1208.7	1.2
303.15	0.6973	1196.7	1.2
303.15	0.8048	1181.5	1.2
303.15	0.8994	1173.4	1.2
303.15	0.9465	1176.5	1.2
303.15	1	1189.5	1.2
308.15	0	1248.6	1.5
308.15	0.0938	1243.4	1.5
308.15	0.1942	1236.8	1.4
308.15	0.3092	1228.1	1.4
308.15	0.3925	1220.8	1.3
308.15	0.5031	1209.4	1.3
308.15	0.6035	1197.2	1.2
308.15	0.6084	1196.6	1.2
308.15	0.6973	1184.2	1.2
308.15	0.8048	1168.3	1.2
308.15	0.8994	1159.1	1.2
308.15	0.9465	1161.2	1.2
308.15	1	1172.4	1.2

System: propan-1-ol + 1-methyl-1-propylpyrrolidinium bis[(trifluoromethyl)sulfonyl]imide; phases: Liquid
Fixed: Pressure, kPa = 101
Property: Refractive index (Na D-line) (Liquid); method: Standard Abbe refractometry
Temperature, K	Mole fraction of propan-1-ol	Refractive index (Na D-line)	uncertainty
298.15	0	1.42064	0.00037
298.15	0.0938	1.41963	0.00036
298.15	0.1942	1.41841	0.00035
298.15	0.3092	1.41669	0.00034
298.15	0.3925	1.41523	0.00034
298.15	0.5031	1.41287	0.00033
298.15	0.6035	1.41013	0.00032
298.15	0.6084	1.40996	0.00032
298.15	0.6973	1.40685	0.00032
298.15	0.8048	1.40163	0.00031
298.15	0.8994	1.39494	0.00031
298.15	0.9465	1.39023	0.00031
298.15	1	1.38309	0.00031
303.15	0	1.41926	0.00037
303.15	0.0938	1.41825	0.00036
303.15	0.1942	1.41693	0.00035
303.15	0.3092	1.41521	0.00034
303.15	0.3925	1.41377	0.00034
303.15	0.5031	1.41135	0.00033
303.15	0.6035	1.40858	0.00032
303.15	0.6084	1.40837	0.00032
303.15	0.6973	1.40519	0.00032
303.15	0.8048	1.40019	0.00032
303.15	0.8994	1.39356	0.00031
303.15	0.9465	1.38843	0.00031
303.15	1	1.38106	0.00031
308.15	0	1.41782	0.00037
308.15	0.0938	1.41678	0.00036
308.15	0.1942	1.4155	0.00035
308.15	0.3092	1.41375	0.00034
308.15	0.3925	1.41227	0.00034
308.15	0.5031	1.40984	0.00033
308.15	0.6035	1.40703	0.00032
308.15	0.6084	1.40681	0.00032
308.15	0.6973	1.40364	0.00032
308.15	0.8048	1.39885	0.00032
308.15	0.8994	1.39205	0.00031
308.15	0.9465	1.38653	0.00031
308.15	1	1.37894	0.00031
