Measured thermophysical data. Analysing the molecular interactions of sucrose in aqueous triammonium citrate and trilithium citrate solutions at different temperatures T = (288.15-318.15) K through volumetric and ultrasonic investigations
Source: J. Chem. Thermodyn., 2018, 10.1016/j.jct.2018.05.004
Compound 1: D-sucrose, C12H22O11, InChI=1S/C12H22O11/c13-1-4-6(16)8(18)9(19)11(21-4)23-12(3-15)10(20)7(17)5(2-14)22-12/h4-11,13-20H,1-3H2/t4-,5-,6-,7-,8+,9-,10+,11-,12+/m1/s1, purity 99%
Compound 2: ammonium 2-hydroxypropane-1,2,3-tricarboxylate, C6H17N3O7, InChI=1S/C6H8O7.3H3N/c7-3(8)1-6(13,5(11)12)2-4(9)10;;;/h13H,1-2H2,(H,7,8)(H,9,10)(H,11,12);3*1H3, purity 98.5%
Compound 3: trilithium citrate, C6H5Li3O7, InChI=1S/C6H8O7.3Li/c7-3(8)1-6(13,5(11)12)2-4(9)10;;;/h13H,1-2H2,(H,7,8)(H,9,10)(H,11,12);;;/q;3*+1/p-3, purity 98.5%
Compound 4: water, H2O, InChI=1S/H2O/h1H2

System: D-sucrose + water + ammonium 2-hydroxypropane-1,2,3-tricarboxylate; phases: Liquid
Fixed: Pressure, kPa = 100
Property: Mass density, kg/m3 (Liquid); method: Vibrating tube method
Temperature, K	Solvent: Molality, mol/kg of ammonium 2-hydroxypropane-1,2,3-tricarboxylate	Molality, mol/kg of D-sucrose	Mass density, kg/m3	uncertainty
288.15	0	0	999.117	8.003
288.15	0	0.1002	1012.006	8.006
288.15	0	0.20074	1024.37	8.02
288.15	0	0.30115	1036.192	8.032
288.15	0	0.4034	1047.719	8.052
288.15	0	0.49965	1058.125	8.072
288.15	0	0.60185	1068.729	8.096
288.15	0	0.70218	1078.714	8.12
288.15	0	0.79785	1087.865	8.142
288.15	0	0.89555	1096.857	8.165
288.15	0	0.99691	1105.825	8.196
298.15	0	0	997.054	8.003
298.15	0	0.1002	1009.811	8.006
298.15	0	0.20074	1022.039	8.016
298.15	0	0.30115	1033.732	8.032
298.15	0	0.4034	1045.134	8.051
298.15	0	0.49965	1055.43	8.071
298.15	0	0.60185	1065.922	8.094
298.15	0	0.70218	1075.805	8.117
298.15	0	0.79785	1084.864	8.139
298.15	0	0.89555	1093.768	8.162
298.15	0	0.99691	1102.651	8.182
308.15	0	0	994.048	8.003
308.15	0	0.1002	1006.682	8.006
308.15	0	0.20074	1018.799	8.016
308.15	0	0.30115	1030.387	8.031
308.15	0	0.4034	1041.687	8.05
308.15	0	0.49965	1051.891	8.07
308.15	0	0.60185	1062.292	8.092
308.15	0	0.70218	1072.09	8.115
308.15	0	0.79785	1081.072	8.137
308.15	0	0.89555	1089.901	8.159
308.15	0	0.99691	1098.711	8.182
318.15	0	0	990.215	8.003
318.15	0	0.1002	1002.772	8.006
318.15	0	0.20074	1014.821	8.016
318.15	0	0.30115	1026.343	8.031
318.15	0	0.4034	1037.582	8.05
318.15	0	0.49965	1047.727	8.069
318.15	0	0.60185	1058.065	8.091
318.15	0	0.70218	1067.815	8.114
318.15	0	0.79785	1076.722	8.135
318.15	0	0.89555	1085.489	8.157
318.15	0	0.99691	1094.231	8.186
288.15	0.2	0	1021.37	8.015
288.15	0.2	0.10011	1033.826	8.018
288.15	0.2	0.1986	1045.541	8.027
288.15	0.2	0.29936	1057.001	8.041
288.15	0.2	0.39782	1067.705	8.058
288.15	0.2	0.49864	1078.186	8.077
288.15	0.2	0.59824	1088.086	8.102
298.15	0.2	0	1019.005	8.015
298.15	0.2	0.10011	1031.338	8.017
298.15	0.2	0.1986	1042.935	8.026
298.15	0.2	0.29936	1054.278	8.04
298.15	0.2	0.39782	1064.878	8.057
298.15	0.2	0.49864	1075.259	8.075
298.15	0.2	0.59824	1085.062	8.094
308.15	0.2	0	1015.712	8.015
308.15	0.2	0.10011	1027.93	8.017
308.15	0.2	0.1986	1039.417	8.026
308.15	0.2	0.29936	1050.651	8.04
308.15	0.2	0.39782	1061.14	8.056
308.15	0.2	0.49864	1071.407	8.074
308.15	0.2	0.59824	1081.097	8.097
318.15	0.2	0	1011.753	8.015
318.15	0.2	0.10011	1023.889	8.017
318.15	0.2	0.1986	1035.299	8.026
318.15	0.2	0.29936	1046.457	8.039
318.15	0.2	0.39782	1056.874	8.055
318.15	0.2	0.49864	1067.075	8.073
318.15	0.2	0.59824	1076.698	8.098
288.15	0.4	0	1043.449	8.071
288.15	0.4	0.0987	1055.385	8.049
288.15	0.4	0.19946	1067.018	8.057
288.15	0.4	0.29841	1077.921	8.069
288.15	0.4	0.3984	1088.441	8.084
288.15	0.4	0.49907	1098.553	8.101
288.15	0.4	0.59958	1108.187	8.112
298.15	0.4	0	1040.153	8.046
298.15	0.4	0.0987	1051.974	8.047
298.15	0.4	0.19946	1063.494	8.055
298.15	0.4	0.29841	1074.292	8.067
298.15	0.4	0.3984	1084.707	8.081
298.15	0.4	0.49907	1094.716	8.098
298.15	0.4	0.59958	1104.251	8.117
308.15	0.4	0	1037.343	8.046
308.15	0.4	0.0987	1049.044	8.047
308.15	0.4	0.19946	1060.443	8.055
308.15	0.4	0.29841	1071.13	8.066
308.15	0.4	0.3984	1081.434	8.08
308.15	0.4	0.49907	1091.335	8.096
308.15	0.4	0.59958	1100.766	8.108
318.15	0.4	0	1033.306	8.021
318.15	0.4	0.0987	1044.927	8.047
318.15	0.4	0.19946	1056.247	8.054
318.15	0.4	0.29841	1066.857	8.065
318.15	0.4	0.3984	1077.088	8.079
318.15	0.4	0.49907	1086.918	8.095
318.15	0.4	0.59958	1096.28	8.105
288.15	0.6	0	1063.756	8.096
288.15	0.6	0.09948	1075.423	8.094
288.15	0.6	0.19983	1086.641	8.099
288.15	0.6	0.29984	1097.301	8.109
288.15	0.6	0.39967	1107.445	8.121
288.15	0.6	0.49946	1117.111	8.135
288.15	0.6	0.59786	1126.2	8.153
298.15	0.6	0	1060.415	8.096
298.15	0.6	0.09948	1071.965	8.094
298.15	0.6	0.19983	1083.07	8.1
298.15	0.6	0.29984	1093.621	8.109
298.15	0.6	0.39967	1103.659	8.12
298.15	0.6	0.49946	1113.223	8.134
298.15	0.6	0.59786	1122.277	8.153
308.15	0.6	0	1057.211	8.089
308.15	0.6	0.09948	1068.641	8.089
308.15	0.6	0.19983	1079.632	8.094
308.15	0.6	0.29984	1090.068	8.103
308.15	0.6	0.39967	1099.996	8.115
308.15	0.6	0.49946	1109.455	8.128
308.15	0.6	0.59786	1118.346	8.14
318.15	0.6	0	1052.933	8.09
318.15	0.6	0.09948	1064.285	8.088
318.15	0.6	0.19983	1075.196	8.093
318.15	0.6	0.29984	1085.557	8.102
318.15	0.6	0.39967	1095.414	8.113
318.15	0.6	0.49946	1104.805	8.126
318.15	0.6	0.59786	1113.631	8.143

System: D-sucrose + water + ammonium 2-hydroxypropane-1,2,3-tricarboxylate; phases: Liquid
Fixed: Pressure, kPa = 100
Fixed: Frequency, MHz = 3
Property: Speed of sound, m/s (Liquid); method: Single path-length method
Temperature, K	Solvent: Molality, mol/kg of ammonium 2-hydroxypropane-1,2,3-tricarboxylate	Molality, mol/kg of D-sucrose	Speed of sound, m/s	uncertainty
288.15	0	0	1466.62	16.03
288.15	0	0.1002	1476.33	16.03
288.15	0	0.20074	1486.15	16.03
288.15	0	0.30115	1495.97	16.04
288.15	0	0.4034	1506.01	16.04
288.15	0	0.49965	1515.31	16.05
288.15	0	0.60185	1525.24	16.07
288.15	0	0.70218	1534.87	16.08
288.15	0	0.79785	1543.87	16.09
288.15	0	0.89555	1552.92	16.11
288.15	0	0.99691	1562.21	16.13
298.15	0	0	1497.02	16.03
298.15	0	0.1002	1505.99	16.03
298.15	0	0.20074	1515.01	16.03
298.15	0	0.30115	1523.98	16.03
298.15	0	0.4034	1533.15	16.04
298.15	0	0.49965	1541.67	16.05
298.15	0	0.60185	1550.57	16.06
298.15	0	0.70218	1559.26	16.07
298.15	0	0.79785	1567.41	16.08
298.15	0	0.89555	1575.57	16.09
298.15	0	0.99691	1583.77	16.08
308.15	0	0	1519.93	16.03
308.15	0	0.1002	1528.16	16.03
308.15	0	0.20074	1536.45	16.03
308.15	0	0.30115	1544.74	16.03
308.15	0	0.4034	1553.12	16.04
308.15	0	0.49965	1561	16.05
308.15	0	0.60185	1569.28	16.05
308.15	0	0.70218	1577.23	16.06
308.15	0	0.79785	1584.82	16.07
308.15	0	0.89555	1592.35	16.08
308.15	0	0.99691	1600.08	16.09
318.15	0	0	1536.46	16.03
318.15	0	0.1002	1543.97	16.03
318.15	0	0.20074	1552.57	16.03
318.15	0	0.30115	1560.1	16.03
318.15	0	0.4034	1567.72	16.04
318.15	0	0.49965	1575.97	16.05
318.15	0	0.60185	1584.21	16.05
318.15	0	0.70218	1591.99	16.06
318.15	0	0.79785	1599.57	16.07
318.15	0	0.89555	1606.7	16.08
318.15	0	0.99691	1614.41	16.1
288.15	0.2	0	1503.11	16.04
288.15	0.2	0.10011	1513.26	16.04
288.15	0.2	0.1986	1522.87	16.05
288.15	0.2	0.29936	1532.19	16.05
288.15	0.2	0.39782	1541.62	16.06
288.15	0.2	0.49864	1551.35	16.07
288.15	0.2	0.59824	1560.87	16.09
298.15	0.2	0	1531.96	16.04
298.15	0.2	0.10011	1540.87	16.04
298.15	0.2	0.1986	1549.58	16.05
298.15	0.2	0.29936	1558.51	16.05
298.15	0.2	0.39782	1567.12	16.06
298.15	0.2	0.49864	1576.3	16.07
298.15	0.2	0.59824	1585.09	16.08
308.15	0.2	0	1553.49	16.04
308.15	0.2	0.10011	1561.73	16.04
308.15	0.2	0.1986	1569.74	16.04
308.15	0.2	0.29936	1577.96	16.05
308.15	0.2	0.39782	1585.84	16.06
308.15	0.2	0.49864	1594.35	16.06
308.15	0.2	0.59824	1602.34	16.08
318.15	0.2	0	1569.04	16.04
318.15	0.2	0.10011	1576.63	16.04
318.15	0.2	0.1986	1583.98	16.04
318.15	0.2	0.29936	1591.56	16.05
318.15	0.2	0.39782	1598.82	16.05
318.15	0.2	0.49864	1606.72	16.06
318.15	0.2	0.59824	1614.05	16.12
288.15	0.4	0	1540.41	16.1
288.15	0.4	0.0987	1550.08	16.1
288.15	0.4	0.19946	1559.95	16.1
288.15	0.4	0.29841	1569.64	16.11
288.15	0.4	0.3984	1579.43	16.12
288.15	0.4	0.49907	1589.29	16.13
288.15	0.4	0.59958	1599.14	16.14
298.15	0.4	0	1567.35	16.09
298.15	0.4	0.0987	1577.02	16.09
298.15	0.4	0.19946	1586.89	16.1
298.15	0.4	0.29841	1596.58	16.1
298.15	0.4	0.3984	1606.37	16.11
298.15	0.4	0.49907	1616.23	16.12
298.15	0.4	0.59958	1626.08	16.11
308.15	0.4	0	1587.78	16.08
308.15	0.4	0.0987	1597.45	16.09
308.15	0.4	0.19946	1607.32	16.09
308.15	0.4	0.29841	1617.01	16.09
308.15	0.4	0.3984	1626.8	16.1
308.15	0.4	0.49907	1636.66	16.11
308.15	0.4	0.59958	1646.51	16.09
318.15	0.4	0	1602.3	16.11
318.15	0.4	0.0987	1611.97	16.08
318.15	0.4	0.19946	1621.84	16.09
318.15	0.4	0.29841	1631.53	16.09
318.15	0.4	0.3984	1641.32	16.1
318.15	0.4	0.49907	1651.18	16.11
318.15	0.4	0.59958	1661.03	16.08
288.15	0.6	0	1578.73	16.19
288.15	0.6	0.09948	1588.93	16.19
288.15	0.6	0.19983	1598.58	16.2
288.15	0.6	0.29984	1608.4	16.2
288.15	0.6	0.39967	1617.94	16.21
288.15	0.6	0.49946	1627.83	16.22
288.15	0.6	0.59786	1637.2	16.23
298.15	0.6	0	1603.61	16.16
298.15	0.6	0.09948	1613.07	16.16
298.15	0.6	0.19983	1621.98	16.16
298.15	0.6	0.29984	1630.82	16.15
298.15	0.6	0.39967	1639.5	16.15
298.15	0.6	0.49946	1648.54	16.16
298.15	0.6	0.59786	1657.31	16.14
308.15	0.6	0	1621.94	16.14
308.15	0.6	0.09948	1630.23	16.14
308.15	0.6	0.19983	1638.45	16.13
308.15	0.6	0.29984	1646.53	16.12
308.15	0.6	0.39967	1654.46	16.12
308.15	0.6	0.49946	1662.78	16.12
308.15	0.6	0.59786	1670.92	16.11
318.15	0.6	0	1635.37	16.15
318.15	0.6	0.09948	1642.94	16.13
318.15	0.6	0.19983	1650.56	16.12
318.15	0.6	0.29984	1658.55	16.11
318.15	0.6	0.39967	1666.05	16.11
318.15	0.6	0.49946	1673.95	16.1
318.15	0.6	0.59786	1681.75	16.1

System: D-sucrose + water + trilithium citrate; phases: Liquid
Fixed: Pressure, kPa = 100
Property: Mass density, kg/m3 (Liquid); method: Vibrating tube method
Temperature, K	Solvent: Molality, mol/kg of trilithium citrate	Molality, mol/kg of D-sucrose	Mass density, kg/m3	uncertainty
288.15	0	0	999.117	8.003
288.15	0	0.1002	1012.006	8.006
288.15	0	0.20074	1024.37	8.02
288.15	0	0.30115	1036.192	8.032
288.15	0	0.4034	1047.719	8.052
288.15	0	0.49965	1058.125	8.072
288.15	0	0.60185	1068.729	8.096
288.15	0	0.70218	1078.714	8.12
288.15	0	0.79785	1087.865	8.142
288.15	0	0.89555	1096.857	8.165
288.15	0	0.99691	1105.825	8.196
298.15	0	0	997.054	8.003
298.15	0	0.1002	1009.811	8.006
298.15	0	0.20074	1022.039	8.016
298.15	0	0.30115	1033.732	8.032
298.15	0	0.4034	1045.134	8.051
298.15	0	0.49965	1055.43	8.071
298.15	0	0.60185	1065.922	8.094
298.15	0	0.70218	1075.805	8.117
298.15	0	0.79785	1084.864	8.139
298.15	0	0.89555	1093.768	8.162
298.15	0	0.99691	1102.651	8.182
308.15	0	0	994.048	8.003
308.15	0	0.1002	1006.682	8.006
308.15	0	0.20074	1018.799	8.016
308.15	0	0.30115	1030.387	8.031
308.15	0	0.4034	1041.687	8.05
308.15	0	0.49965	1051.891	8.07
308.15	0	0.60185	1062.292	8.092
308.15	0	0.70218	1072.09	8.115
308.15	0	0.79785	1081.072	8.137
308.15	0	0.89555	1089.901	8.159
308.15	0	0.99691	1098.711	8.182
318.15	0	0	990.215	8.003
318.15	0	0.1002	1002.772	8.006
318.15	0	0.20074	1014.821	8.016
318.15	0	0.30115	1026.343	8.031
318.15	0	0.4034	1037.582	8.05
318.15	0	0.49965	1047.727	8.069
318.15	0	0.60185	1058.065	8.091
318.15	0	0.70218	1067.815	8.114
318.15	0	0.79785	1076.722	8.135
318.15	0	0.89555	1085.489	8.157
318.15	0	0.99691	1094.231	8.186
288.15	0.2	0	1027.206	8.021
288.15	0.2	0.09875	1039.057	8.023
288.15	0.2	0.19992	1051.197	8.034
288.15	0.2	0.29947	1063.142	8.051
288.15	0.2	0.39953	1075.149	8.076
288.15	0.2	0.49837	1087.011	8.107
288.15	0.2	0.59835	1099.009	8.072
298.15	0.2	0	1025.319	8.021
298.15	0.2	0.09875	1037.17	8.023
298.15	0.2	0.19992	1049.31	8.034
298.15	0.2	0.29947	1061.255	8.051
298.15	0.2	0.39953	1073.262	8.075
298.15	0.2	0.49837	1085.124	8.107
298.15	0.2	0.59835	1097.122	8.083
308.15	0.2	0	1021.668	8.021
308.15	0.2	0.09875	1033.519	8.023
308.15	0.2	0.19992	1045.659	8.033
308.15	0.2	0.29947	1057.604	8.051
308.15	0.2	0.39953	1069.611	8.075
308.15	0.2	0.49837	1081.473	8.106
308.15	0.2	0.59835	1093.471	8.086
318.15	0.2	0	1017.794	8.021
318.15	0.2	0.09875	1029.645	8.023
318.15	0.2	0.19992	1041.785	8.033
318.15	0.2	0.29947	1053.73	8.051
318.15	0.2	0.39953	1065.737	8.075
318.15	0.2	0.49837	1077.599	8.106
318.15	0.2	0.59835	1089.597	8.056
288.15	0.4	0	1052.753	8.072
288.15	0.4	0.09988	1064.829	8.071
288.15	0.4	0.19943	1076.294	8.078
288.15	0.4	0.3	1087.336	8.088
288.15	0.4	0.3997	1097.761	8.099
288.15	0.4	0.49995	1107.753	8.111
288.15	0.4	0.59907	1117.177	8.158
298.15	0.4	0	1050.407	8.066
298.15	0.4	0.09988	1062.362	8.068
298.15	0.4	0.19943	1073.721	8.074
298.15	0.4	0.3	1084.65	8.084
298.15	0.4	0.3997	1094.968	8.095
298.15	0.4	0.49995	1104.867	8.106
298.15	0.4	0.59907	1114.188	8.138
308.15	0.4	0	1046.92	8.066
308.15	0.4	0.09988	1058.772	8.068
308.15	0.4	0.19943	1070.031	8.074
308.15	0.4	0.3	1080.864	8.083
308.15	0.4	0.3997	1091.102	8.093
308.15	0.4	0.49995	1100.904	8.105
308.15	0.4	0.59907	1110.14	8.138
318.15	0.4	0	1042.956	8.063
318.15	0.4	0.09988	1054.711	8.067
318.15	0.4	0.19943	1065.879	8.073
318.15	0.4	0.3	1076.621	8.082
318.15	0.4	0.3997	1086.761	8.092
318.15	0.4	0.49995	1096.477	8.102
318.15	0.4	0.59907	1105.63	8.158
288.15	0.6	0	1078.283	8.149
288.15	0.6	0.09967	1089.944	8.145
288.15	0.6	0.19952	1101.064	8.15
288.15	0.6	0.3	1111.708	8.158
288.15	0.6	0.39932	1121.716	8.169
288.15	0.6	0.49964	1131.337	8.181
288.15	0.6	0.59856	1140.364	8.198
298.15	0.6	0	1075.381	8.141
298.15	0.6	0.09967	1086.928	8.139
298.15	0.6	0.19952	1097.941	8.143
298.15	0.6	0.3	1108.478	8.151
298.15	0.6	0.39932	1118.386	8.162
298.15	0.6	0.49964	1127.913	8.173
298.15	0.6	0.59856	1136.847	8.186
308.15	0.6	0	1071.836	8.141
308.15	0.6	0.09967	1083.274	8.139
308.15	0.6	0.19952	1094.18	8.143
308.15	0.6	0.3	1104.63	8.151
308.15	0.6	0.39932	1114.44	8.161
308.15	0.6	0.49964	1123.875	8.172
308.15	0.6	0.59856	1132.722	8.186
318.15	0.6	0	1067.996	8.144
318.15	0.6	0.09967	1079.326	8.14
318.15	0.6	0.19952	1090.127	8.143
318.15	0.6	0.3	1100.459	8.151
318.15	0.6	0.39932	1110.167	8.16
318.15	0.6	0.49964	1119.498	8.172
318.15	0.6	0.59856	1128.249	8.188

System: D-sucrose + water + trilithium citrate; phases: Liquid
Fixed: Pressure, kPa = 100
Fixed: Frequency, MHz = 3
Property: Speed of sound, m/s (Liquid); method: Single path-length method
Temperature, K	Solvent: Molality, mol/kg of trilithium citrate	Molality, mol/kg of D-sucrose	Speed of sound, m/s	uncertainty
288.15	0	0	1466.62	16.03
288.15	0	0.1002	1476.33	16.03
288.15	0	0.20074	1486.15	16.03
288.15	0	0.30115	1495.97	16.04
288.15	0	0.4034	1506.01	16.04
288.15	0	0.49965	1515.31	16.05
288.15	0	0.60185	1525.24	16.07
288.15	0	0.70218	1534.87	16.08
288.15	0	0.79785	1543.87	16.09
288.15	0	0.89555	1552.92	16.11
288.15	0	0.99691	1562.21	16.13
298.15	0	0	1497.02	16.03
298.15	0	0.1002	1505.99	16.03
298.15	0	0.20074	1515.01	16.03
298.15	0	0.30115	1523.98	16.03
298.15	0	0.4034	1533.15	16.04
298.15	0	0.49965	1541.67	16.05
298.15	0	0.60185	1550.57	16.06
298.15	0	0.70218	1559.26	16.07
298.15	0	0.79785	1567.41	16.08
298.15	0	0.89555	1575.57	16.09
298.15	0	0.99691	1583.77	16.08
308.15	0	0	1519.93	16.03
308.15	0	0.1002	1528.16	16.03
308.15	0	0.20074	1536.45	16.03
308.15	0	0.30115	1544.74	16.03
308.15	0	0.4034	1553.12	16.04
308.15	0	0.49965	1561	16.05
308.15	0	0.60185	1569.28	16.05
308.15	0	0.70218	1577.23	16.06
308.15	0	0.79785	1584.82	16.07
308.15	0	0.89555	1592.35	16.08
308.15	0	0.99691	1600.08	16.09
318.15	0	0	1536.46	16.03
318.15	0	0.1002	1543.97	16.03
318.15	0	0.20074	1552.57	16.03
318.15	0	0.30115	1560.1	16.03
318.15	0	0.4034	1567.72	16.04
318.15	0	0.49965	1575.97	16.05
318.15	0	0.60185	1584.21	16.05
318.15	0	0.70218	1591.99	16.06
318.15	0	0.79785	1599.57	16.07
318.15	0	0.89555	1606.7	16.08
318.15	0	0.99691	1614.41	16.1
288.15	0.2	0	1509.2	16.05
288.15	0.2	0.09875	1519.86	16.05
288.15	0.2	0.19992	1530.77	16.05
288.15	0.2	0.29947	1541.51	16.06
288.15	0.2	0.39953	1552.31	16.07
288.15	0.2	0.49837	1562.97	16.09
288.15	0.2	0.59835	1573.76	16.08
298.15	0.2	0	1535.81	16.04
298.15	0.2	0.09875	1546.47	16.05
298.15	0.2	0.19992	1557.38	16.05
298.15	0.2	0.29947	1568.12	16.06
298.15	0.2	0.39953	1578.92	16.07
298.15	0.2	0.49837	1589.58	16.09
298.15	0.2	0.59835	1600.37	16.08
308.15	0.2	0	1555.98	16.04
308.15	0.2	0.09875	1566.64	16.04
308.15	0.2	0.19992	1577.55	16.05
308.15	0.2	0.29947	1588.29	16.06
308.15	0.2	0.39953	1599.09	16.07
308.15	0.2	0.49837	1609.75	16.08
308.15	0.2	0.59835	1620.54	16.07
318.15	0.2	0	1570.24	16.04
318.15	0.2	0.09875	1580.9	16.04
318.15	0.2	0.19992	1591.81	16.05
318.15	0.2	0.29947	1602.55	16.06
318.15	0.2	0.39953	1613.35	16.07
318.15	0.2	0.49837	1624.01	16.08
318.15	0.2	0.59835	1634.8	16.06
288.15	0.4	0	1548.03	16.09
288.15	0.4	0.09988	1559.36	16.11
288.15	0.4	0.19943	1570.65	16.11
288.15	0.4	0.3	1582.05	16.12
288.15	0.4	0.3997	1593.36	16.14
288.15	0.4	0.49995	1604.72	16.15
288.15	0.4	0.59907	1615.96	16.17
298.15	0.4	0	1572.61	16.1
298.15	0.4	0.09988	1583.94	16.1
298.15	0.4	0.19943	1595.23	16.1
298.15	0.4	0.3	1606.63	16.11
298.15	0.4	0.3997	1617.94	16.12
298.15	0.4	0.49995	1629.3	16.14
298.15	0.4	0.59907	1640.54	16.14
308.15	0.4	0	1590.29	16.09
308.15	0.4	0.09988	1601.62	16.09
308.15	0.4	0.19943	1612.91	16.09
308.15	0.4	0.3	1624.31	16.1
308.15	0.4	0.3997	1635.62	16.12
308.15	0.4	0.49995	1646.98	16.13
308.15	0.4	0.59907	1658.22	16.14
318.15	0.4	0	1602.4	16.09
318.15	0.4	0.09988	1613.73	16.08
318.15	0.4	0.19943	1625.02	16.09
318.15	0.4	0.3	1636.42	16.1
318.15	0.4	0.3997	1647.73	16.11
318.15	0.4	0.49995	1659.09	16.12
318.15	0.4	0.59907	1670.33	16.13
288.15	0.6	0	1589.22	16.22
288.15	0.6	0.09967	1600.52	16.22
288.15	0.6	0.19952	1611.85	16.22
288.15	0.6	0.3	1623.24	16.23
288.15	0.6	0.39932	1634.5	16.24
288.15	0.6	0.49964	1645.88	16.25
288.15	0.6	0.59856	1657.1	16.27
298.15	0.6	0	1610.48	16.17
298.15	0.6	0.09967	1621.78	16.18
298.15	0.6	0.19952	1633.11	16.18
298.15	0.6	0.3	1644.5	16.19
298.15	0.6	0.39932	1655.76	16.2
298.15	0.6	0.49964	1667.14	16.22
298.15	0.6	0.59856	1678.36	16.21
308.15	0.6	0	1625.87	16.15
308.15	0.6	0.09967	1637.17	16.16
308.15	0.6	0.19952	1648.5	16.16
308.15	0.6	0.3	1659.89	16.17
308.15	0.6	0.39932	1671.15	16.18
308.15	0.6	0.49964	1682.53	16.2
308.15	0.6	0.59856	1693.75	16.19
318.15	0.6	0	1635.7	16.15
318.15	0.6	0.09967	1647	16.15
318.15	0.6	0.19952	1658.33	16.16
318.15	0.6	0.3	1669.72	16.16
318.15	0.6	0.39932	1680.98	16.18
318.15	0.6	0.49964	1692.36	16.19
318.15	0.6	0.59856	1703.58	16.21

System: D-sucrose + water; phases: Liquid
Fixed: Pressure, kPa = 100
Property: Mass density, kg/m3 (Liquid); method: Vibrating tube method
Temperature, K	Molality, mol/kg of D-sucrose	Mass density, kg/m3	uncertainty
288.15	0.1002	1012.006	8.004
288.15	0.20074	1024.37	8.01
288.15	0.30115	1036.192	8.03
288.15	0.4034	1047.719	8.05
288.15	0.49965	1058.125	8.07
288.15	0.60185	1068.729	8.093
288.15	0.70218	1078.714	8.117
288.15	0.79785	1087.865	8.139
288.15	0.89555	1096.857	8.162
288.15	0.99691	1105.825	8.193
298.15	0.1002	1009.811	8.004
298.15	0.20074	1022.039	8.014
298.15	0.30115	1033.732	8.03
298.15	0.4034	1045.134	8.049
298.15	0.49965	1055.43	8.068
298.15	0.60185	1065.922	8.091
298.15	0.70218	1075.805	8.115
298.15	0.79785	1084.864	8.137
298.15	0.89555	1093.768	8.159
298.15	0.99691	1102.651	8.179
308.15	0.1002	1006.682	8.004
308.15	0.20074	1018.799	8.014
308.15	0.30115	1030.387	8.029
308.15	0.4034	1041.687	8.048
308.15	0.49965	1051.891	8.067
308.15	0.60185	1062.292	8.09
308.15	0.70218	1072.09	8.113
308.15	0.79785	1081.072	8.134
308.15	0.89555	1089.901	8.156
308.15	0.99691	1098.711	8.179
318.15	0.1002	1002.772	8.004
318.15	0.20074	1014.821	8.014
318.15	0.30115	1026.343	8.029
318.15	0.4034	1037.582	8.047
318.15	0.49965	1047.727	8.066
318.15	0.60185	1058.065	8.089
318.15	0.70218	1067.815	8.111
318.15	0.79785	1076.722	8.132
318.15	0.89555	1085.489	8.154
318.15	0.99691	1094.231	8.183
288.15	0	999.117	8.001
298.15	0	997.054	8.001
308.15	0	994.048	8.001
318.15	0	990.215	8.001

System: D-sucrose + water; phases: Liquid
Fixed: Pressure, kPa = 100
Fixed: Frequency, MHz = 3
Property: Speed of sound, m/s (Liquid); method: Single path-length method
Temperature, K	Molality, mol/kg of D-sucrose	Speed of sound, m/s	uncertainty
288.15	0.1002	1476.33	16
288.15	0.20074	1486.15	16.01
288.15	0.30115	1495.97	16.01
288.15	0.4034	1506.01	16.02
288.15	0.49965	1515.31	16.03
288.15	0.60185	1525.24	16.05
288.15	0.70218	1534.87	16.06
288.15	0.79785	1543.87	16.07
288.15	0.89555	1552.92	16.09
288.15	0.99691	1562.21	16.11
298.15	0.1002	1505.99	16
298.15	0.20074	1515.01	16.01
298.15	0.30115	1523.98	16.01
298.15	0.4034	1533.15	16.02
298.15	0.49965	1541.67	16.03
298.15	0.60185	1550.57	16.04
298.15	0.70218	1559.26	16.05
298.15	0.79785	1567.41	16.06
298.15	0.89555	1575.57	16.07
298.15	0.99691	1583.77	16.06
308.15	0.1002	1528.16	16
308.15	0.20074	1536.45	16.01
308.15	0.30115	1544.74	16.01
308.15	0.4034	1553.12	16.02
308.15	0.49965	1561	16.02
308.15	0.60185	1569.28	16.03
308.15	0.70218	1577.23	16.04
308.15	0.79785	1584.82	16.05
308.15	0.89555	1592.35	16.06
308.15	0.99691	1600.08	16.07
318.15	0.1002	1543.97	16
318.15	0.20074	1552.57	16.01
318.15	0.30115	1560.1	16.01
318.15	0.4034	1567.72	16.02
318.15	0.49965	1575.97	16.02
318.15	0.60185	1584.21	16.03
318.15	0.70218	1591.99	16.04
318.15	0.79785	1599.57	16.05
318.15	0.89555	1606.7	16.06
318.15	0.99691	1614.41	16.08
288.15	0	1466.62	16
298.15	0	1497.02	16
308.15	0	1519.93	16
318.15	0	1536.46	16

System: water + ammonium 2-hydroxypropane-1,2,3-tricarboxylate; phases: Liquid
Fixed: Pressure, kPa = 100
Property: Mass density, kg/m3 (Liquid); method: Vibrating tube method
Temperature, K	Molality, mol/kg of ammonium 2-hydroxypropane-1,2,3-tricarboxylate	Mass density, kg/m3	uncertainty
288.15	0.2	1021.37	8.012
298.15	0.2	1019.005	8.012
308.15	0.2	1015.712	8.012
318.15	0.2	1011.753	8.012
288.15	0.4	1043.449	8.045
298.15	0.4	1040.153	8.043
308.15	0.4	1037.343	8.043
318.15	0.4	1033.306	8.043
288.15	0.6	1063.756	8.093
298.15	0.6	1060.415	8.093
308.15	0.6	1057.211	8.086
318.15	0.6	1052.933	8.087
288.15	0	999.117	8.001
298.15	0	997.054	8.001
308.15	0	994.048	8.001
318.15	0	990.215	8.001

System: water + ammonium 2-hydroxypropane-1,2,3-tricarboxylate; phases: Liquid
Fixed: Pressure, kPa = 100
Fixed: Frequency, MHz = 3
Property: Speed of sound, m/s (Liquid); method: Single path-length method
Temperature, K	Molality, mol/kg of ammonium 2-hydroxypropane-1,2,3-tricarboxylate	Speed of sound, m/s	uncertainty
288.15	0.2	1503.11	16.02
298.15	0.2	1531.96	16.02
308.15	0.2	1553.49	16.02
318.15	0.2	1569.04	16.02
288.15	0.4	1540.41	16.07
298.15	0.4	1567.35	16.07
308.15	0.4	1587.78	16.06
318.15	0.4	1602.3	16.06
288.15	0.6	1578.73	16.17
298.15	0.6	1603.61	16.13
308.15	0.6	1621.94	16.12
318.15	0.6	1635.37	16.13
288.15	0	1466.62	16
298.15	0	1497.02	16
308.15	0	1519.93	16
318.15	0	1536.46	16

System: water + trilithium citrate; phases: Liquid
Fixed: Pressure, kPa = 100
Property: Mass density, kg/m3 (Liquid); method: Vibrating tube method
Temperature, K	Molality, mol/kg of trilithium citrate	Mass density, kg/m3	uncertainty
288.15	0.2	1027.206	8.018
298.15	0.2	1025.319	8.018
308.15	0.2	1021.668	8.018
318.15	0.2	1017.794	8.018
288.15	0.4	1052.753	8.065
298.15	0.4	1050.407	8.063
308.15	0.4	1046.92	8.063
318.15	0.4	1042.956	8.063
288.15	0.6	1078.283	8.146
298.15	0.6	1075.381	8.137
308.15	0.6	1071.836	8.138
318.15	0.6	1067.996	8.14
288.15	0	999.117	8.001
298.15	0	997.054	8.001
308.15	0	994.048	8.001
318.15	0	990.215	8.001

System: water + trilithium citrate; phases: Liquid
Fixed: Pressure, kPa = 100
Fixed: Frequency, MHz = 3
Property: Speed of sound, m/s (Liquid); method: Single path-length method
Temperature, K	Molality, mol/kg of trilithium citrate	Speed of sound, m/s	uncertainty
288.15	0.2	1509.2	16.02
298.15	0.2	1535.81	16.02
308.15	0.2	1555.98	16.02
318.15	0.2	1570.24	16.02
288.15	0.4	1548.03	16.08
298.15	0.4	1572.61	16.07
308.15	0.4	1590.29	16.06
318.15	0.4	1602.4	16.06
288.15	0.6	1589.22	16.19
298.15	0.6	1610.48	16.15
308.15	0.6	1625.87	16.13
318.15	0.6	1635.7	16.13
288.15	0	1466.62	16
298.15	0	1497.02	16
308.15	0	1519.93	16
318.15	0	1536.46	16
