Measured thermophysical data. Coexistence curves of critical nonaqueous microemulsions of (AOT + DMA + nonane) and (AOT + DMA + octane)
Source: J. Chem. Thermodyn., 2006, 10.1016/j.jct.2005.03.010
Compound 1: nonane, C9H20, InChI=1S/C9H20/c1-3-5-7-9-8-6-4-2/h3-9H2,1-2H3, purity 99.9%
Compound 2: N,N-dimethylethanamide, C4H9NO, InChI=1S/C4H9NO/c1-4(6)5(2)3/h1-3H3
Compound 3: sodium bis(2-ethylhexyl) sulfosuccinate, C20H37NaO7S, InChI=1S/C20H38O7S.Na/c1-5-9-11-16(7-3)14-26-19(21)13-18(28(23,24)25)20(22)27-15-17(8-4)12-10-6-2;/h16-18H,5-15H2,1-4H3,(H,23,24,25);/q;+1/p-1, purity 99%
Compound 4: octane, C8H18, InChI=1S/C8H18/c1-3-5-7-8-6-4-2/h3-8H2,1-2H3, purity 99.9%

System: octane + N,N-dimethylethanamide + sodium bis(2-ethylhexyl) sulfosuccinate; phases: Liquid mixture 1, Liquid mixture 2
Property: Upper consolute temperature, K (Liquid mixture 1); method: Derived from refractive index data
Solvent: Amount ratio of component to other component of binary solvent of sodium bis(2-ethylhexyl) sulfosuccinate	Pressure, kPa	Upper consolute temperature, K	uncertainty
2.86	101	309.87	0.1

System: octane + N,N-dimethylethanamide + sodium bis(2-ethylhexyl) sulfosuccinate; phases: Liquid mixture 1, Liquid mixture 2
Property: Upper consolute temperature, K (Liquid mixture 1); method: Derived from refractive index data
Volume fraction of octane	Pressure, kPa	Upper consolute temperature, K	uncertainty
0.387	101	309.87	0.1

System: nonane + N,N-dimethylethanamide + sodium bis(2-ethylhexyl) sulfosuccinate; phases: Liquid mixture 1, Liquid mixture 2
Property: Upper consolute temperature, K (Liquid mixture 1); method: Derived from refractive index data
Solvent: Amount ratio of component to other component of binary solvent of sodium bis(2-ethylhexyl) sulfosuccinate	Pressure, kPa	Upper consolute temperature, K	uncertainty
2.86	101	318.13	0.1

System: nonane + N,N-dimethylethanamide + sodium bis(2-ethylhexyl) sulfosuccinate; phases: Liquid mixture 1, Liquid mixture 2
Property: Upper consolute temperature, K (Liquid mixture 1); method: Derived from refractive index data
Volume fraction of nonane	Pressure, kPa	Upper consolute temperature, K	uncertainty
0.388	101	318.13	0.1
