Measured thermophysical data. Solid vapor pressure for five heavy PAHs via the Knudsen effusion method
Source: J. Chem. Thermodyn., 2011, 10.1016/j.jct.2011.05.030
Compound 1: benz[e]acephenanthrylene, C20H12, InChI=1S/C20H12/c1-2-7-14-13(6-1)12-19-16-9-4-3-8-15(16)18-11-5-10-17(14)20(18)19/h1-12H, purity 95%
Compound 2: benzo[k]fluoranthene, C20H12, InChI=1S/C20H12/c1-2-6-15-12-19-17-10-4-8-13-7-3-9-16(20(13)17)18(19)11-14(15)5-1/h1-12H, purity 98%
Compound 3: benzo[ghi]perylene, C22H12, InChI=1S/C22H12/c1-3-13-7-9-15-11-12-16-10-8-14-4-2-6-18-17(5-1)19(13)21(15)22(16)20(14)18/h1-12H, purity 97%
Compound 4: indeno[1,2,3-cd]pyrene, C22H12, InChI=1S/C22H12/c1-2-7-17-16(6-1)18-11-10-14-9-8-13-4-3-5-15-12-19(17)22(18)21(14)20(13)15/h1-12H, purity 99%
Compound 5: dibenz[a,h]anthracene, C22H14, InChI=1S/C22H14/c1-3-7-19-15(5-1)9-11-17-14-22-18(13-21(17)19)12-10-16-6-2-4-8-20(16)22/h1-14H, purity 95%

System: benz[e]acephenanthrylene; phases: Crystal, Liquid, Air at 1 atmosphere
Property: Molar enthalpy of transition or fusion, kJ/mol (Crystal); method: DSC
Molar enthalpy of transition or fusion, kJ/mol	uncertainty
18.3	2.8

System: benz[e]acephenanthrylene; phases: Crystal, Liquid, Air at 1 atmosphere
Property: Normal melting temperature, K (Crystal); method: DTA
Normal melting temperature, K	uncertainty
441.15	0.5

System: benz[e]acephenanthrylene; phases: Crystal, Gas
Property: Vapor or sublimation pressure, kPa (Crystal); method: Calculated from knudsen effusion weight loss
Temperature, K	Vapor or sublimation pressure, kPa	uncertainty
364.1	4.7e-06	2.5e-07
369.3	8.12e-06	4.2e-07
374.2	1.46e-05	7e-07
377.2	1.9e-05	1e-06
379.2	2.41e-05	1.2e-06
382.2	3.21e-05	1.6e-06
384.2	3.95e-05	2e-06
387.2	5.4e-05	2.7e-06
389.1	6.22e-05	3.1e-06
392.1	8.51e-05	4.3e-06
394.2	0.000101	5e-06
397.1	0.000131	7e-06
399.1	0.000159	8e-06
404.1	0.00023	1.2e-05
409	0.000356	1.8e-05
414.1	0.000533	2.7e-05

System: benzo[k]fluoranthene; phases: Crystal, Liquid, Air at 1 atmosphere
Property: Molar enthalpy of transition or fusion, kJ/mol (Crystal); method: DSC
Molar enthalpy of transition or fusion, kJ/mol	uncertainty
26.5	2.9

System: benzo[k]fluoranthene; phases: Crystal, Liquid, Air at 1 atmosphere
Property: Normal melting temperature, K (Crystal); method: DTA
Normal melting temperature, K	uncertainty
490.15	0.5

System: benzo[k]fluoranthene; phases: Crystal, Gas
Property: Vapor or sublimation pressure, kPa (Crystal); method: Calculated from knudsen effusion weight loss
Temperature, K	Vapor or sublimation pressure, kPa	uncertainty
384.2	1.63e-05	8e-07
389.2	2.42e-05	1.2e-06
394.1	3.62e-05	1.8e-06
399.1	5.62e-05	2.8e-06
404	8.86e-05	4.4e-06
409	0.000136	7e-06
411	0.000157	8e-06
419	0.000383	1.9e-05
424	0.000557	2.8e-05

System: benzo[ghi]perylene; phases: Crystal, Liquid, Air at 1 atmosphere
Property: Molar enthalpy of transition or fusion, kJ/mol (Crystal); method: DSC
Molar enthalpy of transition or fusion, kJ/mol	uncertainty
16.3	2.8

System: benzo[ghi]perylene; phases: Crystal, Liquid, Air at 1 atmosphere
Property: Normal melting temperature, K (Crystal); method: DTA
Normal melting temperature, K	uncertainty
545.65	0.5

System: benzo[ghi]perylene; phases: Crystal, Gas
Property: Vapor or sublimation pressure, kPa (Crystal); method: Calculated from knudsen effusion weight loss
Temperature, K	Vapor or sublimation pressure, kPa	uncertainty
399.1	4.16e-06	2.2e-07
404	7e-06	3.6e-07
409	1.15e-05	6e-07
414.4	1.79e-05	9e-07
419	2.83e-05	1.4e-06
424	4.36e-05	2.2e-06
429	6.54e-05	3.3e-06
434.1	0.000104	5e-06
439	0.000138	7e-06
441	0.000207	1e-05
449.1	0.000303	1.5e-05
454.1	0.000432	2.2e-05

System: indeno[1,2,3-cd]pyrene; phases: Crystal, Liquid, Air at 1 atmosphere
Property: Molar enthalpy of transition or fusion, kJ/mol (Crystal); method: DSC
Molar enthalpy of transition or fusion, kJ/mol	uncertainty
22.9	2.8

System: indeno[1,2,3-cd]pyrene; phases: Crystal, Liquid, Air at 1 atmosphere
Property: Normal melting temperature, K (Crystal); method: DTA
Normal melting temperature, K	uncertainty
435.15	0.5

System: indeno[1,2,3-cd]pyrene; phases: Crystal, Gas
Property: Vapor or sublimation pressure, kPa (Crystal); method: Calculated from knudsen effusion weight loss
Temperature, K	Vapor or sublimation pressure, kPa	uncertainty
384.1	5.38e-06	2.8e-07
389.1	7.96e-06	4.1e-07
394.2	1.3e-05	7e-07
399.2	2.19e-05	1.1e-06
404.1	3.28e-05	1.7e-06
409.1	5.33e-05	2.7e-06
414.1	8.53e-05	4.3e-06
419.1	0.000133	7e-06
424.1	0.000201	1e-05

System: dibenz[a,h]anthracene; phases: Crystal, Liquid, Air at 1 atmosphere
Property: Molar enthalpy of transition or fusion, kJ/mol (Crystal); method: DSC
Molar enthalpy of transition or fusion, kJ/mol	uncertainty
24.5	2.9

System: dibenz[a,h]anthracene; phases: Crystal, Liquid, Air at 1 atmosphere
Property: Normal melting temperature, K (Crystal); method: DTA
Normal melting temperature, K	uncertainty
542.65	0.5

System: dibenz[a,h]anthracene; phases: Crystal, Gas
Property: Vapor or sublimation pressure, kPa (Crystal); method: Calculated from knudsen effusion weight loss
Temperature, K	Vapor or sublimation pressure, kPa	uncertainty
399.2	5.11e-06	2.7e-07
404	5.53e-06	2.9e-07
409.1	9.22e-06	4.7e-07
414	1.39e-05	7e-07
419.1	3.95e-05	2e-06
424.2	5.45e-05	2.8e-06
429.2	8.89e-05	4.5e-06
434.2	0.000112	6e-06
439.1	0.000174	9e-06
444.1	0.00028	1.4e-05
449.1	0.000369	1.9e-05
