Measured thermophysical data. Measurement and correlation of solubility of Tetracycline hydrochloride in six  organic solvents
Source: J. Chem. Thermodyn., 2013, 10.1016/j.jct.2012.08.007
Compound 1: tetracycline hydrochloride, C22H25ClN2O8, InChI=1S/C22H24N2O8.ClH/c1-21(31)8-5-4-6-11(25)12(8)16(26)13-9(21)7-10-15(24(2)3)17(27)14(20(23)30)19(29)22(10,32)18(13)28;/h4-6,9-10,15,25,27-28,31-32H,7H2,1-3H3,(H2,23,30);1H, purity 98.5%
Compound 2: methanol, CH4O, InChI=1S/CH4O/c1-2/h2H,1H3, purity 99%
Compound 3: ethanol, C2H6O, InChI=1S/C2H6O/c1-2-3/h3H,2H2,1H3, purity 99%
Compound 4: propan-1-ol, C3H8O, InChI=1S/C3H8O/c1-2-3-4/h4H,2-3H2,1H3, purity 99%
Compound 5: butan-1-ol, C4H10O, InChI=1S/C4H10O/c1-2-3-4-5/h5H,2-4H2,1H3, purity 99%
Compound 6: acetone, C3H6O, InChI=1S/C3H6O/c1-3(2)4/h1-2H3, purity 99%
Compound 7: acetonitrile, C2H3N, InChI=1S/C2H3N/c1-2-3/h1H3, purity 99%

System: tetracycline hydrochloride + methanol; phases: Liquid, Crystal
Fixed: Pressure, kPa = 101
Property: Mole fraction of tetracycline hydrochloride (Liquid); method: UV spectroscopy
Temperature, K	Mole fraction of tetracycline hydrochloride	uncertainty
283.15	0.0141433	0.0005373
288.15	0.0137098	0.0005207
293.15	0.0130875	0.0004969
298.15	0.0124261	0.0004716
303.15	0.0116299	0.0004412
308.15	0.0109318	0.0004146
313.15	0.0100513	0.0003811
318.15	0.0090582	0.0003434

System: ethanol + tetracycline hydrochloride; phases: Liquid, Crystal
Fixed: Pressure, kPa = 101
Property: Mole fraction of tetracycline hydrochloride (Liquid); method: UV spectroscopy
Temperature, K	Mole fraction of tetracycline hydrochloride	uncertainty
283.15	0.0008837	2.64e-05
288.15	0.000899	2.68e-05
293.15	0.0009581	2.86e-05
298.15	0.0010432	3.12e-05
303.15	0.0011619	3.48e-05
308.15	0.0013247	3.97e-05
313.15	0.0014868	4.47e-05
318.15	0.0018108	5.45e-05

System: tetracycline hydrochloride + propan-1-ol; phases: Liquid, Crystal
Fixed: Pressure, kPa = 101
Property: Mole fraction of tetracycline hydrochloride (Liquid); method: UV spectroscopy
Temperature, K	Mole fraction of tetracycline hydrochloride	uncertainty
283.15	0.0002962	7.8e-06
288.15	0.0002999	7.9e-06
293.15	0.0003058	8e-06
298.15	0.0003117	8.2e-06
303.15	0.0003182	8.3e-06
308.15	0.0003244	8.5e-06
313.15	0.0003327	8.7e-06
318.15	0.0003445	9e-06

System: tetracycline hydrochloride + butan-1-ol; phases: Liquid, Crystal
Fixed: Pressure, kPa = 101
Property: Mole fraction of tetracycline hydrochloride (Liquid); method: UV spectroscopy
Temperature, K	Mole fraction of tetracycline hydrochloride	uncertainty
283.15	0.0001776	4.3e-06
288.15	0.0001792	4.4e-06
293.15	0.0001815	4.4e-06
298.15	0.0001849	4.5e-06
303.15	0.0001883	4.6e-06
308.15	0.000194	4.7e-06
313.15	0.0002018	4.9e-06
318.15	0.0002148	5.2e-06

System: tetracycline hydrochloride + acetone; phases: Liquid, Crystal
Fixed: Pressure, kPa = 101
Property: Mole fraction of tetracycline hydrochloride (Liquid); method: UV spectroscopy
Temperature, K	Mole fraction of tetracycline hydrochloride	uncertainty
283.15	1.5e-05	4e-07
288.15	1.51e-05	4e-07
293.15	1.53e-05	4e-07
298.15	1.55e-05	4e-07
303.15	1.57e-05	4e-07
308.15	1.6e-05	4e-07
313.15	1.63e-05	4e-07
318.15	1.67e-05	4e-07

System: tetracycline hydrochloride + acetonitrile; phases: Liquid, Crystal
Fixed: Pressure, kPa = 101
Property: Mole fraction of tetracycline hydrochloride (Liquid); method: UV spectroscopy
Temperature, K	Mole fraction of tetracycline hydrochloride	uncertainty
283.15	2.09e-05	7e-07
288.15	2.11e-05	7e-07
293.15	2.14e-05	7e-07
298.15	2.17e-05	7e-07
303.15	2.21e-05	7e-07
308.15	2.25e-05	7e-07
313.15	2.31e-05	7e-07
318.15	2.4e-05	8e-07
