Measured thermophysical data. (Vapour + liquid) equilibria for (2-ethoxypropene + acetone) and (2-ethoxypropene + butanone)
Source: J. Chem. Thermodyn., 2006, 10.1016/j.jct.2005.10.001
Compound 1: 2-ethoxy-1-propene, C5H10O, InChI=1S/C5H10O/c1-4-6-5(2)3/h2,4H2,1,3H3
Compound 2: acetone, C3H6O, InChI=1S/C3H6O/c1-3(2)4/h1-2H3
Compound 3: butanone, C4H8O, InChI=1S/C4H8O/c1-3-4(2)5/h3H2,1-2H3

System: 2-ethoxy-1-propene; phases: Liquid
Property: Mass density, kg/m3 (Liquid); method: Vibrating tube method
Temperature, K	Pressure, kPa	Mass density, kg/m3	uncertainty
293.15	101.325	771.2	0.2

System: 2-ethoxy-1-propene; phases: Liquid
Property: Refractive index (Na D-line) (Liquid); method: Standard Abbe refractometry
Temperature, K	Pressure, kPa	Refractive index (Na D-line)	uncertainty
293.15	101.325	1.3913	0.0004

System: 2-ethoxy-1-propene; phases: Liquid, Gas
Property: Vapor or sublimation pressure, kPa (Liquid); method: Ebulliometric method (Recirculating still)
Temperature, K	Vapor or sublimation pressure, kPa	uncertainty
320.98	62.74	0.8
322.13	65.19	0.9
323.47	68.4	0.9
324.5	70.65	0.9
325.43	72.69	1
326.52	75.47	1
327.43	77.89	1
328.26	80.16	1.1
329.39	83.21	1.1
329.89	85.35	1.1
331.07	88.17	1.2
331.48	90.62	1.2
332.88	93.41	1.2
333.68	96.12	1.3
334.46	98.47	1.8
334.57	99.82	1.8
323.15	67.84	0.7
322.7	66.66	1.5
327.69	79.99	2.1
329.96	86.66	2.3
334.67	99.99	3.1
333.15	95.98	1
331.1	89.99	2.5

System: acetone; phases: Liquid
Property: Mass density, kg/m3 (Liquid); method: Vibrating tube method
Temperature, K	Pressure, kPa	Mass density, kg/m3	uncertainty
293.15	101.325	784.5	0.2

System: acetone; phases: Liquid
Property: Refractive index (Na D-line) (Liquid); method: Standard Abbe refractometry
Temperature, K	Pressure, kPa	Refractive index (Na D-line)	uncertainty
293.15	101.325	1.359	0.0004

System: acetone; phases: Liquid, Gas
Property: Vapor or sublimation pressure, kPa (Liquid); method: EBULLIO:UFactor:2
Temperature, K	Vapor or sublimation pressure, kPa	uncertainty
323.15	81.39	0.82
317.58	66.66	1.6
322.68	79.99	2.1
324.94	86.66	2.1
328.98	99.99	2.6

System: butanone; phases: Liquid
Property: Mass density, kg/m3 (Liquid); method: Vibrating tube method
Temperature, K	Pressure, kPa	Mass density, kg/m3	uncertainty
293.15	101.325	799.8	0.2

System: butanone; phases: Liquid
Property: Refractive index (Na D-line) (Liquid); method: Standard Abbe refractometry
Temperature, K	Pressure, kPa	Refractive index (Na D-line)	uncertainty
293.15	101.325	1.3765	0.0004

System: butanone; phases: Liquid, Gas
Property: Vapor or sublimation pressure, kPa (Liquid); method: EBULLIO:UFactor:2
Temperature, K	Vapor or sublimation pressure, kPa	uncertainty
333.15	51.89	0.59
340.17	66.66	1.6
345.51	79.99	2.2
349.12	89.99	2.4
352.3	99.99	2.75

System: acetone + 2-ethoxy-1-propene; phases: Liquid, Gas
Fixed: Temperature, K = 323.15
Property: Vapor or sublimation pressure, kPa (Liquid); method: EBULLIO:UFactor:2
Mole fraction of 2-ethoxy-1-propene	Vapor or sublimation pressure, kPa	uncertainty
0	81.39	0.82
0.0523	83.67	0.84
0.1004	85.51	0.85
0.2	88.16	0.88
0.3002	89.18	0.89
0.4001	89.29	0.89
0.5	88.74	0.88
0.6	87.31	0.87
0.7004	84.74	0.85
0.7991	81.3	0.82
0.9003	75.69	0.78
0.9497	72.05	0.75
1	67.84	0.71

System: acetone + 2-ethoxy-1-propene; phases: Liquid, Gas
Property: Boiling temperature at pressure P, K (Liquid); method: EBULLIO:UFactor:4
Pressure, kPa	Mole fraction of 2-ethoxy-1-propene	Boiling temperature at pressure P, K	uncertainty
66.66	0	317.58	0.47
66.66	0.0523	316.88	0.45
66.66	0.1004	316.36	0.45
66.66	0.2	315.79	0.47
66.66	0.3002	315.23	0.45
66.66	0.4001	315.06	0.45
66.66	0.5	315.3	0.46
66.66	0.6	315.78	0.46
66.66	0.7004	316.38	0.45
66.66	0.7991	317.57	0.45
66.66	0.9003	319.63	0.45
66.66	0.9497	320.85	0.47
66.66	1	322.7	0.46
79.99	0	322.68	0.53
79.99	0.0523	321.87	0.53
79.99	0.1004	321.35	0.52
79.99	0.2	320.9	0.52
79.99	0.3002	320.26	0.52
79.99	0.4001	320.07	0.53
79.99	0.5	320.35	0.53
79.99	0.6	320.84	0.52
79.99	0.7004	321.51	0.54
79.99	0.7991	322.71	0.54
79.99	0.9003	324.67	0.53
79.99	0.9497	326.2	0.56
79.99	1	327.69	0.52
86.66	0	324.94	0.48
86.66	0.0523	324.18	0.5
86.66	0.1004	323.55	0.45
86.66	0.2	323.06	0.43
86.66	0.3002	322.44	0.43
86.66	0.4001	322.33	0.45
86.66	0.5	322.56	0.45
86.66	0.6	323.01	0.43
86.66	0.7004	323.82	0.48
86.66	0.7991	324.97	0.46
86.66	0.9003	326.92	0.46
86.66	0.9497	328.58	0.5
86.66	1	329.96	0.53
99.99	0	328.98	0.52
99.99	0.0523	328.44	0.53
99.99	0.1004	327.36	0.53
99.99	0.2	326.59	0.47
99.99	0.3002	326.1	0.5
99.99	0.4001	326.07	0.5
99.99	0.5	326.32	0.49
99.99	0.6	326.65	0.51
99.99	0.7004	327.91	0.52
99.99	0.7991	328.89	0.55
99.99	0.9003	330.83	0.56
99.99	0.9497	332.75	0.54
99.99	1	334.67	0.61

System: butanone + 2-ethoxy-1-propene; phases: Liquid, Gas
Fixed: Temperature, K = 333.15
Property: Vapor or sublimation pressure, kPa (Liquid); method: EBULLIO:UFactor:2
Mole fraction of 2-ethoxy-1-propene	Vapor or sublimation pressure, kPa	uncertainty
0	51.89	0.59
0.0505	57	0.63
0.1	60.6	0.66
0.2	67.68	0.71
0.3001	73.54	0.76
0.4001	78.38	0.8
0.5	83.43	0.84
0.6	86.76	0.87
0.6999	89.82	0.89
0.7999	92.38	0.92
0.8987	94.48	0.94
0.95	95.2	0.94
1	95.98	0.95

System: butanone + 2-ethoxy-1-propene; phases: Liquid, Gas
Property: Boiling temperature at pressure P, K (Liquid); method: EBULLIO:UFactor:4
Pressure, kPa	Mole fraction of 2-ethoxy-1-propene	Boiling temperature at pressure P, K	uncertainty
66.66	0	340.17	0.49
66.66	0.0505	337.61	0.47
66.66	0.1	335.93	0.49
66.66	0.2	332.64	0.48
66.66	0.3001	330.45	0.46
66.66	0.4001	328.36	0.49
66.66	0.5	326.48	0.48
66.66	0.6	325.28	0.49
66.66	0.6999	324.59	0.49
66.66	0.7999	323.73	0.47
66.66	0.8987	323.15	0.46
66.66	0.95	322.85	0.45
66.66	1	322.7	0.46
79.99	0	345.51	0.55
79.99	0.0505	343.03	0.56
79.99	0.1	341.33	0.55
79.99	0.2	338.21	0.56
79.99	0.3001	335.49	0.52
79.99	0.4001	333.75	0.54
79.99	0.5	331.92	0.55
79.99	0.6	330.74	0.55
79.99	0.6999	329.86	0.53
79.99	0.7999	328.88	0.53
79.99	0.8987	328.12	0.52
79.99	0.95	327.74	0.52
79.99	1	327.69	0.51
89.99	0	349.12	0.54
89.99	0.0505	346.71	0.55
89.99	0.1	344.91	0.53
89.99	0.2	341.79	0.52
89.99	0.3001	338.88	0.51
89.99	0.4001	337.22	0.51
89.99	0.5	335.39	0.51
89.99	0.6	334.28	0.52
89.99	0.6999	333.25	0.5
89.99	0.7999	332.38	0.53
89.99	0.8987	331.64	0.54
89.99	0.95	331.37	0.55
89.99	1	331.1	0.55
99.99	0	352.3	0.55
99.99	0.0505	350.05	0.59
99.99	0.1	348.07	0.58
99.99	0.2	344.86	0.55
99.99	0.3001	341.92	0.6
99.99	0.4001	340.21	0.51
99.99	0.5	338.33	0.56
99.99	0.6	337.35	0.52
99.99	0.6999	336.14	0.54
99.99	0.7999	335.55	0.55
99.99	0.8987	334.96	0.58
99.99	0.95	334.76	0.59
99.99	1	334.67	0.62
