Measured thermophysical data. Volumetric properties of (piperidine + water) binary system: Measurements and modeling
Source: J. Chem. Thermodyn., 2008, 10.1016/j.jct.2007.05.009
Compound 1: piperidine, C5H11N, InChI=1S/C5H11N/c1-2-4-6-5-3-1/h6H,1-5H2, purity 99%
Compound 2: water, H2O, InChI=1S/H2O/h1H2

System: piperidine; phases: Liquid
Fixed: Pressure, kPa = 101.325
Property: Mass density, kg/m3 (Liquid); method: VIBTUB:UFactor:6
Temperature, K	Mass density, kg/m3	uncertainty
273.15	879.98	0.63
273.65	879.53	0.63
274.15	879.08	0.63
274.65	878.62	0.63
275.15	878.17	0.63
275.65	877.71	0.63
276.15	877.26	0.63
276.65	876.8	0.63
277.15	876.35	0.63
277.65	875.89	0.63
278.15	875.44	0.64
278.65	874.98	0.64
279.15	874.52	0.64
279.65	874.07	0.64
280.15	873.61	0.64
280.65	873.15	0.64
281.15	872.69	0.64
281.65	872.24	0.64
282.15	871.78	0.64
282.65	871.32	0.64
283.15	870.86	0.64
283.65	870.4	0.65
284.15	869.94	0.65
284.65	869.49	0.65
285.15	869.03	0.65
285.65	868.57	0.65
286.15	868.11	0.65
286.65	867.65	0.65
287.15	867.18	0.65
287.66	866.72	0.65
288.15	866.26	0.65
288.66	865.8	0.66
289.16	865.34	0.66
289.66	864.88	0.66
290.16	864.42	0.66
290.65	863.96	0.66
291.15	863.49	0.66
291.65	863.03	0.66
292.15	862.57	0.66
292.65	862.1	0.66
293.15	861.64	0.66
293.65	861.18	0.66
294.15	860.71	0.67
294.64	860.25	0.67
295.15	859.79	0.67
295.65	859.32	0.67
296.15	858.86	0.67
296.65	858.39	0.67
297.15	857.93	0.67
297.65	857.46	0.67
298.15	857	0.67
298.65	856.53	0.67
299.15	856.06	0.68
299.65	855.6	0.68
300.15	855.13	0.68
300.65	854.66	0.68
301.15	854.2	0.68
301.65	853.73	0.68
302.15	853.26	0.68
302.65	852.79	0.68
303.15	852.33	0.68
303.65	851.86	0.68
304.15	851.39	0.69
304.65	850.92	0.69
305.15	850.45	0.69
305.65	849.98	0.69
306.15	849.51	0.69
306.65	849.04	0.69
307.15	848.57	0.69
307.65	848.1	0.69
308.15	847.63	0.69
308.65	847.16	0.69
309.15	846.69	0.7
309.65	846.22	0.7
310.15	845.75	0.7
310.65	845.28	0.7
311.15	844.81	0.7
311.65	844.33	0.7
312.15	843.86	0.7
312.65	843.39	0.7
313.15	842.92	0.7
313.65	842.45	0.7
314.15	841.97	0.71
314.65	841.5	0.71
315.15	841.03	0.71
315.65	840.54	0.71
316.15	840.07	0.71
316.65	839.6	0.71
317.15	839.12	0.71
317.65	838.64	0.71
318.65	837.69	0.71
319.15	837.22	0.72
319.65	836.74	0.72
320.15	836.27	0.72
320.65	835.79	0.72
321.15	835.31	0.72
321.65	834.84	0.72
322.15	834.36	0.72
322.65	833.88	0.72
323.15	833.41	0.72
323.65	832.93	0.72
324.15	832.45	0.73
324.65	831.97	0.73
325.15	831.49	0.73
325.65	831.02	0.73
326.15	830.54	0.73
326.65	830.06	0.73
327.15	829.58	0.73
327.65	829.1	0.73
328.15	828.62	0.73
328.65	828.14	0.73
329.15	827.66	0.74
329.65	827.18	0.74
330.15	826.7	0.74
330.65	826.22	0.74
331.15	825.74	0.74
331.65	825.25	0.74
332.15	824.77	0.74
332.65	824.29	0.74
333.15	823.81	0.74
333.65	823.32	0.74
334.15	822.84	0.75
334.65	822.36	0.75
335.15	821.87	0.75
335.65	821.39	0.75
336.15	820.91	0.75
336.65	820.42	0.75
337.15	819.94	0.75
337.65	819.45	0.75
338.15	818.97	0.75
338.65	818.48	0.75
339.15	818	0.76
339.65	817.51	0.76
340.15	817.03	0.76
340.65	816.54	0.76
341.15	816.05	0.76
341.65	815.57	0.76
342.15	815.08	0.76
342.65	814.59	0.76
343.15	814.1	0.76
343.65	813.62	0.77
344.15	813.13	0.77
344.65	812.64	0.77
345.16	812.15	0.77
345.66	811.66	0.77
346.16	811.17	0.77
346.66	810.68	0.77
347.16	810.19	0.77
347.66	809.7	0.77
348.16	809.21	0.78
348.65	808.72	0.78
349.16	808.23	0.78
349.65	807.74	0.78
350.16	807.25	0.78
350.66	806.75	0.78
351.16	806.26	0.78
351.66	805.77	0.78
352.16	805.28	0.78
352.66	804.78	0.78
353.16	804.29	0.79
353.66	803.79	0.79
354.16	803.3	0.79
354.66	802.8	0.79
355.15	802.31	0.79
355.66	801.81	0.79
356.16	801.32	0.79
356.65	800.82	0.79
357.16	800.33	0.79
357.66	799.83	0.8
358.15	799.33	0.8
358.66	798.83	0.8
359.15	798.34	0.8
359.66	797.84	0.8
360.15	797.34	0.8
360.66	796.84	0.8
361.16	796.34	0.8
361.65	795.84	0.8
362.15	795.34	0.81
362.65	794.84	0.81
363.15	794.34	0.81

System: piperidine + water; phases: Liquid
Fixed: Pressure, kPa = 101
Property: Mass density, kg/m3 (Liquid); method: VIBTUB:UFactor:6
Temperature, K	Mole fraction of water	Mass density, kg/m3	uncertainty
283.15	0.04	873.86	0.63
283.15	0.08	876.89	0.61
283.15	0.12	879.98	0.59
283.15	0.16	883.3	0.58
283.15	0.2	886.61	0.56
283.15	0.25	890.99	0.54
283.15	0.3	895.69	0.52
283.15	0.35	900.62	0.5
283.15	0.4	905.81	0.48
283.15	0.45	911.29	0.46
283.15	0.5	917.02	0.44
283.15	0.55	923.02	0.42
283.15	0.6	929.3	0.4
283.15	0.65	935.92	0.38
283.15	0.699	942.67	0.36
283.15	0.75	950.63	0.34
283.15	0.8	959.15	0.32
283.15	0.84	966.73	0.3
283.15	0.88	975.37	0.29
283.15	0.92	985.13	0.28
283.15	0.94	990.29	0.26
283.15	0.96	994.83	0.23
283.15	0.98	996.89	0.21
283.15	0.96	994.84	0.23
283.15	0.98	996.89	0.21
293.15	0.04	864.63	0.64
293.15	0.08	867.67	0.63
293.15	0.12	870.77	0.61
293.15	0.16	874.08	0.6
293.15	0.2	877.4	0.58
293.15	0.25	881.79	0.56
293.15	0.3	886.48	0.54
293.15	0.35	891.43	0.52
293.15	0.4	896.63	0.5
293.15	0.45	902.14	0.48
293.15	0.5	907.91	0.46
293.15	0.55	913.98	0.44
293.15	0.6	920.34	0.42
293.15	0.65	927.12	0.4
293.15	0.699	933.75	0.38
293.15	0.75	942.23	0.36
293.15	0.8	951.06	0.34
293.15	0.84	958.98	0.32
293.15	0.88	968.08	0.31
293.15	0.92	978.59	0.29
293.15	0.94	984.38	0.29
293.15	0.96	990.13	0.27
293.15	0.98	994.28	0.24
293.15	0.96	990.14	0.27
293.15	0.98	994.3	0.24
298.15	0.04	859.99	0.65
298.15	0.08	863.01	0.64
298.15	0.12	866.12	0.62
298.15	0.16	869.42	0.61
298.15	0.2	872.74	0.59
298.15	0.25	877.13	0.57
298.15	0.3	881.83	0.55
298.15	0.35	886.77	0.53
298.15	0.4	891.98	0.51
298.15	0.45	897.5	0.49
298.15	0.5	903.29	0.47
298.15	0.55	909.4	0.45
298.15	0.6	915.81	0.43
298.15	0.65	922.65	0.41
298.15	0.699	929.21	0.39
298.15	0.75	937.96	0.37
298.15	0.8	946.95	0.35
298.15	0.84	955.04	0.33
298.15	0.88	964.39	0.32
298.15	0.92	975.27	0.3
298.15	0.94	981.34	0.3
298.15	0.96	987.57	0.28
298.15	0.98	992.61	0.26
298.15	0.96	987.59	0.28
298.15	0.98	992.62	0.26
303.15	0.04	855.31	0.66
303.15	0.08	858.33	0.65
303.15	0.12	861.43	0.63
303.15	0.16	864.74	0.61
303.15	0.2	868.05	0.6
303.15	0.25	872.44	0.58
303.15	0.3	877.14	0.56
303.15	0.35	882.08	0.54
303.15	0.4	887.3	0.52
303.15	0.45	892.82	0.5
303.15	0.5	898.64	0.48
303.15	0.55	904.77	0.46
303.15	0.6	911.23	0.44
303.15	0.65	918.13	0.42
303.15	0.699	924.46	0.4
303.15	0.75	933.65	0.38
303.15	0.8	942.8	0.36
303.15	0.84	951.07	0.34
303.15	0.88	960.66	0.33
303.15	0.92	971.91	0.31
303.15	0.94	978.25	0.31
303.15	0.96	984.9	0.3
303.15	0.98	990.69	0.28
303.15	0.96	984.91	0.3
303.15	0.98	990.71	0.28
308.15	0.04	850.61	0.67
308.15	0.08	853.62	0.66
308.15	0.12	856.72	0.64
308.15	0.16	860.02	0.62
308.15	0.2	863.33	0.61
308.15	0.25	867.71	0.59
308.15	0.3	872.42	0.57
308.15	0.35	877.35	0.55
308.15	0.4	882.57	0.53
308.15	0.45	888.11	0.51
308.15	0.5	893.94	0.49
308.15	0.55	900.1	0.47
308.15	0.6	906.61	0.45
308.15	0.65	913.57	0.43
308.15	0.699	920.88	0.41
308.15	0.75	929.29	0.39
308.15	0.8	938.6	0.37
308.15	0.84	947.04	0.35
308.15	0.88	956.88	0.34
308.15	0.92	968.48	0.32
308.15	0.94	975.08	0.32
308.15	0.96	982.11	0.31
308.15	0.98	988.58	0.29
308.15	0.96	982.12	0.31
308.15	0.98	988.6	0.29
313.15	0.04	845.88	0.68
313.15	0.08	848.88	0.67
313.15	0.12	851.97	0.65
313.15	0.16	855.27	0.63
313.15	0.2	858.57	0.62
313.15	0.25	862.95	0.6
313.15	0.3	867.65	0.58
313.15	0.35	872.59	0.56
313.15	0.4	877.81	0.54
313.15	0.45	883.35	0.52
313.15	0.5	889.2	0.5
313.15	0.55	895.39	0.48
313.15	0.6	901.94	0.46
313.15	0.65	908.96	0.44
313.15	0.699	916.41	0.42
313.15	0.75	924.88	0.4
313.15	0.8	934.35	0.38
313.15	0.84	942.97	0.36
313.15	0.88	953.04	0.35
313.15	0.92	964.99	0.33
313.15	0.94	971.83	0.33
313.15	0.96	979.21	0.32
313.15	0.98	986.28	0.31
313.15	0.96	979.22	0.32
313.15	0.98	986.29	0.31
318.15	0.04	841.13	0.69
318.15	0.08	844.11	0.68
318.15	0.12	847.19	0.66
318.15	0.16	850.48	0.64
318.15	0.2	853.78	0.63
318.15	0.25	858.15	0.61
318.15	0.3	862.86	0.59
318.15	0.35	867.78	0.57
318.15	0.4	873	0.55
318.15	0.45	878.55	0.53
318.15	0.5	884.42	0.51
318.15	0.55	890.63	0.49
318.15	0.6	897.22	0.47
318.15	0.65	904.3	0.45
318.15	0.699	911.84	0.43
318.15	0.75	920.42	0.41
318.15	0.8	930.04	0.39
318.15	0.84	938.84	0.37
318.15	0.88	949.14	0.36
318.15	0.92	961.43	0.34
318.15	0.94	968.51	0.35
318.15	0.96	976.19	0.34
318.15	0.98	983.8	0.32
318.15	0.98	983.81	0.32
323.15	0.04	836.35	0.7
323.15	0.08	839.32	0.69
323.15	0.12	842.39	0.67
323.15	0.16	845.67	0.65
323.15	0.2	848.96	0.64
323.15	0.25	853.32	0.62
323.15	0.3	858.02	0.6
323.15	0.35	862.94	0.58
323.15	0.4	868.16	0.56
323.15	0.45	873.71	0.54
323.15	0.5	879.59	0.52
323.15	0.55	885.82	0.5
323.15	0.6	892.46	0.48
323.15	0.65	899.6	0.46
323.15	0.699	907.22	0.44
323.15	0.75	915.9	0.42
323.15	0.8	925.68	0.4
323.15	0.84	934.65	0.38
323.15	0.88	945.19	0.37
323.15	0.92	957.8	0.35
323.15	0.94	965.09	0.36
323.15	0.96	973.07	0.35
323.15	0.98	981.16	0.34
323.15	0.96	973.09	0.35
323.15	0.98	981.17	0.34
328.15	0.04	831.54	0.71
328.15	0.08	834.5	0.7
328.15	0.12	837.55	0.68
328.15	0.16	840.82	0.67
328.15	0.2	844.1	0.65
328.15	0.25	848.45	0.63
328.15	0.3	853.15	0.61
328.15	0.35	858.05	0.59
328.15	0.4	863.28	0.57
328.15	0.45	868.83	0.55
328.15	0.5	874.72	0.53
328.15	0.55	880.97	0.51
328.15	0.6	887.64	0.49
328.15	0.65	894.84	0.47
328.15	0.699	902.54	0.45
328.15	0.75	911.33	0.43
328.15	0.8	921.27	0.41
328.15	0.84	930.4	0.39
328.15	0.88	941.16	0.38
328.15	0.92	954.09	0.36
328.15	0.94	961.59	0.37
328.15	0.96	969.85	0.36
328.15	0.98	978.37	0.35
328.15	0.96	969.87	0.36
328.15	0.98	978.39	0.35
333.15	0.04	826.7	0.72
333.15	0.08	829.64	0.71
333.15	0.12	832.68	0.69
333.15	0.16	835.93	0.68
333.15	0.2	839.2	0.66
333.15	0.25	843.54	0.64
333.15	0.3	848.23	0.62
333.15	0.35	853.13	0.6
333.15	0.4	858.35	0.58
333.15	0.45	863.9	0.56
333.15	0.5	869.8	0.54
333.15	0.55	876.07	0.52
333.15	0.6	882.78	0.5
333.15	0.65	890.03	0.48
333.15	0.699	897.81	0.46
333.15	0.75	906.7	0.44
333.15	0.8	916.79	0.42
333.15	0.84	926.09	0.4
333.15	0.88	937.07	0.39
333.15	0.92	950.3	0.37
333.15	0.94	958.01	0.38
333.15	0.96	966.53	0.38
333.15	0.98	975.44	0.36
333.15	0.96	966.55	0.38
333.15	0.98	975.46	0.36
338.15	0.04	821.84	0.73
338.15	0.08	824.75	0.72
338.15	0.12	827.77	0.7
338.15	0.16	831	0.69
338.15	0.2	834.26	0.67
338.15	0.25	838.59	0.65
338.15	0.3	843.28	0.63
338.15	0.35	848.16	0.61
338.15	0.4	853.37	0.59
338.15	0.45	858.93	0.57
338.15	0.5	864.84	0.55
338.15	0.55	871.12	0.53
338.15	0.6	877.86	0.51
338.15	0.65	885.16	0.49
338.15	0.699	893.02	0.47
338.15	0.75	902.02	0.45
338.15	0.8	912.26	0.43
338.15	0.84	921.71	0.41
338.15	0.88	932.9	0.4
338.15	0.92	946.44	0.38
338.15	0.94	954.35	0.39
338.15	0.96	963.11	0.39
338.15	0.98	972.39	0.38
338.15	0.96	963.12	0.39
338.15	0.98	972.4	0.38
343.15	0.04	816.94	0.74
343.15	0.08	819.83	0.73
343.15	0.12	822.82	0.71
343.15	0.16	826.04	0.7
343.15	0.2	829.29	0.68
343.15	0.25	833.61	0.66
343.15	0.3	838.27	0.64
343.15	0.35	843.15	0.63
343.15	0.4	848.35	0.61
343.15	0.45	853.91	0.59
343.15	0.5	859.82	0.57
343.15	0.55	866.13	0.55
343.15	0.6	872.89	0.53
343.15	0.65	880.24	0.5
343.15	0.699	888.17	0.48
343.15	0.75	897.28	0.46
343.15	0.8	907.66	0.44
343.15	0.84	917.28	0.42
343.15	0.88	928.67	0.41
343.15	0.92	942.5	0.39
343.15	0.94	950.59	0.4
343.15	0.96	959.59	0.4
343.15	0.98	969.2	0.39
343.15	0.96	959.61	0.4
343.15	0.98	969.22	0.39
348.15	0.04	812.02	0.75
348.15	0.08	814.88	0.74
348.15	0.12	817.86	0.72
348.15	0.16	821.07	0.71
348.15	0.2	824.27	0.69
348.15	0.25	828.58	0.67
348.15	0.3	833.23	0.66
348.15	0.35	838.09	0.64
348.15	0.4	843.29	0.62
348.15	0.45	848.84	0.6
348.15	0.5	854.75	0.58
348.15	0.55	861.08	0.56
348.15	0.6	867.87	0.54
348.15	0.65	875.26	0.52
348.15	0.699	883.26	0.49
348.15	0.75	892.47	0.47
348.15	0.8	903	0.45
348.15	0.84	912.77	0.43
348.15	0.88	924.38	0.42
348.15	0.92	938.48	0.4
348.15	0.94	946.76	0.41
348.15	0.96	955.99	0.41
348.15	0.98	965.91	0.4
348.15	0.96	956	0.41
348.15	0.98	965.93	0.4
