Measured thermophysical data. Crystalline and liquid vapour pressures of the four p-monohalophenols: A thermodynamic study of their phase transitions
Source: J. Chem. Thermodyn., 2013, 10.1016/j.jct.2013.05.047
Compound 1: 4-fluorophenol, C6H5FO, InChI=1S/C6H5FO/c7-5-1-3-6(8)4-2-5/h1-4,8H, purity 98%
Compound 2: 4-bromophenol, C6H5BrO, InChI=1S/C6H5BrO/c7-5-1-3-6(8)4-2-5/h1-4,8H, purity 98%
Compound 3: 4-iodophenol, C6H5IO, InChI=1S/C6H5IO/c7-5-1-3-6(8)4-2-5/h1-4,8H, purity 98%
Compound 4: 4-chlorophenol, C6H5ClO, InChI=1S/C6H5ClO/c7-5-1-3-6(8)4-2-5/h1-4,8H, purity 99.8%

System: 4-fluorophenol; phases: Crystal, Liquid, Air at 1 atmosphere
Property: Normal melting temperature, K (Crystal); method: DTA
Normal melting temperature, K	uncertainty
320.4	0.4

System: 4-fluorophenol; phases: Crystal, Liquid, Air at 1 atmosphere
Property: Molar enthalpy of transition or fusion, kJ/mol (Crystal); method: DSC
Molar enthalpy of transition or fusion, kJ/mol	uncertainty
14.5	0.4

System: 4-fluorophenol; phases: Crystal, Gas
Property: Vapor or sublimation pressure, kPa (Crystal); method: Closed cell (Static) method
Temperature, K	Vapor or sublimation pressure, kPa	uncertainty
265.62	0.00084	0.0001
267.58	0.00108	0.0001
269.54	0.00137	0.00011
271.5	0.00174	0.00012
273.49	0.00222	0.00013
275.43	0.00279	0.00015
277.43	0.00353	0.00017
279.39	0.00443	0.0002
281.38	0.00555	0.00024
283.36	0.00696	0.00029
285.33	0.00863	0.00035
287.34	0.01071	0.00043
289.29	0.01329	0.00052
291.3	0.01648	0.00057
293.29	0.02028	0.00063
295.26	0.02476	0.00069
297.24	0.03044	0.00078
299.25	0.03741	0.00089
301.19	0.04503	0.00101
303.21	0.05518	0.00117
305.19	0.06658	0.00134
307.18	0.08105	0.00157
309.16	0.09599	0.00181
311.12	0.1152	0.0021
313.11	0.1383	0.0022
315.1	0.1647	0.0025
317.07	0.197	0.0028

System: 4-fluorophenol; phases: Liquid, Gas
Property: Vapor or sublimation pressure, kPa (Liquid); method: Closed cell (Static) method
Temperature, K	Vapor or sublimation pressure, kPa	uncertainty
291.39	0.02895	0.00076
293.35	0.03339	0.00083
295.34	0.0394	0.00092
297.32	0.04637	0.00103
299.25	0.05448	0.00115
301.24	0.06387	0.0013
303.22	0.07471	0.00147
305.24	0.08751	0.00167
307.21	0.1019	0.0019
309.2	0.1187	0.0022
311.17	0.1369	0.0022
313.15	0.1588	0.0024
315.06	0.1811	0.0026
317.01	0.2084	0.0029
319.02	0.2365	0.0032
321.01	0.2738	0.0036
323.1	0.3152	0.004
325.09	0.3611	0.0045
327.06	0.4129	0.0051
329.05	0.4644	0.0056
331.02	0.5332	0.0064
333.01	0.5995	0.0071
335	0.6828	0.008
336.96	0.7646	0.0088
338.93	0.8651	0.0099
340.78	0.9558	0.0109
342.84	1.084	0.012

System: 4-bromophenol; phases: Crystal, Liquid, Air at 1 atmosphere
Property: Normal melting temperature, K (Crystal); method: DTA
Normal melting temperature, K	uncertainty
337.8	0.4

System: 4-bromophenol; phases: Crystal, Liquid, Air at 1 atmosphere
Property: Molar enthalpy of transition or fusion, kJ/mol (Crystal); method: DSC
Molar enthalpy of transition or fusion, kJ/mol	uncertainty
16.9	0.4

System: 4-bromophenol; phases: Crystal, Gas
Property: Vapor or sublimation pressure, kPa (Crystal); method: Closed cell (Static) method
Temperature, K	Vapor or sublimation pressure, kPa	uncertainty
285.34	0.00035	0.0001
287.33	0.00046	0.0001
289.29	0.00057	0.0001
291.33	0.00073	0.0001
293.31	0.00092	0.00011
295.29	0.00116	0.00011
297.25	0.00146	0.00012
299.23	0.00182	0.00012
301.2	0.00229	0.00014
303.18	0.00286	0.00015
305.19	0.00358	0.00018
307.17	0.00441	0.0002
309.12	0.00541	0.00024
309.12	0.0054	0.00024
311.05	0.00664	0.00028
313.09	0.00818	0.00034
315.08	0.01002	0.00041
317.09	0.01219	0.00049
319.01	0.01482	0.00054
320.99	0.01805	0.00059
323.03	0.02185	0.00065
324.98	0.02644	0.00072
326.97	0.03198	0.00081
328.93	0.03838	0.00091
330.93	0.0461	0.00103

System: 4-bromophenol; phases: Liquid, Gas
Property: Vapor or sublimation pressure, kPa (Liquid); method: Closed cell (Static) method
Temperature, K	Vapor or sublimation pressure, kPa	uncertainty
303.2	0.00555	0.00024
305.2	0.00661	0.00028
307.18	0.00784	0.00032
309.17	0.00932	0.00038
311.16	0.01099	0.00044
313.12	0.01288	0.00051
315.09	0.01516	0.00055
316.89	0.01755	0.00058
318.6	0.02013	0.00062
320.72	0.02383	0.00068
323.03	0.02842	0.00075
325.02	0.03304	0.00082
326.97	0.03827	0.0009
328.95	0.04429	0.001
330.89	0.05121	0.0011
332.9	0.05904	0.00122
334.9	0.06804	0.00136
336.81	0.07806	0.00152
338.78	0.0882	0.00169
340.82	0.1022	0.0019
342.8	0.1163	0.0021
344.73	0.132	0.0021
346.82	0.1517	0.0023
348.66	0.1712	0.0025
350.78	0.1945	0.0028
352.64	0.2188	0.003
354.73	0.2475	0.0033
356.58	0.2774	0.0036
358.68	0.3129	0.004
360.5	0.3497	0.0044
362.61	0.3938	0.0049
364.5	0.4391	0.0054
366.58	0.4925	0.0059
368.3	0.549	0.0065
370.51	0.6102	0.0072

System: 4-iodophenol; phases: Crystal, Liquid, Air at 1 atmosphere
Property: Normal melting temperature, K (Crystal); method: DTA
Normal melting temperature, K	uncertainty
365.8	0.4

System: 4-iodophenol; phases: Crystal, Liquid, Air at 1 atmosphere
Property: Molar enthalpy of transition or fusion, kJ/mol (Crystal); method: DSC
Molar enthalpy of transition or fusion, kJ/mol	uncertainty
20.8	0.5

System: 4-iodophenol; phases: Crystal, Gas
Property: Vapor or sublimation pressure, kPa (Crystal); method: Closed cell (Static) method
Temperature, K	Vapor or sublimation pressure, kPa	uncertainty
307.15	0.00064	0.00011
309.13	0.00079	0.00011
311.09	0.00098	0.00011
313.1	0.00123	0.00012
315.1	0.00152	0.00012
317.05	0.00189	0.00013
319.1	0.00236	0.00014
321.01	0.00288	0.00016
323.01	0.00353	0.00018
325.06	0.00436	0.0002
326.95	0.00527	0.00024
329.02	0.00647	0.00028
330.91	0.00781	0.00033
332.98	0.00956	0.00039
334.88	0.01147	0.00046
336.95	0.01399	0.00053
338.83	0.01662	0.00057
340.9	0.02012	0.00063
342.79	0.02397	0.00068
344.86	0.02883	0.00076
346.71	0.03411	0.00084
348.82	0.04092	0.00095
350.67	0.0482	0.00106
352.76	0.05731	0.0012
354.59	0.06713	0.00135
356.72	0.07984	0.00155
358.58	0.09351	0.00177
360.65	0.1108	0.0021

System: 4-iodophenol; phases: Liquid, Gas
Property: Vapor or sublimation pressure, kPa (Liquid); method: Closed cell (Static) method
Temperature, K	Vapor or sublimation pressure, kPa	uncertainty
336.93	0.02432	0.00069
338.84	0.02795	0.00074
340.71	0.03222	0.00081
342.72	0.03713	0.00089
344.73	0.04253	0.00097
346.73	0.04894	0.00107
348.71	0.05593	0.00118
350.69	0.06373	0.0013
352.67	0.07262	0.00144
354.62	0.08281	0.0016
356.58	0.09387	0.00178
358.58	0.1065	0.002
360.56	0.1204	0.0022
362.52	0.1359	0.0022
364.52	0.1533	0.0024
366.46	0.1729	0.0026
368.57	0.1961	0.0028
370.44	0.2178	0.003
372.51	0.2463	0.0033
374.38	0.2725	0.0036
376.46	0.3075	0.004
378.32	0.3409	0.0043
380.41	0.382	0.0047

System: 4-chlorophenol; phases: Crystal, Liquid, Air at 1 atmosphere
Property: Normal melting temperature, K (Crystal); method: DTA
Normal melting temperature, K	uncertainty
316.9	0.4

System: 4-chlorophenol; phases: Crystal, Liquid, Air at 1 atmosphere
Property: Molar enthalpy of transition or fusion, kJ/mol (Crystal); method: DSC
Molar enthalpy of transition or fusion, kJ/mol	uncertainty
14	0.4

System: 4-chlorophenol; phases: Crystal, Gas
Property: Vapor or sublimation pressure, kPa (Crystal); method: Closed cell (Static) method
Temperature, K	Vapor or sublimation pressure, kPa	uncertainty
273.5	0.00039	0.0001
275.43	0.00049	0.0001
277.42	0.00063	0.0001
279.38	0.00081	0.0001
281.38	0.00103	0.0001
283.35	0.0013	0.00011
285.35	0.00166	0.00012
287.31	0.00208	0.00013
289.31	0.00262	0.00014
291.31	0.00327	0.00016
293.28	0.00406	0.00019
295.27	0.00505	0.00022
297.26	0.00624	0.00027
299.21	0.00766	0.00032
301.23	0.00951	0.00039
303.2	0.01166	0.00047
305.18	0.01436	0.00054
307.16	0.01755	0.00058
309.14	0.02132	0.00064
311.14	0.02603	0.00071

System: 4-chlorophenol; phases: Liquid, Gas
Property: Vapor or sublimation pressure, kPa (Liquid); method: Closed cell (Static) method
Temperature, K	Vapor or sublimation pressure, kPa	uncertainty
273.48	0.00084	0.0001
275.44	0.00104	0.0001
277.42	0.00128	0.00011
279.38	0.00158	0.00011
281.38	0.00192	0.00012
283.37	0.00234	0.00013
285.33	0.00286	0.00015
287.32	0.00345	0.00017
289.31	0.00418	0.00019
291.28	0.00507	0.00022
293.28	0.00606	0.00026
295.32	0.00733	0.0003
297.25	0.00872	0.00036
299.23	0.01048	0.00042
301.2	0.01241	0.0005
303.19	0.01472	0.00054
305.18	0.01741	0.00058
307.18	0.02059	0.00063
309.14	0.02426	0.00069
311.11	0.02854	0.00075
313.12	0.03332	0.00083
315.06	0.03907	0.00092
317.07	0.04539	0.00101
319.03	0.05279	0.00113
321.14	0.06178	0.00127
323.09	0.07108	0.00141
325.09	0.08208	0.00159
327.04	0.09417	0.00178
329.04	0.1088	0.002
331.02	0.1249	0.0023
