Measured thermophysical data. Thermodynamic properties of chiral liquid crystalline material  (S)-4-(2-methylbutyl)-40-cyanobiphenyl (5*CB)
Source: J. Chem. Thermodyn., 2008, 10.1016/j.jct.2008.04.001
Compound 1: (S)-4'-(2-methylbutyl)-[1,1'-biphenyl]-4-carbonitrile, C18H19N, InChI=1S/C18H19N/c1-3-14(2)12-15-4-8-17(9-5-15)18-10-6-16(13-19)7-11-18/h4-11,14H,3,12H2,1-2H3/t14-/m0/s1

System: (S)-4'-(2-methylbutyl)-[1,1'-biphenyl]-4-carbonitrile; phases: Crystal, Liquid, Gas
Property: Triple point temperature, K (Crystal); method: Adiabatic calorimetry
Triple point temperature, K	uncertainty
291.39	0.05

System: (S)-4'-(2-methylbutyl)-[1,1'-biphenyl]-4-carbonitrile; phases: Metastable crystal, Liquid, Gas
Property: Triple point temperature, K (Metastable crystal); method: Adiabatic calorimetry
Triple point temperature, K	uncertainty
281.93	0.11

System: (S)-4'-(2-methylbutyl)-[1,1'-biphenyl]-4-carbonitrile; phases: Crystal, Liquid, Gas
Property: Molar enthalpy of transition or fusion, kJ/mol (Crystal); method: Adiabatic calorimetry
Molar enthalpy of transition or fusion, kJ/mol	uncertainty
13.24	0.09

System: (S)-4'-(2-methylbutyl)-[1,1'-biphenyl]-4-carbonitrile; phases: Metastable crystal, Liquid, Gas
Property: Molar enthalpy of transition or fusion, kJ/mol (Metastable crystal); method: Adiabatic calorimetry
Molar enthalpy of transition or fusion, kJ/mol	uncertainty
11.34	0.08

System: (S)-4'-(2-methylbutyl)-[1,1'-biphenyl]-4-carbonitrile; phases: Cholesteric liquid crystal, Liquid, Gas
Property: Triple point temperature, K (Cholesteric liquid crystal); method: Adiabatic calorimetry
Triple point temperature, K	uncertainty
246.78	0.11

System: (S)-4'-(2-methylbutyl)-[1,1'-biphenyl]-4-carbonitrile; phases: Cholesteric liquid crystal, Liquid, Gas
Property: Molar enthalpy of transition or fusion, kJ/mol (Cholesteric liquid crystal); method: Adiabatic calorimetry
Molar enthalpy of transition or fusion, kJ/mol	uncertainty
0.48	0.048

System: (S)-4'-(2-methylbutyl)-[1,1'-biphenyl]-4-carbonitrile; phases: Glass, Cholesteric liquid crystal, Gas
Property: Triple point temperature, K (Glass); method: Adiabatic calorimetry
Triple point temperature, K	uncertainty
210	1

System: (S)-4'-(2-methylbutyl)-[1,1'-biphenyl]-4-carbonitrile; phases: Glass
Fixed: Pressure, kPa = 101.325
Property: Molar heat capacity at constant pressure, J/K/mol (Glass); method: Vacuum adiabatic calorimetry
Temperature, K	Molar heat capacity at constant pressure, J/K/mol	uncertainty
4.844	1.5805811272	0.0266063104
5.421	2.0985727328	0.0307635464
6.118	2.8443808712	0.037415124
6.889	3.7415124	0.0448981488
7.686	4.772506928	0.0532126208
8.506	5.9340386664	0.0615270928
9.355	7.2269390624	0.0715044592
10.24	8.638736408	0.08314472
11.15	10.176913728	0.091459192
12.08	11.814864712	0.108088136
13.03	13.519331472	0.116402608
14	15.323571896	0.133031552
14.97	17.161070208	0.141346024
15.9	18.940367216	0.149660496
16.81	20.711349752	0.16628944
17.81	22.69850856	0.174603912
18.89	24.86027128	0.191232856
20.21	27.495958904	0.2078618
21.53	30.131646528	0.216176272
22.74	32.534528936	0.232805216
24.1	35.178531032	0.24943416
25.6	37.988822568	0.266063104
27.17	41.140007456	0.282692048
28.72	44.23299104	0.29100652
30.27	47.159685184	0.299320992
31.85	50.01154908	0.315949936
33.45	52.83846956	0.33257888
35.06	55.773478176	0.349207824
36.67	58.592084184	0.37415124
38.28	61.302602056	0.390780184
39.79	63.738742352	0.399094656
41.21	66.066794512	0.4157236
42.52	68.145412512	0.432352544
43.76	70.082684488	0.440667016
45.09	72.152988016	0.45729596
46.49	74.339694152	0.465610432
47.94	76.584601592	0.482239376
49.46	78.82119456	0.490553848
51.01	81.082730944	0.507182792
52.6	83.31100944	0.49886832
54.23	85.55591688	0.49886832
55.88	87.80082432	0.58201304
57.56	90.04573176	0.58201304
59.26	92.2906392	0.58201304
60.99	94.61869136	0.58201304
62.73	96.8635988	0.58201304
64.49	99.10850624	0.58201304
66.27	101.35341368	0.66515776
68.07	103.59832112	0.66515776
69.88	105.84322856	0.66515776
71.7	108.17128072	0.66515776
73.54	110.33304344	0.66515776
75.39	112.74424032	0.66515776
77.26	114.90600304	0.74830248
79.14	117.2340552	0.74830248
81.04	119.39581792	0.74830248
82.94	121.8070148	0.74830248
84.87	124.05192224	0.74830248
86.8	126.29682968	0.74830248
88.75	128.54173712	0.8314472
90.72	130.78664456	0.8314472
92.69	133.11469672	0.8314472
94.68	135.35960416	0.8314472
96.69	137.68765632	0.8314472
98.71	140.0988532	0.91459192
100.74	142.34376064	0.91459192
102.79	144.6718128	0.91459192
104.85	146.99986496	0.91459192
106.93	149.32791712	0.91459192
109.02	151.65596928	0.91459192
111.12	154.06716616	0.99773664
113.24	156.47836304	0.99773664
115.37	158.8064152	0.99773664
117.52	161.13446736	0.99773664
119.68	163.46251952	0.99773664
121.86	165.8737164	0.99773664
124.05	168.20176856	1.08088136
126.25	170.61296544	1.08088136
128.47	173.10730704	1.08088136
130.71	175.4353592	1.08088136
132.96	177.9297008	1.08088136
135.22	180.25775296	1.08088136
137.5	182.66894984	1.16402608
139.79	185.16329144	1.16402608
142.1	187.65763304	1.16402608
144.42	190.23511936	1.16402608
146.75	192.64631624	1.16402608
149.1	195.22380256	1.16402608
151.47	197.71814416	1.2471708
153.84	200.29563048	1.2471708
156.23	202.95626152	1.2471708
158.64	205.45060312	1.2471708
161.06	208.11123416	1.2471708
162.28	209.44154968	1.33031552
163.5	210.7718652	1.33031552
165.95	213.43249624	1.33031552
168.41	216.25941672	1.33031552
170.89	219.0863372	1.33031552
173.38	221.83011296	1.33031552
175.89	224.490744	1.41346024
178.41	227.4008092	1.41346024
180.95	230.3108744	1.41346024
183.5	233.2209396	1.41346024
186.07	236.1310048	1.41346024
188.65	239.29050416	1.49660496
191.25	242.45000352	1.49660496
193.87	245.52635816	1.49660496
196.5	248.85214696	1.49660496
199.15	252.7599488	1.57974968
201.82	256.75089536	1.57974968
204.51	261.65643384	1.57974968
207.21	268.47430088	1.6628944
209.9	282.2763244	1.74603912

System: (S)-4'-(2-methylbutyl)-[1,1'-biphenyl]-4-carbonitrile; phases: Metastable crystal
Fixed: Pressure, kPa = 101.325
Property: Molar heat capacity at constant pressure, J/K/mol (Metastable crystal); method: Vacuum adiabatic calorimetry
Temperature, K	Molar heat capacity at constant pressure, J/K/mol	uncertainty
5.114	1.346944464	0.024943416
5.677	1.779297008	0.024943416
6.359	2.394567936	0.033257888
7.093	3.15949936	0.04157236
7.863	4.049147864	0.049886832
8.661	5.063513448	0.058201304
9.483	6.202596112	0.066515776
10.29	7.39988008	0.074830248
11.11	8.671994296	0.08314472
11.97	10.06051112	0.091459192
12.87	11.565430552	0.099773664
13.79	13.195067064	0.116402608
14.73	14.849646992	0.12471708
15.59	16.437711144	0.133031552
16.45	18.059033184	0.141346024
17.44	19.938103856	0.157974968
18.48	21.966835024	0.16628944
19.56	24.095339856	0.182918384
20.73	26.431706488	0.199547328
22.04	29.050765168	0.2078618
23.34	31.603308072	0.224490744
24.62	34.0893352	0.241119688
25.94	36.575362328	0.24943416
27.22	39.227678896	0.266063104
28.46	41.763592856	0.282692048
29.8	44.390966008	0.29100652
31.13	46.876993136	0.299320992
32.45	49.271561072	0.315949936
33.88	51.948821056	0.33257888
35.34	54.642709984	0.349207824
36.82	57.295026552	0.365836768
38.32	59.90577076	0.382465712
39.68	62.175621616	0.390780184
40.96	64.329069864	0.407409128
42.09	66.158253704	0.4157236
43.05	67.72137444	0.424038072
44.14	69.475728032	0.440667016
45.32	71.354798704	0.448981488
46.59	73.383529872	0.45729596
47.93	75.470462344	0.473924904
49.34	77.640539536	0.490553848
50.8	79.86050356	0.49886832
52.31	82.06383864	0.515497264
53.87	84.30874608	0.49886832
55.45	86.55365352	0.58201304
57.07	88.79856096	0.58201304
58.72	91.12661312	0.58201304
60.4	93.37152056	0.58201304
62.1	95.616428	0.58201304
63.82	97.94448016	0.58201304
65.56	100.1893876	0.66515776
67.32	102.51743976	0.66515776
69.1	104.84549192	0.66515776
70.9	107.2566888	0.66515776
72.71	109.58474096	0.66515776
74.54	112.07908256	0.66515776
76.38	114.57342416	0.74830248
78.24	117.06776576	0.74830248
80.11	119.64525208	0.74830248
82	122.2227384	0.74830248
83.89	124.80022472	0.74830248
85.81	127.37771104	0.8314472
87.73	130.03834208	0.8314472
89.67	132.6158284	0.8314472
91.62	135.27645944	0.8314472
93.59	137.85394576	0.8314472
95.57	140.43143208	0.91459192
97.56	143.0089184	0.91459192
99.57	145.50326	0.91459192
101.59	147.9976016	0.91459192
103.63	150.4919432	0.91459192
105.68	152.9862848	0.91459192
107.74	155.39748168	0.99773664
109.82	157.80867856	0.99773664
111.92	160.30302016	0.99773664
114.03	162.79736176	0.99773664
116.15	165.20855864	0.99773664
118.29	167.70290024	1.08088136
120.45	170.11409712	1.08088136
122.62	172.60843872	1.08088136
124.8	175.0196356	1.08088136
127	177.43083248	1.08088136
129.22	179.84202936	1.08088136
131.45	182.25322624	1.16402608
133.7	184.66442312	1.16402608
135.96	187.07562	1.16402608
138.24	189.32052744	1.16402608
140.53	191.81486904	1.16402608
142.84	194.1429212	1.16402608
145.16	196.47097336	1.2471708
147.5	198.79902552	1.2471708
149.85	201.2102224	1.2471708
152.22	203.53827456	1.2471708
154.61	205.94947144	1.2471708
157.01	208.36066832	1.2471708
159.42	210.7718652	1.33031552
161.85	213.34935152	1.33031552
164.29	215.7605484	1.33031552
166.75	218.25489	1.33031552
169.22	220.83237632	1.33031552
171.71	223.32671792	1.41346024
174.21	225.90420424	1.41346024
176.73	228.56483528	1.41346024
179.26	231.22546632	1.41346024
181.81	233.88609736	1.41346024
184.37	236.62987312	1.41346024
186.94	239.37364888	1.49660496
189.53	242.03427992	1.49660496
192.14	244.69491096	1.49660496
194.76	247.43868672	1.49660496
197.39	250.43189664	1.49660496
200.04	253.25881712	1.57974968
202.7	256.16888232	1.57974968
205.38	259.07894752	1.57974968
208.07	262.07215744	1.57974968
210.77	264.98222264	1.6628944
213.49	267.80914312	1.6628944
216.22	270.71920832	1.6628944
218.97	273.71241824	1.6628944
221.72	276.70562816	1.6628944
224.49	279.61569336	1.74603912
227.28	282.60890328	1.74603912
230.08	285.68525792	1.74603912
232.89	288.59532312	1.74603912
235.71	291.58853304	1.74603912
238.55	294.41545352	1.82918384
241.4	297.07608456	1.82918384
244.27	299.320992	1.82918384
247.15	301.98162304	1.82918384
250.05	304.80854352	1.82918384
252.95	307.96804288	1.91232856
255.87	311.46012112	1.91232856
258.8	314.95219936	1.91232856

System: (S)-4'-(2-methylbutyl)-[1,1'-biphenyl]-4-carbonitrile; phases: Crystal
Fixed: Pressure, kPa = 101.325
Property: Molar heat capacity at constant pressure, J/K/mol (Crystal); method: Vacuum adiabatic calorimetry
Temperature, K	Molar heat capacity at constant pressure, J/K/mol	uncertainty
5.064	1.5739295496	0.0266063104
5.776	2.2049979744	0.0315949936
6.574	3.0314564912	0.0382465712
7.39	3.9984295848	0.0465610432
8.226	5.1000971248	0.0548755152
9.081	6.335627664	0.0648528816
9.957	7.6900551528	0.074830248
10.86	9.162548144	0.08314472
11.74	10.667467576	0.099773664
12.62	12.213959368	0.108088136
13.52	13.88516824	0.116402608
14.44	15.581320528	0.133031552
15.39	17.368932008	0.141346024
16.29	19.1232856	0.149660496
17.22	20.977412856	0.16628944
18.34	23.205691352	0.182918384
19.56	25.666775064	0.191232856
20.73	28.053028528	0.2078618
21.96	30.539055656	0.224490744
23.34	33.282831416	0.241119688
24.77	36.068179536	0.24943416
26.2	38.78701188	0.266063104
27.67	41.830108632	0.282692048
29.34	45.172526376	0.299320992
31.11	48.47337176	0.307635464
32.87	51.641185592	0.324264408
34.6	54.842257312	0.349207824
36.22	57.719064624	0.365836768
37.78	60.421268024	0.382465712
39.39	63.081899064	0.399094656
41.01	65.750844576	0.4157236
42.64	68.34495984	0.432352544
44.22	70.830986968	0.448981488
45.75	73.225554904	0.45729596
47.31	75.611808368	0.473924904
48.89	78.023005248	0.490553848
50.48	80.384315296	0.507182792
52.09	82.670795096	0.515497264
53.71	84.97390384	0.49886832
55.34	87.21881128	0.58201304
56.98	89.46371872	0.58201304
58.62	91.62548144	0.58201304
60.28	93.87038888	0.58201304
61.95	96.0321516	0.58201304
63.62	98.19391432	0.58201304
65.26	100.27253232	0.66515776
66.87	102.35115032	0.66515776
68.5	104.42976832	0.66515776
70.17	106.50838632	0.66515776
71.85	108.58700432	0.66515776
73.56	110.5824776	0.66515776
75.29	112.6610956	0.66515776
77.05	114.7397136	0.74830248
78.82	116.8183316	0.74830248
80.62	118.8969496	0.74830248
82.43	121.05871232	0.74830248
84.26	123.13733032	0.74830248
86.11	125.21594832	0.74830248
87.98	127.37771104	0.8314472
89.87	129.45632904	0.8314472
91.77	131.61809176	0.8314472
93.69	133.77985448	0.8314472
95.63	135.9416172	0.8314472
97.59	138.10337992	0.8314472
99.56	140.26514264	0.91459192
101.55	142.51005008	0.91459192
103.55	144.75495752	0.91459192
105.57	146.99986496	0.91459192
107.61	149.2447724	0.91459192
109.67	151.48967984	0.91459192
111.74	153.817732	0.99773664
113.82	156.06263944	0.99773664
115.93	158.3906916	0.99773664
118.04	160.71874376	0.99773664
120.18	163.12994064	0.99773664
122.33	165.4579928	0.99773664
124.49	167.78604496	1.08088136
126.68	170.28038656	1.08088136
128.88	172.60843872	1.08088136
131.09	175.0196356	1.08088136
133.32	177.5139772	1.08088136
135.56	179.92517408	1.08088136
137.82	182.5026604	1.16402608
140.1	184.997002	1.16402608
142.39	187.57448832	1.16402608
144.69	190.15197464	1.16402608
147.02	192.64631624	1.16402608
149.35	195.22380256	1.16402608
151.7	197.8844336	1.2471708
154.06	200.46191992	1.2471708
156.44	203.12255096	1.2471708
158.83	205.70003728	1.2471708
161.24	208.36066832	1.2471708
163.66	211.02129936	1.33031552
166.1	213.51564096	1.33031552
168.55	216.25941672	1.33031552
171.02	218.92004776	1.33031552
173.5	221.5806788	1.33031552
176	224.40759928	1.41346024
178.51	227.06823032	1.41346024
181.04	229.8951508	1.41346024
183.58	232.72207128	1.41346024
186.13	235.46584704	1.41346024
188.7	238.2096228	1.49660496
191.29	241.03654328	1.49660496
193.89	243.78031904	1.49660496
196.5	246.60723952	1.49660496
199.13	249.68359416	1.49660496
201.78	252.59365936	1.57974968
204.43	255.42057984	1.57974968
207.1	258.41378976	1.57974968
208.44	259.91039472	1.57974968
209.79	261.40699968	1.57974968
212.49	264.48335432	1.6628944
215.2	267.89228784	1.6628944
217.92	271.13493192	1.6628944
220.66	274.21128656	1.6628944
223.41	277.20449648	1.6628944
226.17	280.1977064	1.74603912
228.95	283.44035048	1.74603912
231.74	286.35041568	1.74603912
234.54	289.3436256	1.74603912
237.36	292.50312496	1.82918384
240.2	295.5794796	1.82918384
243.05	298.73897896	1.82918384
245.92	301.56589944	1.82918384
247.36	303.14564912	1.82918384
248.8	304.64225408	1.82918384
251.69	307.88489816	1.91232856
254.59	311.29383168	1.91232856
257.5	314.61962048	1.91232856
260.42	317.77911984	1.91232856

System: (S)-4'-(2-methylbutyl)-[1,1'-biphenyl]-4-carbonitrile; phases: Glass
Fixed: Pressure, kPa = 101.325
Property: Molar heat capacity at constant pressure, J/K/mol (Glass); method: Vacuum adiabatic calorimetry
Temperature, K	Molar heat capacity at constant pressure, J/K/mol	uncertainty
5	1.72	0.03
10	8.26	0.08
20	27.07	0.2
30	46.65	0.3
40	64.09	0.4
50	79.61	0.5
60	93.3	0.58
70	106.03	0.66
80	118.21	0.74
90	129.96	0.81
100	141.53	0.88
110	152.78	0.95
120	163.8	1.02
130	174.69	1.08
140	185.42	1.15
150	196.15	1.21
160	206.95	1.27
170	218.06	1.34
180	229.22	1.41
190	240.91	1.48
200	253.99	1.56

System: (S)-4'-(2-methylbutyl)-[1,1'-biphenyl]-4-carbonitrile; phases: Cholesteric liquid crystal
Fixed: Pressure, kPa = 101.325
Property: Molar heat capacity at constant pressure, J/K/mol (Cholesteric liquid crystal); method: Vacuum adiabatic calorimetry
Temperature, K	Molar heat capacity at constant pressure, J/K/mol	uncertainty
220	377.25	2.3
230	387.68	2.36
240	403.04	2.46

System: (S)-4'-(2-methylbutyl)-[1,1'-biphenyl]-4-carbonitrile; phases: Liquid
Fixed: Pressure, kPa = 101.325
Property: Molar heat capacity at constant pressure, J/K/mol (Liquid); method: Vacuum adiabatic calorimetry
Temperature, K	Molar heat capacity at constant pressure, J/K/mol	uncertainty
250	403.38	2.46
260	404.25	2.46
270	409.68	2.5
280	415.74	2.53
290	422.43	2.57
298.15	427.81	2.61
300	429.03	2.61
310	435.65	2.65
320	442.6	2.69
330	449.88	2.74
340	457.24	2.78
350	464.56	2.83

System: (S)-4'-(2-methylbutyl)-[1,1'-biphenyl]-4-carbonitrile; phases: Metastable crystal
Fixed: Pressure, kPa = 101.325
Property: Molar heat capacity at constant pressure, J/K/mol (Metastable crystal); method: Vacuum adiabatic calorimetry
Temperature, K	Molar heat capacity at constant pressure, J/K/mol	uncertainty
5	1.26	0.03
10	6.97	0.07
20	24.98	0.19
30	44.77	0.29
40	62.72	0.4
50	78.64	0.49
60	92.83	0.58
70	106.03	0.66
80	119.47	0.74
90	133.06	0.83
100	146.06	0.91
110	158.01	0.98
120	169.62	1.05
130	180.71	1.12
140	191.23	1.18
150	201.36	1.24
160	211.38	1.3
170	221.62	1.36
180	232.01	1.43
190	242.51	1.49
200	253.23	1.55
210	264.13	1.62
220	274.85	1.68
230	285.59	1.75
240	295.77	1.81
250	304.74	1.86
260	316.5	1.93
270	334.33	2.04

System: (S)-4'-(2-methylbutyl)-[1,1'-biphenyl]-4-carbonitrile; phases: Crystal
Fixed: Pressure, kPa = 101.325
Property: Molar heat capacity at constant pressure, J/K/mol (Crystal); method: Vacuum adiabatic calorimetry
Temperature, K	Molar heat capacity at constant pressure, J/K/mol	uncertainty
5	1.52	0.03
10	7.76	0.08
20	26.56	0.2
30	46.4	0.3
40	64.09	0.4
50	79.67	0.5
60	93.48	0.58
70	106.31	0.66
80	118.21	0.74
90	129.61	0.81
100	140.78	0.88
110	151.88	0.94
120	162.92	1.01
130	173.83	1.08
140	184.92	1.14
150	195.96	1.21
160	207.01	1.28
170	217.82	1.34
180	228.72	1.41
190	239.64	1.47
200	250.65	1.54
210	261.67	1.6
220	273.48	1.67
230	284.54	1.74
240	295.34	1.81
250	306.01	1.87
260	317.34	1.94
270	333.69	2.04
280	402.21	2.45

System: (S)-4'-(2-methylbutyl)-[1,1'-biphenyl]-4-carbonitrile; phases: Liquid
Fixed: Pressure, kPa = 101.325
Property: Molar enthalpy function {Hm(T)-Hm(0)}/T, J/K/mol (Liquid); method: Vacuum adiabatic calorimetry
Temperature, K	Molar enthalpy function {Hm(T)-Hm(0)}/T, J/K/mol	uncertainty
250	203.24	1.25
260	210.91	1.3
270	218.17	1.34
280	225.12	1.38
290	231.81	1.42
298.15	237.09	1.46
300	238.27	1.46
310	244.53	1.5
320	250.61	1.54
330	256.54	1.57
340	262.33	1.61
350	268	1.64

System: (S)-4'-(2-methylbutyl)-[1,1'-biphenyl]-4-carbonitrile; phases: Liquid
Fixed: Pressure, kPa = 101.325
Property: Molar entropy, J/K/mol (Liquid); method: Vacuum adiabatic calorimetry
Temperature, K	Molar entropy, J/K/mol	uncertainty
250	362.09	3.31
260	377.88	3.46
270	393.24	3.59
280	408.24	3.73
290	422.95	3.86
298.15	434.72	3.97
300	437.38	3.99
310	451.56	4.12
320	465.5	4.25
330	479.23	4.37
340	492.77	4.5
350	506.12	4.62

System: (S)-4'-(2-methylbutyl)-[1,1'-biphenyl]-4-carbonitrile; phases: Crystal
Fixed: Pressure, kPa = 101.325
Property: Molar enthalpy function {Hm(T)-Hm(0)}/T, J/K/mol (Crystal); method: Vacuum adiabatic calorimetry
Temperature, K	Molar enthalpy function {Hm(T)-Hm(0)}/T, J/K/mol	uncertainty
5	0.38	0.01
10	2.35	0.03
20	9.6	0.08
30	18.58	0.13
40	27.79	0.18
50	36.63	0.23
60	44.97	0.29
70	52.82	0.33
80	60.26	0.38
90	67.33	0.45
100	74.13	0.49
110	80.69	0.52
120	87.08	0.56
130	93.34	0.6
140	99.48	0.63
150	105.55	0.67
160	111.54	0.7
170	117.48	0.74
180	123.36	0.77
190	129.19	0.81
200	134.98	0.84
210	140.75	0.88
220	146.52	0.91
230	152.28	0.95
240	158.01	0.98
250	163.69	1.02
260	169.35	1.05
270	175.09	1.08
280	181.7	1.12

System: (S)-4'-(2-methylbutyl)-[1,1'-biphenyl]-4-carbonitrile; phases: Crystal
Fixed: Pressure, kPa = 101.325
Property: Molar entropy, J/K/mol (Crystal); method: Vacuum adiabatic calorimetry
Temperature, K	Molar entropy, J/K/mol	uncertainty
5	0.51	0.9
10	3.25	0.9
20	14.17	0.91
30	28.7	0.91
40	44.53	0.91
50	60.53	0.92
60	76.29	0.92
70	91.67	0.93
80	106.65	0.94
90	121.24	0.96
100	135.48	0.97
110	149.42	0.97
120	163.1	0.98
130	176.57	0.99
140	189.86	0.99
150	203	1
160	216	1
170	228.87	1.01
180	241.63	1.01
190	254.29	1.02
200	266.86	1.03
210	279.35	1.03
220	291.8	1.04
230	304.2	1.05
240	316.53	1.05
250	330.55	1.06
260	342.76	1.07
270	355.05	1.08
280	368.49	1.08

System: (S)-4'-(2-methylbutyl)-[1,1'-biphenyl]-4-carbonitrile; phases: Liquid
Fixed: Pressure, kPa = 101.325
Property: Molar heat capacity at constant pressure, J/K/mol (Liquid); method: Vacuum adiabatic calorimetry
Temperature, K	Molar heat capacity at constant pressure, J/K/mol	uncertainty
292.28	424.20436144	2.57748632
293.8	425.11895336	2.57748632
296.07	426.36612416	2.57748632
298.33	428.11216328	2.57748632
283.08	417.88536272	2.57748632
284.85	418.96624408	2.57748632
287.37	420.62913848	2.57748632
290.13	422.7909012	2.57748632
292.88	424.4537956	2.57748632
295.62	426.11669	2.57748632
298.36	428.02901856	2.57748632
256.45	402.66987896	2.4943416
258.29	403.58447088	2.4943416
260.13	404.33277336	2.4943416
262.23	405.49679944	2.4943416
264.58	406.5776808	2.4943416
266.92	407.74170688	2.4943416
269.26	409.23831184	2.4943416
271.59	410.65177208	2.4943416
274.17	412.23152176	2.4943416
277	413.89441616	2.4943416
279.82	415.64045528	2.4943416
282.63	417.30334968	2.57748632
285.43	419.21567824	2.57748632
288.22	421.21115152	2.57748632
291	423.12348008	2.57748632
293.78	424.8695192	2.57748632
296.54	426.78184776	2.57748632
300.59	429.4424788	2.57748632
302.84	430.85593904	2.66063104
305.08	432.43568872	2.66063104
307.33	434.0154384	2.66063104
309.56	435.34575392	2.66063104
311.79	437.00864832	2.66063104
314.02	438.50525328	2.66063104
316.24	440.16814768	2.66063104
318.46	441.66475264	2.66063104
320.67	442.99506816	2.66063104
322.88	444.74110728	2.74377576
325.08	446.40400168	2.74377576
327.27	447.7343172	2.74377576
329.47	449.48035632	2.74377576
331.65	451.060106	2.74377576
333.84	452.63985568	2.74377576
336.02	454.05331592	2.74377576
338.19	455.6330656	2.74377576
340.36	457.54539416	2.74377576
342.52	458.87570968	2.82692048
344.68	460.6217488	2.82692048
346.84	461.95206432	2.82692048
348.99	463.69810344	2.82692048

System: (S)-4'-(2-methylbutyl)-[1,1'-biphenyl]-4-carbonitrile; phases: Cholesteric liquid crystal
Fixed: Pressure, kPa = 101.325
Property: Molar heat capacity at constant pressure, J/K/mol (Cholesteric liquid crystal); method: Vacuum adiabatic calorimetry
Temperature, K	Molar heat capacity at constant pressure, J/K/mol	uncertainty
217.36	374.89954248	2.24490744
219.84	377.14444992	2.32805216
222.33	379.38935736	2.32805216
224.84	381.71740952	2.32805216
227.36	384.54433	2.32805216
229.89	387.53753992	2.32805216
232.44	390.44760512	2.41119688
235.01	394.5216964	2.41119688
237.76	398.59578768	2.41119688
238.58	399.59352432	2.41119688
239.4	400.92383984	2.41119688
240.21	403.75076032	2.4943416
241.03	406.5776808	2.4943416
241.84	410.56862736	2.4943416
242.67	416.05617888	2.57748632
