Measured thermophysical data. Vapour pressures and enthalpies of vaporization of a series of the linear n-alkyl-benzenes
Source: J. Chem. Thermodyn., 2006, 10.1016/j.jct.2005.11.009
Compound 1: pentylbenzene, C11H16, InChI=1S/C11H16/c1-2-3-5-8-11-9-6-4-7-10-11/h4,6-7,9-10H,2-3,5,8H2,1H3, purity 99%
Compound 2: heptylbenzene, C13H20, InChI=1S/C13H20/c1-2-3-4-5-7-10-13-11-8-6-9-12-13/h6,8-9,11-12H,2-5,7,10H2,1H3, purity 99%
Compound 3: 1-phenyldecane, C16H26, InChI=1S/C16H26/c1-2-3-4-5-6-7-8-10-13-16-14-11-9-12-15-16/h9,11-12,14-15H,2-8,10,13H2,1H3, purity 99%
Compound 4: undecylbenzene, C17H28, InChI=1S/C17H28/c1-2-3-4-5-6-7-8-9-11-14-17-15-12-10-13-16-17/h10,12-13,15-16H,2-9,11,14H2,1H3, purity 99%

System: pentylbenzene; phases: Liquid, Gas
Property: Vapor or sublimation pressure, kPa (Liquid); method: Transpiration method
Temperature, K	Vapor or sublimation pressure, kPa	uncertainty
284.5	0.0162	0.0012
287.5	0.0218	0.0016
290.4	0.0272	0.0019
293.3	0.0333	0.0024
293.4	0.0328	0.0023
296.3	0.0427	0.003
298.3	0.0493	0.0035
303.2	0.0706	0.005
306.3	0.0902	0.0064
308.2	0.0998	0.0071
311.2	0.1227	0.0087
314.2	0.1487	0.0105
317.3	0.1765	0.0125
320.3	0.2193	0.0156
323.2	0.2711	0.0192

System: heptylbenzene; phases: Liquid, Gas
Property: Vapor or sublimation pressure, kPa (Liquid); method: Transpiration method
Temperature, K	Vapor or sublimation pressure, kPa	uncertainty
292.5	0.00286	0.00021
294.5	0.00347	0.00025
297.5	0.00455	0.00033
300.4	0.00585	0.00042
303.4	0.00761	0.00054
306.4	0.00955	0.00068
309.4	0.01227	0.00087
312.4	0.01486	0.00106
315.4	0.01959	0.0014
318.2	0.02441	0.00174
321.3	0.03085	0.00219
323.4	0.03499	0.00249
326.4	0.04342	0.00308
328.4	0.04901	0.00349
331.3	0.06114	0.00434
333.5	0.06975	0.00494
336.4	0.0845	0.00599
338.5	0.09752	0.0069
341.3	0.1139	0.0081
343.5	0.1322	0.0094
346.3	0.1552	0.011
348.5	0.1818	0.0129
351.5	0.2197	0.0155
353.5	0.2474	0.0175

System: 1-phenyldecane; phases: Liquid, Gas
Property: Vapor or sublimation pressure, kPa (Liquid); method: Transpiration method
Temperature, K	Vapor or sublimation pressure, kPa	uncertainty
318.2	0.00122	9e-05
323.2	0.00192	0.00014
328.3	0.00293	0.00021
333.5	0.0045	0.00032
338.6	0.00655	0.00047
343.7	0.00966	0.00069
348.7	0.0144	0.001
353.3	0.0203	0.0014
358.4	0.0288	0.002
363.4	0.0406	0.0029

System: undecylbenzene; phases: Liquid, Gas
Property: Vapor or sublimation pressure, kPa (Liquid); method: Transpiration method
Temperature, K	Vapor or sublimation pressure, kPa	uncertainty
313.2	0.00027	2e-05
319.3	0.0005	4e-05
323.3	0.00072	5e-05
327.3	0.00104	7e-05
331.3	0.00146	0.0001
333.4	0.00176	0.00013
338.4	0.00262	0.00019
343.5	0.00413	0.0003
348.7	0.00598	0.00043
353.6	0.00906	0.00065
358.7	0.01272	0.0009
363.8	0.01807	0.00128
