Measured thermophysical data. Volumetric, viscometric, spectral studies and viscosity modelling of binary mixtures of esters and alcohols (diethyl succinate, or ethyl octanoate + isobutanol, or isopentanol) at varying temperatures
Source: J. Chem. Thermodyn., 2017, 10.1016/j.jct.2016.09.030
Compound 1: diethyl butanedioate, C8H14O4, InChI=1S/C8H14O4/c1-3-11-7(9)5-6-8(10)12-4-2/h3-6H2,1-2H3, purity 99%
Compound 2: ethyl octanoate, C10H20O2, InChI=1S/C10H20O2/c1-3-5-6-7-8-9-10(11)12-4-2/h3-9H2,1-2H3, purity 98%
Compound 3: 2-methyl-1-propanol, C4H10O, InChI=1S/C4H10O/c1-4(2)3-5/h4-5H,3H2,1-2H3, purity 99.7%
Compound 4: 3-methylbutan-1-ol, C5H12O, InChI=1S/C5H12O/c1-5(2)3-4-6/h5-6H,3-4H2,1-2H3, purity 99%

System: ethyl octanoate; phases: Liquid
Fixed: Pressure, kPa = 100
Property: Mass density, kg/m3 (Liquid); method: Vibrating tube method
Temperature, K	Mass density, kg/m3	uncertainty
288.15	870.88	1.72
293.15	866.58	1.72
298.15	862.28	1.72
303.15	857.98	1.72
308.15	853.68	1.71
313.15	849.37	1.71
318.15	845.06	1.71
323.15	840.74	1.71

System: ethyl octanoate; phases: Liquid
Fixed: Pressure, kPa = 100
Property: Viscosity, Pa*s (Liquid); method: Concentric cylinders viscometry
Temperature, K	Viscosity, Pa*s	uncertainty
288.15	0.0016863	2.22e-05
293.15	0.0015374	2.04e-05
298.15	0.0014104	1.88e-05
303.15	0.0012983	1.74e-05
308.15	0.0011999	1.62e-05
313.15	0.0011185	1.52e-05
318.15	0.0010354	1.42e-05
323.15	0.00097083	1.342e-05

System: ethyl octanoate; phases: Liquid
Fixed: Pressure, kPa = 100
Property: Refractive index (Na D-line) (Liquid); method: Standard Abbe refractometry
Temperature, K	Refractive index (Na D-line)	uncertainty
288.15	1.4199	0.0028
293.15	1.4177	0.0028
298.15	1.4155	0.0028
303.15	1.4132	0.0028
308.15	1.411	0.0028
313.15	1.4088	0.0028
318.15	1.4066	0.0028
323.15	1.4044	0.0028

System: 2-methyl-1-propanol + diethyl butanedioate; phases: Liquid
Fixed: Pressure, kPa = 100
Property: Mass density, kg/m3 (Liquid); method: Vibrating tube method
Temperature, K	Mole fraction of diethyl butanedioate	Mass density, kg/m3	uncertainty
288.15	0	805.88	1.6
288.15	0.0999	844.65	1.6
288.15	0.2	878.53	1.6
288.15	0.3001	908.28	1.6
288.15	0.4	934.67	1.6
288.15	0.4999	958.02	1.6
288.15	0.5999	978.97	1.61
288.15	0.6999	997.81	1.61
288.15	0.8	1014.88	1.61
288.15	0.9	1030.48	1.61
288.15	1	1044.83	1.62
293.15	0	802.03	1.6
293.15	0.0999	840.5	1.6
293.15	0.2	874.13	1.6
293.15	0.3001	903.71	1.6
293.15	0.4	929.94	1.6
293.15	0.4999	953.16	1.6
293.15	0.5999	974.02	1.61
293.15	0.6999	992.78	1.61
293.15	0.8	1009.79	1.61
293.15	0.9	1025.33	1.61
293.15	1	1039.63	1.62
298.15	0	798.16	1.6
298.15	0.0999	836.33	1.61
298.15	0.2	869.73	1.6
298.15	0.3001	899.12	1.6
298.15	0.4	925.2	1.6
298.15	0.4999	948.31	1.6
298.15	0.5999	969.07	1.61
298.15	0.6999	987.75	1.61
298.15	0.8	1004.7	1.61
298.15	0.9	1020.18	1.61
298.15	1	1034.44	1.62
303.15	0	794.25	1.6
303.15	0.0999	832.13	1.61
303.15	0.2	865.31	1.6
303.15	0.3001	894.51	1.6
303.15	0.4	920.45	1.6
303.15	0.4999	943.44	1.6
303.15	0.5999	964.11	1.61
303.15	0.6999	982.72	1.61
303.15	0.8	999.6	1.61
303.15	0.9	1015.04	1.61
303.15	1	1029.25	1.62
308.15	0	790.31	1.6
308.15	0.0999	827.9	1.61
308.15	0.2	860.85	1.6
308.15	0.3001	889.88	1.6
308.15	0.4	915.68	1.6
308.15	0.4999	938.56	1.6
308.15	0.5999	959.14	1.61
308.15	0.6999	977.68	1.61
308.15	0.8	994.51	1.61
308.15	0.9	1009.9	1.61
308.15	1	1024.08	1.62
313.15	0	786.31	1.6
313.15	0.0999	823.63	1.61
313.15	0.2	856.36	1.6
313.15	0.3001	885.22	1.6
313.15	0.4	910.89	1.6
313.15	0.4999	933.67	1.61
313.15	0.5999	954.16	1.61
313.15	0.6999	972.64	1.61
313.15	0.8	989.42	1.61
313.15	0.9	1004.76	1.61
313.15	1	1018.9	1.62
318.15	0	782.26	1.6
318.15	0.0999	819.31	1.61
318.15	0.2	851.84	1.6
318.15	0.3001	880.53	1.6
318.15	0.4	906.08	1.6
318.15	0.4999	928.76	1.61
318.15	0.5999	949.18	1.61
318.15	0.6999	967.59	1.61
318.15	0.8	984.32	1.61
318.15	0.9	999.62	1.61
318.15	1	1013.72	1.61
323.15	0	778.14	1.6
323.15	0.0999	814.95	1.61
323.15	0.2	847.28	1.6
323.15	0.3001	875.82	1.6
323.15	0.4	901.24	1.6
323.15	0.4999	923.83	1.61
323.15	0.5999	944.18	1.61
323.15	0.6999	962.54	1.61
323.15	0.8	979.22	1.61
323.15	0.9	994.48	1.61
323.15	1	1008.55	1.61

System: 2-methyl-1-propanol + diethyl butanedioate; phases: Liquid
Fixed: Pressure, kPa = 100
Property: Viscosity, Pa*s (Liquid); method: Concentric cylinders viscometry
Temperature, K	Mole fraction of diethyl butanedioate	Viscosity, Pa*s	uncertainty
288.15	0	0.0048293	3.87e-05
288.15	0.0999	0.0032841	2.73e-05
288.15	0.2	0.0027625	2.33e-05
288.15	0.3001	0.0025416	2.18e-05
288.15	0.4	0.0024732	2.15e-05
288.15	0.4999	0.0024772	2.19e-05
288.15	0.5999	0.0025457	2.28e-05
288.15	0.6999	0.0026251	2.38e-05
288.15	0.8	0.0027744	2.55e-05
288.15	0.9	0.0029618	2.76e-05
288.15	1	0.0031948	3.03e-05
293.15	0	0.0040516	3.28e-05
293.15	0.0999	0.0028159	2.35e-05
293.15	0.2	0.0024035	2.05e-05
293.15	0.3001	0.0022301	1.93e-05
293.15	0.4	0.0021772	1.92e-05
293.15	0.4999	0.0021861	1.95e-05
293.15	0.5999	0.0022494	2.03e-05
293.15	0.6999	0.0023203	2.12e-05
293.15	0.8	0.0024503	2.27e-05
293.15	0.9	0.0026111	2.45e-05
293.15	1	0.0028067	2.68e-05
298.15	0	0.0034307	2.8e-05
298.15	0.0999	0.0024432	2.06e-05
298.15	0.2	0.0021076	1.82e-05
298.15	0.3001	0.0019728	1.73e-05
298.15	0.4	0.0019315	1.72e-05
298.15	0.4999	0.0019472	1.76e-05
298.15	0.5999	0.0020044	1.83e-05
298.15	0.6999	0.0020732	1.92e-05
298.15	0.8	0.0021837	2.04e-05
298.15	0.9	0.002322	2.2e-05
298.15	1	0.0024914	2.39e-05
303.15	0	0.0029226	2.41e-05
303.15	0.0999	0.0021346	1.82e-05
303.15	0.2	0.0018656	1.63e-05
303.15	0.3001	0.001756	1.56e-05
303.15	0.4	0.0017301	1.56e-05
303.15	0.4999	0.0017469	1.59e-05
303.15	0.5999	0.0018022	1.66e-05
303.15	0.6999	0.0018639	1.74e-05
303.15	0.8	0.0019635	1.85e-05
303.15	0.9	0.0020843	1.99e-05
303.15	1	0.0022286	2.16e-05
308.15	0	0.0025053	2.09e-05
308.15	0.0999	0.0018748	1.62e-05
308.15	0.2	0.001659	1.47e-05
308.15	0.3001	0.0015737	1.42e-05
308.15	0.4	0.0015571	1.42e-05
308.15	0.4999	0.0015763	1.46e-05
308.15	0.5999	0.0016285	1.52e-05
308.15	0.6999	0.0016864	1.59e-05
308.15	0.8	0.0017752	1.69e-05
308.15	0.9	0.0018823	1.81e-05
308.15	1	0.0020081	1.96e-05
313.15	0	0.0021612	1.83e-05
313.15	0.0999	0.0016565	1.46e-05
313.15	0.2	0.0014837	1.34e-05
313.15	0.3001	0.0014177	1.3e-05
313.15	0.4	0.0014085	1.31e-05
313.15	0.4999	0.0014304	1.34e-05
313.15	0.5999	0.0014798	1.4e-05
313.15	0.6999	0.0015342	1.46e-05
313.15	0.8	0.0016143	1.56e-05
313.15	0.9	0.0017098	1.66e-05
313.15	1	0.0018208	1.79e-05
318.15	0	0.0018755	1.61e-05
318.15	0.0999	0.0014713	1.32e-05
318.15	0.2	0.0013338	1.22e-05
318.15	0.3001	0.0012833	1.2e-05
318.15	0.4	0.0012811	1.21e-05
318.15	0.4999	0.0013044	1.24e-05
318.15	0.5999	0.0013515	1.29e-05
318.15	0.6999	0.0014028	1.36e-05
318.15	0.8	0.0014758	1.44e-05
318.15	0.9	0.0015622	1.54e-05
318.15	1	0.0016597	1.65e-05
323.15	0	0.0016518	1.44e-05
323.15	0.0999	0.0013235	1.2e-05
323.15	0.2	0.0012179	1.13e-05
323.15	0.3001	0.0011749	1.11e-05
323.15	0.4	0.0011796	1.13e-05
323.15	0.4999	0.0012014	1.16e-05
323.15	0.5999	0.0012491	1.21e-05
323.15	0.6999	0.0012995	1.27e-05
323.15	0.8	0.001366	1.35e-05
323.15	0.9	0.0014379	1.43e-05
323.15	1	0.0015227	1.53e-05

System: 2-methyl-1-propanol + diethyl butanedioate; phases: Liquid
Fixed: Pressure, kPa = 100
Property: Refractive index (Na D-line) (Liquid); method: Standard Abbe refractometry
Temperature, K	Mole fraction of diethyl butanedioate	Refractive index (Na D-line)	uncertainty
288.15	0	1.3978	0.0028
288.15	0.0999	1.4016	0.0028
288.15	0.2	1.4047	0.0028
288.15	0.3001	1.4076	0.0028
288.15	0.4	1.4103	0.0028
288.15	0.4999	1.4127	0.0028
288.15	0.5999	1.4148	0.0028
288.15	0.6999	1.4168	0.0028
288.15	0.8	1.4186	0.0028
288.15	0.9	1.4203	0.0028
288.15	1	1.4217	0.0028
293.15	0	1.3958	0.0028
293.15	0.0999	1.3995	0.0028
293.15	0.2	1.4025	0.0028
293.15	0.3001	1.4055	0.0028
293.15	0.4	1.4081	0.0028
293.15	0.4999	1.4105	0.0028
293.15	0.5999	1.4127	0.0028
293.15	0.6999	1.4146	0.0028
293.15	0.8	1.4164	0.0028
293.15	0.9	1.4181	0.0028
293.15	1	1.4195	0.0028
298.15	0	1.3937	0.0028
298.15	0.0999	1.3974	0.0028
298.15	0.2	1.4004	0.0028
298.15	0.3001	1.4033	0.0028
298.15	0.4	1.4059	0.0028
298.15	0.4999	1.4083	0.0028
298.15	0.5999	1.4104	0.0028
298.15	0.6999	1.4124	0.0028
298.15	0.8	1.4142	0.0028
298.15	0.9	1.4159	0.0028
298.15	1	1.4173	0.0028
303.15	0	1.3916	0.0028
303.15	0.0999	1.3952	0.0028
303.15	0.2	1.3982	0.0028
303.15	0.3001	1.4011	0.0028
303.15	0.4	1.4037	0.0028
303.15	0.4999	1.4061	0.0028
303.15	0.5999	1.4082	0.0028
303.15	0.6999	1.4102	0.0028
303.15	0.8	1.412	0.0028
303.15	0.9	1.4137	0.0028
303.15	1	1.4151	0.0028
308.15	0	1.3895	0.0028
308.15	0.0999	1.3929	0.0028
308.15	0.2	1.396	0.0028
308.15	0.3001	1.3989	0.0028
308.15	0.4	1.4015	0.0028
308.15	0.4999	1.4038	0.0028
308.15	0.5999	1.406	0.0028
308.15	0.6999	1.408	0.0028
308.15	0.8	1.4098	0.0028
308.15	0.9	1.4115	0.0028
308.15	1	1.4129	0.0028
313.15	0	1.3874	0.0028
313.15	0.0999	1.3908	0.0028
313.15	0.2	1.3938	0.0028
313.15	0.3001	1.3966	0.0028
313.15	0.4	1.3992	0.0028
313.15	0.4999	1.4016	0.0028
313.15	0.5999	1.4037	0.0028
313.15	0.6999	1.4058	0.0028
313.15	0.8	1.4076	0.0028
313.15	0.9	1.4093	0.0028
313.15	1	1.4108	0.0028
318.15	0	1.3853	0.0028
318.15	0.0999	1.3886	0.0028
318.15	0.2	1.3916	0.0028
318.15	0.3001	1.3943	0.0028
318.15	0.4	1.397	0.0028
318.15	0.4999	1.3993	0.0028
318.15	0.5999	1.4015	0.0028
318.15	0.6999	1.4036	0.0028
318.15	0.8	1.4054	0.0028
318.15	0.9	1.4071	0.0028
318.15	1	1.4088	0.0028
323.15	0	1.383	0.0028
323.15	0.0999	1.3863	0.0028
323.15	0.2	1.3894	0.0028
323.15	0.3001	1.3921	0.0028
323.15	0.4	1.3947	0.0028
323.15	0.4999	1.3971	0.0028
323.15	0.5999	1.3993	0.0028
323.15	0.6999	1.4013	0.0028
323.15	0.8	1.4032	0.0028
323.15	0.9	1.405	0.0028
323.15	1	1.4067	0.0028

System: diethyl butanedioate + 3-methylbutan-1-ol; phases: Liquid
Fixed: Pressure, kPa = 100
Property: Mass density, kg/m3 (Liquid); method: Vibrating tube method
Temperature, K	Mole fraction of diethyl butanedioate	Mass density, kg/m3	uncertainty
288.15	0	812.29	1.61
288.15	0.1	845.17	1.62
288.15	0.2	875.25	1.61
288.15	0.3	902.72	1.61
288.15	0.3999	927.82	1.61
288.15	0.5	951.1	1.61
288.15	0.5999	972.64	1.61
288.15	0.7	992.67	1.61
288.15	0.7999	1011.24	1.62
288.15	0.9002	1028.55	1.62
288.15	1	1044.83	1.62
293.15	0	808.58	1.61
293.15	0.1	841.19	1.62
293.15	0.2	871.04	1.61
293.15	0.3	898.32	1.61
293.15	0.3999	923.26	1.61
293.15	0.5	946.4	1.61
293.15	0.5999	967.82	1.61
293.15	0.7	987.73	1.61
293.15	0.7999	1006.2	1.61
293.15	0.9002	1023.43	1.62
293.15	1	1039.63	1.62
298.15	0	804.84	1.61
298.15	0.1	837.19	1.62
298.15	0.2	866.82	1.61
298.15	0.3	893.91	1.61
298.15	0.3999	918.7	1.61
298.15	0.5	941.69	1.61
298.15	0.5999	962.98	1.61
298.15	0.7	982.79	1.61
298.15	0.7999	1001.17	1.61
298.15	0.9002	1018.32	1.62
298.15	1	1034.44	1.62
303.15	0	801.09	1.61
303.15	0.1	833.18	1.62
303.15	0.2	862.59	1.62
303.15	0.3	889.5	1.61
303.15	0.3999	914.12	1.61
303.15	0.5	936.98	1.61
303.15	0.5999	958.15	1.61
303.15	0.7	977.86	1.61
303.15	0.7999	996.14	1.61
303.15	0.9002	1013.2	1.62
303.15	1	1029.25	1.62
308.15	0	797.31	1.61
308.15	0.1	829.15	1.62
308.15	0.2	858.35	1.62
308.15	0.3	885.07	1.61
308.15	0.3999	909.54	1.61
308.15	0.5	932.26	1.61
308.15	0.5999	953.31	1.61
308.15	0.7	972.91	1.61
308.15	0.7999	991.1	1.61
308.15	0.9002	1008.09	1.61
308.15	1	1024.08	1.62
313.15	0	793.51	1.61
313.15	0.1	825.09	1.62
313.15	0.2	854.08	1.62
313.15	0.3	880.62	1.61
313.15	0.3999	904.94	1.61
313.15	0.5	927.52	1.61
313.15	0.5999	948.47	1.61
313.15	0.7	967.97	1.61
313.15	0.7999	986.08	1.61
313.15	0.9002	1002.99	1.61
313.15	1	1018.9	1.62
318.15	0	789.67	1.61
318.15	0.1	821.01	1.62
318.15	0.2	849.79	1.62
318.15	0.3	876.16	1.61
318.15	0.3999	900.33	1.61
318.15	0.5	922.78	1.61
318.15	0.5999	943.61	1.61
318.15	0.7	963.02	1.61
318.15	0.7999	981.04	1.61
318.15	0.9002	997.88	1.61
318.15	1	1013.72	1.61
323.15	0	785.79	1.61
323.15	0.1	816.9	1.62
323.15	0.2	845.48	1.62
323.15	0.3	871.68	1.61
323.15	0.3999	895.7	1.61
323.15	0.5	918.03	1.61
323.15	0.5999	938.75	1.61
323.15	0.7	958.06	1.61
323.15	0.7999	975.99	1.61
323.15	0.9002	992.76	1.61
323.15	1	1008.55	1.61

System: diethyl butanedioate + 3-methylbutan-1-ol; phases: Liquid
Fixed: Pressure, kPa = 100
Property: Viscosity, Pa*s (Liquid); method: Concentric cylinders viscometry
Temperature, K	Mole fraction of diethyl butanedioate	Viscosity, Pa*s	uncertainty
288.15	0	0.0050572	4.71e-05
288.15	0.1	0.0035824	3.39e-05
288.15	0.2	0.0030294	2.88e-05
288.15	0.3	0.0027603	2.64e-05
288.15	0.3999	0.0026245	2.51e-05
288.15	0.5	0.0025803	2.47e-05
288.15	0.5999	0.0026003	2.49e-05
288.15	0.7	0.0026668	2.55e-05
288.15	0.7999	0.002808	2.68e-05
288.15	0.9002	0.0029435	2.8e-05
288.15	1	0.0031948	3.03e-05
293.15	0	0.0042875	4.02e-05
293.15	0.1	0.0030969	2.94e-05
293.15	0.2	0.0026214	2.51e-05
293.15	0.3	0.0023964	2.31e-05
293.15	0.3999	0.0022832	2.21e-05
293.15	0.5	0.0022497	2.18e-05
293.15	0.5999	0.0022708	2.2e-05
293.15	0.7	0.0023317	2.25e-05
293.15	0.7999	0.0024546	2.36e-05
293.15	0.9002	0.0025726	2.47e-05
293.15	1	0.0028067	2.68e-05
298.15	0	0.0036709	3.46e-05
298.15	0.1	0.0027115	2.6e-05
298.15	0.2	0.0023213	2.24e-05
298.15	0.3	0.0021389	2.08e-05
298.15	0.3999	0.0020528	2e-05
298.15	0.5	0.0020252	1.98e-05
298.15	0.5999	0.0020478	2e-05
298.15	0.7	0.0021025	2.04e-05
298.15	0.7999	0.0022074	2.14e-05
298.15	0.9002	0.0023076	2.23e-05
298.15	1	0.0024914	2.39e-05
303.15	0	0.0031546	2.99e-05
303.15	0.1	0.0023775	2.29e-05
303.15	0.2	0.0020561	2e-05
303.15	0.3	0.0019053	1.87e-05
303.15	0.3999	0.0018344	1.81e-05
303.15	0.5	0.0018167	1.79e-05
303.15	0.5999	0.0018376	1.81e-05
303.15	0.7	0.0018885	1.85e-05
303.15	0.7999	0.0019809	1.94e-05
303.15	0.9002	0.0020693	2.01e-05
303.15	1	0.0022286	2.16e-05
308.15	0	0.0027296	2.61e-05
308.15	0.1	0.0020965	2.04e-05
308.15	0.2	0.001831	1.8e-05
308.15	0.3	0.0017068	1.69e-05
308.15	0.3999	0.00165	1.64e-05
308.15	0.5	0.0016384	1.63e-05
308.15	0.5999	0.0016606	1.65e-05
308.15	0.7	0.001707	1.69e-05
308.15	0.7999	0.0017888	1.76e-05
308.15	0.9002	0.0018678	1.83e-05
308.15	1	0.0020081	1.96e-05
313.15	0	0.0023748	2.29e-05
313.15	0.1	0.0018672	1.84e-05
313.15	0.2	0.001649	1.64e-05
313.15	0.3	0.0015468	1.55e-05
313.15	0.3999	0.0015017	1.51e-05
313.15	0.5	0.0014956	1.5e-05
313.15	0.5999	0.0015182	1.52e-05
313.15	0.7	0.0015619	1.56e-05
313.15	0.7999	0.0016353	1.63e-05
313.15	0.9002	0.0017058	1.69e-05
313.15	1	0.0018208	1.79e-05
318.15	0	0.0020759	2.02e-05
318.15	0.1	0.001656	1.65e-05
318.15	0.2	0.0014748	1.49e-05
318.15	0.3	0.001391	1.41e-05
318.15	0.3999	0.0013561	1.38e-05
318.15	0.5	0.0013541	1.38e-05
318.15	0.5999	0.001377	1.4e-05
318.15	0.7	0.0014187	1.44e-05
318.15	0.7999	0.0014846	1.49e-05
318.15	0.9002	0.0015486	1.55e-05
318.15	1	0.0016597	1.65e-05
323.15	0	0.0018407	1.81e-05
323.15	0.1	0.0014957	1.5e-05
323.15	0.2	0.0013456	1.37e-05
323.15	0.3	0.0012713	1.31e-05
323.15	0.3999	0.0012467	1.28e-05
323.15	0.5	0.0012431	1.28e-05
323.15	0.5999	0.0012699	1.31e-05
323.15	0.7	0.0013083	1.34e-05
323.15	0.7999	0.001369	1.39e-05
323.15	0.9002	0.0014284	1.44e-05
323.15	1	0.0015227	1.53e-05

System: diethyl butanedioate + 3-methylbutan-1-ol; phases: Liquid
Fixed: Pressure, kPa = 100
Property: Refractive index (Na D-line) (Liquid); method: Standard Abbe refractometry
Temperature, K	Mole fraction of diethyl butanedioate	Refractive index (Na D-line)	uncertainty
288.15	0	1.4087	0.0028
288.15	0.1	1.41	0.0028
288.15	0.2	1.4114	0.0028
288.15	0.3	1.4129	0.0028
288.15	0.3999	1.4144	0.0028
288.15	0.5	1.4158	0.0028
288.15	0.5999	1.4172	0.0028
288.15	0.7	1.4184	0.0028
288.15	0.7999	1.4197	0.0028
288.15	0.9002	1.4208	0.0028
288.15	1	1.4217	0.0028
293.15	0	1.4067	0.0028
293.15	0.1	1.4079	0.0028
293.15	0.2	1.4093	0.0028
293.15	0.3	1.4108	0.0028
293.15	0.3999	1.4123	0.0028
293.15	0.5	1.4136	0.0028
293.15	0.5999	1.415	0.0028
293.15	0.7	1.4163	0.0028
293.15	0.7999	1.4175	0.0028
293.15	0.9002	1.4186	0.0028
293.15	1	1.4195	0.0028
298.15	0	1.4047	0.0028
298.15	0.1	1.4058	0.0028
298.15	0.2	1.4072	0.0028
298.15	0.3	1.4087	0.0028
298.15	0.3999	1.4101	0.0028
298.15	0.5	1.4115	0.0028
298.15	0.5999	1.4128	0.0028
298.15	0.7	1.414	0.0028
298.15	0.7999	1.4153	0.0028
298.15	0.9002	1.4164	0.0028
298.15	1	1.4173	0.0028
303.15	0	1.4026	0.0028
303.15	0.1	1.4037	0.0028
303.15	0.2	1.4051	0.0028
303.15	0.3	1.4065	0.0028
303.15	0.3999	1.4079	0.0028
303.15	0.5	1.4093	0.0028
303.15	0.5999	1.4106	0.0028
303.15	0.7	1.4119	0.0028
303.15	0.7999	1.4131	0.0028
303.15	0.9002	1.4142	0.0028
303.15	1	1.4151	0.0028
308.15	0	1.4005	0.0028
308.15	0.1	1.4016	0.0028
308.15	0.2	1.4029	0.0028
308.15	0.3	1.4043	0.0028
308.15	0.3999	1.4057	0.0028
308.15	0.5	1.4071	0.0028
308.15	0.5999	1.4084	0.0028
308.15	0.7	1.4096	0.0028
308.15	0.7999	1.4108	0.0028
308.15	0.9002	1.412	0.0028
308.15	1	1.4129	0.0028
313.15	0	1.3985	0.0028
313.15	0.1	1.3996	0.0028
313.15	0.2	1.4008	0.0028
313.15	0.3	1.4022	0.0028
313.15	0.3999	1.4036	0.0028
313.15	0.5	1.4049	0.0028
313.15	0.5999	1.4062	0.0028
313.15	0.7	1.4075	0.0028
313.15	0.7999	1.4087	0.0028
313.15	0.9002	1.4098	0.0028
313.15	1	1.4108	0.0028
318.15	0	1.3964	0.0028
318.15	0.1	1.3975	0.0028
318.15	0.2	1.3988	0.0028
318.15	0.3	1.4001	0.0028
318.15	0.3999	1.4014	0.0028
318.15	0.5	1.4028	0.0028
318.15	0.5999	1.4041	0.0028
318.15	0.7	1.4054	0.0028
318.15	0.7999	1.4066	0.0028
318.15	0.9002	1.4077	0.0028
318.15	1	1.4088	0.0028
323.15	0	1.3943	0.0028
323.15	0.1	1.3954	0.0028
323.15	0.2	1.3966	0.0028
323.15	0.3	1.398	0.0028
323.15	0.3999	1.3993	0.0028
323.15	0.5	1.4006	0.0028
323.15	0.5999	1.4019	0.0028
323.15	0.7	1.4032	0.0028
323.15	0.7999	1.4045	0.0028
323.15	0.9002	1.4056	0.0028
323.15	1	1.4067	0.0028

System: 2-methyl-1-propanol + ethyl octanoate; phases: Liquid
Fixed: Pressure, kPa = 100
Property: Mass density, kg/m3 (Liquid); method: Vibrating tube method
Temperature, K	Mole fraction of ethyl octanoate	Mass density, kg/m3	uncertainty
288.15	0	805.88	1.6
288.15	0.1001	817.82	1.6
288.15	0.1999	827.81	1.61
288.15	0.3	836.01	1.61
288.15	0.4	843.08	1.61
288.15	0.5	849.18	1.62
288.15	0.5999	854.5	1.63
288.15	0.6999	859.21	1.64
288.15	0.7999	863.44	1.66
288.15	0.9	867.3	1.69
288.15	1	870.88	1.72
293.15	0	802.03	1.6
293.15	0.1001	813.83	1.6
293.15	0.1999	823.71	1.61
293.15	0.3	831.83	1.61
293.15	0.4	838.85	1.61
293.15	0.5	844.91	1.62
293.15	0.5999	850.21	1.63
293.15	0.6999	854.9	1.64
293.15	0.7999	859.12	1.66
293.15	0.9	862.98	1.69
293.15	1	866.58	1.72
298.15	0	798.16	1.6
298.15	0.1001	809.81	1.6
298.15	0.1999	819.58	1.61
298.15	0.3	827.63	1.61
298.15	0.4	834.6	1.61
298.15	0.5	840.63	1.62
298.15	0.5999	845.9	1.63
298.15	0.6999	850.58	1.64
298.15	0.7999	854.81	1.66
298.15	0.9	858.67	1.69
298.15	1	862.28	1.72
303.15	0	794.25	1.6
303.15	0.1001	805.76	1.6
303.15	0.1999	815.43	1.61
303.15	0.3	823.41	1.61
303.15	0.4	830.32	1.61
303.15	0.5	836.32	1.62
303.15	0.5999	841.57	1.63
303.15	0.6999	846.25	1.64
303.15	0.7999	850.48	1.66
303.15	0.9	854.35	1.69
303.15	1	857.98	1.72
308.15	0	790.31	1.6
308.15	0.1001	801.68	1.61
308.15	0.1999	811.24	1.61
308.15	0.3	819.16	1.61
308.15	0.4	826.03	1.61
308.15	0.5	832	1.62
308.15	0.5999	837.24	1.63
308.15	0.6999	841.91	1.64
308.15	0.7999	846.14	1.66
308.15	0.9	850.03	1.68
308.15	1	853.68	1.71
313.15	0	786.31	1.6
313.15	0.1001	797.55	1.61
313.15	0.1999	807.02	1.61
313.15	0.3	814.88	1.61
313.15	0.4	821.71	1.61
313.15	0.5	827.66	1.62
313.15	0.5999	832.89	1.63
313.15	0.6999	837.56	1.64
313.15	0.7999	841.8	1.66
313.15	0.9	845.7	1.68
313.15	1	849.37	1.71
318.15	0	782.26	1.6
318.15	0.1001	793.38	1.61
318.15	0.1999	802.76	1.61
318.15	0.3	810.56	1.61
318.15	0.4	817.36	1.61
318.15	0.5	823.29	1.62
318.15	0.5999	828.51	1.63
318.15	0.6999	833.19	1.64
318.15	0.7999	837.45	1.66
318.15	0.9	841.37	1.68
318.15	1	845.06	1.71
323.15	0	778.14	1.6
323.15	0.1001	789.15	1.61
323.15	0.1999	798.46	1.61
323.15	0.3	806.21	1.61
323.15	0.4	812.99	1.61
323.15	0.5	818.9	1.62
323.15	0.5999	824.13	1.63
323.15	0.6999	828.81	1.64
323.15	0.7999	833.08	1.66
323.15	0.9	837.02	1.68
323.15	1	840.74	1.71

System: 2-methyl-1-propanol + ethyl octanoate; phases: Liquid
Fixed: Pressure, kPa = 100
Property: Viscosity, Pa*s (Liquid); method: Concentric cylinders viscometry
Temperature, K	Mole fraction of ethyl octanoate	Viscosity, Pa*s	uncertainty
288.15	0	0.0048293	3.87e-05
288.15	0.1001	0.0032294	2.73e-05
288.15	0.1999	0.0025367	2.24e-05
288.15	0.3	0.0021688	2.01e-05
288.15	0.4	0.0019771	1.92e-05
288.15	0.5	0.0018512	1.89e-05
288.15	0.5999	0.0017658	1.9e-05
288.15	0.6999	0.001703	1.93e-05
288.15	0.7999	0.001677	2e-05
288.15	0.9	0.0016768	2.1e-05
288.15	1	0.0016863	2.22e-05
293.15	0	0.0040516	3.28e-05
293.15	0.1001	0.0027622	2.35e-05
293.15	0.1999	0.0022196	1.98e-05
293.15	0.3	0.0019215	1.8e-05
293.15	0.4	0.0017676	1.74e-05
293.15	0.5	0.0016614	1.72e-05
293.15	0.5999	0.0015932	1.73e-05
293.15	0.6999	0.0015432	1.77e-05
293.15	0.7999	0.0015229	1.83e-05
293.15	0.9	0.0015242	1.92e-05
293.15	1	0.0015374	2.04e-05
298.15	0	0.0034307	2.8e-05
298.15	0.1001	0.0024156	2.07e-05
298.15	0.1999	0.0019611	1.77e-05
298.15	0.3	0.0017161	1.62e-05
298.15	0.4	0.0015919	1.58e-05
298.15	0.5	0.0015031	1.57e-05
298.15	0.5999	0.0014472	1.59e-05
298.15	0.6999	0.0014072	1.62e-05
298.15	0.7999	0.0013926	1.69e-05
298.15	0.9	0.0013934	1.77e-05
298.15	1	0.0014104	1.88e-05
303.15	0	0.0029226	2.41e-05
303.15	0.1001	0.0021115	1.83e-05
303.15	0.1999	0.00174	1.59e-05
303.15	0.3	0.0015409	1.48e-05
303.15	0.4	0.0014397	1.45e-05
303.15	0.5	0.0013642	1.44e-05
303.15	0.5999	0.001321	1.47e-05
303.15	0.6999	0.0012894	1.5e-05
303.15	0.7999	0.0012777	1.56e-05
303.15	0.9	0.0012827	1.64e-05
303.15	1	0.0012983	1.74e-05
308.15	0	0.0025053	2.09e-05
308.15	0.1001	0.0018544	1.63e-05
308.15	0.1999	0.001554	1.44e-05
308.15	0.3	0.0013892	1.35e-05
308.15	0.4	0.0013066	1.33e-05
308.15	0.5	0.0012464	1.33e-05
308.15	0.5999	0.0012103	1.36e-05
308.15	0.6999	0.0011856	1.39e-05
308.15	0.7999	0.0011785	1.45e-05
308.15	0.9	0.0011843	1.53e-05
308.15	1	0.0011999	1.62e-05
313.15	0	0.0021612	1.83e-05
313.15	0.1001	0.0016424	1.47e-05
313.15	0.1999	0.0013988	1.31e-05
313.15	0.3	0.0012643	1.25e-05
313.15	0.4	0.0011961	1.24e-05
313.15	0.5	0.0011476	1.24e-05
313.15	0.5999	0.0011189	1.27e-05
313.15	0.6999	0.0010997	1.31e-05
313.15	0.7999	0.001096	1.36e-05
313.15	0.9	0.0011028	1.43e-05
313.15	1	0.0011185	1.52e-05
318.15	0	0.0018755	1.61e-05
318.15	0.1001	0.0014532	1.32e-05
318.15	0.1999	0.0012545	1.2e-05
318.15	0.3	0.0011443	1.15e-05
318.15	0.4	0.0010888	1.14e-05
318.15	0.5	0.0010499	1.15e-05
318.15	0.5999	0.0010274	1.18e-05
318.15	0.6999	0.0010129	1.22e-05
318.15	0.7999	0.0010117	1.27e-05
318.15	0.9	0.0010195	1.34e-05
318.15	1	0.0010354	1.42e-05
323.15	0	0.0016518	1.44e-05
323.15	0.1001	0.0013084	1.21e-05
323.15	0.1999	0.0011444	1.11e-05
323.15	0.3	0.0010524	1.07e-05
323.15	0.4	0.0010062	1.07e-05
323.15	0.5	0.00097501	1.085e-05
323.15	0.5999	0.00095561	1.111e-05
323.15	0.6999	0.00094634	1.15e-05
323.15	0.7999	0.00094617	1.201e-05
323.15	0.9	0.00095458	1.264e-05
323.15	1	0.00097083	1.342e-05

System: 2-methyl-1-propanol + ethyl octanoate; phases: Liquid
Fixed: Pressure, kPa = 100
Property: Refractive index (Na D-line) (Liquid); method: Standard Abbe refractometry
Temperature, K	Mole fraction of ethyl octanoate	Refractive index (Na D-line)	uncertainty
288.15	0	1.3978	0.0028
288.15	0.1001	1.4018	0.0028
288.15	0.1999	1.4052	0.0028
288.15	0.3	1.408	0.0028
288.15	0.4	1.4102	0.0028
288.15	0.5	1.4123	0.0028
288.15	0.5999	1.4142	0.0028
288.15	0.6999	1.4158	0.0028
288.15	0.7999	1.4173	0.0028
288.15	0.9	1.4186	0.0028
288.15	1	1.4199	0.0028
293.15	0	1.3958	0.0028
293.15	0.1001	1.3997	0.0028
293.15	0.1999	1.403	0.0028
293.15	0.3	1.4058	0.0028
293.15	0.4	1.408	0.0028
293.15	0.5	1.4101	0.0028
293.15	0.5999	1.412	0.0028
293.15	0.6999	1.4136	0.0028
293.15	0.7999	1.4151	0.0028
293.15	0.9	1.4164	0.0028
293.15	1	1.4177	0.0028
298.15	0	1.3937	0.0028
298.15	0.1001	1.3976	0.0028
298.15	0.1999	1.4009	0.0028
298.15	0.3	1.4036	0.0028
298.15	0.4	1.4058	0.0028
298.15	0.5	1.4079	0.0028
298.15	0.5999	1.4097	0.0028
298.15	0.6999	1.4114	0.0028
298.15	0.7999	1.4128	0.0028
298.15	0.9	1.4142	0.0028
298.15	1	1.4155	0.0028
303.15	0	1.3916	0.0028
303.15	0.1001	1.3955	0.0028
303.15	0.1999	1.3987	0.0028
303.15	0.3	1.4014	0.0028
303.15	0.4	1.4036	0.0028
303.15	0.5	1.4056	0.0028
303.15	0.5999	1.4075	0.0028
303.15	0.6999	1.4091	0.0028
303.15	0.7999	1.4106	0.0028
303.15	0.9	1.4119	0.0028
303.15	1	1.4132	0.0028
308.15	0	1.3895	0.0028
308.15	0.1001	1.3933	0.0028
308.15	0.1999	1.3965	0.0028
308.15	0.3	1.3992	0.0028
308.15	0.4	1.4014	0.0028
308.15	0.5	1.4034	0.0028
308.15	0.5999	1.4052	0.0028
308.15	0.6999	1.4069	0.0028
308.15	0.7999	1.4084	0.0028
308.15	0.9	1.4097	0.0028
308.15	1	1.411	0.0028
313.15	0	1.3874	0.0028
313.15	0.1001	1.3911	0.0028
313.15	0.1999	1.3942	0.0028
313.15	0.3	1.3969	0.0028
313.15	0.4	1.3991	0.0028
313.15	0.5	1.4012	0.0028
313.15	0.5999	1.403	0.0028
313.15	0.6999	1.4046	0.0028
313.15	0.7999	1.4061	0.0028
313.15	0.9	1.4075	0.0028
313.15	1	1.4088	0.0028
318.15	0	1.3853	0.0028
318.15	0.1001	1.3889	0.0028
318.15	0.1999	1.392	0.0028
318.15	0.3	1.3947	0.0028
318.15	0.4	1.3968	0.0028
318.15	0.5	1.3989	0.0028
318.15	0.5999	1.4007	0.0028
318.15	0.6999	1.4024	0.0028
318.15	0.7999	1.4039	0.0028
318.15	0.9	1.4052	0.0028
318.15	1	1.4066	0.0028
323.15	0	1.383	0.0028
323.15	0.1001	1.3867	0.0028
323.15	0.1999	1.3898	0.0028
323.15	0.3	1.3925	0.0028
323.15	0.4	1.3946	0.0028
323.15	0.5	1.3967	0.0028
323.15	0.5999	1.3985	0.0028
323.15	0.6999	1.4001	0.0028
323.15	0.7999	1.4017	0.0028
323.15	0.9	1.403	0.0028
323.15	1	1.4044	0.0028

System: ethyl octanoate + 3-methylbutan-1-ol; phases: Liquid
Fixed: Pressure, kPa = 100
Property: Mass density, kg/m3 (Liquid); method: Vibrating tube method
Temperature, K	Mole fraction of ethyl octanoate	Mass density, kg/m3	uncertainty
288.15	0	812.29	1.61
288.15	0.1	822.09	1.62
288.15	0.2001	830.4	1.62
288.15	0.3	837.58	1.63
288.15	0.4	843.9	1.64
288.15	0.5001	849.54	1.64
288.15	0.5999	854.63	1.65
288.15	0.7003	859.29	1.67
288.15	0.7998	863.5	1.68
288.15	0.9001	867.37	1.7
288.15	1	870.88	1.72
293.15	0	808.58	1.61
293.15	0.1	818.23	1.62
293.15	0.2001	826.44	1.62
293.15	0.3	833.53	1.63
293.15	0.4	839.78	1.64
293.15	0.5001	845.38	1.64
293.15	0.5999	850.42	1.65
293.15	0.7003	855.04	1.67
293.15	0.7998	859.23	1.68
293.15	0.9001	863.07	1.7
293.15	1	866.58	1.72
298.15	0	804.84	1.61
298.15	0.1	814.36	1.62
298.15	0.2001	822.46	1.62
298.15	0.3	829.47	1.63
298.15	0.4	835.66	1.64
298.15	0.5001	841.2	1.64
298.15	0.5999	846.2	1.65
298.15	0.7003	850.78	1.67
298.15	0.7998	854.94	1.68
298.15	0.9001	858.77	1.7
298.15	1	862.28	1.72
303.15	0	801.09	1.61
303.15	0.1	810.47	1.62
303.15	0.2001	818.46	1.62
303.15	0.3	825.39	1.63
303.15	0.4	831.52	1.63
303.15	0.5001	837.01	1.64
303.15	0.5999	841.96	1.65
303.15	0.7003	846.52	1.67
303.15	0.7998	850.66	1.68
303.15	0.9001	854.47	1.7
303.15	1	857.98	1.72
308.15	0	797.31	1.61
308.15	0.1	806.56	1.62
308.15	0.2001	814.45	1.62
308.15	0.3	821.3	1.63
308.15	0.4	827.36	1.63
308.15	0.5001	832.81	1.64
308.15	0.5999	837.72	1.65
308.15	0.7003	842.25	1.66
308.15	0.7998	846.36	1.68
308.15	0.9001	850.16	1.7
308.15	1	853.68	1.71
313.15	0	793.51	1.61
313.15	0.1	802.62	1.62
313.15	0.2001	810.42	1.62
313.15	0.3	817.19	1.63
313.15	0.4	823.19	1.63
313.15	0.5001	828.58	1.64
313.15	0.5999	833.46	1.65
313.15	0.7003	837.96	1.66
313.15	0.7998	842.05	1.68
313.15	0.9001	845.85	1.69
313.15	1	849.37	1.71
318.15	0	789.67	1.61
318.15	0.1	798.65	1.62
318.15	0.2001	806.35	1.62
318.15	0.3	813.06	1.63
318.15	0.4	819	1.63
318.15	0.5001	824.35	1.64
318.15	0.5999	829.19	1.65
318.15	0.7003	833.67	1.66
318.15	0.7998	837.74	1.68
318.15	0.9001	841.53	1.69
318.15	1	845.06	1.71
323.15	0	785.79	1.61
323.15	0.1	794.65	1.62
323.15	0.2001	802.26	1.62
323.15	0.3	808.9	1.63
323.15	0.4	814.79	1.63
323.15	0.5001	820.1	1.64
323.15	0.5999	824.91	1.65
323.15	0.7003	829.36	1.66
323.15	0.7998	833.43	1.68
323.15	0.9001	837.21	1.69
323.15	1	840.74	1.71

System: ethyl octanoate + 3-methylbutan-1-ol; phases: Liquid
Fixed: Pressure, kPa = 100
Property: Viscosity, Pa*s (Liquid); method: Concentric cylinders viscometry
Temperature, K	Mole fraction of ethyl octanoate	Viscosity, Pa*s	uncertainty
288.15	0	0.0050572	4.71e-05
288.15	0.1	0.0035589	3.47e-05
288.15	0.2001	0.0028064	2.84e-05
288.15	0.3	0.0023818	2.5e-05
288.15	0.4	0.0021172	2.3e-05
288.15	0.5001	0.0019506	2.2e-05
288.15	0.5999	0.0018559	2.16e-05
288.15	0.7003	0.001759	2.12e-05
288.15	0.7998	0.0017161	2.13e-05
288.15	0.9001	0.0016868	2.16e-05
288.15	1	0.0016863	2.22e-05
293.15	0	0.0042875	4.02e-05
293.15	0.1	0.0030598	3e-05
293.15	0.2001	0.0024389	2.48e-05
293.15	0.3	0.0021102	2.23e-05
293.15	0.4	0.001891	2.07e-05
293.15	0.5001	0.0017524	1.99e-05
293.15	0.5999	0.0016731	1.96e-05
293.15	0.7003	0.0015925	1.93e-05
293.15	0.7998	0.0015572	1.95e-05
293.15	0.9001	0.001534	1.97e-05
293.15	1	0.0015374	2.04e-05
298.15	0	0.0036709	3.46e-05
298.15	0.1	0.0026842	2.64e-05
298.15	0.2001	0.0021772	2.23e-05
298.15	0.3	0.0018855	2.01e-05
298.15	0.4	0.0017019	1.88e-05
298.15	0.5001	0.0015855	1.81e-05
298.15	0.5999	0.0015184	1.79e-05
298.15	0.7003	0.0014513	1.77e-05
298.15	0.7998	0.0014221	1.79e-05
298.15	0.9001	0.0014043	1.82e-05
298.15	1	0.0014104	1.88e-05
303.15	0	0.0031546	2.99e-05
303.15	0.1	0.002351	2.33e-05
303.15	0.2001	0.0019363	2e-05
303.15	0.3	0.0016933	1.82e-05
303.15	0.4	0.0015374	1.72e-05
303.15	0.5001	0.0014402	1.66e-05
303.15	0.5999	0.0013845	1.65e-05
303.15	0.7003	0.001327	1.63e-05
303.15	0.7998	0.0013047	1.65e-05
303.15	0.9001	0.0012925	1.69e-05
303.15	1	0.0012983	1.74e-05
308.15	0	0.0027296	2.61e-05
308.15	0.1	0.002077	2.08e-05
308.15	0.2001	0.0017303	1.81e-05
308.15	0.3	0.0015273	1.66e-05
308.15	0.4	0.0013977	1.57e-05
308.15	0.5001	0.0013152	1.53e-05
308.15	0.5999	0.0012674	1.52e-05
308.15	0.7003	0.001221	1.52e-05
308.15	0.7998	0.0012018	1.54e-05
308.15	0.9001	0.0011946	1.57e-05
308.15	1	0.0011999	1.62e-05
313.15	0	0.0023748	2.29e-05
313.15	0.1	0.0018448	1.86e-05
313.15	0.2001	0.0015593	1.64e-05
313.15	0.3	0.0013894	1.52e-05
313.15	0.4	0.0012807	1.46e-05
313.15	0.5001	0.001211	1.42e-05
313.15	0.5999	0.0011704	1.42e-05
313.15	0.7003	0.0011318	1.42e-05
313.15	0.7998	0.0011163	1.44e-05
313.15	0.9001	0.0011124	1.47e-05
313.15	1	0.0011185	1.52e-05
318.15	0	0.0020759	2.02e-05
318.15	0.1	0.0016395	1.68e-05
318.15	0.2001	0.0014013	1.5e-05
318.15	0.3	0.0012584	1.4e-05
318.15	0.4	0.0011667	1.34e-05
318.15	0.5001	0.0011078	1.32e-05
318.15	0.5999	0.0010738	1.32e-05
318.15	0.7003	0.0010422	1.32e-05
318.15	0.7998	0.0010297	1.34e-05
318.15	0.9001	0.0010284	1.37e-05
318.15	1	0.0010354	1.42e-05
323.15	0	0.0018407	1.81e-05
323.15	0.1	0.0014804	1.53e-05
323.15	0.2001	0.0012807	1.38e-05
323.15	0.3	0.0011573	1.3e-05
323.15	0.4	0.001078	1.25e-05
323.15	0.5001	0.001028	1.24e-05
323.15	0.5999	0.00099856	1.238e-05
323.15	0.7003	0.00097177	1.241e-05
323.15	0.7998	0.00096281	1.264e-05
323.15	0.9001	0.00096529	1.3e-05
323.15	1	0.00097083	1.342e-05

System: ethyl octanoate + 3-methylbutan-1-ol; phases: Liquid
Fixed: Pressure, kPa = 100
Property: Refractive index (Na D-line) (Liquid); method: Standard Abbe refractometry
Temperature, K	Mole fraction of ethyl octanoate	Refractive index (Na D-line)	uncertainty
288.15	0	1.4087	0.0028
288.15	0.1	1.4104	0.0028
288.15	0.2001	1.412	0.0028
288.15	0.3	1.4134	0.0028
288.15	0.4	1.4146	0.0028
288.15	0.5001	1.4156	0.0028
288.15	0.5999	1.4166	0.0028
288.15	0.7003	1.4175	0.0028
288.15	0.7998	1.4183	0.0028
288.15	0.9001	1.4191	0.0028
288.15	1	1.4199	0.0028
293.15	0	1.4067	0.0028
293.15	0.1	1.4083	0.0028
293.15	0.2001	1.4099	0.0028
293.15	0.3	1.4112	0.0028
293.15	0.4	1.4124	0.0028
293.15	0.5001	1.4135	0.0028
293.15	0.5999	1.4144	0.0028
293.15	0.7003	1.4153	0.0028
293.15	0.7998	1.4161	0.0028
293.15	0.9001	1.4169	0.0028
293.15	1	1.4177	0.0028
298.15	0	1.4047	0.0028
298.15	0.1	1.4063	0.0028
298.15	0.2001	1.4078	0.0028
298.15	0.3	1.4091	0.0028
298.15	0.4	1.4102	0.0028
298.15	0.5001	1.4113	0.0028
298.15	0.5999	1.4122	0.0028
298.15	0.7003	1.4131	0.0028
298.15	0.7998	1.4139	0.0028
298.15	0.9001	1.4147	0.0028
298.15	1	1.4155	0.0028
303.15	0	1.4026	0.0028
303.15	0.1	1.4042	0.0028
303.15	0.2001	1.4056	0.0028
303.15	0.3	1.4069	0.0028
303.15	0.4	1.4081	0.0028
303.15	0.5001	1.4091	0.0028
303.15	0.5999	1.41	0.0028
303.15	0.7003	1.4109	0.0028
303.15	0.7998	1.4116	0.0028
303.15	0.9001	1.4125	0.0028
303.15	1	1.4132	0.0028
308.15	0	1.4005	0.0028
308.15	0.1	1.4021	0.0028
308.15	0.2001	1.4035	0.0028
308.15	0.3	1.4047	0.0028
308.15	0.4	1.4059	0.0028
308.15	0.5001	1.4069	0.0028
308.15	0.5999	1.4078	0.0028
308.15	0.7003	1.4087	0.0028
308.15	0.7998	1.4094	0.0028
308.15	0.9001	1.4102	0.0028
308.15	1	1.411	0.0028
313.15	0	1.3985	0.0028
313.15	0.1	1.3999	0.0028
313.15	0.2001	1.4013	0.0028
313.15	0.3	1.4026	0.0028
313.15	0.4	1.4037	0.0028
313.15	0.5001	1.4047	0.0028
313.15	0.5999	1.4056	0.0028
313.15	0.7003	1.4064	0.0028
313.15	0.7998	1.4072	0.0028
313.15	0.9001	1.408	0.0028
313.15	1	1.4088	0.0028
318.15	0	1.3964	0.0028
318.15	0.1	1.3978	0.0028
318.15	0.2001	1.3992	0.0028
318.15	0.3	1.4004	0.0028
318.15	0.4	1.4015	0.0028
318.15	0.5001	1.4024	0.0028
318.15	0.5999	1.4034	0.0028
318.15	0.7003	1.4042	0.0028
318.15	0.7998	1.405	0.0028
318.15	0.9001	1.4058	0.0028
318.15	1	1.4066	0.0028
323.15	0	1.3943	0.0028
323.15	0.1	1.3957	0.0028
323.15	0.2001	1.397	0.0028
323.15	0.3	1.3982	0.0028
323.15	0.4	1.3993	0.0028
323.15	0.5001	1.4003	0.0028
323.15	0.5999	1.4012	0.0028
323.15	0.7003	1.402	0.0028
323.15	0.7998	1.4027	0.0028
323.15	0.9001	1.4036	0.0028
323.15	1	1.4044	0.0028
