Measured thermophysical data. Excess molar volumes of binary mixtures of 1,3-dimethylimidazolidin-2-one with an alkan-1-ol at the temperatures 283.15 K, 298.15 K, and 313.15 K
Source: J. Chem. Thermodyn., 2007, 10.1016/j.jct.2006.09.017
Compound 1: 1,3-dimethyl-2-imidazolidinone, C5H10N2O, InChI=1S/C5H10N2O/c1-6-3-4-7(2)5(6)8/h3-4H2,1-2H3
Compound 2: methanol, CH4O, InChI=1S/CH4O/c1-2/h2H,1H3
Compound 3: ethanol, C2H6O, InChI=1S/C2H6O/c1-2-3/h3H,2H2,1H3
Compound 4: propan-1-ol, C3H8O, InChI=1S/C3H8O/c1-2-3-4/h4H,2-3H2,1H3
Compound 5: butan-1-ol, C4H10O, InChI=1S/C4H10O/c1-2-3-4-5/h5H,2-4H2,1H3
Compound 6: pentan-1-ol, C5H12O, InChI=1S/C5H12O/c1-2-3-4-5-6/h6H,2-5H2,1H3
Compound 7: hexan-1-ol, C6H14O, InChI=1S/C6H14O/c1-2-3-4-5-6-7/h7H,2-6H2,1H3
Compound 8: heptan-1-ol, C7H16O, InChI=1S/C7H16O/c1-2-3-4-5-6-7-8/h8H,2-7H2,1H3
Compound 9: octan-1-ol, C8H18O, InChI=1S/C8H18O/c1-2-3-4-5-6-7-8-9/h9H,2-8H2,1H3

System: 1,3-dimethyl-2-imidazolidinone; phases: Liquid
Fixed: Pressure, kPa = 101.325
Property: Mass density, kg/m3 (Liquid); method: VIBTUB:UFactor:2
Temperature, K	Mass density, kg/m3	uncertainty
283.15	1064.86	0.12
298.15	1051.59	0.11
313.15	1038.38	0.1

System: methanol; phases: Liquid
Fixed: Pressure, kPa = 101.325
Property: Mass density, kg/m3 (Liquid); method: VIBTUB:UFactor:2
Temperature, K	Mass density, kg/m3	uncertainty
283.15	800.62	0.22
298.15	786.56	0.23
313.15	772.32	0.25

System: ethanol; phases: Liquid
Fixed: Pressure, kPa = 101.325
Property: Mass density, kg/m3 (Liquid); method: VIBTUB:UFactor:2
Temperature, K	Mass density, kg/m3	uncertainty
283.15	797.88	0.22
298.15	785.13	0.24
313.15	772.05	0.25

System: propan-1-ol; phases: Liquid
Fixed: Pressure, kPa = 101.325
Property: Mass density, kg/m3 (Liquid); method: VIBTUB:UFactor:2
Temperature, K	Mass density, kg/m3	uncertainty
283.15	811.54	0.21
298.15	799.59	0.22
313.15	787.36	0.23

System: butan-1-ol; phases: Liquid
Fixed: Pressure, kPa = 101.325
Property: Mass density, kg/m3 (Liquid); method: VIBTUB:UFactor:2
Temperature, K	Mass density, kg/m3	uncertainty
283.15	817.18	0.22
298.15	805.79	0.23
313.15	794.18	0.24

System: pentan-1-ol; phases: Liquid
Fixed: Pressure, kPa = 101.325
Property: Mass density, kg/m3 (Liquid); method: VIBTUB:UFactor:2
Temperature, K	Mass density, kg/m3	uncertainty
283.15	821.81	0.23
298.15	810.88	0.23
313.15	799.71	0.24

System: hexan-1-ol; phases: Liquid
Fixed: Pressure, kPa = 101.325
Property: Mass density, kg/m3 (Liquid); method: VIBTUB:UFactor:4
Temperature, K	Mass density, kg/m3	uncertainty
283.15	826.03	0.43
298.15	815.34	0.45
313.15	804.46	0.47

System: heptan-1-ol; phases: Liquid
Fixed: Pressure, kPa = 101.325
Property: Mass density, kg/m3 (Liquid); method: VIBTUB:UFactor:4
Temperature, K	Mass density, kg/m3	uncertainty
283.15	829.27	0.43
298.15	818.78	0.45
313.15	808.11	0.46

System: octan-1-ol; phases: Liquid
Fixed: Pressure, kPa = 101.325
Property: Mass density, kg/m3 (Liquid); method: VIBTUB:UFactor:4
Temperature, K	Mass density, kg/m3	uncertainty
283.15	832.06	0.43
298.15	821.72	0.44
313.15	811.21	0.46

System: methanol + 1,3-dimethyl-2-imidazolidinone; phases: Liquid
Fixed: Pressure, kPa = 101
Property: Mass density, kg/m3 (Liquid); method: VIBTUB:UFactor:4
Temperature, K	Mole fraction of 1,3-dimethyl-2-imidazolidinone	Mass density, kg/m3	uncertainty
283.15	0.09987	866.6	0.34
283.15	0.19988	914.65	0.27
283.15	0.29987	950.88	0.22
283.15	0.40001	978.91	0.19
283.15	0.49847	1000.83	0.16
283.15	0.60025	1019.06	0.17
283.15	0.70011	1033.62	0.18
283.15	0.80023	1045.88	0.2
283.15	0.90027	1056.16	0.22
298.15	0.09987	852.53	0.36
298.15	0.19988	900.56	0.29
298.15	0.29987	936.99	0.24
298.15	0.40001	965.04	0.21
298.15	0.49847	987.09	0.18
298.15	0.60025	1005.48	0.15
298.15	0.70011	1020.04	0.16
298.15	0.80023	1032.47	0.18
298.15	0.90027	1042.89	0.19
313.15	0.09987	838.25	0.38
313.15	0.19988	886.37	0.32
313.15	0.29987	922.85	0.27
313.15	0.40001	951.05	0.23
313.15	0.49847	973.2	0.2
313.15	0.60025	991.72	0.16
313.15	0.70011	1006.43	0.14
313.15	0.80023	1019.04	0.16
313.15	0.90027	1029.49	0.17

System: ethanol + 1,3-dimethyl-2-imidazolidinone; phases: Liquid
Fixed: Pressure, kPa = 101
Property: Mass density, kg/m3 (Liquid); method: VIBTUB:UFactor:4
Temperature, K	Mole fraction of 1,3-dimethyl-2-imidazolidinone	Mass density, kg/m3	uncertainty
283.15	0.09998	846.13	0.37
283.15	0.20003	886.41	0.31
283.15	0.30007	920.6	0.27
283.15	0.39989	949.96	0.23
283.15	0.49963	975.63	0.2
283.15	0.60017	998.13	0.15
283.15	0.69994	1017.79	0.16
283.15	0.80002	1035.31	0.19
283.15	0.89942	1050.79	0.21
298.15	0.09998	833.1	0.39
298.15	0.20003	873.26	0.33
298.15	0.30007	907.41	0.29
298.15	0.39989	936.72	0.25
298.15	0.49963	962.36	0.22
298.15	0.60017	984.83	0.17
298.15	0.69994	1004.56	0.15
298.15	0.80002	1022.19	0.17
298.15	0.89942	1037.59	0.19
313.15	0.09998	819.85	0.41
313.15	0.20003	859.85	0.35
313.15	0.30007	893.96	0.31
313.15	0.39989	923.29	0.27
313.15	0.49963	948.92	0.24
313.15	0.60017	971.48	0.19
313.15	0.69994	991.29	0.15
313.15	0.80002	1008.94	0.15
313.15	0.89942	1024.41	0.17

System: propan-1-ol + 1,3-dimethyl-2-imidazolidinone; phases: Liquid
Fixed: Pressure, kPa = 101
Property: Mass density, kg/m3 (Liquid); method: VIBTUB:UFactor:4
Temperature, K	Mole fraction of 1,3-dimethyl-2-imidazolidinone	Mass density, kg/m3	uncertainty
283.15	0.09998	847.83	0.37
283.15	0.20002	880.77	0.32
283.15	0.29994	910.83	0.28
283.15	0.40013	938.4	0.25
283.15	0.49984	963.7	0.22
283.15	0.60007	987.2	0.17
283.15	0.7	1008.86	0.15
283.15	0.79988	1028.91	0.18
283.15	0.89996	1047.62	0.2
298.15	0.09998	835.55	0.38
298.15	0.20002	868.25	0.34
298.15	0.29994	898.06	0.3
298.15	0.40013	925.54	0.26
298.15	0.49984	950.74	0.24
298.15	0.60007	974.16	0.19
298.15	0.7	995.74	0.15
298.15	0.79988	1015.73	0.16
298.15	0.89996	1034.43	0.18
313.15	0.09998	823.05	0.4
313.15	0.20002	855.56	0.36
313.15	0.29994	885.22	0.32
313.15	0.40013	912.63	0.28
313.15	0.49984	937.7	0.25
313.15	0.60007	961.08	0.21
313.15	0.7	982.62	0.17
313.15	0.79988	1002.67	0.14
313.15	0.89996	1021.31	0.16

System: butan-1-ol + 1,3-dimethyl-2-imidazolidinone; phases: Liquid
Fixed: Pressure, kPa = 101
Property: Mass density, kg/m3 (Liquid); method: VIBTUB:UFactor:4
Temperature, K	Mole fraction of 1,3-dimethyl-2-imidazolidinone	Mass density, kg/m3	uncertainty
283.15	0.09992	846.49	0.38
283.15	0.20003	874.68	0.34
283.15	0.30002	901.72	0.3
283.15	0.40016	927.79	0.27
283.15	0.49999	952.85	0.24
283.15	0.60001	976.95	0.19
283.15	0.70017	1000.25	0.15
283.15	0.79992	1022.61	0.17
283.15	0.90013	1044.18	0.2
298.15	0.09992	834.78	0.39
298.15	0.20003	862.67	0.35
298.15	0.30002	889.49	0.32
298.15	0.40016	915.33	0.28
298.15	0.49999	940.22	0.26
298.15	0.60001	964.19	0.21
298.15	0.70017	987.34	0.16
298.15	0.79992	1009.57	0.15
298.15	0.90013	1031.03	0.18
313.15	0.09992	822.87	0.41
313.15	0.20003	850.54	0.37
313.15	0.30002	877.11	0.33
313.15	0.40016	902.78	0.3
313.15	0.49999	927.48	0.27
313.15	0.60001	951.32	0.23
313.15	0.70017	974.35	0.18
313.15	0.79992	996.45	0.14
313.15	0.90013	1017.84	0.16

System: pentan-1-ol + 1,3-dimethyl-2-imidazolidinone; phases: Liquid
Fixed: Pressure, kPa = 101
Property: Mass density, kg/m3 (Liquid); method: VIBTUB:UFactor:4
Temperature, K	Mole fraction of 1,3-dimethyl-2-imidazolidinone	Mass density, kg/m3	uncertainty
283.15	0.10001	846.41	0.38
283.15	0.19999	870.95	0.35
283.15	0.30001	895.43	0.31
283.15	0.40006	919.88	0.28
283.15	0.50007	944.23	0.25
283.15	0.60006	968.5	0.21
283.15	0.69998	992.7	0.16
283.15	0.80017	1016.92	0.16
283.15	0.89995	1040.93	0.19
298.15	0.10001	835.16	0.4
298.15	0.19999	859.39	0.36
298.15	0.30001	883.62	0.33
298.15	0.40006	907.84	0.3
298.15	0.50007	931.97	0.27
298.15	0.60006	956.02	0.22
298.15	0.69998	980.01	0.18
298.15	0.80017	1004.03	0.14
298.15	0.89995	1027.87	0.17
313.15	0.10001	823.75	0.42
313.15	0.19999	847.72	0.38
313.15	0.30001	871.72	0.35
313.15	0.40006	895.74	0.31
313.15	0.50007	919.68	0.29
313.15	0.60006	943.56	0.24
313.15	0.69998	967.36	0.2
313.15	0.80017	991.25	0.15
313.15	0.89995	1014.87	0.15

System: 1,3-dimethyl-2-imidazolidinone + hexan-1-ol; phases: Liquid
Fixed: Pressure, kPa = 101
Property: Mass density, kg/m3 (Liquid); method: VIBTUB:UFactor:4
Temperature, K	Mole fraction of 1,3-dimethyl-2-imidazolidinone	Mass density, kg/m3	uncertainty
283.15	0.10001	847.11	0.39
283.15	0.20003	868.74	0.36
283.15	0.30001	890.96	0.32
283.15	0.40006	913.77	0.29
283.15	0.50005	937.21	0.27
283.15	0.60011	961.32	0.22
283.15	0.70019	986.12	0.17
283.15	0.79983	1011.48	0.16
283.15	0.90009	1037.74	0.19
298.15	0.10001	836.15	0.41
298.15	0.20003	857.49	0.38
298.15	0.30001	879.43	0.34
298.15	0.40006	901.99	0.31
298.15	0.50005	925.23	0.28
298.15	0.60011	949.12	0.24
298.15	0.70019	973.62	0.19
298.15	0.79983	998.72	0.14
298.15	0.90009	1024.71	0.17
313.15	0.10001	825.02	0.43
313.15	0.20003	846.12	0.39
313.15	0.30001	867.81	0.36
313.15	0.40006	890.13	0.33
313.15	0.50005	913.07	0.3
313.15	0.60011	936.71	0.25
313.15	0.70019	961.04	0.21
313.15	0.79983	985.96	0.16
313.15	0.90009	1011.88	0.15

System: 1,3-dimethyl-2-imidazolidinone + heptan-1-ol; phases: Liquid
Fixed: Pressure, kPa = 101
Property: Mass density, kg/m3 (Liquid); method: VIBTUB:UFactor:4
Temperature, K	Mole fraction of 1,3-dimethyl-2-imidazolidinone	Mass density, kg/m3	uncertainty
283.15	0.09996	847.64	0.39
283.15	0.19988	866.92	0.36
283.15	0.30006	887.24	0.33
283.15	0.40001	908.58	0.3
283.15	0.49998	931.08	0.27
283.15	0.60015	954.87	0.23
283.15	0.70004	979.95	0.18
283.15	0.80009	1006.61	0.15
283.15	0.89916	1034.61	0.19
298.15	0.09996	836.89	0.41
298.15	0.19988	855.89	0.38
298.15	0.30006	875.96	0.35
298.15	0.40001	897.05	0.32
298.15	0.49998	919.28	0.29
298.15	0.60015	942.82	0.25
298.15	0.70004	967.68	0.2
298.15	0.80009	994.04	0.15
298.15	0.89916	1021.77	0.17
313.15	0.09996	826.03	0.43
313.15	0.19988	844.8	0.39
313.15	0.30006	864.62	0.36
313.15	0.40001	885.45	0.33
313.15	0.49998	907.49	0.31
313.15	0.60015	930.78	0.26
313.15	0.70004	955.41	0.22
313.15	0.80009	981.47	0.17
313.15	0.89916	1009.02	0.15

System: 1,3-dimethyl-2-imidazolidinone + octan-1-ol; phases: Liquid
Fixed: Pressure, kPa = 101
Property: Mass density, kg/m3 (Liquid); method: VIBTUB:UFactor:4
Temperature, K	Mole fraction of 1,3-dimethyl-2-imidazolidinone	Mass density, kg/m3	uncertainty
283.15	0.09996	848.3	0.39
283.15	0.20001	865.7	0.36
283.15	0.30019	884.37	0.33
283.15	0.40009	904.35	0.3
283.15	0.50002	925.89	0.28
283.15	0.59904	948.94	0.24
283.15	0.70024	974.48	0.19
283.15	0.79961	1001.78	0.15
283.15	0.89993	1031.95	0.18
298.15	0.09996	837.74	0.41
298.15	0.20001	854.88	0.38
298.15	0.30019	873.28	0.35
298.15	0.40009	893.01	0.32
298.15	0.50002	914.29	0.29
298.15	0.59904	937.08	0.25
298.15	0.70024	962.3	0.21
298.15	0.79961	989.29	0.16
298.15	0.89993	1019.12	0.16
313.15	0.09996	827.05	0.42
313.15	0.20001	843.97	0.39
313.15	0.30019	862.14	0.37
313.15	0.40009	881.63	0.34
313.15	0.50002	902.66	0.31
313.15	0.59904	925.21	0.27
313.15	0.70024	950.12	0.22
313.15	0.79961	976.81	0.18
313.15	0.89993	1006.31	0.14
