Measured thermophysical data. Volumetric and viscometric properties of binary mixtures of {methyl tert-butyl  ether (MTBE) + alcohol} at several temperatures and p = 0.1 MPa: Experimental  results and application of the ERAS model
Source: J. Chem. Thermodyn., 2011, 10.1016/j.jct.2011.02.018
Compound 1: 2-methoxy-2-methylpropane, C5H12O, InChI=1S/C5H12O/c1-5(2,3)6-4/h1-4H3, purity 99.8%
Compound 2: methanol, CH4O, InChI=1S/CH4O/c1-2/h2H,1H3, purity 99.9%
Compound 3: ethanol, C2H6O, InChI=1S/C2H6O/c1-2-3/h3H,2H2,1H3, purity 99.9%
Compound 4: propan-1-ol, C3H8O, InChI=1S/C3H8O/c1-2-3-4/h4H,2-3H2,1H3, purity 99.5%
Compound 5: propan-2-ol, C3H8O, InChI=1S/C3H8O/c1-3(2)4/h3-4H,1-2H3, purity 99.9%
Compound 6: butan-1-ol, C4H10O, InChI=1S/C4H10O/c1-2-3-4-5/h5H,2-4H2,1H3, purity 99.5%
Compound 7: pentan-1-ol, C5H12O, InChI=1S/C5H12O/c1-2-3-4-5-6/h6H,2-5H2,1H3, purity 99%
Compound 8: hexan-1-ol, C6H14O, InChI=1S/C6H14O/c1-2-3-4-5-6-7/h7H,2-6H2,1H3, purity 98%

System: methanol + 2-methoxy-2-methylpropane; phases: Liquid
Fixed: Pressure, kPa = 101
Property: Mass density, kg/m3 (Liquid); method: Vibrating tube method
Temperature, K	Mole fraction of 2-methoxy-2-methylpropane	Mass density, kg/m3	uncertainty
293.15	0.01	790.62	0.23
293.15	0.0201	789.69	0.23
293.15	0.0301	788.74	0.23
293.15	0.0402	787.83	0.23
293.15	0.0502	786.96	0.23
293.15	0.0601	786.1	0.23
293.15	0.0696	785.32	0.23
293.15	0.0799	784.47	0.23
293.15	0.0888	783.72	0.23
293.15	0.1008	782.79	0.23
293.15	0.1498	779.11	0.23
293.15	0.1945	776.01	0.23
293.15	0.26	771.99	0.23
293.15	0.3006	769.58	0.23
293.15	0.3482	766.92	0.23
293.15	0.3841	765.07	0.23
293.15	0.4527	761.67	0.23
293.15	0.5004	759.46	0.24
293.15	0.5458	757.52	0.24
293.15	0.6009	755.29	0.24
293.15	0.6459	753.48	0.24
293.15	0.7014	751.36	0.24
293.15	0.7449	749.75	0.24
293.15	0.7986	747.76	0.24
293.15	0.8504	745.92	0.24
293.15	0.8978	744.27	0.24
293.15	0.9091	743.88	0.24
293.15	0.9184	743.53	0.24
293.15	0.9259	743.26	0.24
293.15	0.9379	742.81	0.24
293.15	0.9473	742.48	0.24
293.15	0.9598	742.06	0.24
293.15	0.9706	741.68	0.24
293.15	0.9791	741.36	0.24
293.15	0.9881	741.04	0.24
298.15	0.01	785.93	0.23
298.15	0.0201	785	0.23
298.15	0.0301	784.01	0.23
298.15	0.0402	783.09	0.23
298.15	0.0502	782.24	0.23
298.15	0.0601	781.36	0.23
298.15	0.0696	780.58	0.23
298.15	0.0799	779.71	0.23
298.15	0.0888	778.95	0.23
298.15	0.1008	778	0.23
298.15	0.1498	774.25	0.23
298.15	0.1945	771.13	0.23
298.15	0.26	767.08	0.23
298.15	0.3006	764.65	0.23
298.15	0.3482	761.97	0.23
298.15	0.3841	760.07	0.23
298.15	0.4527	756.67	0.24
298.15	0.5004	754.42	0.24
298.15	0.5458	752.46	0.24
298.15	0.6009	750.18	0.24
298.15	0.6459	748.37	0.24
298.15	0.7014	746.23	0.24
298.15	0.7449	744.6	0.24
298.15	0.7986	742.58	0.24
298.15	0.8504	740.74	0.24
298.15	0.8978	739.05	0.24
298.15	0.9091	738.66	0.24
298.15	0.9184	738.33	0.24
298.15	0.9259	738.07	0.24
298.15	0.9379	737.6	0.24
298.15	0.9473	737.28	0.24
298.15	0.9598	736.83	0.24
298.15	0.9706	736.46	0.24
298.15	0.9791	736.13	0.24
298.15	0.9881	735.82	0.24
303.15	0.01	781.19	0.23
303.15	0.0201	780.24	0.23
303.15	0.0301	779.26	0.23
303.15	0.0402	778.32	0.23
303.15	0.0502	777.44	0.23
303.15	0.0601	776.57	0.23
303.15	0.0696	775.75	0.23
303.15	0.0799	774.88	0.23
303.15	0.0888	774.12	0.23
303.15	0.1008	773.16	0.23
303.15	0.1498	769.36	0.23
303.15	0.1945	766.21	0.23
303.15	0.26	762.1	0.23
303.15	0.3006	759.64	0.23
303.15	0.3482	756.93	0.24
303.15	0.3841	755.01	0.24
303.15	0.4527	751.59	0.24
303.15	0.5004	749.29	0.24
303.15	0.5458	747.32	0.24
303.15	0.6009	745.03	0.24
303.15	0.6459	743.18	0.24
303.15	0.7014	741.01	0.24
303.15	0.7449	739.36	0.24
303.15	0.7986	737.33	0.24
303.15	0.8504	735.47	0.24
303.15	0.8978	733.78	0.24
303.15	0.9091	733.39	0.24
303.15	0.9184	733.04	0.24
303.15	0.9259	732.78	0.24
303.15	0.9379	732.32	0.24
303.15	0.9473	732	0.24
303.15	0.9598	731.56	0.24
303.15	0.9706	731.17	0.24
303.15	0.9791	730.85	0.24
303.15	0.9881	730.53	0.24
308.15	0.01	776.42	0.23
308.15	0.0201	775.46	0.23
308.15	0.0301	774.46	0.23
308.15	0.0402	773.51	0.23
308.15	0.0502	772.61	0.23
308.15	0.0601	771.73	0.23
308.15	0.0696	770.9	0.23
308.15	0.0799	770.02	0.23
308.15	0.0888	769.25	0.23
308.15	0.1008	768.27	0.23
308.15	0.1498	764.43	0.23
308.15	0.1945	761.24	0.23
308.15	0.26	757.08	0.24
308.15	0.3006	754.59	0.24
308.15	0.3482	751.87	0.24
308.15	0.3841	749.92	0.24
308.15	0.4527	746.45	0.24
308.15	0.5004	744.12	0.24
308.15	0.5458	742.12	0.24
308.15	0.6009	739.81	0.24
308.15	0.6459	737.93	0.24
308.15	0.7014	735.74	0.24
308.15	0.7449	734.07	0.24
308.15	0.7986	732.01	0.24
308.15	0.8504	730.13	0.24
308.15	0.8978	728.43	0.24
308.15	0.9091	728.04	0.24
308.15	0.9184	727.69	0.24
308.15	0.9259	727.43	0.24
308.15	0.9379	726.97	0.24
308.15	0.9473	726.65	0.24
308.15	0.9598	726.21	0.24
308.15	0.9706	725.82	0.24
308.15	0.9791	725.49	0.24
308.15	0.9881	725.18	0.24

System: ethanol + 2-methoxy-2-methylpropane; phases: Liquid
Fixed: Pressure, kPa = 101
Property: Viscosity, Pa*s (Liquid); method: Concentric cylinders viscometry
Temperature, K	Mole fraction of 2-methoxy-2-methylpropane	Viscosity, Pa*s	uncertainty
293.15	0.0097	0.0011741	4.78e-05
293.15	0.0198	0.0011457	4.67e-05
293.15	0.0301	0.0011185	4.56e-05
293.15	0.0402	0.0010922	4.44e-05
293.15	0.0502	0.0010726	4.37e-05
293.15	0.0583	0.0010494	4.28e-05
293.15	0.07	0.001023	4.17e-05
293.15	0.0801	0.0010003	4.07e-05
293.15	0.0861	0.0009912	4.03e-05
293.15	0.1009	0.0009622	3.92e-05
293.15	0.154	0.0008624	3.52e-05
293.15	0.2006	0.0007889	3.22e-05
293.15	0.2471	0.0007261	2.97e-05
293.15	0.2975	0.0006675	2.73e-05
293.15	0.3487	0.0006166	2.53e-05
293.15	0.3976	0.0005761	2.37e-05
293.15	0.4532	0.0005354	2.21e-05
293.15	0.5007	0.0005062	2.09e-05
293.15	0.5505	0.0004798	1.98e-05
293.15	0.5998	0.0004564	1.89e-05
293.15	0.6484	0.0004361	1.81e-05
293.15	0.6995	0.0004156	1.73e-05
293.15	0.749	0.0003998	1.67e-05
293.15	0.7995	0.0003844	1.61e-05
293.15	0.8496	0.0003715	1.56e-05
293.15	0.9009	0.0003589	1.51e-05
293.15	0.9093	0.0003573	1.5e-05
293.15	0.9166	0.0003534	1.49e-05
293.15	0.9299	0.000352	1.48e-05
293.15	0.9398	0.00035	1.47e-05
293.15	0.9501	0.000348	1.46e-05
293.15	0.9597	0.0003458	1.46e-05
293.15	0.968	0.0003444	1.45e-05
293.15	0.9802	0.0003418	1.44e-05
293.15	0.9868	0.0003421	1.44e-05
298.15	0.0097	0.0010666	4.35e-05
298.15	0.0198	0.0010427	4.24e-05
298.15	0.0301	0.001027	4.18e-05
298.15	0.0402	0.0009956	4.06e-05
298.15	0.0502	0.0009782	3.98e-05
298.15	0.0583	0.0009582	3.91e-05
298.15	0.07	0.0009337	3.81e-05
298.15	0.0801	0.0009146	3.73e-05
298.15	0.0861	0.0009061	3.69e-05
298.15	0.1009	0.0008805	3.59e-05
298.15	0.154	0.000792	3.24e-05
298.15	0.2006	0.0007263	2.97e-05
298.15	0.2471	0.0006707	2.75e-05
298.15	0.2975	0.0006182	2.54e-05
298.15	0.3487	0.0005722	2.35e-05
298.15	0.3976	0.0005357	2.21e-05
298.15	0.4532	0.0004987	2.06e-05
298.15	0.5007	0.0004708	1.95e-05
298.15	0.5505	0.0004482	1.86e-05
298.15	0.5998	0.000426	1.77e-05
298.15	0.6484	0.0004083	1.7e-05
298.15	0.6995	0.00039	1.63e-05
298.15	0.749	0.0003751	1.57e-05
298.15	0.7995	0.0003616	1.52e-05
298.15	0.8496	0.0003488	1.47e-05
298.15	0.9009	0.0003384	1.43e-05
298.15	0.9093	0.0003382	1.43e-05
298.15	0.9166	0.0003338	1.41e-05
298.15	0.9299	0.0003326	1.4e-05
298.15	0.9398	0.0003294	1.39e-05
298.15	0.9501	0.0003264	1.38e-05
298.15	0.9597	0.0003256	1.38e-05
298.15	0.968	0.0003247	1.37e-05
298.15	0.9802	0.0003226	1.37e-05
298.15	0.9868	0.0003209	1.36e-05
303.15	0.0097	0.0009713	3.96e-05
303.15	0.0198	0.0009506	3.87e-05
303.15	0.0301	0.0009348	3.81e-05
303.15	0.0402	0.0009088	3.71e-05
303.15	0.0502	0.000893	3.64e-05
303.15	0.0583	0.0008745	3.57e-05
303.15	0.07	0.000854	3.49e-05
303.15	0.0801	0.0008364	3.41e-05
303.15	0.0861	0.0008291	3.38e-05
303.15	0.1009	0.000806	3.29e-05
303.15	0.154	0.0007283	2.98e-05
303.15	0.2006	0.0006694	2.74e-05
303.15	0.2471	0.0006185	2.54e-05
303.15	0.2975	0.0005731	2.36e-05
303.15	0.3487	0.0005309	2.19e-05
303.15	0.3976	0.0004954	2.05e-05
303.15	0.4532	0.0004638	1.92e-05
303.15	0.5007	0.0004353	1.81e-05
303.15	0.5505	0.0004155	1.73e-05
303.15	0.5998	0.0003967	1.66e-05
303.15	0.6484	0.0003808	1.59e-05
303.15	0.6995	0.0003632	1.52e-05
303.15	0.749	0.0003459	1.46e-05
303.15	0.7995	0.0003381	1.43e-05
303.15	0.8496	0.0003271	1.38e-05
303.15	0.9009	0.0003159	1.34e-05
303.15	0.9093	0.0003136	1.33e-05
303.15	0.9166	0.0003143	1.33e-05
303.15	0.9299	0.0003136	1.33e-05
303.15	0.9398	0.0003107	1.32e-05
303.15	0.9501	0.0003068	1.3e-05
303.15	0.9597	0.0003066	1.3e-05
303.15	0.968	0.0003062	1.3e-05
303.15	0.9802	0.000304	1.29e-05
303.15	0.9868	0.0003005	1.28e-05
308.15	0.0097	0.000884	3.61e-05
308.15	0.0198	0.0008659	3.53e-05
308.15	0.0301	0.0008484	3.46e-05
308.15	0.0402	0.0008298	3.39e-05
308.15	0.0502	0.0008165	3.34e-05
308.15	0.0583	0.0007986	3.27e-05
308.15	0.07	0.0007813	3.19e-05
308.15	0.0801	0.0007634	3.12e-05
308.15	0.0861	0.0007578	3.1e-05
308.15	0.1009	0.0007369	3.01e-05
308.15	0.154	0.0006689	2.74e-05
308.15	0.2006	0.0006147	2.53e-05
308.15	0.2471	0.0005661	2.33e-05
308.15	0.2975	0.0005259	2.17e-05
308.15	0.3487	0.0004855	2.01e-05
308.15	0.3976	0.0004552	1.89e-05
308.15	0.4532	0.0004257	1.77e-05
308.15	0.5007	0.0003994	1.67e-05
308.15	0.5505	0.000379	1.59e-05
308.15	0.5998	0.000363	1.52e-05
308.15	0.6484	0.0003487	1.47e-05
308.15	0.6995	0.0003313	1.4e-05
308.15	0.749	0.0003273	1.38e-05
308.15	0.7995	0.0003084	1.31e-05
308.15	0.8496	0.0003025	1.29e-05
308.15	0.9009	0.0002963	1.26e-05
308.15	0.9093	0.0002948	1.26e-05
308.15	0.9166	0.0002965	1.27e-05
308.15	0.9299	0.0002908	1.24e-05
308.15	0.9398	0.0002884	1.24e-05
308.15	0.9501	0.0002842	1.22e-05
308.15	0.9597	0.0002829	1.21e-05
308.15	0.968	0.000282	1.21e-05
308.15	0.9802	0.0002809	1.2e-05
308.15	0.9868	0.0002794	1.2e-05

System: ethanol + 2-methoxy-2-methylpropane; phases: Liquid
Fixed: Pressure, kPa = 101
Property: Mass density, kg/m3 (Liquid); method: Vibrating tube method
Temperature, K	Mole fraction of 2-methoxy-2-methylpropane	Mass density, kg/m3	uncertainty
293.15	0.0097	789.03	0.23
293.15	0.0198	788.28	0.23
293.15	0.0301	787.54	0.23
293.15	0.0402	786.85	0.23
293.15	0.0502	786.37	0.23
293.15	0.0583	785.66	0.23
293.15	0.07	784.87	0.23
293.15	0.0801	784.2	0.23
293.15	0.0861	783.96	0.23
293.15	0.1009	782.99	0.23
293.15	0.154	779.59	0.23
293.15	0.2006	776.77	0.23
293.15	0.2471	774.06	0.23
293.15	0.2975	771.22	0.23
293.15	0.3487	768.46	0.23
293.15	0.3976	765.94	0.23
293.15	0.4532	763.17	0.23
293.15	0.5007	760.96	0.23
293.15	0.5505	758.76	0.24
293.15	0.5998	756.62	0.24
293.15	0.6484	754.48	0.24
293.15	0.6995	752.35	0.24
293.15	0.749	750.35	0.24
293.15	0.7995	748.36	0.24
293.15	0.8496	746.44	0.24
293.15	0.9009	744.51	0.24
293.15	0.9093	744.2	0.24
293.15	0.9166	743.9	0.24
293.15	0.9299	743.35	0.24
293.15	0.9398	742.96	0.24
293.15	0.9501	742.54	0.24
293.15	0.9597	742.15	0.24
293.15	0.968	741.84	0.24
293.15	0.9802	741.35	0.24
293.15	0.9868	741.1	0.24
298.15	0.0097	784.78	0.23
298.15	0.0198	783.99	0.23
298.15	0.0301	783.23	0.23
298.15	0.0402	782.54	0.23
298.15	0.0502	782.01	0.23
298.15	0.0583	781.32	0.23
298.15	0.07	780.51	0.23
298.15	0.0801	779.82	0.23
298.15	0.0861	779.52	0.23
298.15	0.1009	778.56	0.23
298.15	0.154	775.08	0.23
298.15	0.2006	772.21	0.23
298.15	0.2471	769.46	0.23
298.15	0.2975	766.56	0.23
298.15	0.3487	763.75	0.23
298.15	0.3976	761.16	0.23
298.15	0.4532	758.36	0.24
298.15	0.5007	756.08	0.24
298.15	0.5505	753.83	0.24
298.15	0.5998	751.67	0.24
298.15	0.6484	749.51	0.24
298.15	0.6995	747.32	0.24
298.15	0.749	745.3	0.24
298.15	0.7995	743.27	0.24
298.15	0.8496	741.31	0.24
298.15	0.9009	739.34	0.24
298.15	0.9093	739.04	0.24
298.15	0.9166	738.72	0.24
298.15	0.9299	738.18	0.24
298.15	0.9398	737.79	0.24
298.15	0.9501	737.38	0.24
298.15	0.9597	736.97	0.24
298.15	0.968	736.66	0.24
298.15	0.9802	736.15	0.24
298.15	0.9868	735.92	0.24
303.15	0.0097	780.44	0.23
303.15	0.0198	779.64	0.23
303.15	0.0301	778.87	0.23
303.15	0.0402	778.16	0.23
303.15	0.0502	777.63	0.23
303.15	0.0583	776.91	0.23
303.15	0.07	776.08	0.23
303.15	0.0801	775.37	0.23
303.15	0.0861	775.09	0.23
303.15	0.1009	774.11	0.23
303.15	0.154	770.56	0.23
303.15	0.2006	767.62	0.23
303.15	0.2471	764.79	0.23
303.15	0.2975	761.83	0.23
303.15	0.3487	758.96	0.23
303.15	0.3976	756.32	0.24
303.15	0.4532	753.45	0.24
303.15	0.5007	751.15	0.24
303.15	0.5505	748.85	0.24
303.15	0.5998	746.63	0.24
303.15	0.6484	744.43	0.24
303.15	0.6995	742.19	0.24
303.15	0.749	740.14	0.24
303.15	0.7995	738.06	0.24
303.15	0.8496	736.08	0.24
303.15	0.9009	734.07	0.24
303.15	0.9093	733.77	0.24
303.15	0.9166	733.47	0.24
303.15	0.9299	732.9	0.24
303.15	0.9398	732.51	0.24
303.15	0.9501	732.09	0.24
303.15	0.9597	731.71	0.24
303.15	0.968	731.37	0.24
303.15	0.9802	730.87	0.24
303.15	0.9868	730.61	0.24
308.15	0.0097	776.08	0.23
308.15	0.0198	775.26	0.23
308.15	0.0301	774.47	0.23
308.15	0.0402	773.74	0.23
308.15	0.0502	773.2	0.23
308.15	0.0583	772.46	0.23
308.15	0.07	771.61	0.23
308.15	0.0801	770.89	0.23
308.15	0.0861	770.6	0.23
308.15	0.1009	769.6	0.23
308.15	0.154	765.97	0.23
308.15	0.2006	762.96	0.23
308.15	0.2471	760.08	0.23
308.15	0.2975	757.06	0.24
308.15	0.3487	754.12	0.24
308.15	0.3976	751.43	0.24
308.15	0.4532	748.5	0.24
308.15	0.5007	746.15	0.24
308.15	0.5505	743.8	0.24
308.15	0.5998	741.53	0.24
308.15	0.6484	739.29	0.24
308.15	0.6995	737	0.24
308.15	0.749	734.91	0.24
308.15	0.7995	732.8	0.24
308.15	0.8496	730.78	0.24
308.15	0.9009	728.75	0.24
308.15	0.9093	728.45	0.24
308.15	0.9166	728.14	0.24
308.15	0.9299	727.57	0.24
308.15	0.9398	727.17	0.24
308.15	0.9501	726.76	0.24
308.15	0.9597	726.36	0.24
308.15	0.968	726.03	0.24
308.15	0.9802	725.52	0.24
308.15	0.9868	725.26	0.24

System: propan-1-ol + 2-methoxy-2-methylpropane; phases: Liquid
Fixed: Pressure, kPa = 101
Property: Viscosity, Pa*s (Liquid); method: Concentric cylinders viscometry
Temperature, K	Mole fraction of 2-methoxy-2-methylpropane	Viscosity, Pa*s	uncertainty
293.15	0.0126	0.0021394	8.76e-05
293.15	0.0219	0.002069	8.47e-05
293.15	0.0298	0.0020138	8.23e-05
293.15	0.0403	0.0019484	7.97e-05
293.15	0.05	0.0018847	7.69e-05
293.15	0.0599	0.0018346	7.48e-05
293.15	0.0699	0.0017796	7.25e-05
293.15	0.0798	0.0017358	7.09e-05
293.15	0.09	0.00167	6.83e-05
293.15	0.1003	0.0016268	6.62e-05
293.15	0.1495	0.0014122	5.76e-05
293.15	0.1999	0.0012338	5.03e-05
293.15	0.25	0.0010885	4.44e-05
293.15	0.3003	0.0009663	3.95e-05
293.15	0.35	0.0008694	3.55e-05
293.15	0.4015	0.0007809	3.2e-05
293.15	0.4585	0.0006993	2.87e-05
293.15	0.5002	0.0006508	2.67e-05
293.15	0.5505	0.0005953	2.45e-05
293.15	0.5994	0.0005508	2.27e-05
293.15	0.6475	0.0005181	2.14e-05
293.15	0.7026	0.0004767	1.97e-05
293.15	0.7536	0.0004509	1.87e-05
293.15	0.8033	0.0004202	1.75e-05
293.15	0.8471	0.0004014	1.68e-05
293.15	0.9007	0.0003802	1.6e-05
293.15	0.9107	0.0003705	1.56e-05
293.15	0.9185	0.0003679	1.54e-05
293.15	0.9282	0.0003645	1.53e-05
293.15	0.94	0.0003597	1.51e-05
293.15	0.9493	0.0003573	1.5e-05
293.15	0.9599	0.0003554	1.5e-05
293.15	0.9698	0.000349	1.47e-05
293.15	0.9796	0.0003454	1.45e-05
293.15	0.9882	0.000344	1.45e-05
298.15	0.0126	0.001886	7.75e-05
298.15	0.0219	0.0018319	7.48e-05
298.15	0.0298	0.0017897	7.3e-05
298.15	0.0403	0.0017351	7.08e-05
298.15	0.05	0.0016833	6.87e-05
298.15	0.0599	0.0016349	6.67e-05
298.15	0.0699	0.0015889	6.47e-05
298.15	0.0798	0.0015516	6.34e-05
298.15	0.09	0.0014925	6.1e-05
298.15	0.1003	0.0014594	5.93e-05
298.15	0.1495	0.0012746	5.2e-05
298.15	0.1999	0.0011194	4.57e-05
298.15	0.25	0.0009917	4.05e-05
298.15	0.3003	0.0008841	3.61e-05
298.15	0.35	0.0007946	3.25e-05
298.15	0.4015	0.000721	2.95e-05
298.15	0.4585	0.0006452	2.65e-05
298.15	0.5002	0.0006047	2.49e-05
298.15	0.5505	0.0005528	2.28e-05
298.15	0.5994	0.00052	2.15e-05
298.15	0.6475	0.0004813	1.99e-05
298.15	0.7026	0.0004449	1.85e-05
298.15	0.7536	0.0004165	1.74e-05
298.15	0.8033	0.0003922	1.64e-05
298.15	0.8471	0.000375	1.57e-05
298.15	0.9007	0.0003537	1.49e-05
298.15	0.9107	0.0003499	1.47e-05
298.15	0.9185	0.0003536	1.49e-05
298.15	0.9282	0.0003411	1.44e-05
298.15	0.94	0.0003383	1.43e-05
298.15	0.9493	0.0003241	1.38e-05
298.15	0.9599	0.0003246	1.37e-05
298.15	0.9698	0.000329	1.39e-05
298.15	0.9796	0.0003252	1.38e-05
298.15	0.9882	0.0003242	1.37e-05
303.15	0.0126	0.0016757	6.87e-05
303.15	0.0219	0.0016307	6.66e-05
303.15	0.0298	0.0015935	6.5e-05
303.15	0.0403	0.0015481	6.32e-05
303.15	0.05	0.0015025	6.14e-05
303.15	0.0599	0.0014623	5.96e-05
303.15	0.0699	0.0014292	5.82e-05
303.15	0.0798	0.0013907	5.7e-05
303.15	0.09	0.0013384	5.48e-05
303.15	0.1003	0.0013012	5.29e-05
303.15	0.1495	0.0011512	4.7e-05
303.15	0.1999	0.0010159	4.15e-05
303.15	0.25	0.0009045	3.7e-05
303.15	0.3003	0.000809	3.31e-05
303.15	0.35	0.0007291	2.99e-05
303.15	0.4015	0.0006608	2.71e-05
303.15	0.4585	0.0005966	2.45e-05
303.15	0.5002	0.0005568	2.29e-05
303.15	0.5505	0.0005121	2.12e-05
303.15	0.5994	0.0004831	2e-05
303.15	0.6475	0.0004499	1.87e-05
303.15	0.7026	0.0004145	1.73e-05
303.15	0.7536	0.0003944	1.65e-05
303.15	0.8033	0.0003655	1.54e-05
303.15	0.8471	0.0003506	1.48e-05
303.15	0.9007	0.0003303	1.4e-05
303.15	0.9107	0.0003277	1.39e-05
303.15	0.9185	0.0003317	1.4e-05
303.15	0.9282	0.0003205	1.37e-05
303.15	0.94	0.0003153	1.34e-05
303.15	0.9493	0.0003106	1.32e-05
303.15	0.9599	0.0003102	1.32e-05
303.15	0.9698	0.0003092	1.31e-05
303.15	0.9796	0.0003054	1.3e-05
303.15	0.9882	0.0003046	1.3e-05
308.15	0.0126	0.001494	6.1e-05
308.15	0.0219	0.0014556	5.94e-05
308.15	0.0298	0.0014238	5.81e-05
308.15	0.0403	0.0013857	5.66e-05
308.15	0.05	0.001347	5.51e-05
308.15	0.0599	0.0013089	5.34e-05
308.15	0.0699	0.0012758	5.2e-05
308.15	0.0798	0.0012516	5.12e-05
308.15	0.09	0.0012034	4.92e-05
308.15	0.1003	0.0011809	4.8e-05
308.15	0.1495	0.0010415	4.26e-05
308.15	0.1999	0.0009225	3.77e-05
308.15	0.25	0.0008231	3.37e-05
308.15	0.3003	0.0007398	3.03e-05
308.15	0.35	0.0006694	2.75e-05
308.15	0.4015	0.0006082	2.5e-05
308.15	0.4585	0.0005495	2.27e-05
308.15	0.5002	0.0005119	2.12e-05
308.15	0.5505	0.0004715	1.95e-05
308.15	0.5994	0.0004457	1.85e-05
308.15	0.6475	0.0004153	1.73e-05
308.15	0.7026	0.0003818	1.6e-05
308.15	0.7536	0.0003602	1.52e-05
308.15	0.8033	0.0003345	1.41e-05
308.15	0.8471	0.0003255	1.38e-05
308.15	0.9007	0.000308	1.31e-05
308.15	0.9107	0.000302	1.29e-05
308.15	0.9185	0.0003014	1.29e-05
308.15	0.9282	0.0002934	1.25e-05
308.15	0.94	0.000295	1.26e-05
308.15	0.9493	0.0002879	1.23e-05
308.15	0.9599	0.0002939	1.26e-05
308.15	0.9698	0.0002843	1.23e-05
308.15	0.9796	0.0002803	1.2e-05
308.15	0.9882	0.0002819	1.21e-05

System: propan-1-ol + 2-methoxy-2-methylpropane; phases: Liquid
Fixed: Pressure, kPa = 101
Property: Mass density, kg/m3 (Liquid); method: Vibrating tube method
Temperature, K	Mole fraction of 2-methoxy-2-methylpropane	Mass density, kg/m3	uncertainty
293.15	0.0126	802.92	0.24
293.15	0.0219	802.2	0.24
293.15	0.0298	801.64	0.24
293.15	0.0403	800.81	0.24
293.15	0.05	800.12	0.24
293.15	0.0599	799.4	0.24
293.15	0.0699	798.72	0.24
293.15	0.0798	798.25	0.24
293.15	0.09	797.26	0.24
293.15	0.1003	796.41	0.24
293.15	0.1495	793.03	0.24
293.15	0.1999	789.56	0.24
293.15	0.25	786.15	0.24
293.15	0.3003	782.74	0.24
293.15	0.35	779.47	0.24
293.15	0.4015	776.15	0.24
293.15	0.4585	772.51	0.24
293.15	0.5002	769.91	0.24
293.15	0.5505	766.88	0.24
293.15	0.5994	763.94	0.24
293.15	0.6475	761.06	0.24
293.15	0.7026	757.85	0.24
293.15	0.7536	754.92	0.24
293.15	0.8033	752.01	0.24
293.15	0.8471	749.51	0.24
293.15	0.9007	746.4	0.24
293.15	0.9107	745.77	0.24
293.15	0.9185	745.32	0.24
293.15	0.9282	744.76	0.24
293.15	0.94	744.07	0.24
293.15	0.9493	743.55	0.24
293.15	0.9599	742.94	0.24
293.15	0.9698	742.37	0.24
293.15	0.9796	741.82	0.24
293.15	0.9882	741.32	0.24
298.15	0.0126	798.92	0.24
298.15	0.0219	798.21	0.24
298.15	0.0298	797.61	0.24
298.15	0.0403	796.7	0.24
298.15	0.05	796.03	0.24
298.15	0.0599	795.34	0.24
298.15	0.0699	794.62	0.24
298.15	0.0798	794.12	0.24
298.15	0.09	793.05	0.24
298.15	0.1003	792.28	0.24
298.15	0.1495	788.85	0.24
298.15	0.1999	785.28	0.24
298.15	0.25	781.8	0.24
298.15	0.3003	778.33	0.24
298.15	0.35	774.99	0.24
298.15	0.4015	771.6	0.24
298.15	0.4585	767.88	0.24
298.15	0.5002	765.22	0.24
298.15	0.5505	762.1	0.24
298.15	0.5994	759.14	0.24
298.15	0.6475	756.21	0.24
298.15	0.7026	752.93	0.24
298.15	0.7536	749.92	0.24
298.15	0.8033	747.01	0.24
298.15	0.8471	744.41	0.24
298.15	0.9007	741.27	0.24
298.15	0.9107	740.64	0.24
298.15	0.9185	740.18	0.24
298.15	0.9282	739.61	0.24
298.15	0.94	738.91	0.24
298.15	0.9493	738.35	0.24
298.15	0.9599	737.74	0.24
298.15	0.9698	737.19	0.24
298.15	0.9796	736.64	0.24
298.15	0.9882	736.14	0.24
303.15	0.0126	794.86	0.24
303.15	0.0219	794.13	0.24
303.15	0.0298	793.53	0.24
303.15	0.0403	792.61	0.24
303.15	0.05	791.93	0.24
303.15	0.0599	791.21	0.24
303.15	0.0699	790.47	0.24
303.15	0.0798	789.92	0.24
303.15	0.09	788.85	0.24
303.15	0.1003	788.08	0.24
303.15	0.1495	784.61	0.24
303.15	0.1999	780.94	0.24
303.15	0.25	777.38	0.24
303.15	0.3003	773.84	0.24
303.15	0.35	770.45	0.24
303.15	0.4015	766.99	0.24
303.15	0.4585	763.21	0.24
303.15	0.5002	760.49	0.24
303.15	0.5505	757.3	0.24
303.15	0.5994	754.28	0.24
303.15	0.6475	751.27	0.24
303.15	0.7026	747.92	0.24
303.15	0.7536	744.86	0.24
303.15	0.8033	741.89	0.24
303.15	0.8471	739.24	0.24
303.15	0.9007	736.06	0.24
303.15	0.9107	735.41	0.24
303.15	0.9185	734.94	0.24
303.15	0.9282	734.37	0.24
303.15	0.94	733.65	0.24
303.15	0.9493	733.09	0.24
303.15	0.9599	732.47	0.24
303.15	0.9698	731.91	0.24
303.15	0.9796	731.35	0.24
303.15	0.9882	730.84	0.24
308.15	0.0126	790.76	0.24
308.15	0.0219	790.02	0.24
308.15	0.0298	789.4	0.24
308.15	0.0403	788.45	0.24
308.15	0.05	787.77	0.24
308.15	0.0599	787.04	0.24
308.15	0.0699	786.28	0.24
308.15	0.0798	785.72	0.24
308.15	0.09	784.63	0.24
308.15	0.1003	783.85	0.24
308.15	0.1495	780.3	0.24
308.15	0.1999	776.55	0.24
308.15	0.25	772.92	0.24
308.15	0.3003	769.32	0.24
308.15	0.35	765.85	0.24
308.15	0.4015	762.32	0.24
308.15	0.4585	758.45	0.24
308.15	0.5002	755.68	0.24
308.15	0.5505	752.42	0.24
308.15	0.5994	749.34	0.24
308.15	0.6475	746.28	0.24
308.15	0.7026	742.86	0.24
308.15	0.7536	739.74	0.24
308.15	0.8033	736.72	0.24
308.15	0.8471	734.04	0.24
308.15	0.9007	730.79	0.24
308.15	0.9107	730.13	0.24
308.15	0.9185	729.65	0.24
308.15	0.9282	729.07	0.24
308.15	0.94	728.34	0.24
308.15	0.9493	727.78	0.24
308.15	0.9599	727.15	0.24
308.15	0.9698	726.58	0.24
308.15	0.9796	726.01	0.24
308.15	0.9882	725.49	0.24

System: propan-2-ol + 2-methoxy-2-methylpropane; phases: Liquid
Fixed: Pressure, kPa = 101
Property: Viscosity, Pa*s (Liquid); method: Concentric cylinders viscometry
Temperature, K	Mole fraction of 2-methoxy-2-methylpropane	Viscosity, Pa*s	uncertainty
293.15	0.0093	0.0023245	9.5e-05
293.15	0.0206	0.0022325	9.15e-05
293.15	0.0305	0.0021446	8.81e-05
293.15	0.0398	0.002066	8.49e-05
293.15	0.0499	0.0019818	8.15e-05
293.15	0.0601	0.0019012	7.8e-05
293.15	0.0702	0.0018316	7.52e-05
293.15	0.0799	0.0017611	7.22e-05
293.15	0.0914	0.0016927	6.93e-05
293.15	0.1009	0.0016338	6.7e-05
293.15	0.1493	0.0013908	5.68e-05
293.15	0.2014	0.0011931	4.88e-05
293.15	0.244	0.0010503	4.3e-05
293.15	0.2863	0.0009352	3.83e-05
293.15	0.3081	0.000885	3.62e-05
293.15	0.351	0.0008018	3.28e-05
293.15	0.3995	0.0007225	2.96e-05
293.15	0.4516	0.0006544	2.68e-05
293.15	0.4999	0.0006	2.47e-05
293.15	0.5497	0.0005545	2.28e-05
293.15	0.5994	0.0005151	2.13e-05
293.15	0.6493	0.0004839	2e-05
293.15	0.6993	0.0004525	1.88e-05
293.15	0.7499	0.0004259	1.77e-05
293.15	0.8015	0.0004066	1.7e-05
293.15	0.8509	0.0003844	1.61e-05
293.15	0.8997	0.0003678	1.54e-05
293.15	0.9089	0.0003718	1.56e-05
293.15	0.9191	0.0003617	1.52e-05
293.15	0.9294	0.0003609	1.52e-05
293.15	0.9401	0.0003548	1.49e-05
293.15	0.9512	0.000355	1.49e-05
293.15	0.9587	0.0003558	1.5e-05
293.15	0.97	0.0003466	1.46e-05
293.15	0.9777	0.0003447	1.45e-05
293.15	0.9897	0.000342	1.44e-05
298.15	0.0093	0.0019884	8.17e-05
298.15	0.0206	0.0019194	7.84e-05
298.15	0.0305	0.0018526	7.62e-05
298.15	0.0398	0.0017731	7.28e-05
298.15	0.0499	0.0017187	7.03e-05
298.15	0.0601	0.0016528	6.78e-05
298.15	0.0702	0.0015949	6.54e-05
298.15	0.0799	0.0015384	6.3e-05
298.15	0.0914	0.0014791	6.05e-05
298.15	0.1009	0.0014317	5.83e-05
298.15	0.1493	0.0012346	5.05e-05
298.15	0.2014	0.0010574	4.32e-05
298.15	0.244	0.0009465	3.87e-05
298.15	0.2863	0.0008443	3.46e-05
298.15	0.3081	0.0008004	3.27e-05
298.15	0.351	0.000729	2.99e-05
298.15	0.3995	0.0006613	2.71e-05
298.15	0.4516	0.0006008	2.47e-05
298.15	0.4999	0.0005578	2.3e-05
298.15	0.5497	0.0005128	2.12e-05
298.15	0.5994	0.000477	1.97e-05
298.15	0.6493	0.0004481	1.86e-05
298.15	0.6993	0.0004253	1.77e-05
298.15	0.7499	0.000398	1.66e-05
298.15	0.8015	0.0003819	1.6e-05
298.15	0.8509	0.0003613	1.52e-05
298.15	0.8997	0.0003459	1.46e-05
298.15	0.9089	0.0003448	1.45e-05
298.15	0.9191	0.0003398	1.43e-05
298.15	0.9294	0.0003374	1.42e-05
298.15	0.9401	0.0003317	1.4e-05
298.15	0.9512	0.0003361	1.42e-05
298.15	0.9587	0.0003309	1.4e-05
298.15	0.97	0.0003247	1.38e-05
298.15	0.9777	0.0003228	1.37e-05
298.15	0.9897	0.0003204	1.36e-05
303.15	0.0093	0.0017164	7.03e-05
303.15	0.0206	0.0016612	6.78e-05
303.15	0.0305	0.0016062	6.59e-05
303.15	0.0398	0.0015472	6.34e-05
303.15	0.0499	0.0014965	6.13e-05
303.15	0.0601	0.0014431	5.91e-05
303.15	0.0702	0.0013954	5.72e-05
303.15	0.0799	0.0013478	5.52e-05
303.15	0.0914	0.0012992	5.31e-05
303.15	0.1009	0.0012603	5.14e-05
303.15	0.1493	0.0010931	4.47e-05
303.15	0.2014	0.0009479	3.87e-05
303.15	0.244	0.0008652	3.54e-05
303.15	0.2863	0.0007635	3.14e-05
303.15	0.3081	0.0007251	2.97e-05
303.15	0.351	0.0006639	2.72e-05
303.15	0.3995	0.0006057	2.49e-05
303.15	0.4516	0.0005514	2.27e-05
303.15	0.4999	0.0005139	2.12e-05
303.15	0.5497	0.0004738	1.96e-05
303.15	0.5994	0.0004395	1.83e-05
303.15	0.6493	0.0004129	1.72e-05
303.15	0.6993	0.0003938	1.65e-05
303.15	0.7499	0.0003695	1.55e-05
303.15	0.8015	0.000352	1.48e-05
303.15	0.8509	0.0003397	1.43e-05
303.15	0.8997	0.0003193	1.35e-05
303.15	0.9089	0.0003254	1.38e-05
303.15	0.9191	0.0003152	1.34e-05
303.15	0.9294	0.0003121	1.33e-05
303.15	0.9401	0.000307	1.31e-05
303.15	0.9512	0.0003045	1.3e-05
303.15	0.9587	0.0003021	1.29e-05
303.15	0.97	0.000302	1.29e-05
303.15	0.9777	0.0002983	1.27e-05
303.15	0.9897	0.0002943	1.26e-05
308.15	0.0093	0.0014879	6.06e-05
308.15	0.0206	0.0014436	5.89e-05
308.15	0.0305	0.0013988	5.73e-05
308.15	0.0398	0.0013496	5.53e-05
308.15	0.0499	0.0013074	5.35e-05
308.15	0.0601	0.0012643	5.17e-05
308.15	0.0702	0.0012259	5.02e-05
308.15	0.0799	0.0011859	4.86e-05
308.15	0.0914	0.0011452	4.69e-05
308.15	0.1009	0.0011121	4.55e-05
308.15	0.1493	0.0009806	4.01e-05
308.15	0.2014	0.0008473	3.47e-05
308.15	0.244	0.0007741	3.17e-05
308.15	0.2863	0.0006933	2.85e-05
308.15	0.3081	0.0006588	2.7e-05
308.15	0.351	0.0006054	2.49e-05
308.15	0.3995	0.0005521	2.28e-05
308.15	0.4516	0.000501	2.07e-05
308.15	0.4999	0.0004673	1.94e-05
308.15	0.5497	0.0004345	1.81e-05
308.15	0.5994	0.0004032	1.68e-05
308.15	0.6493	0.0003822	1.6e-05
308.15	0.6993	0.0003678	1.54e-05
308.15	0.7499	0.0003487	1.47e-05
308.15	0.8015	0.0003323	1.4e-05
308.15	0.8509	0.0003136	1.33e-05
308.15	0.8997	0.000303	1.29e-05
308.15	0.9089	0.000298	1.27e-05
308.15	0.9191	0.0002968	1.27e-05
308.15	0.9294	0.0002986	1.27e-05
308.15	0.9401	0.000293	1.25e-05
308.15	0.9512	0.0002959	1.26e-05
308.15	0.9587	0.0002906	1.25e-05
308.15	0.97	0.0002819	1.21e-05
308.15	0.9777	0.0002804	1.2e-05
308.15	0.9897	0.000283	1.21e-05

System: propan-2-ol + 2-methoxy-2-methylpropane; phases: Liquid
Fixed: Pressure, kPa = 101
Property: Mass density, kg/m3 (Liquid); method: Vibrating tube method
Temperature, K	Mole fraction of 2-methoxy-2-methylpropane	Mass density, kg/m3	uncertainty
293.15	0.0093	784.82	0.23
293.15	0.0206	784.14	0.23
293.15	0.0305	783.55	0.23
293.15	0.0398	783	0.23
293.15	0.0499	782.41	0.23
293.15	0.0601	781.75	0.23
293.15	0.0702	781.19	0.23
293.15	0.0799	780.66	0.23
293.15	0.0914	780.12	0.23
293.15	0.1009	779.62	0.23
293.15	0.1493	777.01	0.23
293.15	0.2014	774.27	0.23
293.15	0.244	771.96	0.23
293.15	0.2863	769.95	0.23
293.15	0.3081	768.87	0.23
293.15	0.351	766.72	0.23
293.15	0.3995	764.43	0.23
293.15	0.4516	762.08	0.23
293.15	0.4999	759.97	0.23
293.15	0.5497	757.86	0.24
293.15	0.5994	755.8	0.24
293.15	0.6493	753.77	0.24
293.15	0.6993	751.8	0.24
293.15	0.7499	749.84	0.24
293.15	0.8015	747.89	0.24
293.15	0.8509	746.05	0.24
293.15	0.8997	744.25	0.24
293.15	0.9089	743.91	0.24
293.15	0.9191	743.54	0.24
293.15	0.9294	743.17	0.24
293.15	0.9401	742.78	0.24
293.15	0.9512	742.37	0.24
293.15	0.9587	742.11	0.24
293.15	0.97	741.7	0.24
293.15	0.9777	741.42	0.24
293.15	0.9897	740.99	0.24
298.15	0.0093	780.63	0.23
298.15	0.0206	779.92	0.23
298.15	0.0305	779.33	0.23
298.15	0.0398	778.77	0.23
298.15	0.0499	778.17	0.23
298.15	0.0601	777.51	0.23
298.15	0.0702	776.93	0.23
298.15	0.0799	776.38	0.23
298.15	0.0914	775.85	0.23
298.15	0.1009	775.32	0.23
298.15	0.1493	772.62	0.23
298.15	0.2014	769.81	0.23
298.15	0.244	767.45	0.23
298.15	0.2863	765.38	0.23
298.15	0.3081	764.26	0.23
298.15	0.351	762.06	0.23
298.15	0.3995	759.73	0.23
298.15	0.4516	757.31	0.24
298.15	0.4999	755.15	0.24
298.15	0.5497	752.98	0.24
298.15	0.5994	750.88	0.24
298.15	0.6493	748.81	0.24
298.15	0.6993	746.81	0.24
298.15	0.7499	744.78	0.24
298.15	0.8015	742.8	0.24
298.15	0.8509	740.92	0.24
298.15	0.8997	739.1	0.24
298.15	0.9089	738.76	0.24
298.15	0.9191	738.35	0.24
298.15	0.9294	737.99	0.24
298.15	0.9401	737.6	0.24
298.15	0.9512	737.18	0.24
298.15	0.9587	736.92	0.24
298.15	0.97	736.51	0.24
298.15	0.9777	736.23	0.24
298.15	0.9897	735.8	0.24
303.15	0.0093	776.34	0.23
303.15	0.0206	775.62	0.23
303.15	0.0305	775.01	0.23
303.15	0.0398	774.43	0.23
303.15	0.0499	773.82	0.23
303.15	0.0601	773.15	0.23
303.15	0.0702	772.55	0.23
303.15	0.0799	772	0.23
303.15	0.0914	771.45	0.23
303.15	0.1009	770.89	0.23
303.15	0.1493	768.12	0.23
303.15	0.2014	765.24	0.23
303.15	0.244	762.82	0.23
303.15	0.2863	760.69	0.23
303.15	0.3081	759.55	0.23
303.15	0.351	757.3	0.24
303.15	0.3995	754.91	0.24
303.15	0.4516	752.43	0.24
303.15	0.4999	750.22	0.24
303.15	0.5497	748.01	0.24
303.15	0.5994	745.87	0.24
303.15	0.6493	743.75	0.24
303.15	0.6993	741.69	0.24
303.15	0.7499	739.62	0.24
303.15	0.8015	737.6	0.24
303.15	0.8509	735.7	0.24
303.15	0.8997	733.84	0.24
303.15	0.9089	733.49	0.24
303.15	0.9191	733.11	0.24
303.15	0.9294	732.74	0.24
303.15	0.9401	732.34	0.24
303.15	0.9512	731.91	0.24
303.15	0.9587	731.64	0.24
303.15	0.97	731.24	0.24
303.15	0.9777	730.94	0.24
303.15	0.9897	730.5	0.24
308.15	0.0093	771.97	0.23
308.15	0.0206	771.24	0.23
308.15	0.0305	770.65	0.23
308.15	0.0398	770.06	0.23
308.15	0.0499	769.37	0.23
308.15	0.0601	768.84	0.23
308.15	0.0702	768.22	0.23
308.15	0.0799	767.62	0.23
308.15	0.0914	766.96	0.23
308.15	0.1009	766.39	0.23
308.15	0.1493	763.55	0.23
308.15	0.2014	760.59	0.23
308.15	0.244	758.12	0.23
308.15	0.2863	755.94	0.24
308.15	0.3081	754.77	0.24
308.15	0.351	752.47	0.24
308.15	0.3995	750.02	0.24
308.15	0.4516	747.48	0.24
308.15	0.4999	745.22	0.24
308.15	0.5497	742.97	0.24
308.15	0.5994	740.79	0.24
308.15	0.6493	738.63	0.24
308.15	0.6993	736.5	0.24
308.15	0.7499	734.4	0.24
308.15	0.8015	732.34	0.24
308.15	0.8509	730.41	0.24
308.15	0.8997	728.52	0.24
308.15	0.9089	728.17	0.24
308.15	0.9191	727.78	0.24
308.15	0.9294	727.41	0.24
308.15	0.9401	727.01	0.24
308.15	0.9512	726.58	0.24
308.15	0.9587	726.3	0.24
308.15	0.97	725.88	0.24
308.15	0.9777	725.59	0.24
308.15	0.9897	725.16	0.24

System: butan-1-ol + 2-methoxy-2-methylpropane; phases: Liquid
Fixed: Pressure, kPa = 101
Property: Viscosity, Pa*s (Liquid); method: Concentric cylinders viscometry
Temperature, K	Mole fraction of 2-methoxy-2-methylpropane	Viscosity, Pa*s	uncertainty
293.15	0.0104	0.0028747	0.0001174
293.15	0.0243	0.0027406	0.000112
293.15	0.0294	0.0026965	0.0001098
293.15	0.0396	0.0026182	0.0001069
293.15	0.0498	0.0025221	0.0001032
293.15	0.0601	0.002439	9.95e-05
293.15	0.0699	0.0023661	9.64e-05
293.15	0.0804	0.0022964	9.37e-05
293.15	0.0898	0.0022237	9.09e-05
293.15	0.1006	0.002144	8.77e-05
293.15	0.1507	0.0018504	7.55e-05
293.15	0.1993	0.0016	6.53e-05
293.15	0.2516	0.0013824	5.64e-05
293.15	0.3022	0.0012165	4.96e-05
293.15	0.3515	0.0010772	4.4e-05
293.15	0.4031	0.0009523	3.89e-05
293.15	0.4497	0.0008598	3.51e-05
293.15	0.4999	0.0007724	3.16e-05
293.15	0.5485	0.0006999	2.87e-05
293.15	0.5953	0.0006397	2.63e-05
293.15	0.6445	0.000585	2.41e-05
293.15	0.6999	0.00053	2.19e-05
293.15	0.7466	0.0004912	2.03e-05
293.15	0.8067	0.0004474	1.86e-05
293.15	0.8404	0.0004251	1.77e-05
293.15	0.8695	0.000408	1.7e-05
293.15	0.8983	0.0003889	1.63e-05
293.15	0.9092	0.0003832	1.61e-05
293.15	0.9188	0.0003778	1.58e-05
293.15	0.9299	0.0003717	1.56e-05
293.15	0.9398	0.0003683	1.54e-05
293.15	0.9492	0.0003654	1.54e-05
293.15	0.9607	0.000358	1.51e-05
293.15	0.9697	0.000356	1.5e-05
293.15	0.9796	0.0003489	1.47e-05
293.15	0.9902	0.0003456	1.46e-05
298.15	0.0104	0.0025182	0.0001032
298.15	0.0243	0.0024105	9.83e-05
298.15	0.0294	0.0023743	9.7e-05
298.15	0.0396	0.0022979	9.38e-05
298.15	0.0498	0.0022273	9.09e-05
298.15	0.0601	0.0021559	8.8e-05
298.15	0.0699	0.0020927	8.54e-05
298.15	0.0804	0.0020279	8.27e-05
298.15	0.0898	0.001969	8.04e-05
298.15	0.1006	0.0019034	7.75e-05
298.15	0.1507	0.0016562	6.75e-05
298.15	0.1993	0.0014374	5.86e-05
298.15	0.2516	0.00125	5.1e-05
298.15	0.3022	0.001103	4.5e-05
298.15	0.3515	0.0009815	4.01e-05
298.15	0.4031	0.0008743	3.57e-05
298.15	0.4497	0.0007902	3.23e-05
298.15	0.4999	0.0007125	2.92e-05
298.15	0.5485	0.0006476	2.66e-05
298.15	0.5953	0.0005937	2.44e-05
298.15	0.6445	0.0005452	2.25e-05
298.15	0.6999	0.0004937	2.04e-05
298.15	0.7466	0.0004586	1.9e-05
298.15	0.8067	0.0004167	1.74e-05
298.15	0.8404	0.0003961	1.66e-05
298.15	0.8695	0.0003799	1.59e-05
298.15	0.8983	0.0003651	1.53e-05
298.15	0.9092	0.0003591	1.51e-05
298.15	0.9188	0.0003547	1.49e-05
298.15	0.9299	0.0003493	1.47e-05
298.15	0.9398	0.0003491	1.47e-05
298.15	0.9492	0.0003479	1.47e-05
298.15	0.9607	0.0003391	1.44e-05
298.15	0.9697	0.000331	1.4e-05
298.15	0.9796	0.0003267	1.38e-05
298.15	0.9902	0.0003214	1.36e-05
303.15	0.0104	0.00222	9.08e-05
303.15	0.0243	0.0021263	8.67e-05
303.15	0.0294	0.0020937	8.54e-05
303.15	0.0396	0.0020324	8.28e-05
303.15	0.0498	0.0019731	8.05e-05
303.15	0.0601	0.0019082	7.79e-05
303.15	0.0699	0.0018574	7.56e-05
303.15	0.0804	0.0018094	7.38e-05
303.15	0.0898	0.001752	7.16e-05
303.15	0.1006	0.0016952	6.9e-05
303.15	0.1507	0.0014886	6.07e-05
303.15	0.1993	0.0012943	5.28e-05
303.15	0.2516	0.001132	4.62e-05
303.15	0.3022	0.0009992	4.08e-05
303.15	0.3515	0.000893	3.65e-05
303.15	0.4031	0.000797	3.26e-05
303.15	0.4497	0.0007267	2.98e-05
303.15	0.4999	0.0006568	2.7e-05
303.15	0.5485	0.0005981	2.46e-05
303.15	0.5953	0.0005512	2.27e-05
303.15	0.6445	0.000506	2.09e-05
303.15	0.6999	0.0004595	1.91e-05
303.15	0.7466	0.0004275	1.78e-05
303.15	0.8067	0.0003876	1.62e-05
303.15	0.8404	0.0003679	1.55e-05
303.15	0.8695	0.0003544	1.49e-05
303.15	0.8983	0.0003371	1.43e-05
303.15	0.9092	0.0003333	1.41e-05
303.15	0.9188	0.0003301	1.4e-05
303.15	0.9299	0.0003249	1.37e-05
303.15	0.9398	0.000329	1.39e-05
303.15	0.9492	0.0003225	1.37e-05
303.15	0.9607	0.0003169	1.35e-05
303.15	0.9697	0.0003107	1.32e-05
303.15	0.9796	0.0003076	1.31e-05
303.15	0.9902	0.0002976	1.27e-05
308.15	0.0104	0.0019582	7.98e-05
308.15	0.0243	0.0018818	7.67e-05
308.15	0.0294	0.001855	7.56e-05
308.15	0.0396	0.0018001	7.34e-05
308.15	0.0498	0.0017497	7.14e-05
308.15	0.0601	0.0016967	6.92e-05
308.15	0.0699	0.0016541	6.73e-05
308.15	0.0804	0.0016121	6.58e-05
308.15	0.0898	0.0015637	6.39e-05
308.15	0.1006	0.0015138	6.19e-05
308.15	0.1507	0.0013337	5.44e-05
308.15	0.1993	0.0011688	4.77e-05
308.15	0.2516	0.0010292	4.2e-05
308.15	0.3022	0.0009132	3.73e-05
308.15	0.3515	0.0008189	3.35e-05
308.15	0.4031	0.0007323	3e-05
308.15	0.4497	0.0006743	2.77e-05
308.15	0.4999	0.0006081	2.5e-05
308.15	0.5485	0.0005512	2.27e-05
308.15	0.5953	0.0005073	2.1e-05
308.15	0.6445	0.0004692	1.95e-05
308.15	0.6999	0.0004236	1.77e-05
308.15	0.7466	0.000395	1.65e-05
308.15	0.8067	0.0003578	1.51e-05
308.15	0.8404	0.0003465	1.46e-05
308.15	0.8695	0.0003327	1.41e-05
308.15	0.8983	0.0003165	1.35e-05
308.15	0.9092	0.0003137	1.33e-05
308.15	0.9188	0.0003112	1.32e-05
308.15	0.9299	0.000305	1.3e-05
308.15	0.9398	0.0003048	1.3e-05
308.15	0.9492	0.0003006	1.28e-05
308.15	0.9607	0.0002958	1.26e-05
308.15	0.9697	0.0002998	1.28e-05
308.15	0.9796	0.0002964	1.27e-05
308.15	0.9902	0.0002892	1.24e-05

System: butan-1-ol + 2-methoxy-2-methylpropane; phases: Liquid
Fixed: Pressure, kPa = 101
Property: Mass density, kg/m3 (Liquid); method: Vibrating tube method
Temperature, K	Mole fraction of 2-methoxy-2-methylpropane	Mass density, kg/m3	uncertainty
293.15	0.0104	809.06	0.24
293.15	0.0243	808.13	0.24
293.15	0.0294	807.77	0.24
293.15	0.0396	807.09	0.24
293.15	0.0498	806.41	0.24
293.15	0.0601	805.74	0.24
293.15	0.0699	805.07	0.24
293.15	0.0804	804.38	0.24
293.15	0.0898	803.72	0.24
293.15	0.1006	802.95	0.24
293.15	0.1507	799.54	0.24
293.15	0.1993	796.26	0.24
293.15	0.2516	792.7	0.24
293.15	0.3022	789.27	0.24
293.15	0.3515	785.87	0.24
293.15	0.4031	782.33	0.24
293.15	0.4497	779.15	0.24
293.15	0.4999	775.69	0.24
293.15	0.5485	772.39	0.24
293.15	0.5953	769.2	0.24
293.15	0.6445	765.82	0.24
293.15	0.6999	762	0.24
293.15	0.7466	758.77	0.24
293.15	0.8067	754.66	0.24
293.15	0.8404	752.26	0.24
293.15	0.8695	750.22	0.24
293.15	0.8983	748.09	0.24
293.15	0.9092	747.32	0.24
293.15	0.9188	746.62	0.24
293.15	0.9299	745.83	0.24
293.15	0.9398	745.11	0.24
293.15	0.9492	744.42	0.24
293.15	0.9607	743.59	0.24
293.15	0.9697	742.97	0.24
293.15	0.9796	742.24	0.24
293.15	0.9902	741.47	0.24
298.15	0.0104	805.25	0.24
298.15	0.0243	804.31	0.24
298.15	0.0294	803.94	0.24
298.15	0.0396	803.24	0.24
298.15	0.0498	802.54	0.24
298.15	0.0601	801.84	0.24
298.15	0.0699	801.16	0.24
298.15	0.0804	800.44	0.24
298.15	0.0898	799.79	0.24
298.15	0.1006	798.99	0.24
298.15	0.1507	795.53	0.24
298.15	0.1993	792.17	0.24
298.15	0.2516	788.55	0.24
298.15	0.3022	785.01	0.24
298.15	0.3515	781.6	0.24
298.15	0.4031	777.98	0.24
298.15	0.4497	774.73	0.24
298.15	0.4999	771.23	0.24
298.15	0.5485	767.84	0.24
298.15	0.5953	764.57	0.24
298.15	0.6445	761.14	0.24
298.15	0.6999	757.24	0.24
298.15	0.7466	753.92	0.24
298.15	0.8067	749.65	0.24
298.15	0.8404	747.22	0.24
298.15	0.8695	745.15	0.24
298.15	0.8983	743	0.24
298.15	0.9092	742.21	0.24
298.15	0.9188	741.51	0.24
298.15	0.9299	740.69	0.24
298.15	0.9398	739.96	0.24
298.15	0.9492	739.25	0.24
298.15	0.9607	738.39	0.24
298.15	0.9697	737.75	0.24
298.15	0.9796	737.01	0.24
298.15	0.9902	736.22	0.24
303.15	0.0104	801.38	0.24
303.15	0.0243	800.43	0.24
303.15	0.0294	800.06	0.24
303.15	0.0396	799.35	0.24
303.15	0.0498	798.63	0.24
303.15	0.0601	797.91	0.24
303.15	0.0699	797.21	0.24
303.15	0.0804	796.49	0.24
303.15	0.0898	795.81	0.24
303.15	0.1006	795	0.24
303.15	0.1507	791.47	0.24
303.15	0.1993	788.04	0.24
303.15	0.2516	784.35	0.24
303.15	0.3022	780.75	0.24
303.15	0.3515	777.25	0.24
303.15	0.4031	773.56	0.24
303.15	0.4497	770.24	0.24
303.15	0.4999	766.66	0.24
303.15	0.5485	763.2	0.24
303.15	0.5953	759.86	0.24
303.15	0.6445	756.35	0.24
303.15	0.6999	752.37	0.24
303.15	0.7466	748.98	0.24
303.15	0.8067	744.63	0.24
303.15	0.8404	742.14	0.24
303.15	0.8695	740.03	0.24
303.15	0.8983	737.86	0.24
303.15	0.9092	737.05	0.24
303.15	0.9188	736.33	0.24
303.15	0.9299	735.5	0.24
303.15	0.9398	734.74	0.24
303.15	0.9492	734.03	0.24
303.15	0.9607	733.15	0.24
303.15	0.9697	732.49	0.24
303.15	0.9796	731.74	0.24
303.15	0.9902	730.94	0.24
308.15	0.0104	797.5	0.24
308.15	0.0243	796.52	0.24
308.15	0.0294	796.14	0.24
308.15	0.0396	795.41	0.24
308.15	0.0498	794.68	0.24
308.15	0.0601	793.95	0.24
308.15	0.0699	793.24	0.24
308.15	0.0804	792.5	0.24
308.15	0.0898	791.81	0.24
308.15	0.1006	790.98	0.24
308.15	0.1507	787.38	0.24
308.15	0.1993	783.88	0.24
308.15	0.2516	780.11	0.24
308.15	0.3022	776.43	0.24
308.15	0.3515	772.86	0.24
308.15	0.4031	769.1	0.24
308.15	0.4497	765.7	0.24
308.15	0.4999	762.05	0.24
308.15	0.5485	758.52	0.24
308.15	0.5953	755.11	0.24
308.15	0.6445	751.52	0.24
308.15	0.6999	747.46	0.24
308.15	0.7466	744	0.24
308.15	0.8067	739.55	0.24
308.15	0.8404	737.01	0.24
308.15	0.8695	734.85	0.24
308.15	0.8983	732.64	0.24
308.15	0.9092	731.8	0.24
308.15	0.9188	731.09	0.24
308.15	0.9299	730.24	0.24
308.15	0.9398	729.47	0.24
308.15	0.9492	728.76	0.24
308.15	0.9607	727.86	0.24
308.15	0.9697	727.18	0.24
308.15	0.9796	726.41	0.24
308.15	0.9902	725.59	0.24

System: pentan-1-ol + 2-methoxy-2-methylpropane; phases: Liquid
Fixed: Pressure, kPa = 101
Property: Viscosity, Pa*s (Liquid); method: Concentric cylinders viscometry
Temperature, K	Mole fraction of 2-methoxy-2-methylpropane	Viscosity, Pa*s	uncertainty
293.15	0.0105	0.003895	0.0001599
293.15	0.0197	0.0037753	0.000155
293.15	0.0321	0.0036154	0.0001486
293.15	0.0401	0.0035159	0.0001443
293.15	0.0506	0.0033941	0.0001393
293.15	0.0595	0.0032923	0.0001352
293.15	0.0699	0.0031764	0.0001304
293.15	0.0811	0.0030609	0.0001256
293.15	0.0901	0.0029702	0.0001217
293.15	0.1042	0.0028409	0.0001163
293.15	0.1506	0.0024496	0.0001003
293.15	0.2078	0.002058	8.43e-05
293.15	0.252	0.001809	7.4e-05
293.15	0.301	0.0015744	6.44e-05
293.15	0.3492	0.0013868	5.67e-05
293.15	0.3996	0.0012068	4.94e-05
293.15	0.4577	0.0010422	4.27e-05
293.15	0.4985	0.0009442	3.86e-05
293.15	0.5512	0.0008364	3.43e-05
293.15	0.5999	0.0007504	3.08e-05
293.15	0.6506	0.0006719	2.76e-05
293.15	0.6986	0.000606	2.5e-05
293.15	0.7451	0.0005517	2.28e-05
293.15	0.7976	0.0004971	2.06e-05
293.15	0.8534	0.0004455	1.86e-05
293.15	0.898	0.0004101	1.71e-05
293.15	0.9098	0.0004017	1.68e-05
293.15	0.9195	0.0003954	1.66e-05
293.15	0.9289	0.000388	1.63e-05
293.15	0.9419	0.0003807	1.6e-05
293.15	0.9495	0.0003752	1.58e-05
293.15	0.9594	0.0003682	1.55e-05
293.15	0.9688	0.0003623	1.52e-05
293.15	0.9792	0.0003563	1.5e-05
293.15	0.9902	0.0003533	1.49e-05
298.15	0.0105	0.003372	0.0001393
298.15	0.0197	0.0032731	0.0001343
298.15	0.0321	0.0031432	0.0001289
298.15	0.0401	0.0030593	0.0001256
298.15	0.0506	0.002958	0.0001213
298.15	0.0595	0.0028722	0.0001178
298.15	0.0699	0.002778	0.0001139
298.15	0.0811	0.0026834	0.00011
298.15	0.0901	0.0026062	0.0001068
298.15	0.1042	0.0024948	0.0001021
298.15	0.1506	0.0021677	8.87e-05
298.15	0.2078	0.0018369	7.52e-05
298.15	0.252	0.0016188	6.62e-05
298.15	0.301	0.0014177	5.8e-05
298.15	0.3492	0.001254	5.13e-05
298.15	0.3996	0.0010977	4.49e-05
298.15	0.4577	0.000953	3.9e-05
298.15	0.4985	0.0008668	3.55e-05
298.15	0.5512	0.0007702	3.16e-05
298.15	0.5999	0.0006941	2.85e-05
298.15	0.6506	0.0006222	2.56e-05
298.15	0.6986	0.0005627	2.32e-05
298.15	0.7451	0.0005167	2.14e-05
298.15	0.7976	0.0004653	1.93e-05
298.15	0.8534	0.0004172	1.74e-05
298.15	0.898	0.0003855	1.62e-05
298.15	0.9098	0.0003772	1.58e-05
298.15	0.9195	0.0003701	1.56e-05
298.15	0.9289	0.0003658	1.54e-05
298.15	0.9419	0.0003564	1.5e-05
298.15	0.9495	0.000354	1.49e-05
298.15	0.9594	0.0003458	1.46e-05
298.15	0.9688	0.0003405	1.44e-05
298.15	0.9792	0.0003352	1.42e-05
298.15	0.9902	0.0003291	1.4e-05
303.15	0.0105	0.0029319	0.0001209
303.15	0.0197	0.0028522	0.0001169
303.15	0.0321	0.0027429	0.0001124
303.15	0.0401	0.0026752	0.0001097
303.15	0.0506	0.0025883	0.0001061
303.15	0.0595	0.0025167	0.0001032
303.15	0.0699	0.002438	9.99e-05
303.15	0.0811	0.0023565	9.65e-05
303.15	0.0901	0.0022942	9.38e-05
303.15	0.1042	0.0022136	9.05e-05
303.15	0.1506	0.0019269	7.88e-05
303.15	0.2078	0.0016475	6.74e-05
303.15	0.252	0.0014569	5.96e-05
303.15	0.301	0.0012813	5.24e-05
303.15	0.3492	0.0011346	4.64e-05
303.15	0.3996	0.0010001	4.09e-05
303.15	0.4577	0.0008735	3.58e-05
303.15	0.4985	0.0007962	3.26e-05
303.15	0.5512	0.0007102	2.92e-05
303.15	0.5999	0.0006401	2.63e-05
303.15	0.6506	0.0005765	2.38e-05
303.15	0.6986	0.0005215	2.16e-05
303.15	0.7451	0.0004765	1.98e-05
303.15	0.7976	0.0004332	1.81e-05
303.15	0.8534	0.0003868	1.62e-05
303.15	0.898	0.0003594	1.51e-05
303.15	0.9098	0.0003526	1.49e-05
303.15	0.9195	0.0003467	1.47e-05
303.15	0.9289	0.0003396	1.44e-05
303.15	0.9419	0.0003307	1.4e-05
303.15	0.9495	0.0003276	1.39e-05
303.15	0.9594	0.0003227	1.37e-05
303.15	0.9688	0.000317	1.35e-05
303.15	0.9792	0.0003104	1.32e-05
303.15	0.9902	0.0003035	1.29e-05
308.15	0.0105	0.0025615	0.0001049
308.15	0.0197	0.0024932	0.0001021
308.15	0.0321	0.0024063	9.86e-05
308.15	0.0401	0.0023442	9.61e-05
308.15	0.0506	0.0022741	9.32e-05
308.15	0.0595	0.0022143	9.07e-05
308.15	0.0699	0.002149	8.8e-05
308.15	0.0811	0.0020794	8.52e-05
308.15	0.0901	0.0020278	8.3e-05
308.15	0.1042	0.0019493	7.97e-05
308.15	0.1506	0.0017155	7.02e-05
308.15	0.2078	0.0014734	6.03e-05
308.15	0.252	0.0013123	5.37e-05
308.15	0.301	0.0011593	4.74e-05
308.15	0.3492	0.0010335	4.23e-05
308.15	0.3996	0.0009139	3.74e-05
308.15	0.4577	0.0008008	3.29e-05
308.15	0.4985	0.0007313	3e-05
308.15	0.5512	0.0006515	2.68e-05
308.15	0.5999	0.0005895	2.43e-05
308.15	0.6506	0.0005309	2.2e-05
308.15	0.6986	0.0004812	2e-05
308.15	0.7451	0.0004421	1.84e-05
308.15	0.7976	0.0004011	1.68e-05
308.15	0.8534	0.0003584	1.51e-05
308.15	0.898	0.0003315	1.41e-05
308.15	0.9098	0.0003257	1.38e-05
308.15	0.9195	0.0003192	1.36e-05
308.15	0.9289	0.0003137	1.33e-05
308.15	0.9419	0.0003102	1.32e-05
308.15	0.9495	0.0003054	1.3e-05
308.15	0.9594	0.0003007	1.28e-05
308.15	0.9688	0.0002966	1.27e-05
308.15	0.9792	0.0002916	1.25e-05
308.15	0.9902	0.0002863	1.23e-05

System: pentan-1-ol + 2-methoxy-2-methylpropane; phases: Liquid
Fixed: Pressure, kPa = 101
Property: Mass density, kg/m3 (Liquid); method: Vibrating tube method
Temperature, K	Mole fraction of 2-methoxy-2-methylpropane	Mass density, kg/m3	uncertainty
293.15	0.0105	813.89	0.29
293.15	0.0197	813.34	0.29
293.15	0.0321	812.56	0.29
293.15	0.0401	812.06	0.29
293.15	0.0506	811.39	0.29
293.15	0.0595	810.83	0.29
293.15	0.0699	810.18	0.29
293.15	0.0811	809.49	0.28
293.15	0.0901	808.93	0.28
293.15	0.1042	808.03	0.28
293.15	0.1506	805.02	0.28
293.15	0.2078	801.27	0.27
293.15	0.252	798.32	0.27
293.15	0.301	795.01	0.26
293.15	0.3492	791.65	0.26
293.15	0.3996	788.14	0.26
293.15	0.4577	784	0.25
293.15	0.4985	781.06	0.25
293.15	0.5512	777.21	0.25
293.15	0.5999	773.61	0.25
293.15	0.6506	769.72	0.24
293.15	0.6986	766.04	0.24
293.15	0.7451	762.49	0.24
293.15	0.7976	758.12	0.24
293.15	0.8534	753.55	0.24
293.15	0.898	749.74	0.24
293.15	0.9098	748.75	0.24
293.15	0.9195	747.92	0.24
293.15	0.9289	747.1	0.24
293.15	0.9419	745.96	0.24
293.15	0.9495	745.29	0.24
293.15	0.9594	744.4	0.24
293.15	0.9688	743.56	0.24
293.15	0.9792	742.63	0.24
293.15	0.9902	741.63	0.24
298.15	0.0105	810.25	0.29
298.15	0.0197	809.68	0.29
298.15	0.0321	808.89	0.29
298.15	0.0401	808.37	0.29
298.15	0.0506	807.69	0.29
298.15	0.0595	807.12	0.29
298.15	0.0699	806.45	0.29
298.15	0.0811	805.73	0.28
298.15	0.0901	805.14	0.28
298.15	0.1042	804.23	0.28
298.15	0.1506	801.2	0.28
298.15	0.2078	797.36	0.27
298.15	0.252	794.34	0.27
298.15	0.301	790.96	0.26
298.15	0.3492	787.57	0.26
298.15	0.3996	783.99	0.26
298.15	0.4577	779.75	0.25
298.15	0.4985	776.76	0.25
298.15	0.5512	772.8	0.25
298.15	0.5999	769.09	0.25
298.15	0.6506	765.16	0.25
298.15	0.6986	761.39	0.24
298.15	0.7451	757.72	0.24
298.15	0.7976	753.3	0.24
298.15	0.8534	748.61	0.24
298.15	0.898	744.73	0.24
298.15	0.9098	743.7	0.24
298.15	0.9195	742.85	0.24
298.15	0.9289	742.01	0.24
298.15	0.9419	740.85	0.24
298.15	0.9495	740.17	0.24
298.15	0.9594	739.28	0.24
298.15	0.9688	738.42	0.24
298.15	0.9792	737.46	0.24
298.15	0.9902	736.44	0.24
303.15	0.0105	806.55	0.29
303.15	0.0197	805.95	0.29
303.15	0.0321	805.15	0.29
303.15	0.0401	804.63	0.29
303.15	0.0506	803.93	0.29
303.15	0.0595	803.35	0.29
303.15	0.0699	802.67	0.29
303.15	0.0811	801.94	0.29
303.15	0.0901	801.33	0.28
303.15	0.1042	800.41	0.28
303.15	0.1506	797.3	0.28
303.15	0.2078	793.4	0.27
303.15	0.252	790.33	0.27
303.15	0.301	786.88	0.26
303.15	0.3492	783.41	0.26
303.15	0.3996	779.75	0.26
303.15	0.4577	775.42	0.25
303.15	0.4985	772.36	0.25
303.15	0.5512	768.33	0.25
303.15	0.5999	764.55	0.25
303.15	0.6506	760.51	0.25
303.15	0.6986	756.67	0.24
303.15	0.7451	752.92	0.24
303.15	0.7976	748.39	0.24
303.15	0.8534	743.59	0.24
303.15	0.898	739.63	0.24
303.15	0.9098	738.59	0.24
303.15	0.9195	737.72	0.24
303.15	0.9289	736.85	0.24
303.15	0.9419	735.67	0.24
303.15	0.9495	734.96	0.24
303.15	0.9594	734.04	0.24
303.15	0.9688	733.17	0.24
303.15	0.9792	732.2	0.24
303.15	0.9902	731.16	0.24
308.15	0.0105	802.82	0.29
308.15	0.0197	802.2	0.29
308.15	0.0321	801.39	0.29
308.15	0.0401	800.86	0.29
308.15	0.0506	800.15	0.29
308.15	0.0595	799.56	0.29
308.15	0.0699	798.87	0.29
308.15	0.0811	798.11	0.29
308.15	0.0901	797.5	0.28
308.15	0.1042	796.55	0.28
308.15	0.1506	793.39	0.28
308.15	0.2078	789.41	0.27
308.15	0.252	786.28	0.27
308.15	0.301	782.75	0.26
308.15	0.3492	779.21	0.26
308.15	0.3996	775.48	0.26
308.15	0.4577	771.06	0.25
308.15	0.4985	767.93	0.25
308.15	0.5512	763.81	0.25
308.15	0.5999	759.95	0.25
308.15	0.6506	755.83	0.25
308.15	0.6986	751.9	0.25
308.15	0.7451	748.06	0.24
308.15	0.7976	743.42	0.24
308.15	0.8534	738.51	0.24
308.15	0.898	734.47	0.24
308.15	0.9098	733.41	0.24
308.15	0.9195	732.53	0.24
308.15	0.9289	731.64	0.24
308.15	0.9419	730.43	0.24
308.15	0.9495	729.72	0.24
308.15	0.9594	728.78	0.24
308.15	0.9688	727.88	0.24
308.15	0.9792	726.89	0.24
308.15	0.9902	725.83	0.24

System: hexan-1-ol + 2-methoxy-2-methylpropane; phases: Liquid
Fixed: Pressure, kPa = 101
Property: Viscosity, Pa*s (Liquid); method: Concentric cylinders viscometry
Temperature, K	Mole fraction of 2-methoxy-2-methylpropane	Viscosity, Pa*s	uncertainty
293.15	0.0103	0.0052229	0.0002191
293.15	0.0204	0.0050392	0.0002113
293.15	0.0304	0.0048703	0.0002041
293.15	0.0408	0.0046961	0.0001967
293.15	0.0495	0.0045617	0.0001909
293.15	0.0625	0.0043611	0.0001824
293.15	0.0705	0.0042522	0.0001777
293.15	0.0799	0.0041131	0.000172
293.15	0.0912	0.003959	0.0001654
293.15	0.0994	0.0038522	0.0001609
293.15	0.1508	0.0032525	0.0001354
293.15	0.205	0.0027329	0.0001135
293.15	0.2579	0.0023176	9.61e-05
293.15	0.3	0.002047	8.46e-05
293.15	0.3574	0.001724	7.12e-05
293.15	0.4012	0.0015299	6.31e-05
293.15	0.4501	0.0013238	5.46e-05
293.15	0.5028	0.0011447	4.71e-05
293.15	0.5637	0.0009727	4.01e-05
293.15	0.598	0.0008885	3.66e-05
293.15	0.6508	0.0007769	3.2e-05
293.15	0.7	0.0006805	2.81e-05
293.15	0.7493	0.0006088	2.52e-05
293.15	0.7994	0.0005397	2.24e-05
293.15	0.8514	0.0004782	1.99e-05
293.15	0.903	0.000424	1.77e-05
293.15	0.9095	0.000418	1.75e-05
293.15	0.9204	0.0004077	1.71e-05
293.15	0.9294	0.0003999	1.68e-05
293.15	0.9397	0.0003904	1.64e-05
293.15	0.9495	0.000382	1.61e-05
293.15	0.9589	0.000374	1.57e-05
293.15	0.969	0.0003661	1.54e-05
293.15	0.9791	0.0003582	1.51e-05
293.15	0.9899	0.0003508	1.48e-05
298.15	0.0103	0.0044601	0.0001884
298.15	0.0204	0.0043145	0.0001807
298.15	0.0304	0.0041751	0.0001748
298.15	0.0408	0.004036	0.0001688
298.15	0.0495	0.0039252	0.0001642
298.15	0.0625	0.0037614	0.0001571
298.15	0.0705	0.0036697	0.0001534
298.15	0.0799	0.0035555	0.0001485
298.15	0.0912	0.0034333	0.0001432
298.15	0.0994	0.0033433	0.0001387
298.15	0.1508	0.0028424	0.0001182
298.15	0.205	0.00244	0.0001012
298.15	0.2579	0.0020667	8.57e-05
298.15	0.3	0.0018282	7.55e-05
298.15	0.3574	0.0015603	6.45e-05
298.15	0.4012	0.0013684	5.65e-05
298.15	0.4501	0.0011971	4.93e-05
298.15	0.5028	0.0010448	4.3e-05
298.15	0.5637	0.0008921	3.68e-05
298.15	0.598	0.0008156	3.36e-05
298.15	0.6508	0.0007149	2.95e-05
298.15	0.7	0.0006305	2.61e-05
298.15	0.7493	0.0005658	2.34e-05
298.15	0.7994	0.0005033	2.09e-05
298.15	0.8514	0.0004484	1.87e-05
298.15	0.903	0.000397	1.66e-05
298.15	0.9095	0.0003923	1.65e-05
298.15	0.9204	0.0003825	1.61e-05
298.15	0.9294	0.0003756	1.58e-05
298.15	0.9397	0.0003661	1.54e-05
298.15	0.9495	0.0003603	1.52e-05
298.15	0.9589	0.0003542	1.5e-05
298.15	0.969	0.0003441	1.46e-05
298.15	0.9791	0.000337	1.43e-05
298.15	0.9899	0.0003303	1.4e-05
303.15	0.0103	0.0038318	0.0001615
303.15	0.0204	0.0037136	0.0001554
303.15	0.0304	0.0035997	0.0001505
303.15	0.0408	0.0034862	0.0001457
303.15	0.0495	0.0033949	0.0001419
303.15	0.0625	0.0032588	0.000136
303.15	0.0705	0.0031848	0.000133
303.15	0.0799	0.0030896	0.0001289
303.15	0.0912	0.0029914	0.0001246
303.15	0.0994	0.0029125	0.0001209
303.15	0.1508	0.0024931	0.0001036
303.15	0.205	0.0021733	9.01e-05
303.15	0.2579	0.0018478	7.66e-05
303.15	0.3	0.0016356	6.76e-05
303.15	0.3574	0.0013923	5.75e-05
303.15	0.4012	0.0012387	5.11e-05
303.15	0.4501	0.0010903	4.49e-05
303.15	0.5028	0.0009538	3.93e-05
303.15	0.5637	0.0008183	3.38e-05
303.15	0.598	0.0007488	3.09e-05
303.15	0.6508	0.0006592	2.73e-05
303.15	0.7	0.0005829	2.41e-05
303.15	0.7493	0.000523	2.17e-05
303.15	0.7994	0.0004676	1.95e-05
303.15	0.8514	0.0004172	1.75e-05
303.15	0.903	0.0003679	1.56e-05
303.15	0.9095	0.0003635	1.54e-05
303.15	0.9204	0.0003535	1.49e-05
303.15	0.9294	0.0003485	1.47e-05
303.15	0.9397	0.0003396	1.44e-05
303.15	0.9495	0.0003326	1.41e-05
303.15	0.9589	0.0003253	1.38e-05
303.15	0.969	0.0003206	1.36e-05
303.15	0.9791	0.0003139	1.34e-05
303.15	0.9899	0.0003069	1.31e-05
308.15	0.0103	0.0033099	0.0001384
308.15	0.0204	0.0032142	0.0001344
308.15	0.0304	0.0031201	0.0001304
308.15	0.0408	0.0030265	0.0001264
308.15	0.0495	0.0029511	0.0001232
308.15	0.0625	0.0028387	0.0001184
308.15	0.0705	0.0027791	0.0001159
308.15	0.0799	0.0026991	0.0001125
308.15	0.0912	0.0026212	0.0001092
308.15	0.0994	0.0025494	0.0001066
308.15	0.1508	0.002198	9.14e-05
308.15	0.205	0.0018923	7.85e-05
308.15	0.2579	0.0016339	6.77e-05
308.15	0.3	0.0014677	6.07e-05
308.15	0.3574	0.0012574	5.2e-05
308.15	0.4012	0.0011221	4.63e-05
308.15	0.4501	0.0009929	4.1e-05
308.15	0.5028	0.0008711	3.59e-05
308.15	0.5637	0.0007502	3.1e-05
308.15	0.598	0.0006862	2.84e-05
308.15	0.6508	0.0006063	2.51e-05
308.15	0.7	0.0005443	2.26e-05
308.15	0.7493	0.000481	2e-05
308.15	0.7994	0.0004306	1.8e-05
308.15	0.8514	0.000389	1.63e-05
308.15	0.903	0.0003464	1.46e-05
308.15	0.9095	0.0003436	1.45e-05
308.15	0.9204	0.0003351	1.42e-05
308.15	0.9294	0.0003282	1.4e-05
308.15	0.9397	0.0003202	1.37e-05
308.15	0.9495	0.0003124	1.33e-05
308.15	0.9589	0.0003083	1.31e-05
308.15	0.969	0.0003023	1.29e-05
308.15	0.9791	0.0002969	1.27e-05
308.15	0.9899	0.0002898	1.25e-05

System: hexan-1-ol + 2-methoxy-2-methylpropane; phases: Liquid
Fixed: Pressure, kPa = 101
Property: Mass density, kg/m3 (Liquid); method: Vibrating tube method
Temperature, K	Mole fraction of 2-methoxy-2-methylpropane	Mass density, kg/m3	uncertainty
293.15	0.0103	818.26	0.63
293.15	0.0204	817.68	0.62
293.15	0.0304	817.11	0.61
293.15	0.0408	816.51	0.6
293.15	0.0495	816	0.59
293.15	0.0625	815.23	0.58
293.15	0.0705	814.74	0.57
293.15	0.0799	814.17	0.56
293.15	0.0912	813.49	0.55
293.15	0.0994	813.01	0.55
293.15	0.1508	809.87	0.5
293.15	0.205	806.42	0.46
293.15	0.2579	802.99	0.43
293.15	0.3	800.17	0.4
293.15	0.3574	796.2	0.37
293.15	0.4012	793.09	0.35
293.15	0.4501	789.54	0.33
293.15	0.5028	785.58	0.31
293.15	0.5637	780.83	0.29
293.15	0.598	778.11	0.29
293.15	0.6508	773.76	0.27
293.15	0.7	769.62	0.26
293.15	0.7493	765.32	0.26
293.15	0.7994	760.79	0.25
293.15	0.8514	755.91	0.25
293.15	0.903	750.84	0.24
293.15	0.9095	750.2	0.24
293.15	0.9204	749.1	0.24
293.15	0.9294	748.16	0.24
293.15	0.9397	747.1	0.24
293.15	0.9495	746.08	0.24
293.15	0.9589	745.09	0.24
293.15	0.969	744.04	0.24
293.15	0.9791	742.95	0.24
293.15	0.9899	741.78	0.24
298.15	0.0103	814.71	0.63
298.15	0.0204	814.12	0.62
298.15	0.0304	813.53	0.61
298.15	0.0408	812.92	0.6
298.15	0.0495	812.4	0.59
298.15	0.0625	811.62	0.58
298.15	0.0705	811.12	0.57
298.15	0.0799	810.54	0.56
298.15	0.0912	809.83	0.55
298.15	0.0994	809.36	0.54
298.15	0.1508	806.15	0.5
298.15	0.205	802.7	0.46
298.15	0.2579	799.15	0.43
298.15	0.3	796.26	0.4
298.15	0.3574	792.23	0.37
298.15	0.4012	789.05	0.35
298.15	0.4501	785.43	0.33
298.15	0.5028	781.39	0.31
298.15	0.5637	776.53	0.3
298.15	0.598	773.75	0.29
298.15	0.6508	769.32	0.27
298.15	0.7	765.05	0.27
298.15	0.7493	760.67	0.26
298.15	0.7994	756.02	0.25
298.15	0.8514	751.04	0.25
298.15	0.903	745.85	0.24
298.15	0.9095	745.2	0.24
298.15	0.9204	744.07	0.24
298.15	0.9294	743.14	0.24
298.15	0.9397	742.04	0.24
298.15	0.9495	741.01	0.24
298.15	0.9589	739.99	0.24
298.15	0.969	738.91	0.24
298.15	0.9791	737.79	0.24
298.15	0.9899	736.6	0.24
303.15	0.0103	811.1	0.63
303.15	0.0204	810.49	0.62
303.15	0.0304	809.9	0.61
303.15	0.0408	809.27	0.6
303.15	0.0495	808.75	0.59
303.15	0.0625	807.96	0.57
303.15	0.0705	807.44	0.57
303.15	0.0799	806.85	0.56
303.15	0.0912	806.14	0.55
303.15	0.0994	805.66	0.54
303.15	0.1508	802.39	0.5
303.15	0.205	798.86	0.46
303.15	0.2579	795.26	0.42
303.15	0.3	792.3	0.4
303.15	0.3574	788.18	0.37
303.15	0.4012	784.94	0.35
303.15	0.4501	781.24	0.33
303.15	0.5028	777.12	0.31
303.15	0.5637	772.16	0.3
303.15	0.598	769.31	0.29
303.15	0.6508	764.78	0.28
303.15	0.7	760.44	0.27
303.15	0.7493	755.96	0.26
303.15	0.7994	751.14	0.25
303.15	0.8514	746.09	0.25
303.15	0.903	740.79	0.25
303.15	0.9095	740.12	0.25
303.15	0.9204	738.99	0.24
303.15	0.9294	738	0.24
303.15	0.9397	736.89	0.24
303.15	0.9495	735.83	0.24
303.15	0.9589	734.79	0.24
303.15	0.969	733.68	0.24
303.15	0.9791	732.55	0.24
303.15	0.9899	731.33	0.24
308.15	0.0103	807.46	0.62
308.15	0.0204	806.85	0.61
308.15	0.0304	806.24	0.6
308.15	0.0408	805.6	0.59
308.15	0.0495	805.07	0.58
308.15	0.0625	804.26	0.57
308.15	0.0705	803.74	0.56
308.15	0.0799	803.14	0.56
308.15	0.0912	802.42	0.55
308.15	0.0994	801.92	0.54
308.15	0.1508	798.59	0.49
308.15	0.205	795	0.46
308.15	0.2579	791.32	0.42
308.15	0.3	788.3	0.4
308.15	0.3574	784.11	0.37
308.15	0.4012	780.8	0.35
308.15	0.4501	777.03	0.33
308.15	0.5028	772.81	0.31
308.15	0.5637	767.75	0.3
308.15	0.598	764.84	0.29
308.15	0.6508	760.21	0.28
308.15	0.7	755.77	0.27
308.15	0.7493	751.19	0.26
308.15	0.7994	746.31	0.25
308.15	0.8514	741.09	0.25
308.15	0.903	735.68	0.25
308.15	0.9095	735	0.25
308.15	0.9204	733.83	0.25
308.15	0.9294	732.83	0.25
308.15	0.9397	731.69	0.24
308.15	0.9495	730.61	0.24
308.15	0.9589	729.54	0.24
308.15	0.969	728.41	0.24
308.15	0.9791	727.25	0.24
308.15	0.9899	726.01	0.24
