Measured thermophysical data. A calorimetric and thermodynamic investigation of potassium uranyl tungstate K2[(UO2)(W2O8)]
Source: J. Chem. Thermodyn., 2013, 10.1016/j.jct.2012.09.014
Compound 1: potassium, K, InChI=1S/K
Compound 2: tungsten, W, InChI=1S/W
Compound 3: uranium, U, InChI=1S/U
Compound 4: oxygen, O2, InChI=1S/O2/c1-2
Compound 5: potassium uranyl tungstate, K2O10UW2, InChI=1S/2K.10O.U.2W/q2*+1;;;;;;;4*-2;3*+2, purity 99.8%

System: potassium uranyl tungstate; phases: Crystal
Fixed: Pressure, kPa = 101.325
Property: Molar heat capacity at constant pressure, J/K/mol (Crystal); method: Vacuum adiabatic calorimetry
Temperature, K	Molar heat capacity at constant pressure, J/K/mol	uncertainty
9	1.616	0.083
9.2	1.707	0.086
9.5	1.82	0.089
9.7	1.922	0.093
9.9	2.035	0.097
10.1	2.153	0.101
10.4	2.266	0.108
10.6	2.378	0.112
10.8	2.499	0.117
11.1	2.647	0.122
11.3	2.786	0.129
11.5	2.938	0.134
11.8	3.118	0.142
12.1	3.278	0.148
12.3	3.433	0.153
12.6	3.613	0.16
12.8	3.769	0.166
13.1	3.952	0.174
13.4	4.113	0.179
13.6	4.29	0.185
13.9	4.463	0.193
14.2	4.681	0.201
14.4	4.787	0.208
14.7	4.965	0.214
15	5.227	0.098
15.3	5.396	0.103
15.5	5.667	0.107
15.8	5.884	0.113
16.1	6.153	0.115
16.4	6.465	0.135
16.7	6.767	0.128
17	7.053	0.138
17.4	7.762	0.139
17.7	7.811	0.139
18	8.281	0.148
18.3	8.505	0.141
18.6	8.815	0.144
18.9	9.231	0.141
19.2	9.628	0.146
19.5	9.692	0.164
19.8	10.01	0.16
20.1	10.3	0.18
20.7	11.4	0.2
21.6	12.88	0.2
22.5	14.05	0.24
23.4	16.13	0.26
24.3	17.66	0.27
25.2	19.53	0.3
26.1	21.62	0.32
27	23.61	0.33
27.9	25.52	0.34
28.9	27.64	0.36
29.8	29.76	0.37
30.8	31.67	0.4
31.7	34.08	0.41
32.7	35.79	0.42
33.7	38.14	0.46
34.6	40.54	0.49
35.6	43.01	0.51
36.6	45.53	0.51
37.6	47.45	0.53
38.9	50.58	0.57
39.9	52.99	0.59
40.9	55.39	0.35
41.8	57.72	0.35
42.8	60.06	0.33
43.8	61.7	0.35
44.8	64.36	0.39
45.8	67	0.4
46.8	69.69	0.38
47.9	71.61	0.38
49.9	76.35	0.42
50.9	79.07	0.45
51.9	82.12	0.44
54.1	87.18	0.46
57.3	95.69	0.49
58.3	97.65	0.52
59.4	101.9	0.5
60.4	102.8	0.5
61.4	105.6	0.5
62.5	107.5	0.5
63.5	109.6	0.5
64.5	111.3	0.5
65.6	114.4	0.6
66.6	117.9	0.6
67.7	119.7	0.5
68.7	121.4	0.6
69.7	124.7	0.6
71.3	127.5	0.6
73.3	131	0.6
75.3	136.3	0.6
78.6	141.6	0.6
80.9	146.7	0.7
82.9	151.2	0.7
84.9	155.5	0.7
86.9	160	0.7
89	162.6	0.7
91	167.5	0.8
93	171.3	0.8
95	173.9	0.8
96.9	176.4	0.8
98.9	179.7	0.8
100.9	183.2	0.8
103.4	188.7	0.8
106.4	194.6	0.8
109.3	199.4	0.9
112.3	203.5	0.9
115.7	206.5	0.9
119.1	211.5	0.9
122.1	214.6	0.9
125.1	219.1	0.9
128.2	223.5	1
131.2	227.4	1
134.2	231.1	1
137.3	235.1	1
140.3	237.7	1
143.4	242.6	1
146.4	245.7	1
149.5	249.5	1.1
152.5	252.6	1.1
155.6	254.8	1.1
158.6	258	1.1
161.7	260.4	1.1
164.8	263.1	1.1
167.9	266.1	1.1
171	269	1.1
174	273.1	1.1
177.1	275.1	1.2
180.2	278.9	1.2
183.2	280.8	1.2
186.3	284.5	1.2
189.4	287.1	1.2
192.4	289.2	1.2
195.5	291.7	1.2
198.6	295.3	1.2
202.1	298.7	1.2
206.2	301.3	1.3
210.3	304.8	1.3
214.4	308.4	1.3
218.6	312	1.3
222.7	314.3	1.3
226.8	318.6	1.3
230.9	321.2	1.3
235	323.4	1.3
239.1	326	1.4
243.2	328.2	1.4
247.2	331.1	1.4
251.3	332.2	1.4
255.4	333.6	1.4
259.4	336.2	1.4
263.5	338.2	1.4
267.5	340.1	1.4
271.5	342.9	1.4
275.5	345	1.4
279.5	346.4	1.4
283.5	348.8	1.4
287.5	350	1.5
291.4	351.3	1.5
295.4	352.7	1.5
299.3	354.4	1.5
303.8	358	1.5
308.9	361.4	1.5
314	363.6	1.5
319.1	365.8	1.5
324.1	369.5	1.5
329	370.8	1.5

Reaction: -2 potassium + -2 tungsten + -1 uranium + 1 potassium uranyl tungstate + -5 oxygen
Property: Molar enthalpy of reaction, kJ/mol
-3897
