Measured thermophysical data. Temperature effect on the viscosity and heat capacity behaviour of some amino acids in water and aqueous magnesium chloride solutions
Source: J. Chem. Thermodyn., 2007, 10.1016/j.jct.2006.08.005
Compound 1: 2-aminoacetic acid, C2H5NO2, InChI=1S/C2H5NO2/c3-1-2(4)5/h1,3H2,(H,4,5), purity 99%
Compound 2: (S)-2-aminopropanoic acid, C3H7NO2, InChI=1S/C3H7NO2/c1-2(4)3(5)6/h2H,4H2,1H3,(H,5,6)/t2-/m0/s1, purity 99%
Compound 3: L-leucine, C6H13NO2, InChI=1S/C6H13NO2/c1-4(2)3-5(7)6(8)9/h4-5H,3,7H2,1-2H3,(H,8,9)/t5-/m0/s1, purity 98%
Compound 4: magnesium chloride, Cl2Mg, InChI=1S/2ClH.Mg/h2*1H;/q;;+2/p-2, purity 99.5%
Compound 5: water, H2O, InChI=1S/H2O/h1H2

System: 2-aminoacetic acid + water; phases: Liquid
Fixed: Pressure, kPa = 101
Property: Viscosity, Pa*s (Liquid); method: Capillary tube (Ostwald; Ubbelohde) method
Temperature, K	Amount concentration (molarity), mol/dm3 of 2-aminoacetic acid	Viscosity, Pa*s	uncertainty
288.15	0.0518	1.007	0.011
288.15	0.09594	1.012	0.011
288.15	0.19919	1.025	0.011
288.15	0.32782	1.042	0.011
288.15	0.385	1.048	0.011
288.15	0.48482	1.062	0.011
298.15	0.04814	1.007	0.011
298.15	0.09792	1.014	0.011
298.15	0.20347	1.029	0.011
298.15	0.30685	1.044	0.011
298.15	0.39329	1.056	0.011
298.15	0.48375	1.069	0.011
308.15	0.05112	1.008	0.011
308.15	0.09663	1.014	0.011
308.15	0.19707	1.03	0.011
308.15	0.29246	1.043	0.011
308.15	0.38386	1.057	0.011
308.15	0.4201	1.062	0.011

System: (S)-2-aminopropanoic acid + water; phases: Liquid
Fixed: Pressure, kPa = 101
Property: Viscosity, Pa*s (Liquid); method: Capillary tube (Ostwald; Ubbelohde) method
Temperature, K	Amount concentration (molarity), mol/dm3 of (S)-2-aminopropanoic acid	Viscosity, Pa*s	uncertainty
288.15	0.05455	1.014	0.011
288.15	0.10445	1.027	0.011
288.15	0.19778	1.051	0.011
288.15	0.29815	1.077	0.011
288.15	0.39249	1.103	0.011
288.15	0.50948	1.135	0.011
298.15	0.0495	1.013	0.011
298.15	0.09999	1.026	0.011
298.15	0.19253	1.049	0.011
298.15	0.29064	1.075	0.011
298.15	0.38004	1.098	0.011
298.15	0.48334	1.126	0.011
298.15	0.4848	1.123	0.011
308.15	0.04816	1.012	0.011
308.15	0.06814	1.016	0.011
308.15	0.10297	1.026	0.011
308.15	0.20065	1.049	0.011
308.15	0.30198	1.075	0.011
308.15	0.38091	1.096	0.011

System: L-leucine + water; phases: Liquid
Fixed: Pressure, kPa = 101
Property: Viscosity, Pa*s (Liquid); method: Capillary tube (Ostwald; Ubbelohde) method
Temperature, K	Amount concentration (molarity), mol/dm3 of L-leucine	Viscosity, Pa*s	uncertainty
288.15	0.01026	1.006	0.011
288.15	0.0212	1.011	0.011
288.15	0.04012	1.022	0.011
288.15	0.06032	1.032	0.011
288.15	0.07848	1.038	0.011
288.15	0.08172	1.044	0.011
288.15	0.09647	1.046	0.011
288.15	0.09743	1.052	0.011
298.15	0.01023	1.005	0.011
298.15	0.02116	1.01	0.011
298.15	0.04004	1.02	0.011
298.15	0.06019	1.029	0.011
298.15	0.08155	1.039	0.011
298.15	0.09723	1.048	0.011
308.15	0.01162	1.006	0.011
308.15	0.01883	1.009	0.011
308.15	0.02844	1.014	0.011
308.15	0.04021	1.019	0.011
308.15	0.04939	1.024	0.011
308.15	0.06854	1.034	0.011

System: 2-aminoacetic acid + water + magnesium chloride; phases: Liquid
Fixed: Pressure, kPa = 101
Property: Viscosity, Pa*s (Liquid); method: Capillary tube (Ostwald; Ubbelohde) method
Temperature, K	Solvent: Molality, mol/kg of magnesium chloride	Amount concentration (molarity), mol/dm3 of 2-aminoacetic acid	Viscosity, Pa*s	uncertainty
288.15	0.0502	0.05013	0.001172	8e-06
288.15	0.0502	0.09785	0.001179	8e-06
288.15	0.0502	0.20063	0.001194	8e-06
288.15	0.0502	0.29247	0.001209	8e-06
288.15	0.0502	0.40133	0.001226	8e-06
288.15	0.0502	0.48305	0.001239	8e-06
288.15	0.10037	0.05324	0.001197	8e-06
288.15	0.10037	0.10241	0.001206	8e-06
288.15	0.10037	0.19601	0.001221	8e-06
288.15	0.10037	0.29672	0.001235	8e-06
288.15	0.10037	0.40327	0.001254	8e-06
288.15	0.10037	0.49156	0.001267	8e-06
288.15	0.40318	0.05411	0.001142	8e-06
288.15	0.40318	0.10192	0.00115	8e-06
288.15	0.40318	0.20734	0.001167	8e-06
288.15	0.40318	0.30033	0.001183	8e-06
288.15	0.40318	0.40651	0.001201	8e-06
288.15	0.40318	0.49746	0.001216	8e-06
288.15	0.81327	0.05304	0.001561	1e-05
288.15	0.81327	0.10308	0.001572	1e-05
288.15	0.81327	0.21013	0.001598	1e-05
288.15	0.81327	0.31061	0.001623	1e-05
288.15	0.81327	0.41648	0.001649	1.1e-05
288.15	0.81327	0.51017	0.001674	1.1e-05
298.15	0.04992	0.04962	0.000918	6e-06
298.15	0.04992	0.0996	0.000924	6e-06
298.15	0.04992	0.19536	0.000937	6e-06
298.15	0.04992	0.29695	0.00095	6e-06
298.15	0.04992	0.39768	0.000963	7e-06
298.15	0.04992	0.48761	0.000976	7e-06
298.15	0.09953	0.04769	0.000933	6e-06
298.15	0.09953	0.09944	0.00094	6e-06
298.15	0.09953	0.20041	0.000954	6e-06
298.15	0.09953	0.30403	0.000969	7e-06
298.15	0.09953	0.39556	0.000982	7e-06
298.15	0.09953	0.49191	0.000994	7e-06
298.15	0.40352	0.05176	0.00105	7e-06
298.15	0.40352	0.09847	0.001058	7e-06
298.15	0.40352	0.20543	0.001075	7e-06
298.15	0.40352	0.30338	0.001089	7e-06
298.15	0.40352	0.40372	0.001105	7e-06
298.15	0.40352	0.51316	0.001125	7e-06
298.15	0.81468	0.05211	0.001228	8e-06
298.15	0.81468	0.10408	0.001238	8e-06
298.15	0.81468	0.20534	0.001256	8e-06
298.15	0.81468	0.32314	0.001286	8e-06
298.15	0.81468	0.41636	0.001301	9e-06
298.15	0.81468	0.51063	0.00132	9e-06
308.15	0.05055	0.04661	0.000742	5e-06
308.15	0.05055	0.09849	0.000748	5e-06
308.15	0.05055	0.19915	0.000759	5e-06
308.15	0.05055	0.29178	0.000768	5e-06
308.15	0.05055	0.39454	0.000779	5e-06
308.15	0.05055	0.49269	0.000791	6e-06
308.15	0.10074	0.04674	0.000759	5e-06
308.15	0.10074	0.10036	0.000765	5e-06
308.15	0.10074	0.19349	0.000777	5e-06
308.15	0.10074	0.27746	0.000786	5e-06
308.15	0.10074	0.36228	0.000795	6e-06
308.15	0.10074	0.47797	0.000808	6e-06
308.15	0.40571	0.05575	0.000852	6e-06
308.15	0.40571	0.09387	0.000857	6e-06
308.15	0.40571	0.19139	0.000871	6e-06
308.15	0.40571	0.27423	0.000882	6e-06
308.15	0.40571	0.3903	0.000897	6e-06
308.15	0.40571	0.47017	0.000908	6e-06
308.15	0.82155	0.04492	0.000994	7e-06
308.15	0.82155	0.09902	0.001003	7e-06
308.15	0.82155	0.22246	0.001025	7e-06
308.15	0.82155	0.40644	0.001054	7e-06
308.15	0.82155	0.4906	0.001067	7e-06
308.15	0.82155	0.5756	0.001082	7e-06

System: (S)-2-aminopropanoic acid + water + magnesium chloride; phases: Liquid
Fixed: Pressure, kPa = 101
Property: Viscosity, Pa*s (Liquid); method: Capillary tube (Ostwald; Ubbelohde) method
Temperature, K	Solvent: Molality, mol/kg of magnesium chloride	Amount concentration (molarity), mol/dm3 of (S)-2-aminopropanoic acid	Viscosity, Pa*s	uncertainty
288.15	0.05035	0.04956	0.00118	8e-06
288.15	0.05035	0.10074	0.001195	8e-06
288.15	0.05035	0.1979	0.001227	8e-06
288.15	0.05035	0.29468	0.001256	8e-06
288.15	0.05035	0.38408	0.001286	8e-06
288.15	0.05035	0.47189	0.001314	9e-06
288.15	0.09966	0.05366	0.001044	7e-06
288.15	0.09966	0.11095	0.00106	7e-06
288.15	0.09966	0.20173	0.001087	7e-06
288.15	0.09966	0.29524	0.001112	7e-06
288.15	0.09966	0.39267	0.00114	8e-06
288.15	0.09966	0.49912	0.001169	8e-06
288.15	0.40354	0.05111	0.001356	9e-06
288.15	0.40354	0.09951	0.001373	9e-06
288.15	0.40354	0.19628	0.001411	9e-06
288.15	0.40354	0.28666	0.001443	9e-06
288.15	0.40354	0.3843	0.001481	1e-05
288.15	0.40354	0.47659	0.001517	1e-05
288.15	0.81307	0.05363	0.001576	1e-05
288.15	0.81307	0.10365	0.001596	1e-05
288.15	0.81307	0.2107	0.00165	1.1e-05
288.15	0.81307	0.31391	0.001694	1.1e-05
288.15	0.81307	0.40901	0.00174	1.1e-05
288.15	0.81307	0.50997	0.001788	1.1e-05
298.15	0.05046	0.04945	0.000923	6e-06
298.15	0.05046	0.10052	0.000936	6e-06
298.15	0.05046	0.19747	0.000961	7e-06
298.15	0.05046	0.29402	0.00098	7e-06
298.15	0.05046	0.38318	0.001004	7e-06
298.15	0.05046	0.47072	0.001025	7e-06
298.15	0.10047	0.05078	0.000942	6e-06
298.15	0.10047	0.1053	0.000955	6e-06
298.15	0.10047	0.19816	0.00098	7e-06
298.15	0.10047	0.30031	0.001006	7e-06
298.15	0.10047	0.3935	0.001028	7e-06
298.15	0.10047	0.47534	0.001049	7e-06
298.15	0.40453	0.05099	0.00106	7e-06
298.15	0.40453	0.09927	0.001073	7e-06
298.15	0.40453	0.1958	0.001101	7e-06
298.15	0.40453	0.28595	0.001129	8e-06
298.15	0.40453	0.38332	0.001157	8e-06
298.15	0.40453	0.47535	0.001184	8e-06
298.15	0.81334	0.05349	0.001241	8e-06
298.15	0.81334	0.10339	0.001256	8e-06
298.15	0.81334	0.21015	0.001298	9e-06
298.15	0.81334	0.31308	0.001336	9e-06
298.15	0.81334	0.40791	0.00137	9e-06
298.15	0.81334	0.50857	0.001407	9e-06
308.15	0.0505	0.04973	0.000744	5e-06
308.15	0.0505	0.09898	0.000753	5e-06
308.15	0.0505	0.1983	0.000773	5e-06
308.15	0.0505	0.29007	0.000789	5e-06
308.15	0.0505	0.38881	0.00081	6e-06
308.15	0.0505	0.49348	0.000829	6e-06
308.15	0.10444	0.04994	0.000762	5e-06
308.15	0.10444	0.10071	0.000774	5e-06
308.15	0.10444	0.19512	0.000791	6e-06
308.15	0.10444	0.28213	0.000809	6e-06
308.15	0.10444	0.37849	0.000827	6e-06
308.15	0.10444	0.47723	0.000848	6e-06
308.15	0.40544	0.05365	0.000856	6e-06
308.15	0.40544	0.10409	0.000869	6e-06
308.15	0.40544	0.19712	0.000891	6e-06
308.15	0.40544	0.29978	0.000917	6e-06
308.15	0.40544	0.38239	0.000935	6e-06
308.15	0.40544	0.48972	0.000958	7e-06
308.15	0.81834	0.05035	0.000998	7e-06
308.15	0.81834	0.09939	0.001013	7e-06
308.15	0.81834	0.19716	0.001041	7e-06
308.15	0.81834	0.28955	0.001069	7e-06
308.15	0.81834	0.38098	0.001092	7e-06
308.15	0.81834	0.48753	0.001126	8e-06

System: L-leucine + water + magnesium chloride; phases: Liquid
Fixed: Pressure, kPa = 101
Property: Molar heat capacity at constant pressure, J/K/mol (Liquid); method: SDSC:UFactor:0.25
Temperature, K	Solvent: Molality, mol/kg of magnesium chloride	Molality, mol/kg of L-leucine	Molar heat capacity at constant pressure, J/K/mol	uncertainty
298.15	0	0.0089	75.35625	0.3769
298.15	0	0.02091	75.426	0.3774
298.15	0	0.03019	75.48145	0.3778
298.15	0	0.04872	75.58824	0.3786
298.15	0	0.05465	75.62227	0.3788
298.15	0	0.0791	75.76064	0.3781
298.15	0	0.10059	75.79507	0.379
298.15	0.05038	0.00953	75.09314	0.3748
298.15	0.05038	0.01922	75.14811	0.3752
298.15	0.05038	0.02886	75.20439	0.3756
298.15	0.05038	0.03872	75.26244	0.376
298.15	0.05038	0.04827	75.3196	0.3764
298.15	0.10416	0.0097	74.8461	0.3745
298.15	0.10416	0.01912	74.90017	0.3749
298.15	0.10416	0.02883	74.95843	0.3753
298.15	0.10416	0.03884	75.01732	0.3757
298.15	0.10416	0.04803	75.07285	0.3761
298.15	0.32172	0.00951	73.94177	0.3696
298.15	0.32172	0.01901	73.99862	0.37
298.15	0.32172	0.02867	74.05672	0.3704
298.15	0.32172	0.03819	74.11915	0.3708
298.15	0.32172	0.04784	74.18074	0.3712
298.15	0.48903	0.00967	73.47695	0.3667
298.15	0.48903	0.0202	73.54323	0.3671
298.15	0.48903	0.02902	73.59721	0.3675
298.15	0.48903	0.03961	73.66571	0.3679
298.15	0.48903	0.04889	73.72711	0.3683
303.15	0	0.0089	75.3256	0.3769
303.15	0	0.02091	75.39711	0.3774
303.15	0	0.03019	75.45253	0.3778
303.15	0	0.04872	75.56106	0.3786
303.15	0	0.05465	75.59689	0.3788
303.15	0	0.0791	75.74065	0.3781
303.15	0	0.10059	75.86066	0.379
303.15	0.05038	0.00953	75.09133	0.3748
303.15	0.05038	0.01922	75.14811	0.3752
303.15	0.05038	0.02886	75.20439	0.3756
303.15	0.05038	0.03872	75.26425	0.376
303.15	0.05038	0.04827	75.32142	0.3764
303.15	0.10416	0.0097	74.82428	0.3745
303.15	0.10416	0.01912	74.88015	0.3749
303.15	0.10416	0.02883	74.93657	0.3753
303.15	0.10416	0.03884	74.99725	0.3757
303.15	0.10416	0.04803	75.05277	0.3761
303.15	0.32172	0.00951	73.98058	0.3696
303.15	0.32172	0.01901	74.03932	0.37
303.15	0.32172	0.02867	74.09932	0.3704
303.15	0.32172	0.03819	74.15994	0.3708
303.15	0.32172	0.04784	74.22157	0.3712
303.15	0.48903	0.00967	73.50128	0.3667
303.15	0.48903	0.0202	73.56946	0.3671
303.15	0.48903	0.02902	73.62534	0.3675
303.15	0.48903	0.03961	73.69387	0.3679
303.15	0.48903	0.04889	73.7553	0.3683
308.15	0	0.0089	75.30937	0.3769
308.15	0	0.02091	75.38086	0.3774
308.15	0	0.03019	75.43626	0.3778
308.15	0	0.04872	75.54476	0.3786
308.15	0	0.05465	75.58058	0.377
308.15	0	0.0791	75.72429	0.3781
308.15	0	0.10059	75.83515	0.379
308.15	0.05038	0.00953	75.07866	0.3748
308.15	0.05038	0.01922	75.13543	0.3752
308.15	0.05038	0.02886	75.1935	0.3756
308.15	0.05038	0.03872	75.25336	0.376
308.15	0.05038	0.04827	75.31233	0.3764
308.15	0.10416	0.0097	74.82974	0.3745
308.15	0.10416	0.01912	74.88561	0.3749
308.15	0.10416	0.02883	74.94386	0.3753
308.15	0.10416	0.03884	75.00455	0.3757
308.15	0.10416	0.04803	75.0619	0.3761
308.15	0.32172	0.00951	74.03972	0.3696
308.15	0.32172	0.01901	74.09852	0.37
308.15	0.32172	0.02867	74.15858	0.3704
308.15	0.32172	0.03819	74.22112	0.3708
308.15	0.32172	0.04784	74.28281	0.3712
308.15	0.48903	0.00967	73.58921	0.3686
308.15	0.48903	0.0202	73.6575	0.369
308.15	0.48903	0.02902	73.71347	0.3694
308.15	0.48903	0.03961	73.78398	0.3698
308.15	0.48903	0.04889	73.8455	0.3683
313.15	0	0.0089	75.30756	0.3769
313.15	0	0.02091	75.37905	0.3774
313.15	0	0.03019	75.43445	0.3778
313.15	0	0.04872	75.54657	0.3786
313.15	0	0.05465	75.57877	0.377
313.15	0	0.0791	75.72247	0.3781
313.15	0	0.10059	75.83151	0.379
313.15	0.05038	0.00953	75.0859	0.3748
313.15	0.05038	0.01922	75.14449	0.3752
313.15	0.05038	0.02886	75.20257	0.3756
313.15	0.05038	0.03872	75.26244	0.376
313.15	0.05038	0.04827	75.32142	0.3764
313.15	0.10416	0.0097	74.84065	0.3745
313.15	0.10416	0.01912	74.89835	0.3749
313.15	0.10416	0.02883	74.95661	0.3753
313.15	0.10416	0.03884	75.01732	0.3757
313.15	0.10416	0.04803	75.07468	0.3761
313.15	0.32172	0.00951	74.01384	0.3696
313.15	0.32172	0.01901	74.07447	0.37
313.15	0.32172	0.02867	74.11784	0.3704
313.15	0.32172	0.03819	74.19887	0.3708
313.15	0.32172	0.04784	74.26054	0.3712
313.15	0.48903	0.00967	73.6547	0.3686
313.15	0.48903	0.0202	73.72493	0.369
313.15	0.48903	0.02902	73.78284	0.3694
313.15	0.48903	0.03961	73.85532	0.3698
313.15	0.48903	0.04889	73.91691	0.3702
318.15	0	0.0089	75.31838	0.3769
318.15	0	0.02091	75.3935	0.3774
318.15	0	0.03019	75.4471	0.3778
318.15	0	0.04872	75.55744	0.3786
318.15	0	0.05465	75.58964	0.3788
318.15	0	0.0791	75.73338	0.3781
318.15	0	0.10059	75.85884	0.379
318.15	0.05038	0.00953	75.09676	0.3748
318.15	0.05038	0.01922	75.15536	0.3752
318.15	0.05038	0.02886	75.21527	0.3756
318.15	0.05038	0.03872	75.27697	0.376
318.15	0.05038	0.04827	75.33778	0.3764
318.15	0.10416	0.0097	74.84792	0.3745
318.15	0.10416	0.01912	74.90563	0.3749
318.15	0.10416	0.02883	74.96572	0.3753
318.15	0.10416	0.03884	75.03008	0.3757
318.15	0.10416	0.04803	75.08746	0.3761
318.15	0.32172	0.00951	73.9584	0.3696
318.15	0.32172	0.01901	74.01897	0.37
318.15	0.32172	0.02867	74.0808	0.3704
318.15	0.32172	0.03819	74.14325	0.3708
318.15	0.32172	0.04784	74.21043	0.3712
318.15	0.48903	0.00967	73.68089	0.3686
318.15	0.48903	0.0202	73.75116	0.369
318.15	0.48903	0.02902	73.80909	0.3694
318.15	0.48903	0.03961	73.8816	0.3698
318.15	0.48903	0.04889	73.9451	0.3702
323.15	0	0.0089	75.34363	0.3769
323.15	0	0.02091	75.41697	0.3774
323.15	0	0.03019	75.46879	0.3778
323.15	0	0.04872	75.58099	0.3786
323.15	0	0.05465	75.61683	0.3788
323.15	0	0.0791	75.76428	0.3781
323.15	0	0.10059	75.89164	0.379
323.15	0.05038	0.00953	75.13116	0.3748
323.15	0.05038	0.01922	75.19161	0.3752
323.15	0.05038	0.02886	75.25156	0.3756
323.15	0.05038	0.03872	75.3133	0.376
323.15	0.05038	0.04827	75.37415	0.3764
323.15	0.10416	0.0097	74.88428	0.3745
323.15	0.10416	0.01912	74.94203	0.3749
323.15	0.10416	0.02883	75.00216	0.3753
323.15	0.10416	0.03884	75.06474	0.3757
323.15	0.10416	0.04803	75.12215	0.3761
323.15	0.32172	0.00951	73.94547	0.3696
323.15	0.32172	0.01901	74.00602	0.37
323.15	0.32172	0.02867	74.06969	0.3704
323.15	0.32172	0.03819	74.13398	0.3708
323.15	0.32172	0.04784	74.1993	0.3712
323.15	0.48903	0.00967	73.72579	0.3686
323.15	0.48903	0.0202	73.79612	0.369
323.15	0.48903	0.02902	73.8541	0.3694
323.15	0.48903	0.03961	73.92853	0.3698
323.15	0.48903	0.04889	73.99208	0.3702
328.15	0	0.0089	75.37429	0.3769
328.15	0	0.02091	75.44587	0.3774
328.15	0	0.03019	75.50133	0.3778
328.15	0	0.04872	75.61178	0.3786
328.15	0	0.05465	75.64946	0.3788
328.15	0	0.0791	75.79518	0.3799
328.15	0	0.10059	75.92261	0.379
328.15	0.05038	0.00953	75.15108	0.3766
328.15	0.05038	0.01922	75.21336	0.3752
328.15	0.05038	0.02886	75.27152	0.3756
328.15	0.05038	0.03872	75.33328	0.376
328.15	0.05038	0.04827	75.39415	0.3764
328.15	0.10416	0.0097	74.90246	0.3745
328.15	0.10416	0.01912	74.96387	0.3749
328.15	0.10416	0.02883	75.0222	0.3753
328.15	0.10416	0.03884	75.08663	0.3757
328.15	0.10416	0.04803	75.14589	0.3761
328.15	0.32172	0.00951	73.96764	0.3696
328.15	0.32172	0.01901	74.02822	0.37
328.15	0.32172	0.02867	74.09191	0.3704
328.15	0.32172	0.03819	74.15623	0.3708
328.15	0.32172	0.04784	74.22342	0.3712
328.15	0.48903	0.00967	73.77257	0.3686
328.15	0.48903	0.0202	73.84294	0.369
328.15	0.48903	0.02902	73.90285	0.3694
328.15	0.48903	0.03961	73.97734	0.3698
328.15	0.48903	0.04889	74.04094	0.3702

System: L-leucine + water + magnesium chloride; phases: Liquid
Fixed: Pressure, kPa = 101
Property: Viscosity, Pa*s (Liquid); method: Capillary tube (Ostwald; Ubbelohde) method
Temperature, K	Solvent: Molality, mol/kg of magnesium chloride	Amount concentration (molarity), mol/dm3 of L-leucine	Viscosity, Pa*s	uncertainty
288.15	0.05008	0.01052	0.00101	8e-06
288.15	0.05008	0.02151	0.001024	8e-06
288.15	0.05008	0.03719	0.001036	8e-06
288.15	0.05008	0.05977	0.001059	8e-06
288.15	0.05008	0.08091	0.00108	8e-06
288.15	0.05008	0.09856	0.001098	8e-06
288.15	0.10039	0.01058	0.00101	8e-06
288.15	0.10039	0.01978	0.001018	8e-06
288.15	0.10039	0.04003	0.001038	8e-06
288.15	0.10039	0.05856	0.001057	8e-06
288.15	0.10039	0.07737	0.001075	8e-06
288.15	0.10039	0.09991	0.001098	8e-06
288.15	0.40291	0.0108	0.00101	8e-06
288.15	0.40291	0.02042	0.001018	8e-06
288.15	0.40291	0.0423	0.001038	8e-06
288.15	0.40291	0.0593	0.001059	8e-06
288.15	0.40291	0.08121	0.001084	8e-06
288.15	0.40291	0.09691	0.001098	8e-06
288.15	0.81386	0.01108	0.001012	8e-06
288.15	0.81386	0.02073	0.001024	8e-06
288.15	0.81386	0.04284	0.001055	8e-06
288.15	0.81386	0.06314	0.001082	8e-06
288.15	0.81386	0.08548	0.0011	8e-06
288.15	0.81386	0.10106	0.001121	8e-06
298.15	0.05018	0.02147	0.00102	8e-06
298.15	0.05018	0.04298	0.001038	8e-06
298.15	0.05018	0.05964	0.001055	8e-06
298.15	0.05018	0.08074	0.001073	8e-06
298.15	0.05018	0.09834	0.00109	8e-06
298.15	0.10065	0.01056	0.00101	8e-06
298.15	0.10065	0.01974	0.001016	8e-06
298.15	0.10065	0.03994	0.001038	8e-06
298.15	0.10065	0.05844	0.001053	8e-06
298.15	0.10065	0.0772	0.001067	8e-06
298.15	0.10065	0.09969	0.001088	8e-06
298.15	0.40411	0.01078	0.00101	8e-06
298.15	0.40411	0.02037	0.001018	8e-06
298.15	0.40411	0.0422	0.00104	8e-06
298.15	0.40411	0.05916	0.001061	8e-06
298.15	0.40411	0.08093	0.00108	8e-06
298.15	0.40411	0.09668	0.00109	8e-06
298.15	0.81386	0.0105	0.001012	8e-06
298.15	0.81899	0.01101	0.001014	8e-06
298.15	0.81899	0.02061	0.001024	8e-06
298.15	0.81899	0.04259	0.001047	8e-06
298.15	0.81899	0.06277	0.001073	8e-06
298.15	0.81899	0.08499	0.001096	8e-06
298.15	0.81899	0.10049	0.001115	8e-06
308.15	0.05056	0.0097	0.00101	8e-06
308.15	0.05056	0.01909	0.00102	8e-06
308.15	0.05056	0.0287	0.001026	8e-06
308.15	0.05056	0.05325	0.001049	8e-06
308.15	0.05056	0.06561	0.001061	8e-06
308.15	0.05056	0.09586	0.00109	8e-06
308.15	0.10088	0.01305	0.001012	8e-06
308.15	0.10088	0.02003	0.001018	8e-06
308.15	0.10088	0.02938	0.001028	8e-06
308.15	0.10088	0.04905	0.001044	8e-06
308.15	0.10088	0.06622	0.001061	8e-06
308.15	0.10088	0.09504	0.001088	8e-06
308.15	0.40522	0.00999	0.00101	8e-06
308.15	0.40522	0.01985	0.001018	8e-06
308.15	0.40522	0.03062	0.001028	8e-06
308.15	0.40522	0.05104	0.001047	8e-06
308.15	0.40522	0.06769	0.001065	8e-06
308.15	0.40522	0.10256	0.001098	8e-06
308.15	0.81436	0.01102	0.001012	8e-06
308.15	0.81436	0.01882	0.001022	8e-06
308.15	0.81436	0.03011	0.001034	8e-06
308.15	0.81436	0.05091	0.001057	8e-06
308.15	0.81436	0.06747	0.001077	8e-06
308.15	0.81436	0.09679	0.001111	8e-06
