Measured thermophysical data. Separation of ethanol from n-decane-ethanol mixtures using imidazolium based ionic liquids
Source: J. Chem. Thermodyn., 2019, 10.1016/j.jct.2018.11.027
Compound 1: ethanol, C2H6O, InChI=1S/C2H6O/c1-2-3/h3H,2H2,1H3, purity 99.9%
Compound 2: decane, C10H22, InChI=1S/C10H22/c1-3-5-7-9-10-8-6-4-2/h3-10H2,1-2H3, purity 98%
Compound 3: 1-ethyl-3-methylimidazolium thiocyanate, C7H11N3S, InChI=1S/C6H11N2.CHNS/c1-3-8-5-4-7(2)6-8;2-1-3/h4-6H,3H2,1-2H3;3H/q+1;/p-1, purity 95%
Compound 4: 1-ethyl-3-methylimidazolium trifluoromethanesulfonate, C7H11F3N2O3S, InChI=1S/C6H11N2.CHF3O3S/c1-3-8-5-4-7(2)6-8;2-1(3,4)8(5,6)7/h4-6H,3H2,1-2H3;(H,5,6,7)/q+1;/p-1, purity 98%

System: decane + ethanol + 1-ethyl-3-methylimidazolium thiocyanate; phases: Liquid mixture 2, Liquid mixture 1
Fixed: Pressure, kPa = 101.3
Property: Mole fraction of decane (Liquid mixture 2); method: Chromatography
Property: Mole fraction of decane (Liquid mixture 1); method: Chromatography
Property: Mole fraction of ethanol (Liquid mixture 1); method: Chromatography
Temperature, K	Mole fraction of ethanol	Mole fraction of decane	uncertainty	Mole fraction of decane	uncertainty	Mole fraction of ethanol	uncertainty
298.15	0	0.001	0.001	1		0	
298.15	0.131	0.001	0.001	0.992	0.008	0.008	
298.15	0.311	0.002	0.002	0.973	0.014	0.027	
298.15	0.426	0.002	0.002	0.955	0.014	0.045	
298.15	0.504	0.003	0.003	0.942	0.014	0.058	
298.15	0.594	0.004	0.004	0.925	0.014	0.075	
298.15	0.677	0.006	0.006	0.89	0.014	0.11	
298.15	0.78	0.014	0.01	0.837	0.014	0.163	
298.15	0.854	0.036	0.01	0.754	0.014	0.246	
313.15	0.104	0.001	0.001	0.992	0.008	0.008	
313.15	0.288	0.002	0.002	0.97	0.014	0.03	
313.15	0.379	0.003	0.003	0.956	0.014	0.044	
313.15	0.469	0.003	0.003	0.939	0.014	0.061	
313.15	0.56	0.004	0.004	0.926	0.014	0.074	
313.15	0.713	0.004	0.004	0.886	0.014	0.114	
313.15	0.799	0.015	0.01	0.81	0.014	0.19	
313.15	0.834	0.027	0.011	0.752	0.014	0.248	

System: decane + ethanol + 1-ethyl-3-methylimidazolium trifluoromethanesulfonate; phases: Liquid mixture 2, Liquid mixture 1
Fixed: Pressure, kPa = 101.3
Property: Mole fraction of decane (Liquid mixture 2); method: Chromatography
Property: Mole fraction of ethanol (Liquid mixture 1); method: Chromatography
Property: Mole fraction of decane (Liquid mixture 1); method: Chromatography
Temperature, K	Mole fraction of ethanol	Mole fraction of decane	uncertainty	Mole fraction of ethanol	uncertainty	Mole fraction of decane	uncertainty
298.15	0	0.003	0.003	0		1	
298.15	0.213	0.005	0.005	0.006	0.006	0.994	
298.15	0.336	0.005	0.005	0.026	0.014	0.974	
298.15	0.489	0.006	0.006	0.058	0.014	0.942	
298.15	0.631	0.007	0.007	0.097	0.014	0.903	
298.15	0.735	0.012	0.01	0.135	0.014	0.865	
298.15	0.794	0.017	0.01	0.176	0.014	0.824	
298.15	0.896	0.036	0.01	0.269	0.014	0.731	
313.15	0.198	0.004	0.004	0.01	0.01	0.99	
313.15	0.298	0.004	0.004	0.027	0.014	0.973	
313.15	0.447	0.005	0.005	0.046	0.014	0.954	
313.15	0.475	0.005	0.005	0.057	0.014	0.943	
313.15	0.619	0.008	0.008	0.121	0.014	0.879	
313.15	0.714	0.011	0.01	0.143	0.014	0.857	
313.15	0.789	0.014	0.01	0.174	0.014	0.826	
313.15	0.871	0.027	0.01	0.299	0.014	0.701	

System: decane + 1-ethyl-3-methylimidazolium thiocyanate; phases: Liquid mixture 2, Liquid mixture 1
Property: Mole fraction of decane (Liquid mixture 2); method: Chromatography
Temperature, K	Pressure, kPa	Mole fraction of decane	uncertainty
298.15	101.3	0.001	0.001

System: decane + 1-ethyl-3-methylimidazolium trifluoromethanesulfonate; phases: Liquid mixture 2, Liquid mixture 1
Property: Mole fraction of decane (Liquid mixture 2); method: Chromatography
Temperature, K	Pressure, kPa	Mole fraction of decane	uncertainty
298.15	101.3	0.003	0.003
