Measured thermophysical data. Study of molecular interactions in binary liquid mixtures of 1-octanol with n-hexane, n-octane, and n-decane using volumetric, viscometric, and acoustic properties
Source: J. Chem. Thermodyn., 2008, 10.1016/j.jct.2008.02.005
Compound 1: octan-1-ol, C8H18O, InChI=1S/C8H18O/c1-2-3-4-5-6-7-8-9/h9H,2-8H2,1H3, purity 99.5%
Compound 2: hexane, C6H14, InChI=1S/C6H14/c1-3-5-6-4-2/h3-6H2,1-2H3, purity 99%
Compound 3: octane, C8H18, InChI=1S/C8H18/c1-3-5-7-8-6-4-2/h3-8H2,1-2H3, purity 99.5%
Compound 4: decane, C10H22, InChI=1S/C10H22/c1-3-5-7-9-10-8-6-4-2/h3-10H2,1-2H3, purity 97%

System: octan-1-ol; phases: Liquid
Property: Viscosity, Pa*s (Liquid); method: Capillary tube (Ostwald; Ubbelohde) method
Temperature, K	Pressure, kPa	Viscosity, Pa*s	uncertainty
298.15	101	0.007508	4.2e-05

System: octan-1-ol; phases: Liquid
Fixed: Pressure, kPa = 101
Property: Speed of sound, m/s (Liquid); method: Sing-around technique in a fixed-path interferometer
Temperature, K	Speed of sound, m/s	uncertainty
298.15	1348	0.8
303.15	1330.8	0.8
308.15	1314.1	0.8

System: octan-1-ol; phases: Liquid
Fixed: Pressure, kPa = 101
Property: Mass density, kg/m3 (Liquid); method: VIBTUB:UFactor:5
Temperature, K	Mass density, kg/m3	uncertainty
298.15	821.813	0.537
303.15	818.796	0.542
308.15	815.286	0.549

System: hexane; phases: Liquid
Property: Viscosity, Pa*s (Liquid); method: Capillary tube (Ostwald; Ubbelohde) method
Temperature, K	Pressure, kPa	Viscosity, Pa*s	uncertainty
298.15	101	0.000313	7e-06

System: hexane; phases: Liquid
Fixed: Pressure, kPa = 101
Property: Speed of sound, m/s (Liquid); method: Sing-around technique in a fixed-path interferometer
Temperature, K	Speed of sound, m/s	uncertainty
298.15	1077.8	1.2
303.15	1055.2	1.2
308.15	1032.9	1.1

System: hexane; phases: Liquid
Fixed: Pressure, kPa = 101
Property: Mass density, kg/m3 (Liquid); method: VIBTUB::UFactor:5
Temperature, K	Mass density, kg/m3	uncertainty
298.15	655.072	0.915
303.15	650.369	0.923
308.15	645.767	0.93

System: octane; phases: Liquid
Property: Viscosity, Pa*s (Liquid); method: Capillary tube (Ostwald; Ubbelohde) method
Temperature, K	Pressure, kPa	Viscosity, Pa*s	uncertainty
298.15	101	0.000518	7e-06

System: octane; phases: Liquid
Fixed: Pressure, kPa = 101
Property: Speed of sound, m/s (Liquid); method: Sing-around technique in a fixed-path interferometer
Temperature, K	Speed of sound, m/s	uncertainty
298.15	1172.7	0.8
303.15	1152.1	0.8
308.15	1131.7	0.8

System: octane; phases: Liquid
Fixed: Pressure, kPa = 101
Property: Mass density, kg/m3 (Liquid); method: VIBTUB::UFactor:5
Temperature, K	Mass density, kg/m3	uncertainty
298.15	698.58	0.769
303.15	694.497	0.776
308.15	690.416	0.784

System: decane; phases: Liquid
Property: Viscosity, Pa*s (Liquid); method: Capillary tube (Ostwald; Ubbelohde) method
Temperature, K	Pressure, kPa	Viscosity, Pa*s	uncertainty
298.15	101	0.000852	1.5e-05

System: decane; phases: Liquid
Fixed: Pressure, kPa = 101
Property: Speed of sound, m/s (Liquid); method: Sing-around technique in a fixed-path interferometer
Temperature, K	Speed of sound, m/s	uncertainty
298.15	1234.8	3.1
303.15	1215.2	3.1
308.15	1195.6	3.1

System: decane; phases: Liquid
Fixed: Pressure, kPa = 101
Property: Mass density, kg/m3 (Liquid); method: VIBTUB::UFactor:5
Temperature, K	Mass density, kg/m3	uncertainty
298.15	726.806	1.668
303.15	723.042	1.665
308.15	719.23	1.662

System: hexane + octan-1-ol; phases: Liquid
Fixed: Temperature, K = 298.15
Fixed: Pressure, kPa = 101
Property: Viscosity, Pa*s (Liquid); method: Capillary tube (Ostwald; Ubbelohde) method
Mole fraction of octan-1-ol	Viscosity, Pa*s	uncertainty
0	0.000313	7e-06
0.0651	0.000358	7e-06
0.1109	0.000409	7e-06
0.1511	0.000444	7e-06
0.2052	0.00053	7e-06
0.2699	0.000654	8e-06
0.3016	0.000725	8e-06
0.4013	0.001023	9e-06
0.5059	0.001477	1.2e-05
0.6014	0.002057	1.5e-05
0.7083	0.002954	1.9e-05
0.7967	0.003977	2.5e-05
0.8463	0.004666	2.9e-05
0.9154	0.005802	3.4e-05
0.9401	0.006264	3.6e-05
1	0.007508	4.2e-05

System: hexane + octan-1-ol; phases: Liquid
Fixed: Pressure, kPa = 101
Property: Speed of sound, m/s (Liquid); method: Sing-around technique in a fixed-path interferometer
Temperature, K	Mole fraction of octan-1-ol	Speed of sound, m/s	uncertainty
298.15	0	1077.8	1.2
298.15	0.0651	1090.1	1.1
298.15	0.1109	1100	1.1
298.15	0.1511	1109.9	1.1
298.15	0.2052	1123.8	1.1
298.15	0.2699	1142.3	1.1
298.15	0.3016	1150.4	1
298.15	0.4013	1178.7	1
298.15	0.5059	1209.1	1
298.15	0.6014	1237	1
298.15	0.7083	1268.1	0.9
298.15	0.7967	1293.2	0.9
298.15	0.8463	1307.2	0.9
298.15	0.9154	1326.1	0.9
298.15	0.9401	1332.7	0.9
298.15	1	1348	0.8
303.15	0	1055.2	1.2
303.15	0.0651	1068.1	1.1
303.15	0.1109	1078.1	1.1
303.15	0.1511	1089.3	1.1
303.15	0.2052	1102.7	1.1
303.15	0.2699	1121.4	1.1
303.15	0.3016	1129.8	1
303.15	0.4013	1158.8	1
303.15	0.5059	1189.6	1
303.15	0.6014	1218.1	1
303.15	0.7083	1249.8	0.9
303.15	0.7967	1275.3	0.9
303.15	0.8463	1289.7	0.9
303.15	0.9154	1308.4	0.9
303.15	0.9401	1315.5	0.9
303.15	1	1330.8	0.8
308.15	0	1032.9	1.1
308.15	0.0651	1046.3	1.1
308.15	0.1109	1056.6	1.1
308.15	0.1511	1066.9	1.1
308.15	0.2052	1081.6	1.1
308.15	0.2699	1099.9	1
308.15	0.3016	1109.3	1
308.15	0.4013	1138.9	1
308.15	0.5059	1170.3	1
308.15	0.6014	1199.2	0.9
308.15	0.7083	1231.4	0.9
308.15	0.7967	1257.6	0.9
308.15	0.8463	1272.1	0.9
308.15	0.9154	1291.3	0.9
308.15	0.9401	1298.5	0.8
308.15	1	1314.1	0.8

System: hexane + octan-1-ol; phases: Liquid
Fixed: Pressure, kPa = 101
Property: Mass density, kg/m3 (Liquid); method: VIBTUB:UFactor:5
Temperature, K	Mole fraction of octan-1-ol	Mass density, kg/m3	uncertainty
298.15	0	655.072	0.915
298.15	0.0651	668.557	0.886
298.15	0.1109	677.728	0.867
298.15	0.1511	685.618	0.85
298.15	0.2052	695.979	0.828
298.15	0.2699	708.106	0.802
298.15	0.3016	713.929	0.789
298.15	0.4013	731.693	0.75
298.15	0.5059	749.508	0.711
298.15	0.6014	765.032	0.674
298.15	0.7083	781.504	0.634
298.15	0.7967	794.381	0.603
298.15	0.8463	801.415	0.586
298.15	0.9154	810.757	0.563
298.15	0.9401	814.039	0.555
298.15	1	821.813	0.537
303.15	0	650.369	0.923
303.15	0.0651	663.926	0.894
303.15	0.1109	673.192	0.874
303.15	0.1511	681.095	0.858
303.15	0.2052	691.566	0.835
303.15	0.2699	703.843	0.809
303.15	0.3016	709.692	0.796
303.15	0.4013	727.596	0.758
303.15	0.5059	745.544	0.719
303.15	0.6014	761.168	0.681
303.15	0.7083	777.748	0.641
303.15	0.7967	790.775	0.609
303.15	0.8463	797.955	0.592
303.15	0.9154	807.483	0.569
303.15	0.9401	810.851	0.561
303.15	1	818.796	0.542
308.15	0	645.767	0.93
308.15	0.0651	659.735	0.901
308.15	0.1109	668.685	0.882
308.15	0.1511	676.641	0.865
308.15	0.2052	687.129	0.843
308.15	0.2699	699.426	0.817
308.15	0.3016	705.291	0.804
308.15	0.4013	723.487	0.765
308.15	0.5059	741.544	0.726
308.15	0.6014	757.276	0.688
308.15	0.7083	773.973	0.648
308.15	0.7967	787.028	0.616
308.15	0.8463	794.319	0.599
308.15	0.9154	803.632	0.577
308.15	0.9401	807.169	0.568
308.15	1	815.286	0.549

System: octane + octan-1-ol; phases: Liquid
Fixed: Temperature, K = 298.15
Fixed: Pressure, kPa = 101
Property: Viscosity, Pa*s (Liquid); method: Capillary tube (Ostwald; Ubbelohde) method
Mole fraction of octan-1-ol	Viscosity, Pa*s	uncertainty
0	0.000518	7e-06
0.0548	0.000554	7e-06
0.1078	0.000621	7e-06
0.1526	0.000679	7e-06
0.2019	0.000762	8e-06
0.2516	0.000839	8e-06
0.3075	0.000965	9e-06
0.4055	0.001222	1e-05
0.5031	0.001569	1.1e-05
0.602	0.002091	1.4e-05
0.7158	0.002991	1.9e-05
0.803	0.003986	2.4e-05
0.8501	0.004652	2.8e-05
0.8959	0.005399	3.2e-05
0.9509	0.006441	3.7e-05
1	0.007508	4.2e-05

System: octane + octan-1-ol; phases: Liquid
Fixed: Pressure, kPa = 101
Property: Speed of sound, m/s (Liquid); method: Sing-around technique in a fixed-path interferometer
Temperature, K	Mole fraction of octan-1-ol	Speed of sound, m/s	uncertainty
298.15	0	1172.7	0.8
298.15	0.0548	1177.6	0.8
298.15	0.1078	1183.3	0.8
298.15	0.1526	1189.2	0.8
298.15	0.2019	1196	0.8
298.15	0.2516	1203.4	0.8
298.15	0.3075	1212.2	0.8
298.15	0.4055	1228	0.8
298.15	0.5031	1245.5	0.8
298.15	0.602	1263.9	0.8
298.15	0.7158	1286.9	0.8
298.15	0.803	1305.6	0.8
298.15	0.8501	1315.7	0.8
298.15	0.8959	1325.7	0.8
298.15	0.9509	1337.5	0.8
298.15	1	1348	0.8
303.15	0	1152.1	0.8
303.15	0.0548	1156.9	0.8
303.15	0.1078	1162.8	0.8
303.15	0.1526	1168.9	0.8
303.15	0.2019	1175.9	0.8
303.15	0.2516	1183.5	0.8
303.15	0.3075	1192.3	0.8
303.15	0.4055	1208.9	0.8
303.15	0.5031	1226.6	0.8
303.15	0.602	1245.2	0.8
303.15	0.7158	1268.7	0.8
303.15	0.803	1287.7	0.8
303.15	0.8501	1297.9	0.8
303.15	0.8959	1308.1	0.8
303.15	0.9509	1320.2	0.8
303.15	1	1330.8	0.8
308.15	0	1131.7	0.8
308.15	0.0548	1136.7	0.8
308.15	0.1078	1142.7	0.8
308.15	0.1526	1148.9	0.8
308.15	0.2019	1156.1	0.8
308.15	0.2516	1163.6	0.8
308.15	0.3075	1172.8	0.8
308.15	0.4055	1189.7	0.8
308.15	0.5031	1207.7	0.8
308.15	0.602	1227	0.8
308.15	0.7158	1250.9	0.8
308.15	0.803	1270.1	0.8
308.15	0.8501	1280.6	0.8
308.15	0.8959	1290.9	0.8
308.15	0.9509	1303.2	0.8
308.15	1	1314.1	0.8

System: octane + octan-1-ol; phases: Liquid
Fixed: Pressure, kPa = 101
Property: Mass density, kg/m3 (Liquid); method: VIBTUB:UFactor:5
Temperature, K	Mole fraction of octan-1-ol	Mass density, kg/m3	uncertainty
298.15	0	698.58	0.769
298.15	0.0548	705.04	0.756
298.15	0.1078	711.299	0.745
298.15	0.1526	716.736	0.735
298.15	0.2019	722.796	0.723
298.15	0.2516	728.888	0.712
298.15	0.3075	735.75	0.699
298.15	0.4055	747.852	0.678
298.15	0.5031	759.965	0.656
298.15	0.602	772.269	0.632
298.15	0.7158	786.456	0.604
298.15	0.803	797.369	0.583
298.15	0.8501	803.36	0.572
298.15	0.8959	808.907	0.561
298.15	0.9509	815.733	0.548
298.15	1	821.813	0.537
303.15	0	694.497	0.776
303.15	0.0548	700.957	0.764
303.15	0.1078	707.298	0.752
303.15	0.1526	712.733	0.742
303.15	0.2019	718.79	0.731
303.15	0.2516	724.91	0.72
303.15	0.3075	731.816	0.707
303.15	0.4055	743.986	0.685
303.15	0.5031	756.131	0.663
303.15	0.602	768.472	0.639
303.15	0.7158	782.773	0.611
303.15	0.803	793.787	0.59
303.15	0.8501	799.76	0.578
303.15	0.8959	805.579	0.567
303.15	0.9509	812.572	0.554
303.15	1	818.796	0.542
308.15	0	690.416	0.784
308.15	0.0548	696.852	0.772
308.15	0.1078	703.23	0.76
308.15	0.1526	708.68	0.75
308.15	0.2019	714.754	0.738
308.15	0.2516	720.901	0.727
308.15	0.3075	727.826	0.714
308.15	0.4055	740.044	0.692
308.15	0.5031	752.284	0.67
308.15	0.602	764.683	0.646
308.15	0.7158	779.057	0.618
308.15	0.803	790.122	0.597
308.15	0.8501	796.133	0.585
308.15	0.8959	801.983	0.574
308.15	0.9509	809.022	0.561
308.15	1	815.286	0.549

System: octan-1-ol + decane; phases: Liquid
Fixed: Temperature, K = 298.15
Fixed: Pressure, kPa = 101
Property: Viscosity, Pa*s (Liquid); method: Capillary tube (Ostwald; Ubbelohde) method
Mole fraction of octan-1-ol	Viscosity, Pa*s	uncertainty
0	0.000852	1.5e-05
0.0507	0.000896	1.5e-05
0.1199	0.000978	1.6e-05
0.1532	0.001026	1.6e-05
0.2085	0.001121	1.6e-05
0.2654	0.001233	1.7e-05
0.3097	0.00133	1.8e-05
0.4009	0.001579	1.9e-05
0.5041	0.001958	2.1e-05
0.6069	0.00249	2.3e-05
0.7244	0.003381	2.8e-05
0.7505	0.003642	2.9e-05
0.804	0.004231	3.1e-05
0.8958	0.005521	3.6e-05
0.9544	0.006563	3.9e-05
1	0.007508	4.2e-05

System: octan-1-ol + decane; phases: Liquid
Fixed: Pressure, kPa = 101
Property: Speed of sound, m/s (Liquid); method: Sing-around technique in a fixed-path interferometer
Temperature, K	Mole fraction of octan-1-ol	Speed of sound, m/s	uncertainty
298.15	0	1234.8	3.1
298.15	0.0507	1236.4	2.9
298.15	0.1199	1240.1	2.8
298.15	0.1532	1242.2	2.7
298.15	0.2085	1246.3	2.6
298.15	0.2654	1250.8	2.4
298.15	0.3097	1254.8	2.3
298.15	0.4009	1263.5	2.1
298.15	0.5041	1274.7	1.9
298.15	0.6069	1287.2	1.6
298.15	0.7244	1303.1	1.4
298.15	0.7505	1306.9	1.3
298.15	0.804	1315.2	1.2
298.15	0.8958	1330.1	1
298.15	0.9544	1339.9	0.9
298.15	1	1348	0.8
303.15	0	1215.2	3.1
303.15	0.0507	1216.3	2.9
303.15	0.1199	1220.5	2.8
303.15	0.1532	1222.7	2.7
303.15	0.2085	1226.8	2.6
303.15	0.2654	1231.7	2.4
303.15	0.3097	1235.6	2.3
303.15	0.4009	1244.6	2.1
303.15	0.5041	1256	1.9
303.15	0.6069	1268.7	1.6
303.15	0.7244	1285	1.4
303.15	0.7505	1288.9	1.3
303.15	0.804	1297.5	1.2
303.15	0.8958	1312.7	1
303.15	0.9544	1322.9	0.9
303.15	1	1330.8	0.8
308.15	0	1195.6	3.1
308.15	0.0507	1196.8	2.9
308.15	0.1199	1201.1	2.8
308.15	0.1532	1203.4	2.7
308.15	0.2085	1207.5	2.6
308.15	0.2654	1212.6	2.4
308.15	0.3097	1216.6	2.3
308.15	0.4009	1225.9	2.1
308.15	0.5041	1237.4	1.9
308.15	0.6069	1250.5	1.6
308.15	0.7244	1267.4	1.4
308.15	0.7505	1271.5	1.3
308.15	0.804	1279.9	1.2
308.15	0.8958	1295.6	1
308.15	0.9544	1305.9	0.9
308.15	1	1314.1	0.8

System: octan-1-ol + decane; phases: Liquid
Fixed: Pressure, kPa = 101
Property: Mass density, kg/m3 (Liquid); method: VIBTUB:UFactor:5
Temperature, K	Mole fraction of octan-1-ol	Mass density, kg/m3	uncertainty
298.15	0	726.806	1.668
298.15	0.0507	730.551	1.587
298.15	0.1199	735.871	1.479
298.15	0.1532	738.514	1.429
298.15	0.2085	742.997	1.348
298.15	0.2654	747.773	1.268
298.15	0.3097	751.578	1.208
298.15	0.4009	759.689	1.09
298.15	0.5041	769.261	0.967
298.15	0.6069	779.261	0.854
298.15	0.7244	791.228	0.74
298.15	0.7505	793.993	0.716
298.15	0.804	799.684	0.671
298.15	0.8958	809.826	0.602
298.15	0.9544	816.493	0.563
298.15	1	821.813	0.537
303.15	0	723.042	1.665
303.15	0.0507	726.796	1.585
303.15	0.1199	732.137	1.478
303.15	0.1532	734.755	1.429
303.15	0.2085	739.255	1.349
303.15	0.2654	744.007	1.269
303.15	0.3097	747.791	1.21
303.15	0.4009	755.863	1.093
303.15	0.5041	765.532	0.971
303.15	0.6069	775.493	0.859
303.15	0.7244	787.587	0.745
303.15	0.7505	790.368	0.722
303.15	0.804	796.157	0.677
303.15	0.8958	806.478	0.608
303.15	0.9544	813.314	0.569
303.15	1	818.796	0.542
308.15	0	719.23	1.662
308.15	0.0507	722.969	1.583
308.15	0.1199	728.314	1.478
308.15	0.1532	730.923	1.429
308.15	0.2085	735.427	1.349
308.15	0.2654	740.195	1.271
308.15	0.3097	743.987	1.212
308.15	0.4009	752.086	1.096
308.15	0.5041	761.703	0.975
308.15	0.6069	771.782	0.864
308.15	0.7244	783.929	0.751
308.15	0.7505	786.721	0.728
308.15	0.804	792.558	0.683
308.15	0.8958	802.907	0.614
308.15	0.9544	809.765	0.576
308.15	1	815.286	0.549
