Measured thermophysical data. (Vapor + liquid) equilibrium of the binary mixtures formed by acetonitrile with selected compounds at 95.5 kPa
Source: J. Chem. Thermodyn., 2007, 10.1016/j.jct.2007.03.007
Compound 1: acetonitrile, C2H3N, InChI=1S/C2H3N/c1-2-3/h1H3
Compound 2: 2,4-pentanedione, C5H8O2, InChI=1S/C5H8O2/c1-4(6)3-5(2)7/h3H2,1-2H3
Compound 3: anisole, C7H8O, InChI=1S/C7H8O/c1-8-7-5-3-2-4-6-7/h2-6H,1H3
Compound 4: bromobenzene, C6H5Br, InChI=1S/C6H5Br/c7-6-4-2-1-3-5-6/h1-5H
Compound 5: propan-2-ol, C3H8O, InChI=1S/C3H8O/c1-3(2)4/h3-4H,1-2H3
Compound 6: 2-methoxy-2-methylpropane, C5H12O, InChI=1S/C5H12O/c1-5(2,3)6-4/h1-4H3
Compound 7: tetraethoxysilane, C8H20O4Si, InChI=1S/C8H20O4Si/c1-5-9-13(10-6-2,11-7-3)12-8-4/h5-8H2,1-4H3

System: acetonitrile; phases: Liquid
Property: Refractive index (Na D-line) (Liquid); method: Standard Abbe refractometry
Temperature, K	Pressure, kPa	Refractive index (Na D-line)	uncertainty
298.15	101.325	1.3416	0.0008

System: acetonitrile; phases: Liquid
Property: Mass density, kg/m3 (Liquid); method: VIBTUB:UFactor:12
Temperature, K	Pressure, kPa	Mass density, kg/m3	uncertainty
298.15	101.325	776.5	2

System: acetonitrile; phases: Liquid, Gas
Property: Vapor or sublimation pressure, kPa (Liquid); method: EBULLIO:UFactor:8
Temperature, K	Vapor or sublimation pressure, kPa	uncertainty
352.15	95.5	4
352.55	95.5	4

System: 2,4-pentanedione; phases: Liquid
Property: Refractive index (Na D-line) (Liquid); method: Standard Abbe refractometry
Temperature, K	Pressure, kPa	Refractive index (Na D-line)	uncertainty
293.15	101.325	1.4511	0.0008

System: 2,4-pentanedione; phases: Liquid
Property: Mass density, kg/m3 (Liquid); method: Vibrating tube method
Temperature, K	Pressure, kPa	Mass density, kg/m3	uncertainty
298.15	101.325	972	2

System: 2,4-pentanedione; phases: Liquid, Gas
Property: Vapor or sublimation pressure, kPa (Liquid); method: EBULLIO:UFactor:8
Temperature, K	Vapor or sublimation pressure, kPa	uncertainty
409.35	95.5	4

System: anisole; phases: Liquid
Property: Refractive index (Na D-line) (Liquid); method: Standard Abbe refractometry
Temperature, K	Pressure, kPa	Refractive index (Na D-line)	uncertainty
298.15	101.325	1.5142	0.0008

System: anisole; phases: Liquid
Property: Mass density, kg/m3 (Liquid); method: Vibrating tube method
Temperature, K	Pressure, kPa	Mass density, kg/m3	uncertainty
298.15	101.325	989.3	2

System: anisole; phases: Liquid, Gas
Property: Vapor or sublimation pressure, kPa (Liquid); method: EBULLIO:UFactor:8
Temperature, K	Vapor or sublimation pressure, kPa	uncertainty
424.65	95.5	4

System: bromobenzene; phases: Liquid
Property: Refractive index (Na D-line) (Liquid); method: Standard Abbe refractometry
Temperature, K	Pressure, kPa	Refractive index (Na D-line)	uncertainty
298.15	101.325	1.5571	0.0008

System: bromobenzene; phases: Liquid
Property: Mass density, kg/m3 (Liquid); method: Vibrating tube method
Temperature, K	Pressure, kPa	Mass density, kg/m3	uncertainty
298.15	101.325	1488.3	2

System: bromobenzene; phases: Liquid, Gas
Property: Vapor or sublimation pressure, kPa (Liquid); method: EBULLIO:UFactor:8
Temperature, K	Vapor or sublimation pressure, kPa	uncertainty
427.05	95.5	4

System: propan-2-ol; phases: Liquid
Property: Refractive index (Na D-line) (Liquid); method: Standard Abbe refractometry
Temperature, K	Pressure, kPa	Refractive index (Na D-line)	uncertainty
298.15	101.325	1.3751	0.0008

System: propan-2-ol; phases: Liquid
Property: Mass density, kg/m3 (Liquid); method: Vibrating tube method
Temperature, K	Pressure, kPa	Mass density, kg/m3	uncertainty
298.15	101.325	781.3	2

System: propan-2-ol; phases: Liquid, Gas
Property: Vapor or sublimation pressure, kPa (Liquid); method: EBULLIO:UFactor:8
Temperature, K	Vapor or sublimation pressure, kPa	uncertainty
354.05	95.5	4

System: 2-methoxy-2-methylpropane; phases: Liquid
Property: Refractive index (Na D-line) (Liquid); method: Standard Abbe refractometry
Temperature, K	Pressure, kPa	Refractive index (Na D-line)	uncertainty
293.15	101.325	1.369	0.0008

System: 2-methoxy-2-methylpropane; phases: Liquid
Property: Mass density, kg/m3 (Liquid); method: Vibrating tube method
Temperature, K	Pressure, kPa	Mass density, kg/m3	uncertainty
303.15	101.325	742	2

System: 2-methoxy-2-methylpropane; phases: Liquid, Gas
Property: Vapor or sublimation pressure, kPa (Liquid); method: EBULLIO:UFactor:8
Temperature, K	Vapor or sublimation pressure, kPa	uncertainty
326.45	95.5	4

System: tetraethoxysilane; phases: Liquid
Property: Refractive index (Na D-line) (Liquid); method: Standard Abbe refractometry
Temperature, K	Pressure, kPa	Refractive index (Na D-line)	uncertainty
298.15	101.325	1.3825	0.0008

System: tetraethoxysilane; phases: Liquid
Property: Mass density, kg/m3 (Liquid); method: Vibrating tube method
Temperature, K	Pressure, kPa	Mass density, kg/m3	uncertainty
298.15	101.325	933.4	2

System: tetraethoxysilane; phases: Liquid, Gas
Property: Vapor or sublimation pressure, kPa (Liquid); method: EBULLIO:UFactor:8
Temperature, K	Vapor or sublimation pressure, kPa	uncertainty
439.55	95.5	4

System: acetonitrile + 2,4-pentanedione; phases: Liquid, Gas
Fixed: Pressure, kPa = 95.5
Property: Boiling temperature at pressure P, K (Liquid); method: EBULLIO:UFactor:8
Mole fraction of acetonitrile	Boiling temperature at pressure P, K	uncertainty
0	409.35	0.69
0.0725	400.05	0.69
0.1789	389.35	0.69
0.2552	383.15	0.69
0.3035	379.55	0.69
0.3572	375.85	0.69
0.3953	373.75	0.69
0.47	369.45	0.69
0.5214	366.85	0.69
0.604	362.95	0.69
0.6665	360.35	0.69
0.7463	357.45	0.69
0.8547	354.45	0.69
0.9025	353.45	0.69
0.9464	352.75	0.69
1	352.55	0.69

System: acetonitrile + anisole; phases: Liquid, Gas
Fixed: Pressure, kPa = 95.5
Property: Boiling temperature at pressure P, K (Liquid); method: EBULLIO:UFactor:8
Mole fraction of acetonitrile	Boiling temperature at pressure P, K	uncertainty
0	424.65	0.69
0.1865	407.65	0.69
0.3143	397.25	0.69
0.4074	390.15	0.69
0.478	384.95	0.69
0.534	380.95	0.69
0.5789	377.85	0.69
0.616	375.35	0.69
0.7262	367.95	0.69
0.7557	365.97	0.69
0.7878	363.95	0.69
0.8272	361.45	0.69
0.8609	359.45	0.69
0.9027	356.95	0.69
0.9489	356.95	3
1	352.55	0.69

System: acetonitrile + bromobenzene; phases: Liquid, Gas
Fixed: Pressure, kPa = 95.5
Property: Boiling temperature at pressure P, K (Liquid); method: EBULLIO:UFactor:8
Mole fraction of acetonitrile	Boiling temperature at pressure P, K	uncertainty
0	427.05	0.69
0.1025	387.65	0.73
0.1818	380.55	0.69
0.2652	376.45	0.69
0.3078	374.25	0.69
0.3582	372.15	0.69
0.4	370.55	0.69
0.47	368.05	0.69
0.526	366.25	0.69
0.5893	364.15	0.69
0.643	362.55	0.69
0.782	358.45	0.69
0.857	356.35	0.69
0.9225	354.55	0.69
0.947	353.85	0.69
1	352.55	0.69

System: propan-2-ol + acetonitrile; phases: Liquid, Gas
Fixed: Pressure, kPa = 95.5
Property: Boiling temperature at pressure P, K (Liquid); method: EBULLIO:UFactor:8
Mole fraction of acetonitrile	Boiling temperature at pressure P, K	uncertainty
0	354.05	0.69
0.0525	353.15	0.69
0.1392	352.05	0.69
0.2444	351.25	0.69
0.3264	350.85	0.69
0.3928	350.55	0.69
0.4471	350.45	0.69
0.531	350.35	0.69
0.6859	350.45	0.69
0.7238	350.55	0.69
0.7663	350.75	0.69
0.8137	350.95	0.69
0.8676	351.25	0.69
0.929	351.75	0.69
0.967	352.15	0.69
1	352.15	0.69

System: acetonitrile + 2-methoxy-2-methylpropane; phases: Liquid, Gas
Fixed: Pressure, kPa = 95.5
Property: Boiling temperature at pressure P, K (Liquid); method: EBULLIO:UFactor:8
Mole fraction of 2-methoxy-2-methylpropane	Boiling temperature at pressure P, K	uncertainty
0	352.55	0.69
0.1105	340.45	0.69
0.1372	338.55	0.69
0.1592	337.25	0.69
0.189	335.75	0.69
0.2095	334.85	0.69
0.2489	333.35	0.69
0.3064	331.55	0.69
0.3986	329.55	0.69
0.443	328.85	0.69
0.5699	327.25	0.69
0.6654	326.55	0.69
0.7991	325.85	0.69
0.88	325.65	0.69
0.968	326.05	0.69
1	326.45	0.69

System: acetonitrile + tetraethoxysilane; phases: Liquid, Gas
Fixed: Pressure, kPa = 95.5
Property: Boiling temperature at pressure P, K (Liquid); method: EBULLIO:UFactor:8
Mole fraction of acetonitrile	Boiling temperature at pressure P, K	uncertainty
0	439.55	0.69
0.1523	399.75	0.71
0.3207	379.55	0.69
0.4856	368.15	0.69
0.5862	363.25	0.69
0.6538	360.65	0.69
0.7024	359.15	0.69
0.7391	357.95	0.69
0.7677	357.15	0.69
0.8454	355.45	0.69
0.8645	355.15	0.69
0.8844	354.65	0.69
0.9054	354.35	0.69
0.9173	353.95	0.69
0.9503	353.55	0.69
0.9745	353.05	0.69
1	352.55	0.69
