Measured thermophysical data. Measurement of the (pressure, density, temperature) relation of two (methane + nitrogen) gas mixtures at temperatures between 240 and 400 K and pressures up to 20 MPa using an accurate single-sinker densimeter
Source: J. Chem. Thermodyn., 2006, 10.1016/j.jct.2005.10.004
Compound 1: methane, CH4, InChI=1S/CH4/h1H4, purity 99.995%
Compound 2: nitrogen, N2, InChI=1S/N2/c1-2, purity 99.999%

System: nitrogen; phases: Liquid
Property: Mass density, kg/m3 (Liquid); method: Buoyancy - hydrostatic balance with magnetic suspension - one sinker
Temperature, K	Pressure, kPa	Mass density, kg/m3	uncertainty
249.958	10070.5	141.6121	0.0309
249.959	2007.64	27.46191	0.00712
249.959	5024.18	69.90185	0.01595
249.96	5023.94	69.8983	0.01595
249.96	15269.6	211.5786	0.0449
249.96	15270	211.5881	0.0449
249.961	15267.2	211.5483	0.0449
249.961	19857.1	266.5607	0.0561
249.999	2008.64	27.47103	0.00712
249.999	4994.5	69.46856	0.01587
274.966	10066.3	125.0157	0.0274
274.967	2011.64	24.8371	0.00673
274.968	10066.2	125.0142	0.0274
274.968	19875	235.358	0.0504
274.969	19871.1	235.3186	0.0504
299.97	4925.58	55.51454	0.01279
299.971	10974.3	122.2531	0.0267
299.971	13854.7	152.5596	0.0335
299.972	4925.73	55.51582	0.01279
299.972	10974.4	122.2529	0.0267
299.973	13854.9	152.5607	0.0335
299.973	16780.1	181.9817	0.04
299.974	2457.07	27.68437	0.00711
299.975	2457	27.68369	0.00711
299.982	16787.6	182.0504	0.04
399.988	14807.1	117.4409	0.0255
399.99	17249.6	135.0429	0.029
399.994	10100.7	81.97006	0.01822
399.995	2781.23	23.23174	0.00652
399.996	2408.43	20.13953	0.00619
399.996	4803.72	39.84295	0.00959
399.996	19952.7	153.8529	0.0328
399.997	7435.4	61.03764	0.01391
399.997	10100.5	81.96632	0.01822
399.998	19958.9	153.899	0.0328

System: methane + nitrogen; phases: Gas
Property: Mass density, kg/m3 (Gas); method: Buoyancy - hydrostatic balance with magnetic suspension - one sinker
Mole fraction of methane	Temperature, K	Pressure, kPa	Mass density, kg/m3	uncertainty
0.79998	240.005	8017.2	96.5565	0.0233
0.79998	240.005	8864.81	109.578	0.025
0.79998	240.005	12047.6	159.33	0.036
0.79998	240.006	3991.73	41.901	0.0105
0.79998	240.006	10372.4	133.317	0.031
0.79998	240.006	12047.9	159.332	0.036
0.79998	240.007	1951.68	19.1493	0.0062
0.79998	240.007	10372.3	133.315	0.031
0.79998	240.008	1951.65	19.149	0.0062
0.79998	240.008	3991.53	41.8987	0.0105
0.79998	240.009	6012.25	67.6768	0.016
0.79998	240.009	8017.62	96.5609	0.0233
0.79998	240.01	6011.85	67.6707	0.016
0.79998	240.01	13638.4	182.319	0.041
0.79998	240.014	7075.99	82.6152	0.0192
0.79998	249.914	2444.14	23.1522	0.0066
0.79998	249.914	2444.91	23.1598	0.0066
0.79998	249.914	5015.83	51.0598	0.0123
0.79998	249.914	5016.04	51.0618	0.0123
0.79998	249.915	2443.86	23.1504	0.0066
0.79998	249.915	7570.52	82.6548	0.0194
0.79998	249.917	7570.84	82.6605	0.0194
0.79998	249.92	8910.46	100.56	0.023
0.79998	249.921	8909.9	100.551	0.023
0.79998	249.924	8910.98	100.565	0.023
0.79998	249.929	16952.3	203.124	0.046
0.79998	249.93	16938	202.973	0.046
0.79998	249.931	12900	155.107	0.035
0.79998	249.931	14258.3	172.479	0.039
0.79998	249.933	12901.2	155.123	0.035
0.79998	249.933	14256.6	172.455	0.039
0.79998	249.934	10917	128.204	0.03
0.79998	249.936	9595.99	109.925	0.025
0.79998	249.936	10909.8	128.101	0.03
0.79998	249.986	2056.71	19.2703	0.0062
0.79998	249.987	4007.99	39.6397	0.0098
0.79998	249.987	6017.58	62.9683	0.0163
0.79998	249.988	7544.15	82.2685	0.0192
0.79998	249.989	7544.64	82.2725	0.0192
0.79998	249.99	10120.9	117.092	0.028
0.79998	249.992	13368.9	161.093	0.037
0.79998	249.993	13368.5	161.09	0.037
0.79998	274.804	11275.6	109.07	0.026
0.79998	274.805	7550.3	69.666	0.0169
0.79998	274.805	11274.9	109.063	0.026
0.79998	274.806	5055.29	44.7483	0.0111
0.79998	274.806	7550.29	69.6651	0.0169
0.79998	274.806	7562.09	69.788	0.0169
0.79998	274.806	7562.56	69.7929	0.0169
0.79998	274.806	15730.8	155.191	0.036
0.79998	274.806	16797.4	165.435	0.039
0.79998	274.807	9502.31	90.1254	0.0217
0.79998	274.807	12889.1	126.201	0.029
0.79998	274.807	14326.6	141.128	0.034
0.79998	274.807	15733.3	155.216	0.036
0.79998	274.807	16816.1	165.609	0.039
0.79998	274.808	5055.4	44.7496	0.0111
0.79998	274.808	9501.71	90.1191	0.0217
0.79998	274.808	12889.7	126.206	0.029
0.79998	274.809	14324.6	141.105	0.034
0.79998	274.811	2552.21	21.5902	0.0064
0.79998	274.812	2552.3	21.5893	0.0064
0.79998	274.815	10330.2	98.956	0.0237
0.79998	274.815	10337	99.0305	0.0237
0.79998	274.816	8425.28	78.7622	0.0187
0.79998	274.816	9439.51	89.4646	0.0216
0.79998	274.818	11275.2	109.065	0.026
0.79998	274.819	11277.4	109.088	0.026
0.79998	274.82	12811.1	125.374	0.03
0.79998	274.986	15496.8	152.681	0.036
0.79998	274.987	16130.9	158.861	0.037
0.79998	274.988	14080.3	138.416	0.033
0.79998	274.99	10017.1	95.4954	0.0248
0.79998	274.99	11988.9	116.514	0.027
0.79998	274.99	11989.3	116.518	0.027
0.79998	274.991	2012.67	16.8448	0.0062
0.79998	274.991	6021.19	54.1463	0.013
0.79998	274.991	8019.19	74.4425	0.0184
0.79998	274.992	4076.69	35.4308	0.009
0.79998	299.908	12312.8	102.883	0.024
0.79998	299.908	12313.5	102.89	0.024
0.79998	299.908	14412.5	121.138	0.029
0.79998	299.909	10001.4	82.4925	0.0196
0.79998	299.91	9999.13	82.4744	0.0196
0.79998	299.91	10000.5	82.4859	0.0196
0.79998	299.91	14411.5	121.127	0.029
0.79998	299.91	16341.7	137.386	0.032
0.79998	299.912	7416.27	59.8697	0.0145
0.79998	299.912	7417.63	59.8813	0.0145
0.79998	299.912	16342.8	137.395	0.032
0.79998	299.914	2564.46	19.5987	0.0061
0.79998	299.914	2564.48	19.5993	0.0061
0.79998	299.914	4995	39.306	0.0097
0.79998	299.915	2421.65	18.4741	0.006
0.79998	299.915	4994.98	39.3048	0.0097
0.79998	299.915	9109.52	74.6412	0.0179
0.79998	300.002	6904.71	55.4385	0.0136
0.79998	300.015	19196.3	160.005	0.037
0.79998	349.984	2438.8	15.6874	0.0057
0.79998	349.984	4939.5	32.1898	0.0082
0.79998	349.984	17023.2	112.695	0.028
0.79998	349.985	4939.9	32.193	0.0082
0.79998	349.985	7493.5	49.3399	0.0122
0.79998	349.985	7494.4	49.3451	0.0122
0.79998	349.985	8822.8	58.3243	0.0148
0.79998	349.986	2438.9	15.6871	0.0057
0.79998	349.986	12241.1	81.3717	0.0207
0.79998	349.986	14942	99.2671	0.0242
0.79998	349.987	8821.7	58.3187	0.0148
0.79998	349.987	14937.9	99.2371	0.0242
0.79998	349.987	17028.7	112.731	0.028
0.79998	349.989	12243.4	81.3884	0.0207
0.79998	350.011	10149	67.2887	0.0166
0.79998	350.012	8197.7	54.0918	0.0134
0.79998	350.012	8197.9	54.0933	0.0134
0.79998	350.012	11859	78.8049	0.0202
0.79998	350.013	11861.6	78.8216	0.0202
0.79998	399.997	4571.9	25.5965	0.0071
0.79998	399.997	9750.2	54.7419	0.0142
0.79998	399.999	13644.4	76.2876	0.0191
0.79998	400.069	17284.8	95.7881	0.0247
0.79998	400.07	13112.5	73.3611	0.0196
0.79998	400.071	1968.6	10.9663	0.0053
0.79998	400.071	10121.8	56.8069	0.0147
0.79998	400.071	17324.2	95.9938	0.0247
0.79998	400.072	7579.8	42.5457	0.0104
0.79998	400.072	10129.9	56.8516	0.0147
0.79998	400.072	13115.6	73.3802	0.0196
0.79998	400.072	13262.4	74.1822	0.0198
0.79998	400.072	15316.8	85.3273	0.0208
0.79998	400.074	5054.8	28.3114	0.0076
0.79998	400.074	7586.8	42.5825	0.0104
0.79998	400.074	15323.9	85.3629	0.0209
0.79998	274.987	16130.9	158.862	0.037
0.89984	240.003	2107.47	19.5904	0.0063
0.89984	240.004	2107.47	19.5908	0.0063
0.89984	240.004	4055.52	40.6283	0.0103
0.89984	240.005	13510.6	181.648	0.041
0.89984	240.006	15025.6	200.798	0.046
0.89984	240.008	10028.6	127.633	0.03
0.89984	240.008	12090	160.982	0.037
0.89984	240.012	10028.5	127.626	0.03
0.89984	240.013	8026.28	94.9591	0.0233
0.89984	240.016	6035.63	65.6527	0.016
0.89984	249.991	6005.82	60.2899	0.0147
0.89984	249.991	8075.08	86.7862	0.0205
0.89984	249.992	3994.07	37.4833	0.0094
0.89984	249.993	2003.38	17.6409	0.0061
0.89984	249.993	3994.2	37.4837	0.0094
0.89984	249.993	8074.65	86.7809	0.0205
0.89984	249.993	8074.94	86.7846	0.0205
0.89984	249.993	10119.7	115.3	0.027
0.89984	249.993	12762.6	152.294	0.035
0.89984	249.996	1972.23	17.3493	0.0061
0.89984	249.996	12762	152.28	0.035
0.89984	249.997	2229.01	19.7632	0.0062
0.89984	249.997	15167.8	182.264	0.041
0.89984	249.999	18609.1	216.303	0.049
0.89984	274.989	2211.02	17.4645	0.0059
0.89984	274.993	17724.5	169.816	0.04
0.89984	274.994	6055.35	51.8525	0.0127
0.89984	274.994	15090.9	145.151	0.035
0.89984	274.994	16804.7	161.533	0.037
0.89984	274.994	16805.1	161.536	0.037
0.89984	274.994	17725.5	169.823	0.04
0.89984	274.996	4053.85	33.2951	0.0085
0.89984	274.997	2005.08	15.7688	0.0058
0.89984	274.997	6055.39	51.8523	0.0127
0.89984	274.997	13321.5	127.156	0.029
0.89984	274.998	11444.4	107.355	0.027
0.89984	274.999	10028.2	92.2879	0.0217
0.89984	275.002	8023.18	71.384	0.0169
0.89984	299.99	15057.9	122.114	0.03
0.89984	299.992	13043.1	105.072	0.026
0.89984	299.992	15057.9	122.112	0.03
0.89984	299.993	17100.7	138.717	0.033
0.89984	299.994	17101	138.72	0.033
0.89984	299.994	19357.4	155.97	0.038
0.89984	299.994	19358.1	155.975	0.038
0.89984	299.995	11033.7	87.7596	0.0214
0.89984	299.996	9029.57	70.5133	0.0174
0.89984	299.996	9029.61	70.5136	0.0174
0.89984	299.996	16021.1	130.057	0.031
0.89984	299.996	16022.7	130.071	0.031
0.89984	299.996	17939.4	145.292	0.034
0.89984	299.997	2023.14	14.4136	0.0056
0.89984	299.997	9029.99	70.5158	0.0174
0.89984	299.997	20071.4	161.173	0.038
0.89984	299.997	20073.6	161.19	0.038
0.89984	299.998	2023.03	14.4126	0.0056
0.89984	299.998	4003.28	29.3523	0.0076
0.89984	299.998	5998.94	45.2004	0.0112
0.89984	299.998	12064	96.6562	0.0232
0.89984	299.998	17936.3	145.268	0.034
0.89984	299.999	899.61	6.30257	0.00494
0.89984	299.999	2766.27	19.9248	0.0062
0.89984	299.999	4948.93	36.7656	0.0091
0.89984	299.999	5998.67	45.1981	0.0112
0.89984	299.999	6954.26	53.0353	0.0128
0.89984	299.999	8009.15	61.855	0.0151
0.89984	299.999	10050	79.2704	0.0191
0.89984	299.999	12062.9	96.6441	0.0232
0.89984	299.999	14009.9	113.319	0.027
0.89984	300	8009.69	61.8592	0.0151
0.89984	300	14011.8	113.335	0.027
0.89984	300.004	12995.6	104.673	0.025
0.89984	350.001	1986.5	11.9485	0.0054
0.89984	350.001	10025.7	62.975	0.0155
0.89984	350.001	16066.1	101.591	0.025
0.89984	350.001	19983.2	125.244	0.031
0.89984	350.002	3975.19	24.2393	0.0067
0.89984	350.002	5966.21	36.8151	0.0092
0.89984	350.002	12031.8	75.9524	0.0187
0.89984	350.002	13967.4	88.3679	0.0217
0.89984	350.002	13968.5	88.373	0.0217
0.89984	350.002	18023.6	113.606	0.028
0.89984	350.002	18024.1	113.606	0.028
0.89984	350.003	1986.37	11.9478	0.0054
0.89984	350.003	8018.68	49.9871	0.0123
0.89984	350.003	12032.6	75.9539	0.0187
0.89984	350.003	16067.6	101.601	0.025
0.89984	350.004	16069.7	101.613	0.025
0.89984	350.004	16189.2	102.36	0.026
0.89984	350.005	19983.9	125.244	0.031
0.89984	400.004	5986.11	31.5654	0.008
0.89984	400.004	8029.23	42.4672	0.0104
0.89984	400.004	12023.1	63.6651	0.0154
0.89984	400.004	18094.7	94.8699	0.0234
0.89984	400.005	14029.9	74.1643	0.018
0.89984	400.005	18097.8	94.8835	0.0234
0.89984	400.005	19369	101.162	0.025
0.89984	400.006	2027.73	10.5861	0.0053
0.89984	400.006	4038.88	21.2078	0.0063
0.89984	400.006	4040.23	21.2133	0.0063
0.89984	400.006	8029.39	42.4641	0.0104
0.89984	400.006	10034.7	53.1468	0.0129
0.89984	400.006	15972.9	84.171	0.0205
0.89984	400.006	15984.6	84.2306	0.0205
0.89984	400.006	19361.5	101.12	0.025
0.89984	400.008	14024.5	74.1363	0.018
0.89984	249.996	12762	152.282	0.035
0.89984	400.006	10034.7	53.1474	0.0129
