Measured thermophysical data. Correlation between excess volume and thermodynamic functions of liquid Pd-X (X = Fe, Cu and Ni) binary systems
Source: J. Chem. Thermodyn., 2019, 10.1016/j.jct.2018.09.037
Compound 1: palladium, Pd, InChI=1S/Pd, purity 99.5%
Compound 2: iron, Fe, InChI=1S/Fe, purity 99.99%
Compound 3: nickel, Ni, InChI=1S/Ni, purity 99.99%
Compound 4: copper, Cu, InChI=1S/Cu, purity 99.99%

System: palladium; phases: Liquid
Fixed: Pressure, kPa = 100
Property: Mass density, kg/m3 (Liquid); method: Electromagnetic levitation; mass taken directly, volume taken from sample image
Temperature, K	Mass density, kg/m3	uncertainty
1790	10670	172
1795	10672	172
1796	10652	171
1802	10686	174
1809	10670	174
1820	10677	176
1831	10627	178
1843	10654	182
1856	10601	182
1878	10558	182
1889	10592	183
1890	10575	182
1917	10529	183
1935	10478	183
1951	10465	183

System: copper; phases: Liquid
Fixed: Pressure, kPa = 100
Property: Mass density, kg/m3 (Liquid); method: Electromagnetic levitation; mass taken directly, volume taken from sample image
Temperature, K	Mass density, kg/m3	uncertainty
1371	7884	114
1385	7849	114
1400	7875	115
1432	7821	116
1435	7819	116
1437	7806	116
1441	7827	117
1456	7799	117
1460	7828	116
1461	7826	117
1489	7770	118
1507	7792	118
1510	7755	121
1578	7716	118
1624	7673	121
1625	7665	121
1679	7628	125

System: palladium + iron; phases: Liquid
Fixed: Pressure, kPa = 100
Property: Mass density, kg/m3 (Liquid); method: Electromagnetic levitation; mass taken directly, volume taken from sample image
Mole fraction of palladium	Temperature, K	Mass density, kg/m3	uncertainty
1	1790	10670	172
1	1795	10672	172
1	1796	10652	171
1	1802	10686	174
1	1809	10670	174
1	1820	10677	176
1	1831	10627	178
1	1843	10654	182
1	1856	10601	182
1	1878	10558	182
1	1889	10592	183
1	1890	10575	182
1	1917	10529	183
1	1935	10478	183
1	1951	10465	183
0.8	1440	9717	239
0.8	1483	9676	239
0.8	1543	9619	240
0.8	1598	9769	245
0.8	1613	9499	239
0.8	1624	9547	241
0.8	1625	9735	245
0.8	1665	9694	246
0.8	1672	9450	240
0.8	1707	9656	250
0.8	1749	9379	244
0.8	1767	9602	251
0.8	1832	9536	250
0.8	1841	9278	244
0.8	1916	9434	250
0.6	1414	8979	392
0.6	1437	8950	391
0.6	1476	8899	389
0.6	1483	8904	389
0.6	1536	8856	387
0.6	1551	8825	385
0.6	1590	8791	383
0.6	1613	8779	384
0.6	1633	8756	383
0.6	1663	8735	382
0.6	1667	8709	381
0.6	1715	8695	380
0.6	1725	8660	379
0.6	1789	8633	378
0.6	1879	8530	375
0.6	1889	8544	375
0.4	1500	8297	362
0.4	1512	8275	361
0.4	1562	8208	358
0.4	1625	8150	356
0.4	1711	8076	354
0.4	1829	7971	350
0.4	1832	7965	350
0.2	1630	7824	209
0.2	1651	7615	204
0.2	1668	7805	210
0.2	1681	7789	208
0.2	1681	7591	204
0.2	1713	7775	209
0.2	1721	7550	202
0.2	1742	7739	208
0.2	1772	7506	201
0.2	1838	7700	208
0.2	1864	7646	206
0.2	1872	7426	200

System: palladium + copper; phases: Liquid
Fixed: Pressure, kPa = 100
Property: Mass density, kg/m3 (Liquid); method: Electromagnetic levitation; mass taken directly, volume taken from sample image
Mole fraction of palladium	Temperature, K	Mass density, kg/m3	uncertainty
0.75	1654	9987	312
0.75	1678	9964	310
0.75	1708	9936	309
0.75	1753	9886	306
0.75	1784	9853	301
0.75	1822	9805	300
0.75	1857	9728	295
0.5	1523	9468	497
0.5	1532	9456	496
0.5	1562	9412	494
0.5	1617	9371	492
0.5	1653	9329	489
0.5	1662	9329	490
0.5	1718	9281	486
0.5	1766	9221	482
0.5	1805	9118	476
0.25	1374	8847	255
0.25	1421	8805	256
0.25	1469	8762	257
0.25	1523	8711	258
0.25	1590	8663	258
0.25	1685	8540	260
0	1371	7884	114
0	1385	7849	114
0	1400	7875	115
0	1432	7821	116
0	1435	7819	116
0	1437	7806	116
0	1441	7827	117
0	1456	7799	117
0	1460	7828	116
0	1461	7826	117
0	1489	7770	118
0	1507	7792	118
0	1510	7755	121
0	1578	7716	118
0	1624	7673	121
0	1625	7665	121
0	1679	7628	125
1	1790	10670	172
1	1795	10672	172
1	1796	10652	171
1	1802	10686	174
1	1809	10670	174
1	1820	10677	176
1	1831	10627	178
1	1843	10654	182
1	1856	10601	182
1	1878	10558	182
1	1889	10592	183
1	1890	10575	182
1	1917	10529	183
1	1935	10478	183
1	1951	10465	183

System: palladium + nickel; phases: Liquid
Fixed: Pressure, kPa = 100
Property: Mass density, kg/m3 (Liquid); method: Electromagnetic levitation; mass taken directly, volume taken from sample image
Mole fraction of palladium	Temperature, K	Mass density, kg/m3	uncertainty
0.75	1563	10175	297
0.75	1598	10153	298
0.75	1589	10157	298
0.75	1619	10117	296
0.75	1653	10089	296
0.75	1701	10023	295
0.75	1774	9966	295
0.75	1835	9929	295
0.75	1905	9819	293
0.5	1480	9527	497
0.5	1488	9518	496
0.5	1513	9495	495
0.5	1549	9457	493
0.5	1549	9456	493
0.5	1586	9422	492
0.5	1630	9386	490
0.5	1695	9341	489
0.5	1770	9275	486
0.5	1859	9186	482
0.25	1474	8842	257
0.25	1510	8793	256
0.25	1551	8757	255
0.25	1611	8707	254
0.25	1668	8661	254
0.25	1757	8586	253
0.25	1870	8503	252
1	1790	10670	172
1	1795	10672	172
1	1796	10652	171
1	1802	10686	174
1	1809	10670	174
1	1820	10677	176
1	1831	10627	178
1	1843	10654	182
1	1856	10601	182
1	1878	10558	182
1	1889	10592	183
1	1890	10575	182
1	1917	10529	183
1	1935	10478	183
1	1951	10465	183
