Measured thermophysical data. Thermodynamic properties of binary mixtures of N-methyl-2-pyrrolidinone with cyclohexane, benzene, toluene at (303.15 to 353.15) K and atmospheric pressure
Source: J. Chem. Thermodyn., 2007, 10.1016/j.jct.2006.06.005
Compound 1: N-methylpyrrolidone, C5H9NO, InChI=1S/C5H9NO/c1-6-4-2-3-5(6)7/h2-4H2,1H3
Compound 2: cyclohexane, C6H12, InChI=1S/C6H12/c1-2-4-6-5-3-1/h1-6H2
Compound 3: benzene, C6H6, InChI=1S/C6H6/c1-2-4-6-5-3-1/h1-6H
Compound 4: toluene, C7H8, InChI=1S/C7H8/c1-7-5-3-2-4-6-7/h2-6H,1H3

System: N-methylpyrrolidone; phases: Liquid
Fixed: Pressure, kPa = 101
Property: Viscosity, Pa*s (Liquid); method: CAPTUB:UFactor:4
Temperature, K	Viscosity, Pa*s	uncertainty
303.15	0.001554	3.7e-05
313.15	0.001332	3.2e-05
323.15	0.00116	2.9e-05
333.15	0.001022	2.6e-05
343.15	0.000908	2.3e-05
353.15	0.0008127	2.1e-05

System: N-methylpyrrolidone; phases: Liquid
Fixed: Pressure, kPa = 101
Property: Mass density, kg/m3 (Liquid); method: VIBTUB:UFactor:8
Temperature, K	Mass density, kg/m3	uncertainty
303.15	1023.47	0.53
313.15	1014.55	0.5
323.15	1005.66	0.47
333.15	996.71	0.46
343.15	987.75	0.48
353.15	978.76	0.51

System: cyclohexane; phases: Liquid
Fixed: Pressure, kPa = 101
Property: Viscosity, Pa*s (Liquid); method: CAPTUB::UFactor:4
Temperature, K	Viscosity, Pa*s	uncertainty
303.15	0.000821	2.1e-05
313.15	0.000696	1.8e-05
323.15	0.000598	1.6e-05
333.15	0.00052	1.4e-05

System: cyclohexane; phases: Liquid
Fixed: Pressure, kPa = 101
Property: Mass density, kg/m3 (Liquid); method: VIBTUB:UFactor:8
Temperature, K	Mass density, kg/m3	uncertainty
303.15	769.1	0.97
313.15	759.6	1
323.15	749.98	1.03
333.15	740.23	1.06

System: benzene; phases: Liquid
Fixed: Pressure, kPa = 101
Property: Viscosity, Pa*s (Liquid); method: CAPTUB::UFactor:4
Temperature, K	Viscosity, Pa*s	uncertainty
303.15	0.000561	1.5e-05
313.15	0.000493	1.4e-05
323.15	0.000436	1.3e-05
333.15	0.000388	1.2e-05
343.15	0.000345	1.14e-05

System: benzene; phases: Liquid
Fixed: Pressure, kPa = 101
Property: Mass density, kg/m3 (Liquid); method: VIBTUB:UFactor:8
Temperature, K	Mass density, kg/m3	uncertainty
303.15	868.21	0.7
313.15	857.46	0.73
323.15	846.65	0.76
333.15	835.72	0.8
343.15	824.87	0.83

System: toluene; phases: Liquid
Fixed: Pressure, kPa = 101
Property: Viscosity, Pa*s (Liquid); method: CAPTUB::UFactor:4
Temperature, K	Viscosity, Pa*s	uncertainty
303.15	0.000525	1.5e-05
313.15	0.00047	1.4e-05
323.15	0.000423	1.3e-05
333.15	0.000385	1.2e-05
343.15	0.00035	1.2e-05
353.15	0.000323	1.1e-05

System: toluene; phases: Liquid
Fixed: Pressure, kPa = 101
Property: Mass density, kg/m3 (Liquid); method: VIBTUB::UFactor:8
Temperature, K	Mass density, kg/m3	uncertainty
303.15	858.32	0.76
313.15	848.92	0.79
323.15	839.45	0.82
333.15	829.93	0.85
343.15	820.3	0.88
353.15	810.54	0.91

System: cyclohexane + N-methylpyrrolidone; phases: Liquid
Fixed: Pressure, kPa = 101
Property: Viscosity, Pa*s (Liquid); method: CAPTUB:UFactor:4
Temperature, K	Mole fraction of cyclohexane	Viscosity, Pa*s	uncertainty
303.15	0	0.001554	3.7e-05
303.15	0.1157	0.001394	3.4e-05
303.15	0.2275	0.00128	3.1e-05
303.15	0.3355	0.001194	2.9e-05
303.15	0.4398	0.001132	2.8e-05
303.15	0.5409	0.001073	2.6e-05
303.15	0.6386	0.001011	2.5e-05
303.15	0.7332	0.000953	2.4e-05
303.15	0.8249	0.000895	2.2e-05
303.15	0.9138	0.000843	2.1e-05
303.15	1	0.000821	2.1e-05
313.15	0	0.001332	3.2e-05
313.15	0.1157	0.001206	3e-05
313.15	0.2275	0.001106	2.7e-05
313.15	0.3355	0.001032	2.6e-05
313.15	0.4398	0.000973	2.4e-05
313.15	0.5409	0.00092	2.3e-05
313.15	0.6386	0.000866	2.2e-05
313.15	0.7332	0.000813	2.1e-05
313.15	0.8249	0.00076	2e-05
313.15	0.9138	0.00072	1.9e-05
313.15	1	0.000696	1.8e-05
323.15	0	0.00116	2.9e-05
323.15	0.1157	0.001056	2.6e-05
323.15	0.2275	0.000965	2.4e-05
323.15	0.3355	0.0009	2.3e-05
323.15	0.4398	0.000843	2.1e-05
323.15	0.5409	0.000791	2e-05
323.15	0.6386	0.000746	1.9e-05
323.15	0.7332	0.000699	1.8e-05
323.15	0.8249	0.000655	1.7e-05
323.15	0.9138	0.000623	1.7e-05
323.15	1	0.000598	1.6e-05
333.15	0	0.001022	2.6e-05
333.15	0.1157	0.000931	2.4e-05
333.15	0.2275	0.000854	2.2e-05
333.15	0.3355	0.000791	2e-05
333.15	0.4398	0.000739	1.9e-05
333.15	0.5409	0.000692	1.8e-05
333.15	0.6386	0.000648	1.7e-05
333.15	0.7332	0.000608	1.6e-05
333.15	0.8249	0.000573	1.6e-05
333.15	0.9138	0.000544	1.5e-05
333.15	1	0.00052	1.4e-05

System: cyclohexane + N-methylpyrrolidone; phases: Liquid
Fixed: Pressure, kPa = 101
Property: Mass density, kg/m3 (Liquid); method: VIBTUB:UFactor:8
Temperature, K	Mole fraction of cyclohexane	Mass density, kg/m3	uncertainty
303.15	0	1023.47	0.53
303.15	0.1157	989.9	0.44
303.15	0.2275	958.38	0.49
303.15	0.3355	928.85	0.55
303.15	0.4398	901.35	0.61
303.15	0.5409	875.71	0.67
303.15	0.6386	851.53	0.73
303.15	0.7332	828.73	0.8
303.15	0.8249	807.41	0.86
303.15	0.9138	787.37	0.92
303.15	1	769.1	0.97
313.15	0	1014.55	0.5
313.15	0.1157	980.96	0.46
313.15	0.2275	949.41	0.52
313.15	0.3355	919.78	0.58
313.15	0.4398	892.21	0.64
313.15	0.5409	866.43	0.7
313.15	0.6386	842.17	0.76
313.15	0.7332	819.29	0.82
313.15	0.8249	797.92	0.89
313.15	0.9138	777.85	0.95
313.15	1	759.6	1
323.15	0	1005.66	0.47
323.15	0.1157	972.02	0.49
323.15	0.2275	940.41	0.54
323.15	0.3355	910.71	0.6
323.15	0.4398	883.02	0.67
323.15	0.5409	857.14	0.73
323.15	0.6386	832.77	0.79
323.15	0.7332	809.79	0.85
323.15	0.8249	788.36	0.92
323.15	0.9138	768.22	0.98
323.15	1	749.98	1.03
333.15	0	996.71	0.46
333.15	0.1157	963.06	0.51
333.15	0.2275	931.37	0.57
333.15	0.3355	901.57	0.63
333.15	0.4398	873.78	0.69
333.15	0.5409	847.77	0.76
333.15	0.6386	823.29	0.82
333.15	0.7332	800.2	0.88
333.15	0.8249	778.69	0.95
333.15	0.9138	758.49	1.01
333.15	1	740.23	1.06

System: benzene + N-methylpyrrolidone; phases: Liquid
Fixed: Pressure, kPa = 101
Property: Viscosity, Pa*s (Liquid); method: CAPTUB:UFactor:4
Temperature, K	Mole fraction of benzene	Viscosity, Pa*s	uncertainty
303.15	0	0.001554	3.7e-05
303.15	0.1239	0.001357	3.3e-05
303.15	0.2409	0.001222	3e-05
303.15	0.3523	0.001102	2.7e-05
303.15	0.4584	0.000991	2.5e-05
303.15	0.5594	0.000899	2.3e-05
303.15	0.6557	0.000809	2.1e-05
303.15	0.7476	0.000729	1.9e-05
303.15	0.8354	0.000655	1.7e-05
303.15	0.9195	0.000585	1.6e-05
303.15	1	0.000561	1.5e-05
313.15	0	0.001332	3.2e-05
313.15	0.1239	0.001163	2.9e-05
313.15	0.2409	0.001049	2.6e-05
313.15	0.3523	0.000952	2.4e-05
313.15	0.4584	0.000858	2.2e-05
313.15	0.5594	0.000779	2e-05
313.15	0.6557	0.000703	1.8e-05
313.15	0.7476	0.000636	1.7e-05
313.15	0.8354	0.000573	1.6e-05
313.15	0.9195	0.000519	1.4e-05
313.15	1	0.000493	1.4e-05
323.15	0	0.00116	2.9e-05
323.15	0.1239	0.001015	2.5e-05
323.15	0.2409	0.000915	2.3e-05
323.15	0.3523	0.000834	2.1e-05
323.15	0.4584	0.000753	2e-05
323.15	0.5594	0.000684	1.8e-05
323.15	0.6557	0.00062	1.7e-05
323.15	0.7476	0.00056	1.5e-05
323.15	0.8354	0.000505	1.4e-05
323.15	0.9195	0.000458	1.3e-05
323.15	1	0.000436	1.3e-05
333.15	0	0.001022	2.6e-05
333.15	0.1239	0.000895	2.3e-05
333.15	0.2409	0.000807	2.1e-05
333.15	0.3523	0.000735	1.9e-05
333.15	0.4584	0.000665	1.8e-05
333.15	0.5594	0.000604	1.6e-05
333.15	0.6557	0.000548	1.5e-05
333.15	0.7476	0.000498	1.4e-05
333.15	0.8354	0.000451	1.3e-05
333.15	0.9195	0.00041	1.3e-05
333.15	1	0.000388	1.2e-05
343.15	0	0.000908	2.3e-05
343.15	0.1239	0.000797	2.1e-05
343.15	0.2409	0.000712	1.9e-05
343.15	0.3523	0.000656	1.7e-05
343.15	0.4584	0.000593	1.6e-05
343.15	0.5594	0.000539	1.5e-05
343.15	0.6557	0.000491	1.4e-05
343.15	0.7476	0.000447	1.3e-05
343.15	0.8354	0.000405	1.2e-05
343.15	0.9195	0.000369	1.2e-05
343.15	1	0.000345	1.14e-05

System: benzene + N-methylpyrrolidone; phases: Liquid
Fixed: Pressure, kPa = 101
Property: Mass density, kg/m3 (Liquid); method: VIBTUB:UFactor:8
Temperature, K	Mole fraction of benzene	Mass density, kg/m3	uncertainty
303.15	0	1023.47	0.53
303.15	0.1239	1008.67	0.45
303.15	0.2409	993.24	0.42
303.15	0.3523	978.06	0.45
303.15	0.4584	962.87	0.47
303.15	0.5594	947.6	0.5
303.15	0.6557	931.99	0.54
303.15	0.7476	916.33	0.58
303.15	0.8354	900.43	0.61
303.15	0.9195	884.33	0.66
303.15	1	868.21	0.7
313.15	0	1014.55	0.5
313.15	0.1239	999.64	0.42
313.15	0.2409	984.1	0.45
313.15	0.3523	968.78	0.47
313.15	0.4584	953.43	0.5
313.15	0.5594	937.99	0.53
313.15	0.6557	922.17	0.57
313.15	0.7476	906.29	0.61
313.15	0.8354	890.16	0.65
313.15	0.9195	873.83	0.69
313.15	1	857.46	0.73
323.15	0	1005.66	0.47
323.15	0.1239	990.6	0.45
323.15	0.2409	974.95	0.47
323.15	0.3523	959.51	0.5
323.15	0.4584	943.96	0.53
323.15	0.5594	928.33	0.56
323.15	0.6557	912.31	0.6
323.15	0.7476	896.21	0.64
323.15	0.8354	879.84	0.68
323.15	0.9195	863.26	0.72
323.15	1	846.65	0.76
333.15	0	996.71	0.46
333.15	0.1239	981.51	0.47
333.15	0.2409	965.76	0.5
333.15	0.3523	950.17	0.53
333.15	0.4584	934.42	0.56
333.15	0.5594	918.6	0.59
333.15	0.6557	902.36	0.63
333.15	0.7476	886.02	0.67
333.15	0.8354	869.42	0.71
333.15	0.9195	852.58	0.75
333.15	1	835.72	0.8
343.15	0	987.75	0.48
343.15	0.1239	972.41	0.5
343.15	0.2409	956.53	0.53
343.15	0.3523	940.78	0.55
343.15	0.4584	924.85	0.58
343.15	0.5594	908.82	0.62
343.15	0.6557	892.35	0.66
343.15	0.7476	875.8	0.7
343.15	0.8354	858.93	0.74
343.15	0.9195	841.81	0.79
343.15	1	824.87	0.83

System: toluene + N-methylpyrrolidone; phases: Liquid
Fixed: Pressure, kPa = 101
Property: Viscosity, Pa*s (Liquid); method: CAPTUB:UFactor:4
Temperature, K	Mole fraction of toluene	Viscosity, Pa*s	uncertainty
303.15	0	0.001554	3.7e-05
303.15	0.1071	0.001399	3.4e-05
303.15	0.2121	0.001258	3.1e-05
303.15	0.3156	0.001138	2.8e-05
303.15	0.4177	0.001021	2.6e-05
303.15	0.5185	0.000923	2.3e-05
303.15	0.6174	0.000822	2.1e-05
303.15	0.7151	0.000727	1.9e-05
303.15	0.8114	0.00065	1.7e-05
303.15	0.9064	0.000566	1.5e-05
303.15	1	0.000525	1.5e-05
313.15	0	0.001332	3.2e-05
313.15	0.1071	0.00121	3e-05
313.15	0.2121	0.001088	2.7e-05
313.15	0.3156	0.000991	2.5e-05
313.15	0.4177	0.00089	2.3e-05
313.15	0.5185	0.000803	2.1e-05
313.15	0.6174	0.000719	1.9e-05
313.15	0.7151	0.000642	1.7e-05
313.15	0.8114	0.000575	1.6e-05
313.15	0.9064	0.000516	1.4e-05
313.15	1	0.00047	1.4e-05
323.15	0	0.00116	2.9e-05
323.15	0.1071	0.001061	2.6e-05
323.15	0.2121	0.000956	2.4e-05
323.15	0.3156	0.00087	2.2e-05
323.15	0.4177	0.000783	2e-05
323.15	0.5185	0.00071	1.9e-05
323.15	0.6174	0.000639	1.7e-05
323.15	0.7151	0.000572	1.6e-05
323.15	0.8114	0.000514	1.4e-05
323.15	0.9064	0.000463	1.4e-05
323.15	1	0.000423	1.3e-05
333.15	0	0.001022	2.6e-05
333.15	0.1071	0.000932	2.4e-05
333.15	0.2121	0.000844	2.2e-05
333.15	0.3156	0.000766	2e-05
333.15	0.4177	0.000695	1.8e-05
333.15	0.5185	0.000632	1.7e-05
333.15	0.6174	0.00057	1.6e-05
333.15	0.7151	0.000514	1.4e-05
333.15	0.8114	0.000463	1.4e-05
333.15	0.9064	0.000418	1.3e-05
333.15	1	0.000385	1.2e-05
343.15	0	0.000908	2.3e-05
343.15	0.1071	0.000844	2.2e-05
343.15	0.2121	0.000751	2e-05
343.15	0.3156	0.000683	1.8e-05
343.15	0.4177	0.000622	1.7e-05
343.15	0.5185	0.000566	1.6e-05
343.15	0.6174	0.000518	1.5e-05
343.15	0.7151	0.000464	1.4e-05
343.15	0.8114	0.000418	1.3e-05
343.15	0.9064	0.000379	1.2e-05
343.15	1	0.00035	1.2e-05
353.15	0	0.0008127	2.1e-05
353.15	0.1071	0.0007651	2e-05
353.15	0.2121	0.0006769	1.8e-05
353.15	0.3156	0.000617	1.67e-05
353.15	0.4177	0.0005616	1.54e-05
353.15	0.5185	0.000513	1.44e-05
353.15	0.6174	0.000464	1.4e-05
353.15	0.7151	0.000422	1.3e-05
353.15	0.8114	0.000381	1.2e-05
353.15	0.9064	0.000347	1.1e-05
353.15	1	0.000323	1.1e-05

System: toluene + N-methylpyrrolidone; phases: Liquid
Fixed: Pressure, kPa = 101
Property: Mass density, kg/m3 (Liquid); method: VIBTUB:UFactor:8
Temperature, K	Mole fraction of toluene	Mass density, kg/m3	uncertainty
303.15	0	1023.47	0.53
303.15	0.1071	1006.98	0.46
303.15	0.2121	990.67	0.45
303.15	0.3156	974.42	0.48
303.15	0.4177	958.02	0.52
303.15	0.5185	941.54	0.56
303.15	0.6174	925	0.6
303.15	0.7151	907.95	0.64
303.15	0.8114	890.99	0.68
303.15	0.9064	874.21	0.72
303.15	1	858.32	0.76
313.15	0	1014.55	0.5
313.15	0.1071	998.03	0.44
313.15	0.2121	981.67	0.47
313.15	0.3156	965.37	0.51
313.15	0.4177	948.91	0.54
313.15	0.5185	932.4	0.58
313.15	0.6174	915.81	0.62
313.15	0.7151	898.7	0.66
313.15	0.8114	881.69	0.71
313.15	0.9064	864.87	0.75
313.15	1	848.92	0.79
323.15	0	1005.66	0.47
323.15	0.1071	989.08	0.46
323.15	0.2121	972.67	0.5
323.15	0.3156	956.3	0.53
323.15	0.4177	939.78	0.57
323.15	0.5185	923.24	0.61
323.15	0.6174	906.6	0.65
323.15	0.7151	889.42	0.69
323.15	0.8114	872.36	0.73
323.15	0.9064	855.48	0.78
323.15	1	839.45	0.82
333.15	0	996.71	0.46
333.15	0.1071	980.08	0.49
333.15	0.2121	963.63	0.52
333.15	0.3156	947.17	0.56
333.15	0.4177	930.61	0.6
333.15	0.5185	914.01	0.64
333.15	0.6174	897.3	0.68
333.15	0.7151	880.06	0.72
333.15	0.8114	862.94	0.76
333.15	0.9064	845.99	0.81
333.15	1	829.93	0.85
343.15	0	987.75	0.48
343.15	0.1071	971.08	0.51
343.15	0.2121	954.56	0.55
343.15	0.3156	938.03	0.59
343.15	0.4177	921.4	0.62
343.15	0.5185	904.74	0.66
343.15	0.6174	887.95	0.7
343.15	0.7151	870.65	0.75
343.15	0.8114	853.44	0.79
343.15	0.9064	836.42	0.83
343.15	1	820.3	0.88
353.15	0	978.76	0.51
353.15	0.1071	962	0.54
353.15	0.2121	945.42	0.58
353.15	0.3156	928.81	0.61
353.15	0.4177	912.13	0.65
353.15	0.5185	895.4	0.69
353.15	0.6174	878.51	0.73
353.15	0.7151	861.11	0.78
353.15	0.8114	843.83	0.82
353.15	0.9064	826.71	0.86
353.15	1	810.54	0.91
