Measured thermophysical data. Phase equilibrium of (CO2 + 1-aminopropyl-3-methylimidazolium bromide + water) electrolyte system and effects of aqueous medium on CO2 solubility: Experiment and modeling
Source: J. Chem. Thermodyn., 2017, 10.1016/j.jct.2016.12.024
Compound 1: 1-aminopropyl-3-methylimidazolium bromide, C7H14BrN3, InChI=1S/C7H14N3.BrH/c1-9-5-6-10(7-9)4-2-3-8;/h5-7H,2-4,8H2,1H3;1H/q+1;/p-1, purity 98%
Compound 2: carbon dioxide, CO2, InChI=1S/CO2/c2-1-3, purity 99.99%
Compound 3: water, H2O, InChI=1S/H2O/h1H2

System: carbon dioxide + water + 1-aminopropyl-3-methylimidazolium bromide; phases: Liquid, Gas
Property: Molality, mol/kg of carbon dioxide (Liquid); method: Volumetric method
Solvent: Mass fraction of water	Temperature, K	Pressure, kPa	Molality, mol/kg of carbon dioxide	uncertainty
0.559	278.58	123.7	1.064	0.626
0.559	278.58	398.1	1.248	0.734
0.559	278.58	996.2	1.406	0.827
0.559	278.58	1621.5	1.531	0.058
0.559	278.58	2008.7	1.751	0.067
0.559	278.58	2578.6	2.016	0.078
0.559	278.58	2995.5	2.148	0.084
0.559	278.58	3463	2.31	0.094
0.559	278.58	3984.1	2.603	0.108
0.559	288.54	173.2	1.032	0.607
0.559	288.54	504.5	1.182	0.695
0.559	288.54	1168	1.302	0.766
0.559	288.54	1843.9	1.398	0.053
0.559	288.54	2278.2	1.595	0.062
0.559	288.54	2878.5	1.845	0.073
0.559	288.54	3326.1	1.973	0.079
0.559	288.54	3831.3	2.12	0.089
0.559	288.54	4445	2.364	0.109
0.559	298.51	240.1	0.99	0.027
0.559	298.51	624.8	1.11	0.653
0.559	298.51	1350.6	1.198	0.704
0.559	298.51	2076.2	1.27	0.049
0.559	298.51	2539.6	1.455	0.059
0.559	298.51	3196.7	1.683	0.069
0.559	298.51	3642.8	1.817	0.077
0.559	298.51	4203.1	1.957	0.089
0.559	298.51	4863	2.218	0.108
0.559	308.33	312.1	0.948	0.057
0.559	308.33	747.7	1.04	0.612
0.559	308.33	1522.3	1.106	0.65
0.559	308.33	2304.8	1.154	0.047
0.559	308.33	2800.2	1.328	0.057
0.559	308.33	3479.6	1.559	0.068
0.559	308.33	3970.5	1.685	0.076
0.559	308.33	4568.2	1.817	0.089
0.559	308.33	5284.1	2.094	0.11
0.559	318.5	398.5	0.898	0.104
0.559	318.5	880	0.968	0.032
0.559	318.5	1705.8	1.014	0.596
0.559	318.5	2537.8	1.046	0.046
0.559	318.5	3062.4	1.214	0.058
0.559	318.5	3774.7	1.441	0.068
0.559	318.5	4318.2	1.561	0.075
0.559	318.5	4932.1	1.701	0.09
0.559	318.5	5704.9	2.002	0.109
0.559	328.24	489.2	0.85	0.151
0.559	328.24	1016.1	0.9	0.1
0.559	328.24	1891	0.926	0.076
0.559	328.24	2760.7	0.952	0.045
0.559	328.24	3297	1.12	0.058
0.559	328.24	4074.6	1.332	0.068
0.559	328.24	4610.9	1.465	0.076
0.559	328.24	5313.1	1.601	0.091
0.559	328.24	6110	1.913	0.112
0.559	337.86	590.3	0.795	0.205
0.559	337.86	1143.7	0.835	0.165
0.559	337.86	2079.4	0.843	0.159
0.559	337.86	2958.5	0.88	0.046
0.559	337.86	3545.3	1.026	0.06
0.559	337.86	4378.3	1.23	0.07
0.559	337.86	4947.3	1.364	0.078
0.559	337.86	5643.2	1.517	0.093
0.559	337.86	6513.4	1.843	0.114
0.559	347.33	686.7	0.747	0.253
0.559	347.33	1290.8	0.767	0.233
0.559	347.33	2263.4	0.769	0.233
0.559	347.33	3183.3	0.799	0.047
0.559	347.33	3803.2	0.94	0.061
0.559	347.33	4639.4	1.15	0.072
0.559	347.33	5240.8	1.284	0.079
0.559	347.33	5979.1	1.451	0.095
0.559	347.33	6914.3	1.769	0.117
0.645	278.15	120	0.74	0.031
0.645	278.15	523	1.071	0.043
0.645	278.15	975	1.327	0.051
0.645	278.15	1481.2	1.521	0.058
0.645	278.15	1976.8	1.789	0.068
0.645	278.15	2479.7	2.095	0.08
0.645	278.15	2979	2.339	0.089
0.645	278.15	3396.7	2.684	0.103
0.645	278.15	3915	3.055	0.117
0.645	288.15	165.2	0.726	0.03
0.645	288.15	627.8	1.039	0.041
0.645	288.15	1129.2	1.282	0.049
0.645	288.15	1687.1	1.461	0.056
0.645	288.15	2227.4	1.718	0.066
0.645	288.15	2777.1	2.01	0.077
0.645	288.15	3302	2.255	0.086
0.645	288.15	3772	2.584	0.099
0.645	288.15	4229.8	2.955	0.113
0.645	298.15	219.2	0.71	0.029
0.645	298.15	738	1.008	0.04
0.645	298.15	1283.4	1.24	0.048
0.645	298.15	1885	1.41	0.054
0.645	298.15	2468.7	1.656	0.063
0.645	298.15	3063.8	1.939	0.074
0.645	298.15	3623.5	2.181	0.083
0.645	298.15	4134.9	2.506	0.096
0.645	298.15	4631	2.881	0.111
0.645	308.15	280.3	0.692	0.028
0.645	308.15	853.2	0.976	0.025
0.645	308.15	1438.5	1.202	0.046
0.645	308.15	2081.5	1.363	0.052
0.645	308.15	2700.6	1.605	0.061
0.645	308.15	3335.7	1.882	0.072
0.645	308.15	3938.4	2.119	0.081
0.645	308.15	4483.3	2.447	0.094
0.645	308.15	5018.7	2.827	0.109
0.645	318.15	351.4	0.673	0.027
0.645	318.15	974.2	0.945	0.036
0.645	318.15	1599.5	1.163	0.044
0.645	318.15	2277.5	1.321	0.05
0.645	318.15	2933.8	1.556	0.06
0.645	318.15	3612	1.829	0.07
0.645	318.15	4254.5	2.064	0.079
0.645	318.15	4831.4	2.393	0.092
0.645	318.15	5431.1	2.763	0.106
0.645	328.15	425.9	0.652	0.026
0.645	328.15	1096.2	0.916	0.035
0.645	328.15	1757.5	1.127	0.043
0.645	328.15	2472.3	1.281	0.049
0.645	328.15	3161.4	1.516	0.058
0.645	328.15	3878	1.785	0.068
0.645	328.15	4561.8	2.018	0.078
0.645	328.15	5172.4	2.352	0.091
0.645	328.15	5809	2.727	0.105
0.645	338.15	506.8	0.632	0.025
0.645	338.15	1224.4	0.887	0.034
0.645	338.15	1919.2	1.093	0.042
0.645	338.15	2670.7	1.243	0.048
0.645	338.15	3389.5	1.477	0.057
0.645	338.15	4144.9	1.745	0.067
0.645	338.15	4866.4	1.979	0.077
0.645	338.15	5508	2.316	0.09
0.645	338.15	6181.4	2.698	0.104
0.645	348.15	598.6	0.61	0.024
0.645	348.15	1358.6	0.858	0.033
0.645	348.15	2085.2	1.061	0.041
0.645	348.15	2867.2	1.21	0.047
0.645	348.15	3622.5	1.44	0.056
0.645	348.15	4410.5	1.71	0.066
0.645	348.15	5167.6	1.943	0.075
0.645	348.15	5836.8	2.285	0.089
0.645	348.15	6536.8	2.679	0.103
0.765	278.63	199	0.775	0.031
0.765	278.63	628.5	1.014	0.041
0.765	278.63	1035.2	1.199	0.049
0.765	278.63	1525.7	1.403	0.056
0.765	278.63	2028.8	1.691	0.067
0.765	278.63	2444.4	1.892	0.075
0.765	278.63	2947.9	2.187	0.087
0.765	278.63	3445.6	2.501	0.099
0.765	278.63	3986.1	2.785	0.109
0.765	288.48	243.5	0.749	0.03
0.765	288.48	718.4	0.965	0.038
0.765	288.48	1168.9	1.126	0.046
0.765	288.48	1707.6	1.305	0.053
0.765	288.48	2258.4	1.569	0.063
0.765	288.48	2709.2	1.754	0.071
0.765	288.48	3253.4	2.034	0.082
0.765	288.48	3792	2.341	0.095
0.765	288.48	4397.2	2.631	0.109
0.765	298.43	293.8	0.721	0.029
0.765	298.43	809.3	0.919	0.038
0.765	298.43	1293.5	1.067	0.045
0.765	298.43	1875	1.228	0.051
0.765	298.43	2481.1	1.472	0.06
0.765	298.43	2953.1	1.65	0.068
0.765	298.43	3539.9	1.92	0.079
0.765	298.43	4123.9	2.223	0.092
0.765	298.43	4778.9	2.524	0.106
0.765	308.56	343.8	0.695	0.028
0.765	308.56	895.3	0.88	0.036
0.765	308.56	1418.3	1.013	0.043
0.765	308.56	2039.1	1.164	0.049
0.765	308.56	2669.6	1.401	0.058
0.765	308.56	3208.3	1.563	0.066
0.765	308.56	3813	1.833	0.077
0.765	308.56	4447.5	2.141	0.089
0.765	308.56	5156.6	2.447	0.098
0.765	318.31	399.6	0.666	0.027
0.765	318.31	984.7	0.84	0.035
0.765	318.31	1531	0.969	0.036
0.765	318.31	2189.8	1.108	0.047
0.765	318.31	2864.6	1.337	0.056
0.765	318.31	3404.4	1.505	0.064
0.765	318.31	4080.9	1.761	0.075
0.765	318.31	4774.1	2.063	0.087
0.765	318.31	5556.6	2.37	0.095
0.765	328.24	458.7	0.636	0.026
0.765	328.24	1074.1	0.804	0.034
0.765	328.24	1648.5	0.927	0.04
0.765	328.24	2346.1	1.058	0.045
0.765	328.24	3054.6	1.283	0.054
0.765	328.24	3634	1.442	0.062
0.765	328.24	4371.8	1.698	0.073
0.765	328.24	5074.2	1.994	0.085
0.765	328.24	5903.3	2.319	0.093
0.765	337.81	526	0.604	0.025
0.765	337.81	1166.5	0.767	0.032
0.765	337.81	1769.4	0.884	0.038
0.765	337.81	2490.4	1.015	0.044
0.765	337.81	3232.4	1.236	0.053
0.765	337.81	3853.4	1.39	0.061
0.765	337.81	4600.5	1.644	0.071
0.765	337.81	5380.8	1.936	0.083
0.765	337.81	6251	2.286	0.092
0.765	347.47	594.6	0.573	0.024
0.765	347.47	1264.2	0.729	0.031
0.765	347.47	1889.8	0.843	0.037
0.765	347.47	2643	0.972	0.035
0.765	347.47	3415.5	1.189	0.051
0.765	347.47	4073.3	1.337	0.059
0.765	347.47	4864.7	1.593	0.07
0.765	347.47	5681.9	1.892	0.082
0.765	347.47	6617.5	2.239	0.091
0.858	278.58	207.8	0.519	0.03
0.858	278.58	552.6	0.672	0.037
0.858	278.58	954.2	0.834	0.043
0.858	278.58	1416.9	0.996	0.028
0.858	278.58	1938.4	1.266	0.059
0.858	278.58	2442.5	1.461	0.067
0.858	278.58	2922.2	1.64	0.074
0.858	278.58	3392.3	1.98	0.086
0.858	278.58	3998	2.413	0.604
0.858	288.5	253.4	0.499	0.029
0.858	288.5	660.4	0.626	0.036
0.858	288.5	1114.2	0.766	0.041
0.858	288.5	1644.9	0.897	0.045
0.858	288.5	2233.9	1.134	0.055
0.858	288.5	2782.2	1.306	0.062
0.858	288.5	3312.7	1.459	0.07
0.858	288.5	3869.3	1.73	0.082
0.858	288.5	4770.2	1.81	0.523
0.858	298.22	303.2	0.479	0.028
0.858	298.22	750.8	0.592	0.035
0.858	298.22	1262.3	0.71	0.04
0.858	298.22	1843.7	0.821	0.044
0.858	298.22	2489.8	1.035	0.055
0.858	298.22	3094.5	1.186	0.061
0.858	298.22	3671.7	1.325	0.07
0.858	298.22	4269.1	1.586	0.088
0.858	298.22	5255.1	1.67	0.484
0.858	308.05	351.3	0.461	0.027
0.858	308.05	844.4	0.56	0.034
0.858	308.05	1402.1	0.662	0.039
0.858	308.05	2031.4	0.759	0.043
0.858	308.05	2731.3	0.955	0.054
0.858	308.05	3387.1	1.094	0.06
0.858	308.05	3993.2	1.229	0.069
0.858	308.05	4652.9	1.478	0.087
0.858	308.05	5738	1.57	0.456
0.858	318.09	408.1	0.441	0.026
0.858	318.09	936.2	0.53	0.033
0.858	318.09	1532.8	0.622	0.038
0.858	318.09	2208.1	0.706	0.042
0.858	318.09	2958.3	0.893	0.053
0.858	318.09	3657.4	1.023	0.059
0.858	318.09	4322.5	1.15	0.07
0.858	318.09	5021.8	1.397	0.085
0.858	318.09	6212.7	1.498	0.435
0.858	327.91	465.4	0.421	0.024
0.858	327.91	1025.7	0.503	0.032
0.858	327.91	1658.9	0.587	0.037
0.858	327.91	2386.7	0.66	0.04
0.858	327.91	3171.9	0.841	0.052
0.858	327.91	3906.4	0.97	0.053
0.858	327.91	4604.6	1.095	0.068
0.858	327.91	5369.9	1.347	0.083
0.858	327.91	6685.5	1.444	0.42
0.858	337.55	531.5	0.399	0.023
0.858	337.55	1122.1	0.475	0.03
0.858	337.55	1784.9	0.554	0.035
0.858	337.55	2544.2	0.623	0.039
0.858	337.55	3378.2	0.797	0.05
0.858	337.55	4150.8	0.923	0.056
0.858	337.55	4896.6	1.046	0.067
0.858	337.55	5709.1	1.293	0.08
0.858	347.17	600.5	0.376	0.022
0.858	347.17	1218.3	0.448	0.029
0.858	347.17	1919.5	0.52	0.034
0.858	347.17	2713.7	0.584	0.038
0.858	347.17	3585.9	0.757	0.049
0.858	347.17	4401.8	0.88	0.054
0.858	347.17	5212.1	0.985	0.055
0.858	347.17	6023.2	1.26	0.079
