Measured thermophysical data. Thermodynamic properties of methylquinolines: Experimental results for 2,6-dimethylquinoline and mutual validation between experiments and computational methods for methylquinolines
Source: J. Chem. Thermodyn., 2007, 10.1016/j.jct.2006.10.012
Compound 1: carbon dioxide, CO2, InChI=1S/CO2/c2-1-3
Compound 2: nitrogen, N2, InChI=1S/N2/c1-2
Compound 3: water, H2O, InChI=1S/H2O/h1H2
Compound 4: oxygen, O2, InChI=1S/O2/c1-2
Compound 5: 2,6-dimethylquinoline, C11H11N, InChI=1S/C11H11N/c1-8-3-6-11-10(7-8)5-4-9(2)12-11/h3-7H,1-2H3

System: 2,6-dimethylquinoline; phases: Crystal, Liquid, Gas
Property: Molar enthalpy of transition or fusion, kJ/mol (Crystal); method: Adiabatic calorimetry
Molar enthalpy of transition or fusion, kJ/mol	uncertainty
20.418	0.017

System: 2,6-dimethylquinoline; phases: Crystal, Liquid, Gas
Property: Triple point temperature, K (Crystal); method: Adiabatic calorimetry
Triple point temperature, K	uncertainty
330.843	0.05

System: 2,6-dimethylquinoline; phases: Liquid, Gas
Property: Critical temperature, K (Liquid); method: DTA
Critical temperature, K	uncertainty
786	2

System: 2,6-dimethylquinoline; phases: Crystal, Gas
Property: Molar heat capacity at saturation pressure, J/K/mol (Crystal); method: Vacuum adiabatic calorimetry
Temperature, K	Molar heat capacity at saturation pressure, J/K/mol	uncertainty
5.072	1.25	0.02
5.792	1.82	0.03
6.741	2.7	0.04
7.736	3.7	0.05
8.802	4.91	0.06
9.893	6.27	0.07
11.042	7.7	0.07
12.305	9.337	0.083
13.702	11.27	0.091
15.213	13.37	0.1
16.857	15.61	0.108
18.68	18.08	0.116
20.716	20.75	0.125
22.99	23.7	0.133
25.525	26.84	0.133
28.328	30.12	0.125
31.436	33.53	0.108
34.912	37.07	0.116
38.8	40.73	0.125
43.114	44.48	0.133
47.905	48.36	0.141
53.263	52.37	0.15
54.765	53.39	0.15
59.221	56.51	0.15
59.647	56.8	0.158
65.309	60.49	0.158
71.662	64.47	0.166
78.833	68.74	0.175
85.602	72.64	0.183
86.883	73.38	0.191
93.245	76.96	0.274
102.237	81.95	0.283
111.811	87.211	0.291
121.581	92.54	0.291
131.495	97.978	0.299
141.389	103.38	0.308
152.329	109.48	0.308
164.297	116.24	0.316
176.272	122.98	0.324
188.31	130	0.333
200.337	137.08	0.341
212.37	144.21	0.341
224.418	151.51	0.349
236.487	158.93	0.358
248.568	166.45	0.366
260.662	174.12	0.374
272.861	181.9	0.382
285.114	189.73	0.391
288.393	191.8	0.391
294.312	195.58	0.399
297.384	197.49	0.399
300.4	199.41	0.399
309.126	204.69	0.407
311.591	206.24	0.407
321.372	212.19	0.416
321.704	212.63	0.416

System: 2,6-dimethylquinoline; phases: Liquid, Gas
Property: Molar heat capacity at saturation pressure, J/K/mol (Liquid); method: SDSC:UFactor:0.5
Temperature, K	Molar heat capacity at saturation pressure, J/K/mol	uncertainty
460	324.8	3.251
480	333.8	3.3341
500	342.72	3.4256
520	351.62	3.517
540	360.49	3.6085
560	369.32	3.6916
580	378.08	3.7831
600	386.76	3.8662
620	395.37	3.9577
640	403.98	4.0408
660	412.71	4.124
680	421.9	4.2154
700	432.18	4.3235

System: 2,6-dimethylquinoline; phases: Crystal, Gas
Property: Molar heat capacity at saturation pressure, J/K/mol (Crystal); method: Vacuum adiabatic calorimetry
Temperature, K	Molar heat capacity at saturation pressure, J/K/mol	uncertainty
5	1.2	0.03
10	6.4	0.07
20	19.82	0.125
30	31.99	0.108
40	41.81	0.125
50	49.96	0.141
60	57.04	0.158
70	63.44	0.166
80	69.43	0.183
90	75.14	0.274
100	80.72	0.283
120	91.684	0.291
140	102.63	0.299
160	113.8	0.316
180	125.14	0.324
200	136.87	0.341
220	148.82	0.349
240	161.11	0.358
260	173.71	0.374
280	186.47	0.391
298.15	197.94	0.399
300	199.1	0.399
320	211.45	0.416
330.843	218.16	0.416

System: 2,6-dimethylquinoline; phases: Liquid, Gas
Property: Molar heat capacity at saturation pressure, J/K/mol (Liquid); method: Vacuum adiabatic calorimetry
Temperature, K	Molar heat capacity at saturation pressure, J/K/mol	uncertainty
330.843	266.07	0.466
340	270.26	0.474
360	279.47	0.482
380	288.67	0.491
400	297.86	0.499
420	307.24	0.507
440	315.63	0.515

System: 2,6-dimethylquinoline; phases: Liquid, Gas
Property: Molar heat capacity at saturation pressure, J/K/mol (Liquid); method: Vacuum adiabatic calorimetry
Temperature, K	Molar heat capacity at saturation pressure, J/K/mol	uncertainty
336.593	268.71	0.466
338.26	269.47	0.466
338.608	269.61	0.466
345.601	272.86	0.474
351.528	275.57	0.474
368.67	283.46	0.482
385.87	291.36	0.491
397.555	296.74	0.499
412.353	303.54	0.507
426.946	310.47	0.507
438.04	314.89	0.515

System: 2,6-dimethylquinoline; phases: Crystal
Fixed: Pressure, kPa = 101.325
Property: Molar enthalpy function {Hm(T)-Hm(0)}/T, J/K/mol (Crystal); method: Vacuum adiabatic calorimetry
Temperature, K	Molar enthalpy function {Hm(T)-Hm(0)}/T, J/K/mol	uncertainty
5	0.3	0.02
10	1.94	0.02
20	7.51	0.05
30	13.71	0.07
40	19.55	0.083
50	24.84	0.091
60	29.62	0.1
70	34.01	0.108
80	38.06	0.116
90	41.86	0.241
100	45.47	0.249
120	52.26	0.249
140	58.68	0.258
160	64.86	0.266
180	70.93	0.274
200	76.93	0.274
220	82.93	0.283
240	88.923	0.291
260	94.96	0.291
280	101.04	0.299
298.15	106.59	0.308
300	107.16	0.308
320	113.29	0.316
330.843	116.62	0.316

System: 2,6-dimethylquinoline; phases: Liquid
Fixed: Pressure, kPa = 101.325
Property: Molar enthalpy function {Hm(T)-Hm(0)}/T, J/K/mol (Liquid); method: Vacuum adiabatic calorimetry
Temperature, K	Molar enthalpy function {Hm(T)-Hm(0)}/T, J/K/mol	uncertainty
330.843	178.34	0.382
340	180.76	0.382
360	185.99	0.382
380	191.15	0.391
400	196.25	0.399
420	201.31	0.399
440	206.32	0.407

System: 2,6-dimethylquinoline; phases: Liquid, Gas
Property: Vapor or sublimation pressure, kPa (Liquid); method: Inclined piston gauge
Temperature, K	Vapor or sublimation pressure, kPa	uncertainty
336.987	0.0375	0.0008
339.984	0.0461	0.0009
349.98	0.0877	0.0009
359.976	0.1589	0.0009
369.975	0.2786	0.001
379.974	0.4711	0.0012
389.97	0.7716	0.0016
399.968	1.227	0.002
404.971	1.5324	0.0024
409.968	1.8993	0.0028
414.963	2.3399	0.0031

System: 2,6-dimethylquinoline; phases: Liquid, Gas
Property: Vapor or sublimation pressure, kPa (Liquid); method: Twin ebulliometer
Temperature, K	Vapor or sublimation pressure, kPa	uncertainty
411.209	1.9999	0.0082
428.447	3.9867	0.0083
436.238	5.3287	0.009
447.728	7.9924	0.0096
456.332	10.652	0.011
463.329	13.328	0.012
470.57	16.664	0.013
476.574	19.928	0.015
484.49	25.021	0.017
492.468	31.188	0.02
500.454	38.557	0.023
508.505	47.362	0.027
516.613	57.806	0.031
524.762	70.099	0.036
532.96	84.502	0.042
541.216	101.3	0.05
549.513	120.76	0.06
557.856	143.19	0.06
566.255	168.98	0.07
574.695	198.44	0.08
583.179	231.96	0.1
591.713	269.97	0.1

System: 2,6-dimethylquinoline; phases: Crystal
Fixed: Pressure, kPa = 101.325
Property: Molar entropy, J/K/mol (Crystal); method: Vacuum adiabatic calorimetry
Temperature, K	Molar entropy, J/K/mol	uncertainty
5	0.4	0.02
10	2.67	0.05
20	11.19	0.108
30	21.61	0.125
40	32.21	0.158
50	42.44	0.191
60	52.18	0.216
70	61.46	0.241
80	70.33	0.274
90	78.84	0.416
100	87.044	0.432
120	102.73	0.457
140	117.69	0.474
160	132.12	0.499
180	146.18	0.515
200	159.96	0.54
220	173.56	0.557
240	187.04	0.582
260	200.43	0.599
280	213.77	0.624
298.15	225.84	0.64
300	227.07	0.64
320	240.31	0.657
330.843	247.47	0.673

System: 2,6-dimethylquinoline; phases: Liquid
Fixed: Pressure, kPa = 101.325
Property: Molar entropy, J/K/mol (Liquid); method: Vacuum adiabatic calorimetry
Temperature, K	Molar entropy, J/K/mol	uncertainty
330.843	309.19	0.765
340	316.51	0.773
360	332.21	0.798
380	347.57	0.823
400	362.61	0.8481
420	377.37	0.8647
440	391.87	0.8896

System: 2,6-dimethylquinoline; phases: Liquid, Gas
Property: Mass density, kg/m3 (Liquid); method: VIBTUB:UFactor:8
Temperature, K	Mass density, kg/m3	uncertainty
348.13	995.1	2
373.12	975.8	2
398.12	956.9	2
423.12	938.7	5
448.11	914.4	1.9
473.11	894	1.9
498.11	872.2	1.9
523.11	849.2	2

Reaction: -1 2,6-dimethylquinoline + 11 carbon dioxide + .5 nitrogen + 5.5 water + -13.75 oxygen
Property: Specific internal energy of reaction at constant volume, J/g
-37727.3
