Measured thermophysical data. Vapour pressure data for 2-n-propylresorcinol, 4-ethylresorcinol and 4-hexylresorcinol near their normal boiling points measured by differential scanning calorimetry
Source: J. Chem. Thermodyn., 2019, 10.1016/j.jct.2019.03.008
Compound 1: 1,3-dihydroxy-4-hexylbenzene, C12H18O2, InChI=1S/C12H18O2/c1-2-3-4-5-6-10-7-8-11(13)9-12(10)14/h7-9,13-14H,2-6H2,1H3, purity 97.5%
Compound 2: 4-ethylresorcinol, C8H10O2, InChI=1S/C8H10O2/c1-2-6-3-4-7(9)5-8(6)10/h3-5,9-10H,2H2,1H3, purity 99.8%
Compound 3: 1,2-benzenediol, C6H6O2, InChI=1S/C6H6O2/c7-5-3-1-2-4-6(5)8/h1-4,7-8H, purity 99.8%
Compound 4: 1,3-benzenediol, C6H6O2, InChI=1S/C6H6O2/c7-5-2-1-3-6(8)4-5/h1-4,7-8H, purity 99%
Compound 5: 2-propylresorcinol, C9H12O2, InChI=1S/C9H12O2/c1-2-4-7-8(10)5-3-6-9(7)11/h3,5-6,10-11H,2,4H2,1H3, purity 99.1%

System: 1,3-dihydroxy-4-hexylbenzene; phases: Crystal, Liquid, Air at 1 atmosphere
Property: Normal melting temperature, K (Crystal); method: DTA
Normal melting temperature, K	uncertainty
340.1	0.4

System: 1,3-dihydroxy-4-hexylbenzene; phases: Liquid, Gas
Property: Boiling temperature at pressure P, K (Liquid); method: DSC
Pressure, kPa	Boiling temperature at pressure P, K	uncertainty
1.95	474.1	1.6
2.95	484.1	2.2
3.87	491.8	1.9
5.42	500.2	2
7.89	511	2.4
9.9	517.8	2.6
19.83	540	2.8
29.78	554.5	2.6
49.68	574.4	3.3
69.58	588.1	3.6
79.52	594.5	3.4
100.93	605.5	4
198.33	637.5	5
223.29	644.6	4.5
250.21	651	4.6

System: 4-ethylresorcinol; phases: Crystal, Liquid, Air at 1 atmosphere
Property: Normal melting temperature, K (Crystal); method: DTA
Normal melting temperature, K	uncertainty
370.4	0.4

System: 4-ethylresorcinol; phases: Liquid, Gas
Property: Boiling temperature at pressure P, K (Liquid); method: DSC
Pressure, kPa	Boiling temperature at pressure P, K	uncertainty
9.92	480.5	1.6
19.87	501.3	2.6
29.79	514.5	2.4
49.73	532.7	3
69.64	545.7	3
98.43	560.1	2.6
198.31	591.7	4
299.37	612.9	4.3
400.09	629.4	5.1

System: 1,2-benzenediol; phases: Liquid, Gas
Property: Boiling temperature at pressure P, K (Liquid); method: DSC
Pressure, kPa	Boiling temperature at pressure P, K	uncertainty
2.95	412.2	1.5
3.93	418.6	1.8
4.93	423.8	2

System: 1,3-benzenediol; phases: Liquid, Gas
Property: Boiling temperature at pressure P, K (Liquid); method: DSC
Pressure, kPa	Boiling temperature at pressure P, K	uncertainty
2.95	444.7	1.6
3.93	451.3	1.9
4.93	456.8	2.1

System: 2-propylresorcinol; phases: Crystal, Liquid, Air at 1 atmosphere
Property: Normal melting temperature, K (Crystal); method: DTA
Normal melting temperature, K	uncertainty
377.9	0.4

System: 2-propylresorcinol; phases: Liquid, Gas
Property: Boiling temperature at pressure P, K (Liquid); method: DSC
Pressure, kPa	Boiling temperature at pressure P, K	uncertainty
9.92	470.6	1.6
19.83	491.4	2.6
29.79	504.7	2.4
49.69	523.4	3.1
69.61	536.4	3
98.91	551.1	2.7
198.31	582.8	4.2
299.37	605.4	4.1
400.46	618.9	4.1
