Measured thermophysical data. Volumetric properties of binary and ternary mixtures of diisopropyl ether, a,a,a-trifluorotoluene, 2,2,2-trifluoroethanol, and ethanol at a temperature 298.15 K and pressure 101 kPa
Source: J. Chem. Thermodyn., 2007, 10.1016/j.jct.2006.09.006
Compound 1: diisopropyl ether, C6H14O, InChI=1S/C6H14O/c1-5(2)7-6(3)4/h5-6H,1-4H3
Compound 2: (trifluoromethyl)benzene, C7H5F3, InChI=1S/C7H5F3/c8-7(9,10)6-4-2-1-3-5-6/h1-5H
Compound 3: 2,2,2-trifluoroethanol, C2H3F3O, InChI=1S/C2H3F3O/c3-2(4,5)1-6/h6H,1H2
Compound 4: ethanol, C2H6O, InChI=1S/C2H6O/c1-2-3/h3H,2H2,1H3

System: diisopropyl ether; phases: Liquid
Property: Mass density, kg/m3 (Liquid); method: VIBTUB:UFactor:6
Temperature, K	Pressure, kPa	Mass density, kg/m3	uncertainty
298.15	101.325	719.17	0.96

System: (trifluoromethyl)benzene; phases: Liquid
Property: Mass density, kg/m3 (Liquid); method: VIBTUB:UFactor:4
Temperature, K	Pressure, kPa	Mass density, kg/m3	uncertainty
298.15	101.325	1182.18	0.48

System: 2,2,2-trifluoroethanol; phases: Liquid
Property: Mass density, kg/m3 (Liquid); method: VIBTUB:UFactor:6
Temperature, K	Pressure, kPa	Mass density, kg/m3	uncertainty
298.15	101.325	1382.4	1.48

System: ethanol; phases: Liquid
Property: Mass density, kg/m3 (Liquid); method: VIBTUB:UFactor:2
Temperature, K	Pressure, kPa	Mass density, kg/m3	uncertainty
298.15	101.325	785.6	0.24

System: ethanol + (trifluoromethyl)benzene; phases: Liquid
Fixed: Pressure, kPa = 101.3
Fixed: Temperature, K = 298.15
Property: Mass density, kg/m3 (Liquid); method: VIBTUB:UFactor:4
Mole fraction of (trifluoromethyl)benzene	Mass density, kg/m3	uncertainty
0.1051	864	0.4
0.1999	921.7	0.3
0.2454	945.8	0.3
0.3059	975.2	0.2
0.4057	1017.5	0.2
0.5022	1052.8	0.3
0.5855	1079.7	0.3
0.7052	1113.7	0.4
0.7886	1134.9	0.4
0.9032	1161.5	0.4

System: ethanol + diisopropyl ether; phases: Liquid
Fixed: Pressure, kPa = 101.3
Fixed: Temperature, K = 298.15
Property: Mass density, kg/m3 (Liquid); method: VIBTUB:UFactor:4
Mole fraction of diisopropyl ether	Mass density, kg/m3	uncertainty
0.1072	774.5	0.5
0.2007	766.1	0.5
0.3086	757.6	0.5
0.403	751	0.5
0.4811	746	0.6
0.6142	738.3	0.6
0.6993	733.8	0.6
0.7432	731.7	0.6
0.7863	729.6	0.6
0.8965	724.4	0.6
0.9129	723.6	0.6

System: 2,2,2-trifluoroethanol + diisopropyl ether; phases: Liquid
Fixed: Pressure, kPa = 101.3
Fixed: Temperature, K = 298.15
Property: Mass density, kg/m3 (Liquid); method: VIBTUB:UFactor:4
Mole fraction of diisopropyl ether	Mass density, kg/m3	uncertainty
0.0511	1320	1
0.1069	1258.5	0.9
0.1922	1175.7	0.7
0.2483	1127.3	0.6
0.2968	1088.9	0.5
0.4021	1013.8	0.4
0.4927	957.1	0.5
0.6059	894	0.5
0.6997	846.9	0.5
0.8024	799.8	0.6
0.9113	754.2	0.6

System: ethanol + 2,2,2-trifluoroethanol + diisopropyl ether; phases: Liquid
Fixed: Pressure, kPa = 101.3
Fixed: Temperature, K = 298.15
Property: Mass density, kg/m3 (Liquid); method: VIBTUB:UFactor:4
Mole fraction of diisopropyl ether	Mole fraction of 2,2,2-trifluoroethanol	Mass density, kg/m3	uncertainty
0.0183	0.5871	1142.7	0.5
0.0206	0.3651	1014.1	0.3
0.031	0.7088	1203.3	0.6
0.0327	0.0461	813	0.4
0.0415	0.8259	1260.5	0.8
0.0641	0.4285	1034.4	0.4
0.1145	0.1119	841	0.4
0.115	0.6014	1106.6	0.5
0.1216	0.2044	892.6	0.4
0.1246	0.755	1180.1	0.6
0.1303	0.701	1150.6	0.6
0.1356	0.8189	1206.6	0.7
0.1635	0.4026	988	0.3
0.1789	0.2391	899.3	0.4
0.193	0.4987	1027.1	0.4
0.2245	0.632	1080.5	0.5
0.2362	0.6791	1098.3	0.5
0.2389	0.0486	789.3	0.5
0.282	0.3896	951	0.4
0.2978	0.0671	792.7	0.5
0.3051	0.503	997.2	0.4
0.306	0.2144	863.7	0.4
0.329	0.5814	1025.6	0.4
0.3428	0.2722	884.6	0.4
0.4079	0.3917	925.7	0.4
0.4286	0.0234	760.3	0.5
0.4475	0.176	826.7	0.5
0.45	0.4831	955.6	0.4
0.5045	0.0728	776.3	0.5
0.5177	0.2629	854.5	0.5
0.5855	0.3429	877.1	0.5
0.6661	0.141	790.6	0.5
0.7193	0.2098	811.6	0.5
0.7328	0.0523	752.1	0.6
0.7677	0.1117	771.8	0.6
0.8658	0.0504	743.6	0.6

System: ethanol + 2,2,2-trifluoroethanol + (trifluoromethyl)benzene; phases: Liquid
Fixed: Pressure, kPa = 101.3
Fixed: Temperature, K = 298.15
Property: Mass density, kg/m3 (Liquid); method: VIBTUB:UFactor:4
Mole fraction of (trifluoromethyl)benzene	Mole fraction of 2,2,2-trifluoroethanol	Mass density, kg/m3	uncertainty
0.0062	0.3993	1045.5	0.3
0.0128	0.5347	1127	0.5
0.0169	0.3169	1001.7	0.3
0.0176	0.9352	1350	1
0.02	0.4229	1065.8	0.4
0.0203	0.1454	898	0.3
0.0254	0.0488	839.2	0.4
0.0393	0.7316	1244.7	0.7
0.0686	0.5684	1165.9	0.6
0.0689	0.1713	944	0.3
0.0879	0.7991	1292.3	0.8
0.1026	0.2955	1032.1	0.3
0.145	0.0602	923.9	0.3
0.1533	0.6705	1243.4	0.7
0.1764	0.4225	1128.1	0.5
0.1801	0.2037	1018.9	0.2
0.1828	0.2975	1067.9	0.3
0.187	0.7332	1281.8	0.8
0.1978	0.5545	1199.1	0.6
0.2212	0.0365	952.5	0.2
0.2707	0.1322	1023.1	0.2
0.2921	0.1398	1035.6	0.3
0.3149	0.2675	1102.7	0.4
0.3546	0.337	1146	0.5
0.3812	0.06	1034.5	0.3
0.3965	0.1415	1075.3	0.3
0.3966	0.544	1244.4	0.7
0.409	0.4209	1196.4	0.6
0.4666	0.0214	1049.4	0.3
0.4962	0.3056	1172	0.5
0.5038	0.1836	1126.2	0.4
0.5895	0.3403	1207.3	0.6
0.6227	0.1861	1158.6	0.5
0.645	0.0312	1108.5	0.4
0.7621	0.0587	1147.9	0.4
0.7701	0.1558	1182.1	0.5
0.8257	0.0537	1161	0.4
0.8694	0.0612	1173	0.5
