Measured thermophysical data. Study of the solubility, viscosity and density in Na+, Zn2+/Cl - H2O, Na+ - Zn2+ - (H2PO2) - H2O, Na+, Cl /(H2PO2) - H2O, and Zn2+, Cl /(H2PO2) - H2O ternary systems, and in Na+, Zn2+/Cl , (H2PO2) //H2O reciprocal quaternary system at 273.15 K
Source: J. Chem. Thermodyn., 2014, 10.1016/j.jct.2014.04.014
Compound 1: sodium chloride, ClNa, InChI=1S/ClH.Na/h1H;/q;+1/p-1, purity 99%
Compound 2: zinc chloride, Cl2Zn, InChI=1S/2ClH.Zn/h2*1H;/q;;+2/p-2, purity 98%
Compound 3: zinc(II) phosphinate, H4O4P2Zn, InChI=1S/2H3O2P.Zn/c2*1-3-2;/h2*3H2,(H,1,2);/q;;+2/p-2, purity 95%
Compound 4: water, H2O, InChI=1S/H2O/h1H2
Compound 5: sodium phosphinate, H2NaO2P, InChI=1S/Na.H3O2P/c;1-3-2/h;3H2,(H,1,2)/q+1;/p-1, purity 99%

System: zinc chloride + water + zinc(II) phosphinate; phases: Liquid, Crystal of intercomponent compound 1
Fixed: Temperature, K = 273.15
Fixed: Pressure, kPa = 102.5
Property: Mass fraction of zinc(II) phosphinate (Liquid); method: Titration method
Mass fraction of zinc chloride	Mass fraction of zinc(II) phosphinate	uncertainty
0	0.1379	0.0004
0.0425	0.1253	0.0004
0.0898	0.1106	0.0003
0.1376	0.0944	0.0003

System: zinc chloride + water + zinc(II) phosphinate; phases: Liquid, Crystal, Crystal of intercomponent compound 1
Property: Mass fraction of zinc chloride (Liquid); method: Titration method
Temperature, K	Pressure, kPa	Mass fraction of zinc chloride	uncertainty
273.15	102.5	0.1671	0.0005

System: zinc chloride + water + zinc(II) phosphinate; phases: Liquid, Crystal, Crystal of intercomponent compound 1
Property: Mass fraction of zinc(II) phosphinate (Liquid); method: Titration method
Temperature, K	Pressure, kPa	Mass fraction of zinc(II) phosphinate	uncertainty
273.15	102.5	0.084	0.0003

System: zinc chloride + water + zinc(II) phosphinate; phases: Liquid, Crystal
Fixed: Temperature, K = 273.15
Fixed: Pressure, kPa = 102.5
Property: Mass fraction of zinc(II) phosphinate (Liquid); method: Titration method
Mass fraction of zinc chloride	Mass fraction of zinc(II) phosphinate	uncertainty
0.2263	0.1085	0.0003
0.2984	0.1362	0.0004
0.3785	0.1688	0.0005

System: zinc chloride + water + zinc(II) phosphinate; phases: Liquid, Crystal of intercomponent compound 2, Crystal
Property: Mass fraction of zinc(II) phosphinate (Liquid); method: Titration method
Temperature, K	Pressure, kPa	Mass fraction of zinc(II) phosphinate	uncertainty
273.15	102.5	0.1969	0.0006

System: zinc chloride + water + zinc(II) phosphinate; phases: Liquid, Crystal of intercomponent compound 2, Crystal
Property: Mass fraction of zinc chloride (Liquid); method: Titration method
Temperature, K	Pressure, kPa	Mass fraction of zinc chloride	uncertainty
273.15	102.5	0.4422	0.0013

System: zinc chloride + water + zinc(II) phosphinate; phases: Liquid, Crystal of intercomponent compound 2
Fixed: Temperature, K = 273.15
Fixed: Pressure, kPa = 102.5
Property: Mass fraction of zinc(II) phosphinate (Liquid); method: Titration method
Mass fraction of zinc chloride	Mass fraction of zinc(II) phosphinate	uncertainty
0.4894	0.1547	0.0005
0.5492	0.1035	0.0003
0.611	0.0486	0.0002
0.666	0	

System: zinc chloride + water + zinc(II) phosphinate; phases: Liquid
Fixed: Pressure, kPa = 102.5
Fixed: Temperature, K = 273.15
Property: Mass density, kg/m3 (Liquid); method: Pycnometric method
Mass fraction of zinc chloride	Mass fraction of zinc(II) phosphinate	Mass density, kg/m3	uncertainty
0	0.1379	1069	1
0.0425	0.1253	1143	1
0.0898	0.1106	1193	1
0.1376	0.0944	1232	1
0.1671	0.084	1267	1
0.2263	0.1085	1315	1
0.2984	0.1362	1359	2
0.3785	0.1688	1452	2
0.4422	0.1969	1532	3
0.4894	0.1547	1624	3
0.5492	0.1035	1738	3
0.611	0.0486	1842	3
0.666	0	1943	3

System: zinc chloride + water + zinc(II) phosphinate; phases: Liquid
Fixed: Pressure, kPa = 102.5
Fixed: Temperature, K = 273.15
Property: Viscosity, Pa*s (Liquid); method: Capillary tube (Ostwald; Ubbelohde) method
Mass fraction of zinc chloride	Mass fraction of zinc(II) phosphinate	Viscosity, Pa*s	uncertainty
0	0.1379	0.00295	6e-05
0.0425	0.1253	0.00446	0.0001
0.0898	0.1106	0.00612	0.00013
0.1376	0.0944	0.00666	0.00014
0.1671	0.084	0.00715	0.00016
0.2263	0.1085	0.00867	0.00019
0.2984	0.1362	0.01178	0.00026
0.3785	0.1688	0.01347	0.00032
0.4422	0.1969	0.01703	0.00041
0.4894	0.1547	0.04012	0.001
0.5492	0.1035	0.07216	0.00194
0.611	0.0486	0.11145	0.00344
0.666	0	0.1354	0.00449

System: zinc chloride + sodium chloride + water; phases: Liquid, Crystal
Fixed: Temperature, K = 273.15
Fixed: Pressure, kPa = 102.5
Property: Mass fraction of zinc chloride (Liquid); method: Titration method
Mass fraction of sodium chloride	Mass fraction of zinc chloride	uncertainty
0.2625	0	
0.25	0.0339	0.0001
0.2426	0.0621	0.0002
0.2308	0.1022	0.0003
0.2249	0.1372	0.0004
0.2214	0.1752	0.0005
0.2195	0.2006	0.0006
0.2165	0.2314	0.0007
0.2134	0.2706	0.0008
0.21	0.3105	0.0009

System: zinc chloride + sodium chloride + water; phases: Liquid, Crystal of intercomponent compound 1
Fixed: Temperature, K = 273.15
Fixed: Pressure, kPa = 102.5
Property: Mass fraction of zinc chloride (Liquid); method: Titration method
Mass fraction of sodium chloride	Mass fraction of zinc chloride	uncertainty
0.1983	0.3227	0.001
0.1645	0.3815	0.0011
0.1437	0.4332	0.0013
0.1248	0.4678	0.0014
0.1018	0.5245	0.0016

System: zinc chloride + sodium chloride + water; phases: Liquid, Crystal of intercomponent compound 2, Crystal of intercomponent compound 1
Property: Mass fraction of zinc chloride (Liquid); method: Titration method
Temperature, K	Pressure, kPa	Mass fraction of zinc chloride	uncertainty
273.15	102.5	0.6038	0.0018

System: zinc chloride + sodium chloride + water; phases: Liquid, Crystal of intercomponent compound 2, Crystal of intercomponent compound 1
Property: Mass fraction of sodium chloride (Liquid); method: Titration method
Temperature, K	Pressure, kPa	Mass fraction of sodium chloride	uncertainty
273.15	102.5	0.0523	0.0002

System: zinc chloride + sodium chloride + water; phases: Liquid, Crystal of intercomponent compound 2
Fixed: Temperature, K = 273.15
Fixed: Pressure, kPa = 102.5
Property: Mass fraction of zinc chloride (Liquid); method: Titration method
Mass fraction of sodium chloride	Mass fraction of zinc chloride	uncertainty
0.0312	0.6296	0.0019
0	0.666	0.002

System: zinc chloride + sodium chloride + water; phases: Liquid
Fixed: Pressure, kPa = 102.5
Fixed: Temperature, K = 273.15
Property: Mass density, kg/m3 (Liquid); method: Pycnometric method
Mass fraction of sodium chloride	Mass fraction of zinc chloride	Mass density, kg/m3	uncertainty
0.2625	0	1201	1
0.25	0.0339	1219	1
0.2426	0.0621	1245	1
0.2308	0.1022	1283	1
0.2249	0.1372	1309	1
0.2214	0.1752	1338	1
0.2195	0.2006	1379	1
0.2165	0.2314	1405	1
0.2134	0.2706	1436	1
0.21	0.3105	1477	1
0.1983	0.3227	1492	1
0.1645	0.3815	1550	1
0.1437	0.4332	1594	2
0.1248	0.4678	1629	2
0.1018	0.5245	1664	2
0.0524	0.6037	1744	3
0.0522	0.6039	1744	3
0.0312	0.6296	1842	3
0	0.666	1943	3

System: zinc chloride + sodium chloride + water; phases: Liquid
Fixed: Pressure, kPa = 102.5
Fixed: Temperature, K = 273.15
Property: Viscosity, Pa*s (Liquid); method: Capillary tube (Ostwald; Ubbelohde) method
Mass fraction of sodium chloride	Mass fraction of zinc chloride	Viscosity, Pa*s	uncertainty
0.2625	0	0.00216	5e-05
0.25	0.0339	0.0036	8e-05
0.2426	0.0621	0.00473	0.00014
0.2308	0.1022	0.00683	0.00015
0.2249	0.1372	0.00825	0.00018
0.2214	0.1752	0.00958	0.00021
0.2195	0.2006	0.01115	0.00024
0.2165	0.2314	0.0127	0.00028
0.2134	0.2706	0.01456	0.00032
0.21	0.3105	0.01645	0.00036
0.1983	0.3227	0.01854	0.00041
0.1645	0.3815	0.02415	0.00055
0.1437	0.4332	0.02943	0.00069
0.1248	0.4678	0.03612	0.00086
0.1018	0.5245	0.042	0.00101
0.0524	0.6037	0.05125	0.00135
0.0522	0.6039	0.05125	0.00135
0.0312	0.6296	0.07218	0.00196
0	0.666	0.1354	0.0045

System: sodium chloride + sodium phosphinate + water; phases: Liquid, Crystal
Fixed: Temperature, K = 273.15
Fixed: Pressure, kPa = 102.5
Property: Mass fraction of sodium phosphinate (Liquid); method: Titration method
Mass fraction of sodium chloride	Mass fraction of sodium phosphinate	uncertainty
0.2625	0	
0.2418	0.0297	0.0001
0.2237	0.0568	0.0002
0.2036	0.0922	0.0003
0.1781	0.1285	0.0004
0.1446	0.1962	0.0006
0.1228	0.2351	0.0007
0.1019	0.2716	0.0008
0.0807	0.3112	0.0009
0.0586	0.359	0.0011
0.0412	0.3854	0.0012
0.018	0.426	0.0013

System: sodium chloride + sodium phosphinate + water; phases: Liquid, Crystal of intercomponent compound 1, Crystal
Property: Mass fraction of sodium phosphinate (Liquid); method: Titration method
Temperature, K	Pressure, kPa	Mass fraction of sodium phosphinate	uncertainty
273.15	102.5	0.4402	0.0013

System: sodium chloride + sodium phosphinate + water; phases: Liquid, Crystal of intercomponent compound 1, Crystal
Property: Mass fraction of sodium chloride (Liquid); method: Titration method
Temperature, K	Pressure, kPa	Mass fraction of sodium chloride	uncertainty
273.15	102.5	0.0112	0.0001

System: sodium chloride + sodium phosphinate + water; phases: Liquid, Crystal of intercomponent compound 1
Fixed: Temperature, K = 273.15
Fixed: Pressure, kPa = 102.5
Property: Mass fraction of sodium phosphinate (Liquid); method: Titration method
Mass fraction of sodium chloride	Mass fraction of sodium phosphinate	uncertainty
0.0078	0.459	0.0014
0	0.478	0.0014

System: sodium chloride + sodium phosphinate + water; phases: Liquid
Fixed: Pressure, kPa = 102.5
Fixed: Temperature, K = 273.15
Property: Mass density, kg/m3 (Liquid); method: Pycnometric method
Mass fraction of sodium chloride	Mass fraction of sodium phosphinate	Mass density, kg/m3	uncertainty
0.2625	0	1201	1
0.2418	0.0297	1204	1
0.2237	0.0568	1208	1
0.2036	0.0922	1214	1
0.1781	0.1285	1221	1
0.1446	0.1962	1236	1
0.1228	0.2351	1247	1
0.1019	0.2716	1259	1
0.0807	0.3112	1272	1
0.0586	0.359	1298	1
0.0412	0.3854	1312	1
0.018	0.426	1352	1
0.0112	0.4402	1370	1
0.0078	0.459	1378	1
0	0.478	1384	1

System: sodium chloride + sodium phosphinate + water; phases: Liquid
Fixed: Pressure, kPa = 102.5
Fixed: Temperature, K = 273.15
Property: Viscosity, Pa*s (Liquid); method: Capillary tube (Ostwald; Ubbelohde) method
Mass fraction of sodium chloride	Mass fraction of sodium phosphinate	Viscosity, Pa*s	uncertainty
0.2625	0	0.00216	5e-05
0.2418	0.0297	0.00289	0.00014
0.2237	0.0568	0.00395	9e-05
0.2036	0.0922	0.00578	0.00012
0.1781	0.1285	0.00751	0.00016
0.1446	0.1962	0.01253	0.00027
0.1228	0.2351	0.01648	0.00036
0.1019	0.2716	0.02012	0.00046
0.0807	0.3112	0.02484	0.00061
0.0586	0.359	0.03452	0.00079
0.0412	0.3854	0.0421	0.00101
0.018	0.426	0.05905	0.00144
0.0112	0.4402	0.0657	0.00164
0.0078	0.459	0.0691	0.00175
0	0.478	0.07388	0.00191

System: sodium phosphinate + water + zinc(II) phosphinate; phases: Liquid, Crystal of intercomponent compound 1
Fixed: Temperature, K = 273.15
Fixed: Pressure, kPa = 102.5
Property: Mass fraction of zinc(II) phosphinate (Liquid); method: Titration method
Mass fraction of sodium phosphinate	Mass fraction of zinc(II) phosphinate	uncertainty
0	0.1379	0.0004
0.0445	0.0938	0.0003
0.0938	0.0602	0.0002
0.1429	0.0434	0.0001
0.2005	0.0298	0.0001
0.2851	0.0246	0.0001
0.3642	0.0201	0.0001
0.4386	0.0186	0.0001

System: sodium phosphinate + water + zinc(II) phosphinate; phases: Liquid, Crystal of intercomponent compound 1, Crystal of intercomponent compound 2
Property: Mass fraction of zinc(II) phosphinate (Liquid); method: Titration method
Temperature, K	Pressure, kPa	Mass fraction of zinc(II) phosphinate	uncertainty
273.15	102.5	0.0059	0.0001

System: sodium phosphinate + water + zinc(II) phosphinate; phases: Liquid, Crystal of intercomponent compound 1, Crystal of intercomponent compound 2
Property: Mass fraction of sodium phosphinate (Liquid); method: Titration method
Temperature, K	Pressure, kPa	Mass fraction of sodium phosphinate	uncertainty
273.15	102.5	0.4748	0.0014

System: sodium phosphinate + water + zinc(II) phosphinate; phases: Liquid, Crystal of intercomponent compound 2
Fixed: Temperature, K = 273.15
Fixed: Pressure, kPa = 102.5
Property: Mass fraction of zinc(II) phosphinate (Liquid); method: Titration method
Mass fraction of sodium phosphinate	Mass fraction of zinc(II) phosphinate	uncertainty
0.4761	0.0027	0.0001
0.478	0	

System: sodium phosphinate + water + zinc(II) phosphinate; phases: Liquid
Fixed: Pressure, kPa = 102.5
Fixed: Temperature, K = 273.15
Property: Mass density, kg/m3 (Liquid); method: Pycnometric method
Mass fraction of sodium phosphinate	Mass fraction of zinc(II) phosphinate	Mass density, kg/m3	uncertainty
0	0.1379	1069	1
0.0445	0.0938	1076	1
0.0938	0.0602	1085	1
0.1429	0.0434	1099	1
0.2005	0.0298	1126	1
0.2851	0.0246	1175	1
0.3642	0.0201	1238	1
0.4386	0.0186	1331	1
0.4748	0.0059	1390	1
0.4761	0.0027	1386	1
0.478	0	1384	1

System: sodium phosphinate + water + zinc(II) phosphinate; phases: Liquid
Fixed: Pressure, kPa = 102.5
Fixed: Temperature, K = 273.15
Property: Viscosity, Pa*s (Liquid); method: Capillary tube (Ostwald; Ubbelohde) method
Mass fraction of sodium phosphinate	Mass fraction of zinc(II) phosphinate	Viscosity, Pa*s	uncertainty
0	0.1379	0.00295	6e-05
0.0445	0.0938	0.00393	8e-05
0.0938	0.0602	0.00412	9e-05
0.1429	0.0434	0.00515	0.00011
0.2005	0.0298	0.00614	0.00013
0.2851	0.0246	0.01018	0.00022
0.3642	0.0201	0.02011	0.00045
0.4386	0.0186	0.04132	0.00097
0.4748	0.0059	0.07425	0.00194
0.4761	0.0027	0.07392	0.00193
0.478	0	0.07388	0.00193

System: sodium chloride + water + zinc(II) phosphinate; phases: Liquid, Crystal, Crystal of intercomponent compound 1
Property: Mass fraction of zinc(II) phosphinate (Liquid); method: Titration method
Temperature, K	Pressure, kPa	Mass fraction of zinc(II) phosphinate	uncertainty
273.15	102.5	0.1412	0.0004

System: sodium chloride + water + zinc(II) phosphinate; phases: Liquid, Crystal, Crystal of intercomponent compound 1
Property: Mass fraction of sodium chloride (Liquid); method: Titration method
Temperature, K	Pressure, kPa	Mass fraction of sodium chloride	uncertainty
273.15	102.5	0.2336	0.0007

System: water + zinc(II) phosphinate; phases: Liquid, Crystal of intercomponent compound 1
Property: Mass fraction of zinc(II) phosphinate (Liquid); method: Titration method
Temperature, K	Pressure, kPa	Mass fraction of zinc(II) phosphinate	uncertainty
273.15	102.5	0.1379	0.0004

System: water + zinc(II) phosphinate; phases: Liquid
Property: Mass density, kg/m3 (Liquid); method: Pycnometric method
Mass fraction of zinc(II) phosphinate	Pressure, kPa	Temperature, K	Mass density, kg/m3	uncertainty
0.1379	102.5	273.15	1069	1

System: water + zinc(II) phosphinate; phases: Liquid
Property: Viscosity, Pa*s (Liquid); method: Capillary tube (Ostwald; Ubbelohde) method
Mass fraction of zinc(II) phosphinate	Pressure, kPa	Temperature, K	Viscosity, Pa*s	uncertainty
0.1379	102.5	273.15	0.00295	6e-05

System: zinc chloride + water; phases: Liquid, Crystal of intercomponent compound 1
Property: Mass fraction of zinc chloride (Liquid); method: Titration method
Temperature, K	Pressure, kPa	Mass fraction of zinc chloride	uncertainty
273.15	102.5	0.666	0.002

System: zinc chloride + water; phases: Liquid
Property: Mass density, kg/m3 (Liquid); method: Pycnometric method
Mass fraction of zinc chloride	Pressure, kPa	Temperature, K	Mass density, kg/m3	uncertainty
0.666	102.5	273.15	1943	3

System: zinc chloride + water; phases: Liquid
Property: Viscosity, Pa*s (Liquid); method: Capillary tube (Ostwald; Ubbelohde) method
Mass fraction of zinc chloride	Pressure, kPa	Temperature, K	Viscosity, Pa*s	uncertainty
0.666	102.5	273.15	0.1354	0.00449

System: sodium chloride + water; phases: Liquid, Crystal
Property: Mass fraction of sodium chloride (Liquid); method: Titration method
Temperature, K	Pressure, kPa	Mass fraction of sodium chloride	uncertainty
273.15	102.5	0.2625	0.0008

System: sodium chloride + water; phases: Liquid
Property: Mass density, kg/m3 (Liquid); method: Pycnometric method
Mass fraction of sodium chloride	Pressure, kPa	Temperature, K	Mass density, kg/m3	uncertainty
0.2625	102.5	273.15	1201	1

System: sodium chloride + water; phases: Liquid
Property: Viscosity, Pa*s (Liquid); method: Capillary tube (Ostwald; Ubbelohde) method
Mass fraction of sodium chloride	Pressure, kPa	Temperature, K	Viscosity, Pa*s	uncertainty
0.2625	102.5	273.15	0.00216	5e-05

System: sodium phosphinate + water; phases: Liquid, Crystal of intercomponent compound 1
Property: Mass fraction of sodium phosphinate (Liquid); method: Titration method
Temperature, K	Pressure, kPa	Mass fraction of sodium phosphinate	uncertainty
273.15	102.5	0.478	0.0014

System: sodium phosphinate + water; phases: Liquid
Property: Mass density, kg/m3 (Liquid); method: Pycnometric method
Mass fraction of sodium phosphinate	Pressure, kPa	Temperature, K	Mass density, kg/m3	uncertainty
0.478	102.5	273.15	1384	1

System: sodium phosphinate + water; phases: Liquid
Property: Viscosity, Pa*s (Liquid); method: Capillary tube (Ostwald; Ubbelohde) method
Mass fraction of sodium phosphinate	Pressure, kPa	Temperature, K	Viscosity, Pa*s	uncertainty
0.478	102.5	273.15	0.07388	0.00191
