Measured thermophysical data. Thermodynamic properties of three-ring aza-aromatics. 2. Experimental results for 1,10-phenanthroline, phenanthridine, and 7,8-benzoquinoline, and mutual validation of experiments and computational methods
Source: J. Chem. Thermodyn., 2010, 10.1016/j.jct.2009.11.011
Compound 1: 1,10-phenanthroline, C12H8N2, InChI=1S/C12H8N2/c1-3-9-5-6-10-4-2-8-14-12(10)11(9)13-7-1/h1-8H
Compound 2: phenanthridine, C13H9N, InChI=1S/C13H9N/c1-2-6-11-10(5-1)9-14-13-8-4-3-7-12(11)13/h1-9H, purity 99.97%
Compound 3: benzo[h]quinoline, C13H9N, InChI=1S/C13H9N/c1-2-6-12-10(4-1)7-8-11-5-3-9-14-13(11)12/h1-9H, purity 99.89%

System: 1,10-phenanthroline; phases: Crystal, Liquid, Gas
Property: Molar enthalpy of transition or fusion, kJ/mol (Crystal); method: Adiabatic calorimetry
Molar enthalpy of transition or fusion, kJ/mol	uncertainty
15.503	0.017

System: 1,10-phenanthroline; phases: Crystal, Liquid, Gas
Property: Triple point temperature, K (Crystal); method: Adiabatic calorimetry
Triple point temperature, K	uncertainty
391.71	0.05

System: 1,10-phenanthroline; phases: Crystal, Gas
Property: Molar heat capacity at saturation pressure, J/K/mol (Crystal); method: Vacuum adiabatic calorimetry
Temperature, K	Molar heat capacity at saturation pressure, J/K/mol	uncertainty
5.659	1.78	0.03
6.394	2.35	0.03
7.405	3.18	0.04
8.419	4.13	0.05
9.46	5.19	0.06
10.549	6.31	0.06
11.752	7.62	0.07
13.077	9.121	0.07
14.53	10.68	0.083
16.132	12.55	0.091
17.884	14.51	0.1
19.801	16.6	0.108
21.933	18.87	0.108
24.303	21.41	0.108
26.923	24.1	0.108
29.846	26.95	0.108
33.102	29.99	0.1
36.75	33.23	0.108
40.822	36.58	0.116
45.339	40.14	0.125
50.357	43.96	0.125
55.934	47.63	0.133
57.693	48.9	0.141
60.421	50.6	0.141
63.284	52.36	0.141
66.466	54.41	0.15
69.775	56.39	0.15
73.238	58.45	0.158
76.945	60.52	0.158
80.596	62.63	0.166
84.911	65	0.166
88.797	67.21	0.175
97.836	72.09	0.274
100.264	73.38	0.274
109.978	78.65	0.283
119.956	84.217	0.283
131.013	90.445	0.291
143.07	97.346	0.299
155.102	104.48	0.308
167.1	111.7	0.316
179.082	119.1	0.316
191.084	126.69	0.324
203.136	134.46	0.333
215.247	142.45	0.341
227.38	150.47	0.349
239.551	158.67	0.358
251.768	167.01	0.366
264.025	175.49	0.374
276.302	183.86	0.382
288.603	192.35	0.391
289.462	192.8	0.391
300.239	200.19	0.399
312.291	208.49	0.407
324.529	216.87	0.416
336.893	225.26	0.424
336.98	225.23	0.424
348.972	233.42	0.432
349.322	233.65	0.432
361.049	241.49	0.441
373.185	249.78	0.449
381.298	256.64	0.457
383.752	260.04	0.457

System: 1,10-phenanthroline; phases: Liquid, Gas
Property: Molar heat capacity at saturation pressure, J/K/mol (Liquid); method: Vacuum adiabatic calorimetry
Temperature, K	Molar heat capacity at saturation pressure, J/K/mol	uncertainty
375.187	297.88	0.499
382.837	301.57	0.499
391.522	305.71	0.507
397.932	308.79	0.507
400.296	309.93	0.507
402.689	311.03	0.507
404.9	312.06	0.515
413.548	316.13	0.515
416.422	317.49	0.515
429.03	323.3	0.524
439.592	328.19	0.532

System: 1,10-phenanthroline; phases: Liquid, Gas
Property: Molar heat capacity at saturation pressure, J/K/mol (Liquid); method: SDSC:UFactor:0.5
Temperature, K	Molar heat capacity at saturation pressure, J/K/mol	uncertainty
460	337.52	3.3757
480	346.29	3.4588
500	355	3.575
520	363.5	3.658
540	371.9	3.742
560	380.1	3.825
580	388.2	3.908
600	396	3.991

System: 1,10-phenanthroline; phases: Crystal, Gas
Property: Molar heat capacity at saturation pressure, J/K/mol (Crystal); method: Vacuum adiabatic calorimetry
Temperature, K	Molar heat capacity at saturation pressure, J/K/mol	uncertainty
5	1.26	0.02
10	5.74	0.06
20	16.82	0.108
30	27.1	0.1
40	35.93	0.116
50	43.64	0.125
60	50.34	0.141
70	56.51	0.15
80	62.29	0.166
90	67.87	0.266
100	73.23	0.274
120	84.242	0.283
140	95.575	0.299
160	107.41	0.308
180	119.68	0.316
200	132.42	0.333
220	145.57	0.349
240	158.97	0.358
260	172.69	0.374
280	186.36	0.391
298.15	198.74	0.399
300	200	0.399
320	213.76	0.416
340	227.24	0.424
360	240.63	0.441
380	253.68	0.457
391.71	261.46	0.466

System: 1,10-phenanthroline; phases: Liquid, Gas
Property: Molar heat capacity at saturation pressure, J/K/mol (Liquid); method: Vacuum adiabatic calorimetry
Temperature, K	Molar heat capacity at saturation pressure, J/K/mol	uncertainty
380	300.22	0.499
391.71	305.81	0.507
400	309.76	0.507
420	319.14	0.515
440	328.39	0.532

System: 1,10-phenanthroline; phases: Crystal, Gas
Property: Molar enthalpy function {Hm(T)-Hm(0)}/T, J/K/mol (Crystal); method: Vacuum adiabatic calorimetry
Temperature, K	Molar enthalpy function {Hm(T)-Hm(0)}/T, J/K/mol	uncertainty
5	0.32	0.02
10	1.84	0.02
20	6.54	0.05
30	11.72	0.07
40	16.7	0.07
50	21.33	0.083
60	25.62	0.091
70	29.59	0.1
80	33.32	0.108
90	36.85	0.241
100	40.23	0.241
120	46.64	0.249
140	52.81	0.249
160	58.89	0.258
180	64.96	0.266
200	71.06	0.274
220	77.24	0.274
240	83.494	0.283
260	89.821	0.291
280	96.232	0.299
298.15	102.09	0.299
300	102.69	0.299
320	109.2	0.308
340	115.75	0.316
360	122.32	0.324
380	128.89	0.333
391.71	132.74	0.333

System: 1,10-phenanthroline; phases: Liquid, Gas
Property: Molar enthalpy function {Hm(T)-Hm(0)}/T, J/K/mol (Liquid); method: Vacuum adiabatic calorimetry
Temperature, K	Molar enthalpy function {Hm(T)-Hm(0)}/T, J/K/mol	uncertainty
380	168.28	0.366
391.71	172.32	0.374
400	175.12	0.374
420	181.75	0.382
440	188.21	0.391

System: 1,10-phenanthroline; phases: Liquid, Gas
Property: Vapor or sublimation pressure, kPa (Liquid); method: Ebulliometric method (Recirculating still)
Temperature, K	Vapor or sublimation pressure, kPa	uncertainty
523.276	1.9998	0.0103
523.283	2.0006	0.0103
531.9	2.6684	0.0105
554.043	5.3255	0.0109
568.224	8.0085	0.0116
578.691	10.651	0.012
587.238	13.33	0.013
595.979	16.637	0.014
603.356	19.954	0.015

System: 1,10-phenanthroline; phases: Crystal, Gas
Property: Molar entropy, J/K/mol (Crystal); method: Vacuum adiabatic calorimetry
Temperature, K	Molar entropy, J/K/mol	uncertainty
5	0.43	0.02
10	2.57	0.05
20	9.919	0.1
30	18.73	0.116
40	27.77	0.141
50	36.63	0.175
60	45.19	0.2
70	53.42	0.224
80	61.34	0.241
90	69	0.407
100	76.43	0.416
120	90.752	0.432
140	104.59	0.457
160	118.12	0.474
180	131.47	0.499
200	144.73	0.515
220	157.97	0.54
240	171.21	0.557
260	184.47	0.574
280	197.78	0.599
298.15	209.86	0.615
300	211.1	0.615
320	224.44	0.64
340	237.8	0.657
360	251.17	0.673
380	264.53	0.698
391.71	272.36	0.707

System: 1,10-phenanthroline; phases: Liquid, Gas
Property: Molar entropy, J/K/mol (Liquid); method: Vacuum adiabatic calorimetry
Temperature, K	Molar entropy, J/K/mol	uncertainty
380	302.73	0.757
391.71	311.93	0.765
400	318.38	0.782
420	333.72	0.798
440	348.78	0.823

System: phenanthridine; phases: Liquid, Gas
Property: Molar heat capacity at saturation pressure, J/K/mol (Liquid); method: SDSC:UFactor:0.5
Temperature, K	Molar heat capacity at saturation pressure, J/K/mol	uncertainty
400	314.5	3.159
410	319.1	3.159
420	323.8	3.243
430	328.3	3.243
440	332.9	3.326
450	337.4	3.409
460	341.8	3.409
470	346.2	3.492
480	350.6	3.492
490	354.9	3.575
500	359.2	3.575
510	363.4	3.658
520	367.6	3.658
530	371.7	3.742
540	375.7	3.742
550	379.7	3.825
560	383.7	3.825
570	387.6	3.908
580	391.4	3.908
590	395.2	3.991
600	398.8	3.991

System: phenanthridine; phases: Liquid, Gas
Property: Vapor or sublimation pressure, kPa (Liquid); method: Ebulliometric method (Recirculating still)
Temperature, K	Vapor or sublimation pressure, kPa	uncertainty
473.894	2	0.0103
481.923	2.666	0.0105
493.837	3.9999	0.0107
502.72	5.333	0.0111
515.935	7.9989	0.0117
525.849	10.666	0.013
533.861	13.332	0.014
542.178	16.665	0.015
549.089	19.933	0.016
558.183	25.023	0.018
558.184	25.023	0.018
567.336	31.177	0.02
576.537	38.565	0.022
585.792	47.375	0.025
595.1	57.817	0.029
604.466	70.12	0.033
613.893	84.533	0.038
623.347	101.325	0.041

System: phenanthridine; phases: Liquid, Gas
Property: Mass density, kg/m3 (Liquid); method: Vibrating tube method
Temperature, K	Mass density, kg/m3	uncertainty
423.114	1081.8	1.1
448.111	1062.7	1.1
473.112	1043.7	1
498.112	1023.7	1
523.109	1003.9	1
548.111	983.7	1

System: benzo[h]quinoline; phases: Liquid, Gas
Property: Molar heat capacity at saturation pressure, J/K/mol (Liquid); method: SDSC:UFactor:0.5
Temperature, K	Molar heat capacity at saturation pressure, J/K/mol	uncertainty
400	307.8	3.076
410	312.9	3.159
420	317.9	3.159
430	323.1	3.243
440	328.2	3.243
450	333.3	3.326
460	338.4	3.409
470	343.5	3.409
480	348.5	3.492
490	353.5	3.575
500	358.4	3.575
510	363.3	3.658
520	368.1	3.658
530	372.7	3.742
540	377.2	3.742
550	381.6	3.825
560	385.8	3.825
570	389.7	3.908
580	393.4	3.908
590	396.9	3.991
600	400	3.991

System: benzo[h]quinoline; phases: Liquid, Gas
Property: Mass density, kg/m3 (Liquid); method: Vibrating tube method
Temperature, K	Mass density, kg/m3	uncertainty
348.13	1121.1	0.11
373.12	1104.9	0.11
398.12	1087.2	0.1
423.11	1068.1	0.1
448.11	1051.1	0.1
473.11	1030.8	0.1
498.11	1011.6	0.1
523.11	992.8	0.12
