Measured thermophysical data. Experimental study on the thermochemistry of some amino derivatives of uracil
Source: J. Chem. Thermodyn., 2011, 10.1016/j.jct.2011.06.003
Compound 1: carbon dioxide, CO2, InChI=1S/CO2/c2-1-3
Compound 2: nitrogen, N2, InChI=1S/N2/c1-2
Compound 3: water, H2O, InChI=1S/H2O/h1H2
Compound 4: oxygen, O2, InChI=1S/O2/c1-2
Compound 5: hydrogen, H2, InChI=1S/H2/h1H
Compound 6: graphite, C
Compound 7: 2,4(1H,3H)-pyrimidinedione, 5-amino-, C4H5N3O2, InChI=1S/C4H5N3O2/c5-2-1-6-4(9)7-3(2)8/h1H,5H2,(H2,6,7,8,9), purity 98%
Compound 8: 6-amino-1,3-dimethyluracil, C6H9N3O2, InChI=1S/C6H9N3O2/c1-8-4(7)3-5(10)9(2)6(8)11/h3H,7H2,1-2H3, purity 98%
Compound 9: 6-aminouracil, C4H5N3O2, InChI=1S/C4H5N3O2/c5-2-1-3(8)7-4(9)6-2/h1H,(H4,5,6,7,8,9), purity 98%
Compound 10: 6-amino-1-methyluracil, C5H7N3O2, InChI=1S/C5H7N3O2/c1-8-3(6)2-4(9)7-5(8)10/h2H,6H2,1H3,(H,7,9,10), purity 97%

Reaction: -1 2,4(1H,3H)-pyrimidinedione, 5-amino- + 4 carbon dioxide + 1.5 nitrogen + 2.5 water + -4.25 oxygen
Property: Specific internal energy of reaction at constant volume, J/g
-14557.7

Reaction: -1 6-amino-1,3-dimethyluracil + 6 carbon dioxide + 1.5 nitrogen + 4.5 water + -7.25 oxygen
Property: Specific internal energy of reaction at constant volume, J/g
-20542.1

Reaction: -1 6-aminouracil + 4 carbon dioxide + 1.5 nitrogen + 2.5 water + -4.25 oxygen
Property: Specific internal energy of reaction at constant volume, J/g
-14267.2

Reaction: -1 6-amino-1-methyluracil + 5 carbon dioxide + 1.5 nitrogen + 3.5 water + -5.75 oxygen
Property: Specific internal energy of reaction at constant volume, J/g
-17699.4

Reaction: 1 2,4(1H,3H)-pyrimidinedione, 5-amino- + -2.5 hydrogen + -1.5 nitrogen + -4 graphite + -1 oxygen
Property: Molar enthalpy of reaction, kJ/mol
-441.4

Reaction: 1 6-amino-1,3-dimethyluracil + -4.5 hydrogen + -1.5 nitrogen + -6 graphite + -1 oxygen
Property: Molar enthalpy of reaction, kJ/mol
-460.7

Reaction: 1 6-aminouracil + -2.5 hydrogen + -1.5 nitrogen + -4 graphite + -1 oxygen
Property: Molar enthalpy of reaction, kJ/mol
-478.3

Reaction: 1 6-amino-1-methyluracil + -3.5 hydrogen + -1.5 nitrogen + -5 graphite + -1 oxygen
Property: Molar enthalpy of reaction, kJ/mol
-471.9
