Measured thermophysical data. New aspects of relationship between the enthalpies of fusion of aromatic compounds at the melting temperatures and the enthalpies of solution in benzene at 298.15 K. Part I
Source: J. Chem. Thermodyn., 2018, 10.1016/j.jct.2017.09.006
Compound 1: benzene, C6H6, InChI=1S/C6H6/c1-2-4-6-5-3-1/h1-6H, purity 99%
Compound 2: acenaphthene, C12H10, InChI=1S/C12H10/c1-3-9-4-2-6-11-8-7-10(5-1)12(9)11/h1-6H,7-8H2, purity 99%
Compound 3: 1,6-dimethylnaphthalene, C12H12, InChI=1S/C12H12/c1-9-6-7-12-10(2)4-3-5-11(12)8-9/h3-8H,1-2H3, purity 99%
Compound 4: 1,8-dimethylnaphthalene, C12H12, InChI=1S/C12H12/c1-9-5-3-7-11-8-4-6-10(2)12(9)11/h3-8H,1-2H3, purity 97%
Compound 5: 2,6-dimethylnaphthalene, C12H12, InChI=1S/C12H12/c1-9-3-5-12-8-10(2)4-6-11(12)7-9/h3-8H,1-2H3, purity 97%
Compound 6: 2,7-dimethylnaphthalene, C12H12, InChI=1S/C12H12/c1-9-3-5-11-6-4-10(2)8-12(11)7-9/h3-8H,1-2H3, purity 98%
Compound 7: 1,2-dimethylbenzene, C8H10, InChI=1S/C8H10/c1-7-5-3-4-6-8(7)2/h3-6H,1-2H3, purity 98%
Compound 8: 1,3-dimethylbenzene, C8H10, InChI=1S/C8H10/c1-7-4-3-5-8(2)6-7/h3-6H,1-2H3, purity 98%
Compound 9: 1,4-dimethylbenzene, C8H10, InChI=1S/C8H10/c1-7-3-5-8(2)6-4-7/h3-6H,1-2H3, purity 99%
Compound 10: dimethyl 1,2-benzenedicarboxylate, C10H10O4, InChI=1S/C10H10O4/c1-13-9(11)7-5-3-4-6-8(7)10(12)14-2/h3-6H,1-2H3, purity 99%
Compound 11: dimethyl 1,3-benzenedicarboxylate, C10H10O4, InChI=1S/C10H10O4/c1-13-9(11)7-4-3-5-8(6-7)10(12)14-2/h3-6H,1-2H3, purity 99%
Compound 12: 1-methylnaphthalene, C11H10, InChI=1S/C11H10/c1-9-5-4-7-10-6-2-3-8-11(9)10/h2-8H,1H3, purity 97%
Compound 13: 2-methylnaphthalene, C11H10, InChI=1S/C11H10/c1-9-6-7-10-4-2-3-5-11(10)8-9/h2-8H,1H3, purity 99%
Compound 14: 1,4-bis(1,1-dimethylethyl)benzene, C14H22, InChI=1S/C14H22/c1-13(2,3)11-7-9-12(10-8-11)14(4,5)6/h7-10H,1-6H3, purity 97%
Compound 15: (E)-1,2-diphenyldiazene, C12H10N2, InChI=1S/C12H10N2/c1-3-7-11(8-4-1)13-14-12-9-5-2-6-10-12/h1-10H/b14-13+, purity 98%

System: 2,7-dimethylnaphthalene; phases: Crystal, Liquid, Air at 1 atmosphere
Property: Normal melting temperature, K (Crystal); method: DTA
Normal melting temperature, K	uncertainty
368.1	0.5

System: 2,7-dimethylnaphthalene; phases: Crystal, Liquid, Air at 1 atmosphere
Property: Molar enthalpy of transition or fusion, kJ/mol (Crystal); method: DSC
Molar enthalpy of transition or fusion, kJ/mol	uncertainty
25.3	1.1

System: dimethyl 1,3-benzenedicarboxylate; phases: Crystal, Liquid, Air at 1 atmosphere
Property: Normal melting temperature, K (Crystal); method: DTA
Normal melting temperature, K	uncertainty
340.3	0.5

System: dimethyl 1,3-benzenedicarboxylate; phases: Crystal, Liquid, Air at 1 atmosphere
Property: Molar enthalpy of transition or fusion, kJ/mol (Crystal); method: DSC
Molar enthalpy of transition or fusion, kJ/mol	uncertainty
27.9	0.7

System: acenaphthene + benzene; phases: Liquid
Property: Molar enthalpy of solution, kJ/mol (Liquid); method: Power-compensation calorimetry
Mole fraction of acenaphthene	Pressure, kPa	Temperature, K	Molar enthalpy of solution, kJ/mol	uncertainty
0	100	298.15	20.82	0.32

System: 1,8-dimethylnaphthalene + benzene; phases: Liquid
Property: Molar enthalpy of solution, kJ/mol (Liquid); method: Power-compensation calorimetry
Mole fraction of 1,8-dimethylnaphthalene	Pressure, kPa	Temperature, K	Molar enthalpy of solution, kJ/mol	uncertainty
0	100	298.15	16.43	0.28

System: 2,6-dimethylnaphthalene + benzene; phases: Liquid
Property: Molar enthalpy of solution, kJ/mol (Liquid); method: Power-compensation calorimetry
Mole fraction of 2,6-dimethylnaphthalene	Pressure, kPa	Temperature, K	Molar enthalpy of solution, kJ/mol	uncertainty
0	100	298.15	23.99	0.28

System: 2,7-dimethylnaphthalene + benzene; phases: Liquid
Property: Molar enthalpy of solution, kJ/mol (Liquid); method: Power-compensation calorimetry
Mole fraction of 2,7-dimethylnaphthalene	Pressure, kPa	Temperature, K	Molar enthalpy of solution, kJ/mol	uncertainty
0	100	298.15	22.9	0.28

System: 1,6-dimethylnaphthalene + benzene; phases: Liquid
Property: Molar enthalpy of solution, kJ/mol (Liquid); method: Titration calorimetry
Mole fraction of 1,6-dimethylnaphthalene	Pressure, kPa	Temperature, K	Molar enthalpy of solution, kJ/mol	uncertainty
0	100	298.15	1.46	0.03

System: 1-methylnaphthalene + benzene; phases: Liquid
Property: Molar enthalpy of solution, kJ/mol (Liquid); method: Titration calorimetry
Mole fraction of 1-methylnaphthalene	Pressure, kPa	Temperature, K	Molar enthalpy of solution, kJ/mol	uncertainty
0	100	298.15	0.78	0.03

System: 2-methylnaphthalene + benzene; phases: Liquid
Property: Molar enthalpy of solution, kJ/mol (Liquid); method: Power-compensation calorimetry
Mole fraction of 2-methylnaphthalene	Pressure, kPa	Temperature, K	Molar enthalpy of solution, kJ/mol	uncertainty
0	100	298.15	12.64	0.14

System: dimethyl 1,2-benzenedicarboxylate + benzene; phases: Liquid
Property: Molar enthalpy of solution, kJ/mol (Liquid); method: Titration calorimetry
Mole fraction of dimethyl 1,2-benzenedicarboxylate	Pressure, kPa	Temperature, K	Molar enthalpy of solution, kJ/mol	uncertainty
0	100	298.15	1.86	0.07

System: dimethyl 1,3-benzenedicarboxylate + benzene; phases: Liquid
Property: Molar enthalpy of solution, kJ/mol (Liquid); method: Power-compensation calorimetry
Mole fraction of dimethyl 1,3-benzenedicarboxylate	Pressure, kPa	Temperature, K	Molar enthalpy of solution, kJ/mol	uncertainty
0	100	298.15	25.17	0.36

System: 1,4-bis(1,1-dimethylethyl)benzene + benzene; phases: Liquid
Property: Molar enthalpy of solution, kJ/mol (Liquid); method: Power-compensation calorimetry
Mole fraction of 1,4-bis(1,1-dimethylethyl)benzene	Pressure, kPa	Temperature, K	Molar enthalpy of solution, kJ/mol	uncertainty
0	100	298.15	24.61	0.34

System: 1,2-dimethylbenzene + benzene; phases: Liquid
Property: Molar enthalpy of solution, kJ/mol (Liquid); method: Titration calorimetry
Mole fraction of 1,2-dimethylbenzene	Pressure, kPa	Temperature, K	Molar enthalpy of solution, kJ/mol	uncertainty
0	100	298.15	0.93	0.02

System: 1,3-dimethylbenzene + benzene; phases: Liquid
Property: Molar enthalpy of solution, kJ/mol (Liquid); method: Titration calorimetry
Mole fraction of 1,3-dimethylbenzene	Pressure, kPa	Temperature, K	Molar enthalpy of solution, kJ/mol	uncertainty
0	100	298.15	1.07	0.03

System: 1,4-dimethylbenzene + benzene; phases: Liquid
Property: Molar enthalpy of solution, kJ/mol (Liquid); method: Titration calorimetry
Mole fraction of 1,4-dimethylbenzene	Pressure, kPa	Temperature, K	Molar enthalpy of solution, kJ/mol	uncertainty
0	100	298.15	0.79	0.03

System: (E)-1,2-diphenyldiazene + benzene; phases: Liquid
Property: Molar enthalpy of solution, kJ/mol (Liquid); method: Power-compensation calorimetry
Mole fraction of (E)-1,2-diphenyldiazene	Pressure, kPa	Temperature, K	Molar enthalpy of solution, kJ/mol	uncertainty
0	100	298.15	22.17	0.3
