Measured thermophysical data. Probing the binding ability of vitamin B1 with bovine serum albumin: Calorimetric, light scattering, spectroscopic and volumetric studies
Source: J. Chem. Thermodyn., 2018, 10.1016/j.jct.2018.07.009
Compound 1: water, H2O, InChI=1S/H2O/h1H2, purity 99.9%
Compound 2: dipotassium hydrogen phosphate, HK2O4P, InChI=1S/2K.H3O4P/c;;1-5(2,3)4/h;;(H3,1,2,3,4)/q2*+1;/p-2, purity 99%
Compound 3: monopotassium phosphate, H2KO4P, InChI=1S/K.H3O4P/c;1-5(2,3)4/h;(H3,1,2,3,4)/q+1;/p-1, purity 99.5%

System: water + dipotassium hydrogen phosphate + monopotassium phosphate; phases: Liquid
Fixed: Pressure, kPa = 101
Fixed: Molality, mol/kg of dipotassium hydrogen phosphate = 0.00802
Fixed: Molality, mol/kg of monopotassium phosphate = 0.00198
Property: Mass density, kg/m3 (Liquid); method: Vibrating tube method
Temperature, K	Mass density, kg/m3	uncertainty
288.15	1000.401	0.303
298.15	998.336	0.303
308.15	995.307	0.303

System: water + dipotassium hydrogen phosphate + monopotassium phosphate; phases: Liquid
Fixed: Pressure, kPa = 101
Fixed: Molality, mol/kg of dipotassium hydrogen phosphate = 0.00802
Fixed: Molality, mol/kg of monopotassium phosphate = 0.00198
Fixed: Frequency, MHz = 3
Property: Speed of sound, m/s (Liquid); method: Single path-length method
Temperature, K	Speed of sound, m/s	uncertainty
288.15	1468.33	2
298.15	1498.17	2
308.15	1521.12	2
