Measured thermophysical data. Physico-chemical and excess properties of the binary mixtures of methylcyclohexane + ethanol, + propan-1-ol, + propan-2-ol, + butan-1-ol, + 2-methyl-1-propanol, or 3-methyl-1-butanol at T = (298.15, 303.15, and 308.15) K
Source: J. Chem. Thermodyn., 2006, 10.1016/j.jct.2005.06.011
Compound 1: propan-1-ol, C3H8O, InChI=1S/C3H8O/c1-2-3-4/h4H,2-3H2,1H3, purity 99.5%
Compound 2: propan-2-ol, C3H8O, InChI=1S/C3H8O/c1-3(2)4/h3-4H,1-2H3, purity 99.5%
Compound 3: butan-1-ol, C4H10O, InChI=1S/C4H10O/c1-2-3-4-5/h5H,2-4H2,1H3, purity 99%
Compound 4: 2-methyl-1-propanol, C4H10O, InChI=1S/C4H10O/c1-4(2)3-5/h4-5H,3H2,1-2H3, purity 99%
Compound 5: methylcyclohexane, C7H14, InChI=1S/C7H14/c1-7-5-3-2-4-6-7/h7H,2-6H2,1H3, purity 99%
Compound 6: 3-methylbutan-1-ol, C5H12O, InChI=1S/C5H12O/c1-5(2)3-4-6/h5-6H,3-4H2,1-2H3, purity 99%
Compound 7: ethanol, C2H6O, InChI=1S/C2H6O/c1-2-3/h3H,2H2,1H3, purity 99.9%

System: propan-1-ol; phases: Liquid
Fixed: Pressure, kPa = 101.325
Property: Refractive index (Na D-line) (Liquid); method: ABBE::UFactor:4
Temperature, K	Refractive index (Na D-line)	uncertainty
298.15	1.384	0.0012
303.15	1.3819	0.0012
308.15	1.38	0.0012

System: propan-1-ol; phases: Liquid
Fixed: Pressure, kPa = 101
Property: Viscosity, Pa*s (Liquid); method: CAPTUB::UFactor:2
Temperature, K	Viscosity, Pa*s	uncertainty
298.15	0.0020767	2.44e-05
303.15	0.001809	2.15e-05
308.15	0.0015947	1.91e-05

System: propan-1-ol; phases: Liquid
Property: Speed of sound, m/s (Liquid); method: Linear variable-path acoustic interferometer
Temperature, K	Pressure, kPa	Speed of sound, m/s	uncertainty
298.15	101	1206	4

System: propan-1-ol; phases: Liquid
Fixed: Pressure, kPa = 101
Property: Mass density, kg/m3 (Liquid); method: VIBTUB::UFactor:4
Temperature, K	Mass density, kg/m3	uncertainty
298.15	809.65	8.11
303.15	805.5	8.07
308.15	801.32	8.03

System: propan-2-ol; phases: Liquid
Fixed: Pressure, kPa = 101.325
Property: Refractive index (Na D-line) (Liquid); method: ABBE::UFactor:4
Temperature, K	Refractive index (Na D-line)	uncertainty
298.15	1.3765	0.0012
303.15	1.3741	0.0012
308.15	1.3716	0.0012

System: propan-2-ol; phases: Liquid
Fixed: Pressure, kPa = 101
Property: Viscosity, Pa*s (Liquid); method: CAPTUB::UFactor:2
Temperature, K	Viscosity, Pa*s	uncertainty
298.15	0.0020763	2.44e-05
303.15	0.0017857	2.12e-05
308.15	0.0015317	1.84e-05

System: propan-2-ol; phases: Liquid
Property: Speed of sound, m/s (Liquid); method: Linear variable-path acoustic interferometer
Temperature, K	Pressure, kPa	Speed of sound, m/s	uncertainty
298.15	101	1144	4

System: propan-2-ol; phases: Liquid
Fixed: Pressure, kPa = 101
Property: Mass density, kg/m3 (Liquid); method: VIBTUB:UFactor:4
Temperature, K	Mass density, kg/m3	uncertainty
298.15	781.05	7.82
303.15	776.79	7.78
308.15	772.43	7.74

System: butan-1-ol; phases: Liquid
Fixed: Pressure, kPa = 101.325
Property: Refractive index (Na D-line) (Liquid); method: ABBE::UFactor:8
Temperature, K	Refractive index (Na D-line)	uncertainty
298.15	1.3983	0.0025
303.15	1.3959	0.0025
308.15	1.394	0.0025

System: butan-1-ol; phases: Liquid
Fixed: Pressure, kPa = 101
Property: Viscosity, Pa*s (Liquid); method: CAPTUB::UFactor:2
Temperature, K	Viscosity, Pa*s	uncertainty
298.15	0.0025868	3.2e-05
303.15	0.0022543	2.81e-05
308.15	0.0019882	2.5e-05

System: butan-1-ol; phases: Liquid
Property: Speed of sound, m/s (Liquid); method: Linear variable-path acoustic interferometer
Temperature, K	Pressure, kPa	Speed of sound, m/s	uncertainty
298.15	101	1268	4

System: butan-1-ol; phases: Liquid
Fixed: Pressure, kPa = 101
Property: Mass density, kg/m3 (Liquid); method: VIBTUB::UFactor:4
Temperature, K	Mass density, kg/m3	uncertainty
298.15	808.49	8.1
303.15	804.6	8.07
308.15	800.67	8.03

System: 2-methyl-1-propanol; phases: Liquid
Fixed: Pressure, kPa = 101.325
Property: Refractive index (Na D-line) (Liquid); method: ABBE::UFactor:4
Temperature, K	Refractive index (Na D-line)	uncertainty
298.15	1.3932	0.0013
303.15	1.3917	0.0013
308.15	1.3896	0.0013

System: 2-methyl-1-propanol; phases: Liquid
Fixed: Pressure, kPa = 101
Property: Viscosity, Pa*s (Liquid); method: CAPTUB::UFactor:2
Temperature, K	Viscosity, Pa*s	uncertainty
298.15	0.0030968	3.79e-05
303.15	0.0026349	3.25e-05
308.15	0.0022492	2.8e-05

System: 2-methyl-1-propanol; phases: Liquid
Property: Speed of sound, m/s (Liquid); method: Linear variable-path acoustic interferometer
Temperature, K	Pressure, kPa	Speed of sound, m/s	uncertainty
298.15	101	1170	4

System: 2-methyl-1-propanol; phases: Liquid
Fixed: Pressure, kPa = 101
Property: Mass density, kg/m3 (Liquid); method: VIBTUB::UFactor:4
Temperature, K	Mass density, kg/m3	uncertainty
298.15	809.31	8.11
303.15	805.23	8.07
308.15	801.11	8.03

System: methylcyclohexane; phases: Liquid
Fixed: Pressure, kPa = 101.325
Property: Refractive index (Na D-line) (Liquid); method: ABBE:UFactor:4
Temperature, K	Refractive index (Na D-line)	uncertainty
298.15	1.4217	0.0013
303.15	1.4192	0.0013
308.15	1.4163	0.0013

System: methylcyclohexane; phases: Liquid
Fixed: Pressure, kPa = 101
Property: Viscosity, Pa*s (Liquid); method: CAPTUB:UFactor:2
Temperature, K	Viscosity, Pa*s	uncertainty
298.15	0.0006757	9.5e-06
303.15	0.000631	8.9e-06
308.15	0.0005902	8.5e-06

System: methylcyclohexane; phases: Liquid
Property: Speed of sound, m/s (Liquid); method: Linear variable-path acoustic interferometer
Temperature, K	Pressure, kPa	Speed of sound, m/s	uncertainty
298.15	101	1217	4

System: methylcyclohexane; phases: Liquid
Fixed: Pressure, kPa = 101
Property: Mass density, kg/m3 (Liquid); method: VIBTUB::UFactor:4
Temperature, K	Mass density, kg/m3	uncertainty
298.15	764.99	7.67
303.15	760.66	7.63
308.15	756.3	7.59

System: 3-methylbutan-1-ol; phases: Liquid
Fixed: Pressure, kPa = 101.325
Property: Refractive index (Na D-line) (Liquid); method: ABBE::UFactor:4
Temperature, K	Refractive index (Na D-line)	uncertainty
298.15	1.4056	0.0013
303.15	1.4034	0.0013
308.15	1.4013	0.0013

System: 3-methylbutan-1-ol; phases: Liquid
Fixed: Pressure, kPa = 101
Property: Viscosity, Pa*s (Liquid); method: CAPTUB::UFactor:2
Temperature, K	Viscosity, Pa*s	uncertainty
298.15	0.0027795	3.42e-05
303.15	0.0022581	2.82e-05
308.15	0.0018443	2.33e-05

System: 3-methylbutan-1-ol; phases: Liquid
Property: Speed of sound, m/s (Liquid); method: Linear variable-path acoustic interferometer
Temperature, K	Pressure, kPa	Speed of sound, m/s	uncertainty
298.15	101	1259	4

System: 3-methylbutan-1-ol; phases: Liquid
Fixed: Pressure, kPa = 101
Property: Mass density, kg/m3 (Liquid); method: VIBTUB::UFactor:4
Temperature, K	Mass density, kg/m3	uncertainty
298.15	820.17	8.22
303.15	816.28	8.18
308.15	812.34	8.14

System: ethanol; phases: Liquid
Fixed: Pressure, kPa = 101.325
Property: Refractive index (Na D-line) (Liquid); method: ABBE::UFactor:4
Temperature, K	Refractive index (Na D-line)	uncertainty
298.15	1.3608	0.0012
303.15	1.3589	0.0012
308.15	1.3563	0.0012

System: ethanol; phases: Liquid
Fixed: Pressure, kPa = 101
Property: Viscosity, Pa*s (Liquid); method: CAPTUB::UFactor:2
Temperature, K	Viscosity, Pa*s	uncertainty
298.15	0.0010831	1.32e-05
303.15	0.000985	1.22e-05
308.15	0.0008954	1.12e-05

System: ethanol; phases: Liquid
Property: Speed of sound, m/s (Liquid); method: Linear variable-path acoustic interferometer
Temperature, K	Pressure, kPa	Speed of sound, m/s	uncertainty
298.15	101	1161	4

System: ethanol; phases: Liquid
Fixed: Pressure, kPa = 101
Property: Mass density, kg/m3 (Liquid); method: VIBTUB::UFactor:4
Temperature, K	Mass density, kg/m3	uncertainty
298.15	785.66	7.87
303.15	781.34	7.83
308.15	776.99	7.78

System: propan-2-ol + methylcyclohexane; phases: Liquid
Fixed: Pressure, kPa = 101
Property: Viscosity, Pa*s (Liquid); method: CAPTUB:UFactor:2
Temperature, K	Mole fraction of methylcyclohexane	Viscosity, Pa*s	uncertainty
298.15	0	0.0020763	2.44e-05
298.15	0.1001	0.001634	1.97e-05
298.15	0.2033	0.0013497	1.66e-05
298.15	0.3065	0.0011173	1.41e-05
298.15	0.4049	0.0009645	1.24e-05
298.15	0.5034	0.0008434	1.11e-05
298.15	0.6022	0.0007815	1.05e-05
298.15	0.7009	0.0007197	9.8e-06
298.15	0.8021	0.000703	9.7e-06
298.15	0.9032	0.0006864	9.5e-06
298.15	1	0.0006757	9.5e-06
303.15	0	0.0017857	2.12e-05
303.15	0.1001	0.0014408	1.75e-05
303.15	0.2033	0.0011968	1.49e-05
303.15	0.3065	0.0010038	1.28e-05
303.15	0.4049	0.0008716	1.14e-05
303.15	0.5034	0.0007708	1.03e-05
303.15	0.6022	0.0007193	9.8e-06
303.15	0.7009	0.0006681	9.2e-06
303.15	0.8021	0.0006546	9.1e-06
303.15	0.9032	0.000641	9e-06
303.15	1	0.000631	8.9e-06
308.15	0	0.0015317	1.84e-05
308.15	0.1001	0.0012476	1.54e-05
308.15	0.2033	0.001044	1.32e-05
308.15	0.3065	0.0008905	1.15e-05
308.15	0.4049	0.0007785	1.03e-05
308.15	0.5034	0.000698	9.5e-06
308.15	0.6022	0.0006573	9e-06
308.15	0.7009	0.0006167	8.6e-06
308.15	0.8021	0.0006061	8.5e-06
308.15	0.9032	0.0005955	8.5e-06
308.15	1	0.0005902	8.5e-06

System: propan-2-ol + methylcyclohexane; phases: Liquid
Fixed: Pressure, kPa = 101
Property: Refractive index (Na D-line) (Liquid); method: ABBE:UFactor:4
Temperature, K	Mole fraction of methylcyclohexane	Refractive index (Na D-line)	uncertainty
298.15	0	1.3765	0.0012
298.15	0.1001	1.3822	0.0012
298.15	0.2033	1.3879	0.0012
298.15	0.3065	1.3936	0.0012
298.15	0.4049	1.3983	0.0012
298.15	0.5034	1.4029	0.0012
298.15	0.6022	1.4068	0.0013
298.15	0.7009	1.4106	0.0013
298.15	0.8021	1.4145	0.0013
298.15	0.9032	1.4184	0.0013
298.15	1	1.4217	0.0013
303.15	0	1.3741	0.0012
303.15	0.1001	1.3798	0.0012
303.15	0.2033	1.3854	0.0012
303.15	0.3065	1.3909	0.0012
303.15	0.4049	1.3956	0.0012
303.15	0.5034	1.4001	0.0012
303.15	0.6022	1.404	0.0013
303.15	0.7009	1.408	0.0013
303.15	0.8021	1.4118	0.0013
303.15	0.9032	1.4158	0.0013
303.15	1	1.4192	0.0013
308.15	0	1.3716	0.0012
308.15	0.1001	1.3775	0.0012
308.15	0.2033	1.3829	0.0012
308.15	0.3065	1.3883	0.0012
308.15	0.4049	1.3928	0.0012
308.15	0.5034	1.3973	0.0012
308.15	0.6022	1.4013	0.0013
308.15	0.7009	1.4053	0.0013
308.15	0.8021	1.4092	0.0013
308.15	0.9032	1.413	0.0013
308.15	1	1.4163	0.0013

System: propan-2-ol + methylcyclohexane; phases: Liquid
Fixed: Temperature, K = 298.15
Fixed: Pressure, kPa = 101
Property: Speed of sound, m/s (Liquid); method: Linear variable-path acoustic interferometer
Mole fraction of methylcyclohexane	Speed of sound, m/s	uncertainty
0	1144	4
0.1001	1151	4
0.2033	1159	4
0.3065	1166	4
0.4049	1173	4
0.5034	1181	4
0.6022	1188	4
0.7009	1195	4
0.8021	1203	4
0.9032	1210	4
1	1217	4

System: propan-2-ol + methylcyclohexane; phases: Liquid
Fixed: Pressure, kPa = 101
Property: Mass density, kg/m3 (Liquid); method: VIBTUB:UFactor:4
Temperature, K	Mole fraction of methylcyclohexane	Mass density, kg/m3	uncertainty
298.15	0	781.05	7.82
298.15	0.1001	777.28	7.79
298.15	0.2033	774.39	7.76
298.15	0.3065	771.5	7.73
298.15	0.4049	769.55	7.71
298.15	0.5034	767.6	7.69
298.15	0.6022	766.22	7.68
298.15	0.7009	765.17	7.67
298.15	0.8021	764.75	7.67
298.15	0.9032	764.43	7.67
298.15	1	764.99	7.67
303.15	0	776.79	7.78
303.15	0.1001	772.86	7.74
303.15	0.2033	769.88	7.72
303.15	0.3065	766.95	7.69
303.15	0.4049	764.95	7.67
303.15	0.5034	763.01	7.65
303.15	0.6022	761.62	7.64
303.15	0.7009	760.61	7.63
303.15	0.8021	760.25	7.62
303.15	0.9032	759.88	7.62
303.15	1	760.66	7.63
308.15	0	772.43	7.74
308.15	0.1001	768.43	7.7
308.15	0.2033	765.38	7.67
308.15	0.3065	762.32	7.64
308.15	0.4049	760.33	7.62
308.15	0.5034	758.34	7.6
308.15	0.6022	757	7.59
308.15	0.7009	756	7.58
308.15	0.8021	755.69	7.58
308.15	0.9032	755.37	7.58
308.15	1	756.3	7.59

System: butan-1-ol + methylcyclohexane; phases: Liquid
Fixed: Pressure, kPa = 101
Property: Viscosity, Pa*s (Liquid); method: CAPTUB:UFactor:2
Temperature, K	Mole fraction of methylcyclohexane	Viscosity, Pa*s	uncertainty
298.15	0	0.0025868	3.2e-05
298.15	0.1021	0.0023957	2.97e-05
298.15	0.2041	0.0022046	2.75e-05
298.15	0.3027	0.0020205	2.53e-05
298.15	0.4013	0.0018343	2.32e-05
298.15	0.5039	0.0016395	2.09e-05
298.15	0.6066	0.0014431	1.86e-05
298.15	0.7014	0.001262	1.64e-05
298.15	0.7963	0.0010799	1.43e-05
298.15	0.8981	0.0008808	1.19e-05
298.15	1	0.0006757	9.5e-06
303.15	0	0.0022543	2.81e-05
303.15	0.1021	0.002122	2.65e-05
303.15	0.2041	0.0019566	2.46e-05
303.15	0.3027	0.0017966	2.27e-05
303.15	0.4013	0.0016364	2.08e-05
303.15	0.5039	0.0014679	1.89e-05
303.15	0.6066	0.0012883	1.67e-05
303.15	0.7014	0.0011413	1.5e-05
303.15	0.7963	0.0009828	1.31e-05
303.15	0.8981	0.0008104	1.11e-05
303.15	1	0.000631	8.9e-06
308.15	0	0.0019882	2.5e-05
308.15	0.1021	0.0018484	2.33e-05
308.15	0.2041	0.0017086	2.17e-05
308.15	0.3027	0.0015728	2.01e-05
308.15	0.4013	0.0014385	1.85e-05
308.15	0.5039	0.0012962	1.68e-05
308.15	0.6066	0.0011534	1.51e-05
308.15	0.7014	0.0010206	1.36e-05
308.15	0.7963	0.0008858	1.2e-05
308.15	0.8981	0.00074	1.02e-05
308.15	1	0.0005902	8.5e-06

System: butan-1-ol + methylcyclohexane; phases: Liquid
Fixed: Pressure, kPa = 101
Property: Refractive index (Na D-line) (Liquid); method: ABBE:UFactor:8
Temperature, K	Mole fraction of methylcyclohexane	Refractive index (Na D-line)	uncertainty
298.15	0	1.3983	0.0025
298.15	0.1021	1.4036	0.0025
298.15	0.2041	1.4034	0.0025
298.15	0.3027	1.406	0.0025
298.15	0.4013	1.4087	0.0025
298.15	0.5039	1.4105	0.0025
298.15	0.6066	1.4121	0.0025
298.15	0.7014	1.4147	0.0025
298.15	0.7963	1.4169	0.0025
298.15	0.8981	1.4193	0.0025
298.15	1	1.4217	0.0025
303.15	0	1.3959	0.0025
303.15	0.1021	1.4015	0.0025
303.15	0.2041	1.4008	0.0025
303.15	0.3027	1.4035	0.0025
303.15	0.4013	1.4062	0.0025
303.15	0.5039	1.4081	0.0025
303.15	0.6066	1.4099	0.0025
303.15	0.7014	1.4122	0.0025
303.15	0.7963	1.4143	0.0025
303.15	0.8981	1.4167	0.0025
303.15	1	1.4192	0.0025
308.15	0	1.394	0.0025
308.15	0.1021	1.3994	0.0025
308.15	0.2041	1.3982	0.0025
308.15	0.3027	1.4009	0.0025
308.15	0.4013	1.4037	0.0025
308.15	0.5039	1.4057	0.0025
308.15	0.6066	1.4076	0.0025
308.15	0.7014	1.4097	0.0025
308.15	0.7963	1.4117	0.0025
308.15	0.8981	1.414	0.0025
308.15	1	1.4163	0.0025

System: butan-1-ol + methylcyclohexane; phases: Liquid
Fixed: Temperature, K = 298.15
Fixed: Pressure, kPa = 101
Property: Speed of sound, m/s (Liquid); method: Linear variable-path acoustic interferometer
Mole fraction of methylcyclohexane	Speed of sound, m/s	uncertainty
0	1268	4
0.1021	1263	4
0.2041	1258	4
0.3027	1253	4
0.4013	1248	4
0.5039	1243	4
0.6066	1238	4
0.7014	1233	4
0.7963	1227	4
0.8981	1222	4
1	1217	4

System: butan-1-ol + methylcyclohexane; phases: Liquid
Fixed: Pressure, kPa = 101
Property: Mass density, kg/m3 (Liquid); method: VIBTUB:UFactor:4
Temperature, K	Mole fraction of methylcyclohexane	Mass density, kg/m3	uncertainty
298.15	0	808.49	8.1
298.15	0.1021	801.93	8.04
298.15	0.2041	795.62	7.98
298.15	0.3027	790.23	7.92
298.15	0.4013	785.45	7.88
298.15	0.5039	780.86	7.83
298.15	0.6066	776.73	7.79
298.15	0.7014	773.21	7.75
298.15	0.7963	770.14	7.72
298.15	0.8981	767.52	7.7
298.15	1	764.99	7.67
303.15	0	804.6	8.07
303.15	0.1021	797.96	8
303.15	0.2041	791.47	7.94
303.15	0.3027	786.03	7.88
303.15	0.4013	781.24	7.83
303.15	0.5039	776.57	7.79
303.15	0.6066	772.4	7.75
303.15	0.7014	768.83	7.71
303.15	0.7963	765.74	7.68
303.15	0.8981	763.15	7.65
303.15	1	760.66	7.63
308.15	0	800.67	8.03
308.15	0.1021	793.95	7.96
308.15	0.2041	787.32	7.89
308.15	0.3027	781.87	7.84
308.15	0.4013	776.99	7.79
308.15	0.5039	772.29	7.75
308.15	0.6066	768.04	7.7
308.15	0.7014	764.46	7.67
308.15	0.7963	761.34	7.64
308.15	0.8981	758.77	7.61
308.15	1	756.3	7.59

System: 2-methyl-1-propanol + methylcyclohexane; phases: Liquid
Fixed: Pressure, kPa = 101
Property: Viscosity, Pa*s (Liquid); method: CAPTUB:UFactor:2
Temperature, K	Mole fraction of methylcyclohexane	Viscosity, Pa*s	uncertainty
298.15	0	0.0030968	3.79e-05
298.15	0.1003	0.0024993	3.09e-05
298.15	0.2006	0.0020371	2.55e-05
298.15	0.3008	0.0016303	2.08e-05
298.15	0.4037	0.001359	1.76e-05
298.15	0.5066	0.0011197	1.48e-05
298.15	0.6052	0.0009911	1.32e-05
298.15	0.7038	0.0008637	1.17e-05
298.15	0.8025	0.0007897	1.08e-05
298.15	0.9011	0.0007162	1e-05
298.15	1	0.0006757	9.5e-06
303.15	0	0.0026349	3.25e-05
303.15	0.1003	0.0021703	2.71e-05
303.15	0.2006	0.0017897	2.26e-05
303.15	0.3008	0.0014396	1.85e-05
303.15	0.4037	0.0012086	1.58e-05
303.15	0.5066	0.0010167	1.35e-05
303.15	0.6052	0.000906	1.22e-05
303.15	0.7038	0.0007964	1.09e-05
303.15	0.8025	0.0007317	1.01e-05
303.15	0.9011	0.0006676	9.4e-06
303.15	1	0.000631	8.9e-06
308.15	0	0.0022492	2.8e-05
308.15	0.1003	0.0018413	2.32e-05
308.15	0.2006	0.0015424	1.97e-05
308.15	0.3008	0.0012478	1.63e-05
308.15	0.4037	0.0010582	1.4e-05
308.15	0.5066	0.0009138	1.23e-05
308.15	0.6052	0.000821	1.12e-05
308.15	0.7038	0.000729	1.01e-05
308.15	0.8025	0.0006738	9.5e-06
308.15	0.9011	0.0006189	8.8e-06
308.15	1	0.0005902	8.5e-06

System: 2-methyl-1-propanol + methylcyclohexane; phases: Liquid
Fixed: Pressure, kPa = 101
Property: Refractive index (Na D-line) (Liquid); method: ABBE:UFactor:4
Temperature, K	Mole fraction of methylcyclohexane	Refractive index (Na D-line)	uncertainty
298.15	0	1.3932	0.0013
298.15	0.1003	1.397	0.0013
298.15	0.2006	1.4	0.0013
298.15	0.3008	1.4031	0.0013
298.15	0.4037	1.4059	0.0013
298.15	0.5066	1.4088	0.0013
298.15	0.6052	1.4114	0.0013
298.15	0.7038	1.4141	0.0013
298.15	0.8025	1.4167	0.0013
298.15	0.9011	1.4194	0.0013
298.15	1	1.4217	0.0013
303.15	0	1.3917	0.0013
303.15	0.1003	1.3945	0.0013
303.15	0.2006	1.3975	0.0013
303.15	0.3008	1.4005	0.0013
303.15	0.4037	1.4033	0.0013
303.15	0.5066	1.4061	0.0013
303.15	0.6052	1.4088	0.0013
303.15	0.7038	1.4115	0.0013
303.15	0.8025	1.414	0.0013
303.15	0.9011	1.4165	0.0013
303.15	1	1.4192	0.0013
308.15	0	1.3896	0.0013
308.15	0.1003	1.392	0.0013
308.15	0.2006	1.395	0.0013
308.15	0.3008	1.3979	0.0013
308.15	0.4037	1.4007	0.0013
308.15	0.5066	1.4034	0.0013
308.15	0.6052	1.4062	0.0013
308.15	0.7038	1.409	0.0013
308.15	0.8025	1.4113	0.0013
308.15	0.9011	1.4135	0.0013
308.15	1	1.4163	0.0013

System: 2-methyl-1-propanol + methylcyclohexane; phases: Liquid
Fixed: Temperature, K = 298.15
Fixed: Pressure, kPa = 101
Property: Speed of sound, m/s (Liquid); method: Linear variable-path acoustic interferometer
Mole fraction of methylcyclohexane	Speed of sound, m/s	uncertainty
0	1170	4
0.1003	1175	4
0.2006	1179	4
0.3008	1183	4
0.4037	1188	4
0.5066	1193	4
0.6052	1198	4
0.7038	1202	4
0.8025	1207	4
0.9011	1212	4
1	1217	4

System: 2-methyl-1-propanol + methylcyclohexane; phases: Liquid
Fixed: Pressure, kPa = 101
Property: Mass density, kg/m3 (Liquid); method: VIBTUB:UFactor:4
Temperature, K	Mole fraction of methylcyclohexane	Mass density, kg/m3	uncertainty
298.15	0	809.31	8.11
298.15	0.1003	802.66	8.05
298.15	0.2006	796.44	7.98
298.15	0.3008	790.71	7.93
298.15	0.4037	785.47	7.88
298.15	0.5066	780.72	7.83
298.15	0.6052	776.53	7.79
298.15	0.7038	772.84	7.75
298.15	0.8025	769.44	7.72
298.15	0.9011	766.63	7.69
298.15	1	764.99	7.67
303.15	0	805.23	8.07
303.15	0.1003	798.47	8.01
303.15	0.2006	792.18	7.94
303.15	0.3008	786.35	7.88
303.15	0.4037	781.09	7.83
303.15	0.5066	776.29	7.78
303.15	0.6052	772.08	7.74
303.15	0.7038	768.37	7.71
303.15	0.8025	764.99	7.67
303.15	0.9011	762.18	7.65
303.15	1	760.66	7.63
308.15	0	801.11	8.03
308.15	0.1003	794.29	7.96
308.15	0.2006	787.91	7.9
308.15	0.3008	782.02	7.84
308.15	0.4037	776.69	7.79
308.15	0.5066	771.86	7.74
308.15	0.6052	767.64	7.7
308.15	0.7038	763.92	7.66
308.15	0.8025	760.54	7.63
308.15	0.9011	757.75	7.6
308.15	1	756.3	7.59

System: methylcyclohexane + 3-methylbutan-1-ol; phases: Liquid
Fixed: Pressure, kPa = 101
Property: Viscosity, Pa*s (Liquid); method: CAPTUB:UFactor:2
Temperature, K	Mole fraction of methylcyclohexane	Viscosity, Pa*s	uncertainty
298.15	0	0.0027795	3.42e-05
298.15	0.1002	0.0025694	3.18e-05
298.15	0.2011	0.0023587	2.93e-05
298.15	0.3001	0.0021514	2.69e-05
298.15	0.4016	0.0019382	2.44e-05
298.15	0.5019	0.0017276	2.19e-05
298.15	0.6012	0.001519	1.95e-05
298.15	0.702	0.0013067	1.7e-05
298.15	0.8011	0.0010975	1.45e-05
298.15	0.9009	0.0008861	1.2e-05
298.15	1	0.0006757	9.5e-06
303.15	0	0.0022581	2.82e-05
303.15	0.1002	0.0021442	2.68e-05
303.15	0.2011	0.001976	2.48e-05
303.15	0.3001	0.0018105	2.29e-05
303.15	0.4016	0.0016405	2.09e-05
303.15	0.5019	0.0014724	1.89e-05
303.15	0.6012	0.0013059	1.7e-05
303.15	0.702	0.0011365	1.49e-05
303.15	0.8011	0.0009594	1.28e-05
303.15	0.9009	0.0008008	1.1e-05
303.15	1	0.000631	8.9e-06
308.15	0	0.0018443	2.33e-05
308.15	0.1002	0.0017189	2.18e-05
308.15	0.2011	0.0015932	2.04e-05
308.15	0.3001	0.0014696	1.89e-05
308.15	0.4016	0.0013427	1.74e-05
308.15	0.5019	0.0012173	1.59e-05
308.15	0.6012	0.0010929	1.44e-05
308.15	0.702	0.0009662	1.29e-05
308.15	0.8011	0.0008412	1.14e-05
308.15	0.9009	0.0007156	1e-05
308.15	1	0.0005902	8.5e-06

System: methylcyclohexane + 3-methylbutan-1-ol; phases: Liquid
Fixed: Pressure, kPa = 101
Property: Refractive index (Na D-line) (Liquid); method: ABBE:UFactor:4
Temperature, K	Mole fraction of methylcyclohexane	Refractive index (Na D-line)	uncertainty
298.15	0	1.4056	0.0013
298.15	0.1002	1.4073	0.0013
298.15	0.2011	1.4089	0.0013
298.15	0.3001	1.4105	0.0013
298.15	0.4016	1.4121	0.0013
298.15	0.5019	1.4137	0.0013
298.15	0.6012	1.4153	0.0013
298.15	0.702	1.4169	0.0013
298.15	0.8011	1.4185	0.0013
298.15	0.9009	1.4201	0.0013
298.15	1	1.4217	0.0013
303.15	0	1.4034	0.0013
303.15	0.1002	1.405	0.0013
303.15	0.2011	1.4066	0.0013
303.15	0.3001	1.4081	0.0013
303.15	0.4016	1.4097	0.0013
303.15	0.5019	1.4112	0.0013
303.15	0.6012	1.4128	0.0013
303.15	0.702	1.4144	0.0013
303.15	0.8011	1.4159	0.0013
303.15	0.9009	1.4174	0.0013
303.15	1	1.4192	0.0013
308.15	0	1.4013	0.0013
308.15	0.1002	1.4028	0.0013
308.15	0.2011	1.4043	0.0013
308.15	0.3001	1.4058	0.0013
308.15	0.4016	1.4073	0.0013
308.15	0.5019	1.4088	0.0013
308.15	0.6012	1.4103	0.0013
308.15	0.702	1.4118	0.0013
308.15	0.8011	1.4133	0.0013
308.15	0.9009	1.4148	0.0013
308.15	1	1.4163	0.0013

System: methylcyclohexane + 3-methylbutan-1-ol; phases: Liquid
Fixed: Temperature, K = 298.15
Fixed: Pressure, kPa = 101
Property: Speed of sound, m/s (Liquid); method: Linear variable-path acoustic interferometer
Mole fraction of methylcyclohexane	Speed of sound, m/s	uncertainty
0	1259	4
0.1002	1255	4
0.2011	1250	4
0.3001	1246	4
0.4016	1242	4
0.5019	1238	4
0.6012	1234	4
0.702	1230	4
0.8011	1226	4
0.9009	1221	4
1	1217	4

System: methylcyclohexane + 3-methylbutan-1-ol; phases: Liquid
Fixed: Pressure, kPa = 101
Property: Mass density, kg/m3 (Liquid); method: VIBTUB:UFactor:4
Temperature, K	Mole fraction of methylcyclohexane	Mass density, kg/m3	uncertainty
298.15	0	820.17	8.22
298.15	0.1002	814.65	8.17
298.15	0.2011	809.13	8.11
298.15	0.3001	803.62	8.06
298.15	0.4016	798.1	8
298.15	0.5019	792.58	7.95
298.15	0.6012	787.06	7.89
298.15	0.702	781.54	7.84
298.15	0.8011	776.03	7.78
298.15	0.9009	770.51	7.73
298.15	1	764.99	7.67
303.15	0	816.28	8.18
303.15	0.1002	810.69	8.13
303.15	0.2011	805.14	8.07
303.15	0.3001	799.57	8.02
303.15	0.4016	794.02	7.96
303.15	0.5019	788.45	7.91
303.15	0.6012	782.89	7.85
303.15	0.702	777.33	7.8
303.15	0.8011	771.78	7.74
303.15	0.9009	766.22	7.69
303.15	1	760.66	7.63
308.15	0	812.34	8.14
308.15	0.1002	806.74	8.09
308.15	0.2011	801.13	8.03
308.15	0.3001	795.53	7.98
308.15	0.4016	789.92	7.92
308.15	0.5019	784.32	7.86
308.15	0.6012	778.72	7.81
308.15	0.702	773.11	7.75
308.15	0.8011	767.51	7.7
308.15	0.9009	761.9	7.64
308.15	1	756.3	7.59

System: ethanol + methylcyclohexane; phases: Liquid
Fixed: Pressure, kPa = 101
Property: Viscosity, Pa*s (Liquid); method: CAPTUB:UFactor:2
Temperature, K	Mole fraction of methylcyclohexane	Viscosity, Pa*s	uncertainty
298.15	0	0.0010831	1.32e-05
298.15	0.1023	0.0009923	1.23e-05
298.15	0.2031	0.0009225	1.16e-05
298.15	0.304	0.0008558	1.09e-05
298.15	0.405	0.000808	1.04e-05
298.15	0.5061	0.0007632	1e-05
298.15	0.6029	0.0007293	9.7e-06
298.15	0.6998	0.0006984	9.4e-06
298.15	0.8016	0.0006857	9.4e-06
298.15	0.9034	0.0006762	9.4e-06
298.15	1	0.0006757	9.5e-06
303.15	0	0.000985	1.22e-05
303.15	0.1023	0.0009068	1.14e-05
303.15	0.2031	0.0008458	1.07e-05
303.15	0.304	0.000788	1.02e-05
303.15	0.405	0.0007464	9.8e-06
303.15	0.5061	0.0007079	9.4e-06
303.15	0.6029	0.000677	9.1e-06
303.15	0.6998	0.0006477	8.9e-06
303.15	0.8016	0.0006392	8.9e-06
303.15	0.9034	0.0006323	8.9e-06
303.15	1	0.000631	8.9e-06
308.15	0	0.0008954	1.12e-05
308.15	0.1023	0.0008212	1.04e-05
308.15	0.2031	0.0007691	9.9e-06
308.15	0.304	0.0007202	9.4e-06
308.15	0.405	0.0006848	9.1e-06
308.15	0.5061	0.0006525	8.8e-06
308.15	0.6029	0.0006248	8.5e-06
308.15	0.6998	0.0005971	8.3e-06
308.15	0.8016	0.0005927	8.3e-06
308.15	0.9034	0.0005884	8.4e-06
308.15	1	0.0005902	8.5e-06

System: ethanol + methylcyclohexane; phases: Liquid
Fixed: Pressure, kPa = 101
Property: Refractive index (Na D-line) (Liquid); method: ABBE:UFactor:4
Temperature, K	Mole fraction of methylcyclohexane	Refractive index (Na D-line)	uncertainty
298.15	0	1.3608	0.0012
298.15	0.1023	1.371	0.0012
298.15	0.2031	1.3796	0.0012
298.15	0.304	1.3881	0.0012
298.15	0.405	1.3949	0.0012
298.15	0.5061	1.4017	0.0012
298.15	0.6029	1.4068	0.0012
298.15	0.6998	1.412	0.0012
298.15	0.8016	1.417	0.0013
298.15	0.9034	1.4192	0.0013
298.15	1	1.4217	0.0013
303.15	0	1.3589	0.0012
303.15	0.1023	1.3686	0.0012
303.15	0.2031	1.3764	0.0012
303.15	0.304	1.3853	0.0012
303.15	0.405	1.3921	0.0012
303.15	0.5061	1.3989	0.0012
303.15	0.6029	1.4038	0.0012
303.15	0.6998	1.4087	0.0012
303.15	0.8016	1.4135	0.0013
303.15	0.9034	1.4169	0.0013
303.15	1	1.4192	0.0013
308.15	0	1.3563	0.0012
308.15	0.1023	1.3662	0.0012
308.15	0.2031	1.3744	0.0012
308.15	0.304	1.3825	0.0012
308.15	0.405	1.3893	0.0012
308.15	0.5061	1.3961	0.0012
308.15	0.6029	1.4008	0.0012
308.15	0.6998	1.4054	0.0012
308.15	0.8016	1.41	0.0013
308.15	0.9034	1.4146	0.0013
308.15	1	1.4163	0.0013

System: ethanol + methylcyclohexane; phases: Liquid
Fixed: Temperature, K = 298.15
Fixed: Pressure, kPa = 101
Property: Speed of sound, m/s (Liquid); method: Linear variable-path acoustic interferometer
Mole fraction of methylcyclohexane	Speed of sound, m/s	uncertainty
0	1161	4
0.1023	1167	4
0.2031	1172	4
0.304	1178	4
0.405	1183	4
0.5061	1189	4
0.6029	1195	4
0.6998	1200	4
0.8016	1206	4
0.9034	1212	4
1	1217	4

System: ethanol + methylcyclohexane; phases: Liquid
Fixed: Pressure, kPa = 101
Property: Mass density, kg/m3 (Liquid); method: VIBTUB:UFactor:4
Temperature, K	Mole fraction of methylcyclohexane	Mass density, kg/m3	uncertainty
298.15	0	785.66	7.87
298.15	0.1023	779.57	7.81
298.15	0.2031	775.92	7.77
298.15	0.304	772.55	7.74
298.15	0.405	770.25	7.72
298.15	0.5061	768.4	7.7
298.15	0.6029	767.13	7.69
298.15	0.6998	766.01	7.68
298.15	0.8016	765.34	7.67
298.15	0.9034	764.79	7.67
298.15	1	764.99	7.67
303.15	0	781.34	7.83
303.15	0.1023	775.21	7.76
303.15	0.2031	771.51	7.73
303.15	0.304	768.07	7.7
303.15	0.405	765.74	7.67
303.15	0.5061	763.87	7.66
303.15	0.6029	762.62	7.64
303.15	0.6998	761.51	7.63
303.15	0.8016	760.87	7.63
303.15	0.9034	760.27	7.62
303.15	1	760.66	7.63
308.15	0	776.99	7.78
308.15	0.1023	770.8	7.72
308.15	0.2031	767.07	7.68
308.15	0.304	763.6	7.65
308.15	0.405	761.26	7.63
308.15	0.5061	759.36	7.61
308.15	0.6029	758.09	7.6
308.15	0.6998	756.97	7.59
308.15	0.8016	756.37	7.58
308.15	0.9034	755.77	7.58
308.15	1	756.3	7.59

System: propan-1-ol + methylcyclohexane; phases: Liquid
Fixed: Pressure, kPa = 101
Property: Viscosity, Pa*s (Liquid); method: CAPTUB:UFactor:2
Temperature, K	Mole fraction of methylcyclohexane	Viscosity, Pa*s	uncertainty
298.15	0	0.0020767	2.44e-05
298.15	0.1008	0.0017288	2.07e-05
298.15	0.2027	0.0014714	1.79e-05
298.15	0.3047	0.0012597	1.57e-05
298.15	0.4039	0.0011024	1.4e-05
298.15	0.5031	0.0009688	1.26e-05
298.15	0.6008	0.0008839	1.16e-05
298.15	0.6985	0.0007998	1.07e-05
298.15	0.799	0.0007511	1.02e-05
298.15	0.8995	0.0007028	9.7e-06
298.15	1	0.0006757	9.5e-06
303.15	0	0.001809	2.15e-05
303.15	0.1008	0.0015361	1.86e-05
303.15	0.2027	0.0013166	1.62e-05
303.15	0.3047	0.0011363	1.43e-05
303.15	0.4039	0.0009975	1.28e-05
303.15	0.5031	0.0008863	1.16e-05
303.15	0.6008	0.000813	1.08e-05
303.15	0.6985	0.0007403	1.01e-05
303.15	0.799	0.0006984	9.6e-06
303.15	0.8995	0.0006568	9.2e-06
303.15	1	0.000631	8.9e-06
308.15	0	0.0015947	1.91e-05
308.15	0.1008	0.0013434	1.64e-05
308.15	0.2027	0.0011618	1.45e-05
308.15	0.3047	0.0010128	1.29e-05
308.15	0.4039	0.0008926	1.16e-05
308.15	0.5031	0.0008037	1.07e-05
308.15	0.6008	0.000742	1e-05
308.15	0.6985	0.0006808	9.4e-06
308.15	0.799	0.0006457	9e-06
308.15	0.8995	0.0006107	8.7e-06
308.15	1	0.0005902	8.5e-06

System: propan-1-ol + methylcyclohexane; phases: Liquid
Fixed: Pressure, kPa = 101
Property: Refractive index (Na D-line) (Liquid); method: ABBE:UFactor:4
Temperature, K	Mole fraction of methylcyclohexane	Refractive index (Na D-line)	uncertainty
298.15	0	1.384	0.0012
298.15	0.1008	1.3888	0.0012
298.15	0.2027	1.3934	0.0012
298.15	0.3047	1.3979	0.0012
298.15	0.4039	1.4016	0.0012
298.15	0.5031	1.4053	0.0012
298.15	0.6008	1.409	0.0013
298.15	0.6985	1.4127	0.0013
298.15	0.799	1.4159	0.0013
298.15	0.8995	1.4191	0.0013
298.15	1	1.4217	0.0013
303.15	0	1.3819	0.0012
303.15	0.1008	1.3865	0.0012
303.15	0.2027	1.391	0.0012
303.15	0.3047	1.3955	0.0012
303.15	0.4039	1.3994	0.0012
303.15	0.5031	1.4032	0.0012
303.15	0.6008	1.4066	0.0013
303.15	0.6985	1.4101	0.0013
303.15	0.799	1.4133	0.0013
303.15	0.8995	1.4164	0.0013
303.15	1	1.4192	0.0013
308.15	0	1.38	0.0012
308.15	0.1008	1.3841	0.0012
308.15	0.2027	1.3886	0.0012
308.15	0.3047	1.3932	0.0012
308.15	0.4039	1.3971	0.0012
308.15	0.5031	1.4011	0.0012
308.15	0.6008	1.4043	0.0013
308.15	0.6985	1.4075	0.0013
308.15	0.799	1.4106	0.0013
308.15	0.8995	1.4137	0.0013
308.15	1	1.4163	0.0013

System: propan-1-ol + methylcyclohexane; phases: Liquid
Fixed: Temperature, K = 298.15
Fixed: Pressure, kPa = 101
Property: Speed of sound, m/s (Liquid); method: Linear variable-path acoustic interferometer
Mole fraction of methylcyclohexane	Speed of sound, m/s	uncertainty
0	1206	4
0.1008	1207	4
0.2027	1208	4
0.3047	1209	4
0.4039	1210	4
0.5031	1212	4
0.6008	1213	4
0.6985	1214	4
0.799	1215	4
0.8995	1216	4
1	1217	4

System: propan-1-ol + methylcyclohexane; phases: Liquid
Fixed: Pressure, kPa = 101
Property: Mass density, kg/m3 (Liquid); method: VIBTUB:UFactor:4
Temperature, K	Mole fraction of methylcyclohexane	Mass density, kg/m3	uncertainty
298.15	0	809.65	8.11
298.15	0.1008	801.22	8.03
298.15	0.2027	794.2	7.96
298.15	0.3047	788.08	7.9
298.15	0.4039	782.97	7.85
298.15	0.5031	778.56	7.8
298.15	0.6008	774.91	7.77
298.15	0.6985	771.66	7.74
298.15	0.799	768.83	7.71
298.15	0.8995	766.39	7.69
298.15	1	764.99	7.67
303.15	0	805.5	8.07
303.15	0.1008	796.96	7.98
303.15	0.2027	789.87	7.91
303.15	0.3047	783.7	7.85
303.15	0.4039	778.55	7.8
303.15	0.5031	774.16	7.76
303.15	0.6008	770.45	7.72
303.15	0.6985	767.2	7.69
303.15	0.799	764.32	7.66
303.15	0.8995	761.95	7.64
303.15	1	760.66	7.63
308.15	0	801.32	8.03
308.15	0.1008	792.71	7.94
308.15	0.2027	785.57	7.87
308.15	0.3047	779.32	7.81
308.15	0.4039	774.13	7.76
308.15	0.5031	769.74	7.72
308.15	0.6008	765.97	7.68
308.15	0.6985	762.69	7.65
308.15	0.799	759.8	7.62
308.15	0.8995	757.5	7.6
308.15	1	756.3	7.59
