Measured thermophysical data. Measurement and correlation of the density, viscosity and vapor pressure of fatty acid 2-ethyhexyl esters
Source: J. Chem. Thermodyn., 2019, 10.1016/j.jct.2018.10.012
Compound 1: 2-ethylhexyl palmitate, C24H48O2, InChI=1S/C24H48O2/c1-4-7-9-10-11-12-13-14-15-16-17-18-19-21-24(25)26-22-23(6-3)20-8-5-2/h23H,4-22H2,1-3H3
Compound 2: 2-ethylhexyl stearate, C26H52O2, InChI=1S/C26H52O2/c1-4-7-9-10-11-12-13-14-15-16-17-18-19-20-21-23-26(27)28-24-25(6-3)22-8-5-2/h25H,4-24H2,1-3H3
Compound 3: methyl hexadecanoate, C17H34O2, InChI=1S/C17H34O2/c1-3-4-5-6-7-8-9-10-11-12-13-14-15-16-17(18)19-2/h3-16H2,1-2H3, purity 99%

System: 2-ethylhexyl palmitate; phases: Liquid
Fixed: Pressure, kPa = 101.325
Property: Mass density, kg/m3 (Liquid); method: Pycnometric method
Temperature, K	Mass density, kg/m3	uncertainty
298.15	855.1	0.9
303.15	851	0.9
308.15	847.9	0.9
313.15	844.5	0.9
318.15	840.9	0.9
323.15	837.4	0.9
328.15	834	0.9
333.15	830.3	0.9
338.15	826.7	0.9
343.15	823.3	0.9
348.15	820.1	0.9
353.15	816.8	0.9
358.15	813.2	0.9
363.15	810	0.9
368.15	806.9	0.9

System: 2-ethylhexyl palmitate; phases: Liquid
Fixed: Pressure, kPa = 101.325
Property: Viscosity, Pa*s (Liquid); method: Capillary tube (Ostwald; Ubbelohde) method
Temperature, K	Viscosity, Pa*s	uncertainty
298.15	0.01178	0.00048
303.15	0.01001	0.00041
308.15	0.00828	0.00034
313.15	0.00716	0.00029
318.15	0.00626	0.00025
323.15	0.00564	0.00023
328.15	0.00494	0.0002
333.15	0.00441	0.00018
338.15	0.00394	0.00016
343.15	0.00355	0.00014
348.15	0.00324	0.00013
353.15	0.00294	0.00012
358.15	0.00271	0.00011
363.15	0.00249	0.0001
368.15	0.00229	9e-05

System: 2-ethylhexyl palmitate; phases: Liquid, Gas
Property: Vapor or sublimation pressure, kPa (Liquid); method: Ebulliometric method (Recirculating still)
Temperature, K	Vapor or sublimation pressure, kPa	uncertainty
476.95	0.307	0.029
479.35	0.333	0.029
482.35	0.387	0.029
484.95	0.427	0.029
488.05	0.493	0.029
490.35	0.547	0.029
491.45	0.573	0.029
493.85	0.627	0.029
496.05	0.68	0.029
497.35	0.733	0.029
499.35	0.8	0.029
500.85	0.853	0.029

System: 2-ethylhexyl stearate; phases: Liquid
Fixed: Pressure, kPa = 101.325
Property: Mass density, kg/m3 (Liquid); method: Pycnometric method
Temperature, K	Mass density, kg/m3	uncertainty
298.15	855.4	0.9
303.15	851.4	0.9
308.15	847.9	0.9
313.15	844.9	0.9
318.15	841.1	0.9
323.15	837.7	0.9
328.15	834.4	0.9
333.15	831.1	0.9
338.15	827.8	0.9
343.15	824.5	0.9
348.15	821.1	0.9
353.15	817.2	0.9
358.15	814.2	0.9
363.15	811.2	0.9
368.15	808	0.9

System: 2-ethylhexyl stearate; phases: Liquid
Fixed: Pressure, kPa = 101.325
Property: Viscosity, Pa*s (Liquid); method: Capillary tube (Ostwald; Ubbelohde) method
Temperature, K	Viscosity, Pa*s	uncertainty
298.15	0.01504	0.00061
303.15	0.01255	0.00051
308.15	0.01062	0.00043
313.15	0.00906	0.00037
318.15	0.00784	0.00032
323.15	0.00681	0.00028
328.15	0.00604	0.00025
333.15	0.00534	0.00022
338.15	0.00479	0.00019
343.15	0.00436	0.00018
348.15	0.00392	0.00016
353.15	0.00358	0.00015
358.15	0.00327	0.00013
363.15	0.00302	0.00012
368.15	0.0028	0.00011

System: 2-ethylhexyl stearate; phases: Liquid, Gas
Property: Vapor or sublimation pressure, kPa (Liquid); method: Ebulliometric method (Recirculating still)
Temperature, K	Vapor or sublimation pressure, kPa	uncertainty
477.05	0.213	0.029
479.65	0.253	0.029
482.25	0.28	0.029
483.45	0.307	0.029
485.25	0.333	0.029
487.55	0.373	0.029
488.85	0.4	0.029
491.25	0.44	0.029
493.25	0.493	0.029
495.25	0.547	0.029
496.25	0.573	0.029
498.05	0.613	0.029

System: methyl hexadecanoate; phases: Liquid, Gas
Property: Vapor or sublimation pressure, kPa (Liquid); method: Ebulliometric method (Recirculating still)
Temperature, K	Vapor or sublimation pressure, kPa	uncertainty
419.15	0.213	0.029
423.15	0.279	0.029
425.25	0.306	0.029
428.35	0.346	0.029
430.75	0.399	0.029
432.25	0.425	0.029
433.35	0.452	0.029
436.25	0.532	0.029
438.45	0.585	0.029
440.15	0.624	0.029
442.35	0.705	0.029
444.15	0.771	0.029
