Measured thermophysical data. Thermodynamic stability of RNi2 Laves phases
Source: J. Chem. Thermodyn., 2013, 10.1016/j.jct.2013.05.044
Compound 1: nickel, Ni, InChI=1S/Ni
Compound 2: praseodymium, Pr, InChI=1S/Pr
Compound 3: neodymium, Nd, InChI=1S/Nd
Compound 4: gadolinium, Gd, InChI=1S/Gd
Compound 5: samarium, Sm, InChI=1S/Sm
Compound 6: terbium, Tb, InChI=1S/Tb
Compound 7: dysprosium, Dy, InChI=1S/Dy
Compound 8: holmium, Ho, InChI=1S/Ho
Compound 9: erbium, Er, InChI=1S/Er
Compound 10: Ni2Pr, Ni2Pr, InChI=1S/2Ni.Pr, purity 97%
Compound 11: NdNi2, NdNi2, InChI=1S/Nd.2Ni, purity 97%
Compound 12: Ni2Sm, Ni2Sm, InChI=1S/2Ni.Sm, purity 97%
Compound 13: GdNi2, GdNi2, InChI=1S/Gd.2Ni, purity 97%
Compound 14: Ni2Tb, Ni2Tb, InChI=1S/2Ni.Tb, purity 97%
Compound 15: DyNi2, DyNi2, InChI=1S/Dy.2Ni, purity 97%
Compound 16: HoNi2, HoNi2, InChI=1S/Ho.2Ni, purity 97%
Compound 17: ErNi2, ErNi2, InChI=1S/Er.2Ni, purity 97%

Reaction: -2 nickel + -1 praseodymium + 1 Ni2Pr
Property: Molar enthalpy of reaction, kJ/mol
-102

Reaction: -1 neodymium + -2 nickel + 1 NdNi2
Property: Molar enthalpy of reaction, kJ/mol
-114

Reaction: -2 nickel + -1 gadolinium + 1 GdNi2
Property: Molar enthalpy of reaction, kJ/mol
-120

Reaction: -2 nickel + -1 samarium + 1 Ni2Sm
Property: Molar enthalpy of reaction, kJ/mol
-117

Reaction: -2 nickel + -1 terbium + 1 Ni2Tb
Property: Molar enthalpy of reaction, kJ/mol
-129

Reaction: -1 dysprosium + -2 nickel + 1 DyNi2
Property: Molar enthalpy of reaction, kJ/mol
-138

Reaction: -2 nickel + -1 holmium + 1 HoNi2
Property: Molar enthalpy of reaction, kJ/mol
-144

Reaction: -2 nickel + -1 erbium + 1 ErNi2
Property: Molar enthalpy of reaction, kJ/mol
-150
