Measured thermophysical data. Volumetric and acoustic properties of binary mixtures of tri-n-butyl phosphate  with n-hexane, cyclohexane, and n-heptane from T = (298.15 to 323.15) K
Source: J. Chem. Thermodyn., 2013, 10.1016/j.jct.2012.09.015
Compound 1: tributyl phosphate, C12H27O4P, InChI=1S/C12H27O4P/c1-4-7-10-14-17(13,15-11-8-5-2)16-12-9-6-3/h4-12H2,1-3H3, purity 99%
Compound 2: hexane, C6H14, InChI=1S/C6H14/c1-3-5-6-4-2/h3-6H2,1-2H3, purity 99%
Compound 3: cyclohexane, C6H12, InChI=1S/C6H12/c1-2-4-6-5-3-1/h1-6H2, purity 99.7%
Compound 4: heptane, C7H16, InChI=1S/C7H16/c1-3-5-7-6-4-2/h3-7H2,1-2H3, purity 99.5%

System: tributyl phosphate; phases: Liquid
Fixed: Pressure, kPa = 101.325
Property: Mass density, kg/m3 (Liquid); method: Vibrating tube method
Temperature, K	Mass density, kg/m3	uncertainty
298.15	973.85	0.23
303.15	969.44	0.23
308.15	965.04	0.23
313.15	960.62	0.23
318.15	956.19	0.23
323.15	951.75	0.23

System: tributyl phosphate; phases: Liquid
Fixed: Pressure, kPa = 101.325
Property: Speed of sound, m/s (Liquid); method: Sing-around technique in a fixed-path interferometer
Temperature, K	Speed of sound, m/s	uncertainty
298.15	1272	2
303.15	1255	2
308.15	1238	2
313.15	1221	2
318.15	1204	2
323.15	1188	2

System: hexane; phases: Liquid
Fixed: Pressure, kPa = 101.325
Property: Mass density, kg/m3 (Liquid); method: Vibrating tube method
Temperature, K	Mass density, kg/m3	uncertainty
298.15	655.21	0.26
303.15	650.64	0.26
308.15	646.03	0.26
313.15	641.37	0.26
318.15	636.67	0.26
323.15	631.92	0.26

System: hexane; phases: Liquid
Fixed: Pressure, kPa = 101.325
Property: Speed of sound, m/s (Liquid); method: Sing-around technique in a fixed-path interferometer
Temperature, K	Speed of sound, m/s	uncertainty
298.15	1077	2
303.15	1054	2
308.15	1032	2
313.15	1010	2
318.15	988	2
323.15	965	2

System: cyclohexane; phases: Liquid
Fixed: Pressure, kPa = 101.325
Property: Mass density, kg/m3 (Liquid); method: Vibrating tube method
Temperature, K	Mass density, kg/m3	uncertainty
298.15	773.86	0.14
303.15	769.12	0.14
308.15	764.35	0.14
313.15	759.56	0.14
318.15	754.74	0.14
323.15	749.88	0.15

System: cyclohexane; phases: Liquid
Fixed: Pressure, kPa = 101.325
Property: Speed of sound, m/s (Liquid); method: Sing-around technique in a fixed-path interferometer
Temperature, K	Speed of sound, m/s	uncertainty
298.15	1254	1
303.15	1229	1
308.15	1205	1
313.15	1181	1
318.15	1157	1
323.15	1134	1

System: heptane; phases: Liquid
Fixed: Pressure, kPa = 101.325
Property: Mass density, kg/m3 (Liquid); method: Vibrating tube method
Temperature, K	Mass density, kg/m3	uncertainty
298.15	679.91	0.18
303.15	675.63	0.19
308.15	671.33	0.19
313.15	667.01	0.19
318.15	662.65	0.19
323.15	658.26	0.19

System: heptane; phases: Liquid
Fixed: Pressure, kPa = 101.325
Property: Speed of sound, m/s (Liquid); method: Sing-around technique in a fixed-path interferometer
Temperature, K	Speed of sound, m/s	uncertainty
298.15	1131	1
303.15	1109	1
308.15	1088	1
313.15	1066	1
318.15	1045	1
323.15	1024	1

System: hexane + tributyl phosphate; phases: Liquid
Fixed: Pressure, kPa = 101
Property: Mass density, kg/m3 (Liquid); method: Vibrating tube method
Temperature, K	Mole fraction of tributyl phosphate	Mass density, kg/m3	uncertainty
298.15	0.0995	715.09	1.02
298.15	0.2006	765.08	0.94
298.15	0.3037	808.12	0.81
298.15	0.3959	840.45	0.69
298.15	0.4988	871.21	0.6
298.15	0.6091	899.46	0.53
298.15	0.7086	921.7	0.48
298.15	0.8011	940.17	0.44
298.15	0.8999	957.99	0.43
303.15	0.0995	710.52	1.02
303.15	0.2006	760.52	0.94
303.15	0.3037	803.59	0.81
303.15	0.3959	835.96	0.69
303.15	0.4988	866.74	0.6
303.15	0.6091	895.04	0.54
303.15	0.7086	917.3	0.48
303.15	0.8011	935.77	0.44
303.15	0.8999	953.61	0.43
308.15	0.0995	705.92	1.02
308.15	0.2006	755.94	0.94
308.15	0.3037	799.05	0.81
308.15	0.3959	831.45	0.69
308.15	0.4988	862.27	0.6
308.15	0.6091	890.61	0.54
308.15	0.7086	912.9	0.48
308.15	0.8011	931.36	0.44
308.15	0.8999	949.23	0.43
313.15	0.0995	701.29	1.02
313.15	0.2006	751.33	0.94
313.15	0.3037	794.49	0.81
313.15	0.3959	826.92	0.69
313.15	0.4988	857.77	0.6
313.15	0.6091	886.18	0.54
313.15	0.7086	908.49	0.48
313.15	0.8011	926.95	0.44
313.15	0.8999	944.83	0.43
318.15	0.0995	696.61	1.02
318.15	0.2006	746.72	0.95
318.15	0.3037	789.9	0.81
318.15	0.3959	822.35	0.69
318.15	0.4988	853.27	0.6
318.15	0.6091	881.73	0.54
318.15	0.7086	904.07	0.49
318.15	0.8011	922.53	0.45
318.15	0.8999	940.44	0.43
323.15	0.0995	691.95	1.02
323.15	0.2006	742.04	0.95
323.15	0.3037	785.3	0.81
323.15	0.3959	817.78	0.69
323.15	0.4988	848.75	0.61
323.15	0.6091	877.28	0.54
323.15	0.7086	899.63	0.49
323.15	0.8011	918.1	0.45
323.15	0.8999	936.03	0.43

System: hexane + tributyl phosphate; phases: Liquid
Fixed: Pressure, kPa = 101
Property: Speed of sound, m/s (Liquid); method: Sing-around technique in a fixed-path interferometer
Temperature, K	Mole fraction of tributyl phosphate	Speed of sound, m/s	uncertainty
298.15	0.0995	1097	2
298.15	0.2006	1118	2
298.15	0.3037	1141	2
298.15	0.3959	1161	2
298.15	0.4988	1183	2
298.15	0.6091	1205	2
298.15	0.7086	1222	2
298.15	0.8011	1239	2
298.15	0.8999	1255	2
303.15	0.0995	1076	2
303.15	0.2006	1097	2
303.15	0.3037	1122	2
303.15	0.3959	1143	2
303.15	0.4988	1165	2
303.15	0.6091	1187	2
303.15	0.7086	1205	2
303.15	0.8011	1222	2
303.15	0.8999	1238	2
308.15	0.0995	1055	2
308.15	0.2006	1077	2
308.15	0.3037	1102	2
308.15	0.3959	1124	2
308.15	0.4988	1146	2
308.15	0.6091	1169	2
308.15	0.7086	1187	2
308.15	0.8011	1204	2
308.15	0.8999	1221	2
313.15	0.0995	1034	2
313.15	0.2006	1057	2
313.15	0.3037	1083	2
313.15	0.3959	1105	2
313.15	0.4988	1128	2
313.15	0.6091	1151	2
313.15	0.7086	1170	2
313.15	0.8011	1187	2
313.15	0.8999	1204	2
318.15	0.0995	1013	2
318.15	0.2006	1038	2
318.15	0.3037	1064	2
318.15	0.3959	1087	2
318.15	0.4988	1110	2
318.15	0.6091	1133	2
318.15	0.7086	1152	2
318.15	0.8011	1170	2
318.15	0.8999	1187	2
323.15	0.0995	992	2
323.15	0.2006	1018	2
323.15	0.3037	1045	2
323.15	0.3959	1068	2
323.15	0.4988	1092	2
323.15	0.6091	1116	2
323.15	0.7086	1136	2
323.15	0.8011	1153	2
323.15	0.8999	1170	2

System: cyclohexane + tributyl phosphate; phases: Liquid
Fixed: Pressure, kPa = 101
Property: Mass density, kg/m3 (Liquid); method: Vibrating tube method
Temperature, K	Mole fraction of tributyl phosphate	Mass density, kg/m3	uncertainty
298.15	0.099	814.12	0.67
298.15	0.1993	846.89	0.6
298.15	0.3025	874.05	0.49
298.15	0.4042	896.02	0.42
298.15	0.5063	914.55	0.36
298.15	0.6083	930.06	0.33
298.15	0.7024	942.9	0.3
298.15	0.8027	954.19	0.28
298.15	0.902	964.39	0.29
303.15	0.099	809.42	0.67
303.15	0.1993	842.23	0.6
303.15	0.3025	869.46	0.5
303.15	0.4042	891.48	0.42
303.15	0.5063	910.06	0.36
303.15	0.6083	925.63	0.33
303.15	0.7024	938.5	0.3
303.15	0.8027	949.8	0.28
303.15	0.902	960.02	0.29
308.15	0.099	804.71	0.67
308.15	0.1993	837.55	0.6
308.15	0.3025	864.84	0.5
308.15	0.4042	886.94	0.42
308.15	0.5063	905.53	0.36
308.15	0.6083	921.2	0.33
308.15	0.7024	934.1	0.3
308.15	0.8027	945.4	0.29
308.15	0.902	955.65	0.29
313.15	0.099	799.98	0.67
313.15	0.1993	832.86	0.61
313.15	0.3025	860.21	0.5
313.15	0.4042	882.38	0.42
313.15	0.5063	901.04	0.37
313.15	0.6083	916.76	0.33
313.15	0.7024	929.69	0.3
313.15	0.8027	941.01	0.29
313.15	0.902	951.27	0.29
318.15	0.099	795.24	0.67
318.15	0.1993	828.15	0.61
318.15	0.3025	855.57	0.5
318.15	0.4042	877.81	0.42
318.15	0.5063	896.51	0.37
318.15	0.6083	912.31	0.33
318.15	0.7024	925.28	0.3
318.15	0.8027	936.6	0.29
318.15	0.902	946.89	0.29
323.15	0.099	790.47	0.67
323.15	0.1993	823.42	0.61
323.15	0.3025	850.91	0.5
323.15	0.4042	873.23	0.43
323.15	0.5063	891.96	0.37
323.15	0.6083	907.86	0.33
323.15	0.7024	920.86	0.3
323.15	0.8027	932.19	0.29
323.15	0.902	942.5	0.29

System: cyclohexane + tributyl phosphate; phases: Liquid
Fixed: Pressure, kPa = 101
Property: Speed of sound, m/s (Liquid); method: Sing-around technique in a fixed-path interferometer
Temperature, K	Mole fraction of tributyl phosphate	Speed of sound, m/s	uncertainty
298.15	0.099	1237	1
298.15	0.1993	1232	1
298.15	0.3025	1233	1
298.15	0.4042	1237	1
298.15	0.5063	1242	1
298.15	0.6083	1247	1
298.15	0.7024	1252	2
298.15	0.8027	1258	2
298.15	0.902	1263	2
303.15	0.099	1214	1
303.15	0.1993	1211	1
303.15	0.3025	1213	1
303.15	0.4042	1218	1
303.15	0.5063	1223	1
303.15	0.6083	1229	1
303.15	0.7024	1234	2
303.15	0.8027	1240	2
303.15	0.902	1246	2
308.15	0.099	1192	1
308.15	0.1993	1190	1
308.15	0.3025	1193	1
308.15	0.4042	1199	1
308.15	0.5063	1205	1
308.15	0.6083	1211	1
308.15	0.7024	1216	2
308.15	0.8027	1223	2
308.15	0.902	1229	2
313.15	0.099	1170	1
313.15	0.1993	1169	1
313.15	0.3025	1173	1
313.15	0.4042	1180	1
313.15	0.5063	1187	1
313.15	0.6083	1193	1
313.15	0.7024	1199	2
313.15	0.8027	1206	2
313.15	0.902	1212	2
318.15	0.099	1148	1
318.15	0.1993	1148	1
318.15	0.3025	1154	1
318.15	0.4042	1161	1
318.15	0.5063	1168	1
318.15	0.6083	1175	1
318.15	0.7024	1181	2
318.15	0.8027	1188	2
318.15	0.902	1195	2
323.15	0.099	1127	1
323.15	0.1993	1128	1
323.15	0.3025	1134	1
323.15	0.4042	1142	1
323.15	0.5063	1150	1
323.15	0.6083	1157	1
323.15	0.7024	1164	2
323.15	0.8027	1171	2
323.15	0.902	1178	2

System: tributyl phosphate + heptane; phases: Liquid
Fixed: Pressure, kPa = 101
Property: Mass density, kg/m3 (Liquid); method: Vibrating tube method
Temperature, K	Mole fraction of tributyl phosphate	Mass density, kg/m3	uncertainty
298.15	0.0999	729.57	0.87
298.15	0.1972	771.17	0.81
298.15	0.2996	809.21	0.72
298.15	0.3947	840.14	0.63
298.15	0.4977	869.71	0.57
298.15	0.5999	895.55	0.51
298.15	0.697	917.57	0.47
298.15	0.7999	938.62	0.44
298.15	0.9005	957.3	0.43
303.15	0.0999	725.23	0.87
303.15	0.1972	766.8	0.81
303.15	0.2996	804.83	0.72
303.15	0.3947	835.74	0.63
303.15	0.4977	865.44	0.57
303.15	0.5999	891.18	0.51
303.15	0.697	913.22	0.47
303.15	0.7999	934.25	0.44
303.15	0.9005	952.9	0.43
308.15	0.0999	720.87	0.87
308.15	0.1972	762.39	0.81
308.15	0.2996	800.43	0.72
308.15	0.3947	831.33	0.63
308.15	0.4977	861.03	0.57
308.15	0.5999	886.81	0.51
308.15	0.697	908.86	0.47
308.15	0.7999	929.88	0.44
308.15	0.9005	948.48	0.43
313.15	0.0999	716.49	0.87
313.15	0.1972	758.01	0.81
313.15	0.2996	796.02	0.72
313.15	0.3947	826.9	0.63
313.15	0.4977	856.61	0.57
313.15	0.5999	882.44	0.51
313.15	0.697	904.49	0.47
313.15	0.7999	925.5	0.44
313.15	0.9005	944.06	0.43
318.15	0.0999	712.09	0.87
318.15	0.1972	753.61	0.81
318.15	0.2996	791.59	0.72
318.15	0.3947	822.45	0.63
318.15	0.4977	852.17	0.57
318.15	0.5999	878.05	0.51
318.15	0.697	900.11	0.47
318.15	0.7999	921.11	0.44
318.15	0.9005	939.62	0.43
323.15	0.0999	707.66	0.87
323.15	0.1972	749.14	0.81
323.15	0.2996	787.14	0.72
323.15	0.3947	817.99	0.63
323.15	0.4977	847.71	0.57
323.15	0.5999	873.65	0.52
323.15	0.697	895.73	0.47
323.15	0.7999	916.71	0.44
323.15	0.9005	935.17	0.43

System: tributyl phosphate + heptane; phases: Liquid
Fixed: Pressure, kPa = 101
Property: Speed of sound, m/s (Liquid); method: Sing-around technique in a fixed-path interferometer
Temperature, K	Mole fraction of tributyl phosphate	Speed of sound, m/s	uncertainty
298.15	0.0999	1140	1
298.15	0.1972	1151	1
298.15	0.2996	1166	1
298.15	0.3947	1180	1
298.15	0.4977	1197	2
298.15	0.5999	1212	2
298.15	0.697	1226	2
298.15	0.7999	1242	2
298.15	0.9005	1259	2
303.15	0.0999	1119	1
303.15	0.1972	1132	1
303.15	0.2996	1147	1
303.15	0.3947	1162	1
303.15	0.4977	1179	2
303.15	0.5999	1194	2
303.15	0.697	1209	2
303.15	0.7999	1225	2
303.15	0.9005	1242	2
308.15	0.0999	1099	1
308.15	0.1972	1112	1
308.15	0.2996	1128	1
308.15	0.3947	1143	1
308.15	0.4977	1160	2
308.15	0.5999	1176	2
308.15	0.697	1191	2
308.15	0.7999	1207	2
308.15	0.9005	1225	2
313.15	0.0999	1078	1
313.15	0.1972	1093	1
313.15	0.2996	1109	1
313.15	0.3947	1125	1
313.15	0.4977	1142	2
313.15	0.5999	1159	2
313.15	0.697	1174	2
313.15	0.7999	1190	2
313.15	0.9005	1208	2
318.15	0.0999	1058	1
318.15	0.1972	1073	1
318.15	0.2996	1090	1
318.15	0.3947	1106	1
318.15	0.4977	1125	2
318.15	0.5999	1141	2
318.15	0.697	1157	2
318.15	0.7999	1173	2
318.15	0.9005	1191	2
323.15	0.0999	1038	1
323.15	0.1972	1054	1
323.15	0.2996	1072	1
323.15	0.3947	1088	1
323.15	0.4977	1107	2
323.15	0.5999	1124	2
323.15	0.697	1139	2
323.15	0.7999	1156	2
323.15	0.9005	1174	2
