Measured thermophysical data. Vapour pressure data of e-caprolactone, d-hexalactone, and c-caprolactone
Source: J. Chem. Thermodyn., 2008, 10.1016/j.jct.2007.09.008
Compound 1: 6-hexanolactone, C6H10O2, InChI=1S/C6H10O2/c7-6-4-2-1-3-5-8-6/h1-5H2, purity 99%
Compound 2: 2H-pyran-2-one, tetrahydro-6-methyl-, C6H10O2, InChI=1S/C6H10O2/c1-5-3-2-4-6(7)8-5/h5H,2-4H2,1H3, purity 99.5%
Compound 3: 2(3H)-furanone, 5-ethyldihydro-, C6H10O2, InChI=1S/C6H10O2/c1-2-5-3-4-6(7)8-5/h5H,2-4H2,1H3, purity 98%

System: 6-hexanolactone; phases: Liquid, Gas
Property: Vapor or sublimation pressure, kPa (Liquid); method: Closed cell (Static) method
Temperature, K	Vapor or sublimation pressure, kPa	uncertainty
283.2	0.045	0.002
292.9	0.079	0.003
302.9	0.131	0.006
313.1	0.213	0.008
323.1	0.339	0.012
333.2	0.518	0.021
343.2	0.768	0.031

System: 2H-pyran-2-one, tetrahydro-6-methyl-; phases: Liquid, Gas
Property: Vapor or sublimation pressure, kPa (Liquid); method: Closed cell (Static) method
Temperature, K	Vapor or sublimation pressure, kPa	uncertainty
283.1	0.005	0.002
293.2	0.011	0.006
303.1	0.025	0.016
313.1	0.054	0.004
323.2	0.103	0.006
333.1	0.191	0.01
343.1	0.354	0.02

System: 2(3H)-furanone, 5-ethyldihydro-; phases: Liquid, Gas
Property: Vapor or sublimation pressure, kPa (Liquid); method: Closed cell (Static) method
Temperature, K	Vapor or sublimation pressure, kPa	uncertainty
283.1	0.075	0.008
293.1	0.128	0.008
303.1	0.221	0.008
312.9	0.356	0.016
323.3	0.564	0.019
333.3	0.862	0.027
343.1	1.367	0.102
