Measured thermophysical data. Physicochemical properties of ionic liquids [Cnmim][SbF6] (n = 4,5,6)
Source: J. Chem. Thermodyn., 2019, 10.1016/j.jct.2018.07.018
Compound 1: 1-butyl-3-methylimidazolium hexafluoroantimonate, C8H15F6N2Sb, InChI=1S/C8H15N2.6FH.Sb/c1-3-4-5-10-7-6-9(2)8-10;;;;;;;/h6-8H,3-5H2,1-2H3;6*1H;/q+1;;;;;;;+5/p-6
Compound 2: 1-pentyl-3-methylimidazolium hexafluoroantimonate, C9H17F6N2Sb, InChI=1S/C9H17N2.6FH.Sb/c1-3-4-5-6-11-8-7-10(2)9-11;;;;;;;/h7-9H,3-6H2,1-2H3;6*1H;/q+1;;;;;;;+5/p-6
Compound 3: 1-hexyl-3-methylimidazolium hexafluoroantimonate, C10H19F6N2Sb, InChI=1S/C10H19N2.6FH.Sb/c1-3-4-5-6-7-12-9-8-11(2)10-12;;;;;;;/h8-10H,3-7H2,1-2H3;6*1H;/q+1;;;;;;;+5/p-6

System: 1-butyl-3-methylimidazolium hexafluoroantimonate; phases: Liquid
Fixed: Pressure, kPa = 101.325
Property: Mass density, kg/m3 (Liquid); method: Buoyancy - hydrostatic balance
Temperature, K	Mass density, kg/m3	uncertainty
293.15	1700.8	2.4
298.15	1695.9	2.4
303.15	1689.6	2.4
308.15	1685.5	2.4
313.15	1679.6	2.4
318.15	1675.6	2.4
323.15	1669.8	2.4
328.15	1664.9	2.4
333.15	1659.8	2.4
338.15	1655.4	2.4
343.15	1652.1	2.4

System: 1-butyl-3-methylimidazolium hexafluoroantimonate; phases: Liquid, Air at 1 atmosphere
Property: Surface tension liquid-gas, N/m (Liquid); method: Maximal bubble pressure
Temperature, K	Surface tension liquid-gas, N/m	uncertainty
293.15	0.0436	0.0005
298.15	0.0432	0.0005
303.15	0.0429	0.0005
308.15	0.0426	0.0004
313.15	0.0422	0.0004
318.15	0.0419	0.0004
323.15	0.0416	0.0004
328.15	0.0413	0.0004
333.15	0.041	0.0004
338.15	0.0407	0.0004
343.15	0.0404	0.0004

System: 1-butyl-3-methylimidazolium hexafluoroantimonate; phases: Liquid
Fixed: Pressure, kPa = 101.325
Property: Refractive index (Na D-line) (Liquid); method: Standard Abbe refractometry
Temperature, K	Refractive index (Na D-line)	uncertainty
293.15	1.4161	0.0031
298.15	1.4147	0.0031
303.15	1.4126	0.0031
308.15	1.4107	0.0031
313.15	1.4088	0.0031
318.15	1.407	0.0031
323.15	1.4049	0.0031
328.15	1.4031	0.0031
333.15	1.4011	0.0031
338.15	1.3989	0.0031
343.15	1.3971	0.0031

System: 1-butyl-3-methylimidazolium hexafluoroantimonate; phases: Liquid
Fixed: Pressure, kPa = 101.325
Property: Electrical conductivity, S/m (Liquid); method: Alternating current cell with electrodes
Temperature, K	Electrical conductivity, S/m	uncertainty
293.15	0.22	0.065
298.15	0.273	0.065
303.15	0.328	0.065
308.15	0.378	0.065
313.15	0.456	0.065
318.15	0.54	0.065
323.15	0.621	0.065
328.15	0.708	0.065
333.15	0.916	0.065
338.15	1.031	0.065
343.15	1.136	0.065

System: 1-pentyl-3-methylimidazolium hexafluoroantimonate; phases: Liquid
Fixed: Pressure, kPa = 101.325
Property: Mass density, kg/m3 (Liquid); method: Buoyancy - hydrostatic balance
Temperature, K	Mass density, kg/m3	uncertainty
293.15	1641.8	2.4
298.15	1636.9	2.4
303.15	1631.8	2.4
308.15	1626.1	2.4
313.15	1621.7	2.4
318.15	1616.8	2.4
323.15	1611.9	2.3
328.15	1608.3	2.3
333.15	1603.6	2.3
338.15	1596.7	2.3
343.15	1594.1	2.3

System: 1-pentyl-3-methylimidazolium hexafluoroantimonate; phases: Liquid, Air at 1 atmosphere
Property: Surface tension liquid-gas, N/m (Liquid); method: Maximal bubble pressure
Temperature, K	Surface tension liquid-gas, N/m	uncertainty
293.15	0.0415	0.0004
298.15	0.0411	0.0004
303.15	0.0407	0.0004
308.15	0.0403	0.0004
313.15	0.04	0.0004
318.15	0.0397	0.0004
323.15	0.0392	0.0004
328.15	0.0389	0.0004
333.15	0.0385	0.0004
338.15	0.0383	0.0004
343.15	0.0379	0.0004

System: 1-pentyl-3-methylimidazolium hexafluoroantimonate; phases: Liquid
Fixed: Pressure, kPa = 101.325
Property: Refractive index (Na D-line) (Liquid); method: Standard Abbe refractometry
Temperature, K	Refractive index (Na D-line)	uncertainty
293.15	1.4192	0.0031
298.15	1.418	0.0031
303.15	1.4168	0.0031
308.15	1.4155	0.0031
313.15	1.4142	0.0031
318.15	1.4131	0.0031
323.15	1.4119	0.0031
328.15	1.4106	0.0031
333.15	1.4094	0.0031
338.15	1.4083	0.0031
343.15	1.4071	0.0031

System: 1-pentyl-3-methylimidazolium hexafluoroantimonate; phases: Liquid
Fixed: Pressure, kPa = 101.325
Property: Electrical conductivity, S/m (Liquid); method: Alternating current cell with electrodes
Temperature, K	Electrical conductivity, S/m	uncertainty
293.15	0.139	0.065
298.15	0.172	0.065
303.15	0.206	0.065
308.15	0.246	0.065
313.15	0.293	0.065
318.15	0.342	0.065
323.15	0.43	0.065
328.15	0.504	0.065
333.15	0.594	0.065
338.15	0.668	0.065
343.15	0.762	0.065

System: 1-hexyl-3-methylimidazolium hexafluoroantimonate; phases: Liquid
Fixed: Pressure, kPa = 101.325
Property: Mass density, kg/m3 (Liquid); method: Buoyancy - hydrostatic balance
Temperature, K	Mass density, kg/m3	uncertainty
293.15	1589.2	2.3
298.15	1584.3	2.3
303.15	1579.4	2.3
308.15	1574.3	2.3
313.15	1571.1	2.3
318.15	1566.4	2.3
323.15	1561.8	2.3
328.15	1555.8	2.3
333.15	1549.9	2.3
338.15	1547.1	2.3
343.15	1543	2.3

System: 1-hexyl-3-methylimidazolium hexafluoroantimonate; phases: Liquid, Air at 1 atmosphere
Property: Surface tension liquid-gas, N/m (Liquid); method: Maximal bubble pressure
Temperature, K	Surface tension liquid-gas, N/m	uncertainty
293.15	0.0394	0.0004
298.15	0.0389	0.0004
303.15	0.0385	0.0004
308.15	0.038	0.0004
313.15	0.0377	0.0004
318.15	0.0372	0.0004
323.15	0.0369	0.0004
328.15	0.0366	0.0004
333.15	0.0361	0.0004
338.15	0.0357	0.0004
343.15	0.0352	0.0004

System: 1-hexyl-3-methylimidazolium hexafluoroantimonate; phases: Liquid
Fixed: Pressure, kPa = 101.325
Property: Refractive index (Na D-line) (Liquid); method: Standard Abbe refractometry
Temperature, K	Refractive index (Na D-line)	uncertainty
293.15	1.4219	0.0031
298.15	1.4208	0.0031
303.15	1.4194	0.0031
308.15	1.4182	0.0031
313.15	1.4169	0.0031
318.15	1.4157	0.0031
323.15	1.4143	0.0031
328.15	1.4129	0.0031
333.15	1.4114	0.0031
338.15	1.4099	0.0031
343.15	1.4088	0.0031

System: 1-hexyl-3-methylimidazolium hexafluoroantimonate; phases: Liquid
Fixed: Pressure, kPa = 101.325
Property: Electrical conductivity, S/m (Liquid); method: Alternating current cell with electrodes
Temperature, K	Electrical conductivity, S/m	uncertainty
293.15	0.085	0.065
298.15	0.107	0.065
303.15	0.134	0.065
308.15	0.162	0.065
313.15	0.199	0.065
318.15	0.235	0.065
323.15	0.282	0.065
328.15	0.336	0.065
333.15	0.382	0.065
338.15	0.448	0.065
343.15	0.521	0.065
