Measured thermophysical data. Study of the solubility of CO2, H2S and their mixture in the ionic liquid 1-octyl-3-methylimidazolium hexafluorophosphate: Experimental and modelling
Source: J. Chem. Thermodyn., 2013, 10.1016/j.jct.2013.05.038
Compound 1: carbon dioxide, CO2, InChI=1S/CO2/c2-1-3, purity 99.95%
Compound 2: hydrogen sulfide, H2S, InChI=1S/H2S/h1H2, purity 99.95%
Compound 3: 1-octyl-3-methylimidazolium hexafluorophosphate, C12H23F6N2P, InChI=1S/C12H23N2.F6P/c1-3-4-5-6-7-8-9-14-11-10-13(2)12-14;1-7(2,3,4,5)6/h10-12H,3-9H2,1-2H3;/q+1;-1

System: carbon dioxide + hydrogen sulfide + 1-octyl-3-methylimidazolium hexafluorophosphate; phases: Liquid, Gas
Property: Mole fraction of 1-octyl-3-methylimidazolium hexafluorophosphate (Liquid); method: volumetric method + mass balance
Property: Mole fraction of 1-octyl-3-methylimidazolium hexafluorophosphate (Gas); method: volumetric method + mass balance
Property: Mole fraction of hydrogen sulfide (Gas); method: volumetric method + mass balance
Temperature, K	Pressure, kPa	Mole fraction of hydrogen sulfide	Mole fraction of 1-octyl-3-methylimidazolium hexafluorophosphate	uncertainty	Mole fraction of 1-octyl-3-methylimidazolium hexafluorophosphate	uncertainty	Mole fraction of hydrogen sulfide	uncertainty
303.15	126.6	0.08	0.912	0.006	0		0.701	
323.15	707.2	0.059	0.835	0.006	0		0.135	
343.15	171.6	0.06	0.934	0.006	0		0.748	
303.15	394.4	0.221	0.755	0.006	0		0.686	
343.15	552.2	0.175	0.805	0.006	0		0.733	
343.15	944.2	0.269	0.7	0.006	0		0.748	
343.15	282	0.058	0.92	0.006	0		0.443	
343.15	452.7	0.091	0.874	0.006	0		0.425	
343.15	917.2	0.16	0.763	0.006	0		0.445	
343.15	177	0.012	0.965	0.006	0		0.145	
343.15	359.7	0.023	0.93	0.006	0		0.159	
323.15	149.3	0.066	0.926	0.006	0		0.733	
343.15	781	0.056	0.847	0.006	0		0.151	
303.15	680.9	0.33	0.633	0.006	0		0.702	
303.15	228.7	0.077	0.892	0.006	0		0.402	
303.15	347.6	0.111	0.841	0.006	0		0.41	
303.15	694.7	0.206	0.708	0.006	0		0.378	
303.15	140.3	0.018	0.954	0.006	0		0.121	
303.15	291.4	0.034	0.908	0.006	0		0.119	
303.15	630.5	0.065	0.811	0.006	0		0.118	
323.15	481.4	0.2	0.779	0.006	0		0.731	
323.15	813.4	0.303	0.665	0.006	0		0.731	
323.15	255.6	0.066	0.908	0.006	0		0.424	
323.15	400.5	0.098	0.862	0.006	0		0.42	
323.15	809.2	0.185	0.736	0.006	0		0.406	
323.15	162	0.013	0.96	0.006	0		0.147	
323.15	326.2	0.029	0.918	0.006	0		0.148	

System: carbon dioxide + 1-octyl-3-methylimidazolium hexafluorophosphate; phases: Liquid, Gas
Property: Mole fraction of carbon dioxide (Liquid); method: volumetric method + mass balance
Pressure, kPa	Temperature, K	Mole fraction of carbon dioxide	uncertainty
128.7	303.15	0.0294	0.0008
292.5	303.15	0.0705	0.0018
488.9	303.15	0.1148	0.003
720.5	303.15	0.1652	0.0042
977.7	303.15	0.2176	0.0056
1220.4	303.15	0.2675	0.0068
1457.3	303.15	0.3149	0.0083
134.9	313.15	0.0281	0.0006
309	313.15	0.0661	0.0012
517.8	313.15	0.1074	0.002
763.7	313.15	0.1553	0.003
1037.4	313.15	0.208	0.004
1299.7	313.15	0.26	0.0051
1533.5	313.15	0.3071	0.0061
141.8	323.15	0.0263	0.0008
325.2	323.15	0.0623	0.0022
545.5	323.15	0.1012	0.0034
805	323.15	0.1471	0.005
1093.2	323.15	0.196	0.0066
1364.7	323.15	0.2443	0.0084
1618.5	323.15	0.2961	0.0102
148.4	333.15	0.0249	0.001
340.6	333.15	0.0592	0.0024
571.9	333.15	0.0962	0.004
844.2	333.15	0.1404	0.0058
1147.9	333.15	0.1874	0.0078
1432.4	333.15	0.2355	0.0098
1698.5	333.15	0.2875	0.012
154.7	343.15	0.0238	0.001
355.4	343.15	0.0565	0.0022
597	343.15	0.092	0.0038
881.6	343.15	0.1349	0.0054
1196.3	343.15	0.1824	0.0074
1499.6	343.15	0.2271	0.0092
1775.5	343.15	0.2804	0.0114
160.5	353.15	0.0231	0.001
369.5	353.15	0.0546	0.0022
620.3	353.15	0.0895	0.0036
917.8	353.15	0.1308	0.0054
1245.5	353.15	0.1777	0.0072
1557.8	353.15	0.2239	0.0092
1850.1	353.15	0.2752	0.0112

System: hydrogen sulfide + 1-octyl-3-methylimidazolium hexafluorophosphate; phases: Liquid, Gas
Property: Mole fraction of hydrogen sulfide (Liquid); method: volumetric method + mass balance
Pressure, kPa	Temperature, K	Mole fraction of hydrogen sulfide	uncertainty
84.5	303.15	0.0672	0.0028
192.3	303.15	0.1408	0.0058
326.8	303.15	0.2412	0.01
488.5	303.15	0.3366	0.0138
654.2	303.15	0.4138	0.0173
900.2	303.15	0.5087	0.0213
1111.7	303.15	0.5905	0.0246
1316.5	303.15	0.6501	0.027
1574.9	303.15	0.6972	0.029
94.4	313.15	0.0623	0.0034
212.5	313.15	0.1327	0.007
365	313.15	0.2284	0.0122
552.7	313.15	0.3189	0.0172
740.1	313.15	0.3949	0.0212
1026.1	313.15	0.488	0.0263
1281.1	313.15	0.5584	0.0302
1527.4	313.15	0.62	0.0334
1861.8	313.15	0.675	0.0364
103.7	323.15	0.0591	0.0024
234.4	323.15	0.126	0.0054
404.9	323.15	0.2152	0.0092
615.1	323.15	0.3022	0.0128
826.2	323.15	0.3761	0.0159
1154.3	323.15	0.4666	0.0197
1450.1	323.15	0.5361	0.0227
1741.5	323.15	0.5977	0.0252
111.4	333.15	0.0522	0.0026
251.5	333.15	0.1185	0.0054
443.2	333.15	0.2033	0.0094
676	333.15	0.2865	0.0132
910.1	333.15	0.3585	0.0164
1278.1	333.15	0.4461	0.0207
1613.7	333.15	0.5143	0.0237
1958.4	333.15	0.574	0.0264
115.7	343.15	0.0516	0.002
267.6	343.15	0.1138	0.0044
480.3	343.15	0.1921	0.0076
734.5	343.15	0.2717	0.0106
991.2	343.15	0.341	0.0134
1399.7	343.15	0.4253	0.0167
1770.2	343.15	0.4928	0.0193
123.9	353.15	0.0463	0.001
286.9	353.15	0.1027	0.0024
515.6	353.15	0.1749	0.004
790.2	353.15	0.2539	0.006
1069.3	353.15	0.3188	0.0075
1514.1	353.15	0.403	0.0095
1922.6	353.15	0.4672	0.0111
