Measured thermophysical data. Studies on physicochemical behavior of binary mixtures containing propanal and Alkan-2-ol
Source: J. Chem. Thermodyn., 2017, 10.1016/j.jct.2017.07.004
Compound 1: propanal, C3H6O, InChI=1S/C3H6O/c1-2-3-4/h3H,2H2,1H3, purity 99%
Compound 2: propan-2-ol, C3H8O, InChI=1S/C3H8O/c1-3(2)4/h3-4H,1-2H3, purity 99.7%
Compound 3: butan-2-ol, C4H10O, InChI=1S/C4H10O/c1-3-4(2)5/h4-5H,3H2,1-2H3, purity 99.5%
Compound 4: pentan-2-ol, C5H12O, InChI=1S/C5H12O/c1-3-4-5(2)6/h5-6H,3-4H2,1-2H3, purity 99%

System: propanal; phases: Liquid
Fixed: Pressure, kPa = 100
Property: Mass density, kg/m3 (Liquid); method: Vibrating tube method
Temperature, K	Mass density, kg/m3	uncertainty
293.15	802.4	1
298.15	796.2	1
303.15	790.3	1
308.15	784.5	1
313.15	779	1
318.15	773.5	1
323.15	768.2	1

System: propanal; phases: Liquid
Fixed: Pressure, kPa = 100
Property: Viscosity, Pa*s (Liquid); method: Concentric cylinders viscometry
Temperature, K	Viscosity, Pa*s	uncertainty
293.15	0.00034	3e-05
298.15	0.00033	3e-05
303.15	0.00031	3e-05
308.15	0.0003	3e-05
313.15	0.00028	2e-05
318.15	0.00027	2e-05
323.15	0.00025	2e-05

System: pentan-2-ol; phases: Liquid
Fixed: Pressure, kPa = 100
Property: Viscosity, Pa*s (Liquid); method: Concentric cylinders viscometry
Temperature, K	Viscosity, Pa*s	uncertainty
298.15	0.00332	0.00027
303.15	0.00281	0.00023
308.15	0.00237	0.00019
313.15	0.00199	0.00016
318.15	0.00166	0.00013
323.15	0.00139	0.00011

System: propan-2-ol + propanal; phases: Liquid
Fixed: Pressure, kPa = 100
Property: Mass density, kg/m3 (Liquid); method: Vibrating tube method
Temperature, K	Mole fraction of propanal	Mass density, kg/m3	uncertainty
293.15	0	785.4	1
293.15	0.0812	792	1
293.15	0.16	797.2	1
293.15	0.24	801.6	1
293.15	0.3499	806.4	1
293.15	0.4402	809.2	1
293.15	0.5619	811.4	1
293.15	0.6483	811.8	1
293.15	0.74	811.3	1
293.15	0.85	809.1	1
293.15	0.94	806	1
293.15	1	802.4	1
298.15	0	781.1	1
298.15	0.0812	786.6	1
298.15	0.16	791.5	1
298.15	0.24	795.9	1
298.15	0.3499	800.4	1
298.15	0.4402	803	1
298.15	0.5619	804.9	1
298.15	0.6483	805	1
298.15	0.74	804.1	1
298.15	0.85	802.3	1
298.15	0.94	799.1	1
298.15	1	796.2	1
303.15	0	776.8	1
303.15	0.0812	781.5	1
303.15	0.16	786.2	1
303.15	0.24	790	1
303.15	0.3499	794.5	1
303.15	0.4402	797.1	1
303.15	0.5619	798.8	1
303.15	0.6483	798.8	1
303.15	0.74	797.8	1
303.15	0.85	795.8	1
303.15	0.94	792.6	1
303.15	1	790.3	1
308.15	0	772.4	1
308.15	0.0812	776.7	1
308.15	0.16	780.9	1
308.15	0.24	784.3	1
308.15	0.3499	788.2	1
308.15	0.4402	790.5	1
308.15	0.5619	792	1
308.15	0.6483	792	1
308.15	0.74	791.4	1
308.15	0.85	789.5	1
308.15	0.94	786.4	1
308.15	1	784.5	1
313.15	0	768	1
313.15	0.0812	771.8	1
313.15	0.16	775.5	1
313.15	0.24	778.8	1
313.15	0.3499	782.4	1
313.15	0.4402	784.3	1
313.15	0.5619	785.7	1
313.15	0.6483	785.8	1
313.15	0.74	785.3	1
313.15	0.85	783.3	1
313.15	0.94	780.8	1
313.15	1	779	1
318.15	0	763.4	1
318.15	0.0812	766.8	1
318.15	0.16	770.2	1
318.15	0.24	773.1	1
318.15	0.3499	776.5	1
318.15	0.4402	778.4	1
318.15	0.5619	779.7	1
318.15	0.6483	779.7	1
318.15	0.74	778.9	1
318.15	0.85	777.2	1
318.15	0.94	775.4	1
318.15	1	773.5	1
323.15	0	758.8	1
323.15	0.0812	761.6	1
323.15	0.16	764.6	1
323.15	0.24	767.1	1
323.15	0.3499	770	1
323.15	0.4402	771.7	1
323.15	0.5619	772.8	1
323.15	0.6483	772.8	1
323.15	0.74	772.4	1
323.15	0.85	770.9	1
323.15	0.94	769.4	1
323.15	1	768.2	1

System: propan-2-ol + propanal; phases: Liquid
Fixed: Pressure, kPa = 100
Property: Viscosity, Pa*s (Liquid); method: Concentric cylinders viscometry
Temperature, K	Mole fraction of propanal	Viscosity, Pa*s	uncertainty
293.15	0	0.00242	0.00019
293.15	0.0812	0.00237	0.00019
293.15	0.16	0.0023	0.00018
293.15	0.24	0.0022	0.00018
293.15	0.3499	0.002	0.00016
293.15	0.4402	0.00181	0.00015
293.15	0.5619	0.00152	0.00012
293.15	0.6483	0.0013	0.0001
293.15	0.74	0.00106	9e-05
293.15	0.85	0.00076	6e-05
293.15	0.94	0.00051	4e-05
293.15	1	0.00034	3e-05
298.15	0	0.00208	0.00017
298.15	0.0812	0.00204	0.00016
298.15	0.16	0.00197	0.00016
298.15	0.24	0.00188	0.00015
298.15	0.3499	0.00172	0.00014
298.15	0.4402	0.00156	0.00013
298.15	0.5619	0.00132	0.00011
298.15	0.6483	0.00113	9e-05
298.15	0.74	0.00093	8e-05
298.15	0.85	0.00067	5e-05
298.15	0.94	0.00046	4e-05
298.15	1	0.00033	3e-05
303.15	0	0.0018	0.00014
303.15	0.0812	0.00176	0.00014
303.15	0.16	0.00169	0.00014
303.15	0.24	0.00161	0.00013
303.15	0.3499	0.00147	0.00012
303.15	0.4402	0.00133	0.00011
303.15	0.5619	0.00113	9e-05
303.15	0.6483	0.00097	8e-05
303.15	0.74	0.0008	6e-05
303.15	0.85	0.00059	5e-05
303.15	0.94	0.00042	3e-05
303.15	1	0.00031	3e-05
308.15	0	0.00156	0.00013
308.15	0.0812	0.00152	0.00012
308.15	0.16	0.00146	0.00012
308.15	0.24	0.00138	0.00011
308.15	0.3499	0.00126	0.0001
308.15	0.4402	0.00114	9e-05
308.15	0.5619	0.00097	8e-05
308.15	0.6483	0.00083	7e-05
308.15	0.74	0.00069	6e-05
308.15	0.85	0.00052	4e-05
308.15	0.94	0.00039	3e-05
308.15	1	0.0003	3e-05
313.15	0	0.00136	0.00011
313.15	0.0812	0.00131	0.00011
313.15	0.16	0.00124	0.0001
313.15	0.24	0.00117	9e-05
313.15	0.3499	0.00106	9e-05
313.15	0.4402	0.00096	8e-05
313.15	0.5619	0.00083	7e-05
313.15	0.6483	0.00072	6e-05
313.15	0.74	0.00061	5e-05
313.15	0.85	0.00047	4e-05
313.15	0.94	0.00036	3e-05
313.15	1	0.00028	2e-05
318.15	0	0.00119	0.0001
318.15	0.0812	0.00114	9e-05
318.15	0.16	0.00108	9e-05
318.15	0.24	0.00101	8e-05
318.15	0.3499	0.00091	7e-05
318.15	0.4402	0.00083	7e-05
318.15	0.5619	0.00071	6e-05
318.15	0.6483	0.00063	5e-05
318.15	0.74	0.00053	4e-05
318.15	0.85	0.00042	3e-05
318.15	0.94	0.00033	3e-05
318.15	1	0.00027	2e-05
323.15	0	0.00105	8e-05
323.15	0.0812	0.00099	8e-05
323.15	0.16	0.00094	8e-05
323.15	0.24	0.00087	7e-05
323.15	0.3499	0.00079	6e-05
323.15	0.4402	0.00072	6e-05
323.15	0.5619	0.00062	5e-05
323.15	0.6483	0.00055	4e-05
323.15	0.74	0.00047	4e-05
323.15	0.85	0.00038	3e-05
323.15	0.94	0.0003	3e-05
323.15	1	0.00025	2e-05

System: butan-2-ol + propanal; phases: Liquid
Fixed: Pressure, kPa = 100
Property: Mass density, kg/m3 (Liquid); method: Vibrating tube method
Temperature, K	Mole fraction of propanal	Mass density, kg/m3	uncertainty
293.15	0	806.7	1
293.15	0.0811	810.5	1
293.15	0.16	813.1	1
293.15	0.24	815.1	1
293.15	0.35	817	1
293.15	0.44	817.8	1
293.15	0.56	817.7	1
293.15	0.6499	816.7	1
293.15	0.7401	814.7	1
293.15	0.8501	810.8	1
293.15	0.9401	806.5	1
293.15	1	802.4	1
298.15	0	802.7	1
298.15	0.0811	806	1
298.15	0.16	808.4	1
298.15	0.24	810.3	1
298.15	0.35	811.8	1
298.15	0.44	812.3	1
298.15	0.56	811.8	1
298.15	0.6499	810.5	1
298.15	0.7401	808.4	1
298.15	0.8501	804.5	1
298.15	0.9401	800	1
298.15	1	796.2	1
303.15	0	798.4	1
303.15	0.0811	801.1	1
303.15	0.16	803.2	1
303.15	0.24	804.8	1
303.15	0.35	806	1
303.15	0.44	806.5	1
303.15	0.56	805.7	1
303.15	0.6499	804.3	1
303.15	0.7401	802	1
303.15	0.8501	798	1
303.15	0.9401	794	1
303.15	1	790.3	1
308.15	0	794.1	1
308.15	0.0811	796.4	1
308.15	0.16	798	1
308.15	0.24	799.4	1
308.15	0.35	800.3	1
308.15	0.44	800.4	1
308.15	0.56	799.5	1
308.15	0.6499	798.1	1
308.15	0.7401	795.9	1
308.15	0.8501	791.8	1
308.15	0.9401	788	1
308.15	1	784.5	1
313.15	0	789.8	1
313.15	0.0811	791.7	1
313.15	0.16	793	1
313.15	0.24	794	1
313.15	0.35	794.6	1
313.15	0.44	794.6	1
313.15	0.56	793.5	1
313.15	0.6499	792	1
313.15	0.7401	789.8	1
313.15	0.8501	786	1
313.15	0.9401	782.4	1
313.15	1	779	1
318.15	0	785.2	1
318.15	0.0811	786.8	1
318.15	0.16	787.9	1
318.15	0.24	788.6	1
318.15	0.35	789.1	1
318.15	0.44	788.8	1
318.15	0.56	787.6	1
318.15	0.6499	786.1	1
318.15	0.7401	783.8	1
318.15	0.8501	780	1
318.15	0.9401	776.5	1
318.15	1	773.5	1
323.15	0	780.6	1
323.15	0.0811	781.9	1
323.15	0.16	782.6	1
323.15	0.24	783.1	1
323.15	0.35	783.2	1
323.15	0.44	782.8	1
323.15	0.56	781.5	1
323.15	0.6499	779.8	1
323.15	0.7401	777.7	1
323.15	0.8501	774.3	1
323.15	0.9401	770.9	1
323.15	1	768.2	1

System: butan-2-ol + propanal; phases: Liquid
Fixed: Pressure, kPa = 100
Property: Viscosity, Pa*s (Liquid); method: Concentric cylinders viscometry
Temperature, K	Mole fraction of propanal	Viscosity, Pa*s	uncertainty
293.15	0	0.00367	0.00029
293.15	0.0811	0.00349	0.00028
293.15	0.16	0.00329	0.00026
293.15	0.24	0.00306	0.00025
293.15	0.35	0.00272	0.00022
293.15	0.44	0.00242	0.00019
293.15	0.56	0.002	0.00016
293.15	0.6499	0.00167	0.00013
293.15	0.7401	0.00134	0.00011
293.15	0.8501	0.00092	7e-05
293.15	0.9401	0.00058	5e-05
293.15	1	0.00034	3e-05
298.15	0	0.00304	0.00024
298.15	0.0811	0.00289	0.00023
298.15	0.16	0.00273	0.00022
298.15	0.24	0.00255	0.0002
298.15	0.35	0.00227	0.00018
298.15	0.44	0.00203	0.00016
298.15	0.56	0.00168	0.00014
298.15	0.6499	0.00141	0.00011
298.15	0.7401	0.00114	9e-05
298.15	0.8501	0.0008	6e-05
298.15	0.9401	0.00052	4e-05
298.15	1	0.00033	3e-05
303.15	0	0.00254	0.0002
303.15	0.0811	0.00241	0.00019
303.15	0.16	0.00227	0.00018
303.15	0.24	0.00212	0.00017
303.15	0.35	0.00189	0.00015
303.15	0.44	0.00169	0.00014
303.15	0.56	0.00141	0.00011
303.15	0.6499	0.00119	0.0001
303.15	0.7401	0.00097	8e-05
303.15	0.8501	0.00069	6e-05
303.15	0.9401	0.00046	4e-05
303.15	1	0.00031	3e-05
308.15	0	0.00213	0.00017
308.15	0.0811	0.00202	0.00016
308.15	0.16	0.0019	0.00015
308.15	0.24	0.00177	0.00014
308.15	0.35	0.00158	0.00013
308.15	0.44	0.00141	0.00011
308.15	0.56	0.00118	0.0001
308.15	0.6499	0.00101	8e-05
308.15	0.7401	0.00082	7e-05
308.15	0.8501	0.0006	5e-05
308.15	0.9401	0.00042	3e-05
308.15	1	0.0003	3e-05
313.15	0	0.0018	0.00014
313.15	0.0811	0.00171	0.00014
313.15	0.16	0.00161	0.00013
313.15	0.24	0.0015	0.0001
313.15	0.35	0.00134	0.00011
313.15	0.44	0.0012	0.0001
313.15	0.56	0.00101	8e-05
313.15	0.6499	0.00086	7e-05
313.15	0.7401	0.00072	6e-05
313.15	0.8501	0.00053	4e-05
313.15	0.9401	0.00038	3e-05
313.15	1	0.00028	2e-05
318.15	0	0.00154	0.00012
318.15	0.0811	0.00145	0.00012
318.15	0.16	0.00136	0.00011
318.15	0.24	0.00127	0.0001
318.15	0.35	0.00113	9e-05
318.15	0.44	0.00102	8e-05
318.15	0.56	0.00086	7e-05
318.15	0.6499	0.00074	6e-05
318.15	0.7401	0.00062	5e-05
318.15	0.8501	0.00047	4e-05
318.15	0.9401	0.00035	3e-05
318.15	1	0.00027	2e-05
323.15	0	0.00133	0.00011
323.15	0.0811	0.00125	0.0001
323.15	0.16	0.00117	9e-05
323.15	0.24	0.00109	9e-05
323.15	0.35	0.00097	8e-05
323.15	0.44	0.00087	7e-05
323.15	0.56	0.00074	6e-05
323.15	0.6499	0.00064	5e-05
323.15	0.7401	0.00054	4e-05
323.15	0.8501	0.00042	3e-05
323.15	0.9401	0.00032	3e-05
323.15	1	0.00025	2e-05

System: propanal + pentan-2-ol; phases: Liquid
Fixed: Pressure, kPa = 100
Property: Mass density, kg/m3 (Liquid); method: Vibrating tube method
Temperature, K	Mole fraction of propanal	Mass density, kg/m3	uncertainty
293.15	0	809.3	1
293.15	0.0809	811	1
293.15	0.1599	813.1	1
293.15	0.2402	814.7	1
293.15	0.35	816.4	1
293.15	0.44	817	1
293.15	0.5599	816.7	1
293.15	0.65	815.8	1
293.15	0.74	814.1	1
293.15	0.85	810.6	1
293.15	0.94	806.5	1
293.15	1	802.4	1
298.15	0	805.3	1
298.15	0.0809	806.6	1
298.15	0.1599	808	1
298.15	0.2402	809.2	1
298.15	0.35	809.9	1
298.15	0.44	810.2	1
298.15	0.5599	809.5	1
298.15	0.65	808.4	1
298.15	0.74	806.6	1
298.15	0.85	803.4	1
298.15	0.94	799.8	1
298.15	1	796.2	1
303.15	0	801.2	1
303.15	0.0809	802.1	1
303.15	0.1599	803.2	1
303.15	0.2402	804	1
303.15	0.35	804.5	1
303.15	0.44	804.4	1
303.15	0.5599	803.5	1
303.15	0.65	802.2	1
303.15	0.74	800.4	1
303.15	0.85	797.1	1
303.15	0.94	793.6	1
303.15	1	790.3	1
308.15	0	797	1
308.15	0.0809	797.7	1
308.15	0.1599	798.5	1
308.15	0.2402	798.9	1
308.15	0.35	799	1
308.15	0.44	798.7	1
308.15	0.5599	797.5	1
308.15	0.65	796.1	1
308.15	0.74	794.2	1
308.15	0.85	791	1
308.15	0.94	787.6	1
308.15	1	784.5	1
313.15	0	792.7	1
313.15	0.0809	793.1	1
313.15	0.1599	793.6	1
313.15	0.2402	793.9	1
313.15	0.35	793.8	1
313.15	0.44	793.3	1
313.15	0.5599	792	1
313.15	0.65	790.5	1
313.15	0.74	788.5	1
313.15	0.85	785.3	1
313.15	0.94	781.9	1
313.15	1	779	1
318.15	0	788.4	1
318.15	0.0809	788.6	1
318.15	0.1599	788.9	1
318.15	0.2402	789	1
318.15	0.35	788.7	1
318.15	0.44	788.1	1
318.15	0.5599	786.5	1
318.15	0.65	785	1
318.15	0.74	782.9	1
318.15	0.85	779.6	1
318.15	0.94	776.2	1
318.15	1	773.5	1
323.15	0	784	1
323.15	0.0809	783.9	1
323.15	0.1599	783.9	1
323.15	0.2402	783.5	1
323.15	0.35	782.7	1
323.15	0.44	781.8	1
323.15	0.5599	780.1	1
323.15	0.65	778.4	1
323.15	0.74	776.4	1
323.15	0.85	773.4	1
323.15	0.94	770.6	1
323.15	1	768.2	1

System: propanal + pentan-2-ol; phases: Liquid
Fixed: Pressure, kPa = 100
Property: Viscosity, Pa*s (Liquid); method: Concentric cylinders viscometry
Temperature, K	Mole fraction of propanal	Viscosity, Pa*s	uncertainty
293.15	0	0.00397	0.00032
293.15	0.0809	0.00375	0.0003
293.15	0.1599	0.00351	0.00028
293.15	0.2402	0.00325	0.00026
293.15	0.35	0.00287	0.00023
293.15	0.44	0.00254	0.0002
293.15	0.5599	0.00208	0.00017
293.15	0.65	0.00173	0.00014
293.15	0.74	0.00138	0.00011
293.15	0.85	0.00094	8e-05
293.15	0.94	0.00057	5e-05
293.15	1	0.00034	3e-05
298.15	0	0.00332	0.00027
298.15	0.0809	0.00311	0.00025
298.15	0.1599	0.00291	0.00023
298.15	0.2402	0.00271	0.00022
298.15	0.35	0.00242	0.00019
298.15	0.44	0.00215	0.00017
298.15	0.5599	0.00178	0.00014
298.15	0.65	0.00149	0.00012
298.15	0.74	0.0012	0.0001
298.15	0.85	0.00083	7e-05
298.15	0.94	0.00052	4e-05
298.15	1	0.00033	3e-05
303.15	0	0.00281	0.00023
303.15	0.0809	0.00264	0.00021
303.15	0.1599	0.00247	0.0002
303.15	0.2402	0.00229	0.00018
303.15	0.35	0.00204	0.00016
303.15	0.44	0.00182	0.00015
303.15	0.5599	0.00152	0.00012
303.15	0.65	0.00129	0.0001
303.15	0.74	0.00104	8e-05
303.15	0.85	0.00073	6e-05
303.15	0.94	0.00047	4e-05
303.15	1	0.00031	3e-05
308.15	0	0.00237	0.00019
308.15	0.0809	0.00224	0.00018
308.15	0.1599	0.00211	0.00017
308.15	0.2402	0.00196	0.00016
308.15	0.35	0.00174	0.00014
308.15	0.44	0.00155	0.00012
308.15	0.5599	0.00129	0.0001
308.15	0.65	0.0011	9e-05
308.15	0.74	0.00089	7e-05
308.15	0.85	0.00064	5e-05
308.15	0.94	0.00043	4e-05
308.15	1	0.0003	3e-05
313.15	0	0.00199	0.00016
313.15	0.0809	0.00188	0.00015
313.15	0.1599	0.00176	0.00014
313.15	0.2402	0.00163	0.00013
313.15	0.35	0.00145	0.00012
313.15	0.44	0.0013	0.0001
313.15	0.5599	0.00109	9e-05
313.15	0.65	0.00092	7e-05
313.15	0.74	0.00075	6e-05
313.15	0.85	0.00056	5e-05
313.15	0.94	0.00039	3e-05
313.15	1	0.00028	2e-05
318.15	0	0.00166	0.00013
318.15	0.0809	0.00155	0.00012
318.15	0.1599	0.00145	0.00012
318.15	0.2402	0.00134	0.00011
318.15	0.35	0.00119	0.0001
318.15	0.44	0.00107	9e-05
318.15	0.5599	0.0009	7e-05
318.15	0.65	0.00077	6e-05
318.15	0.74	0.00064	5e-05
318.15	0.85	0.00049	4e-05
318.15	0.94	0.00035	3e-05
318.15	1	0.00027	2e-05
323.15	0	0.00139	0.00011
323.15	0.0809	0.00129	0.0001
323.15	0.1599	0.0012	0.0001
323.15	0.2402	0.0011	9e-05
323.15	0.35	0.00097	8e-05
323.15	0.44	0.00087	7e-05
323.15	0.5599	0.00074	6e-05
323.15	0.65	0.00064	5e-05
323.15	0.74	0.00054	4e-05
323.15	0.85	0.00042	3e-05
323.15	0.94	0.00032	3e-05
323.15	1	0.00025	2e-05
