Measured thermophysical data. PVTx measurements and other derived volumetric properties of the binary ((1-propanol + n-pentane)) mixtures in the critical and supercritical regions
Source: J. Chem. Thermodyn., 2017, 10.1016/j.jct.2016.10.023
Compound 1: pentane, C5H12, InChI=1S/C5H12/c1-3-5-4-2/h3-5H2,1-2H3, purity 99.95%
Compound 2: propan-1-ol, C3H8O, InChI=1S/C3H8O/c1-2-3-4/h4H,2-3H2,1H3, purity 99.99%

System: propan-1-ol + pentane; phases: Gas
Property: Mass density, kg/m3 (Gas); method: Constant-volume piezometry
Mole fraction of pentane	Temperature, K	Pressure, kPa	Mass density, kg/m3	uncertainty
0.2	453.15	1255	25.01	0.08
0.2	463.15	1296	25	0.08
0.2	473.15	1339	24.99	0.08
0.2	483.15	1378	24.98	0.08
0.2	483.15	2571	53.11	0.16
0.2	493.15	1421	24.96	0.08
0.2	493.15	2706	53.08	0.16
0.2	503.15	1464	24.95	0.08
0.2	503.15	2838	53.06	0.17
0.2	503.15	3585	91.5	0.29
0.2	508.15	4020	114.44	0.37
0.2	513.15	1508	24.94	0.08
0.2	513.15	2974	53.03	0.17
0.2	513.15	3816	91.46	0.29
0.2	513.15	4165	114.41	0.4
0.2	514.15	4473	150.41	0.53
0.2	515.15	4522	150.4	0.49
0.2	523.15	1549	24.93	0.08
0.2	523.15	3111	53.01	0.17
0.2	523.15	4037	91.41	0.29
0.2	523.15	4459	114.35	0.39
0.2	533.15	1590	24.92	0.08
0.2	533.15	3245	52.98	0.17
0.2	533.15	4255	91.37	0.29
0.2	533.15	4745	114.3	0.36
0.2	543.15	1634	24.9	0.08
0.2	543.15	3378	52.95	0.16
0.2	543.15	4468	91.32	0.29
0.2	553.15	1675	24.89	0.08
0.2	553.15	3511	52.93	0.16
0.2	553.15	4680	91.28	0.29
0.2	563.15	1719	24.88	0.08
0.2	563.15	3644	52.9	0.16
0.2	573.15	1761	24.87	0.08
0.2	573.15	3774	52.88	0.16
0.5	414.15	712	15.6	0.05
0.5	415.15	715	15.6	0.05
0.5	423.15	737	15.59	0.05
0.5	433.15	760	15.59	0.05
0.5	438.15	1323	30.1	0.09
0.5	443.15	781	15.58	0.05
0.5	443.15	1353	30.1	0.09
0.5	447.15	1740	40.63	0.13
0.5	448.15	1748	40.63	0.12
0.5	453.15	804	15.57	0.05
0.5	453.15	1405	30.08	0.09
0.5	453.15	1789	40.62	0.13
0.5	453.15	2048	51.26	0.16
0.5	455.15	2058	51.26	0.16
0.5	463.15	825	15.56	0.05
0.5	463.15	1450	30.07	0.09
0.5	463.15	1866	40.6	0.13
0.5	463.15	2150	51.24	0.16
0.5	468.15	2722	72.79	0.23
0.5	470.15	2757	72.78	0.23
0.5	473.15	846	15.56	0.05
0.5	473.15	1500	30.05	0.09
0.5	473.15	1943	40.58	0.13
0.5	473.15	2238	51.21	0.16
0.5	473.15	2703	67.68	0.21
0.5	473.15	2808	72.77	0.23
0.5	478.15	3181	89.1	0.28
0.5	480.15	3218	89.09	0.28
0.5	483.15	867	15.55	0.05
0.5	483.15	1547	30.04	0.09
0.5	483.15	2012	40.56	0.13
0.5	483.15	2335	51.19	0.16
0.5	483.15	2845	67.65	0.21
0.5	483.15	2963	72.74	0.23
0.5	483.15	3273	89.08	0.28
0.5	483.15	3361	96.03	0.32
0.5	484.15	3395	96.03	0.31
0.5	485.15	3427	96.02	0.32
0.5	486.15	3456	96.02	0.33
0.5	487.15	3750	122.1	0.41
0.5	488.15	3498	96.01	0.34
0.5	488.15	3783	122.1	0.41
0.5	489.15	3815	122.09	0.42
0.5	491.15	4012	144.34	0.49
0.5	492.15	4052	144.33	0.56
0.5	492.15	4112	154.72	0.62
0.5	493.15	888	15.54	0.05
0.5	493.15	1591	30.02	0.09
0.5	493.15	2098	40.54	0.13
0.5	493.15	2429	51.17	0.16
0.5	493.15	2984	67.61	0.21
0.5	493.15	3148	72.7	0.23
0.5	493.15	3462	89.03	0.29
0.5	493.15	3598	95.98	0.32
0.5	493.15	3941	122.07	0.41
0.5	493.15	4087	144.32	0.53
0.5	493.15	4161	154.71	0.57
0.5	493.15	4227	165.38	0.75
0.5	493.15	4263	183.12	1.19
0.5	494.15	4206	154.71	0.71
0.5	494.15	4318	183.11	0.78
0.5	503.15	912	15.53	0.05
0.5	503.15	1642	30.01	0.09
0.5	503.15	2163	40.52	0.13
0.5	503.15	2523	51.14	0.16
0.5	503.15	3137	67.58	0.21
0.5	503.15	3305	72.67	0.23
0.5	503.15	3654	88.99	0.28
0.5	503.15	3800	95.94	0.31
0.5	503.15	4247	122.01	0.43
0.5	513.15	933	15.53	0.05
0.5	513.15	1686	30	0.09
0.5	513.15	2226	40.51	0.12
0.5	513.15	2615	51.12	0.16
0.5	513.15	3284	67.55	0.21
0.5	513.15	3462	72.63	0.23
0.5	513.15	3844	88.95	0.28
0.5	513.15	4033	95.89	0.33
0.5	523.15	954	15.52	0.05
0.5	523.15	1732	29.98	0.09
0.5	523.15	2284	40.49	0.12
0.5	523.15	2704	51.09	0.16
0.5	523.15	3416	67.52	0.21
0.5	523.15	3614	72.6	0.23
0.5	523.15	4041	88.91	0.28
0.5	523.15	4261	95.85	0.3
0.8	403.15	905	22.65	0.07
0.8	413.15	944	22.64	0.07
0.8	416.15	1374	36.88	0.11
0.8	423.15	982	22.63	0.07
0.8	423.15	1418	36.86	0.11
0.8	433.15	1023	22.62	0.07
0.8	433.15	1472	36.85	0.11
0.8	437.15	2040	58.65	0.18
0.8	438.15	2052	58.65	0.18
0.8	443.15	1062	22.61	0.07
0.8	443.15	1529	36.83	0.11
0.8	443.15	2108	58.64	0.18
0.8	446.15	2393	74.06	0.23
0.8	453.15	1101	22.6	0.07
0.8	453.15	1584	36.81	0.11
0.8	453.15	2206	58.61	0.18
0.8	453.15	2494	74.04	0.23
0.8	461.15	3036	106.72	0.34
0.8	463.15	1134	22.59	0.07
0.8	463.15	1641	36.79	0.11
0.8	463.15	2308	58.58	0.18
0.8	463.15	2637	74	0.24
0.8	463.15	3080	106.71	0.34
0.8	473.15	1166	22.58	0.07
0.8	473.15	1696	36.78	0.11
0.8	473.15	2408	58.55	0.18
0.8	473.15	2775	73.97	0.24
0.8	473.15	3309	106.65	0.35
0.8	473.15	3592	140.64	0.48
0.8	483.15	1195	22.57	0.07
0.8	483.15	1753	36.76	0.11
0.8	483.15	2505	58.52	0.18
0.8	483.15	2913	73.93	0.23
0.8	483.15	3529	106.6	0.35
0.8	493.15	1226	22.56	0.07
0.8	493.15	1810	36.74	0.11
0.8	493.15	2601	58.5	0.18
0.8	493.15	3042	73.9	0.23
0.8	493.15	3742	106.55	0.34
0.8	503.15	1255	22.55	0.07
0.8	503.15	1866	36.72	0.11
0.8	503.15	2701	58.47	0.18
0.8	503.15	3169	73.86	0.23
0.8	513.15	1283	22.54	0.07
0.8	513.15	1923	36.71	0.11
0.8	513.15	2796	58.44	0.18
0.8	513.15	3295	73.83	0.23
0.8	523.15	1314	22.52	0.07
0.8	523.15	1978	36.69	0.11
0.8	523.15	2890	58.41	0.18
0.8	523.15	3421	73.79	0.23
0.8	533.15	1342	22.51	0.07
0.8	533.15	2034	36.67	0.11
0.8	533.15	2979	58.39	0.18
0.8	533.15	3545	73.76	0.23
0.8	543.15	1370	22.5	0.07
0.8	543.15	2088	36.65	0.11
0.8	543.15	3070	58.36	0.18
0.8	543.15	3671	73.72	0.23
0.8	553.15	1401	22.49	0.07
0.8	553.15	2144	36.64	0.11
0.8	553.15	3159	58.33	0.18
0.8	553.15	3789	73.69	0.23
0.8	563.15	1429	22.48	0.07
0.8	563.15	2200	36.62	0.11
0.8	563.15	3253	58.3	0.18
0.8	573.15	1455	22.47	0.07
0.8	573.15	2249	36.6	0.11
0.8	573.15	3350	58.27	0.18
0.9	451.15	2529	83.67	0.29
0.9	452.15	2545	83.66	0.29
0.9	453.15	2562	83.66	0.29
0.9	463.15	2727	83.62	0.29
0.9	465.15	3139	123.69	0.41
0.9	466.15	3167	123.69	0.41
0.9	468.15	3224	123.67	0.46
0.9	469.15	3297	134.47	0.56
0.9	473.15	2888	83.58	0.28
0.9	473.15	3414	134.44	0.6
0.9	473.15	3349	123.64	0.38
0.9	473.15	3511	164.35	0.84
0.9	473.15	3553	189.91	1.36
0.9	473.15	3564	202.87	3.2
0.9	473.15	3570	221.23	3.36
0.9	483.15	3039	83.54	0.45
0.9	493.15	3184	83.5	0.26
0.9	503.15	3338	83.46	0.26
0.9	513.15	3488	83.42	0.26

System: propan-1-ol + pentane; phases: Liquid
Property: Mass density, kg/m3 (Liquid); method: Constant-volume piezometry
Mole fraction of pentane	Temperature, K	Pressure, kPa	Mass density, kg/m3	uncertainty
0.2	383.15	1487	663.69	1.33
0.2	393.15	8491	663.21	1.33
0.2	403.15	15313	662.74	1.34
0.2	403.15	4306	640.49	1.29
0.2	413.15	22059	662.26	1.34
0.2	413.15	10612	640.04	1.29
0.2	416.15	1229	618.66	1.24
0.2	423.15	28950	661.79	1.35
0.2	423.15	16915	639.59	1.3
0.2	423.15	4884	618.37	1.25
0.2	433.15	36095	661.31	1.36
0.2	433.15	23135	639.15	1.3
0.2	433.15	10196	617.96	1.25
0.2	433.15	3158	598.39	1.2
0.2	440.15	2121	584.41	1.18
0.2	443.15	43094	660.83	1.37
0.2	443.15	29321	638.71	1.31
0.2	443.15	15549	617.55	1.25
0.2	443.15	7864	598.01	1.21
0.2	443.15	3419	584.3	1.18
0.2	453.15	34516	638.29	1.31
0.2	453.15	21030	617.14	1.26
0.2	453.15	12785	597.62	1.21
0.2	453.15	7807	583.93	1.18
0.2	459.15	2107	549.17	1.11
0.2	459.25	2109	549.17	1.11
0.2	460.15	2449	549.14	1.11
0.2	463.15	41859	637.82	1.32
0.2	463.15	26488	616.73	1.26
0.2	463.15	17686	597.23	1.21
0.2	463.15	12276	583.56	1.18
0.2	463.15	3523	549.04	1.11
0.2	473.15	32094	616.32	1.27
0.2	473.15	22686	596.85	1.22
0.2	473.15	16852	583.19	1.19
0.2	473.15	7219	548.71	1.11
0.2	477.15	3017	510.96	1.03
0.2	483.15	37683	615.9	1.27
0.2	483.15	27685	596.46	1.22
0.2	483.15	21392	582.82	1.19
0.2	483.15	10899	548.38	1.11
0.2	483.15	4807	510.78	1.03
0.2	490.15	3453	471.25	0.96
0.2	493.15	43289	615.49	1.28
0.2	493.15	32782	596.07	1.23
0.2	493.15	26040	582.45	1.2
0.2	493.15	14598	548.05	1.12
0.2	493.15	7649	510.49	1.04
0.2	493.15	4129	471.17	0.96
0.2	503.15	37782	595.68	1.24
0.2	503.15	30587	582.08	1.2
0.2	503.15	18302	547.72	1.12
0.2	503.15	10609	510.19	1.04
0.2	503.15	6413	470.91	0.96
0.2	503.15	4150	419.16	0.86
0.2	504.15	4315	419.14	0.86
0.2	508.15	4961	419.05	0.85
0.2	510.15	4548	383.7	0.78
0.2	511.15	4773	391.53	0.8
0.2	513.15	42801	595.3	1.24
0.2	513.15	35193	581.71	1.21
0.2	513.15	22117	547.38	1.12
0.2	513.15	13550	509.9	1.04
0.2	513.15	8766	470.65	0.96
0.2	513.15	5792	418.94	0.86
0.2	513.15	5068	391.49	0.83
0.2	513.15	4968	383.64	0.8
0.2	513.15	4865	378.83	0.86
0.2	513.15	4703	350.76	0.87
0.2	514.15	4795	350.74	0.76
0.2	514.15	4778	341.42	0.76
0.5	323.15	3447	663.38	1.33
0.5	333.15	9686	662.92	1.33
0.5	343.15	16000	662.46	1.33
0.5	351.15	441	631.49	1.27
0.5	353.15	1647	631.4	1.27
0.5	353.15	22340	661.99	1.34
0.5	363.15	7726	630.97	1.27
0.5	363.15	28606	661.53	1.34
0.5	373.15	3137	611.68	1.23
0.5	373.15	13490	630.54	1.27
0.5	373.15	34882	661.07	1.35
0.5	378.15	5874	611.47	1.23
0.5	383.15	4567	602.79	1.21
0.5	383.15	8687	611.26	1.23
0.5	383.15	19194	630.11	1.27
0.5	384.15	1047	592.01	1.19
0.5	393.15	941	579.06	1.16
0.5	393.15	5707	591.66	1.19
0.5	393.15	10012	602.39	1.21
0.5	393.15	14096	610.86	1.23
0.5	393.15	25038	629.68	1.28
0.5	403.15	5622	578.69	1.16
0.5	403.15	10647	591.27	1.19
0.5	403.15	15471	601.98	1.22
0.5	403.15	19586	610.45	1.24
0.5	403.15	30841	629.25	1.28
0.5	413.15	2137	551.89	1.11
0.5	413.15	10313	578.32	1.17
0.5	413.15	15843	590.88	1.2
0.5	413.15	21025	601.58	1.22
0.5	413.15	24988	610.04	1.24
0.5	413.15	36585	628.82	1.29
0.5	423.15	5815	551.55	1.11
0.5	423.15	14921	577.95	1.17
0.5	423.15	20842	590.5	1.2
0.5	423.15	26392	601.18	1.22
0.5	423.15	30447	609.63	1.25
0.5	432.15	2018	522.19	1.05
0.5	433.15	2403	522.16	1.05
0.5	433.15	9460	551.22	1.11
0.5	433.15	19645	577.58	1.17
0.5	433.15	26095	590.11	1.2
0.5	433.15	31893	600.78	1.23
0.5	433.15	35839	609.23	1.25
0.5	438.15	2515	509.1	1.03
0.5	443.15	4067	508.96	1.03
0.5	443.15	5776	521.85	1.05
0.5	443.15	13293	550.88	1.12
0.5	443.15	24271	577.21	1.18
0.5	443.15	31113	589.73	1.21
0.5	443.15	37375	600.38	1.24
0.5	453.15	7204	508.66	1.03
0.5	453.15	9366	521.54	1.05
0.5	453.15	17282	550.54	1.12
0.5	453.15	28840	576.84	1.18
0.5	455.15	2617	469.97	0.95
0.5	463.15	3075	452.77	0.91
0.5	463.15	3571	459.88	0.93
0.5	463.15	4516	469.76	0.95
0.5	463.15	10451	508.36	1.03
0.5	463.15	12696	521.23	1.06
0.5	463.15	20989	550.21	1.12
0.5	463.15	33534	576.47	1.19
0.5	468.15	3337	442.3	0.89
0.5	473.15	3339	418.35	0.85
0.5	473.15	4349	442.18	0.9
0.5	473.15	5156	452.53	0.92
0.5	473.15	5785	459.62	0.93
0.5	473.15	6942	469.49	0.95
0.5	473.15	13549	508.06	1.03
0.5	473.15	16233	520.92	1.06
0.5	473.15	24900	549.88	1.13
0.5	473.15	38268	576.1	1.19
0.5	474.15	3452	418.33	0.85
0.5	474.15	3457	418.33	0.85
0.5	475.15	3641	418.31	0.85
0.5	478.15	3700	399.08	0.81
0.5	482.15	3886	384.8	0.78
0.5	483.15	3927	373.66	0.76
0.5	483.15	4026	384.78	0.79
0.5	483.15	4437	398.98	0.82
0.5	483.15	5017	418.13	0.85
0.5	483.15	6347	441.94	0.9
0.5	483.15	7296	452.28	0.92
0.5	483.15	8060	459.37	0.93
0.5	483.15	9371	469.23	0.95
0.5	483.15	16725	507.77	1.03
0.5	483.15	19754	520.6	1.06
0.5	483.15	28654	549.54	1.13
0.5	487.15	4130	345.19	0.72
0.5	488.15	4237	345.17	0.72
0.5	488.15	4237	345.17	0.72
0.5	489.15	4203	325.83	0.68
0.8	308.15	2402	630.94	1.26
0.8	313.15	157	623.55	1.25
0.8	313.15	6022	630.7	1.26
0.8	314.15	765	623.51	1.25
0.8	318.15	3615	623.33	1.25
0.8	323.15	7107	623.1	1.25
0.8	323.15	13373	630.24	1.27
0.8	325.15	801	611.01	1.22
0.8	333.15	5935	610.66	1.22
0.8	333.15	14195	622.65	1.25
0.8	333.15	20785	629.77	1.27
0.8	335.15	769	600.98	1.2
0.8	338.15	2550	600.85	1.2
0.8	343.15	5592	600.65	1.2
0.8	343.15	12414	610.23	1.23
0.8	343.15	21183	622.2	1.26
0.8	343.15	28234	629.31	1.27
0.8	353.15	11601	600.23	1.21
0.8	353.15	18747	609.8	1.23
0.8	353.15	28151	621.75	1.26
0.8	353.15	35636	628.84	1.28
0.8	355.15	1219	575.84	1.15
0.8	358.15	2713	575.73	1.15
0.8	363.15	5237	575.54	1.16
0.8	363.15	17738	599.81	1.21
0.8	363.15	25314	609.37	1.23
0.8	363.15	35183	621.29	1.27
0.8	363.15	42979	628.38	1.29
0.8	372.65	854	553.36	1.11
0.8	373.15	1058	553.35	1.11
0.8	373.15	10414	575.16	1.16
0.8	373.15	23787	599.4	1.21
0.8	373.15	31687	608.94	1.24
0.8	373.15	42247	620.84	1.27
0.8	383.15	5590	552.99	1.11
0.8	383.15	15678	574.78	1.16
0.8	383.15	29885	598.99	1.22
0.8	383.15	38107	608.51	1.24
0.8	393.15	10151	552.64	1.11
0.8	393.15	20747	574.4	1.16
0.8	393.15	36012	598.57	1.22
0.8	393.15	44637	608.08	1.25
0.8	395.15	1157	524.69	1.05
0.8	398.15	2324	524.59	1.05
0.8	403.15	4215	524.43	1.05
0.8	403.15	14687	552.29	1.12
0.8	403.15	25962	574.02	1.17
0.8	403.15	42147	598.16	1.23
0.8	413.15	2268	499.34	1
0.8	413.15	7884	524.12	1.06
0.8	413.15	19245	551.94	1.12
0.8	413.15	31136	573.65	1.17
0.8	423.15	5404	499.05	1.01
0.8	423.15	11608	523.8	1.06
0.8	423.15	23598	551.59	1.12
0.8	423.15	36411	573.27	1.18
0.8	426.15	1900	469.29	0.94
0.8	426.15	1900	469.29	0.94
0.8	433.15	3619	469.11	0.95
0.8	433.15	8493	498.76	1.01
0.8	433.15	15352	523.48	1.06
0.8	433.15	28096	551.24	1.13
0.8	433.15	41420	572.89	1.18
0.8	443.15	6119	468.84	0.95
0.8	443.15	11620	498.47	1.01
0.8	443.15	19116	523.16	1.06
0.8	443.15	32587	550.89	1.13
0.8	448.15	2624	419.92	0.85
0.8	449.15	2796	419.9	0.85
0.8	453.15	3511	419.81	0.85
0.8	453.15	8728	468.58	0.95
0.8	453.15	14688	498.18	1.01
0.8	453.15	22882	522.84	1.07
0.8	453.15	37125	550.54	1.13
0.8	463.15	5310	419.58	0.85
0.8	463.15	11344	468.31	0.95
0.8	463.15	17835	497.88	1.01
0.8	463.15	26685	522.53	1.07
0.8	463.15	41577	550.2	1.14
0.8	468.15	3480	346.36	0.71
0.8	468.15	3796	362.98	0.74
0.8	469.15	3585	346.34	0.71
0.8	473.15	3767	311.76	0.65
0.8	473.15	3769	312.18	0.65
0.8	473.15	3862	334.71	0.8
0.8	473.15	4019	346.27	0.73
0.8	473.15	4439	362.89	0.74
0.8	473.15	7120	419.36	0.85
0.8	473.15	13806	468.05	0.95
0.8	473.15	20923	497.59	1.02
0.8	473.15	30448	522.21	1.07
0.8	474.15	3855	311.75	0.71
0.8	474.15	3858	312.16	0.71
0.8	475.15	3944	312.15	0.66
0.9	448.15	2548	408.95	0.83
0.9	453.15	3375	408.84	0.83
0.9	463.15	3117	355.23	0.72
0.9	463.15	5052	408.62	0.83
0.9	463.15	5048	408.62	0.83
0.9	464.15	3225	355.21	0.73
0.9	470.15	3441	310.06	0.71
0.9	470.15	3577	332	0.76

System: propan-1-ol + pentane; phases: Fluid (supercritical or subcritical phases)
Property: Mass density, kg/m3 (Fluid (supercritical or subcritical phases)); method: Constant-volume piezometry
Mole fraction of pentane	Temperature, K	Pressure, kPa	Mass density, kg/m3	uncertainty
0.2	513.15	13550	509.9	2.56
0.2	513.15	5068	391.49	1.99
0.2	515.15	4818	318.9	2.73
0.2	515.15	4645	175.68	2.24
0.2	516.15	4909	318.89	2.38
0.2	516.15	4877	311.17	1.6
0.2	516.15	4872	306.93	1.58
0.2	516.15	4852	290.64	2.04
0.2	516.15	4838	272.45	2.21
0.2	517.15	4958	306.92	2.52
0.2	517.15	4912	272.44	2.07
0.2	518.15	5010	290.61	2.08
0.2	518.15	4994	272.43	1.92
0.2	518.15	4965	259.26	1.87
0.2	518.15	4877	220.15	1.77
0.2	523.15	39812	581.35	2.93
0.2	523.15	25897	547.05	2.75
0.2	523.15	16569	509.61	2.56
0.2	523.15	11137	470.39	2.36
0.2	523.15	7577	418.71	2.1
0.2	523.15	6560	391.28	1.97
0.2	523.15	6339	383.45	1.93
0.2	523.15	6242	378.64	1.91
0.2	523.15	5731	344.05	1.77
0.2	523.15	5707	341.26	1.76
0.2	523.15	5551	318.77	1.68
0.2	523.15	5508	311.06	1.65
0.2	523.15	5483	306.83	1.63
0.2	523.15	5423	290.54	1.56
0.2	523.15	5364	272.36	1.45
0.2	523.15	5343	262.9	1.4
0.2	523.15	5328	259.2	1.38
0.2	523.15	5292	245.47	1.34
0.2	523.15	5208	220.1	1.22
0.2	523.15	5108	189.64	1.13
0.2	523.15	5043	175.61	1.11
0.2	523.15	4864	150.34	0.83
0.2	523.15	4459	114.35	0.68
0.2	533.15	44516	580.98	2.93
0.2	533.15	29696	546.72	2.75
0.2	533.15	19667	509.31	2.56
0.2	533.15	13530	470.12	2.36
0.2	533.15	9374	418.49	2.1
0.2	533.15	8098	391.08	1.97
0.2	533.15	7786	383.24	1.93
0.2	533.15	7629	378.44	1.91
0.2	533.15	6879	343.88	1.74
0.2	533.15	6844	341.09	1.72
0.2	533.15	6550	318.61	1.63
0.2	533.15	6463	310.9	1.59
0.2	533.15	6426	306.67	1.58
0.2	533.15	6285	290.39	1.51
0.2	533.15	6162	272.22	1.46
0.2	533.15	6109	262.77	1.42
0.2	533.15	6078	259.07	1.39
0.2	533.15	5993	245.35	1.35
0.2	533.15	5833	219.99	1.13
0.2	533.15	5638	189.54	1.09
0.2	533.15	5541	175.53	1.04
0.2	533.15	5281	150.27	0.76
0.2	543.15	49093	580.61	2.93
0.2	543.15	33595	546.39	2.75
0.2	543.15	22804	509.01	2.56
0.2	543.15	15943	469.86	2.36
0.2	543.15	11177	418.27	2.1
0.2	543.15	9589	390.87	1.97
0.2	543.15	9255	383.04	1.92
0.2	543.15	9051	378.24	1.9
0.2	543.15	8042	343.7	1.73
0.2	543.15	7964	340.91	1.71
0.2	543.15	7511	318.45	1.61
0.2	543.15	7419	310.74	1.58
0.2	543.15	7363	306.52	1.56
0.2	543.15	7154	290.25	1.48
0.2	543.15	6963	272.09	1.41
0.2	543.15	6875	262.64	1.35
0.2	543.15	6834	258.94	1.33
0.2	543.15	6716	245.23	1.3
0.2	543.15	6471	219.88	1.15
0.2	543.15	6187	189.45	0.98
0.2	543.15	6026	175.44	0.92
0.2	543.15	5679	150.2	0.77
0.2	543.15	5031	114.24	0.59
0.2	553.15	37494	546.06	2.75
0.2	553.15	25921	508.72	2.56
0.2	553.15	18451	469.6	2.36
0.2	553.15	13032	418.04	2.1
0.2	553.15	11147	390.67	1.96
0.2	553.15	10735	382.84	1.92
0.2	553.15	10491	378.05	1.9
0.2	553.15	9236	343.52	1.73
0.2	553.15	9164	340.74	1.72
0.2	553.15	8538	318.29	1.61
0.2	553.15	8384	310.58	1.57
0.2	553.15	8323	306.36	1.56
0.2	553.15	8057	290.1	1.48
0.2	553.15	7792	271.95	1.39
0.2	553.15	7669	262.51	1.35
0.2	553.15	7620	258.81	1.33
0.2	553.15	7439	245.11	1.26
0.2	553.15	7102	219.77	1.14
0.2	553.15	6714	189.36	0.97
0.2	553.15	6521	175.35	0.91
0.2	553.15	6100	150.13	0.77
0.2	553.15	5319	114.19	0.59
0.2	563.15	41493	545.72	2.75
0.2	563.15	29039	508.42	2.56
0.2	563.15	20883	469.34	2.36
0.2	563.15	14845	417.82	2.1
0.2	563.15	12687	390.46	1.96
0.2	563.15	12196	382.64	1.92
0.2	563.15	11942	377.85	1.9
0.2	563.15	10433	343.35	1.73
0.2	563.15	10334	340.56	1.72
0.2	563.15	9613	318.13	1.6
0.2	563.15	9393	310.43	1.57
0.2	563.15	9294	306.21	1.55
0.2	563.15	8945	289.96	1.47
0.2	563.15	8609	271.82	1.39
0.2	563.15	8439	262.38	1.34
0.2	563.15	8376	258.68	1.32
0.2	563.15	8148	244.99	1.26
0.2	563.15	7718	219.66	1.13
0.2	563.15	7244	189.26	0.98
0.2	563.15	6993	175.27	0.9
0.2	563.15	6504	150.05	0.77
0.2	563.15	5594	114.13	0.58
0.2	563.15	4893	91.24	0.46
0.2	573.15	32252	508.13	2.56
0.2	573.15	23293	469.08	2.36
0.2	573.15	16662	417.59	2.1
0.2	573.15	14284	390.25	1.96
0.2	573.15	13687	382.44	1.92
0.2	573.15	13392	377.65	1.9
0.2	573.15	11654	343.17	1.73
0.2	573.15	11531	340.39	1.71
0.2	573.15	10713	317.97	1.6
0.2	573.15	10392	310.27	1.56
0.2	573.15	10272	306.05	1.55
0.2	573.15	9864	289.81	1.47
0.2	573.15	9432	271.68	1.38
0.2	573.15	9211	262.25	1.33
0.2	573.15	9138	258.55	1.32
0.2	573.15	8859	244.86	1.25
0.2	573.15	8351	219.55	1.12
0.2	573.15	7755	189.17	0.97
0.2	573.15	7491	175.18	0.9
0.2	573.15	6909	149.98	0.76
0.2	573.15	5856	114.08	0.58
0.2	573.15	5099	91.19	0.46
0.5	493.15	4335	282.8	1.57
0.5	493.15	4414	299.12	1.65
0.5	493.15	4549	320.48	1.76
0.5	493.15	4592	325.77	1.67
0.5	493.15	4776	345.09	1.75
0.5	493.15	5207	373.47	1.89
0.5	493.15	5953	398.77	2
0.5	493.15	6775	417.91	2.1
0.5	493.15	8441	441.69	2.21
0.5	493.15	9382	452.03	2.27
0.5	493.15	11783	468.97	2.35
0.5	493.15	23193	520.3	2.61
0.5	493.15	32486	549.21	2.76
0.5	494.15	4366	251.05	1.27
0.5	498.15	4515	183.07	1.06
0.5	498.15	4637	251	1.48
0.5	498.15	4641	260.06	1.59
0.5	503.15	4247	122.01	0.68
0.5	503.15	4466	144.25	0.77
0.5	503.15	4573	154.64	0.82
0.5	503.15	4653	165.3	0.89
0.5	503.15	4764	183.03	0.99
0.5	503.15	4821	200.59	1.09
0.5	503.15	4864	210.43	1.12
0.5	503.15	4895	224.27	1.21
0.5	503.15	4956	241.74	1.3
0.5	503.15	4976	250.94	1.34
0.5	503.15	4993	260	1.38
0.5	503.15	5023	270.83	1.42
0.5	503.15	5099	282.66	1.48
0.5	503.15	5246	298.97	1.55
0.5	503.15	5510	320.32	1.65
0.5	503.15	5579	325.6	1.66
0.5	503.15	5864	344.91	1.74
0.5	503.15	6490	373.27	1.87
0.5	503.15	7481	398.56	2
0.5	503.15	8559	417.68	2.09
0.5	503.15	10489	441.45	2.21
0.5	503.15	11537	451.78	2.27
0.5	503.15	14223	468.71	2.35
0.5	503.15	26707	519.99	2.61
0.5	513.15	4567	121.95	1.08
0.5	513.15	4837	144.18	0.99
0.5	513.15	4968	154.56	1.16
0.5	513.15	5086	165.22	0.84
0.5	513.15	5255	182.94	0.95
0.5	513.15	5373	200.49	1.12
0.5	513.15	5432	210.33	1.08
0.5	513.15	5506	224.16	1.15
0.5	513.15	5598	241.62	1.23
0.5	513.15	5618	250.82	1.3
0.5	513.15	5677	259.87	1.31
0.5	513.15	5746	270.69	1.38
0.5	513.15	5858	282.52	1.42
0.5	513.15	6090	298.82	1.5
0.5	513.15	6470	320.16	1.61
0.5	513.15	6559	325.44	1.63
0.5	513.15	6962	344.73	1.73
0.5	513.15	7785	373.08	1.87
0.5	513.15	8986	398.35	2
0.5	513.15	10333	417.46	2.09
0.5	513.15	12509	441.21	2.21
0.5	513.15	13634	451.54	2.26
0.5	513.15	16655	468.45	2.35
0.5	513.15	30101	519.68	2.61
0.5	523.15	4871	121.89	0.63
0.5	523.15	5206	144.11	0.75
0.5	523.15	5359	154.49	0.8
0.5	523.15	5518	165.14	0.88
0.5	523.15	5707	182.85	0.94
0.5	523.15	5913	200.39	1.01
0.5	523.15	6011	210.22	1.44
0.5	523.15	6117	224.05	1.5
0.5	523.15	6235	241.5	1.31
0.5	523.15	6294	250.69	1.35
0.5	523.15	6353	259.74	1.32
0.5	523.15	6480	270.56	1.45
0.5	523.15	6628	282.38	1.42
0.5	523.15	6923	298.67	1.5
0.5	523.15	7431	320	1.77
0.5	523.15	7549	325.27	1.8
0.5	523.15	8097	344.56	1.73
0.5	523.15	9070	372.89	1.87
0.5	523.15	10494	398.14	2
0.5	523.15	12130	417.24	2.09
0.5	523.15	14557	440.97	2.21
0.5	523.15	15764	451.29	2.26
0.5	523.15	19192	468.18	2.35
0.5	523.15	33702	519.37	2.61
0.8	473.15	3689	316.17	1.62
0.8	478.15	3850	214.32	1.68
0.8	478.15	3857	220.1	1.66
0.8	478.15	3944	273.15	1.9
0.8	480.15	3965	220.08	1.16
0.8	483.15	3917	140.58	1.03
0.8	483.15	3981	156.35	1.03
0.8	483.15	4033	170.11	1.05
0.8	483.15	4053	176.37	1.09
0.8	483.15	4071	181.18	1.1
0.8	483.15	4106	193.54	1.14
0.8	483.15	4162	214.27	1.23
0.8	483.15	4179	220.05	1.26
0.8	483.15	4211	235.17	1.32
0.8	483.15	4239	245.83	1.34
0.8	483.15	4277	259.08	1.41
0.8	483.15	4317	273.08	1.46
0.8	483.15	4417	288.96	1.52
0.8	483.15	4493	299.8	1.55
0.8	483.15	4646	316.01	1.61
0.8	483.15	4915	334.54	1.69
0.8	483.15	5178	346.09	1.74
0.8	483.15	5641	362.7	1.82
0.8	483.15	8984	419.13	2.1
0.8	483.15	16393	467.78	2.35
0.8	483.15	24098	497.3	2.5
0.8	483.15	34153	521.9	2.62
0.8	493.15	4237	140.51	0.71
0.8	493.15	4335	156.27	0.87
0.8	493.15	4423	170.03	1
0.8	493.15	4462	176.28	0.95
0.8	493.15	4502	181.09	1.01
0.8	493.15	4547	193.44	1.02
0.8	493.15	4679	214.17	1.15
0.8	493.15	4710	219.94	1.17
0.8	493.15	4810	235.05	1.23
0.8	493.15	4875	245.71	1.26
0.8	493.15	4935	258.95	1.41
0.8	493.15	5042	272.94	1.46
0.8	493.15	5149	288.82	1.5
0.8	493.15	5306	299.65	1.51
0.8	493.15	5594	315.85	1.59
0.8	493.15	5998	334.37	1.68
0.8	493.15	6296	345.91	1.74
0.8	493.15	7003	362.51	1.82
0.8	493.15	10826	418.91	2.1
0.8	493.15	18923	467.52	2.35
0.8	493.15	27225	497.01	2.5
0.8	493.15	37919	521.58	2.62
0.8	503.15	3948	106.5	0.54
0.8	503.15	4546	140.44	0.76
0.8	503.15	4689	156.19	0.83
0.8	503.15	4818	169.95	0.91
0.8	503.15	4865	176.2	0.93
0.8	503.15	4924	181	0.96
0.8	503.15	5013	193.35	1.01
0.8	503.15	5187	214.06	1.11
0.8	503.15	5234	219.83	1.16
0.8	503.15	5390	234.94	1.23
0.8	503.15	5482	245.58	1.24
0.8	503.15	5611	258.82	1.35
0.8	503.15	5797	272.8	1.38
0.8	503.15	5980	288.67	1.47
0.8	503.15	6149	299.5	1.5
0.8	503.15	6551	315.69	1.59
0.8	503.15	7052	334.2	1.68
0.8	503.15	7423	345.74	1.74
0.8	503.15	8266	362.32	1.82
0.8	503.15	12689	418.68	2.1
0.8	503.15	21559	467.26	2.35
0.8	503.15	30356	496.72	2.5
0.8	503.15	41722	521.26	2.62
0.8	513.15	4156	106.45	0.54
0.8	513.15	4850	140.37	0.72
0.8	513.15	5032	156.12	0.81
0.8	513.15	5197	169.87	0.89
0.8	513.15	5265	176.11	0.92
0.8	513.15	5344	180.91	0.94
0.8	513.15	5473	193.25	0.99
0.8	513.15	5710	213.96	1.09
0.8	513.15	5776	219.73	1.12
0.8	513.15	5983	234.82	1.21
0.8	513.15	6119	245.46	1.24
0.8	513.15	6286	258.7	1.33
0.8	513.15	6531	272.67	1.38
0.8	513.15	6787	288.53	1.47
0.8	513.15	7033	299.35	1.5
0.8	513.15	7508	315.53	1.59
0.8	513.15	8099	334.03	1.68
0.8	513.15	8570	345.56	1.74
0.8	513.15	9551	362.13	1.82
0.8	513.15	14551	418.46	2.1
0.8	513.15	24001	467	2.35
0.8	513.15	33469	496.43	2.5
0.8	523.15	4356	106.4	0.54
0.8	523.15	5158	140.3	0.72
0.8	523.15	5370	156.04	0.8
0.8	523.15	5586	169.78	0.87
0.8	523.15	5668	176.03	0.92
0.8	523.15	5763	180.83	0.92
0.8	523.15	5925	193.16	0.99
0.8	523.15	6236	213.85	1.1
0.8	523.15	6320	219.62	1.12
0.8	523.15	6580	234.7	1.2
0.8	523.15	6748	245.34	1.23
0.8	523.15	6963	258.57	1.32
0.8	523.15	7242	272.53	1.38
0.8	523.15	7600	288.38	1.46
0.8	523.15	7896	299.2	1.5
0.8	523.15	8453	315.37	1.58
0.8	523.15	9148	333.86	1.68
0.8	523.15	9669	345.38	1.73
0.8	523.15	10826	361.95	1.82
0.8	523.15	16344	418.23	2.1
0.8	523.15	26649	466.73	2.35
0.8	523.15	36508	496.15	2.5
0.8	533.15	4552	106.35	0.54
0.8	533.15	5454	140.24	0.71
0.8	533.15	5720	155.97	0.8
0.8	533.15	5973	169.7	0.87
0.8	533.15	6071	175.94	0.89
0.8	533.15	6177	180.74	0.92
0.8	533.15	6384	193.07	0.98
0.8	533.15	6761	213.75	1.09
0.8	533.15	6859	219.51	1.11
0.8	533.15	7168	234.59	1.19
0.8	533.15	7364	245.22	1.24
0.8	533.15	7638	258.44	1.31
0.8	533.15	7963	272.4	1.37
0.8	533.15	8423	288.24	1.45
0.8	533.15	8748	299.05	1.5
0.8	533.15	9413	315.21	1.58
0.8	533.15	10217	333.69	1.68
0.8	533.15	10835	345.21	1.73
0.8	533.15	12119	361.76	1.82
0.8	533.15	18236	418.01	2.1
0.8	533.15	29155	466.47	2.35
0.8	533.15	39686	495.86	2.5
0.8	543.15	4745	106.3	0.54
0.8	543.15	5755	140.17	0.71
0.8	543.15	6054	155.89	0.8
0.8	543.15	6358	169.62	0.87
0.8	543.15	6471	175.86	0.89
0.8	543.15	6584	180.65	0.92
0.8	543.15	6836	192.97	0.98
0.8	543.15	7269	213.64	1.09
0.8	543.15	7405	219.4	1.11
0.8	543.15	7747	234.47	1.19
0.8	543.15	7983	245.1	1.24
0.8	543.15	8294	258.31	1.31
0.8	543.15	8708	272.26	1.37
0.8	543.15	9246	288.09	1.45
0.8	543.15	9630	298.89	1.5
0.8	543.15	10354	315.05	1.58
0.8	543.15	11295	333.52	1.68
0.8	543.15	11953	345.03	1.73
0.8	543.15	13394	361.57	1.82
0.8	543.15	19983	417.78	2.1
0.8	543.15	31784	466.21	2.35
0.8	543.15	42744	495.57	2.5
0.8	553.15	4938	106.25	0.54
0.8	553.15	6054	140.1	0.71
0.8	553.15	6388	155.82	0.79
0.8	553.15	6741	169.54	0.86
0.8	553.15	6874	175.77	0.89
0.8	553.15	6985	180.56	0.92
0.8	553.15	7296	192.88	0.98
0.8	553.15	7786	213.54	1.08
0.8	553.15	7945	219.29	1.11
0.8	553.15	8315	234.36	1.19
0.8	553.15	8586	244.98	1.24
0.8	553.15	8982	258.18	1.3
0.8	553.15	9433	272.13	1.37
0.8	553.15	10042	287.95	1.45
0.8	553.15	10469	298.75	1.5
0.8	553.15	11334	314.89	1.58
0.8	553.15	12374	333.35	1.68
0.8	553.15	13118	344.85	1.73
0.8	553.15	14669	361.39	1.82
0.8	553.15	21933	417.56	2.1
0.8	553.15	34331	465.95	2.35
0.8	563.15	3914	73.65	0.37
0.8	563.15	5140	106.2	0.54
0.8	563.15	6362	140.03	0.71
0.8	563.15	6728	155.74	0.79
0.8	563.15	7120	169.45	0.86
0.8	563.15	7275	175.68	0.9
0.8	563.15	7389	180.47	0.92
0.8	563.15	7728	192.78	0.98
0.8	563.15	8310	213.43	1.08
0.8	563.15	8483	219.19	1.11
0.8	563.15	8904	234.24	1.19
0.8	563.15	9207	244.86	1.24
0.8	563.15	9648	258.06	1.3
0.8	563.15	10165	271.99	1.37
0.8	563.15	10875	287.81	1.45
0.8	563.15	11345	298.6	1.5
0.8	563.15	12285	314.73	1.58
0.8	563.15	13452	333.18	1.68
0.8	563.15	14255	344.68	1.73
0.8	563.15	15944	361.2	1.82
0.8	563.15	23762	417.33	2.1
0.8	563.15	36842	465.69	2.35
0.8	573.15	4034	73.62	0.37
0.8	573.15	5320	106.15	0.54
0.8	573.15	6637	139.97	0.71
0.8	573.15	7062	155.67	0.79
0.8	573.15	7474	169.37	0.86
0.8	573.15	7658	175.6	0.89
0.8	573.15	7776	180.39	0.91
0.8	573.15	8168	192.69	0.98
0.8	573.15	8815	213.33	1.08
0.8	573.15	9002	219.08	1.11
0.8	573.15	9462	234.13	1.18
0.8	573.15	9806	244.74	1.24
0.8	573.15	10324	257.93	1.3
0.8	573.15	10865	271.86	1.37
0.8	573.15	11678	287.66	1.45
0.8	573.15	12217	298.45	1.5
0.8	573.15	13246	314.57	1.58
0.8	573.15	14505	333.01	1.68
0.8	573.15	15392	344.5	1.73
0.8	573.15	17250	361.01	1.81
0.8	573.15	25613	417.11	2.1
0.8	573.15	39390	465.43	2.35
0.8	573.15	12217	298.45	1.5
0.8	573.15	13246	314.57	1.58
0.8	573.15	14505	333.01	1.68
0.8	573.15	15392	344.5	1.73
0.8	573.15	17250	361.01	1.81
0.8	573.15	25613	417.11	2.1
0.8	573.15	39390	465.43	2.35
0.9	473.15	3581	202.87	2.47
0.9	473.15	3589	221.23	2.33
0.9	473.15	3596	233.64	2.26
0.9	473.15	3596	237.11	2.2
0.9	473.15	3598	241.52	2.16
0.9	473.15	3600	244.84	2.13
0.9	473.15	3614	282.71	1.47
0.9	473.15	3634	302.44	4.33
0.9	473.15	3679	313.12	1.75
0.9	473.15	3867	334.89	1.69
0.9	473.15	4251	355.05	1.78
0.9	473.15	6747	408.4	2.05
0.9	475.15	3789	302.41	1.54
0.9	480.15	4198	302.34	1.52
0.9	483.15	3605	123.58	1.1
0.9	483.15	3709	134.38	0.85
0.9	483.15	3900	164.27	1.01
0.9	483.15	4002	189.82	1.19
0.9	483.15	4049	202.77	1.22
0.9	483.15	4109	221.12	1.28
0.9	483.15	4156	233.52	1.36
0.9	483.15	4171	236.99	1.38
0.9	483.15	4189	241.4	1.4
0.9	483.15	4200	244.72	1.41
0.9	483.15	4309	282.57	1.49
0.9	483.15	4435	302.29	1.55
0.9	483.15	4551	312.96	1.59
0.9	483.15	4877	334.72	1.69
0.9	483.15	5428	354.86	1.78
0.9	483.15	8482	408.19	2.05
0.9	493.15	3862	123.52	0.67
0.9	493.15	3987	134.31	0.71
0.9	493.15	4268	164.19	0.89
0.9	493.15	4439	189.73	0.98
0.9	493.15	4518	202.67	1.12
0.9	493.15	4629	221.01	1.14
0.9	493.15	4720	233.41	1.21
0.9	493.15	4743	236.88	1.25
0.9	493.15	4769	241.29	1.27
0.9	493.15	4792	244.6	1.29
0.9	493.15	5020	282.43	1.45
0.9	493.15	5245	302.14	1.52
0.9	493.15	5423	312.8	1.58
0.9	493.15	5904	334.55	1.68
0.9	493.15	6629	354.68	1.78
0.9	493.15	10256	407.97	2.05
0.9	503.15	4106	123.46	0.63
0.9	503.15	4264	134.25	0.69
0.9	503.15	4621	164.11	0.85
0.9	503.15	4859	189.64	0.99
0.9	503.15	4988	202.57	1.05
0.9	503.15	5158	220.9	1.16
0.9	503.15	5287	233.29	1.2
0.9	503.15	5320	236.76	1.21
0.9	503.15	5356	241.17	1.24
0.9	503.15	5385	244.48	1.3
0.9	503.15	5786	282.29	1.44
0.9	503.15	6051	301.99	1.53
0.9	503.15	6295	312.64	1.57
0.9	503.15	6924	334.38	1.68
0.9	503.15	7825	354.5	1.78
0.9	503.15	12022	407.75	2.05
0.9	513.15	4349	123.41	0.63
0.9	513.15	4538	134.18	0.69
0.9	513.15	4965	164.03	0.84
0.9	513.15	5295	189.54	0.98
0.9	513.15	5454	202.47	1.03
0.9	513.15	5669	220.79	1.14
0.9	513.15	5837	233.18	1.19
0.9	513.15	5880	236.64	1.19
0.9	513.15	5929	241.05	1.27
0.9	513.15	5974	244.36	1.28
0.9	513.15	6531	282.15	1.43
0.9	513.15	6884	301.84	1.52
0.9	513.15	7191	312.49	1.57
0.9	513.15	7943	334.21	1.68
0.9	513.15	9031	354.32	1.78
0.9	513.15	13786	407.53	2.05
0.9	523.15	3631	83.38	0.42
0.9	523.15	4600	123.35	0.63
0.9	523.15	4817	134.12	0.69
0.9	523.15	5316	163.95	0.84
0.9	523.15	5717	189.45	0.97
0.9	523.15	5911	202.38	1.04
0.9	523.15	6195	220.68	1.12
0.9	523.15	6399	233.06	1.19
0.9	523.15	6454	236.53	1.19
0.9	523.15	6513	240.93	1.22
0.9	523.15	6567	244.24	1.25
0.9	523.15	7295	282.01	1.43
0.9	523.15	7736	301.69	1.52
0.9	523.15	8118	312.33	1.57
0.9	523.15	8992	334.04	1.68
0.9	523.15	10260	354.13	1.78
0.9	523.15	15550	407.31	2.05
0.9	533.15	3768	83.34	0.42
0.9	533.15	4839	123.29	0.63
0.9	533.15	5078	134.05	0.68
0.9	533.15	5660	163.88	0.83
0.9	533.15	6137	189.36	0.96
0.9	533.15	6395	202.28	1.03
0.9	533.15	6727	220.58	1.12
0.9	533.15	6955	232.95	1.19
0.9	533.15	7014	236.41	1.2
0.9	533.15	7092	240.81	1.23
0.9	533.15	7159	244.12	1.24
0.9	533.15	8071	281.87	1.42
0.9	533.15	8569	301.54	1.52
0.9	533.15	9002	312.17	1.57
0.9	533.15	10061	333.87	1.68
0.9	533.15	11530	353.95	1.78
0.9	533.15	17294	407.1	2.04
0.9	543.15	3909	83.3	0.42
0.9	543.15	5063	123.23	0.63
0.9	543.15	5339	133.99	0.68
0.9	543.15	6004	163.8	0.83
0.9	543.15	6570	189.27	0.96
0.9	543.15	6846	202.18	1.03
0.9	543.15	7246	220.47	1.12
0.9	543.15	7520	232.83	1.18
0.9	543.15	7591	236.29	1.19
0.9	543.15	7689	240.69	1.22
0.9	543.15	7760	244	1.24
0.9	543.15	8845	281.73	1.42
0.9	543.15	9409	301.38	1.52
0.9	543.15	9923	312.01	1.57
0.9	543.15	11098	333.7	1.68
0.9	543.15	12737	353.77	1.78
0.9	543.15	19097	406.88	2.04
0.9	553.15	4048	83.26	0.42
0.9	553.15	5296	123.17	0.62
0.9	553.15	5611	133.93	0.68
0.9	553.15	6344	163.72	0.83
0.9	553.15	6982	189.18	0.96
0.9	553.15	7277	202.08	1.02
0.9	553.15	7760	220.36	1.12
0.9	553.15	8082	232.72	1.18
0.9	553.15	8169	236.18	1.19
0.9	553.15	8267	240.57	1.22
0.9	553.15	8361	243.88	1.23
0.9	553.15	9589	281.59	1.42
0.9	553.15	10274	301.23	1.52
0.9	553.15	10864	311.86	1.57
0.9	553.15	12137	333.53	1.68
0.9	553.15	13951	353.59	1.78
0.9	553.15	20863	406.66	2.04
0.9	563.15	4188	83.22	0.42
0.9	563.15	5522	123.11	0.62
0.9	563.15	5876	133.86	0.68
0.9	563.15	6690	163.64	0.83
0.9	563.15	7397	189.08	0.96
0.9	563.15	7738	201.98	1.02
0.9	563.15	8285	220.25	1.11
0.9	563.15	8640	232.6	1.18
0.9	563.15	8748	236.06	1.19
0.9	563.15	8876	240.45	1.21
0.9	563.15	8965	243.76	1.23
0.9	563.15	10363	281.45	1.42
0.9	563.15	11127	301.08	1.52
0.9	563.15	11776	311.7	1.57
0.9	563.15	13176	333.36	1.68
0.9	563.15	15195	353.41	1.78
0.9	563.15	22608	406.44	2.04
0.9	573.15	4329	83.18	0.42
0.9	573.15	5748	123.05	0.62
0.9	573.15	6139	133.8	0.68
0.9	573.15	7024	163.56	0.83
0.9	573.15	7805	188.99	0.96
0.9	573.15	8184	201.88	1.02
0.9	573.15	8805	220.14	1.11
0.9	573.15	9198	232.49	1.18
0.9	573.15	9316	235.95	1.19
0.9	573.15	9453	240.34	1.22
0.9	573.15	9562	243.64	1.23
0.9	573.15	11108	281.31	1.42
0.9	573.15	12021	300.93	1.51
0.9	573.15	12707	311.54	1.57
0.9	573.15	14239	333.19	1.67
0.9	573.15	16409	353.22	1.77
0.9	573.15	24391	406.23	2.04

System: propan-1-ol + pentane; phases: Gas, Liquid
Property: Mass density, kg/m3 (Gas); method: Constant-volume piezometry
Mole fraction of pentane	Temperature, K	Mass density, kg/m3	uncertainty
0.2	452.15	25.01	0.15
0.2	483.15	53.11	0.32
0.2	501.15	91.51	0.55
0.2	507.15	114.44	0.69
0.2	513.15	150.42	0.9
0.2	515.05	175.68	1.06
0.2	515.45	189.71	1.14
0.2	516.05	220.17	1.32
0.2	516.15	245.56	1.48
0.2	516.15	259.29	1.56
0.5	413.15	15.6	0.09
0.5	433.15	30.11	0.18
0.5	446.45	40.63	0.24
0.5	453.15	51.26	0.31
0.5	464.85	67.7	0.41
0.5	467.15	72.79	0.44
0.5	474.15	89.12	0.54
0.5	477.15	96.06	0.58
0.5	486.15	122.11	0.73
0.5	491.15	144.34	0.87
0.5	492.15	154.72	0.93
0.5	492.75	165.38	0.99
0.5	493.05	183.12	1.1
0.5	493.15	200.69	1.21
0.5	493.15	210.53	1.26
0.5	493.15	224.38	1.35
0.5	493.15	241.86	1.45
0.5	493.15	251.07	1.51
0.8	393.85	22.66	0.14
0.8	415.15	36.88	0.22
0.8	436.15	58.66	0.35
0.8	445.45	74.06	0.44
0.8	461.15	106.72	0.64
0.8	471.15	140.66	0.84
0.8	473.85	156.42	0.94
0.8	474.85	170.18	1.02
0.8	475.15	176.44	1.06
0.8	475.35	181.25	1.09
0.8	475.75	193.61	1.16
0.8	475.95	214.35	1.29
0.8	476.05	220.13	1.32
0.8	476.15	235.25	1.41
0.9	450.95	83.67	0.5
0.9	464.85	123.69	0.74
0.9	467.45	134.48	0.81
0.9	471.15	164.37	0.99
0.9	471.55	189.93	1.14
0.9	471.85	202.88	1.22
0.9	472.05	221.24	1.33
0.9	472.15	233.65	1.4

System: propan-1-ol + pentane; phases: Liquid, Gas
Property: Mass density, kg/m3 (Liquid); method: Constant-volume piezometry
Mole fraction of pentane	Temperature, K	Mass density, kg/m3	uncertainty
0.2	516.15	272.45	1.64
0.2	516.15	272.45	1.64
0.2	515.95	290.64	1.75
0.2	515.55	306.94	1.85
0.2	515.15	311.18	1.87
0.2	514.95	318.91	1.92
0.2	513.65	341.43	2.05
0.2	513.45	344.22	2.07
0.2	512.85	350.77	2.11
0.2	510.35	378.89	2.28
0.2	509.65	383.71	2.31
0.2	508.65	391.58	2.36
0.2	502.95	419.16	2.52
0.2	489.85	471.25	2.84
0.2	476.35	510.98	3.07
0.2	458.15	549.2	3.3
0.2	438.95	584.46	3.52
0.2	429.15	598.54	3.6
0.2	415.75	618.67	3.72
0.2	396.15	640.78	3.85
0.2	381.85	663.76	3.99
0.5	493.15	260.13	1.57
0.5	492.95	270.96	1.63
0.5	492.65	282.81	1.7
0.5	491.65	299.15	1.8
0.5	489.55	320.54	1.93
0.5	488.75	325.84	1.96
0.5	486.15	345.21	2.08
0.5	482.15	373.68	2.25
0.5	476.45	399.12	2.4
0.5	473.15	418.35	2.52
0.5	466.15	442.34	2.66
0.5	462.15	452.82	2.72
0.5	454.85	469.97	2.83
0.5	431.15	522.22	3.14
0.5	410.75	551.97	3.32
0.5	383.55	592.03	3.56
0.5	368.45	611.87	3.68
0.5	351.05	631.49	3.8
0.5	317.85	663.63	3.99
0.8	476.15	245.91	1.48
0.8	475.95	259.17	1.56
0.8	475.65	273.18	1.64
0.8	475.25	289.08	1.74
0.8	474.15	299.93	1.8
0.8	472.65	316.17	1.9
0.8	470.15	334.76	2.01
0.8	467.15	346.37	2.08
0.8	463.55	363.07	2.18
0.8	446.85	419.95	2.53
0.8	425.55	469.31	2.82
0.8	410.15	499.43	3
0.8	394.65	524.7	3.16
0.8	372.15	553.38	3.33
0.8	353.55	575.9	3.46
0.8	334.25	601.01	3.61
0.8	324.25	611.04	3.67
0.8	312.65	623.57	3.75
0.8	305.05	631.08	3.79
0.9	472.15	237.12	1.43
0.9	472.05	241.54	1.45
0.9	471.95	244.86	1.47
0.9	471.25	282.74	1.7
0.9	470.85	302.48	1.82
0.9	470.15	313.16	1.88
0.9	467.15	334.99	2.02
0.9	462.85	355.24	2.14
0.9	447.55	408.96	2.46

System: propan-1-ol + pentane; phases: Gas, Liquid
Property: Vapor or sublimation pressure, kPa (Gas); method: ISOPVT
Mole fraction of pentane	Temperature, K	Vapor or sublimation pressure, kPa	uncertainty
0.2	452.15	1251	13
0.2	483.15	2571	15
0.2	501.15	3536	19
0.2	507.15	3990	9
0.2	513.15	4432	26
0.2	515.05	4639	39
0.2	515.45	4689	50
0.2	516.05	4801	57
0.2	516.15	4822	58
0.2	516.15	4828	60
0.5	413.15	709	9
0.5	433.15	1289	10
0.5	446.45	1734	12
0.5	453.15	2048	15
0.5	464.85	2589	16
0.5	467.15	2704	18
0.5	474.15	3108	17
0.5	477.15	3221	16
0.5	486.15	3705	19
0.5	491.15	4012	31
0.5	492.15	4112	37
0.5	492.75	4210	49
0.5	493.05	4255	48
0.5	493.15	4271	47
0.5	493.15	4285	57
0.5	493.15	4294	64
0.5	493.15	4298	67
0.5	493.15	4300	68
0.8	393.85	867	7
0.8	415.15	1367	9
0.8	436.15	2030	11
0.8	445.45	2379	13
0.8	461.15	3036	14
0.8	471.15	3511	14
0.8	473.85	3637	19
0.8	474.85	3683	32
0.8	475.15	3700	29
0.8	475.35	3710	30
0.8	475.75	3730	34
0.8	475.95	3745	35
0.8	476.05	3745	34
0.8	476.15	3750	33
0.9	450.95	2525	14
0.9	464.85	3131	15
0.9	467.45	3249	16
0.9	471.15	3439	44
0.9	471.55	3497	32
0.9	471.85	3517	34
0.9	472.05	3534	23
0.9	472.15	3549	27

System: propan-1-ol + pentane; phases: Liquid, Gas
Property: Vapor or sublimation pressure, kPa (Liquid); method: ISOPVT
Mole fraction of pentane	Temperature, K	Vapor or sublimation pressure, kPa	uncertainty
0.2	516.15	4828	16
0.2	516.15	4828	16
0.2	515.95	4820	14
0.2	515.55	4803	12
0.2	515.15	4793	15
0.2	514.95	4790	14
0.2	513.65	4739	18
0.2	513.45	4735	18
0.2	512.85	4679	30
0.2	510.35	4519	21
0.2	509.65	4478	20
0.2	508.65	4417	20
0.2	502.95	4124	19
0.2	489.85	3386	17
0.2	476.35	2782	14
0.2	458.15	2080	11
0.2	438.95	1539	8
0.2	429.15	1338	7
0.2	415.75	1028	6
0.2	396.15	761	5
0.2	381.85	562	4
0.5	493.15	4300	9
0.5	492.95	4300	11
0.5	492.65	4298	11
0.5	491.65	4270	27
0.5	489.55	4200	28
0.5	488.75	4161	31
0.5	486.15	4030	26
0.5	482.15	3825	23
0.5	476.45	3495	20
0.5	473.15	3339	13
0.5	466.15	3023	17
0.5	462.15	2857	14
0.5	454.85	2534	12
0.5	431.15	1703	10
0.5	410.75	1177	7
0.5	383.55	709	5
0.5	368.45	518	3
0.5	351.05	357	2
0.5	317.85	145	2
0.8	476.15	3750	24
0.8	475.95	3748	26
0.8	475.65	3742	25
0.8	475.25	3734	25
0.8	474.15	3702	23
0.8	472.65	3650	15
0.8	470.15	3532	14
0.8	467.15	3392	17
0.8	463.55	3201	24
0.8	446.85	2479	12
0.8	425.55	1770	10
0.8	410.15	1340	8
0.8	394.65	1007	6
0.8	372.15	631	5
0.8	353.55	403	3
0.8	334.25	250	2
0.8	324.25	205	2
0.8	312.65	135	2
0.8	305.05	117	1
0.9	472.15	3550	18
0.9	472.05	3545	18
0.9	471.95	3540	19
0.9	471.25	3500	21
0.9	470.85	3467	17
0.9	470.15	3441	13
0.9	467.15	3292	16
0.9	462.85	3087	15
0.9	447.55	2436	14

System: propan-1-ol + pentane; phases: Liquid, Gas
Property: Critical temperature, K (Liquid); method: Derived from PVT data
Mole fraction of pentane	Critical temperature, K	uncertainty
0.2	516.15	0.5
0.5	493.15	0.5
0.8	476.15	0.5
0.9	472.15	0.5

System: propan-1-ol + pentane; phases: Liquid, Gas
Property: Critical pressure, kPa (Liquid); method: Derived from PVT data
Mole fraction of pentane	Critical pressure, kPa	uncertainty
0.2	4829	16
0.5	4300	14
0.8	3750	13
0.9	3550	12

System: propan-1-ol + pentane; phases: Liquid, Gas
Property: Critical density, kg/m3 (Liquid); method: Derived from PVT data
Mole fraction of pentane	Critical density, kg/m3	uncertainty
0.2	262.99	9.66
0.5	252	9.26
0.8	240	8.82
0.9	236	8.67
