Measured thermophysical data. Redetermination of low-temperature heat capacity of Cu(C5H7O2)2
Source: J. Chem. Thermodyn., 2019, 10.1016/j.jct.2019.05.010
Compound 1: bis(2,4-pentanedionato-O,O')copper, C10H14CuO4, InChI=1S/2C5H7O2.Cu/c2*1-4(6)3-5(2)7;/h2*3H,1-2H3;/q2*-1;+2, purity 99.9%

System: bis(2,4-pentanedionato-O,O')copper; phases: Crystal
Fixed: Pressure, kPa = 101.325
Property: Molar heat capacity at constant pressure, J/K/mol (Crystal); method: Vacuum adiabatic calorimetry
Temperature, K	Molar heat capacity at constant pressure, J/K/mol	uncertainty
80.07	127.4	0.5
85.04	132.9	0.5
89.68	137.8	0.5
94.05	142.1	0.5
98.21	146	0.5
102.43	149.8	0.5
106.73	153.5	0.6
110.87	157.3	0.6
115.52	160.9	0.6
120.66	165	0.6
125.63	169	0.6
130.45	172.4	0.6
135.15	176	0.6
139.73	179.1	0.6
144.22	182.5	0.6
148.61	185.6	0.7
152.93	188.8	0.7
157.17	191.5	0.7
161.35	194.4	0.7
165.97	197.3	0.7
171.03	200.5	0.7
176	203.5	0.7
180.9	206.9	0.7
185.74	210.1	0.7
190.5	213.3	0.7
195.21	216.6	0.8
199.87	219.6	0.8
204.46	222.6	0.8
209.01	225.1	0.8
213.51	228.2	0.8
217.97	231.3	0.8
222.38	234.3	0.8
226.74	236.8	0.8
231.06	239.5	0.8
235.35	242.2	0.8
239.58	245.1	0.8
243.77	247.8	0.9
248.11	250.8	0.9
252.68	253.8	0.9
257.27	256.6	0.9
261.9	259.8	0.9
266.49	262.7	0.9
271.04	266.1	0.9
275.54	268.5	0.9
280.45	272.3	0.9
285.75	275.1	0.9
291	279	1
296.16	282.5	1
300.51	285.7	1
304.76	288.6	1
308.97	291.5	1
313.16	294.6	1
6.54	1.427	0.043
9.03	3.433	0.095
11.38	6.016	0.163
13.66	9.127	0.245
16.64	13.96	0.37
20	20.52	0.16
22.84	26.59	0.19
25.85	33.31	0.23
29.17	40.64	0.27
32.85	49.04	0.31
36.85	57.9	0.37
40.6	65.62	0.41
44.11	72.98	0.46
48.18	80.84	0.51
52.32	88.52	0.55
56.3	95.12	0.59
60.23	101.6	0.6
64.13	107	0.7
68.13	112.6	0.7
72.3	118.2	0.7
76.49	123.2	0.8
80.38	128	0.5

System: bis(2,4-pentanedionato-O,O')copper; phases: Crystal
Fixed: Pressure, kPa = 101.325
Property: Molar heat capacity at constant pressure, J/K/mol (Crystal); method: Vacuum adiabatic calorimetry
Temperature, K	Molar heat capacity at constant pressure, J/K/mol	uncertainty
5	0.667	0.026
10	4.4	0.13
15	11.23	0.31
20	20.5	0.15
25	31.33	0.21
30	42.65	0.28
35	53.76	0.34
40	64.51	0.4
45	74.72	0.46
50	84.29	0.52
55	93.1	0.58
60	101	0.6
65	108.3	0.6
70	115.1	0.6
80	127.4	0.6
90	138.1	0.6
100	147.6	0.7
110	156.4	0.7
120	164.5	0.7
130	172.1	0.7
140	179.4	0.7
150	186.6	0.7
160	193.5	0.7
170	199.8	0.7
180	206.2	0.7
190	213	0.7
200	219.6	0.9
210	225.9	0.9
220	232.5	0.9
230	238.9	0.9
240	245.4	0.9
250	252	0.9
260	258.5	0.9
270	265.2	0.9
280	271.7	0.9
290	278.3	0.9
298.15	283.9	1.1
300	285.2	1.1
310	292.4	1.1
313	294.5	1.1

System: bis(2,4-pentanedionato-O,O')copper; phases: Crystal
Fixed: Pressure, kPa = 101.325
Property: Molar entropy, J/K/mol (Crystal); method: Vacuum adiabatic calorimetry
Temperature, K	Molar entropy, J/K/mol	uncertainty
5	0.229	0.017
10	1.632	0.068
15	4.62	0.19
20	9.07	0.37
25	14.79	0.4
30	21.5	0.46
35	28.92	0.55
40	36.8	0.61
45	44.99	0.68
50	53.37	0.77
55	61.8	0.9
60	70.3	0.9
65	78.6	0.9
70	86.9	1.2
80	103.1	1.2
90	118.8	1.2
100	133.8	1.3
110	148.3	1.5
120	162.3	1.5
130	175.7	1.6
140	188.8	1.6
150	201.4	1.9
160	213.6	1.9
170	225.6	1.9
180	237.2	1.9
190	248.5	1.9
200	259.6	1.9
210	270.5	2.2
220	281.1	2.2
230	291.6	2.2
240	301.9	2.2
250	312.1	2.2
260	322.1	2.2
270	331.9	2.5
280	341.7	2.5
290	351.4	2.5
298.15	359.1	2.5
300	360.9	2.5
310	370.4	2.5
313	373.2	2.5

System: bis(2,4-pentanedionato-O,O')copper; phases: Crystal
Fixed: Pressure, kPa = 101.325
Property: Molar enthalpy, kJ/mol (Crystal); method: Vacuum adiabatic calorimetry
Temperature, K	Molar enthalpy, kJ/mol	uncertainty
5	0.00086	6.4e-05
10	0.01207	0.00036
15	0.0501	0.0015
20	0.1285	0.0035
25	0.2577	0.0042
30	0.4426	0.0055
35	0.684	0.006
40	0.98	0.01
45	1.328	0.011
50	1.726	0.013
55	2.17	0.017
60	2.655	0.019
65	3.179	0.023
70	3.738	0.025
80	4.952	0.033
90	6.281	0.04
100	7.71	0.045
110	9.231	0.051
120	10.84	0.065
130	12.52	0.066
140	14.28	0.067
150	16.11	0.068
160	18.01	0.088
170	19.97	0.089
180	22	0.09
190	24.1	0.109
200	26.26	0.111
210	28.49	0.112
220	30.78	0.131
230	33.14	0.132
240	35.56	0.152
250	38.05	0.153
260	40.6	0.155
270	43.22	0.174
280	45.9	0.176
290	48.65	0.195
298.15	50.94	0.196
300	51.47	0.197
310	54.36	0.216
313	55.24	0.217
