Measured thermophysical data. Viscosity of {xCO2 + (1-x)CH4} with x = 0.5174 for temperatures between (229 and 348) K and pressures between (1 and 32) MPa
Source: J. Chem. Thermodyn., 2015, 10.1016/j.jct.2015.03.007
Compound 1: carbon dioxide, CO2, InChI=1S/CO2/c2-1-3, purity 99.999%
Compound 2: methane, CH4, InChI=1S/CH4/h1H4, purity 99.995%

System: methane + carbon dioxide; phases: Fluid (supercritical or subcritical phases)
Fixed: Mole fraction of carbon dioxide = 0.5174
Property: Viscosity, Pa*s (Fluid (supercritical or subcritical phases)); method: Vibrating wire viscometry
Temperature, K	Pressure, kPa	Viscosity, Pa*s	uncertainty
229.6	10168	6.646e-05	9.2e-07
229.5	10963	6.79e-05	1.18e-06
229.4	11654	6.874e-05	1.44e-06
229.3	12980	7.03e-05	1.08e-06
229.5	13698	7.21e-05	1.14e-06
229.5	14200	7.231e-05	1.14e-06
229	14501	7.3e-05	1.28e-06
257.9	12165	4.274e-05	9e-07
257.9	14190	4.7e-05	7.8e-07
258	16209	5.083e-05	1e-06
257.9	18239	5.41e-05	1.58e-06
257.8	19252	5.496e-05	9.8e-07
257.8	21263	5.75e-05	9.4e-07
257.9	22280	5.903e-05	1.04e-06
257.9	23289	5.979e-05	1.02e-06
288.1	1438	1.349e-05	2e-07
288.1	1553	1.35e-05	2.2e-07
288.1	2042	1.369e-05	2.4e-07
288.1	2553	1.388e-05	2e-07
288.1	3073	1.402e-05	2e-07
288.1	3570	1.425e-05	2e-07
288.2	4066	1.442e-05	2.6e-07
288.2	4594	1.468e-05	2.2e-07
288.1	5123	1.498e-05	2.4e-07
288.1	5405	1.519e-05	2.2e-07
288.2	6609	1.593e-05	2.2e-07
288.2	7116	1.636e-05	2.4e-07
287.7	7818	1.711e-05	2.6e-07
287.7	8134	1.748e-05	2.4e-07
287.8	8895	1.845e-05	3e-07
288.2	9140	1.892e-05	3.4e-07
287.8	9137	1.889e-05	3e-07
287.8	9866	2.011e-05	3.4e-07
288.2	11159	2.281e-05	5.4e-07
287.7	11663	2.384e-05	3.4e-07
287.7	12567	2.598e-05	6e-07
288.2	13180	2.721e-05	4.2e-07
287.7	13512	2.819e-05	4.2e-07
287.7	14605	3.051e-05	6.4e-07
288.2	15201	3.146e-05	5.2e-07
287.7	15897	3.311e-05	4.8e-07
287.7	17472	3.599e-05	6.2e-07
288.2	19138	3.829e-05	5.8e-07
287.7	19398	3.92e-05	6.8e-07
288.2	21458	4.192e-05	7e-07
287.7	21895	4.255e-05	9.4e-07
288.2	23984	4.512e-05	9.2e-07
288.2	25172	4.621e-05	7e-07
287.7	25061	4.633e-05	8.8e-07
288.2	26302	4.748e-05	1.26e-06
287.8	31033	5.27e-05	7.4e-07
317.9	1389	1.457e-05	2.6e-07
317.9	1545	1.462e-05	2.6e-07
317.8	2056	1.479e-05	2.4e-07
318	2566	1.5e-05	2e-07
318	3069	1.518e-05	2.6e-07
318	4578	1.571e-05	4e-07
318	5085	1.587e-05	2.4e-07
318	6297	1.646e-05	2.8e-07
318.1	6520	1.648e-05	2.4e-07
318.1	7151	1.689e-05	2.6e-07
318.1	7212	1.688e-05	2.6e-07
318.1	8226	1.751e-05	2.8e-07
318.1	9335	1.82e-05	2.6e-07
318.1	10457	1.916e-05	3.4e-07
318.1	11460	2.013e-05	3e-07
318.1	12573	2.123e-05	3.4e-07
318.1	13584	2.235e-05	4.4e-07
318.1	14713	2.377e-05	3.8e-07
318.1	15239	2.432e-05	4.2e-07
318.1	15724	2.502e-05	4.2e-07
318.1	16254	2.562e-05	6e-07
318.1	17842	2.789e-05	4.8e-07
318.1	20300	3.122e-05	5e-07
318.1	21518	3.236e-05	5.6e-07
318.1	22819	3.405e-05	5.6e-07
318.1	24011	3.506e-05	6.4e-07
318.1	25249	3.636e-05	5.6e-07
318.1	26412	3.781e-05	6e-07
318.1	27392	3.909e-05	7.6e-07
318.1	28884	4.047e-05	6.8e-07
318.1	30364	4.187e-05	7e-07
318.1	31857	4.341e-05	6.6e-07
347.9	1555	1.586e-05	3.4e-07
347.9	1745	1.584e-05	3.4e-07
347.9	1956	1.592e-05	3e-07
347.8	2161	1.599e-05	3.4e-07
347.9	2361	1.592e-05	3.8e-07
347.9	2566	1.603e-05	3.2e-07
347.8	2764	1.606e-05	2.6e-07
347.8	2964	1.612e-05	3e-07
347.8	3169	1.615e-05	2.6e-07
347.8	3278	1.616e-05	2.4e-07
347.8	3485	1.631e-05	2.4e-07
347.8	4003	1.648e-05	2.8e-07
347.7	4516	1.665e-05	2.6e-07
347.8	5009	1.682e-05	3e-07
347.8	5509	1.696e-05	3.2e-07
347.8	5514	1.701e-05	2.4e-07
347.8	6032	1.714e-05	2.6e-07
347.8	6512	1.731e-05	2.6e-07
347.8	7016	1.746e-05	2.4e-07
347.8	7538	1.766e-05	3e-07
347.8	8039	1.795e-05	3e-07
347.8	8528	1.812e-05	3.8e-07
347.8	9051	1.836e-05	2.6e-07
347.8	10090	1.89e-05	3e-07
347.8	10617	1.914e-05	3.2e-07
347.8	11109	1.948e-05	3.6e-07
347.8	11596	1.976e-05	3.6e-07
347.8	12118	2.008e-05	3.6e-07
347.8	12605	2.043e-05	3.4e-07
347.8	13204	2.102e-05	3.4e-07
347.8	13713	2.132e-05	3.4e-07
347.8	14226	2.172e-05	3.4e-07
347.8	14732	2.205e-05	3.8e-07
347.8	16775	2.364e-05	4.4e-07
347.8	18782	2.533e-05	5.4e-07
347.8	20792	2.732e-05	4.8e-07
