Measured thermophysical data. Energetics of 2- and 3-coumaranone isomers: A combined calorimetric and computational study
Source: J. Chem. Thermodyn., 2013, 10.1016/j.jct.2013.08.012
Compound 1: carbon dioxide, CO2, InChI=1S/CO2/c2-1-3
Compound 2: water, H2O, InChI=1S/H2O/h1H2
Compound 3: oxygen, O2, InChI=1S/O2/c1-2
Compound 4: 2-coumaranone, C8H6O2, InChI=1S/C8H6O2/c9-8-5-6-3-1-2-4-7(6)10-8/h1-4H,5H2, purity 97%
Compound 5: 3-coumaranone, C8H6O2, InChI=1S/C8H6O2/c9-7-5-10-8-4-2-1-3-6(7)8/h1-4H,5H2, purity 98%

System: 2-coumaranone; phases: Crystal, Gas
Property: Molar enthalpy of vaporization or sublimation, kJ/mol (Crystal); method: Static calorimetry
Temperature, K	Molar enthalpy of vaporization or sublimation, kJ/mol	uncertainty
298.15	78.7	1.7

System: 3-coumaranone; phases: Crystal, Gas
Property: Molar enthalpy of vaporization or sublimation, kJ/mol (Crystal); method: Static calorimetry
Temperature, K	Molar enthalpy of vaporization or sublimation, kJ/mol	uncertainty
298.15	85.8	1.7

Reaction: -1 2-coumaranone + 8 carbon dioxide + 3 water + -8.5 oxygen
Property: Specific internal energy of reaction at constant volume, J/g
-27673.6

Reaction: -1 3-coumaranone + 8 carbon dioxide + 3 water + -8.5 oxygen
Property: Specific internal energy of reaction at constant volume, J/g
-27953.1
