Measured thermophysical data. Vapor pressure and vaporization enthalpy studies of (+)-longifolene, (-)-isolongifolene and beta-myrcene by correlation gas chromatography
Source: J. Chem. Thermodyn., 2019, 10.1016/j.jct.2018.12.013
Compound 1: 2-methyl-6-methylene-2,7-octadiene, C10H16, InChI=1S/C10H16/c1-5-10(4)8-6-7-9(2)3/h5,7H,1,4,6,8H2,2-3H3
Compound 2: (+)-longifolene, C15H24, InChI=1S/C15H24/c1-10-11-6-7-12-13(11)14(2,3)8-5-9-15(10,12)4/h11-13H,1,5-9H2,2-4H3/t11-,12-,13+,15+/m0/s1, purity 98%
Compound 3: (-)-isolongifolene, C15H24, InChI=1S/C15H24/c1-13(2)8-5-6-12-14(3,4)11-7-9-15(12,13)10-11/h6,11H,5,7-10H2,1-4H3/t11-,15-/m0/s1, purity 98%

System: 2-methyl-6-methylene-2,7-octadiene; phases: Liquid, Gas
Property: Molar enthalpy of vaporization or sublimation, kJ/mol (Liquid); method: Correlation gas chromatography
Temperature, K	Molar enthalpy of vaporization or sublimation, kJ/mol	uncertainty
298.15	49.9	7.1

System: 2-methyl-6-methylene-2,7-octadiene; phases: Liquid, Gas
Property: Vapor or sublimation pressure, kPa (Liquid); method: Gas chromatography
Temperature, K	Vapor or sublimation pressure, kPa	uncertainty
287.7	0.1	0.01
297.15	0.21	0.021
298.15	0.22	0.043
313.2	0.57	0.127
320.4	0.87	0.171
323.2	1	0.212
328.2	1.3	0.22
330	1.5	0.227
333.3	1.8	0.42
338.2	2.3	0.432
340.2	2.5	0.438
343.5	2.9	0.45
348.2	3.7	0.655
353.2	4.6	0.683
353.4	4.6	0.683
355.8	5.2	0.704
358.2	5.7	0.896
360	6.2	0.913
363.3	7.1	0.945
365.8	7.9	0.977
366.2	8	0.981
370	9.4	1.202
371.9	10	1.226
379.2	13	1.513
385	17	1.847
390	20	2.138
399.2	27	2.916
410	38	4.338
418.2	49	6.088
421.5	54	5.407
428.2	65	6.508
433.5	76	7.61
439.1	90	9.011
444.7	101	10.113

System: (+)-longifolene; phases: Liquid, Gas
Property: Molar enthalpy of vaporization or sublimation, kJ/mol (Liquid); method: Correlation gas chromatography
Temperature, K	Molar enthalpy of vaporization or sublimation, kJ/mol	uncertainty
298.15	64.3	5.2

System: (+)-longifolene; phases: Liquid, Gas
Property: Vapor or sublimation pressure, kPa (Liquid); method: Gas chromatography
Temperature, K	Vapor or sublimation pressure, kPa	uncertainty
298.15	0.0035	0.0024
310	0.0091	0.0056
320	0.019	0.011
330	0.038	0.02
340	0.073	0.036
350	0.13	0.061
360	0.24	0.094
370	0.4	0.135
378.2	0.6	0.177
380.2	0.66	0.188
386.2	0.88	0.229
388.2	0.97	0.23
392.2	1.2	0.274
393.2	1.2	0.274
395	1.3	0.276
397.2	1.5	0.299
400.2	1.7	0.323
410	2.5	0.401
419.2	3.6	0.508
424.2	4.3	0.585
430	5.4	0.695
440	7.7	0.935
450	11	1.43
460	15	1.5
470	20	2
480	27	2.701
490	36	3.601
500	47	4.701
509.2	60	6.001
520	78	7.802
527	92	9.202
528.2	94	9.402
531.2	99	9.902

System: (-)-isolongifolene; phases: Liquid, Gas
Property: Molar enthalpy of vaporization or sublimation, kJ/mol (Liquid); method: Correlation gas chromatography
Temperature, K	Molar enthalpy of vaporization or sublimation, kJ/mol	uncertainty
298.15	62.6	8.3

System: (-)-isolongifolene; phases: Liquid, Gas
Property: Vapor or sublimation pressure, kPa (Liquid); method: Gas chromatography
Temperature, K	Vapor or sublimation pressure, kPa	uncertainty
298.15	0.0043	0.0026
310	0.011	0.006
320	0.023	0.013
330	0.046	0.024
340	0.086	0.042
350	0.16	0.071
360	0.27	0.112
370	0.46	0.161
378.2	0.69	0.206
380.2	0.76	0.226
386.2	1	0.269
388.2	1.1	0.291
392.2	1.3	0.314
393.2	1.4	0.335
395	1.5	0.337
400	1.8	0.382
410	2.8	0.501
419.2	4	0.627
424.2	4.8	0.707
430	6	0.836
440	8.5	1.099
450	11.8	1.511
460	16	1.6
470	22	2.2
480	29	2.901
490	38	3.801
500	50	5.001
510	63.885	6.39
520	81	8.102
527	95.406	9.543
528.2	100	10.002
529.6	101	10.102
