Measured thermophysical data. Liquid densities, heat capacities, refractive index and excess quantities for {protic ionic liquids + water} binary system
Source: J. Chem. Thermodyn., 2009, 10.1016/j.jct.2009.01.011
Compound 1: pyrrolidinium nitrate, C4H10N2O3, InChI=1S/C4H9N.NO3/c1-2-4-5-3-1;2-1(3)4/h5H,1-4H2;/q;-1/p+1
Compound 2: pyrrolidinium hydrogen sulfate, C4H11NO4S, InChI=1S/C4H9N.H2O4S/c1-2-4-5-3-1;1-5(2,3)4/h5H,1-4H2;(H2,1,2,3,4)
Compound 3: pyrrolidinium formate, C5H11NO2, InChI=1S/C4H9N.CH2O2/c1-2-4-5-3-1;2-1-3/h5H,1-4H2;1H,(H,2,3)
Compound 4: 2,4,6-trimethylpyridinium formate, C9H13NO2, InChI=1S/C8H11N.CH2O2/c1-6-4-7(2)9-8(3)5-6;2-1-3/h4-5H,1-3H3;1H,(H,2,3)
Compound 5: ethyldiisopropylammonium formate, C9H21NO2, InChI=1S/C8H19N.CH2O2/c1-6-9(7(2)3)8(4)5;2-1-3/h7-8H,6H2,1-5H3;1H,(H,2,3)
Compound 6: water, H2O, InChI=1S/H2O/h1H2

System: pyrrolidinium nitrate; phases: Liquid
Fixed: Pressure, kPa = 101.325
Property: Molar heat capacity at constant pressure, J/K/mol (Liquid); method: Small sample (50 mg) DSC
Temperature, K	Molar heat capacity at constant pressure, J/K/mol	uncertainty
298.15	228.027596	27.4974454
303.15	227.3569266	27.4974454
308.15	227.89346212	27.4974454
313.15	227.89346212	27.4974454
318.15	228.96653316	27.63157928
323.15	229.3689348	27.76571316
328.15	229.63720256	27.76571316
333.15	230.57613972	27.89984704
338.15	231.380943	27.89984704
343.15	232.0516124	28.03398092
348.15	232.58814792	28.1681148
353.15	233.66121896	28.1681148
358.15	234.46602224	28.30224868
363.15	235.27082552	28.43638256
368.15	236.20976268	28.57051644
373.15	237.14869984	28.70465032

System: pyrrolidinium nitrate; phases: Liquid
Property: Refractive index (Na D-line) (Liquid); method: Standard Abbe refractometry
Pressure, kPa	Temperature, K	Refractive index (Na D-line)	uncertainty
101.3	298.15	1.3955	0.0009

System: pyrrolidinium nitrate; phases: Liquid
Fixed: Pressure, kPa = 101.3
Property: Mass density, kg/m3 (Liquid); method: Pycnometric method
Temperature, K	Mass density, kg/m3	uncertainty
298.15	1167.5	60
303.15	1164.4	60
308.15	1161.1	60
313.15	1157	60
318.15	1153.1	60
323.15	1149.5	60
328.15	1145.5	60
333.15	1141.2	60

System: pyrrolidinium hydrogen sulfate; phases: Liquid
Property: Mass density, kg/m3 (Liquid); method: Pycnometric method
Pressure, kPa	Temperature, K	Mass density, kg/m3	uncertainty
101.3	298.15	1342.1	60

System: pyrrolidinium formate; phases: Liquid
Property: Mass density, kg/m3 (Liquid); method: Pycnometric method
Pressure, kPa	Temperature, K	Mass density, kg/m3	uncertainty
101.3	298.15	1119	60.1

System: 2,4,6-trimethylpyridinium formate; phases: Liquid
Property: Mass density, kg/m3 (Liquid); method: Pycnometric method
Pressure, kPa	Temperature, K	Mass density, kg/m3	uncertainty
101.3	298.15	1021	60

System: ethyldiisopropylammonium formate; phases: Liquid
Property: Mass density, kg/m3 (Liquid); method: Pycnometric method
Pressure, kPa	Temperature, K	Mass density, kg/m3	uncertainty
101.3	298.15	1008.3	60

System: water; phases: Liquid
Fixed: Pressure, kPa = 101.325
Property: Molar heat capacity at constant pressure, J/K/mol (Liquid); method: Small sample (50 mg) DSC
Temperature, K	Molar heat capacity at constant pressure, J/K/mol	uncertainty
298.15	75.32188568	9.0977164
303.15	75.28585512	9.0977164
308.15	75.26783984	9.0977164
313.15	75.28585512	9.0977164
318.15	75.32188568	9.0977164
323.15	75.33990096	9.0977164
328.15	75.35791624	9.0977164
333.15	75.3939468	9.11573168
338.15	75.44799264	9.11573168
343.15	75.50203848	9.11573168
348.15	75.55608432	9.13374696
353.15	75.62814544	9.13374696
358.15	75.71822184	9.15176224
363.15	75.80829824	9.15176224
368.15	75.89837464	9.16977752
373.15	76.00646632	9.1877928

System: water; phases: Liquid
Property: Refractive index (Na D-line) (Liquid); method: Standard Abbe refractometry
Pressure, kPa	Temperature, K	Refractive index (Na D-line)	uncertainty
101.3	298.15	1.3328	0.0008

System: water; phases: Liquid
Fixed: Pressure, kPa = 101.3
Property: Mass density, kg/m3 (Liquid); method: Pycnometric method
Temperature, K	Mass density, kg/m3	uncertainty
298.15	997.1	60
303.15	995.7	60
308.15	994.1	60
313.15	992.6	60
318.15	990.2	60
323.15	988	60
328.15	985.7	60
333.15	983.1	60

System: water + pyrrolidinium nitrate; phases: Liquid
Fixed: Pressure, kPa = 101.3
Fixed: Temperature, K = 298.15
Property: Refractive index (Na D-line) (Liquid); method: Standard Abbe refractometry
Mole fraction of pyrrolidinium nitrate	Refractive index (Na D-line)	uncertainty
1	1.3955	0.0009
0.845	1.3934	0.0008
0.722	1.3897	0.0008
0.55	1.3811	0.0008
0.349	1.3684	0.0008
0.246	1.3589	0.0008
0.171	1.3517	0.0008
0.123	1.3464	0.0008
0.091	1.3424	0.0008
0.054	1.3383	0.0008
0.025	1.3354	0.0008
0	1.3328	0.0008

System: water + pyrrolidinium nitrate; phases: Liquid
Fixed: Pressure, kPa = 101.3
Property: Mass density, kg/m3 (Liquid); method: Pycnometric method
Temperature, K	Mole fraction of pyrrolidinium nitrate	Mass density, kg/m3	uncertainty
298.15	1	1167.5	60
298.15	0.9401	1164.9	60
298.15	0.8302	1159.5	60
298.15	0.7203	1152.7	60
298.15	0.6503	1146.7	60
298.15	0.4903	1128.6	60
298.15	0.3403	1099.6	60
298.15	0.261	1073.1	60
298.15	0.1702	1026	60
298.15	0.1185	997.1	60
298.15	0.0941	983.1	60
298.15	0.0554	962.3	60
298.15	0.0306	961.4	60
298.15	0.0147	969.8	60
298.15	0	997.1	60
303.15	1	1164.4	60
303.15	0.9401	1161.6	60
303.15	0.8302	1155.4	60
303.15	0.7203	1147.6	60
303.15	0.6503	1141.4	60
303.15	0.4903	1123	60
303.15	0.3403	1094.4	60
303.15	0.261	1067.5	60
303.15	0.1702	1023.4	60
303.15	0.1185	993	60
303.15	0.0941	980.5	60
303.15	0.0554	960.2	60
303.15	0.0306	957.2	60
303.15	0.0147	965.4	60
303.15	0	995.7	60
308.15	1	1161.1	60
308.15	0.9401	1158.2	60
308.15	0.8302	1151.9	60
308.15	0.7203	1143.8	60
308.15	0.6503	1137.4	60
308.15	0.4903	1119	60
308.15	0.3403	1089.5	60
308.15	0.261	1062	60
308.15	0.1702	1021.5	60
308.15	0.1185	991.7	60
308.15	0.0941	976.4	60
308.15	0.0554	956.4	60
308.15	0.0306	955.4	60
308.15	0.0147	964	60
308.15	0	994.1	60
313.15	1	1157	60
313.15	0.9401	1153.3	60
313.15	0.8302	1146.2	60
313.15	0.7203	1138.3	60
313.15	0.6503	1132.6	60
313.15	0.4903	1114.1	60
313.15	0.3403	1083.4	60
313.15	0.261	1058.3	60
313.15	0.1702	1018.8	60
313.15	0.1185	988.9	60
313.15	0.0941	973.1	60
313.15	0.0554	954.4	60
313.15	0.0306	953.5	60
313.15	0.0147	962.7	60
313.15	0	992.6	60
318.15	1	1153.1	60
318.15	0.9401	1150.4	60
318.15	0.8302	1144.2	60
318.15	0.7203	1135.9	60
318.15	0.6503	1129.3	60
318.15	0.4903	1109.5	60
318.15	0.3403	1080	60
318.15	0.261	1055	60
318.15	0.1702	1016.5	60
318.15	0.1185	987.4	60
318.15	0.0941	971.6	60
318.15	0.0554	953.8	60
318.15	0.0306	952	60
318.15	0.0147	961.8	60
318.15	0	990.2	60
323.15	1	1149.5	60
323.15	0.9401	1146.5	60
323.15	0.8302	1140.1	60
323.15	0.7203	1132.3	60
323.15	0.6503	1126.1	60
323.15	0.4903	1106.8	60
323.15	0.3403	1076.5	60
323.15	0.261	1052.7	60
323.15	0.1702	1014.4	60
323.15	0.1185	983.9	60
323.15	0.0941	968.3	60
323.15	0.0554	950.4	60
323.15	0.0306	948.9	60
323.15	0.0147	958.6	60
323.15	0	988	60
328.15	1	1145.5	60
328.15	0.9401	1142.3	60
328.15	0.8302	1135.6	60
328.15	0.7203	1127.1	60
328.15	0.6503	1121	60
328.15	0.4903	1100.6	60
328.15	0.3403	1072.9	60
328.15	0.261	1050.7	60
328.15	0.1702	1011.9	60
328.15	0.1185	980.9	60
328.15	0.0941	964.1	60
328.15	0.0554	946.5	60
328.15	0.0306	944.3	60
328.15	0.0147	955.5	60
328.15	0	985.7	60
333.15	1	1141.2	60
333.15	0.9401	1137.9	60
333.15	0.8302	1130.8	60
333.15	0.7203	1122.5	60
333.15	0.6503	1116	60
333.15	0.4903	1095.5	60
333.15	0.3403	1068.1	60
333.15	0.261	1045.4	60
333.15	0.1702	1007.3	60
333.15	0.1185	975.7	60
333.15	0.0941	961.3	60
333.15	0.0554	941.1	60
333.15	0.0306	941.4	60
333.15	0.0147	949.7	60
333.15	0	983.1	60
298.15	1	1167.5	60
298.15	0.9401	1164.9	60
298.15	0.8302	1159.5	60
298.15	0.7203	1152.7	60
298.15	0.6503	1146.7	60
298.15	0.4903	1128.6	60
298.15	0.3403	1099.6	60
298.15	0.261	1073.1	60
298.15	0.1702	1026	60
298.15	0.1185	997.1	60
298.15	0.0941	983.1	60
298.15	0.0554	962.3	60
298.15	0.0306	961.4	60
298.15	0.0147	969.8	60
298.15	0	997.1	60

System: water + pyrrolidinium nitrate; phases: Liquid
Fixed: Pressure, kPa = 101.3
Fixed: Temperature, K = 298.15
Property: Molar heat capacity at constant pressure, J/K/mol (Liquid); method: Small sample (50 mg) DSC
Mole fraction of pyrrolidinium nitrate	Molar heat capacity at constant pressure, J/K/mol	uncertainty
1	228	27.5
0.845	218.3	26.4
0.722	198.8	24
0.617	180.3	21.8
0.349	121.4	14.7
0.246	100.6	12.2
0.171	87.51	10.57
0.123	80.83	9.77
0.091	77.44	9.36
0.054	75.24	9.09
0.025	73.92	8.93
0	75.32	9.1

System: water + pyrrolidinium hydrogen sulfate; phases: Liquid
Fixed: Pressure, kPa = 101.3
Fixed: Temperature, K = 298.15
Property: Mass density, kg/m3 (Liquid); method: Pycnometric method
Mole fraction of pyrrolidinium hydrogen sulfate	Mass density, kg/m3	uncertainty
1	1342.1	60
0.489	1290.5	65.3
0.298	1218.1	64.8
0.198	1139.1	64.1
0.137	1064.6	61.7
0.096	1006	60.8
0.085	993.1	60.6
0.066	971.1	60.3
0.025	950.3	60
0.011	964.5	60
0	997.1	60

System: water + pyrrolidinium formate; phases: Liquid
Fixed: Pressure, kPa = 101.3
Fixed: Temperature, K = 298.15
Property: Mass density, kg/m3 (Liquid); method: Pycnometric method
Mole fraction of pyrrolidinium formate	Mass density, kg/m3	uncertainty
1	1119	60
0.5799	1108.9	64
0.3784	1099.5	63.9
0.2626	1090.7	63.8
0.1892	1082.8	63.4
0.1336	1071.7	61.7
0.0967	1061.1	60.9
0.0616	1046	60.3
0.0372	1031	60.1
0.0173	1015	60
0	997	60

System: water + 2,4,6-trimethylpyridinium formate; phases: Liquid
Fixed: Pressure, kPa = 101.3
Fixed: Temperature, K = 298.15
Property: Mass density, kg/m3 (Liquid); method: Pycnometric method
Mole fraction of 2,4,6-trimethylpyridinium formate	Mass density, kg/m3	uncertainty
1	1021	60
0.4872	1049.9	63.6
0.3022	1063.8	63.7
0.1996	1067.1	63.7
0.138	1064.2	61.8
0.0973	1057.3	60.9
0.0665	1043.3	60.4
0.0438	1030.4	60.2
0.0263	1017.6	60.1
0.0119	1004.3	60
0	995	60

System: water + ethyldiisopropylammonium formate; phases: Liquid
Fixed: Pressure, kPa = 101.3
Fixed: Temperature, K = 298.15
Property: Mass density, kg/m3 (Liquid); method: Pycnometric method
Mole fraction of ethyldiisopropylammonium formate	Mass density, kg/m3	uncertainty
1	1008.3	60
0.8343	1010	62.3
0.6958	1011.7	63.3
0.5848	1013.4	63.3
0.5383	1014.2	63.3
0.4777	1015.2	63.3
0.368	1017.3	63.4
0.2887	1018.7	63.4
0.1522	1018.5	62
0.1069	1016	61
0.0776	1012.7	60.5
0.0461	1007	60.2
0.025	1002	60.1
0.0043	997.4	60
0	996.9	60
