Measured thermophysical data. Isobaric heat capacities of ethyl heptanoate and ethyl cinnamate at pressures up to 16.3 MPa
Source: J. Chem. Thermodyn., 2016, 10.1016/j.jct.2015.09.031
Compound 1: ethyl heptanoate, C9H18O2, InChI=1S/C9H18O2/c1-3-5-6-7-8-9(10)11-4-2/h3-8H2,1-2H3, purity 99.5%
Compound 2: ethyl trans-3-phenylpropenoate, C11H12O2, InChI=1S/C11H12O2/c1-2-13-11(12)9-8-10-6-4-3-5-7-10/h3-9H,2H2,1H3/b9-8+, purity 99%

System: ethyl heptanoate; phases: Liquid
Property: Molar heat capacity at constant pressure, J/K/mol (Liquid); method: Flow calorimetry
Temperature, K	Pressure, kPa	Molar heat capacity at constant pressure, J/K/mol	uncertainty
305.4	100	318.3	3.2
305.4	4040	317.7	3.2
305.4	8190	317.3	3.2
305.4	12090	316.8	3.2
305.5	16070	316.4	3.2
315.7	100	322.5	3.3
315.8	4190	322	3.3
315.9	8150	321.6	3.2
315.9	12260	320.5	3.2
316	16160	319.6	3.2
326.5	100	326.8	3.3
326.5	4140	325.9	3.3
326.6	8170	325.2	3.3
326.6	12110	324.3	3.3
326.2	16030	323.6	3.3
335.3	100	330.3	3.3
335.3	4060	330.1	3.3
335.4	8050	328.6	3.3
335.4	12030	327.6	3.3
335.5	16070	326.9	3.3
345.1	100	334.2	3.4
345.2	4070	333.5	3.4
345.6	8230	332.5	3.4
345.7	12160	332.2	3.4
345.7	16230	330.5	3.3
354.2	100	337.8	3.4
354.2	4120	337.3	3.4
354.3	8010	336.5	3.4
354.4	12390	335.6	3.4
354.5	16250	334.5	3.4
364.9	100	342.1	3.5
365.3	3870	341.3	3.4
365.6	8320	340.3	3.4
365.7	12160	339.5	3.4
365.8	15950	338.3	3.4
374.8	100	346.1	3.5
375	3980	345.5	3.5
375.5	8020	344	3.5
375.7	12070	342.6	3.5
375.9	16040	341.4	3.4
384	100	349.8	3.5
385	4020	349.1	3.5
385.4	8040	347.1	3.5
385.5	11880	346.1	3.5
385.7	15890	345.6	3.5

System: ethyl trans-3-phenylpropenoate; phases: Liquid
Property: Molar heat capacity at constant pressure, J/K/mol (Liquid); method: Flow calorimetry
Temperature, K	Pressure, kPa	Molar heat capacity at constant pressure, J/K/mol	uncertainty
306.7	100	299.7	3
306.7	3970	297.7	3
306.8	7840	297.2	3
306.9	11640	295.5	3
307.1	15780	294.4	3
315.8	100	302.2	3.1
315.8	4120	301.9	3.1
315.9	8120	300.4	3
316	11870	299.4	3
316.1	15790	297.4	3
325.2	100	307.1	3.1
325.5	3970	304.6	3.1
325.6	8000	303	3.1
325.8	11720	301.8	3
325.8	16030	301	3
334.6	100	311.1	3.1
334.8	3970	309.5	3.1
334.9	8070	308	3.1
335	11750	306.6	3.1
335.1	16080	303.6	3.1
345.1	100	315.3	3.2
345.2	3910	313.4	3.2
345.3	7970	312	3.2
345.4	11840	310.1	3.1
345.6	15760	308.2	3.1
355.6	100	320.2	3.2
355.7	3930	316.6	3.2
355.8	7990	315.4	3.2
355.3	11990	313.5	3.2
355.5	16020	312.1	3.2
366	100	324.5	3.3
366.3	4210	321.3	3.2
366.5	8030	319.6	3.2
366.6	12140	318.6	3.2
366.9	16090	316.8	3.2
375.6	100	328.3	3.3
375.8	4120	326	3.3
375.9	8030	323.8	3.3
376.2	12180	321.6	3.2
376.4	16170	320.4	3.2
385.6	100	332.5	3.4
385.9	4170	330.4	3.3
386.1	8090	329.1	3.3
386.3	12160	327.2	3.3
386.5	16040	325.7	3.3
