Measured thermophysical data. Measurement and modelling of binary (solid + liquid + vapour) equilibria involving lipids and CO2
Source: J. Chem. Thermodyn., 2014, 10.1016/j.jct.2013.10.007
Compound 1: glycerol trioctadecanoate, C57H110O6, InChI=1S/C57H110O6/c1-4-7-10-13-16-19-22-25-28-31-34-37-40-43-46-49-55(58)61-52-54(63-57(60)51-48-45-42-39-36-33-30-27-24-21-18-15-12-9-6-3)53-62-56(59)50-47-44-41-38-35-32-29-26-23-20-17-14-11-8-5-2/h54H,4-53H2,1-3H3, purity 99%

System: glycerol trioctadecanoate; phases: Crystal, Liquid, Air at 1 atmosphere
Property: Molar enthalpy of transition or fusion, kJ/mol (Crystal); method: DSC
Molar enthalpy of transition or fusion, kJ/mol	uncertainty
115.71406506	35.721591579

System: glycerol trioctadecanoate; phases: Crystal, Liquid, Air at 1 atmosphere
Property: Normal melting temperature, K (Crystal); method: DTA
Normal melting temperature, K	uncertainty
346.04	0.53
