Measured thermophysical data. Thermodynamic equilibrium of the polyethylene glycol 2000 and sulphate salts solutions
Source: J. Chem. Thermodyn., 2014, 10.1016/j.jct.2013.10.015
Compound 1: magnesium sulfate, MgO4S, InChI=1S/Mg.H2O4S/c;1-5(2,3)4/h;(H2,1,2,3,4)/q+2;/p-2, purity 98%
Compound 2: sodium sulfate, Na2O4S, InChI=1S/2Na.H2O4S/c;;1-5(2,3)4/h;;(H2,1,2,3,4)/q2*+1;/p-2, purity 99%
Compound 3: zinc sulfate, O4SZn, InChI=1S/H2O4S.Zn/c1-5(2,3)4;/h(H2,1,2,3,4);/q;+2/p-2, purity 98%
Compound 4: aluminum sulfate, Al2O12S3, InChI=1S/2Al.3H2O4S/c;;3*1-5(2,3)4/h;;3*(H2,1,2,3,4)/q2*+3;;;/p-6, purity 98.5%
Compound 5: ammonium sulfate, H8N2O4S, InChI=1S/2H3N.H2O4S/c;;1-5(2,3)4/h2*1H3;(H2,1,2,3,4), purity 99%
Compound 6: water, H2O, InChI=1S/H2O/h1H2

System: magnesium sulfate + water; phases: Liquid
Fixed: Pressure, kPa = 101
Fixed: Temperature, K = 298.15
Property: (Relative) activity of water (Liquid); method: isopiestic
Molality, mol/kg of magnesium sulfate	(Relative) activity of water	uncertainty
0.767	0.988	0.004
0.348	0.995	0.004
0.574	0.992	0.004
0.291	0.997	0.004
0.436	0.994	0.004

System: water + sodium sulfate; phases: Liquid
Fixed: Pressure, kPa = 101
Fixed: Temperature, K = 298.15
Property: (Relative) activity of water (Liquid); method: isopiestic
Molality, mol/kg of sodium sulfate	(Relative) activity of water	uncertainty
2.711	0.89	0.004
0.844	0.968	0.004
1.432	0.946	0.004
0.671	0.975	0.004
1.043	0.96	0.004

System: water + zinc sulfate; phases: Liquid
Fixed: Pressure, kPa = 101
Fixed: Temperature, K = 298.15
Property: (Relative) activity of water (Liquid); method: isopiestic
Molality, mol/kg of zinc sulfate	(Relative) activity of water	uncertainty
2.105	0.89	0.004
1.098	0.968	0.004
1.352	0.946	0.004
0.748	0.975	0.004
1.147	0.96	0.004

System: water + aluminum sulfate; phases: Liquid
Fixed: Pressure, kPa = 101
Fixed: Temperature, K = 298.15
Property: (Relative) activity of water (Liquid); method: isopiestic
Molality, mol/kg of aluminum sulfate	(Relative) activity of water	uncertainty
0.31	0.988	0.004
0.167	0.995	0.004
0.261	0.992	0.004
0.148	0.997	0.004
0.226	0.994	0.004

System: water + ammonium sulfate; phases: Liquid
Fixed: Pressure, kPa = 101
Fixed: Temperature, K = 298.15
Property: (Relative) activity of water (Liquid); method: isopiestic
Molality, mol/kg of ammonium sulfate	(Relative) activity of water	uncertainty
2.659	0.912	0.004
0.596	0.981	0.004
1.191	0.963	0.004
0.767	0.976	0.004
