Measured thermophysical data. Accurate DSC measurement of the phase transition temperature in the TBPB water system
Source: J. Chem. Thermodyn., 2013, 10.1016/j.jct.2013.02.005
Compound 1: sodium chloride, ClNa, InChI=1S/ClH.Na/h1H;/q;+1/p-1, purity 99.5%
Compound 2: water, H2O, InChI=1S/H2O/h1H2
Compound 3: tetrabutylphosphonium bromide, C16H36BrP, InChI=1S/C16H36P.BrH/c1-5-9-13-17(14-10-6-2,15-11-7-3)16-12-8-4;/h5-16H2,1-4H3;1H/q+1;/p-1, purity 99%

System: sodium chloride + water; phases: Crystal, Crystal of intercomponent compound 1, Liquid, Air at 1 atmosphere
Property: Eutectic temperature, K (Crystal); method: DTA
Eutectic temperature, K	uncertainty
252	0.5

System: sodium chloride + water; phases: Liquid, Crystal
Fixed: Pressure, kPa = 101
Property: Solid-liquid equilibrium temperature, K (Liquid); method: DTA
Mass fraction of sodium chloride	Solid-liquid equilibrium temperature, K	uncertainty
0.1	266.6	0.4
0.15	262.3	0.4
0.18	259.1	0.4

System: tetrabutylphosphonium bromide + water; phases: Crystal, Crystal of intercomponent compound 1, Liquid, Air at 1 atmosphere
Property: Eutectic temperature, K (Crystal); method: DTA
Eutectic temperature, K	uncertainty
272.6	0.5

System: tetrabutylphosphonium bromide + water; phases: Liquid, Crystal of intercomponent compound 1
Fixed: Pressure, kPa = 101
Property: Solid-liquid equilibrium temperature, K (Liquid); method: DTA
Mass fraction of tetrabutylphosphonium bromide	Solid-liquid equilibrium temperature, K	uncertainty
0.1	278.8	0.4
0.15	280.2	0.4
0.2	281.3	0.4
0.25	281.9	0.4
0.3	282.1	0.4
0.35	282.1	0.4
0.37	282.1	0.4
