Measured thermophysical data. Thermochemistry of ionic liquid-catalysed reactions. Isomerisation  and transalkylation of tert-alkyl-benzenes. Are these systems ideal?
Source: J. Chem. Thermodyn., 2010, 10.1016/j.jct.2010.01.006
Compound 1: benzene, C6H6, InChI=1S/C6H6/c1-2-4-6-5-3-1/h1-6H
Compound 2: 1,3-di-tert-butylbenzene, C14H22, InChI=1S/C14H22/c1-13(2,3)11-8-7-9-12(10-11)14(4,5)6/h7-10H,1-6H3
Compound 3: 1,4-bis(1,1-dimethylethyl)benzene, C14H22, InChI=1S/C14H22/c1-13(2,3)11-7-9-12(10-8-11)14(4,5)6/h7-10H,1-6H3
Compound 4: 1,3-di-tert-pentylbenzene, C16H26, InChI=1S/C16H26/c1-7-15(3,4)13-10-9-11-14(12-13)16(5,6)8-2/h9-12H,7-8H2,1-6H3
Compound 5: 1,4-bis(1,1-dimethylpropyl)benzene, C16H26, InChI=1S/C16H26/c1-7-15(3,4)13-9-11-14(12-10-13)16(5,6)8-2/h9-12H,7-8H2,1-6H3
Compound 6: toluene, C7H8, InChI=1S/C7H8/c1-7-5-3-2-4-6-7/h2-6H,1H3
Compound 7: (1,1-dimethylpropyl)benzene, C11H16, InChI=1S/C11H16/c1-4-11(2,3)10-8-6-5-7-9-10/h5-9H,4H2,1-3H3, purity 97%
Compound 8: 1-(1,1-dimethylpropyl)-4-methylbenzene, C12H18, InChI=1S/C12H18/c1-5-12(3,4)11-8-6-10(2)7-9-11/h6-9H,5H2,1-4H3
Compound 9: 1,3-dimethylbenzene, C8H10, InChI=1S/C8H10/c1-7-4-3-5-8(2)6-7/h3-6H,1-2H3
Compound 10: 1,2-dimethylbenzene, C8H10, InChI=1S/C8H10/c1-7-5-3-4-6-8(7)2/h3-6H,1-2H3
Compound 11: (1,1-dimethylethyl)benzene, C10H14, InChI=1S/C10H14/c1-10(2,3)9-7-5-4-6-8-9/h4-8H,1-3H3
Compound 12: 1-(1,1-dimethylpropyl)-3-methylbenzene, C12H18, InChI=1S/C12H18/c1-5-12(3,4)11-8-6-7-10(2)9-11/h6-9H,5H2,1-4H3
Compound 13: 1,3-dimethyl-5-(tert-pentyl)benzene, C13H20, InChI=1S/C13H20/c1-6-13(4,5)12-8-10(2)7-11(3)9-12/h7-9H,6H2,1-5H3
Compound 14: 1,2-dimethyl-4-(tert-pentyl)benzene, C13H20, InChI=1S/C13H20/c1-6-13(4,5)12-8-7-10(2)11(3)9-12/h7-9H,6H2,1-5H3

Reaction: -1 benzene + 2 (1,1-dimethylethyl)benzene + -1 1,3-di-tert-butylbenzene
Property: Thermodynamic equilibrium constant
8.5
8.1
8.6
8.7
9
8.1
8.4
8.8

Reaction: -1 1,4-bis(1,1-dimethylethyl)benzene + 1 1,3-di-tert-butylbenzene
Property: Thermodynamic equilibrium constant
1.15
1.13
1.13
1.13
1.18
1.24
1.23
1.28

Reaction: -1 benzene + 2 (1,1-dimethylpropyl)benzene + -1 1,3-di-tert-pentylbenzene
Property: Thermodynamic equilibrium constant
9.3
9.2
9.5
9.8
11.2
9.3
9.5
9.3
8.9
9.9
8.1
9.3
8.8
9
12.1
9.7
7.1
9
9.4
9.1
8.7
9.3
12
9.4
5.2
9.2
8.6
9.4
8.4
7.8
8.4
10.6
8.5
9.3
8.7
8.7
8.3
8.4

Reaction: 1 1,3-di-tert-pentylbenzene + -1 1,4-bis(1,1-dimethylpropyl)benzene
Property: Thermodynamic equilibrium constant
0.98
1.11
1.11
1.13
1.09
1.01
1.12
1.14
1.12
1.14
1.12
1.32
1.03
0.94
1.12
1.12
1.15
1.12
1.16
1.02
1.13
1.14
1.21
1.31
0.97
0.96
1.13
1.18
1.15
1.11
1.02
1.19
1.14
1.22
1.35
1.03
0.95
1.11
1.11
1.18
1.22
0.97
1.11
1.13
1.15
1.24
0.95
0.97
0.97
1.12
1.12
1.21
1.25
0.97
0.96
1.13
1.12
1.22
1.26
0.97
1.12
1.12
1.25
1.3
1.27
1.27

Reaction: 1 benzene + -1 toluene + -1 (1,1-dimethylpropyl)benzene + 1 1-(1,1-dimethylpropyl)-3-methylbenzene
Property: Thermodynamic equilibrium constant
0.49
0.58
0.37
0.45
0.34
0.56
0.38
0.47
0.53
0.53
0.47
0.35
0.55
0.39
0.47
0.48
0.37
0.45
0.38
0.54
0.36
0.45
0.37
0.48
0.44
0.36

Reaction: -1 1-(1,1-dimethylpropyl)-4-methylbenzene + 1 1-(1,1-dimethylpropyl)-3-methylbenzene
Property: Thermodynamic equilibrium constant
2.58
2.38
2.59
2.87
2.18
2.57
2.58
2.88
2.31
2.57
2.86
2.19
2.61
2.57
2.84
2.26
2.59
2.59
2.87
2.23
2.59
2.6
2.86
2.2
2.57
2.87
2.21
2.38
2.61

Reaction: 1 benzene + -1 1,3-dimethylbenzene + -1 (1,1-dimethylpropyl)benzene + 1 1,3-dimethyl-5-(tert-pentyl)benzene
Property: Thermodynamic equilibrium constant
0.15
0.15
0.15
0.15
0.14
0.15
0.16
0.13
0.12
0.13
0.14
0.14
0.12
0.12
0.14
0.14
0.13
0.14

Reaction: 1 benzene + -1 1,2-dimethylbenzene + -1 (1,1-dimethylpropyl)benzene + 1 1,2-dimethyl-4-(tert-pentyl)benzene
Property: Thermodynamic equilibrium constant
0.32
0.33
0.32
0.36
0.3
0.3
0.35
0.29
0.3
0.35
0.3
0.31
0.31
0.3
0.29
0.29
