Measured thermophysical data. (Liquid + liquid) equilibria of (water + propionic acid + 2-ethyl-1-hexanol): Experimental data and correlation
Source: J. Chem. Thermodyn., 2008, 10.1016/j.jct.2008.01.001
Compound 1: 2-ethyl-1-hexanol, C8H18O, InChI=1S/C8H18O/c1-3-5-6-8(4-2)7-9/h8-9H,3-7H2,1-2H3, purity 99.5%
Compound 2: propanoic acid, C3H6O2, InChI=1S/C3H6O2/c1-2-3(4)5/h2H2,1H3,(H,4,5), purity 99.8%
Compound 3: water, H2O, InChI=1S/H2O/h1H2

System: 2-ethyl-1-hexanol; phases: Liquid, Gas
Property: Normal boiling temperature, K (Liquid); method: Ebulliometric method (Recirculating still)
Normal boiling temperature, K	uncertainty
458.2	0.02

System: 2-ethyl-1-hexanol; phases: Liquid
Property: Refractive index (Na D-line) (Liquid); method: Standard Abbe refractometry
Temperature, K	Pressure, kPa	Refractive index (Na D-line)	uncertainty
273.15	101.325	1.3718	0.0004

System: 2-ethyl-1-hexanol; phases: Liquid
Property: Mass density, kg/m3 (Liquid); method: PYCNOM:UFactor:4
Temperature, K	Pressure, kPa	Mass density, kg/m3	uncertainty
273.15	101.325	832.3	1.2

System: propanoic acid; phases: Liquid, Gas
Property: Normal boiling temperature, K (Liquid); method: Ebulliometric method (Recirculating still)
Normal boiling temperature, K	uncertainty
414.1	0.02

System: propanoic acid; phases: Liquid
Property: Refractive index (Na D-line) (Liquid); method: Standard Abbe refractometry
Temperature, K	Pressure, kPa	Refractive index (Na D-line)	uncertainty
273.15	101.325	1.3811	0.0004

System: propanoic acid; phases: Liquid
Property: Mass density, kg/m3 (Liquid); method: PYCNOM:UFactor:2
Temperature, K	Pressure, kPa	Mass density, kg/m3	uncertainty
273.15	101.325	992.7	0.4

System: 2-ethyl-1-hexanol + water; phases: Liquid mixture 1, Liquid mixture 2
Fixed: Pressure, kPa = 101
Property: Mole fraction of water (Liquid mixture 1); method: CHROM:UFactor:4
Temperature, K	Mole fraction of water	uncertainty
298.15	0.9999	0.0001
303.15	0.986	0.01
308.15	0.9948	0.0052

System: 2-ethyl-1-hexanol + water; phases: Liquid mixture 2, Liquid mixture 1
Fixed: Pressure, kPa = 101
Property: Mole fraction of water (Liquid mixture 2); method: CHROM:UFactor:4
Temperature, K	Mole fraction of water	uncertainty
298.15	0.0245	0.01
303.15	0.0204	0.01
308.15	0.0303	0.01

System: propanoic acid + 2-ethyl-1-hexanol + water; phases: Liquid mixture 1, Liquid mixture 2
Fixed: Pressure, kPa = 101
Property: Mole fraction of propanoic acid (Liquid mixture 1); method: CHROM:UFactor:4
Property: Mole fraction of propanoic acid (Liquid mixture 2); method: CHROM:UFactor:4
Property: Mole fraction of water (Liquid mixture 2); method: CHROM:UFactor:4
Temperature, K	Mole fraction of water	Mole fraction of propanoic acid	uncertainty	Mole fraction of propanoic acid	uncertainty	Mole fraction of water	uncertainty
298.15	0.9999	0	0.0001	0	0.0001	0.0245	
298.15	0.8867	0.1098	0.0105	0.2001	0.0118	0.075	
298.15	0.7774	0.2178	0.0118	0.321	0.0136	0.1407	
298.15	0.688	0.3048	0.0132	0.395	0.015	0.2026	
298.15	0.5389	0.43	0.0158	0.4798	0.0169	0.3005	
298.15	0.4691	0.4691	0.0166	0.4855	0.017	0.3194	
303.15	0.986	0	0.0001	0	0.0001	0.0204	
303.15	0.938	0.0611	0.0102	0.1639	0.0112	0.0973	
303.15	0.8477	0.151	0.011	0.2496	0.0123	0.1539	
303.15	0.7573	0.2409	0.0121	0.3354	0.0138	0.2104	
303.15	0.6942	0.3009	0.0132	0.3766	0.0146	0.2541	
303.15	0.6292	0.3594	0.0143	0.413	0.0154	0.3187	
303.15	0.5414	0.4169	0.0155	0.4273	0.0157	0.359	
308.15	0.9948	0	0.0001	0	0.0001	0.0303	
308.15	0.8816	0.1125	0.0105	0.1744	0.0114	0.0934	
308.15	0.7716	0.2213	0.0118	0.2768	0.0128	0.1427	
308.15	0.6897	0.3019	0.0132	0.354	0.0142	0.209	
308.15	0.6145	0.3736	0.0146	0.4106	0.0153	0.2936	
308.15	0.4959	0.4474	0.0161	0.4464	0.0161	0.3659	
308.15	0.9948	0	0.0001	0	0.0001	0.0303	
