Measured thermophysical data. (Liquid + liquid) equilibria for mixtures of (ethylene glycol + benzene + cyclohexane) at temperatures (298.15, 308.15, and 318.15) K
Source: J. Chem. Thermodyn., 2011, 10.1016/j.jct.2010.10.003
Compound 1: benzene, C6H6, InChI=1S/C6H6/c1-2-4-6-5-3-1/h1-6H, purity 99.5%
Compound 2: cyclohexane, C6H12, InChI=1S/C6H12/c1-2-4-6-5-3-1/h1-6H2, purity 99.5%
Compound 3: 1,2-ethanediol, C2H6O2, InChI=1S/C2H6O2/c3-1-2-4/h3-4H,1-2H2, purity 99.5%

System: benzene + 1,2-ethanediol + cyclohexane; phases: Liquid mixture 2, Liquid mixture 1
Fixed: Pressure, kPa = 101.325
Property: Mass fraction of benzene (Liquid mixture 2); method: Chromatography
Property: Mass fraction of 1,2-ethanediol (Liquid mixture 1); method: Chromatography
Property: Mass fraction of benzene (Liquid mixture 1); method: Chromatography
Temperature, K	Mass fraction of 1,2-ethanediol	Mass fraction of benzene	uncertainty	Mass fraction of 1,2-ethanediol	uncertainty	Mass fraction of benzene	uncertainty
298.15	0.7944	0.1996	0.0058	0.0079	0.004	0.7114	
298.15	0.8234	0.1708	0.0057	0.0078	0.004	0.6391	
298.15	0.874	0.1211	0.0057	0.0072	0.004	0.5738	
298.15	0.8986	0.0969	0.0056	0.0066	0.004	0.4985	
298.15	0.9328	0.0641	0.0057	0.0058	0.004	0.4095	
298.15	0.9573	0.0385	0.0058	0.0049	0.004	0.3778	
308.15	0.7899	0.2025	0.0058	0.0112	0.004	0.6845	
308.15	0.8291	0.1637	0.0057	0.0102	0.004	0.6425	
308.15	0.8635	0.1297	0.0057	0.0095	0.004	0.5792	
308.15	0.8845	0.1091	0.0057	0.0089	0.004	0.5007	
308.15	0.9097	0.0844	0.0056	0.0082	0.004	0.4183	
308.15	0.926	0.0692	0.0055	0.0075	0.004	0.3809	
318.15	0.8302	0.1605	0.0057	0.0105	0.004	0.6478	
318.15	0.8566	0.1345	0.0057	0.0089	0.004	0.5783	
318.15	0.8831	0.1083	0.0057	0.0077	0.004	0.5108	
318.15	0.8936	0.0981	0.0056	0.0068	0.004	0.4122	
318.15	0.9058	0.0867	0.0055	0.0059	0.004	0.3871	
