Measured thermophysical data. Effect of presence of alpha-cyclodextrin and beta-cyclodextrin on solution behavior of sulfathiazole at different temperatures: Thermodynamic and spectroscopic studies
Source: J. Chem. Thermodyn., 2018, 10.1016/j.jct.2017.12.017
Compound 1: .alpha.-cyclodextrin, C36H60O30, InChI=1S/C36H60O30/c37-1-7-25-13(43)19(49)31(55-7)62-26-8(2-38)57-33(21(51)15(26)45)64-28-10(4-40)59-35(23(53)17(28)47)66-30-12(6-42)60-36(24(54)18(30)48)65-29-11(5-41)58-34(22(52)16(29)46)63-27-9(3-39)56-32(61-25)20(50)14(27)44/h7-54H,1-6H2/t7-,8-,9-,10-,11-,12-,13-,14-,15-,16-,17-,18-,19-,20-,21-,22-,23-,24-,25-,26-,27-,28-,29-,30-,31-,32-,33-,34-,35-,36-/m1/s1, purity 98%
Compound 2: .beta.-cyclodextrin, C42H70O35, InChI=1S/C42H70O35/c43-1-8-29-15(50)22(57)36(64-8)72-30-9(2-44)66-38(24(59)17(30)52)74-32-11(4-46)68-40(26(61)19(32)54)76-34-13(6-48)70-42(28(63)21(34)56)77-35-14(7-49)69-41(27(62)20(35)55)75-33-12(5-47)67-39(25(60)18(33)53)73-31-10(3-45)65-37(71-29)23(58)16(31)51/h8-63H,1-7H2/t8-,9-,10-,11-,12-,13-,14-,15-,16-,17-,18-,19-,20-,21-,22-,23-,24-,25-,26-,27-,28-,29-,30-,31-,32-,33-,34-,35-,36-,37-,38-,39-,40-,41-,42-/m1/s1, purity 98%
Compound 3: N-(2-thiazolyl)sulfanilamide, C9H9N3O2S2, InChI=1S/C9H9N3O2S2/c10-7-1-3-8(4-2-7)16(13,14)12-9-11-5-6-15-9/h1-6H,10H2,(H,11,12), purity 98%
Compound 4: water, H2O, InChI=1S/H2O/h1H2

System: .alpha.-cyclodextrin + N-(2-thiazolyl)sulfanilamide + water; phases: Liquid
Fixed: Pressure, kPa = 100
Property: Mass density, kg/m3 (Liquid); method: Vibrating tube method
Solvent: Molality, mol/kg of N-(2-thiazolyl)sulfanilamide	Temperature, K	Molality, mol/kg of .alpha.-cyclodextrin	Mass density, kg/m3	uncertainty
0.001	288.15	0	999.21	0.49
0.001	288.15	0.002	999.87	0.49
0.001	288.15	0.005	1000.84	0.49
0.001	288.15	0.0086	1001.93	0.49
0.001	288.15	0.0103	1002.47	0.49
0.005	288.15	0	999.71	0.49
0.005	288.15	0.002	1000.38	0.49
0.005	288.15	0.005	1001.34	0.49
0.005	288.15	0.008	1002.28	0.49
0.005	288.15	0.01	1002.87	0.49
0.01	288.15	0	1000.33	0.49
0.01	288.15	0.002	1001	0.49
0.01	288.15	0.005	1001.98	0.49
0.01	288.15	0.008	1002.9	0.49
0.01	288.15	0.0099	1003.46	0.49
0.001	293.15	0	998.28	0.49
0.001	293.15	0.002	998.94	0.49
0.001	293.15	0.005	999.91	0.49
0.001	293.15	0.0086	1000.99	0.49
0.001	293.15	0.0103	1001.52	0.49
0.005	293.15	0	998.79	0.49
0.005	293.15	0.002	999.45	0.49
0.005	293.15	0.005	1000.41	0.49
0.005	293.15	0.008	1001.35	0.49
0.005	293.15	0.01	1001.94	0.49
0.01	293.15	0	999.41	0.49
0.01	293.15	0.002	1000.08	0.49
0.01	293.15	0.005	1001.05	0.49
0.01	293.15	0.008	1001.96	0.49
0.01	293.15	0.0099	1002.52	0.49
0.001	298.15	0	997.13	0.49
0.001	298.15	0.002	997.78	0.49
0.001	298.15	0.005	998.75	0.49
0.001	298.15	0.0086	999.83	0.49
0.001	298.15	0.0103	1000.36	0.49
0.005	298.15	0	997.61	0.49
0.005	298.15	0.002	998.27	0.49
0.005	298.15	0.005	999.22	0.49
0.005	298.15	0.008	1000.15	0.49
0.005	298.15	0.01	1000.75	0.49
0.01	298.15	0	998.23	0.49
0.01	298.15	0.002	998.89	0.49
0.01	298.15	0.005	999.86	0.49
0.01	298.15	0.008	1000.78	0.49
0.01	298.15	0.0099	1001.33	0.49
0.001	303.15	0	995.71	0.49
0.001	303.15	0.002	996.36	0.49
0.001	303.15	0.005	997.32	0.49
0.001	303.15	0.0086	998.39	0.49
0.001	303.15	0.0103	998.92	0.49
0.005	303.15	0	996.18	0.49
0.005	303.15	0.002	996.84	0.49
0.005	303.15	0.005	997.78	0.49
0.005	303.15	0.008	998.71	0.49
0.005	303.15	0.01	999.3	0.49
0.01	303.15	0	996.81	0.49
0.01	303.15	0.002	997.48	0.49
0.01	303.15	0.005	998.44	0.49
0.01	303.15	0.008	999.35	0.49
0.01	303.15	0.0099	999.9	0.49
0.001	308.15	0	994.08	0.49
0.001	308.15	0.002	994.73	0.49
0.001	308.15	0.005	995.68	0.49
0.001	308.15	0.0086	996.74	0.49
0.001	308.15	0.0103	997.26	0.49
0.005	308.15	0	994.54	0.49
0.005	308.15	0.002	995.2	0.49
0.005	308.15	0.005	996.13	0.49
0.005	308.15	0.008	997.06	0.49
0.005	308.15	0.01	997.65	0.49
0.01	308.15	0	995.18	0.49
0.01	308.15	0.002	995.84	0.49
0.01	308.15	0.005	996.8	0.49
0.01	308.15	0.008	997.71	0.49
0.01	308.15	0.0099	998.26	0.49

System: .alpha.-cyclodextrin + N-(2-thiazolyl)sulfanilamide + water; phases: Liquid
Fixed: Pressure, kPa = 100
Fixed: Frequency, MHz = 3
Property: Speed of sound, m/s (Liquid); method: Single path-length method
Solvent: Molality, mol/kg of N-(2-thiazolyl)sulfanilamide	Temperature, K	Molality, mol/kg of .alpha.-cyclodextrin	Speed of sound, m/s	uncertainty
0.001	288.15	0	1466.6	1.7
0.001	288.15	0.002	1467.4	1.7
0.001	288.15	0.005	1468.5	1.7
0.001	288.15	0.0086	1469.5	1.7
0.001	288.15	0.0103	1469.9	1.7
0.005	288.15	0	1467.2	1.7
0.005	288.15	0.002	1468	1.7
0.005	288.15	0.005	1468.9	1.7
0.005	288.15	0.008	1469.6	1.7
0.005	288.15	0.01	1469.9	1.7
0.01	288.15	0	1468.5	1.7
0.01	288.15	0.002	1469.3	1.7
0.01	288.15	0.005	1470.2	1.7
0.01	288.15	0.008	1470.8	1.7
0.01	288.15	0.0099	1471.1	1.7
0.001	293.15	0	1482.9	1.7
0.001	293.15	0.002	1483.7	1.7
0.001	293.15	0.005	1484.8	1.7
0.001	293.15	0.0086	1485.6	1.7
0.001	293.15	0.0103	1485.9	1.7
0.005	293.15	0	1483.5	1.7
0.005	293.15	0.002	1484.2	1.7
0.005	293.15	0.005	1485.1	1.7
0.005	293.15	0.008	1485.9	1.7
0.005	293.15	0.01	1486.2	1.7
0.01	293.15	0	1484.5	1.7
0.01	293.15	0.002	1485.2	1.7
0.01	293.15	0.005	1486.1	1.7
0.01	293.15	0.008	1486.8	1.7
0.01	293.15	0.0099	1487.2	1.7
0.001	298.15	0	1497.1	1.7
0.001	298.15	0.002	1497.9	1.7
0.001	298.15	0.005	1498.9	1.7
0.001	298.15	0.0086	1499.7	1.7
0.001	298.15	0.0103	1500	1.7
0.005	298.15	0	1497.7	1.7
0.005	298.15	0.002	1498.4	1.7
0.005	298.15	0.005	1499.3	1.7
0.005	298.15	0.008	1500	1.7
0.005	298.15	0.01	1500.4	1.7
0.01	298.15	0	1498.7	1.7
0.01	298.15	0.002	1499.4	1.7
0.01	298.15	0.005	1500.3	1.7
0.01	298.15	0.008	1501	1.7
0.01	298.15	0.0099	1501.3	1.7
0.001	303.15	0	1509.6	1.7
0.001	303.15	0.002	1510.3	1.7
0.001	303.15	0.005	1511.3	1.7
0.001	303.15	0.0086	1512.1	1.7
0.001	303.15	0.0103	1512.4	1.7
0.005	303.15	0	1510	1.7
0.005	303.15	0.002	1510.7	1.7
0.005	303.15	0.005	1511.6	1.7
0.005	303.15	0.008	1512.3	1.7
0.005	303.15	0.01	1512.6	1.7
0.01	303.15	0	1510.7	1.7
0.01	303.15	0.002	1511.3	1.7
0.01	303.15	0.005	1512.2	1.7
0.01	303.15	0.008	1512.9	1.7
0.01	303.15	0.0099	1513.4	1.7
0.001	308.15	0	1520.2	1.7
0.001	308.15	0.002	1521	1.7
0.001	308.15	0.005	1522	1.7
0.001	308.15	0.0086	1522.8	1.7
0.001	308.15	0.0103	1523.1	1.7
0.005	308.15	0	1520.6	1.7
0.005	308.15	0.002	1521.3	1.7
0.005	308.15	0.005	1522.1	1.7
0.005	308.15	0.008	1522.9	1.7
0.005	308.15	0.01	1523.3	1.7
0.01	308.15	0	1521.7	1.7
0.01	308.15	0.002	1522.3	1.7
0.01	308.15	0.005	1523.1	1.7
0.01	308.15	0.008	1523.9	1.7
0.01	308.15	0.0099	1524.4	1.7

System: .beta.-cyclodextrin + N-(2-thiazolyl)sulfanilamide + water; phases: Liquid
Fixed: Pressure, kPa = 100
Property: Mass density, kg/m3 (Liquid); method: Vibrating tube method
Solvent: Molality, mol/kg of N-(2-thiazolyl)sulfanilamide	Temperature, K	Molality, mol/kg of .beta.-cyclodextrin	Mass density, kg/m3	uncertainty
0.001	288.15	0	999.21	0.49
0.001	288.15	0.002	999.95	0.49
0.001	288.15	0.0051	1001.02	0.49
0.001	288.15	0.008	1002.05	0.5
0.001	288.15	0.01	1002.71	0.5
0.005	288.15	0	999.71	0.49
0.005	288.15	0.002	1000.47	0.49
0.005	288.15	0.0049	1001.51	0.5
0.005	288.15	0.008	1002.62	0.5
0.005	288.15	0.01	1003.29	0.5
0.01	288.15	0	1000.27	0.49
0.01	288.15	0.002	1001.05	0.5
0.01	288.15	0.005	1002.19	0.5
0.01	288.15	0.008	1003.27	0.5
0.01	288.15	0.0099	1003.92	0.5
0.001	293.15	0	998.28	0.49
0.001	293.15	0.002	999.02	0.49
0.001	293.15	0.0051	1000.09	0.49
0.001	293.15	0.008	1001.11	0.49
0.001	293.15	0.01	1001.77	0.49
0.005	293.15	0	998.79	0.5
0.005	293.15	0.002	999.55	0.49
0.005	293.15	0.0049	1000.58	0.49
0.005	293.15	0.008	1001.67	0.49
0.005	293.15	0.01	1002.35	0.49
0.01	293.15	0	999.36	0.5
0.01	293.15	0.002	1000.14	0.49
0.01	293.15	0.005	1001.27	0.5
0.01	293.15	0.008	1002.35	0.5
0.01	293.15	0.0099	1003	0.49
0.001	298.15	0	997.13	0.49
0.001	298.15	0.002	997.87	0.49
0.001	298.15	0.0051	998.93	0.49
0.001	298.15	0.008	999.93	0.49
0.001	298.15	0.01	1000.58	0.49
0.005	298.15	0	997.61	0.49
0.005	298.15	0.002	998.37	0.49
0.005	298.15	0.0049	999.39	0.49
0.005	298.15	0.008	1000.48	0.49
0.005	298.15	0.01	1001.15	0.49
0.01	298.15	0	998.19	0.5
0.01	298.15	0.002	998.96	0.49
0.01	298.15	0.005	1000.08	0.49
0.01	298.15	0.008	1001.15	0.49
0.01	298.15	0.0099	1001.8	0.49
0.001	303.15	0	995.71	0.49
0.001	303.15	0.002	996.44	0.49
0.001	303.15	0.0051	997.49	0.49
0.001	303.15	0.008	998.49	0.49
0.001	303.15	0.01	999.13	0.49
0.005	303.15	0	996.18	0.49
0.005	303.15	0.002	996.93	0.49
0.005	303.15	0.0049	997.95	0.49
0.005	303.15	0.008	999.04	0.49
0.005	303.15	0.01	999.7	0.5
0.01	303.15	0	996.77	0.49
0.01	303.15	0.002	997.54	0.49
0.01	303.15	0.005	998.66	0.49
0.01	303.15	0.008	999.73	0.49
0.01	303.15	0.0099	1000.37	0.49
0.001	308.15	0	994.08	0.49
0.001	308.15	0.002	994.81	0.49
0.001	308.15	0.0051	995.86	0.49
0.001	308.15	0.008	996.85	0.49
0.001	308.15	0.01	997.49	0.49
0.005	308.15	0	994.54	0.49
0.005	308.15	0.002	995.29	0.49
0.005	308.15	0.0049	996.3	0.5
0.005	308.15	0.008	997.38	0.49
0.005	308.15	0.01	998.05	0.49
0.01	308.15	0	995.14	0.49
0.01	308.15	0.002	995.9	0.5
0.01	308.15	0.005	997.02	0.49
0.01	308.15	0.008	998.08	0.49
0.01	308.15	0.0099	998.71	0.49

System: .beta.-cyclodextrin + N-(2-thiazolyl)sulfanilamide + water; phases: Liquid
Fixed: Pressure, kPa = 100
Fixed: Frequency, MHz = 3
Property: Speed of sound, m/s (Liquid); method: Single path-length method
Solvent: Molality, mol/kg of N-(2-thiazolyl)sulfanilamide	Temperature, K	Molality, mol/kg of .beta.-cyclodextrin	Speed of sound, m/s	uncertainty
0.001	288.15	0	1466.6	1.7
0.001	288.15	0.002	1467	1.7
0.001	288.15	0.0051	1467.7	1.7
0.001	288.15	0.008	1468.7	1.7
0.001	288.15	0.01	1469.4	1.7
0.005	288.15	0	1467.2	1.7
0.005	288.15	0.002	1467.6	1.7
0.005	288.15	0.0049	1468.4	1.7
0.005	288.15	0.008	1469.4	1.7
0.005	288.15	0.01	1470	1.7
0.01	288.15	0	1468.5	1.7
0.01	288.15	0.002	1469	1.7
0.01	288.15	0.005	1469.7	1.7
0.01	288.15	0.008	1470.7	1.7
0.01	288.15	0.0099	1471.3	1.7
0.001	293.15	0	1482.9	1.7
0.001	293.15	0.002	1483.4	1.7
0.001	293.15	0.0051	1484.2	1.7
0.001	293.15	0.008	1485.1	1.7
0.001	293.15	0.01	1485.8	1.7
0.005	293.15	0	1483.5	1.7
0.005	293.15	0.002	1484	1.7
0.005	293.15	0.0049	1484.8	1.7
0.005	293.15	0.008	1485.8	1.7
0.005	293.15	0.01	1486.4	1.7
0.01	293.15	0	1484.5	1.7
0.01	293.15	0.002	1485	1.7
0.01	293.15	0.005	1485.8	1.7
0.01	293.15	0.008	1486.8	1.7
0.01	293.15	0.0099	1487.4	1.7
0.001	298.15	0	1497.1	1.7
0.001	298.15	0.002	1497.6	1.7
0.001	298.15	0.0051	1498.5	1.7
0.001	298.15	0.008	1499.6	1.7
0.001	298.15	0.01	1500.3	1.7
0.005	298.15	0	1497.7	1.7
0.005	298.15	0.002	1498.2	1.7
0.005	298.15	0.0049	1499.6	1.7
0.005	298.15	0.008	1500.6	1.7
0.005	298.15	0.01	1501.3	1.7
0.01	298.15	0	1498.7	1.7
0.01	298.15	0.002	1499.3	1.7
0.01	298.15	0.005	1500.2	1.7
0.01	298.15	0.008	1501.4	1.7
0.01	298.15	0.0099	1502.2	1.7
0.001	303.15	0	1509.6	1.7
0.001	303.15	0.002	1510.1	1.7
0.001	303.15	0.0051	1511.1	1.7
0.001	303.15	0.008	1512.2	1.7
0.001	303.15	0.01	1513	1.7
0.005	303.15	0	1510	1.7
0.005	303.15	0.002	1510.6	1.7
0.005	303.15	0.0049	1511.5	1.7
0.005	303.15	0.008	1512.5	1.7
0.005	303.15	0.01	1513.2	1.7
0.01	303.15	0	1510.7	1.7
0.01	303.15	0.002	1511.3	1.7
0.01	303.15	0.005	1512.2	1.7
0.01	303.15	0.008	1513.3	1.7
0.01	303.15	0.0099	1514	1.7
0.001	308.15	0	1520.2	1.7
0.001	308.15	0.002	1520.9	1.7
0.001	308.15	0.0051	1521.9	1.7
0.001	308.15	0.008	1523	1.7
0.001	308.15	0.01	1523.8	1.7
0.005	308.15	0	1520.6	1.7
0.005	308.15	0.002	1521.2	1.7
0.005	308.15	0.0049	1522.2	1.7
0.005	308.15	0.008	1523.2	1.7
0.005	308.15	0.01	1523.9	1.7
0.01	308.15	0	1521.7	1.7
0.01	308.15	0.002	1522.3	1.7
0.01	308.15	0.005	1523.2	1.7
0.01	308.15	0.008	1524.3	1.7
0.01	308.15	0.0099	1525	1.7

System: N-(2-thiazolyl)sulfanilamide + water; phases: Liquid
Fixed: Pressure, kPa = 100
Property: Mass density, kg/m3 (Liquid); method: Vibrating tube method
Molality, mol/kg of N-(2-thiazolyl)sulfanilamide	Temperature, K	Mass density, kg/m3	uncertainty
0.001	288.15	999.21	0.49
0.005	288.15	999.71	0.49
0.01	288.15	1000.33	0.49
0.001	293.15	998.28	0.49
0.005	293.15	998.79	0.49
0.01	293.15	999.41	0.49
0.001	298.15	997.13	0.49
0.005	298.15	997.61	0.49
0.01	298.15	998.23	0.49
0.001	303.15	995.71	0.49
0.005	303.15	996.18	0.49
0.01	303.15	996.81	0.49
0.001	308.15	994.08	0.49
0.005	308.15	994.54	0.49
0.01	308.15	995.18	0.49
0.01	288.15	1000.27	0.49
0.01	293.15	999.36	0.5
0.01	298.15	998.19	0.5
0.01	303.15	996.77	0.49
0.01	308.15	995.14	0.49

System: N-(2-thiazolyl)sulfanilamide + water; phases: Liquid
Fixed: Pressure, kPa = 100
Fixed: Frequency, MHz = 3
Property: Speed of sound, m/s (Liquid); method: Single path-length method
Molality, mol/kg of N-(2-thiazolyl)sulfanilamide	Temperature, K	Speed of sound, m/s	uncertainty
0.001	288.15	1466.6	1.8
0.005	288.15	1467.2	1.8
0.01	288.15	1468.5	1.9
0.001	293.15	1482.9	1.9
0.005	293.15	1483.5	1.9
0.01	293.15	1484.5	1.9
0.001	298.15	1497.1	1.9
0.005	298.15	1497.7	1.9
0.01	298.15	1498.7	1.9
0.001	303.15	1509.6	1.9
0.005	303.15	1510	1.9
0.01	303.15	1510.7	1.9
0.001	308.15	1520.2	1.9
0.005	308.15	1520.6	1.9
0.01	308.15	1521.7	1.9
