Measured thermophysical data. Effect of sodium chloride and myo-inositol on diphenhydramine hydrochloride drug in aqueous solution at different temperatures: Volumetric and acoustic approach
Source: J. Chem. Thermodyn., 2015, 10.1016/j.jct.2015.03.020
Compound 1: 2-diphenylmethoxy-N,N-dimethylethanamine hydrochloride, C17H22ClNO, InChI=1S/C17H21NO.ClH/c1-18(2)13-14-19-17(15-9-5-3-6-10-15)16-11-7-4-8-12-16;/h3-12,17H,13-14H2,1-2H3;1H, purity 99%
Compound 2: sodium chloride, ClNa, InChI=1S/ClH.Na/h1H;/q;+1/p-1, purity 99%
Compound 3: cis-1,2,3,5-trans-4,6-cyclohexanehexol, C6H12O6, InChI=1S/C6H12O6/c7-1-2(8)4(10)6(12)5(11)3(1)9/h1-12H/t1-,2-,3-,4+,5-,6-, purity 99%
Compound 4: water, H2O, InChI=1S/H2O/h1H2

System: water; phases: Liquid
Fixed: Pressure, kPa = 101.325
Property: Mass density, kg/m3 (Liquid); method: Pycnometric method
Temperature, K	Mass density, kg/m3	uncertainty
288.15	999.1	0.36
298.15	997.05	0.37
308.15	994.04	0.41

System: water; phases: Liquid
Fixed: Pressure, kPa = 101.325
Fixed: Frequency, MHz = 2
Property: Speed of sound, m/s (Liquid); method: Linear variable-path acoustic interferometer
Temperature, K	Speed of sound, m/s	uncertainty
288.15	1465.9	1.8
298.15	1496.7	1.8
308.15	1519.8	1.8

System: 2-diphenylmethoxy-N,N-dimethylethanamine hydrochloride + water; phases: Liquid
Fixed: Pressure, kPa = 101.325
Property: Mass density, kg/m3 (Liquid); method: Pycnometric method
Temperature, K	Molality, mol/kg of 2-diphenylmethoxy-N,N-dimethylethanamine hydrochloride	Mass density, kg/m3	uncertainty
288.15	0	999.1	0.36
288.15	0.0103	999.5	0.36
288.15	0.0169	999.78	0.36
288.15	0.0206	999.92	0.36
288.15	0.0302	1000.3	0.36
288.15	0.0356	1000.51	0.36
288.15	0.0403	1000.66	0.36
288.15	0.0506	1001.07	0.36
288.15	0.0628	1001.53	0.36
288.15	0.0711	1001.81	0.36
288.15	0.0788	1002.15	0.37
288.15	0.0865	1002.42	0.37
288.15	0.0906	1002.59	0.37
288.15	0.0987	1002.86	0.37
288.15	0.1016	1002.95	0.37
298.15	0	997.05	0.37
298.15	0.0134	997.55	0.37
298.15	0.0204	997.79	0.37
298.15	0.0251	997.98	0.37
298.15	0.0326	998.24	0.37
298.15	0.0352	998.33	0.37
298.15	0.0406	998.52	0.38
298.15	0.052	998.91	0.38
298.15	0.0605	999.19	0.38
298.15	0.0701	999.53	0.38
298.15	0.0793	999.85	0.38
298.15	0.085	1000.01	0.38
298.15	0.0911	1000.22	0.38
298.15	0.0953	1000.34	0.38
298.15	0.1032	1000.62	0.38
308.15	0	994.04	0.41
308.15	0.01	994.38	0.41
308.15	0.0234	994.83	0.42
308.15	0.0302	995.07	0.42
308.15	0.0402	995.41	0.42
308.15	0.0455	995.59	0.42
308.15	0.0518	995.8	0.42
308.15	0.055	995.91	0.42
308.15	0.0608	996.07	0.42
308.15	0.0701	996.39	0.42
308.15	0.0751	996.51	0.42
308.15	0.0832	996.8	0.42
308.15	0.0906	997.07	0.42
308.15	0.0956	997.19	0.42
308.15	0.1045	997.46	0.42

System: 2-diphenylmethoxy-N,N-dimethylethanamine hydrochloride + water; phases: Liquid
Fixed: Pressure, kPa = 101.325
Fixed: Frequency, MHz = 2
Property: Speed of sound, m/s (Liquid); method: Linear variable-path acoustic interferometer
Temperature, K	Molality, mol/kg of 2-diphenylmethoxy-N,N-dimethylethanamine hydrochloride	Speed of sound, m/s	uncertainty
288.15	0	1465.9	1.8
288.15	0.0103	1468.1	1.8
288.15	0.0169	1469.5	1.8
288.15	0.0206	1470.3	1.8
288.15	0.0302	1472.3	1.8
288.15	0.0356	1473.5	1.8
288.15	0.0403	1474.5	1.8
288.15	0.0506	1476.7	1.8
288.15	0.0628	1479.3	1.8
288.15	0.0711	1481.1	1.8
288.15	0.0788	1482.7	1.8
288.15	0.0865	1484.3	1.8
288.15	0.0906	1485.2	1.8
288.15	0.0987	1486.9	1.8
288.15	0.1016	1487.6	1.8
298.15	0	1496.7	1.8
298.15	0.0134	1499.3	1.8
298.15	0.0204	1500.7	1.8
298.15	0.0251	1501.7	1.8
298.15	0.0326	1503.2	1.8
298.15	0.0352	1503.7	1.8
298.15	0.0406	1504.7	1.8
298.15	0.052	1507	1.8
298.15	0.0605	1508.7	1.8
298.15	0.0701	1510.5	1.8
298.15	0.0793	1512.3	1.8
298.15	0.085	1513.5	1.8
298.15	0.0911	1514.7	1.8
298.15	0.0953	1515.6	1.8
298.15	0.1032	1517.2	1.8
308.15	0	1519.8	1.8
308.15	0.01	1521.7	1.8
308.15	0.0234	1524.2	1.8
308.15	0.0302	1525.5	1.8
308.15	0.0402	1527.4	1.8
308.15	0.0455	1528.4	1.8
308.15	0.0518	1529.6	1.8
308.15	0.055	1530.2	1.8
308.15	0.0608	1531.3	1.8
308.15	0.0701	1533.1	1.8
308.15	0.0751	1534	1.8
308.15	0.0832	1535.6	1.8
308.15	0.0906	1537	1.8
308.15	0.0956	1537.9	1.8
308.15	0.1045	1539.6	1.8

System: 2-diphenylmethoxy-N,N-dimethylethanamine hydrochloride + sodium chloride + water; phases: Liquid
Fixed: Solvent: Molality, mol/kg of sodium chloride = 0.06
Fixed: Pressure, kPa = 101.325
Property: Mass density, kg/m3 (Liquid); method: Pycnometric method
Temperature, K	Molality, mol/kg of 2-diphenylmethoxy-N,N-dimethylethanamine hydrochloride	Mass density, kg/m3	uncertainty
288.15	0	1001.66	0.48
288.15	0.0102	1002.06	0.48
288.15	0.0205	1002.44	0.48
288.15	0.025	1002.62	0.48
288.15	0.0331	1002.92	0.48
288.15	0.0396	1003.17	0.48
288.15	0.0501	1003.55	0.48
288.15	0.0551	1003.72	0.48
288.15	0.0606	1003.91	0.48
288.15	0.0698	1004.28	0.48
288.15	0.0754	1004.47	0.48
288.15	0.0814	1004.71	0.48
288.15	0.0897	1005.03	0.49
288.15	0.0956	1005.23	0.49
288.15	0.1145	1005.89	0.49
298.15	0	999.52	0.49
298.15	0.0102	999.88	0.49
298.15	0.0205	1000.25	0.49
298.15	0.025	1000.42	0.49
298.15	0.0331	1000.7	0.49
298.15	0.0396	1000.93	0.49
298.15	0.0501	1001.28	0.49
298.15	0.0551	1001.46	0.49
298.15	0.0606	1001.68	0.49
298.15	0.0698	1001.96	0.49
298.15	0.0754	1002.16	0.49
298.15	0.0814	1002.33	0.49
298.15	0.0897	1002.61	0.5
298.15	0.0956	1002.82	0.5
298.15	0.1145	1003.46	0.49
308.15	0	996.46	0.53
308.15	0.0101	996.8	0.53
308.15	0.0202	997.14	0.53
308.15	0.0289	997.43	0.53
308.15	0.0356	997.65	0.53
308.15	0.0407	997.82	0.53
308.15	0.0457	997.97	0.53
308.15	0.0505	998.15	0.53
308.15	0.0593	998.43	0.53
308.15	0.0702	998.77	0.53
308.15	0.0793	999.07	0.53
308.15	0.0855	999.25	0.53
308.15	0.0925	999.47	0.53
308.15	0.095	999.55	0.53
308.15	0.1018	999.74	0.53

System: 2-diphenylmethoxy-N,N-dimethylethanamine hydrochloride + sodium chloride + water; phases: Liquid
Fixed: Solvent: Molality, mol/kg of sodium chloride = 0.06
Fixed: Pressure, kPa = 101.325
Fixed: Frequency, MHz = 2
Property: Speed of sound, m/s (Liquid); method: Linear variable-path acoustic interferometer
Temperature, K	Molality, mol/kg of 2-diphenylmethoxy-N,N-dimethylethanamine hydrochloride	Speed of sound, m/s	uncertainty
288.15	0	1468.2	2
288.15	0.0102	1470.3	2
288.15	0.0205	1472.5	2
288.15	0.025	1473.4	2
288.15	0.0331	1475.1	2
288.15	0.0396	1476.5	2
288.15	0.0501	1478.7	2
288.15	0.0551	1479.8	2
288.15	0.0606	1480.9	2
288.15	0.0698	1482.9	2
288.15	0.0754	1484	2
288.15	0.0814	1485.3	2
288.15	0.0897	1487	2
288.15	0.0956	1488.3	2
288.15	0.1145	1492.2	2
298.15	0	1499.2	2
298.15	0.0102	1501.2	2
298.15	0.0205	1503.2	2
298.15	0.025	1504.1	2
298.15	0.0331	1505.7	2
298.15	0.0396	1507	2
298.15	0.0501	1509.1	2
298.15	0.0551	1510.1	2
298.15	0.0606	1511.1	2
298.15	0.0698	1512.9	2
298.15	0.0754	1514	2
298.15	0.0814	1515.2	2
298.15	0.0897	1516.8	2
298.15	0.0956	1518	2
298.15	0.1145	1521.6	2
308.15	0	1523	2
308.15	0.0101	1524.7	2
308.15	0.0202	1526.7	2
308.15	0.0289	1528.2	2
308.15	0.0356	1529.5	2
308.15	0.0407	1530.5	2
308.15	0.0457	1531.5	2
308.15	0.0505	1532.4	2
308.15	0.0593	1534	2
308.15	0.0702	1536	2
308.15	0.0793	1537.7	2
308.15	0.0855	1538.8	2
308.15	0.0925	1540	2
308.15	0.095	1540.6	2
308.15	0.1018	1541.8	2

System: cis-1,2,3,5-trans-4,6-cyclohexanehexol + 2-diphenylmethoxy-N,N-dimethylethanamine hydrochloride + water; phases: Liquid
Fixed: Solvent: Molality, mol/kg of cis-1,2,3,5-trans-4,6-cyclohexanehexol = 0.06
Fixed: Pressure, kPa = 101.325
Property: Mass density, kg/m3 (Liquid); method: Pycnometric method
Temperature, K	Molality, mol/kg of 2-diphenylmethoxy-N,N-dimethylethanamine hydrochloride	Mass density, kg/m3	uncertainty
288.15	0	1003.94	0.48
288.15	0.01	1004.33	0.48
288.15	0.0199	1004.7	0.48
288.15	0.03	1005.08	0.48
288.15	0.04	1005.45	0.48
288.15	0.0484	1005.76	0.48
288.15	0.0507	1005.83	0.48
288.15	0.0558	1006.02	0.48
288.15	0.06	1006.16	0.48
288.15	0.07	1006.55	0.48
288.15	0.0797	1006.88	0.49
288.15	0.0854	1007.07	0.49
288.15	0.0892	1007.21	0.49
288.15	0.0954	1007.44	0.49
288.15	0.1001	1007.6	0.49
298.15	0	1001.89	0.49
298.15	0.01	1002.24	0.49
298.15	0.0199	1002.58	0.49
298.15	0.03	1002.91	0.49
298.15	0.04	1003.22	0.5
298.15	0.0484	1003.52	0.5
298.15	0.0507	1003.58	0.5
298.15	0.0558	1003.75	0.5
298.15	0.06	1003.91	0.5
298.15	0.07	1004.22	0.5
298.15	0.0797	1004.52	0.5
298.15	0.0854	1004.71	0.5
298.15	0.0892	1004.81	0.5
298.15	0.0954	1005.02	0.5
298.15	0.1001	1005.18	0.5
308.15	0	998.64	0.53
308.15	0.01	998.95	0.53
308.15	0.0221	999.33	0.54
308.15	0.034	999.7	0.54
308.15	0.0402	999.88	0.54
308.15	0.0461	1000.05	0.54
308.15	0.0508	1000.2	0.54
308.15	0.0556	1000.31	0.54
308.15	0.0602	1000.46	0.54
308.15	0.0655	1000.64	0.54
308.15	0.073	1000.87	0.54
308.15	0.0814	1001.1	0.54
308.15	0.0901	1001.36	0.54
308.15	0.0956	1001.49	0.54
308.15	0.1012	1001.66	0.54

System: cis-1,2,3,5-trans-4,6-cyclohexanehexol + 2-diphenylmethoxy-N,N-dimethylethanamine hydrochloride + water; phases: Liquid
Fixed: Solvent: Molality, mol/kg of cis-1,2,3,5-trans-4,6-cyclohexanehexol = 0.06
Fixed: Pressure, kPa = 101.325
Fixed: Frequency, MHz = 2
Property: Speed of sound, m/s (Liquid); method: Linear variable-path acoustic interferometer
Temperature, K	Molality, mol/kg of 2-diphenylmethoxy-N,N-dimethylethanamine hydrochloride	Speed of sound, m/s	uncertainty
288.15	0	1470	2
288.15	0.01	1472.1	2
288.15	0.0199	1474.2	2
288.15	0.03	1476.3	2
288.15	0.04	1478.4	2
288.15	0.0484	1480.1	2
288.15	0.0507	1480.7	2
288.15	0.0558	1481.7	2
288.15	0.06	1482.6	2
288.15	0.07	1484.6	2
288.15	0.0797	1486.7	2
288.15	0.0854	1487.8	2
288.15	0.0892	1488.7	2
288.15	0.0954	1490	2
288.15	0.1001	1491	2
298.15	0	1503.7	2
298.15	0.01	1505.7	2
298.15	0.0199	1507.6	2
298.15	0.03	1509.6	2
298.15	0.04	1511.6	2
298.15	0.0484	1513.3	2
298.15	0.0507	1513.7	2
298.15	0.0558	1514.7	2
298.15	0.06	1515.5	2
298.15	0.07	1517.5	2
298.15	0.0797	1519.5	2
298.15	0.0854	1520.6	2
298.15	0.0892	1521.3	2
298.15	0.0954	1522.5	2
298.15	0.1001	1523.5	2
308.15	0	1525.9	1.9
308.15	0.01	1527.8	1.9
308.15	0.0221	1530.1	1.9
308.15	0.034	1532.2	1.9
308.15	0.0402	1533.4	1.9
308.15	0.0461	1534.5	1.9
308.15	0.0508	1535.3	1.9
308.15	0.0556	1536.2	1.9
308.15	0.0602	1537	1.9
308.15	0.0655	1538.1	1.9
308.15	0.073	1539.4	2
308.15	0.0814	1540.9	2
308.15	0.0901	1542.6	2
308.15	0.0956	1543.5	2
308.15	0.1012	1544.6	2

System: sodium chloride + water; phases: Liquid
Fixed: Molality, mol/kg of sodium chloride = 0.06
Fixed: Pressure, kPa = 101.325
Property: Mass density, kg/m3 (Liquid); method: Pycnometric method
Temperature, K	Mass density, kg/m3	uncertainty
288.15	1001.66	0.48
298.15	999.52	0.49
308.15	996.46	0.53

System: sodium chloride + water; phases: Liquid
Fixed: Molality, mol/kg of sodium chloride = 0.06
Fixed: Pressure, kPa = 101.325
Fixed: Frequency, MHz = 2
Property: Speed of sound, m/s (Liquid); method: Linear variable-path acoustic interferometer
Temperature, K	Speed of sound, m/s	uncertainty
288.15	1468.2	2
298.15	1499.2	2
308.15	1523	2

System: cis-1,2,3,5-trans-4,6-cyclohexanehexol + water; phases: Liquid
Fixed: Molality, mol/kg of cis-1,2,3,5-trans-4,6-cyclohexanehexol = 0.06
Fixed: Pressure, kPa = 101.325
Property: Mass density, kg/m3 (Liquid); method: Pycnometric method
Temperature, K	Mass density, kg/m3	uncertainty
288.15	1003.94	0.48
298.15	1001.89	0.49
308.15	998.64	0.53

System: cis-1,2,3,5-trans-4,6-cyclohexanehexol + water; phases: Liquid
Fixed: Molality, mol/kg of cis-1,2,3,5-trans-4,6-cyclohexanehexol = 0.06
Fixed: Pressure, kPa = 101.325
Fixed: Frequency, MHz = 2
Property: Speed of sound, m/s (Liquid); method: Linear variable-path acoustic interferometer
Temperature, K	Speed of sound, m/s	uncertainty
288.15	1470	2
298.15	1503.7	2
308.15	1525.9	1.9
