Measured thermophysical data. Heat capacities, third-law entropies and thermodynamic functions of the geometrically frustrated antiferromagnetic spinels GeCo2O4 and GeNi2O4 from T=(0 to 400) K
Source: J. Chem. Thermodyn., 2004, 10.1016/j.jct.2003.12.011
Compound 1: GeCo2O4, Co2GeO4, InChI=1S/2Co.Ge.4O/q2*+2;+4;4*-2
Compound 2: GeNi2O4, GeNi2O4, InChI=1S/Ge.2Ni.4O/q+4;2*+2;4*-2

System: GeCo2O4; phases: Crystal
Fixed: Pressure, kPa = 101.325
Property: Molar heat capacity at constant pressure, J/K/mol (Crystal); method: Vacuum adiabatic calorimetry
Temperature, K	Molar heat capacity at constant pressure, J/K/mol	uncertainty
25.02	5.74	0.036
27.11	5.955	0.034
29.26	6.516	0.034
31.62	7.421	0.055
34.22	8.102	0.057
37.08	9.331	0.059
40.09	10.88	0.06
41.59	11.75	0.06
43.16	12.7	0.07
44.67	13.71	0.07
47.81	15.79	0.07
50.99	18.08	0.08
54.22	20.51	0.08
57.48	23.12	0.09
59.53	24.77	0.09
62.29	27.09	0.1
66.11	30.23	0.1
70.83	34.26	0.11
75.56	38.29	0.12
80.34	42.24	0.13
85.18	46.48	0.13
90.04	50.55	0.25
94.94	54.57	0.26
99.87	58.4	0.26
104.82	62.26	0.26
109.8	66.01	0.27
114.8	69.68	0.27
119.82	73.24	0.27
124.85	76.62	0.28
129.9	79.91	0.28
134.95	83.11	0.28
140.02	86.21	0.29
145.1	89.21	0.29
150.19	92.06	0.29
155.28	94.84	0.3
160.38	97.56	0.3
165.49	100.18	0.3
170.6	102.67	0.3
175.72	105.08	0.31
180.85	107.41	0.31
185.97	109.62	0.31
191.1	111.85	0.31
193.69	112.86	0.31
196.24	113.81	0.31
198.73	114.78	0.31
201.38	115.83	0.32
203.66	116.66	0.32
206.52	117.75	0.32
208.6	118.46	0.32
213.54	120.23	0.32
218.49	121.99	0.32
223.43	123.64	0.32
228.38	125.25	0.33
233.33	126.75	0.33
238.28	128.26	0.33
243.23	129.75	0.33
248.19	131.11	0.33
253.15	132.52	0.33
258.1	133.9	0.33
263.06	135.22	0.34
268.02	136.6	0.34
272.98	137.72	0.34
277.95	138.87	0.34
282.91	140	0.34
285.42	140.55	0.34
287.87	141.2	0.34
290.3	141.69	0.34
292.84	142.26	0.34
295.22	142.77	0.34
297.63	143.28	0.34
300.13	143.85	0.34
302.55	144.45	0.34
305.05	144.88	0.34
307.46	145.43	0.35
309.96	145.96	0.35
312.38	146.3	0.35
317.31	147.27	0.35
322.22	148.2	0.35
327.14	149.13	0.35
332.07	149.95	0.35
336.99	150.78	0.35
341.9	151.56	0.35
346.83	152.39	0.35
351.75	153.17	0.35
356.68	153.88	0.35
361.6	154.67	0.35
366.52	155.46	0.36
371.45	156.24	0.36
376.37	156.78	0.36
381.29	157.49	0.36
386.21	157.88	0.36
391.13	158.61	0.36
396.06	159.48	0.36

System: GeCo2O4; phases: Crystal
Fixed: Pressure, kPa = 101.325
Property: Molar heat capacity at constant pressure, J/K/mol (Crystal); method: Vacuum adiabatic calorimetry
Temperature, K	Molar heat capacity at constant pressure, J/K/mol	uncertainty
5	0.052267	0.01129
10	1.1117	0.0206
15	4.3813	0.0482
20	15.0482	0.09429
25	5.7566	0.0393
30	6.9992	0.0543
35	8.4251	0.057
40	10.829	0.062
45	13.872	0.069
50	17.356	0.076
60	25.161	0.0915
70	33.554	0.1081
80	42.104	0.1255
90	50.504	0.2511
100	58.557	0.2594
110	66.172	0.2669
120	73.314	0.2735
130	79.984	0.2802
140	86.205	0.283
150	91.992	0.291
160	97.371	0.299
170	102.37	0.299
180	107.01	0.308
190	111.31	0.308
200	115.31	0.316
210	119.01	0.316
220	122.48	0.324
230	125.72	0.324
240	128.78	0.333
250	131.66	0.333
260	134.39	0.333
270	136.96	0.341
273.15	137.74	0.341
280	139.38	0.341
290	141.68	0.341
298.15	143.44	0.341
300	143.83	0.341
310	145.86	0.349
320	147.77	0.349
330	149.59	0.349
340	151.31	0.349
350	152.93	0.349
360	154.46	0.358
370	155.89	0.358
380	157.24	0.358
390	158.57	0.358
400	159.95	0.358

System: GeCo2O4; phases: Crystal
Fixed: Pressure, kPa = 101.325
Property: Molar heat capacity at constant pressure, J/K/mol (Crystal); method: Small (less than 1 g) adiabatic calorimetry
Temperature, K	Molar heat capacity at constant pressure, J/K/mol	uncertainty
0.599	0.04007	0.020895
0.663	0.03274	0.020719
0.725	0.026987	0.020587
0.799	0.022348	0.020471
0.882	0.018468	0.020379
0.967	0.015415	0.020315
1.065	0.012921	0.020258
1.168	0.01095	0.020217
1.284	0.0092934	0.0201825
1.414	0.0079635	0.0201555
1.554	0.0069292	0.0201346
1.709	0.0061738	0.0201194
1.729	0.0060684	0.0201173
1.813	0.0058109	0.0201121
1.882	0.0056745	0.0201093
1.903	0.0055892	0.0201076
1.997	0.0054397	0.0201045
2.071	0.0054032	0.0201036
2.094	0.0052857	0.0201013
2.202	0.0053027	0.0201014
2.311	0.0053293	0.0201017
2.42	0.0054473	0.0201037
2.541	0.005548	0.0201054
2.666	0.0059012	0.0201118
2.797	0.0061811	0.0201168
2.932	0.0067766	0.0201278
3.076	0.0073691	0.0201386
3.228	0.0084021	0.0201577
3.384	0.0094733	0.0201774
3.552	0.01125	0.02021
3.721	0.013191	0.020246
3.905	0.016238	0.020302
4.093	0.019727	0.020367
4.297	0.025007	0.020465
4.5	0.0309	0.020574
4.727	0.03985	0.020739
4.954	0.050211	0.020931
5.197	0.064507	0.021193
5.45	0.081403	0.021504
5.716	0.10385	0.02191
5.991	0.12998	0.02239
6.285	0.16411	0.023
6.588	0.20334	0.02371
6.912	0.25391	0.0246
7.247	0.31218	0.02562
7.603	0.38444	0.02686
7.973	0.467	0.02827
8.365	0.56836	0.02995
8.749	0.6758	0.03173
8.768	0.68152	0.03181
9.146	0.80307	0.03371
9.201	0.82036	0.03397
9.62	0.96535	0.03635
9.642	0.97301	0.03646
10.054	1.1357	0.0389
10.117	1.1596	0.0392
10.578	1.3558	0.0424
10.618	1.3744	0.0426
11.059	1.5868	0.0458
11.628	1.8798	0.0501
12.157	2.1883	0.0545
12.773	2.5741	0.0598
13.346	2.9825	0.0654
13.814	3.332	0.0699
14.031	3.5121	0.0724
14.215	3.6565	0.0744
14.626	4.0266	0.0792
14.645	4.0578	0.0796
15.027	4.4101	0.084
15.412	4.8118	0.0892
15.428	4.8108	0.0891
15.829	5.2637	0.0949
16.071	5.5709	0.0986
16.23	5.7411	0.1005
16.528	6.1147	0.1052
16.728	6.3941	0.1091
16.901	6.6639	0.112
16.929	6.6737	0.112
17.13	6.9725	0.1155
17.33	7.2645	0.1195
17.53	7.6262	0.125
17.616	7.8172	0.1261
17.728	7.9731	0.1271
17.928	8.3156	0.1318
18.13	8.7011	0.1366
18.331	9.1043	0.1429
18.529	9.6167	0.1472
18.57	9.8132	0.1512
18.728	10.035	0.152
18.929	10.581	0.163
19.127	11.211	0.177
19.277	11.977	0.177
19.297	11.62	0.172
19.327	11.772	0.174
19.327	11.789	0.174
19.397	11.949	0.171
19.426	12.052	0.19
19.492	12.482	0.189
19.526	12.454	0.192
19.527	12.668	0.195
19.593	12.87	0.195
19.627	12.933	0.195
19.695	13.144	0.2
19.726	13.461	0.203
19.727	13.44	0.203
19.796	13.62	0.229
19.825	13.895	0.23
19.895	14.397	0.237
19.926	14.684	0.241
19.926	14.394	0.237
19.993	14.991	0.243
20.026	15.21	0.241
20.094	15.61	0.26
20.125	15.983	0.268
20.126	15.915	0.267
20.19	17.357	0.291
20.196	16.278	0.329
20.226	16.81	0.3
20.264	17.219	0.324
20.271	17.579	0.351
20.3	17.585	0.326
20.305	17.844	0.326
20.32	17.832	0.308
20.325	18.443	0.377
20.346	18.099	0.393
20.346	18.199	0.394
20.35	18.216	0.393
20.371	18.602	0.42
20.386	18.957	0.445
20.399	19.552	0.446
20.421	20.031	0.579
20.425	20.036	0.611
20.449	19.986	0.613
20.455	20.048	0.637
20.471	20.471	1.169
20.475	20.721	1.407
20.484	18.43	2.743
20.496	21.3	4.007
20.498	21.533	3.46
20.517	21.913	2.184
20.52	29.098	2.136
20.521	22.182	2.202
20.536	23.229	1.553
20.548	24.326	1.204
20.549	24.035	1.124
20.551	23.248	1.213
20.554	24.615	0.98
20.555	24.253	0.978
20.559	24.318	1.077
20.561	24.832	0.813
20.562	23.943	0.807
20.564	25.97	0.962
20.565	25.22	0.958
20.568	23.752	1.004
20.568	22.343	1.002
20.569	25.696	0.822
20.569	26.361	0.824
20.57	25.65	0.822
20.571	25.557	0.914
20.571	25.045	0.912
20.573	25.29	0.874
20.573	26.328	0.878
20.573	26.404	0.878
20.574	26.295	0.913
20.575	26.302	0.914
20.575	25.185	0.909
20.577	24.997	0.797
20.578	25.498	0.799
20.578	25.204	0.798
20.579	25.674	0.801
20.58	26.627	0.729
20.581	26.402	0.729
20.583	25.969	0.728
20.583	26.011	0.728
20.584	28.579	0.744
20.584	26.855	0.734
20.587	28.249	0.746
20.587	28.267	0.746
20.588	27.145	0.605
20.588	27.973	0.611
20.588	29.262	0.62
20.59	28.581	0.618
20.591	28.448	0.604
20.592	28.556	0.606
20.593	29.881	0.658
20.593	27.96	0.648
20.594	29.375	0.657
20.595	29.839	0.662
20.597	32.028	0.722
20.598	30.31	0.714
20.598	30.972	0.718
20.598	39.154	0.774
20.598	32.076	0.725
20.599	32.479	0.73
20.601	34.344	0.567
20.602	33.832	0.566
20.603	35.876	0.576
20.603	33.173	0.552
20.603	34.504	0.564
20.603	37.702	0.593
20.606	44.447	0.672
20.607	46.315	0.696
20.608	46.565	0.807
20.608	43.566	0.782
20.609	51.52	0.745
20.61	52.201	0.758
20.611	59.061	0.83
20.611	57.115	0.811
20.612	54.287	0.792
20.612	59.389	0.841
20.613	64.25	0.898
20.614	58.938	0.853
20.616	64.864	0.931
20.616	69.877	0.984
20.616	71.934	1.006
20.617	71.798	1.015
20.619	65.836	0.807
20.619	67.256	0.823
20.62	53.025	0.667
20.621	68.863	0.848
20.621	68.03	0.839
20.622	65.653	0.816
20.623	68.86	0.857
20.625	64.052	0.786
20.626	62.531	0.772
20.627	65.848	0.814
20.627	62.757	0.778
20.629	57.607	0.726
20.629	57.887	0.729
20.63	59.969	0.758
20.631	61.42	0.78
20.632	57.98	0.744
20.632	61.875	0.79
20.633	59.453	0.766
20.633	58.865	0.759
20.634	55.474	0.723
20.637	54.04	0.659
20.637	53.067	0.648
20.638	54.135	0.659
20.638	51.389	0.626
20.639	50.278	0.612
20.641	49.754	0.605
20.641	52.014	0.631
20.642	48.14	0.585
20.642	51.323	0.623
20.643	51.512	0.625
20.645	47.096	0.574
20.646	45.899	0.56
20.648	46.596	0.799
20.648	46.03	0.794
20.648	49.784	0.826
20.648	45.53	0.79
20.65	46.063	0.561
20.651	44.319	0.54
20.652	43.805	0.534
20.652	45.411	0.553
20.653	44.25	0.54
20.653	41.122	0.503
20.653	44.939	0.548
20.654	41.353	0.506
20.655	40.235	0.493
20.657	41.678	0.519
20.657	41.089	0.513
20.658	40.541	0.558
20.659	41.252	0.563
20.661	40.678	0.55
20.662	38.944	0.527
20.663	38.867	0.524
20.663	37.964	0.513
20.664	39.919	0.532
20.664	36.255	0.492
20.666	37.101	0.496
20.667	38.927	0.514
20.668	39.46	0.517
20.669	36.202	0.48
20.669	38.474	0.504
20.67	39.279	0.572
20.67	37.036	0.549
20.673	36.976	0.533
20.673	35.976	0.523
20.673	34.848	0.511
20.673	35.704	0.52
20.674	34.77	0.508
20.678	33.926	0.454
20.678	36.115	0.477
20.678	35.113	0.466
20.679	34.966	0.463
20.681	34.117	0.571
20.682	31.99	0.548
20.684	34.478	0.55
20.684	32.469	0.531
20.687	33.603	0.545
20.689	29.943	0.541
20.689	31.028	0.55
20.691	31.457	0.623
20.692	32.134	0.628
20.692	30.126	0.613
20.693	32.187	0.585
20.695	31.735	0.504
20.698	29.428	0.59
20.699	30.684	0.593
20.699	29.382	0.584
20.7	30.205	0.576
20.702	30.769	0.677
20.704	29.318	0.589
20.711	28.382	0.645
20.711	27.901	0.643
20.72	26.677	0.861
20.721	27.358	0.963
20.725	28.172	1.138
20.73	25.612	1.294
20.731	25.453	1.462
20.742	24.272	3.194
20.749	23.933	4.091
20.754	23.604	3.677
20.773	22.23	2.444
20.776	21.902	2.438
20.796	20.658	1.866
20.8	20.878	1.679
20.816	19.79	1.131
20.823	19.736	1.301
20.835	19.094	1.07
20.849	18.354	0.993
20.873	17.653	0.815
20.898	16.461	0.704
20.924	15.815	0.611
20.931	15.534	0.639
20.947	15.683	0.523
20.975	15.119	0.487
20.997	14.32	0.469
21.025	13.761	0.4
21.048	13.409	0.356
21.097	12.965	0.35
21.101	12.732	0.349
21.125	12.223	0.313
21.147	12.017	0.282
21.2	11.5	0.273
21.211	14.496	0.298
21.221	11.352	0.281
21.299	10.552	0.213
21.321	10.325	0.206
21.523	8.993	0.1631
21.719	8.1824	0.1332
21.915	7.5971	0.111
22.004	7.7555	0.1211
22.117	7.0532	0.1163
22.316	6.7353	0.0948
22.497	6.9399	0.0992
22.514	6.4739	0.0939
22.713	6.2912	0.0906
22.914	6.1019	0.0877
23.04	6.6227	0.0914
23.113	5.9847	0.085
23.311	5.8925	0.0832
23.509	5.8538	0.0821
23.708	5.8209	0.0813
23.906	5.772	0.0804
23.958	5.932	0.0818
24.104	5.7375	0.0802
24.302	5.7258	0.0789
24.497	5.7813	0.079
24.499	5.713	0.0783
24.699	5.7092	0.0778
24.9	5.7465	0.0777
25.2	5.7754	0.0773
25.422	5.8198	0.0772
25.599	5.8125	0.0768
25.995	5.8709	0.0764
26.195	5.8949	0.0762
26.393	5.9378	0.0762
26.993	6.0925	0.0762
27.2178	6.0917	0.0756
27.906	6.2823	0.0757
28.636	6.4955	0.0758
29.248	6.7275	0.0762
29.702	6.8761	0.0762
30.192	7.0856	0.1357
31.13	7.4658	0.1375
31.66	7.625	0.1382
32.651	7.805	0.1391
34.226	8.14	0.1408
35.908	8.8153	0.1443
37.642	9.6068	0.1483
39.482	10.532	0.153
41.457	11.608	0.158

System: GeCo2O4; phases: Crystal
Fixed: Pressure, kPa = 101.325
Property: Molar enthalpy function {Hm(T)-Hm(0)}/T, J/K/mol (Crystal); method: Vacuum adiabatic calorimetry
Temperature, K	Molar enthalpy function {Hm(T)-Hm(0)}/T, J/K/mol	uncertainty
5	0.009304	0.01012
10	0.222693	0.011899
15	0.98635	0.0174
20	2.7758	0.0264
25	4.1908	0.0291
30	4.5339	0.0491
35	4.9939	0.0501
40	5.5652	0.0512
45	6.3143	0.0527
50	7.2412	0.0546
60	9.565	0.059
70	12.389	0.065
80	15.569	0.072
90	18.986	0.2195
100	22.544	0.2228
110	26.167	0.2262
120	29.803	0.2303
130	33.409	0.2336
140	36.96	0.237
150	40.438	0.2403
160	43.83	0.2436
170	47.128	0.2469
180	50.328	0.2503
190	53.426	0.2536
200	56.421	0.2561
210	59.315	0.2594
220	62.108	0.2619
230	64.804	0.2652
240	67.407	0.2677
250	69.92	0.2702
260	72.347	0.2727
270	74.693	0.2744
273.15	75.416	0.2752
280	76.961	0.2769
290	79.153	0.2794
298.15	80.887	0.281
300	81.274	0.281
310	83.328	0.283
320	85.307	0.283
330	87.228	0.291
340	89.09	0.291
350	90.894	0.291
360	92.632	0.291
370	94.328	0.291
380	95.966	0.299
390	97.554	0.299
400	99.092	0.299

System: GeCo2O4; phases: Crystal
Fixed: Pressure, kPa = 101.325
Property: Molar entropy, J/K/mol (Crystal); method: Vacuum adiabatic calorimetry
Temperature, K	Molar entropy, J/K/mol	uncertainty
5	0.012067	0.015197
10	0.27435	0.01838
15	1.2497	0.0284
20	3.5286	0.0456
25	5.7989	0.0545
30	6.9349	0.0809
35	8.1277	0.08456
40	9.4012	0.0881
45	10.847	0.0931
50	12.486	0.0981
60	16.327	0.1089
70	20.831	0.1231
80	25.87	0.138
90	31.317	0.3475
100	37.059	0.3559
110	43	0.365
120	49.068	0.3742
130	55.203	0.3833
140	61.36	0.3924
150	67.507	0.4016
160	73.618	0.4107
170	79.673	0.4199
180	85.656	0.432
190	91.559	0.441
200	97.371	0.449
210	103.09	0.457
220	108.7	0.466
230	114.22	0.474
240	119.64	0.482
250	124.96	0.491
260	130.17	0.499
270	135.29	0.507
273.15	136.88	0.507
280	140.32	0.507
290	145.25	0.515
298.15	149.2	0.524
300	150.09	0.524
310	154.84	0.532
320	159.5	0.54
330	164.08	0.549
340	168.57	0.557
350	172.98	0.557
360	177.31	0.565
370	181.56	0.574
380	185.73	0.582
390	189.84	0.582
400	193.87	0.59

System: GeNi2O4; phases: Crystal
Fixed: Pressure, kPa = 101.325
Property: Molar heat capacity at constant pressure, J/K/mol (Crystal); method: Vacuum adiabatic calorimetry
Temperature, K	Molar heat capacity at constant pressure, J/K/mol	uncertainty
15.39	5.376	0.046
16.88	5.024	0.042
18.45	4.969	0.04
20.14	5.117	0.039
21.96	5.373	0.038
23.93	5.642	0.037
26.09	6.06	0.036
28.42	6.653	0.035
29.67	6.985	0.035
30.97	7.419	0.055
32.28	7.832	0.056
33.78	8.298	0.057
35.1	8.785	0.058
38.09	9.858	0.06
41.13	11.17	0.06
44.23	12.62	0.07
45.26	16.65	0.07
47.38	14.16	0.07
48.72	14.86	0.07
52.41	16.83	0.07
53.34	17.23	0.08
55.32	18.41	0.08
56.06	18.87	0.08
57.28	19.33	0.08
59.71	20.82	0.08
59.78	20.91	0.08
62.62	22.49	0.09
65.64	24.35	0.09
69.49	26.64	0.09
74.27	29.6	0.1
79.05	32.59	0.11
83.87	35.63	0.11
88.74	38.79	0.12
93.64	41.84	0.24
98.57	45.06	0.25
103.52	48.15	0.25
108.5	51.35	0.25
113.49	54.5	0.25
118.51	57.5	0.26
123.54	60.61	0.26
128.58	63.67	0.26
133.63	66.64	0.27
138.69	69.6	0.27
143.77	72.47	0.27
148.85	75.24	0.28
153.94	78.01	0.28
159.04	80.75	0.28
164.14	83.42	0.28
169.25	85.98	0.29
174.36	88.5	0.29
179.48	90.99	0.29
184.61	93.4	0.29
189.73	95.73	0.3
194.86	97.98	0.3
197.33	98.91	0.3
200	100.08	0.3
202.45	100.81	0.3
205.14	102.16	0.3
207.59	103.04	0.3
210.28	104.15	0.3
212.73	105.05	0.31
217.87	107.06	0.31
223.02	108.98	0.31
228.17	110.77	0.31
233.32	112.45	0.31
238.47	114.27	0.31
243.62	115.9	0.32
248.31	117.23	0.32
248.78	117.49	0.32
250.74	118.12	0.32
253.18	118.9	0.32
253.94	119.07	0.32
255.75	119.66	0.32
258.14	120.31	0.32
259.1	120.69	0.32
260.7	121.01	0.32
263.09	121.75	0.32
265.66	122.68	0.32
268.05	123.17	0.32
270.62	124.07	0.32
273.01	124.42	0.32
275.58	125.21	0.33
277.97	125.72	0.33
280.55	126.46	0.33
282.94	127.06	0.33
285.51	127.73	0.33
287.9	128.3	0.33
290.48	128.95	0.33
292.87	129.5	0.33
295.44	130.04	0.33
297.92	130.65	0.33
300.41	131.35	0.33
302.84	131.85	0.33
307.7	132.89	0.33
312.57	133.97	0.33
317.43	134.99	0.34
322.3	136	1
327.16	136.94	0.34
332.04	137.82	0.34
336.9	138.84	0.34
341.77	139.64	0.34
346.63	140.48	0.34
351.5	141.27	0.34
356.37	142.13	0.34
361.25	142.93	0.34
366.11	143.8	0.34
370.98	144.55	0.34
375.86	145.3	0.35
377.46	145.13	0.35
382.38	145.84	0.35
387.3	146.49	0.35
392.23	147.21	0.35
397.16	147.87	0.35

System: GeNi2O4; phases: Crystal
Fixed: Pressure, kPa = 101.325
Property: Molar heat capacity at constant pressure, J/K/mol (Crystal); method: Small (less than 1 g) adiabatic calorimetry
Temperature, K	Molar heat capacity at constant pressure, J/K/mol	uncertainty
0.6	0.00072893	0.02001443
0.63	0.00078534	0.02001554
0.662	0.00083793	0.02001656
0.692	0.00087543	0.02001731
0.726	0.00094356	0.02001864
0.76	0.00099872	0.02001972
0.799	0.0011222	0.0200222
0.839	0.0012309	0.0200243
0.884	0.0014422	0.0200285
0.925	0.0016247	0.0200322
0.968	0.0018796	0.0200373
1.016	0.0022153	0.0200441
1.063	0.0026409	0.0200527
1.116	0.0032085	0.0200643
1.169	0.0039232	0.0200791
1.227	0.0048875	0.0200991
1.286	0.0061297	0.0201252
1.346	0.007659	0.0201557
1.425	0.010038	0.020211
1.483	0.012503	0.020258
1.558	0.01613	0.020339
1.628	0.020044	0.020429
1.706	0.025303	0.020544
1.723	0.026764	0.020575
1.797	0.032743	0.020716
1.811	0.034262	0.020744
1.883	0.041021	0.020895
1.899	0.043285	0.020948
1.974	0.051244	0.021126
1.993	0.054218	0.021196
2.07	0.063811	0.02143
2.097	0.068566	0.021516
2.197	0.084229	0.021879
2.306	0.10424	0.02233
2.415	0.1265	0.02284
2.534	0.1544	0.02345
2.659	0.18651	0.02415
2.785	0.22229	0.02493
2.932	0.26838	0.02589
3.064	0.31373	0.02686
3.224	0.37268	0.02804
3.379	0.43446	0.02929
3.548	0.50664	0.03071
3.719	0.58443	0.0322
3.903	0.67243	0.03385
4.079	0.76116	0.03547
4.293	0.87072	0.03743
4.489	0.97712	0.03936
4.72	1.1059	0.0416
4.949	1.2399	0.0439
5.192	1.3833	0.0464
5.446	1.5386	0.049
5.714	1.7056	0.0518
5.992	1.8872	0.0548
6.289	2.0869	0.0582
6.591	2.3012	0.0617
6.922	2.5505	0.0658
7.252	2.8181	0.0701
7.408	2.9446	0.0724
7.614	3.1373	0.0754
7.81	3.312	0.0784
7.977	3.4932	0.0814
8.21	3.7307	0.0853
8.378	3.9407	0.0889
8.612	4.2149	0.0934
8.682	4.3468	0.0966
8.776	4.4625	0.0967
8.899	4.6094	0.0996
9.014	4.7879	0.1033
9.099	4.9211	0.107
9.215	5.1557	0.1096
9.292	5.3193	0.1113
9.313	5.285	0.1109
9.412	5.4754	0.1154
9.514	5.6695	0.1217
9.599	5.9283	0.1241
9.654	6.0519	0.1267
9.714	6.1217	0.1255
9.816	6.3751	0.1321
9.913	6.6154	0.1369
10.064	7.033	0.1454
10.101	7.2526	0.1503
10.113	7.2211	0.1534
10.118	7.3798	0.1541
10.166	7.3837	0.1544
10.216	7.5866	0.1516
10.265	7.7354	0.1612
10.314	7.9328	0.1667
10.364	8.1217	0.1712
10.465	8.5834	0.1836
10.514	8.8409	0.1923
10.538	9.5712	0.2622
10.565	9.0995	0.1999
10.615	9.4798	0.2117
10.638	10.328	0.194
10.665	9.7326	0.2217
10.714	10.111	0.252
10.765	10.484	0.267
10.865	11.659	0.339
10.914	12.406	0.329
10.935	15.496	0.344
10.965	13.208	0.348
11.015	13.607	0.333
11.042	14.025	0.243
11.066	14.313	0.322
11.093	14.603	0.335
11.115	14.809	0.333
11.14	15.057	0.317
11.166	15.335	0.348
11.191	15.608	0.352
11.224	15.904	0.674
11.233	16.074	0.432
11.239	15.899	0.453
11.241	16.305	0.457
11.244	16.107	0.503
11.252	16.514	0.569
11.259	16.642	0.586
11.264	16.626	0.622
11.269	16.563	0.986
11.28	16.591	0.774
11.284	16.616	0.768
11.564	16.7	2.67
11.568	16.667	1.971
11.569	16.413	1.929
11.578	16.044	1.615
11.583	15.78	1.476
11.59	15.466	1.3
11.594	15.28	1.25
11.598	14.873	1.219
11.604	14.708	1.052
11.615	14.101	1.595
11.628	13.789	0.863
11.64	13.617	0.652
11.648	13.205	0.64
11.653	13.288	0.616
11.664	12.801	0.54
11.667	12.889	0.521
11.678	12.512	0.493
11.689	12.484	0.433
11.696	12.375	0.394
11.703	12.572	0.391
11.714	12.209	0.251
11.718	12.309	0.254
11.743	11.846	0.25
11.766	11.741	0.222
11.792	11.639	0.2
11.818	12.646	0.226
11.842	11.763	0.218
11.866	11.929	0.248
11.892	12.113	0.33
11.923	13.082	0.396
11.929	12.486	0.641
11.934	12.512	0.634
11.941	12.707	0.809
11.942	12.936	0.808
11.946	12.847	0.895
11.953	13.042	1.718
11.961	13.146	1.884
11.965	13.181	2.546
11.966	13.792	2.539
11.972	13.25	3.117
11.978	13.707	4.812
11.984	13.745	5.725
11.99	14.206	4.81
11.992	14.639	3.687
11.994	14.283	3.664
12.003	15.057	2.347
12.009	15.414	2.705
12.015	15.802	1.847
12.018	15.987	1.836
12.195	16.706	4.037
12.204	16.144	2.382
12.21	15.745	1.969
12.216	15.233	1.882
12.22	14.901	1.796
12.23	14.658	1.358
12.235	14.412	1.351
12.24	14.27	1.285
12.244	13.778	1.217
12.245	14.143	1.219
12.255	13.472	1.043
12.259	13.268	1.039
12.266	12.884	1.026
12.27	12.793	0.944
12.271	12.688	0.944
12.279	12.216	0.956
12.285	12.004	0.859
12.292	11.94	0.761
12.293	11.793	0.79
12.295	11.762	0.791
12.304	11.677	0.734
12.31	11.505	0.685
12.316	11.283	1.127
12.32	11.315	0.635
12.335	10.63	0.559
12.343	10.424	0.561
12.36	10.106	0.469
12.37	9.8986	0.4472
12.385	9.75	0.399
12.394	9.4539	0.3818
12.41	9.17	0.361
12.435	9.094	0.21
12.444	8.8328	0.219
12.46	8.637	0.275
12.47	8.5656	0.2678
12.485	8.378	0.269
12.495	8.3013	0.2195
12.51	8.256	0.209
12.522	8.0977	0.2166
12.525	12.034	0.261
12.57	7.671	0.1906
12.617	7.5932	0.172
12.67	7.2187	0.1525
12.72	7.0248	0.1457
12.769	6.8424	0.1358
12.869	6.6239	0.1266
12.918	6.5039	0.1229
12.969	6.393	0.1194
13.018	6.3595	0.118
13.116	6.2064	0.1137
13.317	6.0216	0.1098
13.418	5.9422	0.1081
13.422	6.394	0.114
13.517	5.8655	0.1065
13.719	5.7317	0.1039
13.817	5.6858	0.1028
13.919	5.6325	0.1016
14.119	5.5562	0.1001
14.206	5.6007	0.1007
14.219	5.5137	0.0993
14.619	5.3893	0.0964
15.019	5.2892	0.0941
15.277	5.252	0.093
15.422	5.2026	0.092
15.824	5.1434	0.0903
15.937	5.142	0.0901
16.225	5.1021	0.0889
16.565	5.082	0.088
16.625	5.0617	0.0878
17.023	5.0382	0.0865
17.221	5.0503	0.0862
17.422	5.0307	0.0856
17.823	5.0268	0.0847
17.98	5.046	0.085
18.82	5.0683	0.0832
19.754	5.125	0.082
20.685	5.2089	0.0811
21.307	5.266	0.08
21.712	5.33	0.08
22.734	5.4791	0.0798
23.433	5.564	0.079
23.861	5.665	0.079
24.987	5.8784	0.0789
25.746	5.993	0.078
26.224	6.137	0.079
27.45	6.4168	0.078
28.316	6.615	0.078
28.826	6.754	0.077
30.176	7.1243	0.1357
31.161	7.399	0.137
31.716	7.57	0.138

System: GeNi2O4; phases: Crystal
Fixed: Pressure, kPa = 101.325
Property: Molar heat capacity at constant pressure, J/K/mol (Crystal); method: Vacuum adiabatic calorimetry
Temperature, K	Molar heat capacity at constant pressure, J/K/mol	uncertainty
5	1.2671	0.0308
10	6.8329	0.0638
15	5.2937	0.0456
20	5.1527	0.0389
25	5.8458	0.0365
30	7.0962	0.0545
35	8.7336	0.058
40	10.681	0.062
45	12.968	0.067
50	15.521	0.072
60	20.982	0.0831
70	26.986	0.0948
80	33.194	0.1073
90	39.553	0.2403
100	45.946	0.2461
110	52.276	0.2528
120	58.47	0.2586
130	64.489	0.2644
140	70.308	0.2702
150	75.908	0.276
160	81.271	0.2819
170	86.379	0.283
180	91.218	0.291
190	95.775	0.299
200	100.06	0.299
210	104.07	0.308
220	107.84	0.308
230	111.39	0.308
240	114.73	0.316
250	117.89	0.316
260	120.88	0.324
270	123.69	0.324
273.15	124.54	0.324
280	126.35	0.324
290	128.84	0.333
298.15	130.76	0.333
300	131.19	0.333
310	133.4	0.333
320	135.48	0.333
330	137.46	0.341
340	139.33	0.341
350	141.11	0.341
360	142.78	0.341
370	144.31	0.341
380	145.7	0.349
390	146.94	0.349
400	148.07	0.349

System: GeNi2O4; phases: Crystal
Fixed: Pressure, kPa = 101.325
Property: Molar enthalpy function {Hm(T)-Hm(0)}/T, J/K/mol (Crystal); method: Vacuum adiabatic calorimetry
Temperature, K	Molar enthalpy function {Hm(T)-Hm(0)}/T, J/K/mol	uncertainty
5	0.3307	0.0266
10	1.8304	0.0501
15	4.6027	0.08464
20	4.7271	0.0767
25	4.8718	0.0688
30	5.1315	0.12563
35	5.5255	0.12763
40	6.0447	0.13021
45	6.6838	0.13345
50	7.4383	0.13727
60	9.2349	0.1463
70	11.337	0.1571
80	13.678	0.1688
90	16.199	0.2652
100	18.854	0.2752
110	21.605	0.2869
120	24.421	0.2977
130	27.272	0.3093
140	30.14	0.3209
150	33.005	0.3317
160	35.855	0.3434
170	38.679	0.355
180	41.464	0.3658
190	44.204	0.3766
200	46.891	0.3875
210	49.52	0.3983
220	52.085	0.4082
230	54.587	0.4182
240	57.024	0.4282
250	59.396	0.4373
260	61.704	0.4465
270	63.949	0.4556
273.15	64.642	0.459
280	66.129	0.4648
290	68.25	0.4731
298.15	69.933	0.4797
300	70.309	0.4814
310	72.309	0.4889
320	74.25	0.4972
330	76.136	0.5047
340	77.968	0.5122
350	79.746	0.5188
360	81.474	0.5263
370	83.153	0.532
380	84.783	0.54
390	86.355	0.549
400	87.884	0.549

System: GeNi2O4; phases: Crystal
Fixed: Pressure, kPa = 101.325
Property: Molar entropy, J/K/mol (Crystal); method: Vacuum adiabatic calorimetry
Temperature, K	Molar entropy, J/K/mol	uncertainty
5	0.4285	0.0424
10	2.542	0.09188
15	6.7847	0.17286
20	8.2527	0.1786
25	9.4661	0.1721
30	10.635	0.2295
35	11.848	0.2386
40	13.138	0.2486
45	14.525	0.2594
50	16.021	0.2702
60	19.327	0.2952
70	23.007	0.3226
80	27.012	0.3525
90	31.288	0.4881
100	35.786	0.5147
110	40.463	0.5429
120	45.279	0.572
130	50.198	0.6011
140	55.192	0.6311
150	60.234	0.6618
160	65.306	0.6918
170	70.387	0.7225
180	75.463	0.7525
190	80.519	0.7832
200	85.54	0.815
210	90.52	0.8398
220	95.451	0.873
230	100.32	0.898
240	105.14	0.9312
250	109.88	0.9562
260	114.57	0.9894
270	119.18	1.0144
273.15	120.62	1.0227
280	123.73	1.0393
290	128.2	1.0726
298.15	131.8	1.0892
300	132.62	1.0975
310	136.95	1.1225
320	141.22	1.1474
330	145.42	1.1723
340	149.55	1.1973
350	153.62	1.2222
360	157.61	1.2472
370	161.55	1.2721
380	165.42	1.2887
390	169.22	1.3137
400	172.95	1.3386
