Measured thermophysical data. Surface tension and 0.1 MPa density of 1-alkyl-3-methylimidazolium tetrafluoroborates in a homologous series perspective
Source: J. Chem. Thermodyn., 2016, 10.1016/j.jct.2016.04.008
Compound 1: 1-propyl-3-methylimidazolium tetrafluoroborate, C7H13BF4N2, InChI=1S/C7H13N2.BF4/c1-3-4-9-6-5-8(2)7-9;2-1(3,4)5/h5-7H,3-4H2,1-2H3;/q+1;-1, purity 99.6%
Compound 2: 1-butyl-3-methylimidazolium tetrafluoroborate, C8H15BF4N2, InChI=1S/C8H15N2.BF4/c1-3-4-5-10-7-6-9(2)8-10;2-1(3,4)5/h6-8H,3-5H2,1-2H3;/q+1;-1, purity 99.9%
Compound 3: 1-methyl-3-pentyl-imidazolium tetrafluoroborate, C9H17BF4N2, InChI=1S/C9H17N2.BF4/c1-3-4-5-6-11-8-7-10(2)9-11;2-1(3,4)5/h7-9H,3-6H2,1-2H3;/q+1;-1, purity 99.9%
Compound 4: 1-heptyl-3-methylimidazolium tetrafluoroborate, C11H21BF4N2, InChI=1S/C11H21N2.BF4/c1-3-4-5-6-7-8-13-10-9-12(2)11-13;2-1(3,4)5/h9-11H,3-8H2,1-2H3;/q+1;-1, purity 99.5%
Compound 5: 1-nonyl-3-methylimidazolium tetrafluoroborate, C13H25BF4N2, InChI=1S/C13H25N2.BF4/c1-3-4-5-6-7-8-9-10-15-12-11-14(2)13-15;2-1(3,4)5/h11-13H,3-10H2,1-2H3;/q+1;-1, purity 99.7%
Compound 6: 1-decyl-3-methylimidazolium tetrafluoroborate, C14H27BF4N2, InChI=1S/C14H27N2.BF4/c1-3-4-5-6-7-8-9-10-11-16-13-12-15(2)14-16;2-1(3,4)5/h12-14H,3-11H2,1-2H3;/q+1;-1, purity 99.7%
Compound 7: 1-dodecyl-3-methylimidazolium tetrafluoroborate, C16H31BF4N2, InChI=1S/C16H31N2.BF4/c1-3-4-5-6-7-8-9-10-11-12-13-18-15-14-17(2)16-18;2-1(3,4)5/h14-16H,3-13H2,1-2H3;/q+1;-1, purity 99.2%

System: 1-propyl-3-methylimidazolium tetrafluoroborate; phases: Metastable liquid
Fixed: Pressure, kPa = 100
Property: Mass density, kg/m3 (Metastable liquid); method: Buoyancy - hydrostatic balance with magnetic suspension - one sinker
Temperature, K	Mass density, kg/m3	uncertainty
263.48	1263.82	0.48
267.76	1260.36	0.48
273.92	1255.4	0.48
278.64	1251.98	0.48
283.36	1248.34	0.48
288.62	1245.07	0.48
293.07	1241.48	0.48
298.18	1237.91	0.48
303.09	1234.13	0.48
308.11	1230.24	0.47
313.13	1226.49	0.47
318	1222.86	0.47
322.91	1219.26	0.47
328.37	1215.54	0.47
333.47	1211.69	0.47
337.99	1208.71	0.47
342.79	1205.15	0.47
348.01	1201.38	0.47
353	1198.22	0.47
359.33	1194.13	0.47
363.9	1190.61	0.47

System: 1-propyl-3-methylimidazolium tetrafluoroborate; phases: Metastable liquid, Air at 1 atmosphere
Property: Surface tension liquid-gas, N/m (Metastable liquid); method: Willhelmy plate method
Temperature, K	Surface tension liquid-gas, N/m	uncertainty
273.75	0.05071	0.00016
278.5	0.05051	0.00016
283.29	0.05025	0.00016
288.51	0.04999	0.00016
293.05	0.04965	0.00016
298.19	0.0495	0.00016
303.09	0.04911	0.00016
308.05	0.04873	0.00015
313.06	0.04858	0.00015
318	0.04832	0.00015
322.85	0.04795	0.00015
328.24	0.04764	0.00015
333.32	0.04728	0.00015
338.08	0.0471	0.00015
342.74	0.04686	0.00015
348.15	0.04648	0.00015
353.21	0.04616	0.00015
359.05	0.04589	0.00015
362.96	0.04551	0.00015

System: 1-propyl-3-methylimidazolium tetrafluoroborate; phases: Metastable liquid, Air at 1 atmosphere
Property: Surface tension liquid-gas, N/m (Metastable liquid); method: Ring tensiometer
Temperature, K	Surface tension liquid-gas, N/m	uncertainty
273.79	0.05133	0.00101
278.59	0.05107	0.00101
283.35	0.0508	0.00101
288.6	0.05051	0.00101
293.08	0.05023	0.00101
298.18	0.04996	0.00101
303.09	0.0496	0.001
308.08	0.04916	0.001
313.09	0.04902	0.001
318	0.04872	0.001
322.87	0.04832	0.00099
328.31	0.04795	0.00099
333.5	0.04754	0.00099
338.14	0.04743	0.00099
342.81	0.0468	0.00099
348.07	0.04679	0.00099
353.02	0.04607	0.00098
358.98	0.04594	0.00098
363.8	0.04567	0.00098

System: 1-butyl-3-methylimidazolium tetrafluoroborate; phases: Liquid
Fixed: Pressure, kPa = 100
Property: Mass density, kg/m3 (Liquid); method: Buoyancy - hydrostatic balance with magnetic suspension - one sinker
Temperature, K	Mass density, kg/m3	uncertainty
264.16	1227.3	0.58
268.12	1224.12	0.58
273.71	1219.13	0.58
278.76	1215.77	0.58
283.03	1212.73	0.58
288.51	1208.73	0.58
293.06	1205.28	0.58
298.21	1201.97	0.58
303.18	1198.44	0.58
307.95	1195.03	0.58
313.18	1191.08	0.58
318.12	1187.23	0.58
323.27	1183.84	0.58
328.23	1179.81	0.58
333.27	1176.33	0.58
338.88	1172.3	0.58
343.23	1169.53	0.58
348.21	1166.02	0.58
353.25	1162.72	0.58
358.57	1159.04	0.57
363.9	1155.79	0.57

System: 1-methyl-3-pentyl-imidazolium tetrafluoroborate; phases: Liquid
Fixed: Pressure, kPa = 100
Property: Mass density, kg/m3 (Liquid); method: Buoyancy - hydrostatic balance with magnetic suspension - one sinker
Temperature, K	Mass density, kg/m3	uncertainty
263.11	1196.7	0.4
268.47	1193.07	0.4
273.58	1189.42	0.4
278.77	1185.81	0.4
283.09	1182.43	0.4
288.3	1178.63	0.4
292.92	1175.26	0.4
298.19	1171.74	0.4
303.03	1168.37	0.4
308.1	1164.61	0.4
313	1161.19	0.4
318.13	1157.51	0.4
323.84	1154.03	0.4
328.48	1150.65	0.4
333.48	1147.02	0.4
338.25	1143.81	0.4
342.51	1140.95	0.4
348.51	1137.46	0.4
354.03	1133.59	0.4
358.73	1130.69	0.4
365.22	1126.55	0.4

System: 1-methyl-3-pentyl-imidazolium tetrafluoroborate; phases: Liquid, Air at 1 atmosphere
Property: Surface tension liquid-gas, N/m (Liquid); method: Willhelmy plate method
Temperature, K	Surface tension liquid-gas, N/m	uncertainty
283.06	0.04181	7e-05
288.31	0.04158	7e-05
292.93	0.04136	7e-05
298.2	0.0411	7e-05
303.06	0.04086	7e-05
308.1	0.0406	7e-05
313.04	0.04036	7e-05
318.17	0.04007	7e-05
323.62	0.03972	7e-05
328.31	0.03945	7e-05
333.1	0.03918	7e-05
338.23	0.03894	7e-05
342.52	0.03868	7e-05
348.11	0.03842	7e-05
353.84	0.03809	7e-05
358.37	0.03787	7e-05
364.61	0.03757	7e-05

System: 1-methyl-3-pentyl-imidazolium tetrafluoroborate; phases: Liquid, Air at 1 atmosphere
Property: Surface tension liquid-gas, N/m (Liquid); method: Ring tensiometer
Temperature, K	Surface tension liquid-gas, N/m	uncertainty
263.64	0.04308	0.00083
269.34	0.04279	0.00083
273.78	0.04267	0.00083
278.75	0.04224	0.00082
283.1	0.04219	0.00082
288.31	0.04194	0.00082
292.94	0.04169	0.00082
298.2	0.0414	0.00082
303.07	0.04117	0.00082
308.07	0.04088	0.00082
313.01	0.04064	0.00081
318.12	0.04035	0.00081
323.56	0.04002	0.00081
328.29	0.03981	0.00081
333.29	0.03949	0.00081
338.23	0.03913	0.0008
342.51	0.03895	0.0008
348.1	0.03854	0.0008
353.72	0.03821	0.0008
358.24	0.03816	0.0008
364.6	0.0376	0.00079

System: 1-heptyl-3-methylimidazolium tetrafluoroborate; phases: Liquid
Fixed: Pressure, kPa = 100
Property: Mass density, kg/m3 (Liquid); method: Buoyancy - hydrostatic balance with magnetic suspension - one sinker
Temperature, K	Mass density, kg/m3	uncertainty
263.87	1147.27	0.59
268.63	1143.58	0.59
273.63	1139.44	0.59
278.6	1136.36	0.59
283.19	1133.24	0.59
288.51	1129.35	0.59
293.3	1126.02	0.59
298.21	1122.73	0.59
303.11	1119.42	0.59
308.22	1115.86	0.59
313.23	1112.13	0.59
317.78	1108.94	0.59
322.97	1105.52	0.59
327.81	1102.47	0.59
333.04	1098.48	0.59
338.46	1095.77	0.59
342.6	1092.48	0.59
348.77	1089.11	0.59
353.97	1085.93	0.59
357.24	1082.94	0.59
364.28	1078.73	0.59

System: 1-heptyl-3-methylimidazolium tetrafluoroborate; phases: Liquid, Air at 1 atmosphere
Property: Surface tension liquid-gas, N/m (Liquid); method: Willlhelmy plate method
Temperature, K	Surface tension liquid-gas, N/m	uncertainty
283.18	0.03623	0.00011
288.47	0.03598	0.00011
293.29	0.03574	0.00011
298.21	0.03554	0.00011
303.11	0.03531	0.00011
308.19	0.0351	0.00011
313.24	0.03482	0.00011
317.81	0.0346	0.00011
323.06	0.03433	0.0001
327.8	0.03413	0.0001
333.09	0.03382	0.0001
338.61	0.03362	0.0001
342.5	0.03339	0.0001
348.76	0.03317	0.0001
353.99	0.03286	0.0001
357.12	0.03266	0.0001
364.4	0.03234	0.0001

System: 1-heptyl-3-methylimidazolium tetrafluoroborate; phases: Liquid, Air at 1 atmosphere
Property: Surface tension liquid-gas, N/m (Liquid); method: Ring tensiometer
Temperature, K	Surface tension liquid-gas, N/m	uncertainty
263.76	0.03738	0.00063
268.69	0.03721	0.00063
273.9	0.03687	0.00062
278.51	0.03666	0.00062
283.21	0.03642	0.00062
288.49	0.03615	0.00062
293.29	0.03603	0.00062
298.21	0.03576	0.00062
303.1	0.03554	0.00061
308.2	0.03518	0.00061
313.21	0.0349	0.00061
317.78	0.03474	0.00061
323	0.03445	0.0006
327.79	0.03424	0.0006
333.01	0.03387	0.0006
338.64	0.03354	0.0006
342.42	0.03344	0.0006
348.79	0.03317	0.00059
353.93	0.0328	0.00059
357.16	0.03247	0.00059
364.34	0.03197	0.00059

System: 1-nonyl-3-methylimidazolium tetrafluoroborate; phases: Liquid
Fixed: Pressure, kPa = 100
Property: Mass density, kg/m3 (Liquid); method: Buoyancy - hydrostatic balance with magnetic suspension - one sinker
Temperature, K	Mass density, kg/m3	uncertainty
269.37	1108.1	0.39
274.7	1104.14	0.39
278.49	1101.14	0.39
283.7	1097.76	0.39
288.38	1094.04	0.39
293.34	1090.55	0.39
298.3	1087.19	0.39
303.16	1084.03	0.39
308.11	1080.68	0.39
313.07	1077.08	0.39
317.8	1073.8	0.39
322.89	1070.47	0.38
328.78	1067.01	0.38
333.51	1063.61	0.38
338.65	1060.05	0.38
342.35	1057.5	0.38
348.22	1053.82	0.38
352.72	1050.55	0.38
357.94	1047.5	0.38
363.54	1043.86	0.38

System: 1-nonyl-3-methylimidazolium tetrafluoroborate; phases: Liquid, Air at 1 atmosphere
Property: Surface tension liquid-gas, N/m (Liquid); method: Willhelmy plate method
Temperature, K	Surface tension liquid-gas, N/m	uncertainty
283.61	0.03209	7e-05
288.37	0.03188	7e-05
293.36	0.03167	7e-05
298.31	0.03145	7e-05
303.12	0.03129	7e-05
308.11	0.0311	7e-05
313.06	0.03081	7e-05
317.83	0.03066	7e-05
322.9	0.03039	7e-05
328.74	0.03012	7e-05
333.58	0.02992	7e-05
338.67	0.02967	7e-05
342.48	0.02952	7e-05
348.12	0.0293	7e-05
353.08	0.02907	7e-05
357.99	0.02886	7e-05
363.61	0.02861	7e-05

System: 1-nonyl-3-methylimidazolium tetrafluoroborate; phases: Liquid, Air at 1 atmosphere
Property: Surface tension liquid-gas, N/m (Liquid); method: Ring tensiometer
Temperature, K	Surface tension liquid-gas, N/m	uncertainty
269.49	0.03305	0.00053
274.62	0.03275	0.00053
278.42	0.0326	0.00053
283.73	0.03233	0.00053
288.41	0.03214	0.00052
293.36	0.03182	0.00052
298.28	0.03159	0.00052
303.11	0.03138	0.00052
308.07	0.0312	0.00052
313.04	0.0309	0.00051
317.79	0.03065	0.00051
322.85	0.03043	0.00051
328.72	0.03017	0.00051
333.58	0.02992	0.00051
338.63	0.02971	0.0005
342.37	0.02949	0.0005
348.21	0.02922	0.0005
352.1	0.02902	0.0005
357.88	0.02883	0.0005
363.56	0.02858	0.00049

System: 1-decyl-3-methylimidazolium tetrafluoroborate; phases: Liquid
Fixed: Pressure, kPa = 100
Property: Mass density, kg/m3 (Liquid); method: Buoyancy - hydrostatic balance with magnetic suspension - one sinker
Temperature, K	Mass density, kg/m3	uncertainty
283.26	1083.12	0.56
288.04	1079.26	0.56
293.48	1075.46	0.56
298.32	1072.34	0.56
303.26	1069.35	0.56
308.12	1064.91	0.56
313.23	1061.76	0.56
318.16	1058.04	0.56
323.03	1054.91	0.56
328.43	1051.67	0.56
333.15	1048.43	0.56
338.41	1044.81	0.56
343.37	1041.55	0.56
348.69	1038.22	0.56
353.21	1034.92	0.56
357.87	1032.03	0.56
363.98	1028.48	0.56

System: 1-decyl-3-methylimidazolium tetrafluoroborate; phases: Liquid, Air at 1 atmosphere
Property: Surface tension liquid-gas, N/m (Liquid); method: Willhelmy plate method
Temperature, K	Surface tension liquid-gas, N/m	uncertainty
288.03	0.03017	6e-05
293.46	0.02996	6e-05
298.28	0.0298	6e-05
303.2	0.02962	6e-05
308.07	0.02948	6e-05
313.16	0.02927	6e-05
318.14	0.02909	6e-05
322.9	0.02889	6e-05
328.39	0.02866	6e-05
333.13	0.02848	6e-05
338.26	0.02828	6e-05
343.25	0.02812	6e-05
348.56	0.02789	6e-05
353.03	0.0277	6e-05
357.72	0.02755	6e-05
363.98	0.02732	6e-05

System: 1-decyl-3-methylimidazolium tetrafluoroborate; phases: Liquid, Air at 1 atmosphere
Property: Surface tension liquid-gas, N/m (Liquid); method: Ring tensiometer
Temperature, K	Surface tension liquid-gas, N/m	uncertainty
283.21	0.03074	0.00058
287.98	0.03053	0.00058
293.33	0.03027	0.00058
298.21	0.03011	0.00058
303.14	0.02986	0.00057
308.05	0.02966	0.00057
313.12	0.02945	0.00057
318.22	0.02918	0.00057
322.91	0.02887	0.00057
328.39	0.02869	0.00056
333.2	0.02844	0.00056
338.28	0.02826	0.00056
343.17	0.02802	0.00056
348.57	0.02779	0.00056
353.07	0.02752	0.00056
357.75	0.02731	0.00055
363.98	0.02711	0.00055

System: 1-dodecyl-3-methylimidazolium tetrafluoroborate; phases: Liquid
Fixed: Pressure, kPa = 100
Property: Mass density, kg/m3 (Liquid); method: Buoyancy - hydrostatic balance with magnetic suspension - one sinker
Temperature, K	Mass density, kg/m3	uncertainty
328.83	1027.93	0.38
333.45	1024.75	0.38
337	1022.41	0.38
343.4	1018.2	0.38
347.32	1015.89	0.38
352.58	1012.18	0.38
357.71	1009	0.38
362.85	1005.22	0.38

System: 1-dodecyl-3-methylimidazolium tetrafluoroborate; phases: Liquid, Air at 1 atmosphere
Property: Surface tension liquid-gas, N/m (Liquid); method: Willhelmy plate method
Temperature, K	Surface tension liquid-gas, N/m	uncertainty
333.17	0.02579	0.00011
338	0.02554	0.00011
342.73	0.0254	0.00011
347.11	0.02526	0.00011
353.61	0.02503	0.00011
359.02	0.02482	0.00011
363.47	0.02464	0.00011

System: 1-dodecyl-3-methylimidazolium tetrafluoroborate; phases: Liquid, Air at 1 atmosphere
Property: Surface tension liquid-gas, N/m (Liquid); method: Ring tensiometer
Temperature, K	Surface tension liquid-gas, N/m	uncertainty
327.2	0.02589	0.0004
333.2	0.02561	0.0004
338.06	0.02559	0.0004
343.23	0.0254	0.00039
347.11	0.02522	0.00039
353.66	0.02511	0.00039
359.84	0.02478	0.00039
363.69	0.02463	0.00039
