Measured thermophysical data. Apparent molar volumes and apparent molar heat capacities of Pr(NO3)3(aq), Gd(NO3)3(aq), Ho(NO3)3(aq), and Y(NO3)3(aq) at T = (288.15, 298.15, 313.15, and 328.15) K and p = 0.1 MPa
Source: J. Chem. Thermodyn., 2005, 10.1016/j.jct.2004.08.010
Compound 1: praseodymium nitrate, N3O9Pr, InChI=1S/3NO3.Pr/c3*2-1(3)4;/q3*-1;+3, purity 99.9%
Compound 2: gadolinium nitrate, GdN3O9, InChI=1S/Gd.3NO3/c;3*2-1(3)4/q+3;3*-1, purity 99.9%
Compound 3: holmium nitrate, HoN3O9, InChI=1S/Ho.3NO3/c;3*2-1(3)4/q+3;3*-1, purity 99.9%
Compound 4: yttrium nitrate, N3O9Y, InChI=1S/3NO3.Y/c3*2-1(3)4;/q3*-1;+3, purity 99.9%
Compound 5: nitric acid, HNO3, InChI=1S/HNO3/c2-1(3)4/h(H,2,3,4)
Compound 6: water, H2O, InChI=1S/H2O/h1H2

System: water + holmium nitrate; phases: Liquid
Fixed: Pressure, kPa = 100
Property: Specific heat capacity at constant pressure, J/K/kg (Liquid); method: Flow calorimetry
Temperature, K	Molality, mol/kg of holmium nitrate	Specific heat capacity at constant pressure, J/K/kg	uncertainty
288.15	0.02088	-36.18	1.68
288.15	0.05952	-99.98	1.77
288.15	0.10547	-170.66	2.01
288.15	0.15404	-243.39	2.38
288.15	0.16032	-252.47	2.43
288.15	0.24591	-369.7	3.17
288.15	0.28433	-420.76	3.5
288.15	0.32607	-472.64	3.86
288.15	0.37471	-530.61	4.27
288.15	0.43502	-599.8	4.79
298.15	0.02344	-38.79	1.59
298.15	0.08649	-137.3	1.86
298.15	0.13823	-213.54	2.19
298.15	0.18679	-280.99	2.57
298.15	0.23106	-340.22	2.94
298.15	0.28556	-408.96	3.4
298.15	0.33761	-472.48	3.85
298.15	0.38979	-532.61	4.28
298.15	0.43508	-582.8	4.64
298.15	0.48568	-636.29	5.04
313.15	0.08356	-129.01	1.8
313.15	0.13936	-208.89	2.25
313.15	0.18709	-273	2.66
313.15	0.23154	-330.51	3.06
313.15	0.28627	-398.66	3.58
313.15	0.33408	-455.21	4.01
313.15	0.39272	-521.36	4.54
313.15	0.43684	-570.01	4.93
313.15	0.48228	-615.81	5.29

System: water + holmium nitrate; phases: Liquid
Fixed: Pressure, kPa = 100
Property: Mass density, kg/m3 (Liquid); method: Vibrating tube method
Temperature, K	Molality, mol/kg of holmium nitrate	Mass density, kg/m3	uncertainty
288.15	0.02088	6.355	0.303
288.15	0.05952	17.997	0.303
288.15	0.10547	31.724	0.303
288.15	0.15404	46.107	0.307
288.15	0.16032	47.988	0.307
288.15	0.24591	72.948	0.304
288.15	0.28433	84.088	0.304
288.15	0.32607	96.069	0.305
288.15	0.37471	109.904	0.307
288.15	0.43502	126.948	0.312
298.15	0.02344	7.04	0.299
298.15	0.08649	25.751	0.3
298.15	0.13823	40.92	0.299
298.15	0.18679	55.035	0.299
298.15	0.23106	67.807	0.299
298.15	0.28556	83.367	0.301
298.15	0.33761	98.134	0.302
298.15	0.38979	112.794	0.304
298.15	0.43508	125.404	0.306
298.15	0.48568	139.367	0.31
313.15	0.08356	24.434	0.295
313.15	0.13936	40.631	0.294
313.15	0.18709	54.18	0.295
313.15	0.23154	66.937	0.296
313.15	0.28627	82.349	0.296
313.15	0.33408	95.687	0.297
313.15	0.39272	111.855	0.3
313.15	0.43684	123.986	0.303
313.15	0.48228	136.365	0.306

System: water + yttrium nitrate; phases: Liquid
Fixed: Pressure, kPa = 100
Property: Specific heat capacity at constant pressure, J/K/kg (Liquid); method: Flow calorimetry
Temperature, K	Molality, mol/kg of yttrium nitrate	Specific heat capacity at constant pressure, J/K/kg	uncertainty
288.15	0.02552	-36.36	1.39
288.15	0.04399	-61.44	1.39
288.15	0.09	-121	1.58
288.15	0.1329	-174.72	1.82
288.15	0.18461	-236.1	2.17
288.15	0.22823	-286.1	2.48
288.15	0.27585	-336.81	2.82
288.15	0.33408	-398.08	3.25
288.15	0.38722	-449.5	3.61
288.15	0.44185	-500.71	3.99
298.15	0.03894	-51.95	1.31
298.15	0.07894	-102.44	1.47
298.15	0.11748	-149.33	1.67
298.15	0.15817	-197.15	1.9
298.15	0.19821	-241.69	2.17
298.15	0.23521	-282.43	2.44
298.15	0.27747	-326.84	2.73
298.15	0.32132	-370.55	3.04
298.15	0.37064	-418.97	3.39
298.15	0.41718	-461.81	3.71
313.15	0.0328	-42.52	1.28
313.15	0.06997	-88.51	1.42
313.15	0.10603	-130.87	1.6
313.15	0.15588	-187.48	1.94
313.15	0.19138	-226.52	2.19
313.15	0.24872	-286.33	2.62
313.15	0.31261	-351.05	3.12
313.15	0.36783	-402.55	3.52
313.15	0.43242	-462.17	4
313.15	0.4838	-505.54	4.35
328.15	0.02501	-31.98	1.26
328.15	0.06702	-83.28	1.41
328.15	0.12907	-155.19	1.82
328.15	0.19543	-226.69	2.35
328.15	0.23989	-272.62	2.72
328.15	0.30162	-333.6	3.24
328.15	0.3323	-363.28	3.49
328.15	0.37529	-402.32	3.84
328.15	0.43337	-454.28	4.3
328.15	0.50327	-513.92	4.84

System: water + yttrium nitrate; phases: Liquid
Fixed: Pressure, kPa = 100
Property: Mass density, kg/m3 (Liquid); method: Vibrating tube method
Temperature, K	Molality, mol/kg of yttrium nitrate	Mass density, kg/m3	uncertainty
288.15	0.02552	5.82	0.229
288.15	0.04399	9.992	0.228
288.15	0.09	20.285	0.228
288.15	0.1329	29.813	0.227
288.15	0.18461	41.146	0.227
288.15	0.22823	50.625	0.228
288.15	0.27585	60.89	0.229
288.15	0.33408	73.321	0.23
288.15	0.38722	84.531	0.232
288.15	0.44185	96.008	0.236
298.15	0.03894	8.705	0.223
298.15	0.07894	17.541	0.225
298.15	0.11748	25.973	0.224
298.15	0.15817	34.833	0.224
298.15	0.19821	43.424	0.224
298.15	0.23521	51.344	0.225
298.15	0.27747	60.31	0.225
298.15	0.32132	69.547	0.227
298.15	0.37064	79.837	0.229
298.15	0.41718	89.484	0.234
313.15	0.0328	7.228	0.22
313.15	0.06997	15.332	0.221
313.15	0.10603	23.106	0.22
313.15	0.15588	33.766	0.22
313.15	0.19138	41.291	0.22
313.15	0.24872	53.331	0.221
313.15	0.31261	66.611	0.223
313.15	0.36783	77.972	0.225
313.15	0.43242	91.11	0.227
313.15	0.4838	101.452	0.23
328.15	0.02501	5.466	0.219
328.15	0.06702	14.534	0.218
328.15	0.12907	27.75	0.218
328.15	0.19543	41.688	0.219
328.15	0.23989	50.923	0.219
328.15	0.30162	63.634	0.221
328.15	0.3323	69.886	0.221
328.15	0.37529	78.595	0.222
328.15	0.43337	90.259	0.224
328.15	0.50327	104.119	0.228

System: nitric acid + water + praseodymium nitrate; phases: Liquid
Fixed: Pressure, kPa = 100
Property: Specific heat capacity at constant pressure, J/K/kg (Liquid); method: Flow calorimetry
Temperature, K	Molality, mol/kg of praseodymium nitrate	Molality, mol/kg of nitric acid	Specific heat capacity at constant pressure, J/K/kg	uncertainty
288.15	0.01651	0.00176	-28.31	0.24
288.15	0.0328	0.00349	-55.07	0.43
288.15	0.04937	0.00525	-81.4	0.63
288.15	0.06462	0.00687	-105.16	0.81
288.15	0.08277	0.0088	-133.07	1.03
288.15	0.09996	0.01063	-158.89	1.23
288.15	0.11591	0.01233	-182.38	1.41
288.15	0.13321	0.01417	-207.17	1.6
288.15	0.15126	0.01609	-232.52	1.8
288.15	0.16896	0.01797	-257.1	1.99
298.15	0.01679	0.00179	-27.75	0.24
298.15	0.03221	0.00343	-52.09	0.4
298.15	0.04841	0.00515	-77.09	0.6
298.15	0.06545	0.00696	-102.73	0.8
298.15	0.08148	0.00867	-126.42	0.98
298.15	0.09886	0.01051	-151.5	1.17
298.15	0.11609	0.01235	-176.27	1.37
298.15	0.13332	0.01418	-199.96	1.55
298.15	0.15097	0.01606	-223.94	1.73
298.15	0.16896	0.01797	-248.11	1.92
313.15	0.01647	0.00175	-26.28	0.25
313.15	0.04858	0.00517	-74.79	0.63
313.15	0.06572	0.00699	-99.75	0.84
313.15	0.08163	0.00868	-122.45	1.03
313.15	0.09869	0.0105	-146.17	1.23
313.15	0.11485	0.01222	-168.35	1.42
313.15	0.13436	0.01429	-194.49	1.64
313.15	0.15134	0.0161	-216.7	1.83
313.15	0.16896	0.01797	-239.4	2.02
328.15	0.01631	0.00173	-25.46	0.26
328.15	0.03248	0.00345	-49.7	0.46
328.15	0.04873	0.00518	-73.34	0.68
328.15	0.06494	0.00691	-96.55	0.89
328.15	0.0818	0.0087	-120	1.11
328.15	0.0992	0.01055	-143.98	1.33
328.15	0.11644	0.01238	-166.98	1.55
328.15	0.13131	0.01397	-186.72	1.73
328.15	0.15009	0.01596	-211.05	1.96
328.15	0.16896	0.01797	-235.41	2.18

System: nitric acid + water + praseodymium nitrate; phases: Liquid
Fixed: Pressure, kPa = 100
Property: Mass density, kg/m3 (Liquid); method: Vibrating tube method
Temperature, K	Molality, mol/kg of praseodymium nitrate	Molality, mol/kg of nitric acid	Mass density, kg/m3	uncertainty
288.15	0.01651	0.00176	4.679	0.064
288.15	0.0328	0.00349	9.251	0.066
288.15	0.04937	0.00525	13.865	0.068
288.15	0.06462	0.00687	18.085	0.07
288.15	0.08277	0.0088	23.078	0.073
288.15	0.09996	0.01063	27.79	0.075
288.15	0.11591	0.01233	32.144	0.078
288.15	0.13321	0.01417	36.853	0.08
288.15	0.15126	0.01609	41.734	0.083
288.15	0.16896	0.01797	46.53	0.086
298.15	0.01679	0.00179	4.689	0.065
298.15	0.03221	0.00343	8.947	0.067
298.15	0.04841	0.00515	13.394	0.069
298.15	0.06545	0.00696	18.046	0.071
298.15	0.08148	0.00867	22.399	0.073
298.15	0.09886	0.01051	27.098	0.076
298.15	0.11609	0.01235	31.737	0.079
298.15	0.13332	0.01418	36.366	0.081
298.15	0.15097	0.01606	41.07	0.084
298.15	0.16896	0.01797	45.882	0.087
313.15	0.01647	0.00175	4.551	0.067
313.15	0.03327	0.00354	9.125	0.069
313.15	0.04858	0.00517	13.266	0.071
313.15	0.06572	0.00699	17.852	0.073
313.15	0.08163	0.00868	22.132	0.075
313.15	0.09869	0.0105	26.652	0.077
313.15	0.11485	0.01222	30.929	0.08
313.15	0.13436	0.01429	36.091	0.083
313.15	0.15134	0.0161	40.579	0.085
313.15	0.16896	0.01797	45.192	0.088
328.15	0.01631	0.00173	4.439	0.069
328.15	0.03248	0.00345	8.789	0.071
328.15	0.04873	0.00518	13.128	0.073
328.15	0.06494	0.00691	17.434	0.075
328.15	0.0818	0.0087	21.892	0.077
328.15	0.0992	0.01055	26.465	0.079
328.15	0.11644	0.01238	30.977	0.081
328.15	0.13131	0.01397	34.866	0.084
328.15	0.15009	0.01596	39.748	0.086
328.15	0.16896	0.01797	44.662	0.089

System: nitric acid + water + gadolinium nitrate; phases: Liquid
Fixed: Pressure, kPa = 100
Property: Specific heat capacity at constant pressure, J/K/kg (Liquid); method: Flow calorimetry
Temperature, K	Molality, mol/kg of gadolinium nitrate	Molality, mol/kg of nitric acid	Specific heat capacity at constant pressure, J/K/kg	uncertainty
288.15	0.01918	0.00037	-32.85	0.27
288.15	0.03873	0.00075	-65.18	0.5
288.15	0.05782	0.00111	-95.93	0.74
288.15	0.07778	0.0015	-127.3	0.99
288.15	0.09778	0.00188	-157.88	1.22
288.15	0.11819	0.00228	-188.57	1.46
288.15	0.13862	0.00267	-218.45	1.69
288.15	0.159	0.00306	-247.69	1.92
288.15	0.18085	0.00348	-278.54	2.16
288.15	0.20228	0.0039	-308.24	2.39
298.15	0.01904	0.00037	-31.58	0.26
298.15	0.03814	0.00073	-62.18	0.48
298.15	0.0579	0.00111	-93.03	0.72
298.15	0.07749	0.00149	-122.67	0.95
298.15	0.09775	0.00188	-153	1.19
298.15	0.11793	0.00227	-182.35	1.41
298.15	0.13846	0.00267	-211.65	1.64
298.15	0.15997	0.00308	-241.45	1.87
298.15	0.18082	0.00348	-270.09	2.09
298.15	0.20228	0.0039	-298.85	2.31
313.15	0.01931	0.00037	-31.09	0.28
313.15	0.05811	0.00112	-90.38	0.76
313.15	0.07803	0.0015	-119.97	1.01
313.15	0.09801	0.00189	-148.97	1.26
313.15	0.11642	0.00224	-174.89	1.48
313.15	0.13779	0.00265	-204.86	1.73
313.15	0.1584	0.00305	-232.56	1.96
313.15	0.18068	0.00348	-262.42	2.21
313.15	0.20228	0.0039	-290.49	2.45
328.15	0.01966	0.00038	-31.31	0.3
328.15	0.03961	0.00076	-61.9	0.57
328.15	0.05746	0.00111	-88.76	0.82
328.15	0.07682	0.00148	-116.85	1.08
328.15	0.09723	0.00187	-146.21	1.36
328.15	0.11829	0.00228	-175.25	1.62
328.15	0.13828	0.00266	-203.18	1.88
328.15	0.15891	0.00306	-230.05	2.13
328.15	0.18012	0.00347	-258.57	2.4
328.15	0.20228	0.0039	-287.09	2.66

System: nitric acid + water + gadolinium nitrate; phases: Liquid
Fixed: Pressure, kPa = 100
Property: Mass density, kg/m3 (Liquid); method: Vibrating tube method
Temperature, K	Molality, mol/kg of gadolinium nitrate	Molality, mol/kg of nitric acid	Mass density, kg/m3	uncertainty
288.15	0.01918	0.00037	5.678	0.064
288.15	0.03873	0.00075	11.426	0.067
288.15	0.05782	0.00111	17.013	0.07
288.15	0.07778	0.0015	22.842	0.073
288.15	0.09778	0.00188	28.641	0.076
288.15	0.11819	0.00228	34.534	0.079
288.15	0.13862	0.00267	40.44	0.083
288.15	0.159	0.00306	46.242	0.086
288.15	0.18085	0.00348	52.492	0.09
288.15	0.20228	0.0039	58.66	0.094
298.15	0.01904	0.00037	5.573	0.065
298.15	0.03814	0.00073	11.134	0.068
298.15	0.0579	0.00111	16.853	0.071
298.15	0.07749	0.00149	22.492	0.073
298.15	0.09775	0.00188	28.298	0.077
298.15	0.11793	0.00227	34.052	0.08
298.15	0.13846	0.00267	39.891	0.083
298.15	0.15997	0.00308	45.99	0.087
298.15	0.18082	0.00348	51.881	0.091
298.15	0.20228	0.0039	57.913	0.094
313.15	0.01931	0.00037	5.579	0.067
313.15	0.05811	0.00112	16.676	0.072
313.15	0.07803	0.0015	22.327	0.075
313.15	0.09801	0.00189	27.969	0.078
313.15	0.11642	0.00224	33.148	0.081
313.15	0.13779	0.00265	39.139	0.084
313.15	0.1584	0.00305	44.889	0.088
313.15	0.18068	0.00348	51.092	0.091
313.15	0.20228	0.0039	57.082	0.095
328.15	0.01966	0.00038	5.619	0.069
328.15	0.03961	0.00076	11.299	0.072
328.15	0.05746	0.00111	16.345	0.074
328.15	0.07682	0.00148	21.78	0.077
328.15	0.09723	0.00187	27.487	0.08
328.15	0.11829	0.00228	33.37	0.083
328.15	0.13828	0.00266	38.906	0.086
328.15	0.15891	0.00306	44.642	0.089
328.15	0.18012	0.00347	50.461	0.093
328.15	0.20228	0.0039	56.561	0.096

System: nitric acid + water + yttrium nitrate; phases: Liquid
Fixed: Pressure, kPa = 100
Property: Specific heat capacity at constant pressure, J/K/kg (Liquid); method: Flow calorimetry
Temperature, K	Molality, mol/kg of yttrium nitrate	Molality, mol/kg of nitric acid	Specific heat capacity at constant pressure, J/K/kg	uncertainty
288.15	0.01742	0.00041	-25.01	0.23
288.15	0.03539	0.00083	-49.92	0.39
288.15	0.053	0.00124	-73.7	0.57
288.15	0.07047	0.00165	-96.72	0.75
288.15	0.08947	0.0021	-121.31	0.94
288.15	0.10801	0.00254	-145.01	1.12
288.15	0.12585	0.00295	-167.41	1.3
288.15	0.14501	0.0034	-190.83	1.48
288.15	0.16351	0.00384	-212.9	1.65
288.15	0.18313	0.0043	-235.95	1.83
298.15	0.01816	0.00043	-24.9	0.23
298.15	0.03567	0.00084	-48.1	0.37
298.15	0.05308	0.00125	-70.78	0.55
298.15	0.07119	0.00167	-93.71	0.73
298.15	0.09005	0.00211	-117.03	0.91
298.15	0.10734	0.00252	-138.17	1.07
298.15	0.12624	0.00296	-161.1	1.25
298.15	0.14484	0.0034	-182.89	1.42
298.15	0.16277	0.00382	-203.23	1.57
313.15	0.01832	0.00043	-24.36	0.23
313.15	0.03569	0.00084	-46.59	0.39
313.15	0.05314	0.00125	-68.36	0.58
313.15	0.07167	0.00168	-91.02	0.77
313.15	0.08941	0.0021	-112.34	0.95
313.15	0.10744	0.00252	-133.61	1.13
313.15	0.1262	0.00296	-155.39	1.31
313.15	0.14484	0.0034	-176.79	1.49
313.15	0.16321	0.00383	-197.54	1.67
313.15	0.18313	0.0043	-219.48	1.85
328.15	0.01834	0.00043	-24.07	0.25
328.15	0.0358	0.00084	-46.09	0.43
328.15	0.05233	0.00123	-66.37	0.62
328.15	0.06968	0.00164	-87.29	0.81
328.15	0.08662	0.00203	-107.38	1
328.15	0.1054	0.00247	-129.22	1.2
328.15	0.12409	0.00291	-150.44	1.39
328.15	0.14359	0.00337	-172.2	1.6
328.15	0.16259	0.00382	-193.24	1.79
328.15	0.18313	0.0043	-215.61	2

System: nitric acid + water + yttrium nitrate; phases: Liquid
Fixed: Pressure, kPa = 100
Property: Mass density, kg/m3 (Liquid); method: Vibrating tube method
Temperature, K	Molality, mol/kg of yttrium nitrate	Molality, mol/kg of nitric acid	Mass density, kg/m3	uncertainty
288.15	0.01742	0.00041	4	0.063
288.15	0.03539	0.00083	8.097	0.065
288.15	0.053	0.00124	12.083	0.067
288.15	0.07047	0.00165	16.026	0.069
288.15	0.08947	0.0021	20.286	0.071
288.15	0.10801	0.00254	24.426	0.073
288.15	0.12585	0.00295	28.406	0.076
288.15	0.14501	0.0034	32.654	0.078
288.15	0.16351	0.00384	36.766	0.08
288.15	0.18313	0.0043	41.082	0.083
298.15	0.01816	0.00043	4.102	0.065
298.15	0.03567	0.00084	8.027	0.066
298.15	0.05308	0.00125	11.903	0.068
298.15	0.07119	0.00167	15.921	0.07
298.15	0.09005	0.00211	20.085	0.072
298.15	0.10734	0.00252	23.902	0.074
298.15	0.12624	0.00296	28.028	0.076
298.15	0.14484	0.0034	32.093	0.079
298.15	0.16277	0.00382	36.006	0.081
313.15	0.01832	0.00043	4.072	0.067
313.15	0.03569	0.00084	7.908	0.068
313.15	0.05314	0.00125	11.732	0.07
313.15	0.07167	0.00168	15.775	0.072
313.15	0.08941	0.0021	19.632	0.074
313.15	0.10744	0.00252	23.528	0.076
313.15	0.1262	0.00296	27.573	0.078
313.15	0.14484	0.0034	31.579	0.08
313.15	0.16321	0.00383	35.524	0.082
313.15	0.18313	0.0043	39.758	0.085
328.15	0.01834	0.00043	4.03	0.069
328.15	0.0358	0.00084	7.853	0.07
328.15	0.05233	0.00123	11.435	0.072
328.15	0.06968	0.00164	15.182	0.073
328.15	0.08662	0.00203	18.829	0.075
328.15	0.1054	0.00247	22.844	0.077
328.15	0.12409	0.00291	26.84	0.079
328.15	0.14359	0.00337	30.981	0.081
328.15	0.16259	0.00382	34.988	0.084
328.15	0.18313	0.0043	39.362	0.086
