Measured thermophysical data. Phase equilibria of the ternary systems of (water + diethyl carbonate) with acetone, or 2-butanone at four temperatures
Source: J. Chem. Thermodyn., 2016, 10.1016/j.jct.2016.06.033
Compound 1: diethyl carbonate, C5H10O3, InChI=1S/C5H10O3/c1-3-7-5(6)8-4-2/h3-4H2,1-2H3, purity 99%
Compound 2: acetone, C3H6O, InChI=1S/C3H6O/c1-3(2)4/h1-2H3, purity 99.5%
Compound 3: butanone, C4H8O, InChI=1S/C4H8O/c1-3-4(2)5/h3H2,1-2H3, purity 99.5%
Compound 4: water, H2O, InChI=1S/H2O/h1H2

System: acetone + diethyl carbonate + water; phases: Liquid mixture 2, Liquid mixture 1
Fixed: Pressure, kPa = 100
Property: Mole fraction of water (Liquid mixture 2); method: Chromatography
Property: Mole fraction of water (Liquid mixture 1); method: Chromatography
Property: Mole fraction of acetone (Liquid mixture 1); method: Chromatography
Temperature, K	Mole fraction of acetone	Mole fraction of water	uncertainty	Mole fraction of water	uncertainty	Mole fraction of acetone	uncertainty
293.15	0	0.9986	0.0014	0.0655	0.03	0	
293.15	0.0062	0.9923	0.0077	0.076	0.03	0.0567	
293.15	0.0942	0.9011	0.03	0.2014	0.03	0.4211	
293.15	0.0245	0.973	0.027	0.0803	0.03	0.1083	
293.15	0.1119	0.8832	0.03	0.2321	0.03	0.4364	
293.15	0.0332	0.9641	0.03	0.0903	0.03	0.1637	
293.15	0.0417	0.9568	0.03	0.0966	0.03	0.2027	
293.15	0.0547	0.9424	0.03	0.1022	0.03	0.2596	
293.15	0.0632	0.9338	0.03	0.1268	0.03	0.3107	
293.15	0.0737	0.9227	0.03	0.1404	0.03	0.3529	
293.15	0.0799	0.9168	0.03	0.1698	0.03	0.3788	
298.15	0.0685	0.9286	0.03	0.1675	0.03	0.3459	
298.15	0.0567	0.9408	0.03	0.143	0.03	0.3054	
298.15	0.0802	0.9169	0.03	0.1831	0.03	0.3811	
298.15	0.0922	0.9044	0.03	0.2063	0.03	0.4112	
298.15	0	0.9985	0.0015	0.072	0.03	0	
298.15	0.1078	0.8869	0.03	0.2419	0.03	0.435	
298.15	0.0067	0.9913	0.0087	0.0791	0.03	0.0585	
298.15	0.0237	0.9743	0.0257	0.0902	0.03	0.1172	
298.15	0.0311	0.9668	0.03	0.1001	0.03	0.1597	
298.15	0.038	0.9599	0.03	0.1186	0.03	0.2084	
298.15	0.047	0.951	0.03	0.1205	0.03	0.259	
303.15	0.042	0.9553	0.03	0.1456	0.03	0.2749	
303.15	0.0558	0.9415	0.03	0.167	0.03	0.3251	
303.15	0.0303	0.9672	0.03	0.1323	0.03	0.2247	
303.15	0.068	0.9289	0.03	0.1867	0.03	0.3606	
303.15	0	0.9982	0.0018	0.0747	0.03	0	
303.15	0.0077	0.9906	0.0094	0.0878	0.03	0.0707	
303.15	0.0192	0.979	0.021	0.0971	0.03	0.1307	
303.15	0.0238	0.9739	0.0261	0.1139	0.03	0.1725	
303.15	0.0754	0.9214	0.03	0.2059	0.03	0.3812	
303.15	0.0844	0.9123	0.03	0.2278	0.03	0.4136	
303.15	0.101	0.8936	0.03	0.2656	0.0301	0.435	
313.15	0.0247	0.9729	0.0271	0.1209	0.03	0.1656	
313.15	0.0331	0.9647	0.03	0.1444	0.03	0.2085	
313.15	0.0474	0.9501	0.03	0.1586	0.03	0.2644	
313.15	0.0159	0.9819	0.0181	0.1014	0.03	0.1188	
313.15	0.0551	0.9431	0.03	0.1763	0.03	0.3105	
313.15	0.0723	0.924	0.03	0.1957	0.03	0.3412	
313.15	0.0825	0.9146	0.03	0.2155	0.03	0.3667	
313.15	0.0949	0.9004	0.03	0.2356	0.03	0.3909	
313.15	0.1096	0.8848	0.03	0.2637	0.0301	0.415	
313.15	0	0.9986	0.0014	0.0851	0.03	0	
313.15	0.0077	0.9902	0.0098	0.0811	0.03	0.0593	

System: butanone + diethyl carbonate + water; phases: Liquid mixture 2, Liquid mixture 1
Fixed: Pressure, kPa = 100
Property: Mole fraction of water (Liquid mixture 2); method: Chromatography
Property: Mole fraction of water (Liquid mixture 1); method: Chromatography
Property: Mole fraction of butanone (Liquid mixture 1); method: Chromatography
Temperature, K	Mole fraction of butanone	Mole fraction of water	uncertainty	Mole fraction of water	uncertainty	Mole fraction of butanone	uncertainty
293.15	0	0.9986	0.0014	0.0655	0.03	0	
293.15	0.0054	0.9928	0.0072	0.0784	0.03	0.1229	
293.15	0.0339	0.9645	0.03	0.1623	0.03	0.559	
293.15	0.0087	0.9897	0.0103	0.0929	0.03	0.1746	
293.15	0.0355	0.9632	0.03	0.1712	0.03	0.5811	
293.15	0.0124	0.986	0.014	0.1053	0.03	0.2519	
293.15	0.0885	0.9115	0.03	0.3209	0.0301	0.6791	
293.15	0.0158	0.9831	0.0169	0.1068	0.03	0.3139	
293.15	0.0188	0.9801	0.0199	0.1134	0.03	0.3845	
293.15	0.0222	0.9765	0.0235	0.1311	0.03	0.438	
293.15	0.0241	0.9748	0.0252	0.138	0.03	0.4922	
293.15	0.0286	0.9703	0.0297	0.1477	0.03	0.5332	
298.15	0.017	0.9817	0.0183	0.1199	0.03	0.3914	
298.15	0.0239	0.9749	0.0251	0.153	0.03	0.4851	
298.15	0.0279	0.9707	0.0293	0.1572	0.03	0.5261	
298.15	0.0303	0.9684	0.03	0.1631	0.03	0.5582	
298.15	0.032	0.9671	0.03	0.1832	0.03	0.5791	
298.15	0.0774	0.9226	0.03	0.3164	0.0301	0.6836	
298.15	0.0202	0.9785	0.0215	0.1344	0.03	0.4402	
298.15	0	0.9985	0.0015	0.072	0.03	0	
298.15	0.0044	0.9938	0.0062	0.0887	0.03	0.1103	
298.15	0.0077	0.9907	0.0093	0.0999	0.03	0.1965	
298.15	0.0114	0.987	0.013	0.1098	0.03	0.2634	
298.15	0.0139	0.9846	0.0154	0.1107	0.03	0.322	
303.15	0.0125	0.9862	0.0138	0.1168	0.03	0.318	
303.15	0.008	0.9909	0.0091	0.1016	0.03	0.197	
303.15	0.0137	0.9852	0.0148	0.1235	0.03	0.3962	
303.15	0.0195	0.9792	0.0208	0.1347	0.03	0.4427	
303.15	0	0.9982	0.0018	0.0747	0.03	0	
303.15	0.0039	0.9945	0.0055	0.0891	0.03	0.1182	
303.15	0.0223	0.9764	0.0236	0.1541	0.03	0.4857	
303.15	0.0255	0.9733	0.0267	0.1554	0.03	0.531	
303.15	0.0293	0.9696	0.03	0.1702	0.03	0.5556	
303.15	0.0313	0.9677	0.03	0.1844	0.03	0.5771	
303.15	0.01	0.9884	0.0116	0.112	0.03	0.2635	
303.15	0.0688	0.9312	0.03	0.3273	0.0301	0.6727	
313.15	0.0282	0.971	0.029	0.1976	0.03	0.573	
313.15	0.0648	0.9352	0.03	0.322	0.0301	0.678	
313.15	0.0061	0.9929	0.0071	0.1038	0.03	0.1972	
313.15	0	0.9986	0.0014	0.0851	0.03	0	
313.15	0.01	0.9884	0.0116	0.102	0.03	0.2765	
313.15	0.0118	0.9868	0.0132	0.1119	0.03	0.3296	
313.15	0.0154	0.9832	0.0168	0.1275	0.03	0.3985	
313.15	0.0165	0.9827	0.0173	0.1353	0.03	0.447	
313.15	0.0208	0.9779	0.0221	0.1551	0.03	0.4871	
313.15	0.0032	0.9958	0.0042	0.0924	0.03	0.1181	
313.15	0.0226	0.9766	0.0234	0.1631	0.03	0.5289	
313.15	0.0244	0.9749	0.0251	0.1781	0.03	0.5523	

System: diethyl carbonate + water; phases: Liquid mixture 1, Liquid mixture 2
Fixed: Pressure, kPa = 100
Property: Mole fraction of water (Liquid mixture 1); method: Chromatography
Temperature, K	Mole fraction of water	uncertainty
293.15	0.0655	0.03
303.15	0.0747	0.03
313.15	0.0851	0.03
298.15	0.072	0.03

System: diethyl carbonate + water; phases: Liquid mixture 2, Liquid mixture 1
Fixed: Pressure, kPa = 100
Property: Mole fraction of water (Liquid mixture 2); method: Chromatography
Temperature, K	Mole fraction of water	uncertainty
293.15	0.9986	0.0014
303.15	0.9982	0.0018
313.15	0.9986	0.0014
298.15	0.9985	0.0015

System: butanone + water; phases: Liquid mixture 1, Liquid mixture 2
Fixed: Pressure, kPa = 100
Property: Mole fraction of water (Liquid mixture 1); method: Chromatography
Temperature, K	Mole fraction of water	uncertainty
298.15	0.3164	0.0301
303.15	0.3273	0.0301
293.15	0.3209	0.0301
313.15	0.322	0.0301

System: butanone + water; phases: Liquid mixture 2, Liquid mixture 1
Fixed: Pressure, kPa = 100
Property: Mole fraction of water (Liquid mixture 2); method: Chromatography
Temperature, K	Mole fraction of water	uncertainty
298.15	0.9226	0.03
303.15	0.9312	0.03
293.15	0.9115	0.03
313.15	0.9352	0.03
