Measured thermophysical data. The vapour pressures over saturated aqueous solutions of DL-2-aminobutyric acid, 4-aminobutyric acid, sodium-D-gluconate, sodium hippurate, and potassium magnesium-L-aspartate
Source: J. Chem. Thermodyn., 2008, 10.1016/j.jct.2007.12.005
Compound 1: (.+-.)-.alpha.-aminobutyric acid, C4H9NO2, InChI=1S/C4H9NO2/c1-2-3(5)4(6)7/h3H,2,5H2,1H3,(H,6,7), purity 0.99%
Compound 2: 4-aminobutanoic acid, C4H9NO2, InChI=1S/C4H9NO2/c5-3-1-2-4(6)7/h1-3,5H2,(H,6,7), purity 0.98%
Compound 3: sodium (2R,3S,4R,5R)-2,3,4,5,6-pentahydroxyhexanoate, C6H11NaO7, InChI=1S/C6H12O7.Na/c7-1-2(8)3(9)4(10)5(11)6(12)13;/h2-5,7-11H,1H2,(H,12,13);/q;+1/p-1/t2-,3-,4+,5-;/m1./s1, purity 0.99%
Compound 4: Sodium hippurate, C9H8NNaO3, InChI=1S/C9H9NO3.Na/c11-8(12)6-10-9(13)7-4-2-1-3-5-7;/h1-5H,6H2,(H,10,13)(H,11,12);/q;+1/p-1, purity 0.99%
Compound 5: magnesium dipotassium (S)-2-amino-3-carboxypropanoate, C16H24K2MgN4O16, InChI=1S/4C4H7NO4.2K.Mg/c4*5-2(4(8)9)1-3(6)7;;;/h4*2H,1,5H2,(H,6,7)(H,8,9);;;/q;;;;2*+1;+2/p-4/t4*2-;;;/m0000.../s1, purity 0.95%
Compound 6: water, H2O, InChI=1S/H2O/h1H2

System: (.+-.)-.alpha.-aminobutyric acid + water; phases: Liquid, Crystal, Gas
Property: Vapor or sublimation pressure, kPa (Liquid); method: Closed cell (Static) method
Temperature, K	Vapor or sublimation pressure, kPa	uncertainty
280.75	0.945	0.096
285.15	1.3	0.131
291.75	1.976	0.198
294.25	2.335	0.233
298.75	3.182	0.317
303.25	4.184	0.417
307.75	5.454	0.543
312.05	6.159	0.612
316.55	7.583	0.754
321.05	9.014	0.896

System: 4-aminobutanoic acid + water; phases: Liquid, Crystal, Gas
Property: Vapor or sublimation pressure, kPa (Liquid); method: Closed cell (Static) method
Temperature, K	Vapor or sublimation pressure, kPa	uncertainty
278.15	0.601	0.061
283.15	0.86	0.087
288.15	1.216	0.123
293.25	1.72	0.172
298.15	2.342	0.237
298.55	2.495	0.252
302.95	3.202	0.319
308.95	4.392	0.437
311.95	5.108	0.509
316.45	6.481	0.645
321.15	8.088	0.804

System: sodium (2R,3S,4R,5R)-2,3,4,5,6-pentahydroxyhexanoate + water; phases: Liquid, Crystal, Gas
Property: Vapor or sublimation pressure, kPa (Liquid); method: Closed cell (Static) method
Temperature, K	Vapor or sublimation pressure, kPa	uncertainty
280.65	0.932	0.094
285.05	1.283	0.129
289.65	1.734	0.174
294.25	2.335	0.233
298.85	3.151	0.314
303.25	4.09	0.407
307.85	5.318	0.529
312.45	6.755	0.672
316.95	8.527	0.848
321.55	10.691	1.063

System: Sodium hippurate + water; phases: Liquid, Crystal, Gas
Property: Vapor or sublimation pressure, kPa (Liquid); method: Closed cell (Static) method
Temperature, K	Vapor or sublimation pressure, kPa	uncertainty
279.15	0.709	0.072
285.05	1.069	0.108
289.45	1.442	0.145
294.15	1.938	0.194
298.65	2.543	0.254
302.95	3.269	0.326
307.55	4.196	0.418
312.15	5.338	0.531
316.75	6.664	0.663
321.25	8.398	0.835

System: water + magnesium dipotassium (S)-2-amino-3-carboxypropanoate; phases: Liquid, Crystal, Gas
Property: Vapor or sublimation pressure, kPa (Liquid); method: Closed cell (Static) method
Temperature, K	Vapor or sublimation pressure, kPa	uncertainty
281.15	0.763	0.077
285.45	1.039	0.105
289.95	1.408	0.141
294.35	1.878	0.188
298.95	2.579	0.258
303.45	3.382	0.337
307.75	4.331	0.431
312.55	5.533	0.551
317.35	7.049	0.701
322.05	8.882	0.883
