Measured thermophysical data. Low-temperature thermodynamic properties of Al(C5HF6O2)3
Source: J. Chem. Thermodyn., 2019, 10.1016/j.jct.2019.06.013
Compound 1: tris(1,1,1,5,5,5-hexafluoro-2,4-pentanedionato)aluminum, C15H3AlF18O6, InChI=1S/3C5HF6O2.Al/c3*6-4(7,8)2(12)1-3(13)5(9,10)11;/h3*1H;/q3*-1;+3, purity 98%

System: tris(1,1,1,5,5,5-hexafluoro-2,4-pentanedionato)aluminum; phases: Crystal, Liquid, Air at 1 atmosphere
Property: Normal melting temperature, K (Crystal); method: DTA
Normal melting temperature, K	uncertainty
344	1.1

System: tris(1,1,1,5,5,5-hexafluoro-2,4-pentanedionato)aluminum; phases: Crystal
Fixed: Pressure, kPa = 101.325
Property: Molar heat capacity at constant pressure, J/K/mol (Crystal); method: Vacuum adiabatic calorimetry
Temperature, K	Molar heat capacity at constant pressure, J/K/mol	uncertainty
79.48	243.5	1.5
83.59	252.9	0.9
87.91	261.9	1
92	270.2	1
96.51	279.4	1
101.42	289	1
106.11	298.3	1.1
110.61	307.6	1.1
114.94	316.1	1.1
119.14	324.1	1.2
123.22	332.2	1.2
127.67	340.4	1.2
132.49	349.3	1.3
137.19	357.7	1.3
141.77	364.9	1.3
146.26	373.6	1.3
150.66	380.6	1.4
154.98	388.8	1.4
159.22	396.6	1.4
163.39	404.2	1.4
167.49	410.3	1.5
171.54	418.1	1.5
175.54	425.1	1.5
179.87	431.5	1.5
184.54	438.5	1.6
189.14	445.5	1.6
193.68	453.1	1.6
198.17	460	1.6
202.57	467.2	1.7
206.96	474.1	1.7
211.29	480.4	1.7
215.58	488	1.7
219.83	494.5	1.8
224.05	499.7	1.8
228.24	504.8	1.8
232.38	511.5	1.8
236.5	517.6	1.8
240.92	523.9	1.9
245.72	532.1	1.9
250.46	539.9	1.9
255.15	547.6	1.9
259.8	554.6	2
264.41	561.5	2
268.97	568.1	2
273.58	574.9	2
278.07	580.7	2.1
282.5	587	2.1
286.89	593	2.1
291.24	598.9	2.1
295.53	605	2.1
299.76	610.6	2.2
9.83	23.83	0.6
10.75	29.76	0.74
12.11	38.29	0.95
13.76	48.55	1.2
15.44	57.69	1.42
17.05	66.16	1.62
19.11	76.49	1.87
21.35	86.52	0.62
23.73	96.21	0.67
26.32	105.9	0.7
29.22	116.3	0.8
32.48	127.4	0.8
35.99	138.6	0.9
39.78	150	0.9
44.15	162.3	1
49.05	175.3	1.1
53.74	186.9	1.2
58.8	199.6	1.2
64.13	211.1	1.3
68.84	221.4	1.4
73.12	230.9	1.4
77.29	240	1.5

System: tris(1,1,1,5,5,5-hexafluoro-2,4-pentanedionato)aluminum; phases: Crystal
Fixed: Pressure, kPa = 101.325
Property: Molar heat capacity at constant pressure, J/K/mol (Crystal); method: Vacuum adiabatic calorimetry
Temperature, K	Molar heat capacity at constant pressure, J/K/mol	uncertainty
5	4.097	0.132
10	25.06	0.61
15	55.35	1.31
20	80.56	0.59
25	101	0.7
30	119	0.8
35	135.5	0.8
40	150.7	1
45	164.5	1
50	177.8	1
55	190.1	1.2
60	201.9	1.2
65	213.3	1.2
70	224.2	1.3
80	245.3	1.1
90	266.2	1.1
100	286.2	1.1
110	306.2	1.1
120	325.9	1.3
130	344.8	1.3
140	362.4	1.3
150	379.9	1.3
160	397.8	1.5
170	415.4	1.5
180	431.8	1.5
190	447	1.7
200	463.1	1.7
210	478.8	1.7
220	494	1.7
230	507.8	1.9
240	522.9	1.9
250	539.1	1.9
260	555	1.9
270	569.7	2.1
280	583.6	2.1
290	597.3	2.1
298.15	608.3	2.1
300	610.4	2.1

System: tris(1,1,1,5,5,5-hexafluoro-2,4-pentanedionato)aluminum; phases: Crystal
Fixed: Pressure, kPa = 101.325
Property: Molar entropy, J/K/mol (Crystal); method: Vacuum adiabatic calorimetry
Temperature, K	Molar entropy, J/K/mol	uncertainty
5	1.405	0.063
10	9.65	0.35
15	25.6	0.9
20	45.1	1.5
25	65.4	1.8
30	85.4	1.8
35	105	2.1
40	124.1	2.1
45	142.7	2.4
50	160.7	2.7
55	178.2	2.7
60	195.3	3
65	211.9	3
70	228.1	3.3
80	259.4	3.6
90	289.5	3.6
100	318.6	3.9
110	346.8	3.9
120	374.3	3.9
130	401.2	4.2
140	427.4	4.3
150	452.9	4.6
160	478	4.6
170	502.7	4.9
180	526.9	4.9
190	550.7	4.9
200	574	5.2
210	597	5.2
220	619.6	5.5
230	641.9	5.5
240	663.8	5.5
250	685.5	5.8
260	706.9	5.8
270	728.1	6.1
280	749.1	6.1
290	769.8	6.1
298.15	786.5	6.4
300	790.3	6.4

System: tris(1,1,1,5,5,5-hexafluoro-2,4-pentanedionato)aluminum; phases: Crystal
Fixed: Pressure, kPa = 101.325
Property: Molar enthalpy, kJ/mol (Crystal); method: Vacuum adiabatic calorimetry
Temperature, K	Molar enthalpy, kJ/mol	uncertainty
5	0.00531	0.0003
10	0.0709	0.0018
15	0.2735	0.0063
20	0.6152	0.0143
25	1.071	0.017
30	1.622	0.02
35	2.258	0.025
40	2.974	0.029
45	3.763	0.033
50	4.619	0.039
55	5.539	0.045
60	6.52	0.051
65	7.558	0.058
70	8.65	0.062
80	11	0.082
90	13.56	0.083
100	16.32	0.103
110	19.28	0.104
120	22.44	0.125
130	25.8	0.126
140	29.33	0.146
150	33.04	0.166
160	36.93	0.167
170	41	0.188
180	45.24	0.208
190	49.63	0.21
200	54.18	0.23
210	58.89	0.251
220	63.76	0.271
230	68.77	0.292
240	73.92	0.293
250	79.23	0.314
260	84.7	0.334
270	90.32	0.355
280	96.09	0.376
290	101.99	0.397
298.15	106.91	0.417
300	108.03	0.417
