Measured thermophysical data. Volatility and thermodynamic stability of vanillin
Source: J. Chem. Thermodyn., 2019, 10.1016/j.jct.2018.07.023
Compound 1: carbon dioxide, CO2, InChI=1S/CO2/c2-1-3
Compound 2: water, H2O, InChI=1S/H2O/h1H2
Compound 3: oxygen, O2, InChI=1S/O2/c1-2
Compound 4: vanillin, C8H8O3, InChI=1S/C8H8O3/c1-11-8-4-6(5-9)2-3-7(8)10/h2-5,10H,1H3

System: vanillin; phases: Crystal, Liquid, Air at 1 atmosphere
Property: Normal melting temperature, K (Crystal); method: DTA
Normal melting temperature, K	uncertainty
355.7	0.5

System: vanillin; phases: Crystal, Liquid, Air at 1 atmosphere
Property: Molar enthalpy of transition or fusion, kJ/mol (Crystal); method: DSC
Molar enthalpy of transition or fusion, kJ/mol	uncertainty
22.9	0.9

System: vanillin; phases: Crystal, Gas
Property: Molar enthalpy of vaporization or sublimation, kJ/mol (Crystal); method: Static calorimetry
Temperature, K	Molar enthalpy of vaporization or sublimation, kJ/mol	uncertainty
298.15	99.7	2.7

System: vanillin; phases: Liquid, Gas
Property: Molar enthalpy of vaporization or sublimation, kJ/mol (Liquid); method: Static calorimetry
Temperature, K	Molar enthalpy of vaporization or sublimation, kJ/mol	uncertainty
375.81	74.92	2.42

System: vanillin; phases: Crystal, Gas
Property: Vapor or sublimation pressure, kPa (Crystal); method: Closed cell (Static) method
Temperature, K	Vapor or sublimation pressure, kPa	uncertainty
320.95	0.00058	0.00011
322.92	0.00072	0.00012
324.98	0.00092	0.00012
326.9	0.00114	0.00012
328.94	0.00143	0.00013
330.89	0.00175	0.00013
332.87	0.00215	0.00014
334.84	0.00266	0.00015
336.83	0.0033	0.00017
338.83	0.00407	0.0002
340.83	0.00502	0.00023
342.8	0.0061	0.00027
344.77	0.00747	0.00032
346.73	0.00911	0.00038
348.72	0.01103	0.00045
350.7	0.01345	0.00052

System: vanillin; phases: Metastable liquid, Gas
Property: Vapor or sublimation pressure, kPa (Metastable liquid); method: Closed cell (Static) method
Temperature, K	Vapor or sublimation pressure, kPa	uncertainty
324.92	0.00192	0.00013
326.91	0.00226	0.00014
328.87	0.00268	0.00015
330.87	0.00316	0.00017
332.83	0.00373	0.00019
334.8	0.00439	0.00021
336.81	0.00517	0.00023
338.81	0.00609	0.00027
340.8	0.00717	0.0003
342.78	0.00834	0.00035
344.79	0.00978	0.0004
346.69	0.01123	0.00045
348.73	0.01314	0.00052
350.68	0.01523	0.00055
352.63	0.01755	0.00059
354.6	0.02014	0.00063
356.63	0.02334	0.00068
358.57	0.02665	0.00073
360.48	0.03073	0.00079
362.45	0.03517	0.00086
364.45	0.04012	0.00093
366.47	0.04555	0.00102
368.43	0.05205	0.00112
370.37	0.05931	0.00123
372.38	0.06765	0.00136
374.32	0.07665	0.0015
376.51	0.08673	0.00165
378.22	0.09764	0.00182
380.28	0.1104	0.002
382.26	0.1243	0.0022

System: vanillin; phases: Crystal, Gas
Property: Vapor or sublimation pressure, kPa (Crystal); method: Calculated from knudsen effusion weight loss
Temperature, K	Vapor or sublimation pressure, kPa	uncertainty
303.13	6.6e-05	2e-05
305.32	8.9e-05	2e-05
307.19	0.000114	2e-05
309.13	0.000145	2.1e-05
311.35	0.000187	2.1e-05
313.2	0.000236	2.2e-05
315.11	0.000294	2.3e-05
319.19	0.000478	2.6e-05
321.11	0.000599	2.9e-05
323.29	0.000765	3.4e-05
325.2	0.000955	3.9e-05
303.13	6.6e-05	2e-05
305.32	8.9e-05	2e-05
307.19	0.000112	2e-05
309.13	0.000144	2.1e-05
311.35	0.000185	2.1e-05
313.2	0.000235	2.2e-05
315.11	0.000292	2.3e-05
317.29	0.000384	2.4e-05
319.19	0.000472	2.6e-05
321.11	0.000597	2.9e-05
323.29	0.000759	3.4e-05
325.2	0.000953	3.9e-05
303.13	6.5e-05	2e-05
305.32	8.8e-05	2e-05
307.19	0.000113	2e-05
309.13	0.000142	2.1e-05
311.35	0.000182	2.1e-05
313.2	0.000234	2.2e-05
315.11	0.00029	2.2e-05
317.29	0.000383	2.4e-05
319.19	0.000474	2.6e-05
321.11	0.000586	2.9e-05
323.29	0.00075	3.3e-05
325.2	0.00094	3.9e-05

Reaction: -1 vanillin + 8 carbon dioxide + 4 water + -8.5 oxygen
Property: Specific internal energy of reaction at constant volume, J/g
-25054.33
