Measured thermophysical data. Solubility of climbazole and triclocarban in supercritical carbon dioxide: Measurement and correlation
Source: J. Chem. Thermodyn., 2009, 10.1016/j.jct.2008.08.009
Compound 1: carbon dioxide, CO2, InChI=1S/CO2/c2-1-3, purity 99.5%
Compound 2: 1-(4-Chlorophenoxy)-1-(imidazol-1-yl)-3,3-dimethylbutanone, C15H17ClN2O2, InChI=1S/C15H17ClN2O2/c1-15(2,3)13(19)14(18-9-8-17-10-18)20-12-6-4-11(16)5-7-12/h4-10,14H,1-3H3, purity 99%
Compound 3: N-(4-chlorophenyl)-N'-(3,4-dichlorophenyl)urea, C13H9Cl3N2O, InChI=1S/C13H9Cl3N2O/c14-8-1-3-9(4-2-8)17-13(19)18-10-5-6-11(15)12(16)7-10/h1-7H,(H2,17,18,19), purity 98%

System: carbon dioxide + 1-(4-Chlorophenoxy)-1-(imidazol-1-yl)-3,3-dimethylbutanone; phases: Gas, Crystal
Property: Vapor or sublimation pressure, kPa (Gas); method: Closed cell (Static) method
Temperature, K	Mole fraction of 1-(4-Chlorophenoxy)-1-(imidazol-1-yl)-3,3-dimethylbutanone	Vapor or sublimation pressure, kPa	uncertainty
313.2	0.00062	10550	110
313.2	0.00105	12030	120
313.2	0.00134	12830	120
313.2	0.00167	14350	120
313.2	0.00206	15270	120
313.2	0.00272	19940	120
313.2	0.00403	31540	150
313.2	0.00488	39890	170
323.2	0.00062	12840	110
323.2	0.00105	14460	120
323.2	0.00134	15540	120
323.2	0.00167	17040	120
323.2	0.00206	18450	120
323.2	0.00272	21120	120
323.2	0.00403	28750	140
323.2	0.00488	36560	150
333.2	0.00062	14610	110
333.2	0.00105	16230	120
333.2	0.00134	17450	120
333.2	0.00167	18710	120
333.2	0.00206	20020	120
333.2	0.00272	22140	120
333.2	0.00403	28670	130
333.2	0.00488	35720	150

System: N-(4-chlorophenyl)-N'-(3,4-dichlorophenyl)urea + carbon dioxide; phases: Gas, Crystal
Property: Vapor or sublimation pressure, kPa (Gas); method: Closed cell (Static) method
Temperature, K	Mole fraction of carbon dioxide	Vapor or sublimation pressure, kPa	uncertainty
313.2	9e-05	10930	120
313.2	0.00014	11940	120
313.2	0.00022	14100	120
313.2	0.00027	15540	130
313.2	0.0004	18380	140
313.2	0.00058	25280	170
313.2	0.00075	33250	210
313.2	0.00087	38960	240
323.2	9e-05	12050	120
323.2	0.00014	13530	120
323.2	0.00022	15270	130
323.2	0.00027	16330	130
323.2	0.0004	18040	130
323.2	0.00058	22470	150
323.2	0.00075	28840	180
323.2	0.00087	33340	210
333.2	9e-05	13750	130
333.2	0.00014	14930	130
333.2	0.00022	16460	130
333.2	0.00027	17520	130
333.2	0.0004	20040	150
333.2	0.00058	24080	160
333.2	0.00075	28180	170
333.2	0.00087	30580	190
