Measured thermophysical data. Temperature effect on the distribution of lanthanides(III) in the perchlorate-malonamide-methyl isobutyl ketone systems
Source: J. Chem. Thermodyn., 2019, 10.1016/j.jct.2018.10.021
Compound 1: 2,2'-(1,4-phenylenebis(methylene))bis(N,N,N',N'-tetrabutylmalonamide), C46H82N4O4, InChI=1S/C46H82N4O4/c1-9-17-29-47(30-18-10-2)43(51)41(44(52)48(31-19-11-3)32-20-12-4)37-39-25-27-40(28-26-39)38-42(45(53)49(33-21-13-5)34-22-14-6)46(54)50(35-23-15-7)36-24-16-8/h25-28,41-42H,9-24,29-38H2,1-8H3, purity 98%

System: 2,2'-(1,4-phenylenebis(methylene))bis(N,N,N',N'-tetrabutylmalonamide); phases: Crystal, Liquid, Air at 1 atmosphere
Property: Normal melting temperature, K (Crystal); method: VISOBS
Normal melting temperature, K	uncertainty
326.65	3
