Measured thermophysical data. Speed of sound and derivative properties of hydrofluoroether fluid HFE-7500 under high pressure
Source: J. Chem. Thermodyn., 2017, 10.1016/j.jct.2017.04.007
Compound 1: 2-trifluoromethyl-3-ethoxydodecafluorohexane, C9H5F15O, InChI=1S/C9H5F15O/c1-2-25-6(15,3(10,7(16,17)18)8(19,20)21)4(11,12)5(13,14)9(22,23)24/h2H2,1H3, purity 99.5%

System: 2-trifluoromethyl-3-ethoxydodecafluorohexane; phases: Liquid
Fixed: Frequency, MHz = 3
Property: Speed of sound, m/s (Liquid); method: Pulse-echo method
Pressure, kPa	Temperature, K	Speed of sound, m/s	uncertainty
100	293.15	673.7	1.6
20000	293.15	781.1	1.7
40000	293.15	865.8	1.9
60000	293.15	938.1	2
80000	293.15	1001.8	2.2
100000	293.15	1058	2.3
100	303.15	643.7	1.5
20000	303.15	755.3	1.7
40000	303.15	842.8	1.9
60000	303.15	916.9	2
80000	303.15	981.3	2.1
100000	303.15	1038.5	2.2
100	313.15	616.7	1.5
20000	313.15	732.2	1.7
40000	313.15	822	1.8
60000	313.15	897.4	2
80000	313.15	963	2.1
100000	313.15	1021.7	2.2
100	323.15	588.4	1.4
20000	323.15	709.6	1.6
40000	323.15	802.1	1.8
60000	323.15	878.6	1.9
80000	323.15	945.6	2
100000	323.15	1004.9	2.2
100	333.15	561.4	1.4
20000	333.15	688.4	1.6
40000	333.15	783.3	1.7
60000	333.15	861.5	1.9
80000	333.15	929.1	2
100000	333.15	989.3	2.1
100	343.15	534.8	1.3
20000	343.15	667.7	1.5
40000	343.15	765	1.7
60000	343.15	844.9	1.8
80000	343.15	913.5	2
100000	343.15	974	2.1
100	353.15	509	1.3
20000	353.15	647.6	1.6
40000	353.15	747.5	1.7
60000	353.15	828.9	1.8
80000	353.15	898.5	2
100000	353.15	960.3	2.1

System: 2-trifluoromethyl-3-ethoxydodecafluorohexane; phases: Liquid
Property: Mass density, kg/m3 (Liquid); method: Vibrating tube method
Pressure, kPa	Temperature, K	Mass density, kg/m3	uncertainty
100	293.15	1630.2	0.7
10000	293.15	1654	0.9
20000	293.15	1674.8	1.1
30000	293.15	1693.3	1.3
40000	293.15	1709.8	1.6
50000	293.15	1724.9	1.9
60000	293.15	1738.8	2.2
70000	293.15	1751.7	2.5
80000	293.15	1763.9	2.9
90000	293.15	1775.4	3.2
100000	293.15	1786.2	3.5
110000	293.15	1796.5	3.9
120000	293.15	1806.3	4.3
130000	293.15	1815.8	4.6
140000	293.15	1824.9	5
100	303.15	1609.7	0.7
10000	303.15	1635.5	0.9
20000	303.15	1657.8	1
30000	303.15	1677.3	1.3
40000	303.15	1694.6	1.5
50000	303.15	1710.4	1.8
60000	303.15	1724.9	2.2
70000	303.15	1738.4	2.5
80000	303.15	1750.9	2.8
90000	303.15	1762.8	3.1
100000	303.15	1773.9	3.5
110000	303.15	1784.5	3.8
120000	303.15	1794.5	4.2
130000	303.15	1804.2	4.6
140000	303.15	1813.4	4.9
100	313.15	1588.6	0.7
10000	313.15	1616.6	0.9
20000	313.15	1640.2	1
30000	313.15	1660.7	1.2
40000	313.15	1678.9	1.5
50000	313.15	1695.4	1.8
60000	313.15	1710.5	2.1
70000	313.15	1724.6	2.4
80000	313.15	1737.1	2.8
90000	313.15	1749.7	3.1
100000	313.15	1761.2	3.4
110000	313.15	1772.2	3.8
120000	313.15	1782.5	4.1
130000	313.15	1792.5	4.5
140000	313.15	1802	4.9
100	323.15	1567.3	0.7
10000	323.15	1597.6	0.8
20000	323.15	1622.7	1
30000	323.15	1644.3	1.2
40000	323.15	1663.4	1.5
50000	323.15	1680.6	1.8
60000	323.15	1696.4	2.1
70000	323.15	1710.9	2.4
80000	323.15	1724.2	2.7
90000	323.15	1736.8	3
100000	323.15	1748.7	3.4
110000	323.15	1760	3.7
120000	323.15	1770.6	4.1
130000	323.15	1780.7	4.4
140000	323.15	1790.5	4.8
100	333.15	1545.6	0.7
10000	333.15	1578.4	0.8
20000	333.15	1605.3	1
30000	333.15	1628.1	1.2
40000	333.15	1648.2	1.5
50000	333.15	1666.2	1.7
60000	333.15	1682.6	2
70000	333.15	1697.7	2.3
80000	333.15	1711.6	2.7
90000	333.15	1724.6	3
100000	333.15	1736.9	3.3
110000	333.15	1748.2	3.7
120000	333.15	1759.3	4
130000	333.15	1769.7	4.4
140000	333.15	1779.5	4.7
100	343.15	1523.6	0.7
10000	343.15	1559.1	0.8
20000	343.15	1587.8	1
30000	343.15	1611.9	1.2
40000	343.15	1633	1.4
50000	343.15	1651.7	1.7
60000	343.15	1668.7	2
70000	343.15	1684.2	2.3
80000	343.15	1698.6	2.6
90000	343.15	1712	2.9
100000	343.15	1724.4	3.3
110000	343.15	1736.5	3.6
120000	343.15	1747.8	4
130000	343.15	1758.4	4.3
140000	343.15	1768.6	4.7
100	353.15	1501.6	0.7
10000	353.15	1540	0.8
20000	353.15	1570.5	1
30000	353.15	1596	1.2
40000	353.15	1618	1.4
50000	353.15	1637.6	1.7
60000	353.15	1655.2	2
70000	353.15	1671.3	2.3
80000	353.15	1686.2	2.6
90000	353.15	1700	2.9
100000	353.15	1712.9	3.2
110000	353.15	1724.9	3.6
120000	353.15	1736.6	3.9
130000	353.15	1747.4	4.2
140000	353.15	1757.8	4.6
100	363.15	1478.1	0.8
10000	363.15	1520.4	0.8
20000	363.15	1553	0.9
30000	363.15	1579.9	1.1
40000	363.15	1603	1.4
50000	363.15	1623.4	1.6
60000	363.15	1641.7	1.9
70000	363.15	1658.3	2.2
80000	363.15	1673.6	2.5
90000	363.15	1687.9	2.8
100000	363.15	1701.2	3.2
110000	363.15	1713.7	3.5
120000	363.15	1725.3	3.8
130000	363.15	1736.6	4.2
140000	363.15	1747.3	4.5
100	373.15	1454.4	0.8
10000	373.15	1500.9	0.8
20000	373.15	1535.8	0.9
30000	373.15	1564.2	1.1
40000	373.15	1588.4	1.3
50000	373.15	1609.6	1.6
60000	373.15	1628.5	1.9
70000	373.15	1645.8	2.2
80000	373.15	1661.7	2.5
90000	373.15	1676.4	2.8
100000	373.15	1689.9	3.1
110000	373.15	1702.8	3.4
120000	373.15	1714.7	3.8
130000	373.15	1726.2	4.1
140000	373.15	1737.1	4.5
100	383.15	1430.4	0.8
10000	383.15	1481.2	0.8
20000	383.15	1518.4	0.9
30000	383.15	1548.4	1.1
40000	383.15	1573.8	1.3
50000	383.15	1595.9	1.6
60000	383.15	1615.5	1.8
70000	383.15	1633.3	2.1
80000	383.15	1649.6	2.4
90000	383.15	1664.6	2.8
100000	383.15	1678.5	3.1
110000	383.15	1691.6	3.4
120000	383.15	1704	3.7
130000	383.15	1715.7	4.1
140000	383.15	1726.8	4.4
100	393.15	1405.6	0.8
10000	393.15	1461.3	0.9
20000	393.15	1500.9	0.9
30000	393.15	1532.5	1.1
40000	393.15	1559	1.3
50000	393.15	1581.9	1.5
60000	393.15	1602.2	1.8
70000	393.15	1620.6	2.1
80000	393.15	1637.1	2.4
90000	393.15	1652.8	2.7
100000	393.15	1667.1	3
110000	393.15	1680.5	3.3
120000	393.15	1693.2	3.7
130000	393.15	1705.1	4
140000	393.15	1716.3	4.3
