Measured thermophysical data. Intermolecular interactions of .alpha.-amino acids and glycyl dipeptides with the drug domiphen bromide in aqueous solutions analyzed by volumetric and UV-vis spectroscopy methods
Source: J. Chem. Thermodyn., 2016, 10.1016/j.jct.2016.06.018
Compound 1: 2-aminoacetic acid, C2H5NO2, InChI=1S/C2H5NO2/c3-1-2(4)5/h1,3H2,(H,4,5), purity 99%
Compound 2: (S)-2-aminopropanoic acid, C3H7NO2, InChI=1S/C3H7NO2/c1-2(4)3(5)6/h2H,4H2,1H3,(H,5,6)/t2-/m0/s1, purity 99%
Compound 3: L-valine, C5H11NO2, InChI=1S/C5H11NO2/c1-3(2)4(6)5(7)8/h3-4H,6H2,1-2H3,(H,7,8)/t4-/m0/s1, purity 99%
Compound 4: L-leucine, C6H13NO2, InChI=1S/C6H13NO2/c1-4(2)3-5(7)6(8)9/h4-5H,3,7H2,1-2H3,(H,8,9)/t5-/m0/s1, purity 99%
Compound 5: glycylglycine, C4H8N2O3, InChI=1S/C4H8N2O3/c5-1-3(7)6-2-4(8)9/h1-2,5H2,(H,6,7)(H,8,9), purity 99%
Compound 6: glycyl-L-valine, C7H14N2O3, InChI=1S/C7H14N2O3/c1-4(2)6(7(11)12)9-5(10)3-8/h4,6H,3,8H2,1-2H3,(H,9,10)(H,11,12)/t6-/m0/s1, purity 99%
Compound 7: glycyl-L-leucine, C8H16N2O3, InChI=1S/C8H16N2O3/c1-5(2)3-6(8(12)13)10-7(11)4-9/h5-6H,3-4,9H2,1-2H3,(H,10,11)(H,12,13)/t6-/m0/s1, purity 99%
Compound 8: Domiphen bromide, C22H40BrNO, InChI=1S/C22H40NO.BrH/c1-4-5-6-7-8-9-10-11-12-16-19-23(2,3)20-21-24-22-17-14-13-15-18-22;/h13-15,17-18H,4-12,16,19-21H2,1-3H3;1H/q+1;/p-1, purity 99%
Compound 9: water, H2O, InChI=1S/H2O/h1H2

System: 2-aminoacetic acid + Domiphen bromide + water; phases: Liquid
Fixed: Pressure, kPa = 101
Property: Mass density, kg/m3 (Liquid); method: Vibrating tube method
Temperature, K	Solvent: Molality, mol/kg of Domiphen bromide	Molality, mol/kg of 2-aminoacetic acid	Mass density, kg/m3	uncertainty
293.15	0.04	0	999.67	1
293.15	0.04	0.02032	1000.21	1
293.15	0.04	0.06002	1001.45	1
293.15	0.04	0.07865	1001.99	1.01
293.15	0.04	0.09837	1002.54	1.01
293.15	0.04	0.13791	1003.7	1.01
293.15	0.04	0.15835	1004.28	1.01
293.15	0.04	0.17712	1004.83	1.01
293.15	0.04	0.19823	1005.36	1.01
298.15	0.04	0	998.34	1.01
298.15	0.04	0.06002	1000.17	1.01
298.15	0.04	0.07865	1000.72	1.01
298.15	0.04	0.09837	1001.28	1.01
298.15	0.04	0.11743	1001.83	1.01
298.15	0.04	0.13791	1002.38	1.01
298.15	0.04	0.15835	1002.95	1.01
298.15	0.04	0.19823	1004.03	1.01
303.15	0.04	0	996.95	1.01
303.15	0.04	0.07865	999.32	1.01
303.15	0.04	0.09837	999.91	1.01
303.15	0.04	0.11743	1000.47	1
303.15	0.04	0.13791	1001.07	1.01
303.15	0.04	0.15835	1001.66	1.01
303.15	0.04	0.17712	1002.21	1.01
303.15	0.04	0.19823	1002.82	1.01
308.15	0.04	0	995.36	1.01
308.15	0.04	0.06002	997.12	1.01
308.15	0.04	0.07865	997.65	1.01
308.15	0.04	0.09837	998.21	1.01
308.15	0.04	0.13791	999.36	1.01
308.15	0.04	0.15835	999.95	1.01
308.15	0.04	0.17712	1000.48	1
308.15	0.04	0.19823	1001.05	1.01
293.15	0.08	0	1000.98	1
293.15	0.08	0.04005	1002.25	1.01
293.15	0.08	0.09907	1004.14	1.01
293.15	0.08	0.11929	1004.79	1.01
293.15	0.08	0.13848	1005.38	1.01
293.15	0.08	0.15822	1006.09	1.01
293.15	0.08	0.17907	1006.73	1.01
293.15	0.08	0.19973	1007.43	1.01
298.15	0.08	0	999.82	1
298.15	0.08	0.05914	1001.65	1.01
298.15	0.08	0.07875	1002.26	1.01
298.15	0.08	0.09907	1002.89	1.01
298.15	0.08	0.11929	1003.51	1.01
298.15	0.08	0.13848	1004.1	1.01
298.15	0.08	0.15822	1004.72	1.01
298.15	0.08	0.17907	1005.35	1.01
298.15	0.08	0.19973	1005.99	1.01
303.15	0.08	0	998.38	1.01
303.15	0.08	0.02008	999.08	1
303.15	0.08	0.05914	1000.26	1
303.15	0.08	0.09907	1001.44	1.01
303.15	0.08	0.11929	1002.04	1.01
303.15	0.08	0.13848	1002.62	1.01
303.15	0.08	0.15822	1003.19	1.01
303.15	0.08	0.19973	1004.39	1.01
308.15	0.08	0	996.81	1.01
308.15	0.08	0.05914	998.61	1.01
308.15	0.08	0.07875	999.16	1.01
308.15	0.08	0.09907	999.76	1.01
308.15	0.08	0.11929	1000.32	1.01
308.15	0.08	0.13848	1000.92	1.01
308.15	0.08	0.15822	1001.47	1.01
308.15	0.08	0.17907	1002.03	1.01
308.15	0.08	0.19973	1002.69	1.01

System: (S)-2-aminopropanoic acid + Domiphen bromide + water; phases: Liquid
Fixed: Pressure, kPa = 101
Property: Mass density, kg/m3 (Liquid); method: Vibrating tube method
Temperature, K	Solvent: Molality, mol/kg of Domiphen bromide	Molality, mol/kg of (S)-2-aminopropanoic acid	Mass density, kg/m3	uncertainty
293.15	0.04	0	999.65	1
293.15	0.04	0.05092	1001.06	1
293.15	0.04	0.06716	1001.5	1
293.15	0.04	0.10089	1002.41	1
293.15	0.04	0.11716	1002.87	1
293.15	0.04	0.13401	1003.33	1
293.15	0.04	0.15061	1003.73	1
293.15	0.04	0.16796	1004.17	1.01
298.15	0.04	0	998.39	1
298.15	0.04	0.05092	999.83	1
298.15	0.04	0.06716	1000.27	1
298.15	0.04	0.10089	1001.14	1
298.15	0.04	0.11716	1001.6	1
298.15	0.04	0.13401	1002.04	1
298.15	0.04	0.15061	1002.42	1.01
298.15	0.04	0.16796	1002.87	1
303.15	0.04	0	996.99	1
303.15	0.04	0.05092	998.34	1
303.15	0.04	0.06716	998.78	1
303.15	0.04	0.08325	999.2	1
303.15	0.04	0.10089	999.66	1
303.15	0.04	0.11716	1000.07	1
303.15	0.04	0.13401	1000.51	1
303.15	0.04	0.16796	1001.35	1
308.15	0.04	0	995.4	1
308.15	0.04	0.05092	996.76	1
308.15	0.04	0.06716	997.18	1
308.15	0.04	0.08325	997.6	1
308.15	0.04	0.10089	998.06	1
308.15	0.04	0.11716	998.48	1
308.15	0.04	0.13401	998.89	1
308.15	0.04	0.16796	999.75	1
293.15	0.08	0	1000.95	1
293.15	0.08	0.01958	1001.49	1
293.15	0.08	0.05928	1002.6	1
293.15	0.08	0.09838	1003.72	1
293.15	0.08	0.11786	1004.27	1
293.15	0.08	0.13661	1004.82	1.01
293.15	0.08	0.15634	1005.39	1.01
293.15	0.08	0.17651	1005.98	1.01
293.15	0.08	0.1969	1006.47	1.01
298.15	0.08	0	999.84	1
298.15	0.08	0.01958	1000.37	1
298.15	0.08	0.05928	1001.45	1
298.15	0.08	0.11786	1003.02	1
298.15	0.08	0.13661	1003.52	1
298.15	0.08	0.15634	1004.04	1
298.15	0.08	0.17651	1004.59	1.01
298.15	0.08	0.1969	1005.08	1.01
303.15	0.08	0	998.36	1
303.15	0.08	0.05928	999.94	1
303.15	0.08	0.09838	1000.97	1
303.15	0.08	0.11786	1001.49	1
303.15	0.08	0.13661	1002	1
303.15	0.08	0.15634	1002.5	1
303.15	0.08	0.17651	1003.04	1
303.15	0.08	0.1969	1003.59	1
308.15	0.08	0	996.79	1
308.15	0.08	0.05928	998.34	1
308.15	0.08	0.07849	998.81	1
308.15	0.08	0.09838	999.32	1
308.15	0.08	0.11786	999.81	1
308.15	0.08	0.13661	1000.29	1
308.15	0.08	0.15634	1000.77	1
308.15	0.08	0.17651	1001.31	1
308.15	0.08	0.1969	1001.8	1

System: L-valine + Domiphen bromide + water; phases: Liquid
Fixed: Pressure, kPa = 101
Property: Mass density, kg/m3 (Liquid); method: Vibrating tube method
Temperature, K	Solvent: Molality, mol/kg of Domiphen bromide	Molality, mol/kg of L-valine	Mass density, kg/m3	uncertainty
293.15	0.04	0	999.64	1
293.15	0.04	0.04501	1000.69	1
293.15	0.04	0.05924	1001.05	1
293.15	0.04	0.08929	1001.75	1
293.15	0.04	0.10387	1002.12	1
293.15	0.04	0.11876	1002.46	1
293.15	0.04	0.13375	1002.83	1
293.15	0.04	0.14962	1003.19	1
298.15	0.04	0	998.38	1
298.15	0.04	0.04501	999.51	1
298.15	0.04	0.05924	999.85	1
298.15	0.04	0.07404	1000.21	1
298.15	0.04	0.08929	1000.57	1
298.15	0.04	0.10387	1000.9	1
298.15	0.04	0.11876	1001.26	1
298.15	0.04	0.13375	1001.56	1
298.15	0.04	0.14962	1001.93	1
303.15	0.04	0	996.95	1
303.15	0.04	0.04501	997.95	1
303.15	0.04	0.05924	998.3	1
303.15	0.04	0.07404	998.65	1
303.15	0.04	0.08929	999.01	1
303.15	0.04	0.10387	999.34	1
303.15	0.04	0.11876	999.7	1
303.15	0.04	0.14962	1000.4	1
308.15	0.04	0	995.36	1
308.15	0.04	0.04501	996.42	1
308.15	0.04	0.05924	996.76	1
308.15	0.04	0.08929	997.45	1
308.15	0.04	0.10387	997.76	1
308.15	0.04	0.11876	998.1	1
308.15	0.04	0.13375	998.42	1
308.15	0.04	0.14962	998.78	1
293.15	0.08	0	1001.01	1
293.15	0.08	0.01556	1001.42	1
293.15	0.08	0.04474	1002.16	1
293.15	0.08	0.05944	1002.52	1
293.15	0.08	0.07429	1002.88	1
293.15	0.08	0.08932	1003.27	1
293.15	0.08	0.10469	1003.66	1
293.15	0.08	0.11911	1004.02	1
293.15	0.08	0.13378	1004.32	1
293.15	0.08	0.14944	1004.67	1
298.15	0.08	0	999.86	1
298.15	0.08	0.04474	1001	1
298.15	0.08	0.05944	1001.35	1
298.15	0.08	0.07429	1001.71	1
298.15	0.08	0.08932	1002.07	1
298.15	0.08	0.10469	1002.45	1
298.15	0.08	0.11911	1002.78	1
298.15	0.08	0.13378	1003.1	1
298.15	0.08	0.14944	1003.42	1
303.15	0.08	0	998.36	1
303.15	0.08	0.04474	999.53	1
303.15	0.08	0.05944	999.89	1
303.15	0.08	0.07429	1000.22	1
303.15	0.08	0.08932	1000.57	1
303.15	0.08	0.10469	1000.91	1
303.15	0.08	0.11911	1001.25	1
303.15	0.08	0.13378	1001.57	1
303.15	0.08	0.14944	1001.89	1
308.15	0.08	0	996.78	1
308.15	0.08	0.04474	997.83	1
308.15	0.08	0.05944	998.17	1
308.15	0.08	0.07429	998.52	1
308.15	0.08	0.08932	998.85	1
308.15	0.08	0.10469	999.23	1
308.15	0.08	0.11911	999.55	1
308.15	0.08	0.13378	999.9	1
308.15	0.08	0.14944	1000.25	1

System: L-leucine + Domiphen bromide + water; phases: Liquid
Fixed: Pressure, kPa = 101
Property: Mass density, kg/m3 (Liquid); method: Vibrating tube method
Temperature, K	Solvent: Molality, mol/kg of Domiphen bromide	Molality, mol/kg of L-leucine	Mass density, kg/m3	uncertainty
293.15	0.04	0	999.63	1.01
293.15	0.04	0.01036	999.79	1.01
293.15	0.04	0.01975	1000.01	1.01
293.15	0.04	0.02988	1000.23	1.01
293.15	0.04	0.06937	1001	1.01
293.15	0.04	0.07944	1001.18	1.01
293.15	0.04	0.0893	1001.33	1.01
293.15	0.04	0.09981	1001.51	1.01
298.15	0.04	0	998.38	1.01
298.15	0.04	0.02988	998.95	1.01
298.15	0.04	0.04973	999.36	1.01
298.15	0.04	0.0595	999.56	1.01
298.15	0.04	0.06937	999.76	1.01
298.15	0.04	0.07944	999.94	1.01
298.15	0.04	0.0893	1000.1	1.01
298.15	0.04	0.09981	1000.31	1.01
303.15	0.04	0	996.96	1.01
303.15	0.04	0.02988	997.51	1.01
303.15	0.04	0.04973	997.93	1.01
303.15	0.04	0.0595	998.13	1.01
303.15	0.04	0.06937	998.32	1.01
303.15	0.04	0.07944	998.53	1.01
303.15	0.04	0.0893	998.73	1.01
303.15	0.04	0.09981	998.95	1.01
308.15	0.04	0	995.35	1.01
308.15	0.04	0.02988	995.96	1.01
308.15	0.04	0.04973	996.34	1.01
308.15	0.04	0.0595	996.51	1.01
308.15	0.04	0.06937	996.67	1.01
308.15	0.04	0.07944	996.85	1.01
308.15	0.04	0.0893	997.03	1.01
308.15	0.04	0.09981	997.22	1.01
293.15	0.08	0	1000.99	1.01
293.15	0.08	0.02987	1001.66	1.01
293.15	0.08	0.04019	1001.89	1.01
293.15	0.08	0.05947	1002.28	1.01
293.15	0.08	0.06977	1002.49	1.01
293.15	0.08	0.07961	1002.7	1.01
293.15	0.08	0.08954	1002.91	1.01
293.15	0.08	0.0999	1003.1	1.01
298.15	0.08	0	999.81	1.01
298.15	0.08	0.00997	1000.03	1.01
298.15	0.08	0.02987	1000.48	1.01
298.15	0.08	0.04019	1000.7	1.01
298.15	0.08	0.04984	1000.9	1.01
298.15	0.08	0.05947	1001.09	1.01
298.15	0.08	0.06977	1001.31	1.01
298.15	0.08	0.07961	1001.51	1.01
298.15	0.08	0.08954	1001.74	1.01
298.15	0.08	0.0999	1001.94	1.01
303.15	0.08	0	998.33	1.01
303.15	0.08	0.00997	998.59	1.01
303.15	0.08	0.02987	998.99	1.01
303.15	0.08	0.04019	999.22	1.01
303.15	0.08	0.04984	999.45	1.01
303.15	0.08	0.05947	999.68	1.01
303.15	0.08	0.06977	999.93	1.01
303.15	0.08	0.07961	1000.15	1.01
303.15	0.08	0.08954	1000.39	1.01
308.15	0.08	0	996.76	1.01
308.15	0.08	0.00997	996.87	1.01
308.15	0.08	0.02987	997.28	1.01
308.15	0.08	0.04019	997.5	1.01
308.15	0.08	0.04984	997.73	1.01
308.15	0.08	0.05947	997.95	1.01
308.15	0.08	0.06977	998.2	1.01
308.15	0.08	0.07961	998.41	1.01
308.15	0.08	0.08954	998.64	1.01

System: Domiphen bromide + glycylglycine + water; phases: Liquid
Fixed: Pressure, kPa = 101
Property: Mass density, kg/m3 (Liquid); method: Vibrating tube method
Temperature, K	Solvent: Molality, mol/kg of Domiphen bromide	Molality, mol/kg of glycylglycine	Mass density, kg/m3	uncertainty
293.15	0.04	0	999.62	1.01
293.15	0.04	0.07986	1004.03	1.01
293.15	0.04	0.10057	1005.17	1.01
293.15	0.04	0.12175	1006.31	1.01
293.15	0.04	0.13898	1007.25	1.01
293.15	0.04	0.16064	1008.47	1.01
293.15	0.04	0.18003	1009.47	1.01
293.15	0.04	0.20179	1010.67	1.01
298.15	0.04	0	998.37	1.01
298.15	0.04	0.07986	1002.71	1.01
298.15	0.04	0.10057	1003.85	1.01
298.15	0.04	0.12175	1005.02	1.01
298.15	0.04	0.13898	1005.96	1.01
298.15	0.04	0.16064	1007.12	1.01
298.15	0.04	0.18003	1008.19	1.01
298.15	0.04	0.20179	1009.41	1.01
303.15	0.04	0	996.97	1.01
303.15	0.04	0.04051	999.17	1.01
303.15	0.04	0.06089	1000.3	1.01
303.15	0.04	0.07986	1001.34	1.01
303.15	0.04	0.12175	1003.62	1.01
303.15	0.04	0.13898	1004.59	1.01
303.15	0.04	0.18003	1006.82	1.01
303.15	0.04	0.20179	1007.98	1.01
308.15	0.04	0	995.39	1.01
308.15	0.04	0.07986	999.78	1.01
308.15	0.04	0.10057	1000.88	1.01
308.15	0.04	0.12175	1002.01	1.01
308.15	0.04	0.13898	1002.93	1.01
308.15	0.04	0.16064	1004.1	1.01
308.15	0.04	0.18003	1005.18	1.01
308.15	0.04	0.20179	1006.34	1.01
293.15	0.08	0	1000.96	1.01
293.15	0.08	0.05974	1004.23	1.01
293.15	0.08	0.07847	1005.27	1.01
293.15	0.08	0.09855	1006.34	1.01
293.15	0.08	0.11839	1007.39	1.01
293.15	0.08	0.13734	1008.41	1.01
293.15	0.08	0.15709	1009.46	1.01
293.15	0.08	0.19856	1011.63	1.01
298.15	0.08	0	999.81	1.01
298.15	0.08	0.02131	1000.91	1.01
298.15	0.08	0.05974	1003	1.01
298.15	0.08	0.07847	1004.01	1.01
298.15	0.08	0.11839	1006.15	1.01
298.15	0.08	0.13734	1007.19	1.01
298.15	0.08	0.15709	1008.25	1.01
298.15	0.08	0.17501	1009.2	1.01
298.15	0.08	0.19856	1010.43	1.01
303.15	0.08	0	998.37	1.01
303.15	0.08	0.02131	999.43	1.01
303.15	0.08	0.05974	1001.49	1.01
303.15	0.08	0.07847	1002.5	1.01
303.15	0.08	0.09855	1003.55	1.01
303.15	0.08	0.11839	1004.6	1.01
303.15	0.08	0.13734	1005.68	1.01
303.15	0.08	0.15709	1006.69	1.01
303.15	0.08	0.19856	1008.84	1.01
308.15	0.08	0	996.75	1.01
308.15	0.08	0.05974	999.9	1.01
308.15	0.08	0.07847	1000.9	1.01
308.15	0.08	0.09855	1001.96	1.01
308.15	0.08	0.11839	1003	1.01
308.15	0.08	0.13734	1004	1.01
308.15	0.08	0.15709	1005.06	1.01
308.15	0.08	0.17501	1005.97	1.01
308.15	0.08	0.19856	1007.23	1.01

System: Domiphen bromide + glycyl-L-valine + water; phases: Liquid
Fixed: Pressure, kPa = 101
Property: Mass density, kg/m3 (Liquid); method: Vibrating tube method
Temperature, K	Solvent: Molality, mol/kg of Domiphen bromide	Molality, mol/kg of glycyl-L-valine	Mass density, kg/m3	uncertainty
293.15	0.04	0	999.62	1.01
293.15	0.04	0.03979	1001.66	1.01
293.15	0.04	0.05941	1002.68	1.01
293.15	0.04	0.07761	1003.61	1.01
293.15	0.04	0.13835	1006.7	1.01
293.15	0.04	0.15902	1007.72	1.01
293.15	0.04	0.17944	1008.77	1.01
293.15	0.04	0.20065	1009.84	1.01
298.15	0.04	0	998.38	1.01
298.15	0.04	0.02005	999.5	1.01
298.15	0.04	0.05941	1001.49	1.01
298.15	0.04	0.07761	1002.4	1.01
298.15	0.04	0.13835	1005.41	1.01
298.15	0.04	0.15902	1006.42	1.01
298.15	0.04	0.17944	1007.41	1.01
298.15	0.04	0.20065	1008.43	1.01
303.15	0.04	0	996.96	1.01
303.15	0.04	0.02005	997.97	1.01
303.15	0.04	0.03979	998.97	1.01
303.15	0.04	0.05941	999.97	1.01
303.15	0.04	0.07761	1000.85	1.01
303.15	0.04	0.13835	1003.91	1.01
303.15	0.04	0.15902	1004.94	1.01
303.15	0.04	0.20065	1007.1	1.01
308.15	0.04	0	995.4	1.01
308.15	0.04	0.02005	996.41	1.01
308.15	0.04	0.05941	998.34	1.01
308.15	0.04	0.07761	999.25	1.01
308.15	0.04	0.11969	1001.29	1.01
308.15	0.04	0.13835	1002.27	1.01
308.15	0.04	0.15902	1003.22	1.01
308.15	0.04	0.20065	1005.32	1.01
293.15	0.08	0	1000.97	1.01
293.15	0.08	0.06013	1004.02	1.01
293.15	0.08	0.07519	1004.78	1.01
293.15	0.08	0.09096	1005.55	1.01
293.15	0.08	0.10664	1006.34	1.01
293.15	0.08	0.12116	1007.04	1.01
293.15	0.08	0.13751	1007.85	1.01
293.15	0.08	0.15451	1008.68	1.01
298.15	0.08	0	999.85	1.01
298.15	0.08	0.04445	1002.07	1.01
298.15	0.08	0.06013	1002.82	1.01
298.15	0.08	0.07519	1003.57	1.01
298.15	0.08	0.10664	1005.07	1.01
298.15	0.08	0.12116	1005.72	1.01
298.15	0.08	0.13751	1006.47	1.01
298.15	0.08	0.15451	1007.3	1.01
303.15	0.08	0	998.33	1.01
303.15	0.08	0.04445	1000.49	1.01
303.15	0.08	0.07519	1001.96	1.01
303.15	0.08	0.09096	1002.69	1.01
303.15	0.08	0.10664	1003.45	1.01
303.15	0.08	0.12116	1004.12	1.01
303.15	0.08	0.13751	1004.89	1.01
303.15	0.08	0.15451	1005.65	1.01
308.15	0.08	0	996.79	1.01
308.15	0.08	0.04445	998.93	1.01
308.15	0.08	0.06013	999.66	1.01
308.15	0.08	0.07519	1000.35	1.01
308.15	0.08	0.10664	1001.8	1.01
308.15	0.08	0.12116	1002.49	1.01
308.15	0.08	0.13751	1003.2	1.01
308.15	0.08	0.15451	1004	1.01

System: Domiphen bromide + glycyl-L-leucine + water; phases: Liquid
Fixed: Pressure, kPa = 101
Property: Mass density, kg/m3 (Liquid); method: Vibrating tube method
Temperature, K	Solvent: Molality, mol/kg of Domiphen bromide	Molality, mol/kg of glycyl-L-leucine	Mass density, kg/m3	uncertainty
293.15	0.04	0	999.66	1.01
293.15	0.04	0.05977	1002.52	1.01
293.15	0.04	0.09764	1004.33	1.01
293.15	0.04	0.11863	1005.33	1.01
293.15	0.04	0.13742	1006.24	1.01
293.15	0.04	0.15765	1007.22	1.01
293.15	0.04	0.17677	1008.1	1.01
293.15	0.04	0.19897	1009.15	1.01
298.15	0.04	0	998.37	1.01
298.15	0.04	0.05977	1001.29	1.01
298.15	0.04	0.07819	1002.15	1.01
298.15	0.04	0.09764	1003.07	1.01
298.15	0.04	0.11863	1004.08	1.01
298.15	0.04	0.13742	1004.95	1.01
298.15	0.04	0.15765	1005.87	1.01
298.15	0.04	0.17677	1006.76	1.01
298.15	0.04	0.19897	1007.78	1.01
303.15	0.04	0	996.99	1.01
303.15	0.04	0.03958	998.84	1.01
303.15	0.04	0.05977	999.8	1.01
303.15	0.04	0.07819	1000.67	1.01
303.15	0.04	0.11863	1002.58	1.01
303.15	0.04	0.13742	1003.49	1.01
303.15	0.04	0.15765	1004.44	1.01
303.15	0.04	0.19897	1006.44	1.01
308.15	0.04	0	995.39	1.01
308.15	0.04	0.01917	996.37	1.01
308.15	0.04	0.07819	999.08	1.01
308.15	0.04	0.11863	1000.96	1.01
308.15	0.04	0.13742	1001.81	1.01
308.15	0.04	0.15765	1002.75	1.01
308.15	0.04	0.17677	1003.69	1.01
308.15	0.04	0.19897	1004.71	1.01
293.15	0.08	0	1001.01	1.01
293.15	0.08	0.05917	1003.91	1.01
293.15	0.08	0.09873	1005.77	1.01
293.15	0.08	0.11777	1006.69	1.01
293.15	0.08	0.13854	1007.66	1.01
293.15	0.08	0.15775	1008.57	1.01
293.15	0.08	0.1784	1009.51	1.01
293.15	0.08	0.19943	1010.49	1.01
298.15	0.08	0	999.81	1.01
298.15	0.08	0.02043	1000.77	1.01
298.15	0.08	0.05917	1002.61	1.01
298.15	0.08	0.07928	1003.56	1.01
298.15	0.08	0.09873	1004.46	1.01
298.15	0.08	0.11777	1005.34	1.01
298.15	0.08	0.13854	1006.35	1.01
298.15	0.08	0.15775	1007.22	1.01
298.15	0.08	0.19943	1009.2	1.01
303.15	0.08	0	998.38	1.01
303.15	0.08	0.05917	1001.16	1.01
303.15	0.08	0.07928	1002.09	1.01
303.15	0.08	0.09873	1002.99	1.01
303.15	0.08	0.11777	1003.92	1.01
303.15	0.08	0.13854	1004.88	1.01
303.15	0.08	0.15775	1005.8	1.01
303.15	0.08	0.1784	1006.75	1.01
308.15	0.08	0	996.76	1.01
308.15	0.08	0.05917	999.44	1.01
308.15	0.08	0.07928	1000.34	1.01
308.15	0.08	0.09873	1001.21	1.01
308.15	0.08	0.11777	1002.07	1.01
308.15	0.08	0.13854	1003.07	1.01
308.15	0.08	0.15775	1003.94	1.01
308.15	0.08	0.1784	1004.89	1.01

System: Domiphen bromide + water; phases: Liquid
Fixed: Pressure, kPa = 101
Property: Mass density, kg/m3 (Liquid); method: Vibrating tube method
Temperature, K	Molality, mol/kg of Domiphen bromide	Mass density, kg/m3	uncertainty
293.15	0.04	999.65	1
298.15	0.04	998.37	1.01
303.15	0.04	996.97	1.01
308.15	0.04	995.39	1.01
293.15	0.08	1000.98	1
298.15	0.08	999.84	1
303.15	0.08	998.36	1
308.15	0.08	996.78	1
