Measured thermophysical data. Volumetric properties of aqueous solutions of aluminium-L-lactate
Source: J. Chem. Thermodyn., 2016, 10.1016/j.jct.2016.03.003
Compound 1: aluminium L-lactate, C9H15AlO9, InChI=1S/3C3H6O3.Al/c3*1-2(4)3(5)6;/h3*2,4H,1H3,(H,5,6);/q;;;+3/p-3/t3*2-;/m000./s1, purity 98%
Compound 2: water, H2O, InChI=1S/H2O/h1H2

System: water + aluminium L-lactate; phases: Liquid
Fixed: Pressure, kPa = 101.3
Property: Mass density, kg/m3 (Liquid); method: Vibrating tube method
Temperature, K	Molality, mol/kg of aluminium L-lactate	Mass density, kg/m3	uncertainty
278.15	0.0016	1000.31	0.42
278.15	0.0033	1000.54	0.42
278.15	0.0065	1000.95	0.42
278.15	0.016	1002.1	0.42
278.15	0.0281	1003.54	0.42
278.15	0.0521	1006.26	0.42
278.15	0.0995	1011.5	0.42
278.15	0.1996	1022.22	0.42
278.15	0.3045	1032.98	0.42
278.15	0.4021	1042.51	0.42
278.15	0.5059	1052.17	0.42
278.15	0.5991	1060.59	0.42
278.15	0.7147	1070.67	0.42
283.15	0.0016	1000.07	0.45
283.15	0.0033	1000.29	0.42
283.15	0.0065	1000.7	0.42
283.15	0.016	1001.82	0.42
283.15	0.0281	1003.24	0.42
283.15	0.0521	1005.92	0.42
283.15	0.0995	1011.1	0.42
283.15	0.1996	1021.72	0.42
283.15	0.3045	1032.35	0.42
283.15	0.4021	1041.79	0.42
283.15	0.5059	1051.34	0.42
283.15	0.5991	1059.68	0.42
283.15	0.7147	1069.65	0.42
288.15	0.0016	999.46	0.45
288.15	0.0033	999.69	0.42
288.15	0.0065	1000.09	0.42
288.15	0.016	1001.21	0.42
288.15	0.0281	1002.6	0.42
288.15	0.0521	1005.25	0.42
288.15	0.0995	1010.37	0.42
288.15	0.1996	1020.89	0.42
288.15	0.3045	1031.43	0.42
288.15	0.4021	1040.77	0.42
288.15	0.5059	1050.24	0.42
288.15	0.5991	1058.5	0.42
288.15	0.7147	1068.38	0.42
293.15	0.0016	998.56	0.44
293.15	0.0033	998.78	0.42
293.15	0.0065	999.18	0.42
293.15	0.016	1000.27	0.42
293.15	0.0281	1001.67	0.42
293.15	0.0521	1004.3	0.42
293.15	0.0995	1009.39	0.42
293.15	0.1996	1019.81	0.42
293.15	0.3045	1030.26	0.42
293.15	0.4021	1039.52	0.42
293.15	0.5059	1048.92	0.42
293.15	0.5991	1057.11	0.42
293.15	0.7147	1066.89	0.42
298.15	0.0016	997.37	0.44
298.15	0.0033	997.6	0.42
298.15	0.0065	997.99	0.42
298.15	0.016	999.09	0.42
298.15	0.0281	1000.46	0.42
298.15	0.0521	1003.09	0.42
298.15	0.0995	1008.13	0.42
298.15	0.1996	1018.48	0.42
298.15	0.3045	1028.85	0.42
298.15	0.4021	1038.07	0.42
298.15	0.5059	1047.37	0.42
298.15	0.5991	1055.51	0.42
298.15	0.7147	1065.25	0.42
303.15	0.0016	996	0.44
303.15	0.0033	996.22	0.42
303.15	0.0065	996.61	0.42
303.15	0.016	997.67	0.42
303.15	0.0281	999.04	0.42
303.15	0.0521	1001.64	0.42
303.15	0.0995	1006.64	0.42
303.15	0.1996	1016.92	0.42
303.15	0.3045	1027.23	0.42
303.15	0.4021	1036.37	0.42
303.15	0.5059	1045.62	0.42
303.15	0.5991	1053.7	0.42
303.15	0.7147	1063.36	0.42
308.15	0.0016	994.37	0.44
308.15	0.0033	994.59	0.42
308.15	0.0065	994.98	0.42
308.15	0.016	996.04	0.42
308.15	0.0281	997.4	0.42
308.15	0.0521	999.99	0.42
308.15	0.0995	1004.96	0.42
308.15	0.1996	1015.17	0.42
308.15	0.3045	1025.41	0.42
308.15	0.4021	1034.51	0.42
308.15	0.5059	1043.7	0.42
308.15	0.5991	1051.73	0.42
308.15	0.7147	1061.35	0.42
313.15	0.0016	992.55	0.43
313.15	0.0033	992.76	0.42
313.15	0.0065	993.14	0.42
313.15	0.016	994.21	0.42
313.15	0.0281	995.56	0.42
313.15	0.0521	998.12	0.42
313.15	0.0995	1003.06	0.41
313.15	0.1996	1013.23	0.42
313.15	0.3045	1023.41	0.42
313.15	0.4021	1032.44	0.42
313.15	0.5059	1041.59	0.42
313.15	0.5991	1049.59	0.42
313.15	0.7147	1059.14	0.42
318.15	0.0016	990.54	0.43
318.15	0.0033	990.75	0.42
318.15	0.0065	991.13	0.42
318.15	0.016	992.2	0.42
318.15	0.0281	993.53	0.42
318.15	0.0521	996.09	0.42
318.15	0.0995	1001	0.41
318.15	0.1996	1011.1	0.41
318.15	0.3045	1021.23	0.42
318.15	0.4021	1030.23	0.42
318.15	0.5059	1039.33	0.42
318.15	0.5991	1047.3	0.42
318.15	0.7147	1056.79	0.42
323.15	0.0016	988.37	0.43
323.15	0.0033	988.56	0.42
323.15	0.0065	988.95	0.42
323.15	0.016	990	0.42
323.15	0.0281	991.34	0.42
323.15	0.0521	993.87	0.42
323.15	0.0995	998.76	0.41
323.15	0.1996	1008.81	0.41
323.15	0.3045	1018.9	0.42
323.15	0.4021	1027.86	0.42
323.15	0.5059	1036.92	0.42
323.15	0.5991	1044.84	0.42
323.15	0.7147	1054.31	0.42
328.15	0.0016	986.02	0.43
328.15	0.0033	986.21	0.42
328.15	0.0065	986.59	0.42
328.15	0.016	987.65	0.42
328.15	0.0281	988.97	0.42
328.15	0.0521	991.49	0.42
328.15	0.0995	996.36	0.41
328.15	0.1996	1006.37	0.41
328.15	0.3045	1016.42	0.41
328.15	0.4021	1025.32	0.42
328.15	0.5059	1034.36	0.42
328.15	0.5991	1042.24	0.42
328.15	0.7147	1051.67	0.42
333.15	0.0016	983.53	0.43
333.15	0.0033	983.72	0.42
333.15	0.0065	984.09	0.42
333.15	0.016	985.14	0.42
333.15	0.0281	986.48	0.42
333.15	0.0521	988.97	0.42
333.15	0.0995	993.82	0.41
333.15	0.1996	1003.79	0.41
333.15	0.3045	1013.8	0.41
333.15	0.4021	1022.68	0.41
333.15	0.5059	1031.67	0.42
333.15	0.5991	1039.53	0.42
333.15	0.7147	1048.93	0.42
338.15	0.0016	980.88	0.42
338.15	0.0033	981.06	0.42
338.15	0.0065	981.45	0.42
338.15	0.016	982.49	0.42
338.15	0.0281	983.81	0.42
338.15	0.0521	986.3	0.42
338.15	0.0995	991.13	0.41
338.15	0.1996	1001.06	0.41
338.15	0.3045	1011.04	0.41
338.15	0.4021	1019.88	0.41
338.15	0.5059	1028.85	0.42
338.15	0.5991	1036.68	0.42
338.15	0.7147	1046.04	0.42
343.15	0.0016	978.11	0.41
343.15	0.0033	978.27	0.42
343.15	0.0065	978.67	0.42
343.15	0.016	979.71	0.42
343.15	0.0281	981.02	0.42
343.15	0.0521	983.51	0.42
343.15	0.0995	988.33	0.41
343.15	0.1996	998.2	0.41
343.15	0.3045	1008.14	0.41
343.15	0.4021	1017.05	0.41
343.15	0.5059	1025.9	0.42
343.15	0.5991	1033.73	0.42
343.15	0.7147	1043.05	0.42
