Measured thermophysical data. Volume-related solvation and pair interaction parameters for dilute solutions of urea and tetramethylurea in ethylene glycol between 288.15 K and 328.15 K: A comparative analysis
Source: J. Chem. Thermodyn., 2019, 10.1016/j.jct.2019.04.009
Compound 1: 1,2-ethanediol, C2H6O2, InChI=1S/C2H6O2/c3-1-2-4/h3-4H,1-2H2, purity 99.8%
Compound 2: tetramethylurea, C5H12N2O, InChI=1S/C5H12N2O/c1-6(2)5(8)7(3)4/h1-4H3, purity 99.5%
Compound 3: urea, CH4N2O, InChI=1S/CH4N2O/c2-1(3)4/h(H4,2,3,4), purity 99.5%
Compound 4: water, H2O, InChI=1S/H2O/h1H2

System: 1,2-ethanediol; phases: Liquid
Fixed: Pressure, kPa = 101.325
Property: Mass density, kg/m3 (Liquid); method: Vibrating tube method
Temperature, K	Mass density, kg/m3	uncertainty
288.15	1117.01	0.12
298.15	1110.08	0.12
308.15	1103.08	0.12
318.15	1096	0.12
328.15	1088.83	0.12

System: tetramethylurea; phases: Liquid
Fixed: Pressure, kPa = 101.325
Property: Mass density, kg/m3 (Liquid); method: Vibrating tube method
Temperature, K	Mass density, kg/m3	uncertainty
288.15	971.23	0.11
298.15	962.07	0.11
308.15	952.88	0.11
318.15	943.65	0.11
328.15	934.38	0.12

System: urea + water; phases: Liquid
Fixed: Temperature, K = 298.15
Fixed: Pressure, kPa = 100
Property: Mass density, kg/m3 (Liquid); method: Vibrating tube method
Molality, mol/kg of urea	Mass density, kg/m3	uncertainty
0	997.05	0.11
0.1001	998.63	0.11
0.1999	1000.2	0.11
0.3	1001.75	0.11
0.4	1003.29	0.11
0.5001	1004.81	0.11

System: 1,2-ethanediol + urea; phases: Liquid
Fixed: Pressure, kPa = 99.6
Property: Mass density, kg/m3 (Liquid); method: Vibrating tube method
Temperature, K	Molality, mol/kg of urea	Mass density, kg/m3	uncertainty
288.15	0.0551	1117.63	0.12
288.15	0.1487	1118.67	0.12
288.15	0.3264	1120.61	0.13
288.15	0.446	1121.88	0.13
288.15	0.495	1122.39	0.13
288.15	0.6616	1124.11	0.13
288.15	0.8791	1126.28	0.13
288.15	1.0722	1128.14	0.13
288.15	1.2077	1129.41	0.13
288.15	1.3569	1130.76	0.13
288.15	1.5233	1132.23	0.13
298.15	0.0551	1110.69	0.12
298.15	0.1487	1111.72	0.12
298.15	0.3264	1113.63	0.12
298.15	0.446	1114.89	0.12
298.15	0.495	1115.41	0.12
298.15	0.6616	1117.13	0.12
298.15	0.8791	1119.33	0.12
298.15	1.0722	1121.24	0.13
298.15	1.2077	1122.55	0.13
298.15	1.3569	1123.96	0.13
298.15	1.5233	1125.51	0.13
308.15	0.0551	1103.68	0.12
308.15	0.1487	1104.7	0.12
308.15	0.3264	1106.59	0.12
308.15	0.446	1107.84	0.12
308.15	0.495	1108.35	0.12
308.15	0.6616	1110.06	0.12
308.15	0.8791	1112.26	0.12
308.15	1.0722	1114.15	0.12
308.15	1.2077	1115.46	0.12
308.15	1.3569	1116.88	0.12
308.15	1.5233	1118.42	0.12
318.15	0.0551	1096.6	0.12
318.15	0.1487	1097.61	0.12
318.15	0.3264	1099.51	0.12
318.15	0.446	1100.77	0.12
318.15	0.495	1101.28	0.12
318.15	0.6616	1103	0.12
318.15	0.8791	1105.19	0.12
318.15	1.0722	1107.09	0.12
318.15	1.2077	1108.4	0.12
318.15	1.3569	1109.83	0.12
318.15	1.5233	1111.4	0.12
328.15	0.0551	1089.43	0.12
328.15	0.1487	1090.44	0.12
328.15	0.3264	1092.34	0.12
328.15	0.446	1093.59	0.12
328.15	0.495	1094.1	0.12
328.15	0.6616	1095.82	0.12
328.15	0.8791	1098.01	0.12
328.15	1.0722	1099.92	0.12
328.15	1.2077	1101.23	0.12
328.15	1.3569	1102.66	0.12
328.15	1.5233	1104.22	0.12
288.15	0	1117.01	0.12
298.15	0	1110.08	0.12
308.15	0	1103.08	0.12
318.15	0	1096	0.12
328.15	0	1088.83	0.12

System: 1,2-ethanediol + tetramethylurea; phases: Liquid
Fixed: Pressure, kPa = 99.6
Property: Mass density, kg/m3 (Liquid); method: Vibrating tube method
Temperature, K	Molality, mol/kg of tetramethylurea	Mass density, kg/m3	uncertainty
288.15	0.0584	1115.94	0.12
288.15	0.1493	1114.32	0.12
288.15	0.2862	1111.96	0.12
288.15	0.3987	1110.11	0.12
288.15	0.5525	1107.65	0.12
288.15	0.7264	1105	0.12
288.15	0.9091	1102.34	0.12
288.15	1.1022	1099.67	0.12
288.15	1.1037	1099.65	0.12
288.15	1.2643	1097.54	0.12
288.15	1.474	1094.93	0.12
298.15	0.0584	1109	0.12
298.15	0.1493	1107.36	0.12
298.15	0.2862	1104.97	0.12
298.15	0.3987	1103.08	0.12
298.15	0.5525	1100.58	0.12
298.15	0.7264	1097.87	0.12
298.15	0.9091	1095.16	0.12
298.15	1.1022	1092.44	0.12
298.15	1.1037	1092.43	0.12
298.15	1.2643	1090.27	0.12
298.15	1.474	1087.58	0.12
308.15	0.0584	1101.99	0.12
308.15	0.1493	1100.33	0.12
308.15	0.2862	1097.91	0.12
308.15	0.3987	1095.99	0.12
308.15	0.5525	1093.44	0.12
308.15	0.7264	1090.67	0.12
308.15	0.9091	1087.92	0.12
308.15	1.1022	1085.14	0.12
308.15	1.1037	1085.13	0.12
308.15	1.2643	1082.93	0.12
308.15	1.474	1080.18	0.12
318.15	0.0584	1094.9	0.12
318.15	0.1493	1093.21	0.12
318.15	0.2862	1090.75	0.12
318.15	0.3987	1088.8	0.12
318.15	0.5525	1086.23	0.12
318.15	0.7264	1083.43	0.12
318.15	0.9091	1080.62	0.12
318.15	1.1022	1077.79	0.12
318.15	1.1037	1077.77	0.12
318.15	1.2643	1075.53	0.12
318.15	1.474	1072.73	0.12
328.15	0.0584	1087.71	0.12
328.15	0.1493	1086	0.12
328.15	0.2862	1083.51	0.12
328.15	0.3987	1081.53	0.12
328.15	0.5525	1078.91	0.12
328.15	0.7264	1076.07	0.12
328.15	0.9091	1073.21	0.12
328.15	1.1022	1070.33	0.12
328.15	1.1037	1070.31	0.12
328.15	1.2643	1068.02	0.12
328.15	1.474	1065.16	0.11
288.15	0	1117.01	0.12
298.15	0	1110.08	0.12
308.15	0	1103.08	0.12
318.15	0	1096	0.12
328.15	0	1088.83	0.12
