Measured thermophysical data. Thermodynamic and spectroscopic study of binary mixtures containing {dimethyl carbonate (DMC) + alcohols} at T = (288.15-308.15) K and p = (0.1-40) MPa: Experimental study and modelling
Source: J. Chem. Thermodyn., 2019, 10.1016/j.jct.2019.02.011
Compound 1: dimethyl carbonate, C3H6O3, InChI=1S/C3H6O3/c1-5-3(4)6-2/h1-2H3, purity 99%
Compound 2: methanol, CH4O, InChI=1S/CH4O/c1-2/h2H,1H3, purity 99.9%
Compound 3: ethanol, C2H6O, InChI=1S/C2H6O/c1-2-3/h3H,2H2,1H3, purity 99.5%
Compound 4: propan-1-ol, C3H8O, InChI=1S/C3H8O/c1-2-3-4/h4H,2-3H2,1H3, purity 99.5%

System: dimethyl carbonate; phases: Liquid
Property: Mass density, kg/m3 (Liquid); method: Vibrating tube method
Temperature, K	Pressure, kPa	Mass density, kg/m3	uncertainty
288.15	100	1076.83	0.57
288.15	5000	1081.15	0.57
288.15	10000	1085.32	0.58
288.15	15000	1089.52	0.6
288.15	20000	1093.35	0.61
288.15	25000	1096.99	0.62
288.15	30000	1100.63	0.63
288.15	35000	1104.08	0.65
288.15	40000	1107.4	0.67
293.15	100	1070.06	0.56
293.15	5000	1074.62	0.57
293.15	10000	1078.93	0.58
293.15	15000	1083.01	0.59
293.15	20000	1087.08	0.6
293.15	25000	1091.03	0.61
293.15	30000	1094.75	0.63
293.15	35000	1098.34	0.64
293.15	40000	1101.84	0.66
298.15	100	1063.45	0.56
298.15	5000	1068	0.57
298.15	10000	1072.51	0.58
298.15	15000	1076.72	0.59
298.15	20000	1080.9	0.6
298.15	25000	1084.89	0.61
298.15	30000	1088.82	0.62
298.15	35000	1092.44	0.64
298.15	40000	1096.04	0.65
303.15	100	1056.61	0.56
303.15	5000	1061.47	0.57
303.15	10000	1066.02	0.57
303.15	15000	1070.49	0.58
303.15	20000	1074.79	0.59
303.15	25000	1078.99	0.6
303.15	30000	1082.9	0.62
303.15	35000	1086.6	0.63
303.15	40000	1090.4	0.64
308.15	100	1049.91	0.56
308.15	5000	1054.84	0.56
308.15	10000	1059.69	0.57
308.15	15000	1064.3	0.58
308.15	20000	1068.73	0.59
308.15	25000	1073	0.6
308.15	30000	1077.1	0.61
308.15	35000	1080.78	0.62
308.15	40000	1084.38	0.63

System: methanol; phases: Liquid
Property: Mass density, kg/m3 (Liquid); method: Vibrating tube method
Temperature, K	Pressure, kPa	Mass density, kg/m3	uncertainty
288.15	100	796.19	0.51
288.15	5000	800.57	0.52
288.15	10000	804.93	0.53
288.15	15000	808.85	0.54
288.15	20000	812.92	0.55
288.15	25000	816.56	0.56
288.15	30000	820.09	0.58
288.15	35000	823.62	0.59
288.15	40000	827.04	0.6
293.15	100	791.18	0.51
293.15	5000	795.97	0.52
293.15	10000	800.47	0.53
293.15	15000	804.52	0.54
293.15	20000	808.43	0.55
293.15	25000	812.34	0.56
293.15	30000	815.93	0.58
293.15	35000	819.32	0.59
293.15	40000	822.48	0.61
298.15	100	786.76	0.51
298.15	5000	791.52	0.52
298.15	10000	795.8	0.53
298.15	15000	800.13	0.54
298.15	20000	804.18	0.55
298.15	25000	808.04	0.57
298.15	30000	811.69	0.58
298.15	35000	815.2	0.6
298.15	40000	818.33	0.61
303.15	100	782.07	0.51
303.15	5000	786.79	0.52
303.15	10000	791.31	0.53
303.15	15000	795.85	0.54
303.15	20000	800.16	0.56
303.15	25000	804.08	0.57
303.15	30000	807.78	0.58
303.15	35000	811.31	0.6
303.15	40000	814.7	0.61
308.15	100	777.09	0.51
308.15	5000	781.85	0.52
308.15	10000	786.63	0.53
308.15	15000	791.23	0.54
308.15	20000	795.58	0.56
308.15	25000	799.85	0.57
308.15	30000	803.73	0.59
308.15	35000	807.42	0.6
308.15	40000	811.08	0.62

System: ethanol; phases: Liquid
Property: Mass density, kg/m3 (Liquid); method: Vibrating tube method
Temperature, K	Pressure, kPa	Mass density, kg/m3	uncertainty
288.15	100	794.39	0.52
288.15	5000	798.18	0.53
288.15	10000	802.2	0.54
288.15	15000	806.02	0.55
288.15	20000	809.69	0.56
288.15	25000	812.95	0.58
288.15	30000	816.23	0.59
288.15	35000	819.12	0.61
288.15	40000	822.29	0.62
293.15	100	789.87	0.52
293.15	5000	793.83	0.53
293.15	10000	797.88	0.54
293.15	15000	801.84	0.55
293.15	20000	805.45	0.57
293.15	25000	809.12	0.58
293.15	30000	812.52	0.6
293.15	35000	815.8	0.61
293.15	40000	818.81	0.63
298.15	100	785.59	0.52
298.15	5000	789.72	0.53
298.15	10000	793.76	0.54
298.15	15000	797.75	0.55
298.15	20000	801.4	0.57
298.15	25000	805.07	0.58
298.15	30000	808.47	0.6
298.15	35000	811.58	0.61
298.15	40000	815.03	0.63
303.15	100	781.19	0.52
303.15	5000	785.47	0.53
303.15	10000	789.66	0.54
303.15	15000	793.71	0.55
303.15	20000	797.54	0.57
303.15	25000	801.26	0.58
303.15	30000	804.81	0.6
303.15	35000	808.29	0.62
303.15	40000	811.43	0.64
308.15	100	776.6	0.52
308.15	5000	780.98	0.53
308.15	10000	785.42	0.54
308.15	15000	789.62	0.56
308.15	20000	793.63	0.57
308.15	25000	797.42	0.59
308.15	30000	801.06	0.6
308.15	35000	804.6	0.62
308.15	40000	808.06	0.64

System: propan-1-ol; phases: Liquid
Property: Mass density, kg/m3 (Liquid); method: Vibrating tube method
Temperature, K	Pressure, kPa	Mass density, kg/m3	uncertainty
288.15	100	807.62	0.52
288.15	5000	811.32	0.52
288.15	10000	814.7	0.53
288.15	15000	817.95	0.55
288.15	20000	821.27	0.56
288.15	25000	824.24	0.57
288.15	30000	827.24	0.59
288.15	35000	830.04	0.6
288.15	40000	832.73	0.61
293.15	100	803.57	0.52
293.15	5000	807.24	0.53
293.15	10000	810.8	0.54
293.15	15000	814.22	0.55
293.15	20000	817.46	0.56
293.15	25000	820.74	0.57
293.15	30000	823.7	0.59
293.15	35000	826.5	0.6
293.15	40000	829.09	0.62
298.15	100	799.61	0.52
298.15	5000	803.49	0.53
298.15	10000	807.15	0.54
298.15	15000	810.5	0.55
298.15	20000	813.78	0.56
298.15	25000	816.92	0.58
298.15	30000	820.04	0.59
298.15	35000	822.87	0.61
298.15	40000	825.81	0.62
303.15	100	795.62	0.52
303.15	5000	799.57	0.53
303.15	10000	803.13	0.54
303.15	15000	806.69	0.55
303.15	20000	810.14	0.56
303.15	25000	813.48	0.58
303.15	30000	816.64	0.59
303.15	35000	819.75	0.61
303.15	40000	822.6	0.62
308.15	100	791.31	0.52
308.15	5000	795.4	0.53
308.15	10000	799.21	0.54
308.15	15000	802.79	0.55
308.15	20000	806.37	0.57
308.15	25000	809.72	0.58
308.15	30000	813.03	0.6
308.15	35000	816.12	0.61
308.15	40000	819.06	0.63

System: dimethyl carbonate + methanol; phases: Liquid
Property: Mass density, kg/m3 (Liquid); method: Vibrating tube method
Temperature, K	Pressure, kPa	Mole fraction of dimethyl carbonate	Mass density, kg/m3	uncertainty
288.15	100	0.0253	810.84	1.37
288.15	100	0.0503	824.62	1.38
288.15	100	0.0745	837.24	1.39
288.15	100	0.101	850.42	1.39
288.15	100	0.1502	872.98	1.41
288.15	100	0.2059	896.31	1.42
288.15	100	0.25	913.24	1.43
288.15	100	0.3004	930.93	1.44
288.15	100	0.3426	944.7	1.45
288.15	100	0.3984	961.49	1.46
288.15	100	0.4514	976.13	1.47
288.15	100	0.5054	989.85	1.48
288.15	100	0.5509	1000.55	1.49
288.15	100	0.6002	1011.31	1.5
288.15	100	0.6469	1020.74	1.51
288.15	100	0.6993	1030.63	1.51
288.15	100	0.7496	1039.53	1.52
288.15	100	0.799	1047.69	1.53
288.15	100	0.837	1053.71	1.54
288.15	100	0.9093	1064.47	1.55
288.15	100	0.9239	1066.51	1.55
288.15	100	0.9575	1071.14	1.56
288.15	100	0.9861	1074.98	1.56
288.15	5000	0.0253	815.18	1.38
288.15	5000	0.0503	828.97	1.38
288.15	5000	0.0745	841.59	1.39
288.15	5000	0.101	854.82	1.4
288.15	5000	0.1502	877.39	1.41
288.15	5000	0.2059	900.74	1.42
288.15	5000	0.25	917.63	1.44
288.15	5000	0.3004	935.33	1.45
288.15	5000	0.3426	949.1	1.46
288.15	5000	0.3984	965.91	1.47
288.15	5000	0.4514	980.55	1.48
288.15	5000	0.5054	994.22	1.49
288.15	5000	0.5509	1004.93	1.49
288.15	5000	0.6002	1015.7	1.5
288.15	5000	0.6469	1025.14	1.51
288.15	5000	0.6993	1035.03	1.52
288.15	5000	0.7496	1043.88	1.53
288.15	5000	0.799	1052.04	1.53
288.15	5000	0.837	1058.02	1.54
288.15	5000	0.9093	1068.78	1.55
288.15	5000	0.9239	1070.83	1.55
288.15	5000	0.9575	1075.46	1.56
288.15	5000	0.9861	1079.3	1.57
288.15	10000	0.0253	819.54	1.38
288.15	10000	0.0503	833.29	1.39
288.15	10000	0.0745	845.92	1.39
288.15	10000	0.101	859.16	1.4
288.15	10000	0.1502	881.74	1.42
288.15	10000	0.2059	905.09	1.43
288.15	10000	0.25	921.99	1.44
288.15	10000	0.3004	939.69	1.45
288.15	10000	0.3426	953.42	1.46
288.15	10000	0.3984	970.23	1.47
288.15	10000	0.4514	984.83	1.48
288.15	10000	0.5054	998.51	1.49
288.15	10000	0.5509	1009.17	1.5
288.15	10000	0.6002	1019.95	1.51
288.15	10000	0.6469	1029.39	1.51
288.15	10000	0.6993	1039.28	1.52
288.15	10000	0.7496	1048.14	1.53
288.15	10000	0.799	1056.25	1.54
288.15	10000	0.837	1062.23	1.55
288.15	10000	0.9093	1072.95	1.56
288.15	10000	0.9239	1074.99	1.56
288.15	10000	0.9575	1079.63	1.57
288.15	10000	0.9861	1083.47	1.57
288.15	15000	0.0253	823.48	1.39
288.15	15000	0.0503	837.23	1.39
288.15	15000	0.0745	849.88	1.4
288.15	15000	0.101	863.12	1.41
288.15	15000	0.1502	885.77	1.42
288.15	15000	0.2059	909.15	1.43
288.15	15000	0.25	926.05	1.44
288.15	15000	0.3004	943.77	1.45
288.15	15000	0.3426	957.51	1.46
288.15	15000	0.3984	974.34	1.47
288.15	15000	0.4514	988.95	1.48
288.15	15000	0.5054	1002.64	1.49
288.15	15000	0.5509	1013.31	1.5
288.15	15000	0.6002	1024.09	1.51
288.15	15000	0.6469	1033.54	1.52
288.15	15000	0.6993	1043.44	1.53
288.15	15000	0.7496	1052.31	1.53
288.15	15000	0.799	1060.43	1.54
288.15	15000	0.837	1066.41	1.55
288.15	15000	0.9093	1077.14	1.56
288.15	15000	0.9239	1079.18	1.57
288.15	15000	0.9575	1083.83	1.57
288.15	15000	0.9861	1087.67	1.58
288.15	20000	0.0253	827.53	1.39
288.15	20000	0.0503	841.29	1.4
288.15	20000	0.0745	853.93	1.41
288.15	20000	0.101	867.17	1.41
288.15	20000	0.1502	889.81	1.42
288.15	20000	0.2059	913.18	1.44
288.15	20000	0.25	930.08	1.45
288.15	20000	0.3004	947.8	1.46
288.15	20000	0.3426	961.53	1.46
288.15	20000	0.3984	978.3	1.47
288.15	20000	0.4514	992.91	1.48
288.15	20000	0.5054	1006.6	1.49
288.15	20000	0.5509	1017.27	1.5
288.15	20000	0.6002	1028.04	1.51
288.15	20000	0.6469	1037.49	1.52
288.15	20000	0.6993	1047.34	1.53
288.15	20000	0.7496	1056.2	1.54
288.15	20000	0.799	1064.32	1.55
288.15	20000	0.837	1070.3	1.56
288.15	20000	0.9093	1080.97	1.57
288.15	20000	0.9239	1083.02	1.57
288.15	20000	0.9575	1087.66	1.58
288.15	20000	0.9861	1091.5	1.59
288.15	25000	0.0253	831.19	1.4
288.15	25000	0.0503	844.9	1.4
288.15	25000	0.0745	857.55	1.41
288.15	25000	0.101	870.8	1.42
288.15	25000	0.1502	893.46	1.43
288.15	25000	0.2059	916.85	1.44
288.15	25000	0.25	933.76	1.45
288.15	25000	0.3004	951.49	1.46
288.15	25000	0.3426	965.18	1.47
288.15	25000	0.3984	981.96	1.48
288.15	25000	0.4514	996.58	1.49
288.15	25000	0.5054	1010.28	1.5
288.15	25000	0.5509	1020.95	1.51
288.15	25000	0.6002	1031.69	1.52
288.15	25000	0.6469	1041.14	1.52
288.15	25000	0.6993	1051	1.53
288.15	25000	0.7496	1059.86	1.54
288.15	25000	0.799	1067.94	1.55
288.15	25000	0.837	1073.92	1.56
288.15	25000	0.9093	1084.6	1.58
288.15	25000	0.9239	1086.65	1.58
288.15	25000	0.9575	1091.29	1.59
288.15	25000	0.9861	1095.14	1.59
288.15	30000	0.0253	834.68	1.41
288.15	30000	0.0503	848.4	1.41
288.15	30000	0.0745	861.06	1.42
288.15	30000	0.101	874.32	1.42
288.15	30000	0.1502	897.03	1.43
288.15	30000	0.2059	920.43	1.44
288.15	30000	0.25	937.36	1.45
288.15	30000	0.3004	955.1	1.46
288.15	30000	0.3426	968.8	1.47
288.15	30000	0.3984	985.59	1.48
288.15	30000	0.4514	1000.22	1.49
288.15	30000	0.5054	1013.92	1.5
288.15	30000	0.5509	1024.6	1.51
288.15	30000	0.6002	1035.34	1.52
288.15	30000	0.6469	1044.75	1.53
288.15	30000	0.6993	1054.61	1.54
288.15	30000	0.7496	1063.48	1.55
288.15	30000	0.799	1071.56	1.56
288.15	30000	0.837	1077.55	1.57
288.15	30000	0.9093	1088.24	1.58
288.15	30000	0.9239	1090.28	1.59
288.15	30000	0.9575	1094.93	1.59
288.15	30000	0.9861	1098.78	1.6
288.15	35000	0.0253	838.22	1.41
288.15	35000	0.0503	851.95	1.42
288.15	35000	0.0745	864.56	1.42
288.15	35000	0.101	877.83	1.43
288.15	35000	0.1502	900.56	1.44
288.15	35000	0.2059	923.97	1.45
288.15	35000	0.25	940.91	1.45
288.15	35000	0.3004	958.61	1.46
288.15	35000	0.3426	972.32	1.47
288.15	35000	0.3984	989.12	1.48
288.15	35000	0.4514	1003.71	1.49
288.15	35000	0.5054	1017.42	1.5
288.15	35000	0.5509	1028.11	1.51
288.15	35000	0.6002	1038.85	1.52
288.15	35000	0.6469	1048.27	1.53
288.15	35000	0.6993	1058.08	1.54
288.15	35000	0.7496	1066.96	1.55
288.15	35000	0.799	1075.04	1.56
288.15	35000	0.837	1080.99	1.57
288.15	35000	0.9093	1091.68	1.59
288.15	35000	0.9239	1093.73	1.59
288.15	35000	0.9575	1098.38	1.6
288.15	35000	0.9861	1102.23	1.61
288.15	40000	0.0253	841.6	1.42
288.15	40000	0.0503	855.33	1.42
288.15	40000	0.0745	867.95	1.43
288.15	40000	0.101	881.23	1.43
288.15	40000	0.1502	903.97	1.44
288.15	40000	0.2059	927.4	1.45
288.15	40000	0.25	944.34	1.46
288.15	40000	0.3004	962.05	1.47
288.15	40000	0.3426	975.72	1.47
288.15	40000	0.3984	992.53	1.48
288.15	40000	0.4514	1007.07	1.49
288.15	40000	0.5054	1020.79	1.51
288.15	40000	0.5509	1031.49	1.52
288.15	40000	0.6002	1042.19	1.53
288.15	40000	0.6469	1051.61	1.54
288.15	40000	0.6993	1061.43	1.55
288.15	40000	0.7496	1070.31	1.56
288.15	40000	0.799	1078.4	1.57
288.15	40000	0.837	1084.34	1.58
288.15	40000	0.9093	1094.99	1.6
288.15	40000	0.9239	1097.04	1.6
288.15	40000	0.9575	1101.69	1.61
288.15	40000	0.9861	1105.55	1.62
293.15	100	0.0253	805.71	1.37
293.15	100	0.0503	819.38	1.38
293.15	100	0.0745	831.94	1.38
293.15	100	0.101	844.99	1.39
293.15	100	0.1502	867.43	1.4
293.15	100	0.2059	890.58	1.42
293.15	100	0.25	907.39	1.43
293.15	100	0.3004	925.01	1.44
293.15	100	0.3426	938.66	1.45
293.15	100	0.3984	955.38	1.46
293.15	100	0.4514	969.9	1.47
293.15	100	0.5054	983.54	1.48
293.15	100	0.5509	994.14	1.49
293.15	100	0.6002	1004.83	1.49
293.15	100	0.6469	1014.25	1.5
293.15	100	0.6993	1024.07	1.51
293.15	100	0.7496	1032.91	1.52
293.15	100	0.799	1041.06	1.52
293.15	100	0.837	1047.02	1.53
293.15	100	0.9093	1057.71	1.54
293.15	100	0.9239	1059.75	1.54
293.15	100	0.9575	1064.38	1.55
293.15	100	0.9861	1068.22	1.55
293.15	5000	0.0253	810.46	1.37
293.15	5000	0.0503	824.13	1.38
293.15	5000	0.0745	836.69	1.39
293.15	5000	0.101	849.75	1.39
293.15	5000	0.1502	872.18	1.41
293.15	5000	0.2059	895.35	1.42
293.15	5000	0.25	912.16	1.43
293.15	5000	0.3004	929.73	1.44
293.15	5000	0.3426	943.38	1.45
293.15	5000	0.3984	960.11	1.46
293.15	5000	0.4514	974.63	1.47
293.15	5000	0.5054	988.23	1.48
293.15	5000	0.5509	998.83	1.49
293.15	5000	0.6002	1009.48	1.5
293.15	5000	0.6469	1018.9	1.5
293.15	5000	0.6993	1028.72	1.51
293.15	5000	0.7496	1037.51	1.52
293.15	5000	0.799	1045.66	1.53
293.15	5000	0.837	1051.63	1.54
293.15	5000	0.9093	1062.27	1.55
293.15	5000	0.9239	1064.31	1.55
293.15	5000	0.9575	1068.94	1.56
293.15	5000	0.9861	1072.78	1.56
293.15	10000	0.0253	814.95	1.38
293.15	10000	0.0503	828.58	1.39
293.15	10000	0.0745	841.14	1.39
293.15	10000	0.101	854.2	1.4
293.15	10000	0.1502	876.65	1.41
293.15	10000	0.2059	899.82	1.43
293.15	10000	0.25	916.63	1.44
293.15	10000	0.3004	934.21	1.45
293.15	10000	0.3426	947.86	1.46
293.15	10000	0.3984	964.54	1.47
293.15	10000	0.4514	979.07	1.48
293.15	10000	0.5054	992.67	1.48
293.15	10000	0.5509	1003.27	1.49
293.15	10000	0.6002	1013.92	1.5
293.15	10000	0.6469	1023.3	1.51
293.15	10000	0.6993	1033.07	1.52
293.15	10000	0.7496	1041.86	1.53
293.15	10000	0.799	1050.01	1.53
293.15	10000	0.837	1055.93	1.54
293.15	10000	0.9093	1066.58	1.55
293.15	10000	0.9239	1068.62	1.55
293.15	10000	0.9575	1073.25	1.56
293.15	10000	0.9861	1077.09	1.57
293.15	15000	0.0253	819.01	1.38
293.15	15000	0.0503	832.64	1.39
293.15	15000	0.0745	845.15	1.4
293.15	15000	0.101	858.22	1.4
293.15	15000	0.1502	880.67	1.42
293.15	15000	0.2059	903.9	1.43
293.15	15000	0.25	920.72	1.44
293.15	15000	0.3004	938.3	1.45
293.15	15000	0.3426	951.96	1.46
293.15	15000	0.3984	968.64	1.47
293.15	15000	0.4514	983.17	1.48
293.15	15000	0.5054	996.78	1.49
293.15	15000	0.5509	1007.38	1.5
293.15	15000	0.6002	1018.04	1.5
293.15	15000	0.6469	1027.41	1.51
293.15	15000	0.6993	1037.19	1.52
293.15	15000	0.7496	1045.98	1.53
293.15	15000	0.799	1054.09	1.54
293.15	15000	0.837	1060.01	1.54
293.15	15000	0.9093	1070.66	1.56
293.15	15000	0.9239	1072.7	1.56
293.15	15000	0.9575	1077.33	1.57
293.15	15000	0.9861	1081.17	1.57
293.15	20000	0.0253	822.93	1.39
293.15	20000	0.0503	836.57	1.4
293.15	20000	0.0745	849.09	1.4
293.15	20000	0.101	862.17	1.41
293.15	20000	0.1502	884.64	1.42
293.15	20000	0.2059	907.88	1.43
293.15	20000	0.25	924.71	1.44
293.15	20000	0.3004	942.31	1.45
293.15	20000	0.3426	955.98	1.46
293.15	20000	0.3984	972.68	1.47
293.15	20000	0.4514	987.22	1.48
293.15	20000	0.5054	1000.83	1.49
293.15	20000	0.5509	1011.44	1.5
293.15	20000	0.6002	1022.11	1.51
293.15	20000	0.6469	1031.49	1.52
293.15	20000	0.6993	1041.28	1.53
293.15	20000	0.7496	1050.08	1.53
293.15	20000	0.799	1058.13	1.54
293.15	20000	0.837	1064.06	1.55
293.15	20000	0.9093	1074.72	1.56
293.15	20000	0.9239	1076.76	1.57
293.15	20000	0.9575	1081.4	1.57
293.15	20000	0.9861	1085.23	1.58
293.15	25000	0.0253	826.85	1.4
293.15	25000	0.0503	840.49	1.4
293.15	25000	0.0745	853.02	1.41
293.15	25000	0.101	866.1	1.41
293.15	25000	0.1502	888.56	1.42
293.15	25000	0.2059	911.86	1.44
293.15	25000	0.25	928.69	1.45
293.15	25000	0.3004	946.29	1.46
293.15	25000	0.3426	959.96	1.46
293.15	25000	0.3984	976.66	1.47
293.15	25000	0.4514	991.16	1.48
293.15	25000	0.5054	1004.77	1.49
293.15	25000	0.5509	1015.38	1.5
293.15	25000	0.6002	1026.05	1.51
293.15	25000	0.6469	1035.43	1.52
293.15	25000	0.6993	1045.22	1.53
293.15	25000	0.7496	1054.02	1.54
293.15	25000	0.799	1062.08	1.55
293.15	25000	0.837	1068.01	1.56
293.15	25000	0.9093	1078.67	1.57
293.15	25000	0.9239	1080.71	1.57
293.15	25000	0.9575	1085.34	1.58
293.15	25000	0.9861	1089.18	1.59
293.15	30000	0.0253	830.45	1.4
293.15	30000	0.0503	844.1	1.41
293.15	30000	0.0745	856.63	1.41
293.15	30000	0.101	869.72	1.42
293.15	30000	0.1502	892.2	1.43
293.15	30000	0.2059	915.51	1.44
293.15	30000	0.25	932.36	1.45
293.15	30000	0.3004	949.97	1.46
293.15	30000	0.3426	963.65	1.47
293.15	30000	0.3984	980.36	1.48
293.15	30000	0.4514	994.86	1.49
293.15	30000	0.5054	1008.44	1.5
293.15	30000	0.5509	1019.05	1.5
293.15	30000	0.6002	1029.73	1.51
293.15	30000	0.6469	1039.12	1.52
293.15	30000	0.6993	1048.91	1.53
293.15	30000	0.7496	1057.72	1.54
293.15	30000	0.799	1065.78	1.55
293.15	30000	0.837	1071.71	1.56
293.15	30000	0.9093	1082.38	1.58
293.15	30000	0.9239	1084.42	1.58
293.15	30000	0.9575	1089.06	1.59
293.15	30000	0.9861	1092.9	1.59
293.15	35000	0.0253	833.84	1.41
293.15	35000	0.0503	847.49	1.42
293.15	35000	0.0745	860.04	1.42
293.15	35000	0.101	873.13	1.42
293.15	35000	0.1502	895.68	1.43
293.15	35000	0.2059	919	1.44
293.15	35000	0.25	935.81	1.45
293.15	35000	0.3004	953.48	1.46
293.15	35000	0.3426	967.16	1.47
293.15	35000	0.3984	983.88	1.48
293.15	35000	0.4514	998.4	1.49
293.15	35000	0.5054	1011.98	1.5
293.15	35000	0.5509	1022.6	1.51
293.15	35000	0.6002	1033.28	1.52
293.15	35000	0.6469	1042.68	1.53
293.15	35000	0.6993	1052.48	1.54
293.15	35000	0.7496	1061.24	1.55
293.15	35000	0.799	1069.31	1.56
293.15	35000	0.837	1075.29	1.57
293.15	35000	0.9093	1085.91	1.58
293.15	35000	0.9239	1087.96	1.59
293.15	35000	0.9575	1092.6	1.6
293.15	35000	0.9861	1096.44	1.6
293.15	40000	0.0253	837.02	1.42
293.15	40000	0.0503	850.69	1.42
293.15	40000	0.0745	863.25	1.42
293.15	40000	0.101	876.36	1.43
293.15	40000	0.1502	898.94	1.44
293.15	40000	0.2059	922.29	1.45
293.15	40000	0.25	939.11	1.45
293.15	40000	0.3004	956.8	1.46
293.15	40000	0.3426	970.51	1.47
293.15	40000	0.3984	987.25	1.48
293.15	40000	0.4514	1001.78	1.49
293.15	40000	0.5054	1015.38	1.5
293.15	40000	0.5509	1026.01	1.51
293.15	40000	0.6002	1036.7	1.52
293.15	40000	0.6469	1046.11	1.53
293.15	40000	0.6993	1055.92	1.54
293.15	40000	0.7496	1064.69	1.55
293.15	40000	0.799	1072.77	1.56
293.15	40000	0.837	1078.71	1.57
293.15	40000	0.9093	1089.35	1.59
293.15	40000	0.9239	1091.39	1.59
293.15	40000	0.9575	1096.04	1.6
293.15	40000	0.9861	1099.94	1.61
298.15	100	0.0253	801.12	1.36
298.15	100	0.0503	814.67	1.37
298.15	100	0.0745	827.15	1.38
298.15	100	0.101	840.09	1.39
298.15	100	0.1502	862.34	1.4
298.15	100	0.2059	885.36	1.41
298.15	100	0.25	902	1.42
298.15	100	0.3004	919.49	1.44
298.15	100	0.3426	933.01	1.44
298.15	100	0.3984	949.56	1.46
298.15	100	0.4514	964.01	1.47
298.15	100	0.5054	977.58	1.47
298.15	100	0.5509	988.15	1.48
298.15	100	0.6002	998.73	1.49
298.15	100	0.6469	1008.04	1.5
298.15	100	0.6993	1017.79	1.5
298.15	100	0.7496	1026.56	1.51
298.15	100	0.799	1034.65	1.52
298.15	100	0.837	1040.55	1.53
298.15	100	0.9093	1051.17	1.54
298.15	100	0.9239	1053.21	1.54
298.15	100	0.9575	1057.78	1.54
298.15	100	0.9861	1061.61	1.55
298.15	5000	0.0253	805.88	1.37
298.15	5000	0.0503	819.42	1.38
298.15	5000	0.0745	831.91	1.38
298.15	5000	0.101	844.85	1.39
298.15	5000	0.1502	867.1	1.4
298.15	5000	0.2059	890.12	1.42
298.15	5000	0.25	906.75	1.43
298.15	5000	0.3004	924.24	1.44
298.15	5000	0.3426	937.77	1.45
298.15	5000	0.3984	954.26	1.46
298.15	5000	0.4514	968.71	1.47
298.15	5000	0.5054	982.28	1.48
298.15	5000	0.5509	992.8	1.48
298.15	5000	0.6002	1003.39	1.49
298.15	5000	0.6469	1012.69	1.5
298.15	5000	0.6993	1022.44	1.51
298.15	5000	0.7496	1031.16	1.52
298.15	5000	0.799	1039.25	1.52
298.15	5000	0.837	1045.15	1.53
298.15	5000	0.9093	1055.73	1.54
298.15	5000	0.9239	1057.76	1.54
298.15	5000	0.9575	1062.33	1.55
298.15	5000	0.9861	1066.16	1.55
298.15	10000	0.0253	810.17	1.38
298.15	10000	0.0503	823.72	1.38
298.15	10000	0.0745	836.21	1.39
298.15	10000	0.101	849.21	1.4
298.15	10000	0.1502	871.47	1.41
298.15	10000	0.2059	894.5	1.42
298.15	10000	0.25	911.19	1.43
298.15	10000	0.3004	928.68	1.44
298.15	10000	0.3426	942.22	1.45
298.15	10000	0.3984	958.77	1.46
298.15	10000	0.4514	973.22	1.47
298.15	10000	0.5054	986.75	1.48
298.15	10000	0.5509	997.28	1.49
298.15	10000	0.6002	1007.87	1.5
298.15	10000	0.6469	1017.17	1.5
298.15	10000	0.6993	1026.93	1.51
298.15	10000	0.7496	1035.66	1.52
298.15	10000	0.799	1043.74	1.53
298.15	10000	0.837	1049.65	1.53
298.15	10000	0.9093	1060.23	1.55
298.15	10000	0.9239	1062.27	1.55
298.15	10000	0.9575	1066.84	1.56
298.15	10000	0.9861	1070.67	1.56
298.15	15000	0.0253	814.5	1.38
298.15	15000	0.0503	828.05	1.39
298.15	15000	0.0745	840.55	1.4
298.15	15000	0.101	853.54	1.4
298.15	15000	0.1502	875.8	1.41
298.15	15000	0.2059	898.84	1.43
298.15	15000	0.25	915.53	1.44
298.15	15000	0.3004	933.03	1.45
298.15	15000	0.3426	946.56	1.45
298.15	15000	0.3984	963.12	1.47
298.15	15000	0.4514	977.52	1.47
298.15	15000	0.5054	991.05	1.48
298.15	15000	0.5509	1001.58	1.49
298.15	15000	0.6002	1012.12	1.5
298.15	15000	0.6469	1021.43	1.51
298.15	15000	0.6993	1031.19	1.52
298.15	15000	0.7496	1039.91	1.52
298.15	15000	0.799	1047.95	1.53
298.15	15000	0.837	1053.86	1.54
298.15	15000	0.9093	1064.44	1.55
298.15	15000	0.9239	1066.48	1.56
298.15	15000	0.9575	1071.05	1.56
298.15	15000	0.9861	1074.88	1.57
298.15	20000	0.0253	818.56	1.39
298.15	20000	0.0503	832.13	1.4
298.15	20000	0.0745	844.63	1.4
298.15	20000	0.101	857.59	1.41
298.15	20000	0.1502	879.93	1.42
298.15	20000	0.2059	902.99	1.43
298.15	20000	0.25	919.64	1.44
298.15	20000	0.3004	937.16	1.45
298.15	20000	0.3426	950.71	1.46
298.15	20000	0.3984	967.28	1.47
298.15	20000	0.4514	981.7	1.48
298.15	20000	0.5054	995.2	1.49
298.15	20000	0.5509	1005.74	1.49
298.15	20000	0.6002	1016.28	1.5
298.15	20000	0.6469	1025.6	1.51
298.15	20000	0.6993	1035.37	1.52
298.15	20000	0.7496	1044.11	1.53
298.15	20000	0.799	1052.15	1.54
298.15	20000	0.837	1058.02	1.54
298.15	20000	0.9093	1068.61	1.56
298.15	20000	0.9239	1070.65	1.56
298.15	20000	0.9575	1075.22	1.57
298.15	20000	0.9861	1079.06	1.57
298.15	25000	0.0253	822.44	1.4
298.15	25000	0.0503	836.02	1.4
298.15	25000	0.0745	848.53	1.41
298.15	25000	0.101	861.5	1.41
298.15	25000	0.1502	883.85	1.42
298.15	25000	0.2059	906.93	1.43
298.15	25000	0.25	923.6	1.44
298.15	25000	0.3004	941.13	1.45
298.15	25000	0.3426	954.69	1.46
298.15	25000	0.3984	971.23	1.47
298.15	25000	0.4514	985.66	1.48
298.15	25000	0.5054	999.17	1.49
298.15	25000	0.5509	1009.72	1.5
298.15	25000	0.6002	1020.27	1.51
298.15	25000	0.6469	1029.6	1.51
298.15	25000	0.6993	1039.38	1.52
298.15	25000	0.7496	1048.12	1.53
298.15	25000	0.799	1056.12	1.54
298.15	25000	0.837	1061.99	1.55
298.15	25000	0.9093	1072.59	1.56
298.15	25000	0.9239	1074.63	1.57
298.15	25000	0.9575	1079.21	1.57
298.15	25000	0.9861	1083.05	1.58
298.15	30000	0.0253	826.09	1.4
298.15	30000	0.0503	839.68	1.41
298.15	30000	0.0745	852.21	1.41
298.15	30000	0.101	865.23	1.42
298.15	30000	0.1502	887.6	1.43
298.15	30000	0.2059	910.69	1.44
298.15	30000	0.25	927.38	1.45
298.15	30000	0.3004	944.97	1.46
298.15	30000	0.3426	958.54	1.46
298.15	30000	0.3984	975.08	1.47
298.15	30000	0.4514	989.52	1.48
298.15	30000	0.5054	1003.04	1.49
298.15	30000	0.5509	1013.59	1.5
298.15	30000	0.6002	1024.16	1.51
298.15	30000	0.6469	1033.49	1.52
298.15	30000	0.6993	1043.27	1.53
298.15	30000	0.7496	1052.02	1.54
298.15	30000	0.799	1060.03	1.55
298.15	30000	0.837	1065.9	1.56
298.15	30000	0.9093	1076.46	1.57
298.15	30000	0.9239	1078.5	1.57
298.15	30000	0.9575	1083.09	1.58
298.15	30000	0.9861	1086.92	1.59
298.15	35000	0.0253	829.61	1.41
298.15	35000	0.0503	843.21	1.41
298.15	35000	0.0745	855.74	1.42
298.15	35000	0.101	868.78	1.42
298.15	35000	0.1502	891.17	1.43
298.15	35000	0.2059	914.23	1.44
298.15	35000	0.25	930.92	1.45
298.15	35000	0.3004	948.53	1.46
298.15	35000	0.3426	962.11	1.47
298.15	35000	0.3984	978.67	1.48
298.15	35000	0.4514	993.12	1.48
298.15	35000	0.5054	1006.64	1.49
298.15	35000	0.5509	1017.21	1.5
298.15	35000	0.6002	1027.78	1.51
298.15	35000	0.6469	1037.12	1.52
298.15	35000	0.6993	1046.86	1.53
298.15	35000	0.7496	1055.62	1.54
298.15	35000	0.799	1063.63	1.55
298.15	35000	0.837	1069.51	1.56
298.15	35000	0.9093	1080.07	1.58
298.15	35000	0.9239	1082.11	1.58
298.15	35000	0.9575	1086.7	1.59
298.15	35000	0.9861	1090.54	1.6
298.15	40000	0.0253	832.77	1.42
298.15	40000	0.0503	846.39	1.42
298.15	40000	0.0745	858.95	1.42
298.15	40000	0.101	872.01	1.43
298.15	40000	0.1502	894.43	1.44
298.15	40000	0.2059	917.53	1.44
298.15	40000	0.25	934.25	1.45
298.15	40000	0.3004	951.89	1.46
298.15	40000	0.3426	965.49	1.47
298.15	40000	0.3984	982.08	1.48
298.15	40000	0.4514	996.55	1.49
298.15	40000	0.5054	1010.1	1.5
298.15	40000	0.5509	1020.68	1.51
298.15	40000	0.6002	1031.27	1.52
298.15	40000	0.6469	1040.63	1.53
298.15	40000	0.6993	1050.38	1.54
298.15	40000	0.7496	1059.15	1.55
298.15	40000	0.799	1067.18	1.56
298.15	40000	0.837	1073.07	1.57
298.15	40000	0.9093	1083.65	1.58
298.15	40000	0.9239	1085.7	1.59
298.15	40000	0.9575	1090.29	1.6
298.15	40000	0.9861	1094.14	1.6
303.15	100	0.0253	796.3	1.36
303.15	100	0.0503	809.73	1.37
303.15	100	0.0745	822.09	1.38
303.15	100	0.101	834.96	1.38
303.15	100	0.1502	857.02	1.4
303.15	100	0.2059	879.85	1.41
303.15	100	0.25	896.36	1.42
303.15	100	0.3004	913.71	1.43
303.15	100	0.3426	927.12	1.44
303.15	100	0.3984	943.53	1.45
303.15	100	0.4514	957.9	1.46
303.15	100	0.5054	971.35	1.47
303.15	100	0.5509	981.85	1.48
303.15	100	0.6002	992.37	1.49
303.15	100	0.6469	1001.6	1.49
303.15	100	0.6993	1011.29	1.5
303.15	100	0.7496	1019.99	1.51
303.15	100	0.799	1028.01	1.51
303.15	100	0.837	1033.85	1.52
303.15	100	0.9093	1044.36	1.53
303.15	100	0.9239	1046.39	1.53
303.15	100	0.9575	1050.95	1.54
303.15	100	0.9861	1054.77	1.54
303.15	5000	0.0253	801.03	1.37
303.15	5000	0.0503	814.5	1.37
303.15	5000	0.0745	826.87	1.38
303.15	5000	0.101	839.75	1.39
303.15	5000	0.1502	861.81	1.4
303.15	5000	0.2059	884.65	1.42
303.15	5000	0.25	901.21	1.43
303.15	5000	0.3004	918.57	1.44
303.15	5000	0.3426	931.98	1.44
303.15	5000	0.3984	948.4	1.46
303.15	5000	0.4514	962.78	1.46
303.15	5000	0.5054	976.23	1.47
303.15	5000	0.5509	986.74	1.48
303.15	5000	0.6002	997.25	1.49
303.15	5000	0.6469	1006.49	1.5
303.15	5000	0.6993	1016.13	1.5
303.15	5000	0.7496	1024.84	1.51
303.15	5000	0.799	1032.86	1.52
303.15	5000	0.837	1038.71	1.53
303.15	5000	0.9093	1049.21	1.54
303.15	5000	0.9239	1051.25	1.54
303.15	5000	0.9575	1055.81	1.54
303.15	5000	0.9861	1059.63	1.55
303.15	10000	0.0253	805.57	1.37
303.15	10000	0.0503	819.05	1.38
303.15	10000	0.0745	831.44	1.39
303.15	10000	0.101	844.32	1.39
303.15	10000	0.1502	866.4	1.41
303.15	10000	0.2059	889.26	1.42
303.15	10000	0.25	905.83	1.43
303.15	10000	0.3004	923.21	1.44
303.15	10000	0.3426	936.63	1.45
303.15	10000	0.3984	953.06	1.46
303.15	10000	0.4514	967.4	1.47
303.15	10000	0.5054	980.81	1.48
303.15	10000	0.5509	991.33	1.48
303.15	10000	0.6002	1001.85	1.49
303.15	10000	0.6469	1011.1	1.5
303.15	10000	0.6993	1020.75	1.51
303.15	10000	0.7496	1029.41	1.52
303.15	10000	0.799	1037.44	1.52
303.15	10000	0.837	1043.24	1.53
303.15	10000	0.9093	1053.76	1.54
303.15	10000	0.9239	1055.79	1.54
303.15	10000	0.9575	1060.36	1.55
303.15	10000	0.9861	1064.18	1.55
303.15	15000	0.0253	810.1	1.38
303.15	15000	0.0503	823.59	1.39
303.15	15000	0.0745	835.97	1.39
303.15	15000	0.101	848.86	1.4
303.15	15000	0.1502	870.99	1.41
303.15	15000	0.2059	893.85	1.42
303.15	15000	0.25	910.43	1.43
303.15	15000	0.3004	927.81	1.44
303.15	15000	0.3426	941.23	1.45
303.15	15000	0.3984	957.62	1.46
303.15	15000	0.4514	971.96	1.47
303.15	15000	0.5054	985.37	1.48
303.15	15000	0.5509	995.89	1.49
303.15	15000	0.6002	1006.41	1.5
303.15	15000	0.6469	1015.61	1.5
303.15	15000	0.6993	1025.26	1.51
303.15	15000	0.7496	1033.93	1.52
303.15	15000	0.799	1041.96	1.53
303.15	15000	0.837	1047.76	1.53
303.15	15000	0.9093	1058.22	1.55
303.15	15000	0.9239	1060.26	1.55
303.15	15000	0.9575	1064.83	1.56
303.15	15000	0.9861	1068.65	1.56
303.15	20000	0.0253	814.43	1.39
303.15	20000	0.0503	827.93	1.39
303.15	20000	0.0745	840.32	1.4
303.15	20000	0.101	853.22	1.41
303.15	20000	0.1502	875.37	1.42
303.15	20000	0.2059	898.26	1.43
303.15	20000	0.25	914.79	1.44
303.15	20000	0.3004	932.19	1.45
303.15	20000	0.3426	945.62	1.46
303.15	20000	0.3984	962.02	1.47
303.15	20000	0.4514	976.32	1.47
303.15	20000	0.5054	989.75	1.48
303.15	20000	0.5509	1000.23	1.49
303.15	20000	0.6002	1010.76	1.5
303.15	20000	0.6469	1019.97	1.51
303.15	20000	0.6993	1029.62	1.52
303.15	20000	0.7496	1038.25	1.52
303.15	20000	0.799	1046.28	1.53
303.15	20000	0.837	1052.09	1.54
303.15	20000	0.9093	1062.51	1.55
303.15	20000	0.9239	1064.55	1.56
303.15	20000	0.9575	1069.12	1.56
303.15	20000	0.9861	1072.95	1.57
303.15	25000	0.0253	818.36	1.39
303.15	25000	0.0503	831.86	1.4
303.15	25000	0.0745	844.26	1.4
303.15	25000	0.101	857.21	1.41
303.15	25000	0.1502	879.38	1.42
303.15	25000	0.2059	902.32	1.43
303.15	25000	0.25	918.87	1.44
303.15	25000	0.3004	936.27	1.45
303.15	25000	0.3426	949.71	1.46
303.15	25000	0.3984	966.12	1.47
303.15	25000	0.4514	980.43	1.48
303.15	25000	0.5054	993.91	1.49
303.15	25000	0.5509	1004.39	1.49
303.15	25000	0.6002	1014.93	1.5
303.15	25000	0.6469	1024.14	1.51
303.15	25000	0.6993	1033.8	1.52
303.15	25000	0.7496	1042.43	1.53
303.15	25000	0.799	1050.47	1.54
303.15	25000	0.837	1056.23	1.54
303.15	25000	0.9093	1066.71	1.56
303.15	25000	0.9239	1068.75	1.56
303.15	25000	0.9575	1073.32	1.57
303.15	25000	0.9861	1077.15	1.57
303.15	30000	0.0253	822.05	1.4
303.15	30000	0.0503	835.56	1.41
303.15	30000	0.0745	848.02	1.41
303.15	30000	0.101	860.97	1.42
303.15	30000	0.1502	883.14	1.43
303.15	30000	0.2059	906.14	1.44
303.15	30000	0.25	922.69	1.44
303.15	30000	0.3004	940.09	1.45
303.15	30000	0.3426	953.54	1.46
303.15	30000	0.3984	969.95	1.47
303.15	30000	0.4514	984.26	1.48
303.15	30000	0.5054	997.75	1.49
303.15	30000	0.5509	1008.28	1.5
303.15	30000	0.6002	1018.82	1.51
303.15	30000	0.6469	1028.04	1.51
303.15	30000	0.6993	1037.7	1.52
303.15	30000	0.7496	1046.33	1.53
303.15	30000	0.799	1054.37	1.54
303.15	30000	0.837	1060.13	1.55
303.15	30000	0.9093	1070.62	1.56
303.15	30000	0.9239	1072.65	1.57
303.15	30000	0.9575	1077.23	1.58
303.15	30000	0.9861	1081.06	1.58
303.15	35000	0.0253	825.6	1.41
303.15	35000	0.0503	839.12	1.41
303.15	35000	0.0745	851.58	1.42
303.15	35000	0.101	864.54	1.42
303.15	35000	0.1502	886.72	1.43
303.15	35000	0.2059	909.73	1.44
303.15	35000	0.25	926.34	1.45
303.15	35000	0.3004	943.76	1.46
303.15	35000	0.3426	957.21	1.46
303.15	35000	0.3984	973.63	1.47
303.15	35000	0.4514	987.95	1.48
303.15	35000	0.5054	1001.4	1.49
303.15	35000	0.5509	1011.94	1.5
303.15	35000	0.6002	1022.49	1.51
303.15	35000	0.6469	1031.7	1.52
303.15	35000	0.6993	1041.37	1.53
303.15	35000	0.7496	1050.01	1.54
303.15	35000	0.799	1058.05	1.55
303.15	35000	0.837	1063.82	1.56
303.15	35000	0.9093	1074.26	1.57
303.15	35000	0.9239	1076.3	1.57
303.15	35000	0.9575	1080.88	1.58
303.15	35000	0.9861	1084.71	1.59
303.15	40000	0.0253	829	1.42
303.15	40000	0.0503	842.54	1.42
303.15	40000	0.0745	855.01	1.42
303.15	40000	0.101	867.99	1.43
303.15	40000	0.1502	890.21	1.43
303.15	40000	0.2059	913.3	1.44
303.15	40000	0.25	929.93	1.45
303.15	40000	0.3004	947.37	1.46
303.15	40000	0.3426	960.84	1.47
303.15	40000	0.3984	977.28	1.48
303.15	40000	0.4514	991.62	1.48
303.15	40000	0.5054	1005.09	1.49
303.15	40000	0.5509	1015.64	1.5
303.15	40000	0.6002	1026.2	1.51
303.15	40000	0.6469	1035.43	1.52
303.15	40000	0.6993	1045.11	1.53
303.15	40000	0.7496	1053.76	1.54
303.15	40000	0.799	1061.82	1.55
303.15	40000	0.837	1067.59	1.56
303.15	40000	0.9093	1078.04	1.58
303.15	40000	0.9239	1080.08	1.58
303.15	40000	0.9575	1084.67	1.59
303.15	40000	0.9861	1088.51	1.6
308.15	100	0.0253	791.22	1.36
308.15	100	0.0503	804.54	1.37
308.15	100	0.0745	816.8	1.37
308.15	100	0.101	829.61	1.38
308.15	100	0.1502	851.5	1.39
308.15	100	0.2059	874.17	1.41
308.15	100	0.25	890.57	1.42
308.15	100	0.3004	907.81	1.43
308.15	100	0.3426	921.16	1.44
308.15	100	0.3984	937.46	1.45
308.15	100	0.4514	951.72	1.46
308.15	100	0.5054	965.11	1.47
308.15	100	0.5509	975.56	1.47
308.15	100	0.6002	986.01	1.48
308.15	100	0.6469	995.19	1.49
308.15	100	0.6993	1004.82	1.5
308.15	100	0.7496	1013.47	1.5
308.15	100	0.799	1021.43	1.51
308.15	100	0.837	1027.27	1.52
308.15	100	0.9093	1037.72	1.53
308.15	100	0.9239	1039.75	1.53
308.15	100	0.9575	1044.31	1.53
308.15	100	0.9861	1048.07	1.54
308.15	5000	0.0253	795.98	1.36
308.15	5000	0.0503	809.3	1.37
308.15	5000	0.0745	821.56	1.38
308.15	5000	0.101	834.41	1.39
308.15	5000	0.1502	856.36	1.4
308.15	5000	0.2059	879.02	1.41
308.15	5000	0.25	895.46	1.42
308.15	5000	0.3004	912.71	1.43
308.15	5000	0.3426	926.05	1.44
308.15	5000	0.3984	942.41	1.45
308.15	5000	0.4514	956.66	1.46
308.15	5000	0.5054	970.05	1.47
308.15	5000	0.5509	980.5	1.48
308.15	5000	0.6002	990.95	1.48
308.15	5000	0.6469	1000.13	1.49
308.15	5000	0.6993	1009.76	1.5
308.15	5000	0.7496	1018.4	1.51
308.15	5000	0.799	1026.37	1.51
308.15	5000	0.837	1032.2	1.52
308.15	5000	0.9093	1042.65	1.53
308.15	5000	0.9239	1044.68	1.53
308.15	5000	0.9575	1049.24	1.54
308.15	5000	0.9861	1053	1.54
308.15	10000	0.0253	800.77	1.37
308.15	10000	0.0503	814.1	1.38
308.15	10000	0.0745	826.37	1.38
308.15	10000	0.101	839.23	1.39
308.15	10000	0.1502	861.2	1.4
308.15	10000	0.2059	883.88	1.42
308.15	10000	0.25	900.33	1.43
308.15	10000	0.3004	917.59	1.44
308.15	10000	0.3426	930.95	1.44
308.15	10000	0.3984	947.31	1.46
308.15	10000	0.4514	961.58	1.46
308.15	10000	0.5054	974.93	1.47
308.15	10000	0.5509	985.39	1.48
308.15	10000	0.6002	995.85	1.49
308.15	10000	0.6469	1005.03	1.49
308.15	10000	0.6993	1014.62	1.5
308.15	10000	0.7496	1023.27	1.51
308.15	10000	0.799	1031.19	1.52
308.15	10000	0.837	1037.04	1.52
308.15	10000	0.9093	1047.49	1.54
308.15	10000	0.9239	1049.52	1.54
308.15	10000	0.9575	1054.08	1.54
308.15	10000	0.9861	1057.85	1.55
308.15	15000	0.0253	805.37	1.38
308.15	15000	0.0503	818.7	1.38
308.15	15000	0.0745	831.02	1.39
308.15	15000	0.101	843.89	1.4
308.15	15000	0.1502	865.86	1.41
308.15	15000	0.2059	888.55	1.42
308.15	15000	0.25	905.01	1.43
308.15	15000	0.3004	922.27	1.44
308.15	15000	0.3426	935.63	1.45
308.15	15000	0.3984	952	1.46
308.15	15000	0.4514	966.27	1.47
308.15	15000	0.5054	979.62	1.48
308.15	15000	0.5509	990.08	1.48
308.15	15000	0.6002	1000.49	1.49
308.15	15000	0.6469	1009.68	1.5
308.15	15000	0.6993	1019.27	1.51
308.15	15000	0.7496	1027.93	1.51
308.15	15000	0.799	1035.85	1.52
308.15	15000	0.837	1041.64	1.53
308.15	15000	0.9093	1052.1	1.54
308.15	15000	0.9239	1054.13	1.54
308.15	15000	0.9575	1058.69	1.55
308.15	15000	0.9861	1062.46	1.56
308.15	20000	0.0253	809.72	1.39
308.15	20000	0.0503	823.06	1.39
308.15	20000	0.0745	835.38	1.4
308.15	20000	0.101	848.26	1.4
308.15	20000	0.1502	870.28	1.41
308.15	20000	0.2059	892.98	1.43
308.15	20000	0.25	909.44	1.43
308.15	20000	0.3004	926.71	1.44
308.15	20000	0.3426	940.07	1.45
308.15	20000	0.3984	956.44	1.46
308.15	20000	0.4514	970.72	1.47
308.15	20000	0.5054	984.08	1.48
308.15	20000	0.5509	994.54	1.49
308.15	20000	0.6002	1004.95	1.49
308.15	20000	0.6469	1014.14	1.5
308.15	20000	0.6993	1023.74	1.51
308.15	20000	0.7496	1032.35	1.52
308.15	20000	0.799	1040.27	1.53
308.15	20000	0.837	1046.06	1.53
308.15	20000	0.9093	1056.52	1.55
308.15	20000	0.9239	1058.56	1.55
308.15	20000	0.9575	1063.12	1.56
308.15	20000	0.9861	1066.89	1.56
308.15	25000	0.0253	814	1.39
308.15	25000	0.0503	827.34	1.4
308.15	25000	0.0745	839.68	1.4
308.15	25000	0.101	852.56	1.41
308.15	25000	0.1502	874.59	1.42
308.15	25000	0.2059	897.3	1.43
308.15	25000	0.25	913.77	1.44
308.15	25000	0.3004	931.05	1.45
308.15	25000	0.3426	944.37	1.46
308.15	25000	0.3984	960.75	1.46
308.15	25000	0.4514	975.04	1.47
308.15	25000	0.5054	988.4	1.48
308.15	25000	0.5509	998.87	1.49
308.15	25000	0.6002	1009.29	1.5
308.15	25000	0.6469	1018.48	1.51
308.15	25000	0.6993	1028.03	1.51
308.15	25000	0.7496	1036.65	1.52
308.15	25000	0.799	1044.57	1.53
308.15	25000	0.837	1050.37	1.54
308.15	25000	0.9093	1060.79	1.55
308.15	25000	0.9239	1062.82	1.56
308.15	25000	0.9575	1067.39	1.56
308.15	25000	0.9861	1071.16	1.57
308.15	30000	0.0253	817.9	1.4
308.15	30000	0.0503	831.25	1.41
308.15	30000	0.0745	843.59	1.41
308.15	30000	0.101	856.52	1.41
308.15	30000	0.1502	878.57	1.42
308.15	30000	0.2059	901.3	1.43
308.15	30000	0.25	917.78	1.44
308.15	30000	0.3004	935.06	1.45
308.15	30000	0.3426	948.39	1.46
308.15	30000	0.3984	964.78	1.47
308.15	30000	0.4514	979.08	1.48
308.15	30000	0.5054	992.45	1.48
308.15	30000	0.5509	1002.92	1.49
308.15	30000	0.6002	1013.4	1.5
308.15	30000	0.6469	1022.55	1.51
308.15	30000	0.6993	1032.11	1.52
308.15	30000	0.7496	1040.72	1.53
308.15	30000	0.799	1048.66	1.54
308.15	30000	0.837	1054.46	1.54
308.15	30000	0.9093	1064.88	1.56
308.15	30000	0.9239	1066.87	1.56
308.15	30000	0.9575	1071.43	1.57
308.15	30000	0.9861	1075.26	1.58
308.15	35000	0.0253	821.58	1.41
308.15	35000	0.0503	834.92	1.41
308.15	35000	0.0745	847.26	1.42
308.15	35000	0.101	860.19	1.42
308.15	35000	0.1502	882.29	1.43
308.15	35000	0.2059	905.01	1.44
308.15	35000	0.25	921.49	1.45
308.15	35000	0.3004	938.77	1.45
308.15	35000	0.3426	952.1	1.46
308.15	35000	0.3984	968.49	1.47
308.15	35000	0.4514	982.78	1.48
308.15	35000	0.5054	996.15	1.49
308.15	35000	0.5509	1006.62	1.49
308.15	35000	0.6002	1017.09	1.5
308.15	35000	0.6469	1026.24	1.51
308.15	35000	0.6993	1035.8	1.52
308.15	35000	0.7496	1044.41	1.53
308.15	35000	0.799	1052.34	1.54
308.15	35000	0.837	1058.14	1.55
308.15	35000	0.9093	1068.56	1.56
308.15	35000	0.9239	1070.55	1.57
308.15	35000	0.9575	1075.12	1.58
308.15	35000	0.9861	1078.94	1.58
308.15	40000	0.0253	825.25	1.42
308.15	40000	0.0503	838.6	1.42
308.15	40000	0.0745	850.9	1.42
308.15	40000	0.101	863.84	1.43
308.15	40000	0.1502	885.94	1.43
308.15	40000	0.2059	908.67	1.44
308.15	40000	0.25	925.16	1.45
308.15	40000	0.3004	942.45	1.46
308.15	40000	0.3426	955.78	1.46
308.15	40000	0.3984	972.13	1.47
308.15	40000	0.4514	986.43	1.48
308.15	40000	0.5054	999.81	1.49
308.15	40000	0.5509	1010.28	1.5
308.15	40000	0.6002	1020.76	1.51
308.15	40000	0.6469	1029.87	1.52
308.15	40000	0.6993	1039.42	1.53
308.15	40000	0.7496	1048.05	1.54
308.15	40000	0.799	1055.98	1.55
308.15	40000	0.837	1061.73	1.56
308.15	40000	0.9093	1072.16	1.57
308.15	40000	0.9239	1074.15	1.57
308.15	40000	0.9575	1078.72	1.58
308.15	40000	0.9861	1082.54	1.59
288.15	100	1	1076.83	0.57
288.15	5000	1	1081.15	0.57
288.15	10000	1	1085.32	0.58
288.15	15000	1	1089.52	0.6
288.15	20000	1	1093.35	0.61
288.15	25000	1	1096.99	0.62
288.15	30000	1	1100.63	0.63
288.15	35000	1	1104.08	0.65
288.15	40000	1	1107.4	0.67
293.15	100	1	1070.06	0.56
293.15	5000	1	1074.62	0.57
293.15	10000	1	1078.93	0.58
293.15	15000	1	1083.01	0.59
293.15	20000	1	1087.08	0.6
293.15	25000	1	1091.03	0.61
293.15	30000	1	1094.75	0.63
293.15	35000	1	1098.34	0.64
293.15	40000	1	1101.84	0.66
298.15	100	1	1063.45	0.56
298.15	5000	1	1068	0.57
298.15	10000	1	1072.51	0.58
298.15	15000	1	1076.72	0.59
298.15	20000	1	1080.9	0.6
298.15	25000	1	1084.89	0.61
298.15	30000	1	1088.82	0.62
298.15	35000	1	1092.44	0.64
298.15	40000	1	1096.04	0.65
303.15	100	1	1056.61	0.56
303.15	5000	1	1061.47	0.57
303.15	10000	1	1066.02	0.57
303.15	15000	1	1070.49	0.58
303.15	20000	1	1074.79	0.59
303.15	25000	1	1078.99	0.6
303.15	30000	1	1082.9	0.61
303.15	35000	1	1086.6	0.63
303.15	40000	1	1090.4	0.64
308.15	100	1	1049.91	0.56
308.15	5000	1	1054.84	0.56
308.15	10000	1	1059.69	0.57
308.15	15000	1	1064.3	0.58
308.15	20000	1	1068.73	0.59
308.15	25000	1	1073	0.6
308.15	30000	1	1077.1	0.61
308.15	35000	1	1080.78	0.62
308.15	40000	1	1084.38	0.63
288.15	100	0	796.19	0.51
288.15	5000	0	800.57	0.52
288.15	10000	0	804.93	0.53
288.15	15000	0	808.85	0.54
288.15	20000	0	812.92	0.55
288.15	25000	0	816.56	0.56
288.15	30000	0	820.09	0.58
288.15	35000	0	823.62	0.59
288.15	40000	0	827.04	0.6
293.15	100	0	791.18	0.51
293.15	5000	0	795.97	0.52
293.15	10000	0	800.47	0.53
293.15	15000	0	804.52	0.54
293.15	20000	0	808.43	0.55
293.15	25000	0	812.34	0.56
293.15	30000	0	815.93	0.58
293.15	35000	0	819.32	0.59
293.15	40000	0	822.48	0.61
298.15	100	0	786.76	0.51
298.15	5000	0	791.52	0.52
298.15	10000	0	795.8	0.53
298.15	15000	0	800.13	0.54
298.15	20000	0	804.18	0.55
298.15	25000	0	808.04	0.57
298.15	30000	0	811.69	0.58
298.15	35000	0	815.2	0.6
298.15	40000	0	818.33	0.61
303.15	100	0	782.07	0.51
303.15	5000	0	786.79	0.52
303.15	10000	0	791.31	0.53
303.15	15000	0	795.85	0.54
303.15	20000	0	800.16	0.56
303.15	25000	0	804.08	0.57
303.15	30000	0	807.78	0.58
303.15	35000	0	811.31	0.6
303.15	40000	0	814.7	0.61
308.15	100	0	777.09	0.51
308.15	5000	0	781.85	0.52
308.15	10000	0	786.63	0.53
308.15	15000	0	791.23	0.54
308.15	20000	0	795.58	0.56
308.15	25000	0	799.85	0.57
308.15	30000	0	803.73	0.59
308.15	35000	0	807.42	0.6
308.15	40000	0	811.08	0.62

System: dimethyl carbonate + ethanol; phases: Liquid
Property: Mass density, kg/m3 (Liquid); method: Vibrating tube method
Temperature, K	Pressure, kPa	Mole fraction of dimethyl carbonate	Mass density, kg/m3	uncertainty
288.15	100	0.0252	804.2	1.37
288.15	100	0.0506	813.67	1.37
288.15	100	0.0757	823.01	1.38
288.15	100	0.1003	831.96	1.39
288.15	100	0.1508	849.93	1.4
288.15	100	0.2	866.84	1.41
288.15	100	0.2547	885.11	1.42
288.15	100	0.3002	899.9	1.43
288.15	100	0.3498	915.51	1.44
288.15	100	0.4	930.78	1.45
288.15	100	0.449	945.14	1.46
288.15	100	0.4996	959.51	1.47
288.15	100	0.5507	973.56	1.48
288.15	100	0.6005	986.73	1.49
288.15	100	0.6455	998.17	1.49
288.15	100	0.6931	1009.92	1.5
288.15	100	0.7502	1023.43	1.51
288.15	100	0.8009	1035	1.52
288.15	100	0.8505	1046	1.53
288.15	100	0.9008	1056.7	1.54
288.15	100	0.9255	1061.81	1.55
288.15	100	0.9477	1066.36	1.55
288.15	100	0.9735	1071.55	1.56
288.15	5000	0.0252	808	1.37
288.15	5000	0.0506	817.57	1.38
288.15	5000	0.0757	826.96	1.39
288.15	5000	0.1003	835.91	1.39
288.15	5000	0.1508	853.94	1.4
288.15	5000	0.2	870.91	1.41
288.15	5000	0.2547	889.19	1.42
288.15	5000	0.3002	903.99	1.43
288.15	5000	0.3498	919.65	1.44
288.15	5000	0.4	934.94	1.45
288.15	5000	0.449	949.35	1.46
288.15	5000	0.4996	963.73	1.47
288.15	5000	0.5507	977.78	1.48
288.15	5000	0.6005	990.95	1.49
288.15	5000	0.6455	1002.45	1.5
288.15	5000	0.6931	1014.21	1.51
288.15	5000	0.7502	1027.72	1.52
288.15	5000	0.8009	1039.3	1.53
288.15	5000	0.8505	1050.3	1.54
288.15	5000	0.9008	1061.01	1.55
288.15	5000	0.9255	1066.14	1.55
288.15	5000	0.9477	1070.68	1.56
288.15	5000	0.9735	1075.89	1.56
288.15	10000	0.0252	812.06	1.38
288.15	10000	0.0506	821.64	1.39
288.15	10000	0.0757	831.04	1.39
288.15	10000	0.1003	839.99	1.4
288.15	10000	0.1508	858.08	1.41
288.15	10000	0.2	875.1	1.42
288.15	10000	0.2547	893.38	1.43
288.15	10000	0.3002	908.19	1.44
288.15	10000	0.3498	923.86	1.44
288.15	10000	0.4	939.15	1.45
288.15	10000	0.449	953.57	1.46
288.15	10000	0.4996	967.96	1.47
288.15	10000	0.5507	982.01	1.48
288.15	10000	0.6005	995.19	1.49
288.15	10000	0.6455	1006.64	1.5
288.15	10000	0.6931	1018.41	1.51
288.15	10000	0.7502	1031.92	1.52
288.15	10000	0.8009	1043.51	1.53
288.15	10000	0.8505	1054.51	1.54
288.15	10000	0.9008	1065.22	1.55
288.15	10000	0.9255	1070.35	1.56
288.15	10000	0.9477	1074.89	1.56
288.15	10000	0.9735	1080.08	1.57
288.15	15000	0.0252	815.89	1.39
288.15	15000	0.0506	825.53	1.39
288.15	15000	0.0757	834.98	1.4
288.15	15000	0.1003	843.94	1.4
288.15	15000	0.1508	862.04	1.41
288.15	15000	0.2	879.08	1.42
288.15	15000	0.2547	897.43	1.43
288.15	15000	0.3002	912.25	1.44
288.15	15000	0.3498	927.88	1.45
288.15	15000	0.4	943.23	1.46
288.15	15000	0.449	957.66	1.47
288.15	15000	0.4996	972.06	1.48
288.15	15000	0.5507	986.13	1.48
288.15	15000	0.6005	999.32	1.49
288.15	15000	0.6455	1010.83	1.5
288.15	15000	0.6931	1022.55	1.51
288.15	15000	0.7502	1036.08	1.53
288.15	15000	0.8009	1047.68	1.54
288.15	15000	0.8505	1058.68	1.55
288.15	15000	0.9008	1069.4	1.56
288.15	15000	0.9255	1074.54	1.56
288.15	15000	0.9477	1079.08	1.57
288.15	15000	0.9735	1084.28	1.58
288.15	20000	0.0252	819.61	1.39
288.15	20000	0.0506	829.25	1.4
288.15	20000	0.0757	838.69	1.4
288.15	20000	0.1003	847.7	1.41
288.15	20000	0.1508	865.84	1.42
288.15	20000	0.2	882.88	1.43
288.15	20000	0.2547	901.27	1.43
288.15	20000	0.3002	916.09	1.44
288.15	20000	0.3498	931.71	1.45
288.15	20000	0.4	947.06	1.46
288.15	20000	0.449	961.48	1.47
288.15	20000	0.4996	975.93	1.48
288.15	20000	0.5507	989.99	1.49
288.15	20000	0.6005	1003.17	1.5
288.15	20000	0.6455	1014.68	1.51
288.15	20000	0.6931	1026.4	1.52
288.15	20000	0.7502	1039.92	1.53
288.15	20000	0.8009	1051.52	1.54
288.15	20000	0.8505	1062.52	1.55
288.15	20000	0.9008	1073.24	1.56
288.15	20000	0.9255	1078.38	1.57
288.15	20000	0.9477	1082.92	1.58
288.15	20000	0.9735	1088.11	1.58
288.15	25000	0.0252	822.92	1.4
288.15	25000	0.0506	832.61	1.41
288.15	25000	0.0757	842.06	1.41
288.15	25000	0.1003	851.08	1.41
288.15	25000	0.1508	869.28	1.42
288.15	25000	0.2	886.33	1.43
288.15	25000	0.2547	904.73	1.44
288.15	25000	0.3002	919.56	1.45
288.15	25000	0.3498	935.24	1.46
288.15	25000	0.4	950.6	1.46
288.15	25000	0.449	965.03	1.47
288.15	25000	0.4996	979.49	1.48
288.15	25000	0.5507	993.56	1.49
288.15	25000	0.6005	1006.8	1.5
288.15	25000	0.6455	1018.32	1.51
288.15	25000	0.6931	1030.05	1.52
288.15	25000	0.7502	1043.58	1.53
288.15	25000	0.8009	1055.18	1.55
288.15	25000	0.8505	1066.19	1.56
288.15	25000	0.9008	1076.92	1.57
288.15	25000	0.9255	1082.06	1.58
288.15	25000	0.9477	1086.6	1.58
288.15	25000	0.9735	1091.79	1.59
288.15	30000	0.0252	826.21	1.41
288.15	30000	0.0506	835.95	1.41
288.15	30000	0.0757	845.41	1.42
288.15	30000	0.1003	854.48	1.42
288.15	30000	0.1508	872.69	1.43
288.15	30000	0.2	889.8	1.43
288.15	30000	0.2547	908.21	1.44
288.15	30000	0.3002	923.05	1.45
288.15	30000	0.3498	938.74	1.46
288.15	30000	0.4	954.16	1.47
288.15	30000	0.449	968.6	1.47
288.15	30000	0.4996	983.06	1.48
288.15	30000	0.5507	997.14	1.49
288.15	30000	0.6005	1010.39	1.5
288.15	30000	0.6455	1021.92	1.51
288.15	30000	0.6931	1033.65	1.52
288.15	30000	0.7502	1047.24	1.54
288.15	30000	0.8009	1058.85	1.55
288.15	30000	0.8505	1069.82	1.56
288.15	30000	0.9008	1080.55	1.58
288.15	30000	0.9255	1085.69	1.58
288.15	30000	0.9477	1090.23	1.59
288.15	30000	0.9735	1095.43	1.6
288.15	35000	0.0252	829.16	1.42
288.15	35000	0.0506	838.9	1.42
288.15	35000	0.0757	848.42	1.42
288.15	35000	0.1003	857.54	1.43
288.15	35000	0.1508	875.76	1.43
288.15	35000	0.2	892.93	1.44
288.15	35000	0.2547	911.35	1.45
288.15	35000	0.3002	926.24	1.45
288.15	35000	0.3498	941.95	1.46
288.15	35000	0.4	957.37	1.47
288.15	35000	0.449	971.87	1.48
288.15	35000	0.4996	986.34	1.49
288.15	35000	0.5507	1000.43	1.49
288.15	35000	0.6005	1013.69	1.51
288.15	35000	0.6455	1025.22	1.52
288.15	35000	0.6931	1037.01	1.53
288.15	35000	0.7502	1050.61	1.54
288.15	35000	0.8009	1062.22	1.56
288.15	35000	0.8505	1073.25	1.57
288.15	35000	0.9008	1083.98	1.58
288.15	35000	0.9255	1089.13	1.59
288.15	35000	0.9477	1093.68	1.6
288.15	35000	0.9735	1098.88	1.61
288.15	40000	0.0252	832.33	1.43
288.15	40000	0.0506	842.19	1.43
288.15	40000	0.0757	851.7	1.43
288.15	40000	0.1003	860.78	1.43
288.15	40000	0.1508	879.06	1.44
288.15	40000	0.2	896.24	1.44
288.15	40000	0.2547	914.67	1.45
288.15	40000	0.3002	929.57	1.46
288.15	40000	0.3498	945.28	1.46
288.15	40000	0.4	960.71	1.47
288.15	40000	0.449	975.22	1.48
288.15	40000	0.4996	989.7	1.49
288.15	40000	0.5507	1003.8	1.5
288.15	40000	0.6005	1017.06	1.51
288.15	40000	0.6455	1028.6	1.52
288.15	40000	0.6931	1040.4	1.53
288.15	40000	0.7502	1054	1.55
288.15	40000	0.8009	1065.62	1.56
288.15	40000	0.8505	1076.6	1.58
288.15	40000	0.9008	1087.34	1.59
288.15	40000	0.9255	1092.49	1.6
288.15	40000	0.9477	1097.04	1.61
288.15	40000	0.9735	1102.23	1.61
293.15	100	0.0252	799.52	1.37
293.15	100	0.0506	808.93	1.37
293.15	100	0.0757	818.21	1.38
293.15	100	0.1003	827.05	1.38
293.15	100	0.1508	844.9	1.39
293.15	100	0.2	861.69	1.4
293.15	100	0.2547	879.83	1.41
293.15	100	0.3002	894.46	1.42
293.15	100	0.3498	909.95	1.43
293.15	100	0.4	925.11	1.44
293.15	100	0.449	939.35	1.45
293.15	100	0.4996	953.6	1.46
293.15	100	0.5507	967.53	1.47
293.15	100	0.6005	980.58	1.48
293.15	100	0.6455	991.96	1.49
293.15	100	0.6931	1003.6	1.5
293.15	100	0.7502	1017.03	1.51
293.15	100	0.8009	1028.54	1.52
293.15	100	0.8505	1039.42	1.53
293.15	100	0.9008	1050.05	1.54
293.15	100	0.9255	1055.15	1.54
293.15	100	0.9477	1059.65	1.55
293.15	100	0.9735	1064.83	1.55
293.15	5000	0.0252	803.53	1.37
293.15	5000	0.0506	813.04	1.38
293.15	5000	0.0757	822.32	1.38
293.15	5000	0.1003	831.21	1.39
293.15	5000	0.1508	849.11	1.4
293.15	5000	0.2	865.96	1.41
293.15	5000	0.2547	884.11	1.42
293.15	5000	0.3002	898.79	1.43
293.15	5000	0.3498	914.32	1.44
293.15	5000	0.4	929.49	1.45
293.15	5000	0.449	943.78	1.46
293.15	5000	0.4996	958.04	1.47
293.15	5000	0.5507	971.96	1.48
293.15	5000	0.6005	985.07	1.48
293.15	5000	0.6455	996.45	1.49
293.15	5000	0.6931	1008.14	1.5
293.15	5000	0.7502	1021.58	1.51
293.15	5000	0.8009	1033.09	1.52
293.15	5000	0.8505	1043.97	1.53
293.15	5000	0.9008	1054.61	1.54
293.15	5000	0.9255	1059.71	1.55
293.15	5000	0.9477	1064.21	1.55
293.15	5000	0.9735	1069.39	1.56
293.15	10000	0.0252	807.63	1.38
293.15	10000	0.0506	817.2	1.38
293.15	10000	0.0757	826.48	1.39
293.15	10000	0.1003	835.37	1.39
293.15	10000	0.1508	853.32	1.4
293.15	10000	0.2	870.22	1.41
293.15	10000	0.2547	888.37	1.42
293.15	10000	0.3002	903.11	1.43
293.15	10000	0.3498	918.65	1.44
293.15	10000	0.4	933.81	1.45
293.15	10000	0.449	948.11	1.46
293.15	10000	0.4996	962.37	1.47
293.15	10000	0.5507	976.3	1.48
293.15	10000	0.6005	989.41	1.49
293.15	10000	0.6455	1000.79	1.49
293.15	10000	0.6931	1012.44	1.5
293.15	10000	0.7502	1025.93	1.52
293.15	10000	0.8009	1037.44	1.53
293.15	10000	0.8505	1048.32	1.54
293.15	10000	0.9008	1058.94	1.55
293.15	10000	0.9255	1064.04	1.55
293.15	10000	0.9477	1068.54	1.56
293.15	10000	0.9735	1073.72	1.56
293.15	15000	0.0252	811.64	1.39
293.15	15000	0.0506	821.2	1.39
293.15	15000	0.0757	830.53	1.39
293.15	15000	0.1003	839.43	1.4
293.15	15000	0.1508	857.39	1.41
293.15	15000	0.2	874.34	1.42
293.15	15000	0.2547	892.5	1.43
293.15	15000	0.3002	907.24	1.44
293.15	15000	0.3498	922.78	1.45
293.15	15000	0.4	937.95	1.45
293.15	15000	0.449	952.25	1.46
293.15	15000	0.4996	966.52	1.47
293.15	15000	0.5507	980.45	1.48
293.15	15000	0.6005	993.51	1.49
293.15	15000	0.6455	1004.95	1.5
293.15	15000	0.6931	1016.6	1.51
293.15	15000	0.7502	1030.04	1.52
293.15	15000	0.8009	1041.56	1.53
293.15	15000	0.8505	1052.45	1.54
293.15	15000	0.9008	1063.09	1.55
293.15	15000	0.9255	1068.18	1.56
293.15	15000	0.9477	1072.7	1.56
293.15	15000	0.9735	1077.83	1.57
293.15	20000	0.0252	815.31	1.39
293.15	20000	0.0506	824.93	1.4
293.15	20000	0.0757	834.27	1.4
293.15	20000	0.1003	843.17	1.41
293.15	20000	0.1508	861.19	1.41
293.15	20000	0.2	878.21	1.42
293.15	20000	0.2547	896.38	1.43
293.15	20000	0.3002	911.13	1.44
293.15	20000	0.3498	926.73	1.45
293.15	20000	0.4	941.91	1.46
293.15	20000	0.449	956.22	1.47
293.15	20000	0.4996	970.5	1.48
293.15	20000	0.5507	984.45	1.48
293.15	20000	0.6005	997.52	1.49
293.15	20000	0.6455	1008.96	1.5
293.15	20000	0.6931	1020.62	1.51
293.15	20000	0.7502	1034.07	1.52
293.15	20000	0.8009	1045.6	1.54
293.15	20000	0.8505	1056.49	1.55
293.15	20000	0.9008	1067.15	1.56
293.15	20000	0.9255	1072.28	1.56
293.15	20000	0.9477	1076.81	1.57
293.15	20000	0.9735	1081.94	1.58
293.15	25000	0.0252	819.03	1.4
293.15	25000	0.0506	828.7	1.4
293.15	25000	0.0757	838.04	1.41
293.15	25000	0.1003	846.95	1.41
293.15	25000	0.1508	864.97	1.42
293.15	25000	0.2	882.03	1.43
293.15	25000	0.2547	900.3	1.44
293.15	25000	0.3002	915.06	1.44
293.15	25000	0.3498	930.66	1.45
293.15	25000	0.4	945.85	1.46
293.15	25000	0.449	960.16	1.47
293.15	25000	0.4996	974.44	1.48
293.15	25000	0.5507	988.38	1.49
293.15	25000	0.6005	1001.46	1.49
293.15	25000	0.6455	1012.9	1.51
293.15	25000	0.6931	1024.56	1.52
293.15	25000	0.7502	1038.07	1.53
293.15	25000	0.8009	1049.6	1.54
293.15	25000	0.8505	1060.49	1.55
293.15	25000	0.9008	1071.17	1.57
293.15	25000	0.9255	1076.27	1.57
293.15	25000	0.9477	1080.81	1.58
293.15	25000	0.9735	1085.94	1.58
293.15	30000	0.0252	822.43	1.41
293.15	30000	0.0506	832.16	1.41
293.15	30000	0.0757	841.5	1.41
293.15	30000	0.1003	850.46	1.42
293.15	30000	0.1508	868.5	1.43
293.15	30000	0.2	885.62	1.43
293.15	30000	0.2547	903.95	1.44
293.15	30000	0.3002	918.71	1.45
293.15	30000	0.3498	934.33	1.46
293.15	30000	0.4	949.52	1.46
293.15	30000	0.449	963.84	1.47
293.15	30000	0.4996	978.13	1.48
293.15	30000	0.5507	992.09	1.49
293.15	30000	0.6005	1005.17	1.5
293.15	30000	0.6455	1016.62	1.51
293.15	30000	0.6931	1028.29	1.52
293.15	30000	0.7502	1041.8	1.53
293.15	30000	0.8009	1053.34	1.55
293.15	30000	0.8505	1064.24	1.56
293.15	30000	0.9008	1074.9	1.57
293.15	30000	0.9255	1080.01	1.58
293.15	30000	0.9477	1084.52	1.58
293.15	30000	0.9735	1089.66	1.59
293.15	35000	0.0252	825.77	1.42
293.15	35000	0.0506	835.5	1.42
293.15	35000	0.0757	844.9	1.42
293.15	35000	0.1003	853.86	1.42
293.15	35000	0.1508	871.96	1.43
293.15	35000	0.2	889.09	1.44
293.15	35000	0.2547	907.43	1.45
293.15	35000	0.3002	922.25	1.45
293.15	35000	0.3498	937.83	1.46
293.15	35000	0.4	953.08	1.47
293.15	35000	0.449	967.41	1.47
293.15	35000	0.4996	981.71	1.48
293.15	35000	0.5507	995.67	1.49
293.15	35000	0.6005	1008.76	1.5
293.15	35000	0.6455	1020.22	1.51
293.15	35000	0.6931	1031.89	1.52
293.15	35000	0.7502	1045.41	1.54
293.15	35000	0.8009	1056.96	1.55
293.15	35000	0.8505	1067.85	1.56
293.15	35000	0.9008	1078.5	1.58
293.15	35000	0.9255	1083.62	1.59
293.15	35000	0.9477	1088.13	1.59
293.15	35000	0.9735	1093.25	1.6
293.15	40000	0.0252	828.8	1.42
293.15	40000	0.0506	838.59	1.43
293.15	40000	0.0757	848.05	1.43
293.15	40000	0.1003	857.02	1.43
293.15	40000	0.1508	875.19	1.44
293.15	40000	0.2	892.34	1.44
293.15	40000	0.2547	910.71	1.45
293.15	40000	0.3002	925.54	1.46
293.15	40000	0.3498	941.14	1.46
293.15	40000	0.4	956.41	1.47
293.15	40000	0.449	970.75	1.48
293.15	40000	0.4996	985.12	1.48
293.15	40000	0.5507	999.1	1.49
293.15	40000	0.6005	1012.2	1.5
293.15	40000	0.6455	1023.68	1.52
293.15	40000	0.6931	1035.36	1.53
293.15	40000	0.7502	1048.9	1.54
293.15	40000	0.8009	1060.46	1.56
293.15	40000	0.8505	1071.38	1.57
293.15	40000	0.9008	1082.06	1.59
293.15	40000	0.9255	1087.15	1.59
293.15	40000	0.9477	1091.64	1.6
293.15	40000	0.9735	1096.74	1.61
298.15	100	0.0252	795.08	1.36
298.15	100	0.0506	804.43	1.37
298.15	100	0.0757	813.64	1.37
298.15	100	0.1003	822.42	1.38
298.15	100	0.1508	840.14	1.39
298.15	100	0.2	856.81	1.4
298.15	100	0.2547	874.78	1.41
298.15	100	0.3002	889.24	1.42
298.15	100	0.3498	904.6	1.43
298.15	100	0.4	919.63	1.44
298.15	100	0.449	933.8	1.45
298.15	100	0.4996	947.93	1.46
298.15	100	0.5507	961.74	1.47
298.15	100	0.6005	974.67	1.48
298.15	100	0.6455	985.93	1.49
298.15	100	0.6931	997.5	1.49
298.15	100	0.7502	1010.81	1.5
298.15	100	0.8009	1022.25	1.51
298.15	100	0.8505	1033.01	1.52
298.15	100	0.9008	1043.58	1.53
298.15	100	0.9255	1048.64	1.54
298.15	100	0.9477	1053.11	1.54
298.15	100	0.9735	1058.28	1.55
298.15	5000	0.0252	799.26	1.37
298.15	5000	0.0506	808.65	1.37
298.15	5000	0.0757	817.91	1.38
298.15	5000	0.1003	826.69	1.39
298.15	5000	0.1508	844.46	1.4
298.15	5000	0.2	861.18	1.41
298.15	5000	0.2547	879.19	1.42
298.15	5000	0.3002	893.65	1.42
298.15	5000	0.3498	909.01	1.43
298.15	5000	0.4	924.09	1.44
298.15	5000	0.449	938.26	1.45
298.15	5000	0.4996	952.44	1.46
298.15	5000	0.5507	966.24	1.47
298.15	5000	0.6005	979.17	1.48
298.15	5000	0.6455	990.48	1.49
298.15	5000	0.6931	1002.05	1.5
298.15	5000	0.7502	1015.36	1.51
298.15	5000	0.8009	1026.8	1.52
298.15	5000	0.8505	1037.56	1.53
298.15	5000	0.9008	1048.13	1.54
298.15	5000	0.9255	1053.19	1.54
298.15	5000	0.9477	1057.69	1.55
298.15	5000	0.9735	1062.83	1.55
298.15	10000	0.0252	803.35	1.38
298.15	10000	0.0506	812.8	1.38
298.15	10000	0.0757	822.06	1.39
298.15	10000	0.1003	830.89	1.39
298.15	10000	0.1508	848.67	1.4
298.15	10000	0.2	865.45	1.41
298.15	10000	0.2547	883.47	1.42
298.15	10000	0.3002	897.98	1.43
298.15	10000	0.3498	913.35	1.44
298.15	10000	0.4	928.49	1.45
298.15	10000	0.449	942.66	1.46
298.15	10000	0.4996	956.85	1.47
298.15	10000	0.5507	970.71	1.47
298.15	10000	0.6005	983.64	1.48
298.15	10000	0.6455	994.96	1.49
298.15	10000	0.6931	1006.53	1.5
298.15	10000	0.7502	1019.85	1.51
298.15	10000	0.8009	1031.29	1.52
298.15	10000	0.8505	1042.06	1.53
298.15	10000	0.9008	1052.63	1.54
298.15	10000	0.9255	1057.7	1.55
298.15	10000	0.9477	1062.19	1.55
298.15	10000	0.9735	1067.34	1.56
298.15	15000	0.0252	807.39	1.38
298.15	15000	0.0506	816.89	1.39
298.15	15000	0.0757	826.15	1.39
298.15	15000	0.1003	834.98	1.4
298.15	15000	0.1508	852.81	1.41
298.15	15000	0.2	869.59	1.42
298.15	15000	0.2547	887.66	1.43
298.15	15000	0.3002	902.17	1.43
298.15	15000	0.3498	917.59	1.44
298.15	15000	0.4	932.73	1.45
298.15	15000	0.449	946.91	1.46
298.15	15000	0.4996	961.1	1.47
298.15	15000	0.5507	974.95	1.48
298.15	15000	0.6005	987.89	1.49
298.15	15000	0.6455	999.21	1.49
298.15	15000	0.6931	1010.78	1.5
298.15	15000	0.7502	1024.1	1.52
298.15	15000	0.8009	1035.55	1.53
298.15	15000	0.8505	1046.31	1.54
298.15	15000	0.9008	1056.89	1.55
298.15	15000	0.9255	1061.95	1.55
298.15	15000	0.9477	1066.43	1.56
298.15	15000	0.9735	1071.56	1.56
298.15	20000	0.0252	811.05	1.39
298.15	20000	0.0506	820.61	1.4
298.15	20000	0.0757	829.93	1.4
298.15	20000	0.1003	838.77	1.4
298.15	20000	0.1508	856.66	1.41
298.15	20000	0.2	873.46	1.42
298.15	20000	0.2547	891.55	1.43
298.15	20000	0.3002	906.13	1.44
298.15	20000	0.3498	921.56	1.45
298.15	20000	0.4	936.77	1.46
298.15	20000	0.449	950.95	1.46
298.15	20000	0.4996	965.16	1.47
298.15	20000	0.5507	979.03	1.48
298.15	20000	0.6005	992.03	1.49
298.15	20000	0.6455	1003.31	1.5
298.15	20000	0.6931	1014.9	1.51
298.15	20000	0.7502	1028.23	1.52
298.15	20000	0.8009	1039.69	1.53
298.15	20000	0.8505	1050.49	1.54
298.15	20000	0.9008	1061.05	1.55
298.15	20000	0.9255	1066.12	1.56
298.15	20000	0.9477	1070.6	1.56
298.15	20000	0.9735	1075.75	1.57
298.15	25000	0.0252	814.77	1.4
298.15	25000	0.0506	824.39	1.4
298.15	25000	0.0757	833.72	1.41
298.15	25000	0.1003	842.57	1.41
298.15	25000	0.1508	860.52	1.42
298.15	25000	0.2	877.33	1.43
298.15	25000	0.2547	895.44	1.43
298.15	25000	0.3002	910.03	1.44
298.15	25000	0.3498	925.47	1.45
298.15	25000	0.4	940.64	1.46
298.15	25000	0.449	954.89	1.47
298.15	25000	0.4996	969.11	1.48
298.15	25000	0.5507	982.99	1.48
298.15	25000	0.6005	996	1.49
298.15	25000	0.6455	1007.29	1.5
298.15	25000	0.6931	1018.88	1.51
298.15	25000	0.7502	1032.23	1.52
298.15	25000	0.8009	1043.7	1.54
298.15	25000	0.8505	1054.48	1.55
298.15	25000	0.9008	1065.07	1.56
298.15	25000	0.9255	1070.15	1.57
298.15	25000	0.9477	1074.63	1.57
298.15	25000	0.9735	1079.76	1.58
298.15	30000	0.0252	818.23	1.41
298.15	30000	0.0506	827.85	1.41
298.15	30000	0.0757	837.24	1.41
298.15	30000	0.1003	846.09	1.42
298.15	30000	0.1508	864.11	1.42
298.15	30000	0.2	880.97	1.43
298.15	30000	0.2547	899.14	1.44
298.15	30000	0.3002	913.74	1.45
298.15	30000	0.3498	929.2	1.45
298.15	30000	0.4	944.38	1.46
298.15	30000	0.449	958.68	1.47
298.15	30000	0.4996	972.91	1.48
298.15	30000	0.5507	986.8	1.49
298.15	30000	0.6005	999.82	1.49
298.15	30000	0.6455	1011.17	1.5
298.15	30000	0.6931	1022.77	1.51
298.15	30000	0.7502	1036.12	1.53
298.15	30000	0.8009	1047.6	1.54
298.15	30000	0.8505	1058.39	1.55
298.15	30000	0.9008	1068.99	1.57
298.15	30000	0.9255	1074.07	1.57
298.15	30000	0.9477	1078.55	1.58
298.15	30000	0.9735	1083.68	1.58
298.15	35000	0.0252	821.35	1.42
298.15	35000	0.0506	831.03	1.42
298.15	35000	0.0757	840.42	1.42
298.15	35000	0.1003	849.38	1.42
298.15	35000	0.1508	867.41	1.43
298.15	35000	0.2	884.34	1.44
298.15	35000	0.2547	902.52	1.44
298.15	35000	0.3002	917.13	1.45
298.15	35000	0.3498	932.65	1.46
298.15	35000	0.4	947.84	1.46
298.15	35000	0.449	962.16	1.47
298.15	35000	0.4996	976.39	1.48
298.15	35000	0.5507	990.35	1.49
298.15	35000	0.6005	1003.37	1.5
298.15	35000	0.6455	1014.73	1.51
298.15	35000	0.6931	1026.34	1.52
298.15	35000	0.7502	1039.75	1.53
298.15	35000	0.8009	1051.24	1.55
298.15	35000	0.8505	1062.04	1.56
298.15	35000	0.9008	1072.64	1.57
298.15	35000	0.9255	1077.73	1.58
298.15	35000	0.9477	1082.21	1.58
298.15	35000	0.9735	1087.3	1.59
298.15	40000	0.0252	824.85	1.42
298.15	40000	0.0506	834.55	1.43
298.15	40000	0.0757	843.95	1.43
298.15	40000	0.1003	852.92	1.43
298.15	40000	0.1508	871.01	1.44
298.15	40000	0.2	887.93	1.44
298.15	40000	0.2547	906.18	1.45
298.15	40000	0.3002	920.8	1.45
298.15	40000	0.3498	936.29	1.46
298.15	40000	0.4	951.52	1.47
298.15	40000	0.449	965.81	1.47
298.15	40000	0.4996	980.05	1.48
298.15	40000	0.5507	994.01	1.49
298.15	40000	0.6005	1006.99	1.5
298.15	40000	0.6455	1018.41	1.51
298.15	40000	0.6931	1030.03	1.52
298.15	40000	0.7502	1043.4	1.54
298.15	40000	0.8009	1054.89	1.55
298.15	40000	0.8505	1065.71	1.56
298.15	40000	0.9008	1076.29	1.58
298.15	40000	0.9255	1081.38	1.59
298.15	40000	0.9477	1085.85	1.59
298.15	40000	0.9735	1090.94	1.6
303.15	100	0.0252	790.52	1.36
303.15	100	0.0506	799.8	1.37
303.15	100	0.0757	808.95	1.37
303.15	100	0.1003	817.66	1.38
303.15	100	0.1508	835.2	1.39
303.15	100	0.2	851.75	1.4
303.15	100	0.2547	869.58	1.41
303.15	100	0.3002	883.92	1.42
303.15	100	0.3498	899.15	1.43
303.15	100	0.4	914.01	1.44
303.15	100	0.449	928.1	1.45
303.15	100	0.4996	942.11	1.46
303.15	100	0.5507	955.78	1.46
303.15	100	0.6005	968.59	1.47
303.15	100	0.6455	979.73	1.48
303.15	100	0.6931	991.23	1.49
303.15	100	0.7502	1004.42	1.5
303.15	100	0.8009	1015.74	1.51
303.15	100	0.8505	1026.43	1.52
303.15	100	0.9008	1036.88	1.53
303.15	100	0.9255	1041.88	1.53
303.15	100	0.9477	1046.34	1.54
303.15	100	0.9735	1051.45	1.54
303.15	5000	0.0252	794.85	1.37
303.15	5000	0.0506	804.24	1.37
303.15	5000	0.0757	813.38	1.38
303.15	5000	0.1003	822.15	1.38
303.15	5000	0.1508	839.75	1.39
303.15	5000	0.2	856.29	1.4
303.15	5000	0.2547	874.18	1.41
303.15	5000	0.3002	888.57	1.42
303.15	5000	0.3498	903.81	1.43
303.15	5000	0.4	918.72	1.44
303.15	5000	0.449	932.82	1.45
303.15	5000	0.4996	946.83	1.46
303.15	5000	0.5507	960.51	1.47
303.15	5000	0.6005	973.37	1.48
303.15	5000	0.6455	984.57	1.48
303.15	5000	0.6931	996.02	1.49
303.15	5000	0.7502	1009.26	1.5
303.15	5000	0.8009	1020.59	1.51
303.15	5000	0.8505	1031.28	1.52
303.15	5000	0.9008	1041.74	1.53
303.15	5000	0.9255	1046.76	1.54
303.15	5000	0.9477	1051.21	1.54
303.15	5000	0.9735	1056.32	1.55
303.15	10000	0.0252	799.09	1.37
303.15	10000	0.0506	808.54	1.38
303.15	10000	0.0757	817.69	1.38
303.15	10000	0.1003	826.46	1.39
303.15	10000	0.1508	844.12	1.4
303.15	10000	0.2	860.68	1.41
303.15	10000	0.2547	878.59	1.42
303.15	10000	0.3002	893.03	1.43
303.15	10000	0.3498	908.28	1.44
303.15	10000	0.4	923.21	1.44
303.15	10000	0.449	937.32	1.45
303.15	10000	0.4996	951.34	1.46
303.15	10000	0.5507	965.03	1.47
303.15	10000	0.6005	977.9	1.48
303.15	10000	0.6455	989.11	1.49
303.15	10000	0.6931	1000.62	1.5
303.15	10000	0.7502	1013.82	1.51
303.15	10000	0.8009	1025.15	1.52
303.15	10000	0.8505	1035.85	1.53
303.15	10000	0.9008	1046.31	1.54
303.15	10000	0.9255	1051.32	1.54
303.15	10000	0.9477	1055.79	1.55
303.15	10000	0.9735	1060.89	1.55
303.15	15000	0.0252	803.19	1.38
303.15	15000	0.0506	812.68	1.39
303.15	15000	0.0757	821.83	1.39
303.15	15000	0.1003	830.66	1.4
303.15	15000	0.1508	848.37	1.4
303.15	15000	0.2	864.98	1.41
303.15	15000	0.2547	882.88	1.42
303.15	15000	0.3002	897.33	1.43
303.15	15000	0.3498	912.64	1.44
303.15	15000	0.4	927.61	1.45
303.15	15000	0.449	941.72	1.46
303.15	15000	0.4996	955.75	1.47
303.15	15000	0.5507	969.44	1.47
303.15	15000	0.6005	982.31	1.48
303.15	15000	0.6455	993.57	1.49
303.15	15000	0.6931	1005.08	1.5
303.15	15000	0.7502	1018.28	1.51
303.15	15000	0.8009	1029.62	1.52
303.15	15000	0.8505	1040.32	1.53
303.15	15000	0.9008	1050.81	1.54
303.15	15000	0.9255	1055.83	1.55
303.15	15000	0.9477	1060.28	1.55
303.15	15000	0.9735	1065.37	1.56
303.15	20000	0.0252	807.07	1.39
303.15	20000	0.0506	816.57	1.39
303.15	20000	0.0757	825.78	1.4
303.15	20000	0.1003	834.61	1.4
303.15	20000	0.1508	852.39	1.41
303.15	20000	0.2	869.06	1.42
303.15	20000	0.2547	886.98	1.43
303.15	20000	0.3002	901.44	1.44
303.15	20000	0.3498	916.76	1.44
303.15	20000	0.4	931.75	1.45
303.15	20000	0.449	945.87	1.46
303.15	20000	0.4996	959.95	1.47
303.15	20000	0.5507	973.66	1.48
303.15	20000	0.6005	986.54	1.49
303.15	20000	0.6455	997.8	1.49
303.15	20000	0.6931	1009.33	1.5
303.15	20000	0.7502	1022.54	1.51
303.15	20000	0.8009	1033.88	1.53
303.15	20000	0.8505	1044.59	1.54
303.15	20000	0.9008	1055.12	1.55
303.15	20000	0.9255	1060.15	1.55
303.15	20000	0.9477	1064.6	1.56
303.15	20000	0.9735	1069.67	1.56
303.15	25000	0.0252	810.85	1.4
303.15	25000	0.0506	820.4	1.4
303.15	25000	0.0757	829.67	1.41
303.15	25000	0.1003	838.5	1.41
303.15	25000	0.1508	856.28	1.42
303.15	25000	0.2	873.01	1.42
303.15	25000	0.2547	890.99	1.43
303.15	25000	0.3002	905.46	1.44
303.15	25000	0.3498	920.83	1.45
303.15	25000	0.4	935.83	1.46
303.15	25000	0.449	949.95	1.46
303.15	25000	0.4996	964.05	1.47
303.15	25000	0.5507	977.76	1.48
303.15	25000	0.6005	990.65	1.49
303.15	25000	0.6455	1001.97	1.5
303.15	25000	0.6931	1013.44	1.51
303.15	25000	0.7502	1026.71	1.52
303.15	25000	0.8009	1038.07	1.53
303.15	25000	0.8505	1048.83	1.54
303.15	25000	0.9008	1059.33	1.55
303.15	25000	0.9255	1064.37	1.56
303.15	25000	0.9477	1068.85	1.56
303.15	25000	0.9735	1073.92	1.57
303.15	30000	0.0252	814.45	1.41
303.15	30000	0.0506	824.05	1.41
303.15	30000	0.0757	833.32	1.41
303.15	30000	0.1003	842.15	1.42
303.15	30000	0.1508	859.99	1.42
303.15	30000	0.2	876.77	1.43
303.15	30000	0.2547	894.76	1.44
303.15	30000	0.3002	909.28	1.44
303.15	30000	0.3498	924.6	1.45
303.15	30000	0.4	939.65	1.46
303.15	30000	0.449	953.78	1.47
303.15	30000	0.4996	967.88	1.48
303.15	30000	0.5507	981.64	1.48
303.15	30000	0.6005	994.54	1.49
303.15	30000	0.6455	1005.86	1.5
303.15	30000	0.6931	1017.34	1.51
303.15	30000	0.7502	1030.61	1.52
303.15	30000	0.8009	1041.97	1.54
303.15	30000	0.8505	1052.73	1.55
303.15	30000	0.9008	1063.26	1.56
303.15	30000	0.9255	1068.3	1.57
303.15	30000	0.9477	1072.75	1.57
303.15	30000	0.9735	1077.83	1.58
303.15	35000	0.0252	817.99	1.41
303.15	35000	0.0506	827.65	1.42
303.15	35000	0.0757	836.92	1.42
303.15	35000	0.1003	845.76	1.42
303.15	35000	0.1508	863.66	1.43
303.15	35000	0.2	880.45	1.43
303.15	35000	0.2547	898.44	1.44
303.15	35000	0.3002	912.97	1.45
303.15	35000	0.3498	928.31	1.46
303.15	35000	0.4	943.37	1.46
303.15	35000	0.449	957.5	1.47
303.15	35000	0.4996	971.61	1.48
303.15	35000	0.5507	985.38	1.49
303.15	35000	0.6005	998.28	1.49
303.15	35000	0.6455	1009.61	1.5
303.15	35000	0.6931	1021.1	1.51
303.15	35000	0.7502	1034.38	1.53
303.15	35000	0.8009	1045.74	1.54
303.15	35000	0.8505	1056.47	1.55
303.15	35000	0.9008	1067	1.57
303.15	35000	0.9255	1072.05	1.57
303.15	35000	0.9477	1076.5	1.58
303.15	35000	0.9735	1081.57	1.59
303.15	40000	0.0252	821.19	1.42
303.15	40000	0.0506	830.86	1.43
303.15	40000	0.0757	840.19	1.43
303.15	40000	0.1003	849.04	1.43
303.15	40000	0.1508	867.01	1.43
303.15	40000	0.2	883.83	1.44
303.15	40000	0.2547	901.89	1.45
303.15	40000	0.3002	916.44	1.45
303.15	40000	0.3498	931.85	1.46
303.15	40000	0.4	946.93	1.47
303.15	40000	0.449	961.08	1.47
303.15	40000	0.4996	975.21	1.48
303.15	40000	0.5507	989	1.49
303.15	40000	0.6005	1001.97	1.5
303.15	40000	0.6455	1013.31	1.51
303.15	40000	0.6931	1024.81	1.52
303.15	40000	0.7502	1038.11	1.53
303.15	40000	0.8009	1049.49	1.55
303.15	40000	0.8505	1060.22	1.56
303.15	40000	0.9008	1070.77	1.57
303.15	40000	0.9255	1075.83	1.58
303.15	40000	0.9477	1080.28	1.59
303.15	40000	0.9735	1085.37	1.59
308.15	100	0.0252	785.78	1.36
308.15	100	0.0506	795.01	1.36
308.15	100	0.0757	804.1	1.37
308.15	100	0.1003	812.76	1.37
308.15	100	0.1508	830.19	1.38
308.15	100	0.2	846.57	1.39
308.15	100	0.2547	864.3	1.41
308.15	100	0.3002	878.53	1.41
308.15	100	0.3498	893.6	1.42
308.15	100	0.4	908.35	1.43
308.15	100	0.449	922.34	1.44
308.15	100	0.4996	936.23	1.45
308.15	100	0.5507	949.8	1.46
308.15	100	0.6005	962.5	1.47
308.15	100	0.6455	973.59	1.48
308.15	100	0.6931	984.98	1.49
308.15	100	0.7502	998.06	1.49
308.15	100	0.8009	1009.32	1.5
308.15	100	0.8505	1019.95	1.51
308.15	100	0.9008	1030.34	1.52
308.15	100	0.9255	1035.32	1.53
308.15	100	0.9477	1039.72	1.53
308.15	100	0.9735	1044.8	1.54
308.15	5000	0.0252	790.2	1.37
308.15	5000	0.0506	799.48	1.37
308.15	5000	0.0757	808.57	1.38
308.15	5000	0.1003	817.27	1.38
308.15	5000	0.1508	834.75	1.39
308.15	5000	0.2	851.18	1.4
308.15	5000	0.2547	868.96	1.41
308.15	5000	0.3002	883.23	1.42
308.15	5000	0.3498	898.3	1.43
308.15	5000	0.4	913.1	1.44
308.15	5000	0.449	927.13	1.45
308.15	5000	0.4996	941.03	1.46
308.15	5000	0.5507	954.65	1.46
308.15	5000	0.6005	967.34	1.47
308.15	5000	0.6455	978.43	1.48
308.15	5000	0.6931	989.86	1.49
308.15	5000	0.7502	1002.99	1.5
308.15	5000	0.8009	1014.25	1.51
308.15	5000	0.8505	1024.88	1.52
308.15	5000	0.9008	1035.27	1.53
308.15	5000	0.9255	1040.27	1.53
308.15	5000	0.9477	1044.68	1.54
308.15	5000	0.9735	1049.73	1.54
308.15	10000	0.0252	794.7	1.37
308.15	10000	0.0506	804.03	1.38
308.15	10000	0.0757	813.12	1.38
308.15	10000	0.1003	821.84	1.39
308.15	10000	0.1508	839.38	1.4
308.15	10000	0.2	855.82	1.41
308.15	10000	0.2547	873.61	1.42
308.15	10000	0.3002	887.94	1.42
308.15	10000	0.3498	903.03	1.43
308.15	10000	0.4	917.89	1.44
308.15	10000	0.449	931.93	1.45
308.15	10000	0.4996	945.84	1.46
308.15	10000	0.5507	959.47	1.47
308.15	10000	0.6005	972.17	1.48
308.15	10000	0.6455	983.27	1.48
308.15	10000	0.6931	994.71	1.49
308.15	10000	0.7502	1007.85	1.5
308.15	10000	0.8009	1019.12	1.51
308.15	10000	0.8505	1029.76	1.52
308.15	10000	0.9008	1040.16	1.53
308.15	10000	0.9255	1045.13	1.54
308.15	10000	0.9477	1049.54	1.54
308.15	10000	0.9735	1054.59	1.55
308.15	15000	0.0252	798.95	1.38
308.15	15000	0.0506	808.34	1.38
308.15	15000	0.0757	817.43	1.39
308.15	15000	0.1003	826.15	1.39
308.15	15000	0.1508	843.74	1.4
308.15	15000	0.2	860.24	1.41
308.15	15000	0.2547	878.08	1.42
308.15	15000	0.3002	892.42	1.43
308.15	15000	0.3498	907.51	1.44
308.15	15000	0.4	922.37	1.45
308.15	15000	0.449	936.46	1.45
308.15	15000	0.4996	950.37	1.46
308.15	15000	0.5507	964	1.47
308.15	15000	0.6005	976.76	1.48
308.15	15000	0.6455	987.86	1.49
308.15	15000	0.6931	999.31	1.49
308.15	15000	0.7502	1012.45	1.51
308.15	15000	0.8009	1023.72	1.52
308.15	15000	0.8505	1034.36	1.53
308.15	15000	0.9008	1044.76	1.54
308.15	15000	0.9255	1049.75	1.54
308.15	15000	0.9477	1054.15	1.55
308.15	15000	0.9735	1059.21	1.55
308.15	20000	0.0252	803.01	1.39
308.15	20000	0.0506	812.45	1.39
308.15	20000	0.0757	821.55	1.4
308.15	20000	0.1003	830.31	1.4
308.15	20000	0.1508	847.91	1.41
308.15	20000	0.2	864.46	1.42
308.15	20000	0.2547	882.31	1.43
308.15	20000	0.3002	896.65	1.43
308.15	20000	0.3498	911.79	1.44
308.15	20000	0.4	926.66	1.45
308.15	20000	0.449	940.76	1.46
308.15	20000	0.4996	954.72	1.47
308.15	20000	0.5507	968.36	1.47
308.15	20000	0.6005	981.12	1.48
308.15	20000	0.6455	992.27	1.49
308.15	20000	0.6931	1003.72	1.5
308.15	20000	0.7502	1016.86	1.51
308.15	20000	0.8009	1028.14	1.52
308.15	20000	0.8505	1038.78	1.53
308.15	20000	0.9008	1049.19	1.54
308.15	20000	0.9255	1054.19	1.55
308.15	20000	0.9477	1058.61	1.55
308.15	20000	0.9735	1063.67	1.56
308.15	25000	0.0252	806.85	1.4
308.15	25000	0.0506	816.29	1.4
308.15	25000	0.0757	825.44	1.4
308.15	25000	0.1003	834.21	1.41
308.15	25000	0.1508	851.87	1.41
308.15	25000	0.2	868.48	1.42
308.15	25000	0.2547	886.33	1.43
308.15	25000	0.3002	900.73	1.44
308.15	25000	0.3498	915.88	1.45
308.15	25000	0.4	930.75	1.45
308.15	25000	0.449	944.91	1.46
308.15	25000	0.4996	958.88	1.47
308.15	25000	0.5507	972.52	1.48
308.15	25000	0.6005	985.34	1.49
308.15	25000	0.6455	996.5	1.49
308.15	25000	0.6931	1007.95	1.5
308.15	25000	0.7502	1021.1	1.51
308.15	25000	0.8009	1032.39	1.53
308.15	25000	0.8505	1043.04	1.54
308.15	25000	0.9008	1053.46	1.55
308.15	25000	0.9255	1058.45	1.55
308.15	25000	0.9477	1062.87	1.56
308.15	25000	0.9735	1067.93	1.56
308.15	30000	0.0252	810.55	1.41
308.15	30000	0.0506	820.04	1.41
308.15	30000	0.0757	829.2	1.41
308.15	30000	0.1003	837.98	1.41
308.15	30000	0.1508	855.69	1.42
308.15	30000	0.2	872.26	1.43
308.15	30000	0.2547	890.22	1.44
308.15	30000	0.3002	904.63	1.44
308.15	30000	0.3498	919.79	1.45
308.15	30000	0.4	934.72	1.46
308.15	30000	0.449	948.88	1.46
308.15	30000	0.4996	962.91	1.47
308.15	30000	0.5507	976.56	1.48
308.15	30000	0.6005	989.34	1.49
308.15	30000	0.6455	1000.55	1.49
308.15	30000	0.6931	1012.02	1.51
308.15	30000	0.7502	1025.17	1.52
308.15	30000	0.8009	1036.46	1.53
308.15	30000	0.8505	1047.12	1.54
308.15	30000	0.9008	1057.58	1.55
308.15	30000	0.9255	1062.57	1.56
308.15	30000	0.9477	1066.99	1.57
308.15	30000	0.9735	1072.03	1.57
308.15	35000	0.0252	814.13	1.41
308.15	35000	0.0506	823.67	1.42
308.15	35000	0.0757	832.83	1.42
308.15	35000	0.1003	841.6	1.42
308.15	35000	0.1508	859.36	1.43
308.15	35000	0.2	875.98	1.43
308.15	35000	0.2547	893.94	1.44
308.15	35000	0.3002	908.34	1.45
308.15	35000	0.3498	923.55	1.45
308.15	35000	0.4	938.43	1.46
308.15	35000	0.449	952.59	1.47
308.15	35000	0.4996	966.61	1.48
308.15	35000	0.5507	980.26	1.48
308.15	35000	0.6005	993.09	1.49
308.15	35000	0.6455	1004.29	1.5
308.15	35000	0.6931	1015.76	1.51
308.15	35000	0.7502	1028.91	1.52
308.15	35000	0.8009	1040.2	1.53
308.15	35000	0.8505	1050.86	1.55
308.15	35000	0.9008	1061.29	1.56
308.15	35000	0.9255	1066.29	1.57
308.15	35000	0.9477	1070.7	1.57
308.15	35000	0.9735	1075.71	1.58
308.15	40000	0.0252	817.65	1.42
308.15	40000	0.0506	827.2	1.42
308.15	40000	0.0757	836.41	1.43
308.15	40000	0.1003	845.19	1.43
308.15	40000	0.1508	862.96	1.43
308.15	40000	0.2	879.58	1.44
308.15	40000	0.2547	897.55	1.44
308.15	40000	0.3002	911.96	1.45
308.15	40000	0.3498	927.17	1.46
308.15	40000	0.4	942.06	1.46
308.15	40000	0.449	956.23	1.47
308.15	40000	0.4996	970.26	1.48
308.15	40000	0.5507	983.92	1.48
308.15	40000	0.6005	996.75	1.49
308.15	40000	0.6455	1007.96	1.5
308.15	40000	0.6931	1019.43	1.51
308.15	40000	0.7502	1032.59	1.53
308.15	40000	0.8009	1043.88	1.54
308.15	40000	0.8505	1054.54	1.55
308.15	40000	0.9008	1064.96	1.57
308.15	40000	0.9255	1069.95	1.57
308.15	40000	0.9477	1074.34	1.58
308.15	40000	0.9735	1079.36	1.59
288.15	100	1	1076.83	0.57
288.15	5000	1	1081.15	0.57
288.15	10000	1	1085.32	0.58
288.15	15000	1	1089.52	0.6
288.15	20000	1	1093.35	0.61
288.15	25000	1	1096.99	0.62
288.15	30000	1	1100.63	0.63
288.15	35000	1	1104.08	0.65
288.15	40000	1	1107.4	0.67
293.15	100	1	1070.06	0.56
293.15	5000	1	1074.62	0.57
293.15	10000	1	1078.93	0.58
293.15	15000	1	1083.01	0.59
293.15	20000	1	1087.08	0.6
293.15	25000	1	1091.03	0.61
293.15	30000	1	1094.75	0.63
293.15	35000	1	1098.34	0.64
293.15	40000	1	1101.84	0.66
298.15	100	1	1063.45	0.56
298.15	5000	1	1068	0.57
298.15	10000	1	1072.51	0.58
298.15	15000	1	1076.72	0.59
298.15	20000	1	1080.9	0.6
298.15	25000	1	1084.89	0.61
298.15	30000	1	1088.82	0.62
298.15	35000	1	1092.44	0.64
298.15	40000	1	1096.04	0.65
303.15	100	1	1056.61	0.56
303.15	5000	1	1061.47	0.57
303.15	10000	1	1066.02	0.57
303.15	15000	1	1070.49	0.58
303.15	20000	1	1074.79	0.59
303.15	25000	1	1078.99	0.6
303.15	30000	1	1082.9	0.61
303.15	35000	1	1086.6	0.63
303.15	40000	1	1090.4	0.64
308.15	100	1	1049.91	0.56
308.15	5000	1	1054.84	0.56
308.15	10000	1	1059.69	0.57
308.15	15000	1	1064.3	0.58
308.15	20000	1	1068.73	0.59
308.15	25000	1	1073	0.6
308.15	30000	1	1077.1	0.61
308.15	35000	1	1080.78	0.62
308.15	40000	1	1084.38	0.63
288.15	100	0	794.39	0.52
288.15	5000	0	798.18	0.53
288.15	10000	0	802.2	0.54
288.15	15000	0	806.02	0.55
288.15	20000	0	809.69	0.56
288.15	25000	0	812.95	0.58
288.15	30000	0	816.23	0.59
288.15	35000	0	819.12	0.61
288.15	40000	0	822.29	0.62
293.15	100	0	789.87	0.52
293.15	5000	0	793.83	0.53
293.15	10000	0	797.88	0.54
293.15	15000	0	801.84	0.55
293.15	20000	0	805.45	0.57
293.15	25000	0	809.12	0.58
293.15	30000	0	812.52	0.6
293.15	35000	0	815.8	0.61
293.15	40000	0	818.81	0.63
298.15	100	0	785.59	0.52
298.15	5000	0	789.72	0.53
298.15	10000	0	793.76	0.54
298.15	15000	0	797.75	0.55
298.15	20000	0	801.4	0.57
298.15	25000	0	805.07	0.58
298.15	30000	0	808.47	0.6
298.15	35000	0	811.58	0.61
298.15	40000	0	815.03	0.63
303.15	100	0	781.19	0.52
303.15	5000	0	785.47	0.53
303.15	10000	0	789.66	0.54
303.15	15000	0	793.71	0.55
303.15	20000	0	797.54	0.57
303.15	25000	0	801.26	0.58
303.15	30000	0	804.81	0.6
303.15	35000	0	808.29	0.62
303.15	40000	0	811.43	0.64
308.15	100	0	776.6	0.52
308.15	5000	0	780.98	0.53
308.15	10000	0	785.42	0.54
308.15	15000	0	789.62	0.56
308.15	20000	0	793.63	0.57
308.15	25000	0	797.42	0.59
308.15	30000	0	801.06	0.6
308.15	35000	0	804.6	0.62
308.15	40000	0	808.06	0.64

System: dimethyl carbonate + propan-1-ol; phases: Liquid
Property: Mass density, kg/m3 (Liquid); method: Vibrating tube method
Temperature, K	Pressure, kPa	Mole fraction of dimethyl carbonate	Mass density, kg/m3	uncertainty
288.15	100	0.0273	815.28	1.38
288.15	100	0.0506	821.93	1.38
288.15	100	0.0755	829.07	1.38
288.15	100	0.1007	836.26	1.39
288.15	100	0.1495	850.12	1.4
288.15	100	0.2003	864.44	1.4
288.15	100	0.2529	879.11	1.41
288.15	100	0.2993	891.99	1.42
288.15	100	0.3497	905.81	1.43
288.15	100	0.401	919.74	1.44
288.15	100	0.4509	933.25	1.45
288.15	100	0.5002	946.47	1.46
288.15	100	0.5498	959.76	1.47
288.15	100	0.5996	973.01	1.48
288.15	100	0.6499	986.28	1.49
288.15	100	0.7006	999.56	1.49
288.15	100	0.7471	1011.61	1.5
288.15	100	0.7989	1025.02	1.52
288.15	100	0.8491	1038.04	1.53
288.15	100	0.8993	1051.07	1.54
288.15	100	0.9249	1057.64	1.54
288.15	100	0.9489	1063.77	1.55
288.15	100	0.9743	1070.25	1.56
288.15	5000	0.0273	819.04	1.38
288.15	5000	0.0506	825.69	1.38
288.15	5000	0.0755	832.88	1.39
288.15	5000	0.1007	840.08	1.39
288.15	5000	0.1495	853.99	1.4
288.15	5000	0.2003	868.36	1.41
288.15	5000	0.2529	883.04	1.42
288.15	5000	0.2993	895.97	1.43
288.15	5000	0.3497	909.85	1.43
288.15	5000	0.401	923.79	1.44
288.15	5000	0.4509	937.3	1.45
288.15	5000	0.5002	950.58	1.46
288.15	5000	0.5498	963.88	1.47
288.15	5000	0.5996	977.19	1.48
288.15	5000	0.6499	990.51	1.49
288.15	5000	0.7006	1003.79	1.5
288.15	5000	0.7471	1015.85	1.51
288.15	5000	0.7989	1029.31	1.52
288.15	5000	0.8491	1042.34	1.53
288.15	5000	0.8993	1055.38	1.54
288.15	5000	0.9249	1061.95	1.55
288.15	5000	0.9489	1068.08	1.56
288.15	5000	0.9743	1074.61	1.56
288.15	10000	0.0273	822.48	1.39
288.15	10000	0.0506	829.18	1.39
288.15	10000	0.0755	836.37	1.39
288.15	10000	0.1007	843.62	1.4
288.15	10000	0.1495	857.54	1.41
288.15	10000	0.2003	871.96	1.41
288.15	10000	0.2529	886.7	1.42
288.15	10000	0.2993	899.68	1.43
288.15	10000	0.3497	913.56	1.44
288.15	10000	0.401	927.61	1.45
288.15	10000	0.4509	941.17	1.46
288.15	10000	0.5002	954.46	1.46
288.15	10000	0.5498	967.81	1.47
288.15	10000	0.5996	981.12	1.48
288.15	10000	0.6499	994.5	1.49
288.15	10000	0.7006	1007.79	1.5
288.15	10000	0.7471	1019.9	1.51
288.15	10000	0.7989	1033.41	1.52
288.15	10000	0.8491	1046.44	1.54
288.15	10000	0.8993	1059.54	1.55
288.15	10000	0.9249	1066.12	1.55
288.15	10000	0.9489	1072.25	1.56
288.15	10000	0.9743	1078.78	1.57
288.15	15000	0.0273	825.78	1.39
288.15	15000	0.0506	832.53	1.4
288.15	15000	0.0755	839.78	1.4
288.15	15000	0.1007	847.03	1.4
288.15	15000	0.1495	861.01	1.41
288.15	15000	0.2003	875.5	1.42
288.15	15000	0.2529	890.29	1.43
288.15	15000	0.2993	903.29	1.43
288.15	15000	0.3497	917.23	1.44
288.15	15000	0.401	931.33	1.45
288.15	15000	0.4509	944.96	1.46
288.15	15000	0.5002	958.3	1.47
288.15	15000	0.5498	971.66	1.48
288.15	15000	0.5996	984.99	1.48
288.15	15000	0.6499	998.42	1.49
288.15	15000	0.7006	1011.77	1.5
288.15	15000	0.7471	1023.94	1.52
288.15	15000	0.7989	1037.52	1.53
288.15	15000	0.8491	1050.56	1.54
288.15	15000	0.8993	1063.72	1.55
288.15	15000	0.9249	1070.3	1.56
288.15	15000	0.9489	1076.44	1.57
288.15	15000	0.9743	1082.98	1.57
288.15	20000	0.0273	829.15	1.4
288.15	20000	0.0506	835.9	1.4
288.15	20000	0.0755	843.2	1.41
288.15	20000	0.1007	850.45	1.41
288.15	20000	0.1495	864.47	1.42
288.15	20000	0.2003	879	1.42
288.15	20000	0.2529	893.84	1.43
288.15	20000	0.2993	906.83	1.44
288.15	20000	0.3497	920.81	1.45
288.15	20000	0.401	934.96	1.45
288.15	20000	0.4509	948.59	1.46
288.15	20000	0.5002	961.98	1.47
288.15	20000	0.5498	975.38	1.48
288.15	20000	0.5996	988.75	1.49
288.15	20000	0.6499	1002.18	1.5
288.15	20000	0.7006	1015.53	1.51
288.15	20000	0.7471	1027.7	1.52
288.15	20000	0.7989	1041.32	1.53
288.15	20000	0.8491	1054.41	1.55
288.15	20000	0.8993	1067.56	1.56
288.15	20000	0.9249	1074.14	1.57
288.15	20000	0.9489	1080.27	1.57
288.15	20000	0.9743	1086.81	1.58
288.15	25000	0.0273	832.17	1.41
288.15	25000	0.0506	838.98	1.41
288.15	25000	0.0755	846.28	1.41
288.15	25000	0.1007	853.58	1.41
288.15	25000	0.1495	867.61	1.42
288.15	25000	0.2003	882.15	1.43
288.15	25000	0.2529	897.05	1.44
288.15	25000	0.2993	910.1	1.44
288.15	25000	0.3497	924.09	1.45
288.15	25000	0.401	938.25	1.46
288.15	25000	0.4509	951.93	1.47
288.15	25000	0.5002	965.33	1.47
288.15	25000	0.5498	978.79	1.48
288.15	25000	0.5996	992.17	1.49
288.15	25000	0.6499	1005.66	1.5
288.15	25000	0.7006	1019.07	1.51
288.15	25000	0.7471	1031.24	1.52
288.15	25000	0.7989	1044.87	1.54
288.15	25000	0.8491	1057.97	1.55
288.15	25000	0.8993	1071.18	1.57
288.15	25000	0.9249	1077.81	1.57
288.15	25000	0.9489	1083.9	1.58
288.15	25000	0.9743	1090.45	1.59
288.15	30000	0.0273	835.17	1.41
288.15	30000	0.0506	842.03	1.41
288.15	30000	0.0755	849.38	1.42
288.15	30000	0.1007	856.69	1.42
288.15	30000	0.1495	870.78	1.43
288.15	30000	0.2003	885.32	1.43
288.15	30000	0.2529	900.28	1.44
288.15	30000	0.2993	913.34	1.45
288.15	30000	0.3497	927.39	1.45
288.15	30000	0.401	941.6	1.46
288.15	30000	0.4509	955.29	1.47
288.15	30000	0.5002	968.75	1.48
288.15	30000	0.5498	982.22	1.48
288.15	30000	0.5996	995.65	1.49
288.15	30000	0.6499	1009.15	1.5
288.15	30000	0.7006	1022.61	1.51
288.15	30000	0.7471	1034.8	1.53
288.15	30000	0.7989	1048.43	1.54
288.15	30000	0.8491	1061.59	1.56
288.15	30000	0.8993	1074.81	1.57
288.15	30000	0.9249	1081.44	1.58
288.15	30000	0.9489	1087.54	1.59
288.15	30000	0.9743	1094.08	1.6
288.15	35000	0.0273	838.02	1.42
288.15	35000	0.0506	844.93	1.42
288.15	35000	0.0755	852.29	1.42
288.15	35000	0.1007	859.6	1.43
288.15	35000	0.1495	873.75	1.43
288.15	35000	0.2003	888.35	1.44
288.15	35000	0.2529	903.32	1.44
288.15	35000	0.2993	916.38	1.45
288.15	35000	0.3497	930.49	1.46
288.15	35000	0.401	944.76	1.46
288.15	35000	0.4509	958.51	1.47
288.15	35000	0.5002	971.97	1.48
288.15	35000	0.5498	985.5	1.49
288.15	35000	0.5996	998.94	1.49
288.15	35000	0.6499	1012.45	1.51
288.15	35000	0.7006	1025.92	1.52
288.15	35000	0.7471	1038.16	1.53
288.15	35000	0.7989	1051.8	1.55
288.15	35000	0.8491	1065.02	1.56
288.15	35000	0.8993	1078.24	1.58
288.15	35000	0.9249	1084.88	1.59
288.15	35000	0.9489	1091.03	1.59
288.15	35000	0.9743	1097.53	1.6
288.15	40000	0.0273	840.76	1.43
288.15	40000	0.0506	847.68	1.43
288.15	40000	0.0755	855.09	1.43
288.15	40000	0.1007	862.4	1.43
288.15	40000	0.1495	876.61	1.44
288.15	40000	0.2003	891.27	1.44
288.15	40000	0.2529	906.24	1.45
288.15	40000	0.2993	919.36	1.45
288.15	40000	0.3497	933.52	1.46
288.15	40000	0.401	947.8	1.47
288.15	40000	0.4509	961.56	1.47
288.15	40000	0.5002	975.08	1.48
288.15	40000	0.5498	988.61	1.49
288.15	40000	0.5996	1002.11	1.5
288.15	40000	0.6499	1015.62	1.51
288.15	40000	0.7006	1029.15	1.52
288.15	40000	0.7471	1041.39	1.54
288.15	40000	0.7989	1055.05	1.55
288.15	40000	0.8491	1068.31	1.57
288.15	40000	0.8993	1081.55	1.58
288.15	40000	0.9249	1088.19	1.59
288.15	40000	0.9489	1094.34	1.6
288.15	40000	0.9743	1100.84	1.61
293.15	100	0.0273	811.13	1.37
293.15	100	0.0506	817.67	1.38
293.15	100	0.0755	824.75	1.38
293.15	100	0.1007	831.84	1.38
293.15	100	0.1495	845.58	1.39
293.15	100	0.2003	859.73	1.4
293.15	100	0.2529	874.29	1.41
293.15	100	0.2993	887.05	1.42
293.15	100	0.3497	900.71	1.43
293.15	100	0.401	914.47	1.44
293.15	100	0.4509	927.86	1.45
293.15	100	0.5002	940.97	1.45
293.15	100	0.5498	954.1	1.46
293.15	100	0.5996	967.18	1.47
293.15	100	0.6499	980.33	1.48
293.15	100	0.7006	993.49	1.49
293.15	100	0.7471	1005.43	1.5
293.15	100	0.7989	1018.72	1.51
293.15	100	0.8491	1031.57	1.52
293.15	100	0.8993	1044.49	1.53
293.15	100	0.9249	1051	1.54
293.15	100	0.9489	1057.07	1.54
293.15	100	0.9743	1063.49	1.55
293.15	5000	0.0273	814.85	1.38
293.15	5000	0.0506	821.44	1.38
293.15	5000	0.0755	828.52	1.39
293.15	5000	0.1007	835.66	1.39
293.15	5000	0.1495	849.45	1.4
293.15	5000	0.2003	863.66	1.41
293.15	5000	0.2529	878.27	1.42
293.15	5000	0.2993	891.08	1.42
293.15	5000	0.3497	904.78	1.43
293.15	5000	0.401	918.61	1.44
293.15	5000	0.4509	932.05	1.45
293.15	5000	0.5002	945.21	1.46
293.15	5000	0.5498	958.38	1.47
293.15	5000	0.5996	971.52	1.48
293.15	5000	0.6499	984.67	1.48
293.15	5000	0.7006	997.89	1.49
293.15	5000	0.7471	1009.83	1.5
293.15	5000	0.7989	1023.17	1.51
293.15	5000	0.8491	1036.07	1.53
293.15	5000	0.8993	1049.04	1.54
293.15	5000	0.9249	1055.55	1.54
293.15	5000	0.9489	1061.62	1.55
293.15	5000	0.9743	1068.04	1.56
293.15	10000	0.0273	818.47	1.38
293.15	10000	0.0506	825.06	1.39
293.15	10000	0.0755	832.19	1.39
293.15	10000	0.1007	839.38	1.4
293.15	10000	0.1495	853.18	1.4
293.15	10000	0.2003	867.43	1.41
293.15	10000	0.2529	882.09	1.42
293.15	10000	0.2993	894.95	1.43
293.15	10000	0.3497	908.71	1.44
293.15	10000	0.401	922.59	1.44
293.15	10000	0.4509	936.03	1.45
293.15	10000	0.5002	949.24	1.46
293.15	10000	0.5498	962.47	1.47
293.15	10000	0.5996	975.61	1.48
293.15	10000	0.6499	988.81	1.49
293.15	10000	0.7006	1002.08	1.5
293.15	10000	0.7471	1014.07	1.51
293.15	10000	0.7989	1027.41	1.52
293.15	10000	0.8491	1040.37	1.53
293.15	10000	0.8993	1053.34	1.54
293.15	10000	0.9249	1059.86	1.55
293.15	10000	0.9489	1065.93	1.56
293.15	10000	0.9743	1072.35	1.56
293.15	15000	0.0273	821.94	1.39
293.15	15000	0.0506	828.58	1.39
293.15	15000	0.0755	835.71	1.4
293.15	15000	0.1007	842.9	1.4
293.15	15000	0.1495	856.75	1.41
293.15	15000	0.2003	871.06	1.42
293.15	15000	0.2529	885.77	1.42
293.15	15000	0.2993	898.64	1.43
293.15	15000	0.3497	912.45	1.44
293.15	15000	0.401	926.38	1.45
293.15	15000	0.4509	939.87	1.46
293.15	15000	0.5002	953.09	1.46
293.15	15000	0.5498	966.32	1.47
293.15	15000	0.5996	979.51	1.48
293.15	15000	0.6499	992.77	1.49
293.15	15000	0.7006	1006.04	1.5
293.15	15000	0.7471	1018.08	1.51
293.15	15000	0.7989	1031.43	1.52
293.15	15000	0.8491	1044.44	1.54
293.15	15000	0.8993	1057.42	1.55
293.15	15000	0.9249	1063.94	1.55
293.15	15000	0.9489	1070.01	1.56
293.15	15000	0.9743	1076.43	1.57
293.15	20000	0.0273	825.23	1.4
293.15	20000	0.0506	831.87	1.4
293.15	20000	0.0755	839.06	1.4
293.15	20000	0.1007	846.25	1.41
293.15	20000	0.1495	860.16	1.41
293.15	20000	0.2003	874.53	1.42
293.15	20000	0.2529	889.3	1.43
293.15	20000	0.2993	902.18	1.44
293.15	20000	0.3497	916.05	1.44
293.15	20000	0.401	930.03	1.45
293.15	20000	0.4509	943.59	1.46
293.15	20000	0.5002	956.87	1.47
293.15	20000	0.5498	970.1	1.48
293.15	20000	0.5996	983.36	1.48
293.15	20000	0.6499	996.62	1.49
293.15	20000	0.7006	1009.95	1.5
293.15	20000	0.7471	1022.06	1.51
293.15	20000	0.7989	1035.41	1.53
293.15	20000	0.8491	1048.43	1.54
293.15	20000	0.8993	1061.47	1.55
293.15	20000	0.9249	1067.99	1.56
293.15	20000	0.9489	1074.07	1.57
293.15	20000	0.9743	1080.5	1.57
293.15	25000	0.0273	828.56	1.4
293.15	25000	0.0506	835.25	1.41
293.15	25000	0.0755	842.44	1.41
293.15	25000	0.1007	849.69	1.41
293.15	25000	0.1495	863.6	1.42
293.15	25000	0.2003	878.01	1.43
293.15	25000	0.2529	892.84	1.43
293.15	25000	0.2993	905.76	1.44
293.15	25000	0.3497	919.68	1.45
293.15	25000	0.401	933.72	1.46
293.15	25000	0.4509	947.28	1.46
293.15	25000	0.5002	960.6	1.47
293.15	25000	0.5498	973.84	1.48
293.15	25000	0.5996	987.15	1.49
293.15	25000	0.6499	1000.46	1.49
293.15	25000	0.7006	1013.8	1.51
293.15	25000	0.7471	1025.95	1.52
293.15	25000	0.7989	1039.31	1.53
293.15	25000	0.8491	1052.38	1.55
293.15	25000	0.8993	1065.42	1.56
293.15	25000	0.9249	1071.94	1.57
293.15	25000	0.9489	1078.02	1.57
293.15	25000	0.9743	1084.5	1.58
293.15	30000	0.0273	831.57	1.41
293.15	30000	0.0506	838.27	1.41
293.15	30000	0.0755	845.52	1.42
293.15	30000	0.1007	852.76	1.42
293.15	30000	0.1495	866.73	1.42
293.15	30000	0.2003	881.2	1.43
293.15	30000	0.2529	896.04	1.44
293.15	30000	0.2993	909.02	1.44
293.15	30000	0.3497	923	1.45
293.15	30000	0.401	937.09	1.46
293.15	30000	0.4509	950.71	1.47
293.15	30000	0.5002	964.04	1.47
293.15	30000	0.5498	977.34	1.48
293.15	30000	0.5996	990.65	1.49
293.15	30000	0.6499	1004.03	1.5
293.15	30000	0.7006	1017.37	1.51
293.15	30000	0.7471	1029.53	1.52
293.15	30000	0.7989	1042.94	1.54
293.15	30000	0.8491	1056.08	1.55
293.15	30000	0.8993	1069.12	1.57
293.15	30000	0.9249	1075.65	1.57
293.15	30000	0.9489	1081.73	1.58
293.15	30000	0.9743	1088.21	1.59
293.15	35000	0.0273	834.42	1.42
293.15	35000	0.0506	841.13	1.42
293.15	35000	0.0755	848.42	1.42
293.15	35000	0.1007	855.68	1.43
293.15	35000	0.1495	869.7	1.43
293.15	35000	0.2003	884.18	1.44
293.15	35000	0.2529	899.12	1.44
293.15	35000	0.2993	912.16	1.45
293.15	35000	0.3497	926.2	1.45
293.15	35000	0.401	940.3	1.46
293.15	35000	0.4509	953.97	1.47
293.15	35000	0.5002	967.36	1.48
293.15	35000	0.5498	980.72	1.48
293.15	35000	0.5996	994.04	1.49
293.15	35000	0.6499	1007.42	1.5
293.15	35000	0.7006	1020.81	1.51
293.15	35000	0.7471	1032.98	1.53
293.15	35000	0.7989	1046.46	1.54
293.15	35000	0.8491	1059.59	1.56
293.15	35000	0.8993	1072.65	1.57
293.15	35000	0.9249	1079.23	1.58
293.15	35000	0.9489	1085.31	1.59
293.15	35000	0.9743	1091.8	1.6
293.15	40000	0.0273	837.07	1.43
293.15	40000	0.0506	843.83	1.43
293.15	40000	0.0755	851.14	1.43
293.15	40000	0.1007	858.39	1.43
293.15	40000	0.1495	872.48	1.44
293.15	40000	0.2003	887.03	1.44
293.15	40000	0.2529	902.04	1.45
293.15	40000	0.2993	915.09	1.45
293.15	40000	0.3497	929.19	1.46
293.15	40000	0.401	943.36	1.46
293.15	40000	0.4509	957.05	1.47
293.15	40000	0.5002	970.51	1.48
293.15	40000	0.5498	983.88	1.48
293.15	40000	0.5996	997.26	1.49
293.15	40000	0.6499	1010.66	1.5
293.15	40000	0.7006	1024.12	1.52
293.15	40000	0.7471	1036.36	1.53
293.15	40000	0.7989	1049.84	1.55
293.15	40000	0.8491	1063.05	1.56
293.15	40000	0.8993	1076.12	1.58
293.15	40000	0.9249	1082.7	1.59
293.15	40000	0.9489	1088.8	1.6
293.15	40000	0.9743	1095.29	1.61
298.15	100	0.0273	807.06	1.37
298.15	100	0.0506	813.55	1.37
298.15	100	0.0755	820.52	1.38
298.15	100	0.1007	827.5	1.38
298.15	100	0.1495	841.12	1.39
298.15	100	0.2003	855.15	1.4
298.15	100	0.2529	869.54	1.41
298.15	100	0.2993	882.18	1.42
298.15	100	0.3497	895.71	1.42
298.15	100	0.401	909.36	1.43
298.15	100	0.4509	922.58	1.44
298.15	100	0.5002	935.57	1.45
298.15	100	0.5498	948.57	1.46
298.15	100	0.5996	961.54	1.47
298.15	100	0.6499	974.52	1.48
298.15	100	0.7006	987.56	1.49
298.15	100	0.7471	999.38	1.5
298.15	100	0.7989	1012.54	1.51
298.15	100	0.8491	1025.27	1.52
298.15	100	0.8993	1038.07	1.53
298.15	100	0.9249	1044.52	1.53
298.15	100	0.9489	1050.53	1.54
298.15	100	0.9743	1056.89	1.55
298.15	5000	0.0273	810.99	1.38
298.15	5000	0.0506	817.52	1.38
298.15	5000	0.0755	824.54	1.38
298.15	5000	0.1007	831.52	1.39
298.15	5000	0.1495	845.19	1.4
298.15	5000	0.2003	859.27	1.4
298.15	5000	0.2529	873.66	1.41
298.15	5000	0.2993	886.34	1.42
298.15	5000	0.3497	899.93	1.43
298.15	5000	0.401	913.63	1.44
298.15	5000	0.4509	926.89	1.45
298.15	5000	0.5002	939.93	1.45
298.15	5000	0.5498	952.93	1.46
298.15	5000	0.5996	965.95	1.47
298.15	5000	0.6499	978.92	1.48
298.15	5000	0.7006	992.01	1.49
298.15	5000	0.7471	1003.88	1.5
298.15	5000	0.7989	1017.09	1.51
298.15	5000	0.8491	1029.83	1.52
298.15	5000	0.8993	1042.62	1.53
298.15	5000	0.9249	1049.07	1.54
298.15	5000	0.9489	1055.08	1.54
298.15	5000	0.9743	1061.44	1.55
298.15	10000	0.0273	814.7	1.38
298.15	10000	0.0506	821.28	1.39
298.15	10000	0.0755	828.31	1.39
298.15	10000	0.1007	835.34	1.39
298.15	10000	0.1495	849.06	1.4
298.15	10000	0.2003	863.19	1.41
298.15	10000	0.2529	877.64	1.42
298.15	10000	0.2993	890.38	1.43
298.15	10000	0.3497	904.02	1.43
298.15	10000	0.401	917.77	1.44
298.15	10000	0.4509	931.09	1.45
298.15	10000	0.5002	944.14	1.46
298.15	10000	0.5498	957.19	1.47
298.15	10000	0.5996	970.21	1.48
298.15	10000	0.6499	983.24	1.48
298.15	10000	0.7006	996.39	1.49
298.15	10000	0.7471	1008.26	1.5
298.15	10000	0.7989	1021.53	1.51
298.15	10000	0.8491	1034.32	1.53
298.15	10000	0.8993	1047.12	1.54
298.15	10000	0.9249	1053.57	1.54
298.15	10000	0.9489	1059.58	1.55
298.15	10000	0.9743	1065.95	1.56
298.15	15000	0.0273	818.11	1.39
298.15	15000	0.0506	824.74	1.39
298.15	15000	0.0755	831.81	1.4
298.15	15000	0.1007	838.84	1.4
298.15	15000	0.1495	852.61	1.41
298.15	15000	0.2003	866.8	1.41
298.15	15000	0.2529	881.29	1.42
298.15	15000	0.2993	894.08	1.43
298.15	15000	0.3497	907.77	1.44
298.15	15000	0.401	921.57	1.45
298.15	15000	0.4509	934.95	1.45
298.15	15000	0.5002	948.04	1.46
298.15	15000	0.5498	961.1	1.47
298.15	15000	0.5996	974.17	1.48
298.15	15000	0.6499	987.25	1.49
298.15	15000	0.7006	1000.44	1.5
298.15	15000	0.7471	1012.37	1.51
298.15	15000	0.7989	1025.64	1.52
298.15	15000	0.8491	1038.48	1.53
298.15	15000	0.8993	1051.28	1.54
298.15	15000	0.9249	1057.78	1.55
298.15	15000	0.9489	1063.79	1.56
298.15	15000	0.9743	1070.16	1.56
298.15	20000	0.0273	821.44	1.4
298.15	20000	0.0506	828.12	1.4
298.15	20000	0.0755	835.25	1.4
298.15	20000	0.1007	842.29	1.41
298.15	20000	0.1495	856.13	1.41
298.15	20000	0.2003	870.37	1.42
298.15	20000	0.2529	884.88	1.43
298.15	20000	0.2993	897.73	1.43
298.15	20000	0.3497	911.48	1.44
298.15	20000	0.401	925.35	1.45
298.15	20000	0.4509	938.74	1.46
298.15	20000	0.5002	951.89	1.46
298.15	20000	0.5498	965.01	1.47
298.15	20000	0.5996	978.09	1.48
298.15	20000	0.6499	991.19	1.49
298.15	20000	0.7006	1004.45	1.5
298.15	20000	0.7471	1016.43	1.51
298.15	20000	0.7989	1029.72	1.52
298.15	20000	0.8491	1042.57	1.53
298.15	20000	0.8993	1055.43	1.55
298.15	20000	0.9249	1061.94	1.56
298.15	20000	0.9489	1067.96	1.56
298.15	20000	0.9743	1074.33	1.57
298.15	25000	0.0273	824.63	1.4
298.15	25000	0.0506	831.37	1.41
298.15	25000	0.0755	838.51	1.41
298.15	25000	0.1007	845.6	1.41
298.15	25000	0.1495	859.5	1.42
298.15	25000	0.2003	873.75	1.42
298.15	25000	0.2529	888.37	1.43
298.15	25000	0.2993	901.23	1.44
298.15	25000	0.3497	915.04	1.45
298.15	25000	0.401	928.97	1.45
298.15	25000	0.4509	942.42	1.46
298.15	25000	0.5002	955.58	1.47
298.15	25000	0.5498	968.71	1.48
298.15	25000	0.5996	981.85	1.48
298.15	25000	0.6499	995.01	1.49
298.15	25000	0.7006	1008.28	1.5
298.15	25000	0.7471	1020.32	1.51
298.15	25000	0.7989	1033.62	1.53
298.15	25000	0.8491	1046.53	1.54
298.15	25000	0.8993	1059.4	1.55
298.15	25000	0.9249	1065.92	1.56
298.15	25000	0.9489	1071.94	1.57
298.15	25000	0.9743	1078.36	1.58
298.15	30000	0.0273	827.8	1.41
298.15	30000	0.0506	834.55	1.41
298.15	30000	0.0755	841.73	1.42
298.15	30000	0.1007	848.88	1.42
298.15	30000	0.1495	862.83	1.42
298.15	30000	0.2003	877.1	1.43
298.15	30000	0.2529	891.77	1.44
298.15	30000	0.2993	904.69	1.44
298.15	30000	0.3497	918.51	1.45
298.15	30000	0.401	932.5	1.46
298.15	30000	0.4509	946	1.46
298.15	30000	0.5002	959.23	1.47
298.15	30000	0.5498	972.41	1.48
298.15	30000	0.5996	985.57	1.49
298.15	30000	0.6499	998.78	1.49
298.15	30000	0.7006	1012.06	1.51
298.15	30000	0.7471	1024.11	1.52
298.15	30000	0.7989	1037.46	1.53
298.15	30000	0.8491	1050.43	1.54
298.15	30000	0.8993	1063.31	1.56
298.15	30000	0.9249	1069.84	1.57
298.15	30000	0.9489	1075.86	1.57
298.15	30000	0.9743	1082.29	1.58
298.15	35000	0.0273	830.69	1.42
298.15	35000	0.0506	837.44	1.42
298.15	35000	0.0755	844.68	1.42
298.15	35000	0.1007	851.87	1.42
298.15	35000	0.1495	865.84	1.43
298.15	35000	0.2003	880.17	1.43
298.15	35000	0.2529	894.9	1.44
298.15	35000	0.2993	907.88	1.45
298.15	35000	0.3497	921.76	1.45
298.15	35000	0.401	935.75	1.46
298.15	35000	0.4509	949.32	1.47
298.15	35000	0.5002	962.55	1.47
298.15	35000	0.5498	975.8	1.48
298.15	35000	0.5996	988.96	1.49
298.15	35000	0.6499	1002.23	1.5
298.15	35000	0.7006	1015.57	1.51
298.15	35000	0.7471	1027.63	1.52
298.15	35000	0.7989	1041.04	1.54
298.15	35000	0.8491	1054.02	1.55
298.15	35000	0.8993	1066.92	1.57
298.15	35000	0.9249	1073.44	1.57
298.15	35000	0.9489	1079.52	1.58
298.15	35000	0.9743	1085.95	1.59
298.15	40000	0.0273	833.7	1.43
298.15	40000	0.0506	840.46	1.43
298.15	40000	0.0755	847.74	1.43
298.15	40000	0.1007	854.94	1.43
298.15	40000	0.1495	868.95	1.43
298.15	40000	0.2003	883.35	1.44
298.15	40000	0.2529	898.11	1.44
298.15	40000	0.2993	911.12	1.45
298.15	40000	0.3497	925.01	1.46
298.15	40000	0.401	939.03	1.46
298.15	40000	0.4509	952.62	1.47
298.15	40000	0.5002	965.93	1.48
298.15	40000	0.5498	979.21	1.48
298.15	40000	0.5996	992.41	1.49
298.15	40000	0.6499	1005.7	1.5
298.15	40000	0.7006	1019.07	1.51
298.15	40000	0.7471	1031.19	1.53
298.15	40000	0.7989	1044.59	1.54
298.15	40000	0.8491	1057.6	1.56
298.15	40000	0.8993	1070.52	1.57
298.15	40000	0.9249	1077.05	1.58
298.15	40000	0.9489	1083.13	1.59
298.15	40000	0.9743	1089.6	1.6
303.15	100	0.0273	802.96	1.37
303.15	100	0.0506	809.34	1.37
303.15	100	0.0755	816.25	1.38
303.15	100	0.1007	823.16	1.38
303.15	100	0.1495	836.62	1.39
303.15	100	0.2003	850.48	1.4
303.15	100	0.2529	864.74	1.41
303.15	100	0.2993	877.26	1.41
303.15	100	0.3497	890.62	1.42
303.15	100	0.401	904.1	1.43
303.15	100	0.4509	917.2	1.44
303.15	100	0.5002	930.06	1.45
303.15	100	0.5498	942.89	1.46
303.15	100	0.5996	955.69	1.46
303.15	100	0.6499	968.54	1.47
303.15	100	0.7006	981.46	1.48
303.15	100	0.7471	993.16	1.49
303.15	100	0.7989	1006.2	1.5
303.15	100	0.8491	1018.81	1.51
303.15	100	0.8993	1031.43	1.52
303.15	100	0.9249	1037.82	1.53
303.15	100	0.9489	1043.76	1.53
303.15	100	0.9743	1050.11	1.54
303.15	5000	0.0273	806.96	1.37
303.15	5000	0.0506	813.38	1.38
303.15	5000	0.0755	820.3	1.38
303.15	5000	0.1007	827.26	1.39
303.15	5000	0.1495	840.77	1.39
303.15	5000	0.2003	854.68	1.4
303.15	5000	0.2529	869	1.41
303.15	5000	0.2993	881.57	1.42
303.15	5000	0.3497	894.99	1.43
303.15	5000	0.401	908.57	1.43
303.15	5000	0.4509	921.72	1.44
303.15	5000	0.5002	934.59	1.45
303.15	5000	0.5498	947.47	1.46
303.15	5000	0.5996	960.32	1.47
303.15	5000	0.6499	973.22	1.48
303.15	5000	0.7006	986.15	1.49
303.15	5000	0.7471	997.9	1.49
303.15	5000	0.7989	1010.99	1.51
303.15	5000	0.8491	1023.65	1.52
303.15	5000	0.8993	1036.28	1.53
303.15	5000	0.9249	1042.67	1.53
303.15	5000	0.9489	1048.62	1.54
303.15	5000	0.9743	1054.97	1.55
303.15	10000	0.0273	810.58	1.38
303.15	10000	0.0506	817.06	1.38
303.15	10000	0.0755	824.02	1.39
303.15	10000	0.1007	831	1.39
303.15	10000	0.1495	844.56	1.4
303.15	10000	0.2003	858.53	1.41
303.15	10000	0.2529	872.91	1.41
303.15	10000	0.2993	885.49	1.42
303.15	10000	0.3497	899.01	1.43
303.15	10000	0.401	912.65	1.44
303.15	10000	0.4509	925.81	1.45
303.15	10000	0.5002	938.74	1.46
303.15	10000	0.5498	951.68	1.46
303.15	10000	0.5996	964.59	1.47
303.15	10000	0.6499	977.56	1.48
303.15	10000	0.7006	990.49	1.49
303.15	10000	0.7471	1002.3	1.5
303.15	10000	0.7989	1015.45	1.51
303.15	10000	0.8491	1028.12	1.52
303.15	10000	0.8993	1040.81	1.53
303.15	10000	0.9249	1047.21	1.54
303.15	10000	0.9489	1053.16	1.54
303.15	10000	0.9743	1059.51	1.55
303.15	15000	0.0273	814.19	1.39
303.15	15000	0.0506	820.71	1.39
303.15	15000	0.0755	827.68	1.39
303.15	15000	0.1007	834.7	1.4
303.15	15000	0.1495	848.32	1.4
303.15	15000	0.2003	862.39	1.41
303.15	15000	0.2529	876.81	1.42
303.15	15000	0.2993	889.45	1.43
303.15	15000	0.3497	903.02	1.43
303.15	15000	0.401	916.71	1.44
303.15	15000	0.4509	929.92	1.45
303.15	15000	0.5002	942.9	1.46
303.15	15000	0.5498	955.89	1.47
303.15	15000	0.5996	968.8	1.48
303.15	15000	0.6499	981.82	1.48
303.15	15000	0.7006	994.8	1.49
303.15	15000	0.7471	1006.66	1.5
303.15	15000	0.7989	1019.82	1.51
303.15	15000	0.8491	1032.54	1.53
303.15	15000	0.8993	1045.23	1.54
303.15	15000	0.9249	1051.62	1.54
303.15	15000	0.9489	1057.63	1.55
303.15	15000	0.9743	1063.98	1.56
303.15	20000	0.0273	817.69	1.39
303.15	20000	0.0506	824.27	1.4
303.15	20000	0.0755	831.25	1.4
303.15	20000	0.1007	838.32	1.4
303.15	20000	0.1495	851.95	1.41
303.15	20000	0.2003	866.08	1.42
303.15	20000	0.2529	880.56	1.42
303.15	20000	0.2993	893.25	1.43
303.15	20000	0.3497	906.89	1.44
303.15	20000	0.401	920.64	1.45
303.15	20000	0.4509	933.91	1.45
303.15	20000	0.5002	946.9	1.46
303.15	20000	0.5498	959.95	1.47
303.15	20000	0.5996	972.92	1.48
303.15	20000	0.6499	985.95	1.49
303.15	20000	0.7006	998.94	1.49
303.15	20000	0.7471	1010.86	1.5
303.15	20000	0.7989	1024.03	1.52
303.15	20000	0.8491	1036.81	1.53
303.15	20000	0.8993	1049.51	1.54
303.15	20000	0.9249	1055.91	1.55
303.15	20000	0.9489	1061.92	1.56
303.15	20000	0.9743	1068.28	1.56
303.15	25000	0.0273	821.09	1.4
303.15	25000	0.0506	827.72	1.4
303.15	25000	0.0755	834.74	1.41
303.15	25000	0.1007	841.82	1.41
303.15	25000	0.1495	855.5	1.42
303.15	25000	0.2003	869.69	1.42
303.15	25000	0.2529	884.23	1.43
303.15	25000	0.2993	896.97	1.44
303.15	25000	0.3497	910.67	1.44
303.15	25000	0.401	924.47	1.45
303.15	25000	0.4509	937.75	1.46
303.15	25000	0.5002	950.79	1.47
303.15	25000	0.5498	963.85	1.47
303.15	25000	0.5996	976.87	1.48
303.15	25000	0.6499	989.96	1.49
303.15	25000	0.7006	1003.01	1.5
303.15	25000	0.7471	1014.93	1.51
303.15	25000	0.7989	1028.15	1.52
303.15	25000	0.8491	1040.99	1.53
303.15	25000	0.8993	1053.69	1.55
303.15	25000	0.9249	1060.1	1.56
303.15	25000	0.9489	1066.11	1.56
303.15	25000	0.9743	1072.47	1.57
303.15	30000	0.0273	824.3	1.41
303.15	30000	0.0506	830.93	1.41
303.15	30000	0.0755	838.05	1.41
303.15	30000	0.1007	845.13	1.42
303.15	30000	0.1495	858.87	1.42
303.15	30000	0.2003	873.1	1.43
303.15	30000	0.2529	887.7	1.43
303.15	30000	0.2993	900.44	1.44
303.15	30000	0.3497	914.19	1.45
303.15	30000	0.401	928.04	1.45
303.15	30000	0.4509	941.37	1.46
303.15	30000	0.5002	954.47	1.47
303.15	30000	0.5498	967.53	1.48
303.15	30000	0.5996	980.61	1.48
303.15	30000	0.6499	993.75	1.49
303.15	30000	0.7006	1006.8	1.5
303.15	30000	0.7471	1018.72	1.51
303.15	30000	0.7989	1032	1.53
303.15	30000	0.8491	1044.84	1.54
303.15	30000	0.8993	1057.6	1.55
303.15	30000	0.9249	1064.01	1.56
303.15	30000	0.9489	1070.02	1.57
303.15	30000	0.9743	1076.38	1.58
303.15	35000	0.0273	827.45	1.42
303.15	35000	0.0506	834.14	1.42
303.15	35000	0.0755	841.27	1.42
303.15	35000	0.1007	848.4	1.42
303.15	35000	0.1495	862.14	1.43
303.15	35000	0.2003	876.43	1.43
303.15	35000	0.2529	891.09	1.44
303.15	35000	0.2993	903.84	1.44
303.15	35000	0.3497	917.64	1.45
303.15	35000	0.401	931.51	1.46
303.15	35000	0.4509	944.84	1.46
303.15	35000	0.5002	958	1.47
303.15	35000	0.5498	971.12	1.48
303.15	35000	0.5996	984.2	1.49
303.15	35000	0.6499	997.34	1.49
303.15	35000	0.7006	1010.45	1.5
303.15	35000	0.7471	1022.39	1.52
303.15	35000	0.7989	1035.67	1.53
303.15	35000	0.8491	1048.52	1.54
303.15	35000	0.8993	1061.28	1.56
303.15	35000	0.9249	1067.75	1.57
303.15	35000	0.9489	1073.76	1.58
303.15	35000	0.9743	1080.13	1.58
303.15	40000	0.0273	830.37	1.42
303.15	40000	0.0506	837.11	1.43
303.15	40000	0.0755	844.3	1.43
303.15	40000	0.1007	851.44	1.43
303.15	40000	0.1495	865.25	1.43
303.15	40000	0.2003	879.56	1.44
303.15	40000	0.2529	894.28	1.44
303.15	40000	0.2993	907.1	1.45
303.15	40000	0.3497	920.92	1.45
303.15	40000	0.401	934.85	1.46
303.15	40000	0.4509	948.26	1.47
303.15	40000	0.5002	961.43	1.47
303.15	40000	0.5498	974.61	1.48
303.15	40000	0.5996	987.76	1.49
303.15	40000	0.6499	1000.93	1.5
303.15	40000	0.7006	1014.1	1.51
303.15	40000	0.7471	1026.05	1.52
303.15	40000	0.7989	1039.35	1.53
303.15	40000	0.8491	1052.22	1.55
303.15	40000	0.8993	1065.05	1.57
303.15	40000	0.9249	1071.52	1.57
303.15	40000	0.9489	1077.54	1.58
303.15	40000	0.9743	1083.97	1.59
308.15	100	0.0273	798.56	1.37
308.15	100	0.0506	804.88	1.37
308.15	100	0.0755	811.69	1.37
308.15	100	0.1007	818.55	1.38
308.15	100	0.1495	831.9	1.39
308.15	100	0.2003	845.6	1.39
308.15	100	0.2529	859.71	1.4
308.15	100	0.2993	872.12	1.41
308.15	100	0.3497	885.38	1.42
308.15	100	0.401	898.75	1.43
308.15	100	0.4509	911.74	1.44
308.15	100	0.5002	924.45	1.44
308.15	100	0.5498	937.17	1.45
308.15	100	0.5996	949.8	1.46
308.15	100	0.6499	962.55	1.47
308.15	100	0.7006	975.36	1.48
308.15	100	0.7471	986.95	1.49
308.15	100	0.7989	999.88	1.5
308.15	100	0.8491	1012.38	1.51
308.15	100	0.8993	1024.9	1.52
308.15	100	0.9249	1031.23	1.52
308.15	100	0.9489	1037.12	1.53
308.15	100	0.9743	1043.46	1.53
308.15	5000	0.0273	802.69	1.37
308.15	5000	0.0506	809.05	1.38
308.15	5000	0.0755	815.86	1.38
308.15	5000	0.1007	822.77	1.38
308.15	5000	0.1495	836.17	1.39
308.15	5000	0.2003	849.97	1.4
308.15	5000	0.2529	864.12	1.41
308.15	5000	0.2993	876.53	1.41
308.15	5000	0.3497	889.84	1.42
308.15	5000	0.401	903.3	1.43
308.15	5000	0.4509	916.34	1.44
308.15	5000	0.5002	929.1	1.45
308.15	5000	0.5498	941.82	1.46
308.15	5000	0.5996	954.5	1.47
308.15	5000	0.6499	967.29	1.47
308.15	5000	0.7006	980.15	1.48
308.15	5000	0.7471	991.79	1.49
308.15	5000	0.7989	1004.72	1.5
308.15	5000	0.8491	1017.27	1.51
308.15	5000	0.8993	1029.78	1.52
308.15	5000	0.9249	1036.11	1.53
308.15	5000	0.9489	1042.05	1.53
308.15	5000	0.9743	1048.4	1.54
308.15	10000	0.0273	806.56	1.38
308.15	10000	0.0506	812.98	1.38
308.15	10000	0.0755	819.84	1.39
308.15	10000	0.1007	826.76	1.39
308.15	10000	0.1495	840.21	1.4
308.15	10000	0.2003	854.07	1.4
308.15	10000	0.2529	868.28	1.41
308.15	10000	0.2993	880.75	1.42
308.15	10000	0.3497	894.11	1.43
308.15	10000	0.401	907.64	1.44
308.15	10000	0.4509	920.73	1.44
308.15	10000	0.5002	933.55	1.45
308.15	10000	0.5498	946.33	1.46
308.15	10000	0.5996	959.02	1.47
308.15	10000	0.6499	971.88	1.48
308.15	10000	0.7006	984.79	1.49
308.15	10000	0.7471	996.49	1.49
308.15	10000	0.7989	1009.48	1.5
308.15	10000	0.8491	1022.04	1.52
308.15	10000	0.8993	1034.61	1.53
308.15	10000	0.9249	1040.95	1.53
308.15	10000	0.9489	1046.89	1.54
308.15	10000	0.9743	1053.24	1.55
308.15	15000	0.0273	810.18	1.39
308.15	15000	0.0506	816.65	1.39
308.15	15000	0.0755	823.57	1.39
308.15	15000	0.1007	830.48	1.4
308.15	15000	0.1495	844.04	1.4
308.15	15000	0.2003	857.95	1.41
308.15	15000	0.2529	872.21	1.42
308.15	15000	0.2993	884.73	1.42
308.15	15000	0.3497	898.2	1.43
308.15	15000	0.401	911.77	1.44
308.15	15000	0.4509	924.87	1.45
308.15	15000	0.5002	937.74	1.46
308.15	15000	0.5498	950.57	1.46
308.15	15000	0.5996	963.36	1.47
308.15	15000	0.6499	976.22	1.48
308.15	15000	0.7006	989.19	1.49
308.15	15000	0.7471	1000.94	1.5
308.15	15000	0.7989	1013.98	1.51
308.15	15000	0.8491	1026.54	1.52
308.15	15000	0.8993	1039.16	1.53
308.15	15000	0.9249	1045.55	1.54
308.15	15000	0.9489	1051.5	1.54
308.15	15000	0.9743	1057.85	1.55
308.15	20000	0.0273	813.81	1.39
308.15	20000	0.0506	820.28	1.4
308.15	20000	0.0755	827.25	1.4
308.15	20000	0.1007	834.21	1.4
308.15	20000	0.1495	847.82	1.41
308.15	20000	0.2003	861.78	1.42
308.15	20000	0.2529	876.1	1.42
308.15	20000	0.2993	888.67	1.43
308.15	20000	0.3497	902.19	1.44
308.15	20000	0.401	915.81	1.44
308.15	20000	0.4509	928.97	1.45
308.15	20000	0.5002	941.84	1.46
308.15	20000	0.5498	954.72	1.47
308.15	20000	0.5996	967.52	1.48
308.15	20000	0.6499	980.43	1.48
308.15	20000	0.7006	993.45	1.49
308.15	20000	0.7471	1005.2	1.5
308.15	20000	0.7989	1018.3	1.51
308.15	20000	0.8491	1030.91	1.52
308.15	20000	0.8993	1043.54	1.54
308.15	20000	0.9249	1049.98	1.54
308.15	20000	0.9489	1055.93	1.55
308.15	20000	0.9743	1062.28	1.56
308.15	25000	0.0273	817.21	1.4
308.15	25000	0.0506	823.74	1.4
308.15	25000	0.0755	830.71	1.41
308.15	25000	0.1007	837.72	1.41
308.15	25000	0.1495	851.38	1.41
308.15	25000	0.2003	865.4	1.42
308.15	25000	0.2529	879.78	1.43
308.15	25000	0.2993	892.4	1.43
308.15	25000	0.3497	905.97	1.44
308.15	25000	0.401	919.66	1.45
308.15	25000	0.4509	932.87	1.46
308.15	25000	0.5002	945.79	1.46
308.15	25000	0.5498	958.68	1.47
308.15	25000	0.5996	971.54	1.48
308.15	25000	0.6499	984.5	1.49
308.15	25000	0.7006	997.53	1.49
308.15	25000	0.7471	1009.34	1.5
308.15	25000	0.7989	1022.49	1.52
308.15	25000	0.8491	1035.16	1.53
308.15	25000	0.8993	1047.79	1.54
308.15	25000	0.9249	1054.24	1.55
308.15	25000	0.9489	1060.19	1.56
308.15	25000	0.9743	1066.54	1.56
308.15	30000	0.0273	820.58	1.41
308.15	30000	0.0506	827.15	1.41
308.15	30000	0.0755	834.12	1.41
308.15	30000	0.1007	841.19	1.42
308.15	30000	0.1495	854.86	1.42
308.15	30000	0.2003	868.98	1.43
308.15	30000	0.2529	883.42	1.43
308.15	30000	0.2993	896.05	1.44
308.15	30000	0.3497	909.68	1.44
308.15	30000	0.401	923.42	1.45
308.15	30000	0.4509	936.64	1.46
308.15	30000	0.5002	949.62	1.47
308.15	30000	0.5498	962.57	1.47
308.15	30000	0.5996	975.48	1.48
308.15	30000	0.6499	988.45	1.49
308.15	30000	0.7006	1001.49	1.5
308.15	30000	0.7471	1013.35	1.51
308.15	30000	0.7989	1026.51	1.52
308.15	30000	0.8491	1039.19	1.53
308.15	30000	0.8993	1051.88	1.55
308.15	30000	0.9249	1058.33	1.56
308.15	30000	0.9489	1064.28	1.56
308.15	30000	0.9743	1070.69	1.57
308.15	35000	0.0273	823.72	1.42
308.15	35000	0.0506	830.34	1.42
308.15	35000	0.0755	837.36	1.42
308.15	35000	0.1007	844.43	1.42
308.15	35000	0.1495	858.14	1.43
308.15	35000	0.2003	872.31	1.43
308.15	35000	0.2529	886.79	1.44
308.15	35000	0.2993	899.42	1.44
308.15	35000	0.3497	913.1	1.45
308.15	35000	0.401	926.84	1.46
308.15	35000	0.4509	940.1	1.46
308.15	35000	0.5002	953.13	1.47
308.15	35000	0.5498	966.12	1.48
308.15	35000	0.5996	979.03	1.48
308.15	35000	0.6499	992.05	1.49
308.15	35000	0.7006	1005.08	1.5
308.15	35000	0.7471	1016.99	1.51
308.15	35000	0.7989	1030.15	1.52
308.15	35000	0.8491	1042.88	1.54
308.15	35000	0.8993	1055.57	1.55
308.15	35000	0.9249	1062.01	1.56
308.15	35000	0.9489	1068.02	1.57
308.15	35000	0.9743	1074.37	1.58
308.15	40000	0.0273	826.71	1.42
308.15	40000	0.0506	833.34	1.43
308.15	40000	0.0755	840.41	1.43
308.15	40000	0.1007	847.53	1.43
308.15	40000	0.1495	861.25	1.43
308.15	40000	0.2003	875.47	1.44
308.15	40000	0.2529	890	1.44
308.15	40000	0.2993	902.69	1.45
308.15	40000	0.3497	916.37	1.45
308.15	40000	0.401	930.17	1.46
308.15	40000	0.4509	943.48	1.46
308.15	40000	0.5002	956.52	1.47
308.15	40000	0.5498	969.52	1.48
308.15	40000	0.5996	982.49	1.48
308.15	40000	0.6499	995.51	1.49
308.15	40000	0.7006	1008.6	1.5
308.15	40000	0.7471	1020.52	1.51
308.15	40000	0.7989	1033.73	1.53
308.15	40000	0.8491	1046.46	1.54
308.15	40000	0.8993	1059.15	1.56
308.15	40000	0.9249	1065.61	1.57
308.15	40000	0.9489	1071.61	1.58
308.15	40000	0.9743	1078.02	1.58
288.15	100	1	1076.83	0.57
288.15	5000	1	1081.15	0.57
288.15	10000	1	1085.32	0.58
288.15	15000	1	1089.52	0.6
288.15	20000	1	1093.35	0.61
288.15	25000	1	1096.99	0.62
288.15	30000	1	1100.63	0.63
288.15	35000	1	1104.08	0.65
288.15	40000	1	1107.4	0.67
293.15	100	1	1070.06	0.56
293.15	5000	1	1074.62	0.57
293.15	10000	1	1078.93	0.58
293.15	15000	1	1083.01	0.59
293.15	20000	1	1087.08	0.6
293.15	25000	1	1091.03	0.61
293.15	30000	1	1094.75	0.63
293.15	35000	1	1098.34	0.64
293.15	40000	1	1101.84	0.66
298.15	100	1	1063.45	0.56
298.15	5000	1	1068	0.57
298.15	10000	1	1072.51	0.58
298.15	15000	1	1076.72	0.59
298.15	20000	1	1080.9	0.6
298.15	25000	1	1084.89	0.61
298.15	30000	1	1088.82	0.62
298.15	35000	1	1092.44	0.64
298.15	40000	1	1096.04	0.65
303.15	100	1	1056.61	0.56
303.15	5000	1	1061.47	0.57
303.15	10000	1	1066.02	0.57
303.15	15000	1	1070.49	0.58
303.15	20000	1	1074.79	0.59
303.15	25000	1	1078.99	0.6
303.15	30000	1	1082.9	0.61
303.15	35000	1	1086.6	0.63
303.15	40000	1	1090.4	0.64
308.15	100	1	1049.91	0.56
308.15	5000	1	1054.84	0.56
308.15	10000	1	1059.69	0.57
308.15	15000	1	1064.3	0.58
308.15	20000	1	1068.73	0.59
308.15	25000	1	1073	0.6
308.15	30000	1	1077.1	0.61
308.15	35000	1	1080.78	0.62
308.15	40000	1	1084.38	0.63
288.15	100	0	807.62	0.52
288.15	5000	0	811.32	0.52
288.15	10000	0	814.7	0.53
288.15	15000	0	817.95	0.55
288.15	20000	0	821.27	0.56
288.15	25000	0	824.24	0.57
288.15	30000	0	827.24	0.59
288.15	35000	0	830.04	0.6
288.15	40000	0	832.73	0.61
293.15	100	0	803.57	0.52
293.15	5000	0	807.24	0.53
293.15	10000	0	810.8	0.54
293.15	15000	0	814.22	0.55
293.15	20000	0	817.46	0.56
293.15	25000	0	820.74	0.57
293.15	30000	0	823.7	0.59
293.15	35000	0	826.5	0.6
293.15	40000	0	829.09	0.62
298.15	100	0	799.61	0.52
298.15	5000	0	803.49	0.53
298.15	10000	0	807.15	0.54
298.15	15000	0	810.5	0.55
298.15	20000	0	813.78	0.56
298.15	25000	0	816.92	0.58
298.15	30000	0	820.04	0.59
298.15	35000	0	822.87	0.61
298.15	40000	0	825.81	0.62
303.15	100	0	795.62	0.52
303.15	5000	0	799.57	0.53
303.15	10000	0	803.13	0.54
303.15	15000	0	806.69	0.55
303.15	20000	0	810.14	0.56
303.15	25000	0	813.48	0.58
303.15	30000	0	816.64	0.59
303.15	35000	0	819.75	0.61
303.15	40000	0	822.6	0.62
308.15	100	0	791.31	0.52
308.15	5000	0	795.4	0.53
308.15	10000	0	799.21	0.54
308.15	15000	0	802.79	0.55
308.15	20000	0	806.37	0.57
308.15	25000	0	809.72	0.58
308.15	30000	0	813.03	0.6
308.15	35000	0	816.12	0.61
308.15	40000	0	819.06	0.63
