Measured thermophysical data. Experimental study of the density and viscosity of polyethylene glycols and their mixtures at temperatures from 293 K to 473 K and at atmospheric pressure
Source: J. Chem. Thermodyn., 2011, 10.1016/j.jct.2011.06.013
Compound 1: 1,2-ethanediol, C2H6O2, InChI=1S/C2H6O2/c3-1-2-4/h3-4H,1-2H2, purity 99.7%
Compound 2: diethylene glycol, C4H10O3, InChI=1S/C4H10O3/c5-1-3-7-4-2-6/h5-6H,1-4H2, purity 99.5%
Compound 3: triethylene glycol, C6H14O4, InChI=1S/C6H14O4/c7-1-3-9-5-6-10-4-2-8/h7-8H,1-6H2, purity 98.5%

System: 1,2-ethanediol; phases: Liquid
Fixed: Pressure, kPa = 101.325
Property: Viscosity, Pa*s (Liquid); method: Falling or rolling sphere viscometry
Temperature, K	Viscosity, Pa*s	uncertainty
293.15	0.0211	0.00086
312.46	0.009925	0.000404
334.87	0.004949	0.000201
349.24	0.003517	0.000143
365.7	0.00239	9.7e-05
380.82	0.001815	7.4e-05
395.55	0.001419	5.8e-05
421.7	0.00096	3.9e-05
464.4	0.000652	2.7e-05

System: 1,2-ethanediol; phases: Liquid
Fixed: Pressure, kPa = 101.325
Property: Mass density, kg/m3 (Liquid); method: Buoyancy - hydrostatic balance
Temperature, K	Mass density, kg/m3	uncertainty
293.15	1113.58	6.68
312.46	1100.88	6.61
334.87	1085.13	6.51
349.24	1074.46	6.45
365.7	1061.7	6.37
380.82	1049.47	6.3
395.55	1037.07	6.22
421.7	1013.93	6.08
464.4	972.98	5.84

System: 1,2-ethanediol; phases: Liquid
Fixed: Pressure, kPa = 101.325
Property: Mass density, kg/m3 (Liquid); method: Pycnometric method
Temperature, K	Mass density, kg/m3	uncertainty
293.15	1113.58	6.69
314.45	1099.52	6.6
333.25	1086.3	6.53
333.55	1086.09	6.53
352.85	1071.71	6.44
353.65	1071.1	6.44
357.05	1068.48	6.42
367.25	1060.47	6.38
381.45	1048.95	6.31
411.65	1023	6.16
433.75	1002.77	6.04
461.55	975.83	5.88

System: diethylene glycol; phases: Liquid
Fixed: Pressure, kPa = 101.325
Property: Viscosity, Pa*s (Liquid); method: Falling or rolling sphere viscometry
Temperature, K	Viscosity, Pa*s	uncertainty
293.15	0.03652	0.00149
298.15	0.02836	0.00115
312.6	0.01525	0.00062
329.28	0.008458	0.000344
344.99	0.00534	0.000217
349.77	0.004809	0.000196
366.77	0.003231	0.000132
413.65	0.001409	5.7e-05
464.05	0.000789	3.2e-05

System: diethylene glycol; phases: Liquid
Fixed: Pressure, kPa = 101.325
Property: Mass density, kg/m3 (Liquid); method: Buoyancy - hydrostatic balance
Temperature, K	Mass density, kg/m3	uncertainty
293.15	1117.04	6.7
298.15	1114.02	6.68
312.6	1104.9	6.63
329.28	1093.62	6.56
344.99	1082.27	6.49
349.77	1078.67	6.47
366.77	1065.35	6.39
413.65	1024.3	6.15
464.05	973.11	5.84

System: diethylene glycol; phases: Liquid
Fixed: Pressure, kPa = 101.325
Property: Mass density, kg/m3 (Liquid); method: Pycnometric method
Temperature, K	Mass density, kg/m3	uncertainty
293.15	1117.04	6.71
313.15	1104.54	6.64
314.15	1103.88	6.63
333.25	1090.82	6.56
334.85	1089.68	6.55
352.55	1076.55	6.47
352.85	1076.32	6.47
367.25	1064.96	6.4
381.65	1053.01	6.34
411.05	1026.74	6.18
434.45	1004.06	6.05

System: triethylene glycol; phases: Liquid
Fixed: Pressure, kPa = 101.325
Property: Viscosity, Pa*s (Liquid); method: Falling or rolling sphere viscometry
Temperature, K	Viscosity, Pa*s	uncertainty
298.15	0.03682	0.00152
312.96	0.01903	0.00079
334.96	0.009002	0.000372
349.25	0.005945	0.000246
364.44	0.004131	0.000171
413.73	0.001679	6.9e-05
462.25	0.000997	4.1e-05

System: triethylene glycol; phases: Liquid
Fixed: Pressure, kPa = 101.325
Property: Mass density, kg/m3 (Liquid); method: Buoyancy - hydrostatic balance
Temperature, K	Mass density, kg/m3	uncertainty
298.15	1119.75	6.74
312.96	1109.61	6.68
334.96	1093.69	6.58
349.25	1082.8	6.51
364.44	1070.74	6.44
413.73	1028.27	6.18
462.25	981.42	5.9

System: triethylene glycol; phases: Liquid
Fixed: Pressure, kPa = 101.325
Property: Mass density, kg/m3 (Liquid); method: Pycnometric method
Temperature, K	Mass density, kg/m3	uncertainty
293.15	1123.06	6.78
313.15	1109.47	6.7
314.15	1108.77	6.7
333.25	1094.96	6.62
334.85	1093.76	6.61
352.55	1080.21	6.54
352.85	1079.98	6.53
367.25	1068.46	6.47
381.45	1056.66	6.4
411.65	1030.16	6.25
433.75	1009.54	6.13
461.56	982.12	5.97
476.35	966.87	5.88

System: 1,2-ethanediol + diethylene glycol; phases: Liquid
Fixed: Pressure, kPa = 101
Fixed: Mole fraction of diethylene glycol = 0.5
Property: Viscosity, Pa*s (Liquid); method: Falling or rolling sphere viscometry
Temperature, K	Viscosity, Pa*s	uncertainty
298.15	0.02112	0.00086
322.34	0.008316	0.000338
353.83	0.003488	0.000142
392.87	0.001641	6.7e-05
436.08	0.000885	3.6e-05
462.75	0.000671	2.7e-05

System: 1,2-ethanediol + diethylene glycol; phases: Liquid
Fixed: Pressure, kPa = 101
Fixed: Mole fraction of 1,2-ethanediol = 0.5
Property: Mass density, kg/m3 (Liquid); method: Buoyancy - hydrostatic balance
Temperature, K	Mass density, kg/m3	uncertainty
298.15	1112.21	6.67
322.34	1097.38	6.58
353.83	1075.19	6.45
392.87	1043.14	6.26
436.08	1001.82	6.01
462.75	973.24	5.84

System: 1,2-ethanediol + diethylene glycol; phases: Liquid
Fixed: Pressure, kPa = 101
Fixed: Mole fraction of diethylene glycol = 0.5
Property: Mass density, kg/m3 (Liquid); method: Pycnometric method
Temperature, K	Mass density, kg/m3	uncertainty
298.15	1112.21	6.68
318.55	1099.83	6.61
333.45	1089.92	6.55
367.15	1064.82	6.4

System: 1,2-ethanediol + triethylene glycol; phases: Liquid
Fixed: Pressure, kPa = 101
Fixed: Mole fraction of triethylene glycol = 0.5
Property: Viscosity, Pa*s (Liquid); method: Falling or rolling sphere viscometry
Temperature, K	Viscosity, Pa*s	uncertainty
298.13	0.02624	0.00107
322.36	0.01013	0.00041
355.34	0.003999	0.000164
392.2	0.001946	8e-05
434.59	0.001058	4.3e-05
462.61	0.000705	2.9e-05

System: 1,2-ethanediol + triethylene glycol; phases: Liquid
Fixed: Pressure, kPa = 101
Fixed: Mole fraction of 1,2-ethanediol = 0.5
Property: Mass density, kg/m3 (Liquid); method: Buoyancy - hydrostatic balance
Temperature, K	Mass density, kg/m3	uncertainty
298.13	1115.1	6.69
322.36	1101.75	6.61
355.34	1079	6.48
392.2	1047.37	6.29
434.59	1002.88	6.02
462.61	968.72	5.81

System: 1,2-ethanediol + triethylene glycol; phases: Liquid
Property: Mass density, kg/m3 (Liquid); method: Pycnometric method
Temperature, K	Pressure, kPa	Mole fraction of triethylene glycol	Mass density, kg/m3	uncertainty
298.15	101	0.5	1115.45	6.71

System: diethylene glycol + triethylene glycol; phases: Liquid
Fixed: Pressure, kPa = 101
Fixed: Mole fraction of triethylene glycol = 0.5
Property: Viscosity, Pa*s (Liquid); method: Falling or rolling sphere viscometry
Temperature, K	Viscosity, Pa*s	uncertainty
298.15	0.0324	0.00133
322.43	0.01171	0.00048
355.15	0.004468	0.000183
391.02	0.002179	8.9e-05
432.13	0.001172	4.8e-05
473.1	0.000716	2.9e-05

System: diethylene glycol + triethylene glycol; phases: Liquid
Fixed: Pressure, kPa = 101
Fixed: Mole fraction of diethylene glycol = 0.5
Property: Mass density, kg/m3 (Liquid); method: Buoyancy - hydrostatic balance
Temperature, K	Mass density, kg/m3	uncertainty
298.15	1116.28	6.7
322.43	1104.5	6.63
355.15	1083.98	6.51
391.02	1055.33	6.34
432.13	1014.59	6.09
473.1	965.58	5.8

System: diethylene glycol + triethylene glycol; phases: Liquid
Property: Mass density, kg/m3 (Liquid); method: Pycnometric method
Temperature, K	Pressure, kPa	Mole fraction of triethylene glycol	Mass density, kg/m3	uncertainty
298.15	101	0.5	1115.61	6.71

System: 1,2-ethanediol + diethylene glycol + triethylene glycol; phases: Liquid
Fixed: Pressure, kPa = 101
Fixed: Mole fraction of diethylene glycol = 0.5
Fixed: Mole fraction of 1,2-ethanediol = 0.5
Property: Viscosity, Pa*s (Liquid); method: Falling or rolling sphere viscometry
Temperature, K	Viscosity, Pa*s	uncertainty
298.15	0.0256	0.00104
322.25	0.009901	0.000403
354.72	0.003941	0.00016
392.24	0.001884	7.7e-05
434.52	0.00103	4.2e-05
461.04	0.000733	3e-05

System: 1,2-ethanediol + diethylene glycol + triethylene glycol; phases: Liquid
Fixed: Pressure, kPa = 101
Fixed: Mole fraction of diethylene glycol = 0.5
Fixed: Mole fraction of 1,2-ethanediol = 0.5
Property: Mass density, kg/m3 (Liquid); method: Buoyancy - hydrostatic balance
Temperature, K	Mass density, kg/m3	uncertainty
298.15	1116.11	6.7
322.25	1103.17	6.62
354.72	1081.3	6.49
392.24	1049.66	6.3
434.52	1005.85	6.04
461.04	973.96	5.84

System: 1,2-ethanediol + diethylene glycol + triethylene glycol; phases: Liquid
Property: Mass density, kg/m3 (Liquid); method: Pycnometric method
Temperature, K	Pressure, kPa	Mole fraction of diethylene glycol	Mole fraction of 1,2-ethanediol	Mass density, kg/m3	uncertainty
298.15	101	0.5	0.5	1116.03	6.7
