Measured thermophysical data. Experimental and computational thermochemical study of 1,3,5-trimethyl-, 1,5,5-trimethyl-, and 1,3,5,5-tetramethyl-barbituric acids
Source: J. Chem. Thermodyn., 2014, 10.1016/j.jct.2014.01.023
Compound 1: carbon dioxide, CO2, InChI=1S/CO2/c2-1-3
Compound 2: nitrogen, N2, InChI=1S/N2/c1-2
Compound 3: water, H2O, InChI=1S/H2O/h1H2
Compound 4: oxygen, O2, InChI=1S/O2/c1-2
Compound 5: 1,3,5-trimethylbarbituric acid, C7H10N2O3, InChI=1S/C7H10N2O3/c1-4-5(10)8(2)7(12)9(3)6(4)11/h4H,1-3H3
Compound 6: 1,5,5-trimethylbarbituric acid, C7H10N2O3, InChI=1S/C7H10N2O3/c1-7(2)4(10)8-6(12)9(3)5(7)11/h1-3H3,(H,8,10,12)
Compound 7: 1,3,5,5-tetramethylpyrimidine-2,4,6(1H,3H,5H)-trione, C8H12N2O3, InChI=1S/C8H12N2O3/c1-8(2)5(11)9(3)7(13)10(4)6(8)12/h1-4H3

System: 1,3,5-trimethylbarbituric acid; phases: Crystal, Liquid, Air at 1 atmosphere
Property: Normal melting temperature, K (Crystal); method: DTA
Normal melting temperature, K	uncertainty
363.65	1.6

System: 1,3,5-trimethylbarbituric acid; phases: Crystal, Gas
Property: Vapor or sublimation pressure, kPa (Crystal); method: Transpiration method
Temperature, K	Vapor or sublimation pressure, kPa	uncertainty
322.5	0.00289	0.00017
328.4	0.00528	0.00028
332.6	0.00792	0.00044
343	0.02296	0.00128
338.6	0.01482	0.00079
349.4	0.04451	0.00236
354.5	0.06767	0.00357
358.6	0.09676	0.00504

System: 1,5,5-trimethylbarbituric acid; phases: Crystal, Gas
Property: Vapor or sublimation pressure, kPa (Crystal); method: Transpiration method
Temperature, K	Vapor or sublimation pressure, kPa	uncertainty
360	0.00265	0.00015
366.1	0.00471	0.00026
366.2	0.00487	0.00026
374.2	0.00972	0.00051
379.6	0.01551	0.00081
380.8	0.01685	0.0009
382.7	0.02034	0.00111
387.5	0.02935	0.00154
386.8	0.02976	0.00149
388.7	0.03375	0.00185
389.7	0.03771	0.00201
392.6	0.04726	0.00247
393.7	0.05266	0.00276
396.7	0.06438	0.00339
402.5	0.09884	0.0052
410.2	0.187	0.0096
406.7	0.1462	0.0077
414.2	0.2461	0.0129
411.7	0.196	0.0103
419.9	0.3607	0.0188
427.9	0.6087	0.0311

System: 1,3,5,5-tetramethylpyrimidine-2,4,6(1H,3H,5H)-trione; phases: Crystal, Gas
Property: Vapor or sublimation pressure, kPa (Crystal); method: Transpiration method
Temperature, K	Vapor or sublimation pressure, kPa	uncertainty
323.2	0.00344	0.00019
326.2	0.00457	0.00024
328.2	0.00555	0.0003
332.1	0.00801	0.00043
334.2	0.0099	0.00052
336.2	0.01132	0.0006
338.2	0.01415	0.00076
340.1	0.01647	0.00087
346	0.02803	0.00149
342.9	0.02036	0.00109
349.2	0.03555	0.00188
351	0.04459	0.00233
350.1	0.04039	0.00226
347.4	0.03182	0.00166
351.1	0.04429	0.00232
355.2	0.05715	0.00299
356.2	0.06561	0.00352
352.9	0.05014	0.00258
360.2	0.08943	0.00475
365	0.135	0.0071
367.6	0.168	0.0088

Reaction: -1 1,3,5-trimethylbarbituric acid + 7 carbon dioxide + 1 nitrogen + 5 water + -8 oxygen
Property: Specific internal energy of reaction at constant volume, J/g
-20668.1

Reaction: -1 1,5,5-trimethylbarbituric acid + 7 carbon dioxide + 1 nitrogen + 5 water + -8 oxygen
Property: Specific internal energy of reaction at constant volume, J/g
-20439.6

Reaction: -1 1,3,5,5-tetramethylpyrimidine-2,4,6(1H,3H,5H)-trione + 8 carbon dioxide + 1 nitrogen + 6 water + -9.5 oxygen
Property: Specific internal energy of reaction at constant volume, J/g
-22634.1
