Measured thermophysical data. Thermodynamics of amide + amine mixtures. 4. Relative permittivities of N,N-dimethylacetamide + N-propylpropan-1-amine, + N-butylbutan-1-amine, + butan-1-amine, or + hexan-1-amine systems and of N,N-dimethylformamide + aniline mixture at several temperatures. Characterization of amine + amide systems using ERAS
Source: J. Chem. Thermodyn., 2018, 10.1016/j.jct.2017.11.011
Compound 1: N,N-dimethylethanamide, C4H9NO, InChI=1S/C4H9NO/c1-4(6)5(2)3/h1-3H3, purity 99.98%
Compound 2: dimethylformamide, C3H7NO, InChI=1S/C3H7NO/c1-4(2)3-5/h3H,1-2H3, purity 99.95%
Compound 3: dipropylamine, C6H15N, InChI=1S/C6H15N/c1-3-5-7-6-4-2/h7H,3-6H2,1-2H3, purity 99.6%
Compound 4: dibutylamine, C8H19N, InChI=1S/C8H19N/c1-3-5-7-9-8-6-4-2/h9H,3-8H2,1-2H3, purity 99.74%
Compound 5: 1-butanamine, C4H11N, InChI=1S/C4H11N/c1-2-3-4-5/h2-5H2,1H3, purity 99.96%
Compound 6: 1-hexanamine, C6H15N, InChI=1S/C6H15N/c1-2-3-4-5-6-7/h2-7H2,1H3, purity 99.9%
Compound 7: aniline, C6H7N, InChI=1S/C6H7N/c7-6-4-2-1-3-5-6/h1-5H,7H2, purity 99.9%

System: N,N-dimethylethanamide; phases: Liquid
Fixed: Pressure, kPa = 100
Fixed: Frequency, MHz = 1
Property: Relative permittivity at various frequencies (Liquid); method: Parallel plate capacitor
Temperature, K	Relative permittivity at various frequencies	uncertainty
293.15	39.695	1.058
298.15	38.586	1.043
303.15	37.499	1.029
293.15	39.653	1.057
298.15	38.526	1.043
303.15	37.515	1.029
293.15	39.688	1.058
298.15	38.6	1.044
303.15	37.552	1.03

System: dimethylformamide; phases: Liquid
Fixed: Pressure, kPa = 100
Fixed: Frequency, MHz = 1
Property: Relative permittivity at various frequencies (Liquid); method: Parallel plate capacitor
Temperature, K	Relative permittivity at various frequencies	uncertainty
293.15	38.334	1.04
298.15	37.44	1.028
303.15	36.58	1.017

System: dipropylamine; phases: Liquid
Fixed: Pressure, kPa = 100
Fixed: Frequency, MHz = 1
Property: Relative permittivity at various frequencies (Liquid); method: Parallel plate capacitor
Temperature, K	Relative permittivity at various frequencies	uncertainty
293.15	3.148	0.338
298.15	3.093	0.335
303.15	3.037	0.333

System: dibutylamine; phases: Liquid
Fixed: Pressure, kPa = 100
Fixed: Frequency, MHz = 1
Property: Relative permittivity at various frequencies (Liquid); method: Parallel plate capacitor
Temperature, K	Relative permittivity at various frequencies	uncertainty
293.15	2.938	0.329
298.15	2.896	0.327
303.15	2.858	0.326

System: 1-butanamine; phases: Liquid
Fixed: Pressure, kPa = 100
Fixed: Frequency, MHz = 1
Property: Relative permittivity at various frequencies (Liquid); method: Parallel plate capacitor
Temperature, K	Relative permittivity at various frequencies	uncertainty
293.15	4.729	0.397
298.15	4.636	0.394
303.15	4.547	0.391

System: 1-hexanamine; phases: Liquid
Fixed: Pressure, kPa = 100
Fixed: Frequency, MHz = 1
Property: Relative permittivity at various frequencies (Liquid); method: Parallel plate capacitor
Temperature, K	Relative permittivity at various frequencies	uncertainty
293.15	3.955	0.369
298.15	3.893	0.367
303.15	3.835	0.365

System: aniline; phases: Liquid
Fixed: Pressure, kPa = 101.325
Property: Mass density, kg/m3 (Liquid); method: Vibrating tube method
Temperature, K	Mass density, kg/m3	uncertainty
293.15	1021.79	2.45
298.1	1017.52	2.44
303.15	1013.19	2.43

System: aniline; phases: Liquid
Fixed: Pressure, kPa = 100
Fixed: Frequency, MHz = 1
Property: Relative permittivity at various frequencies (Liquid); method: Parallel plate capacitor
Temperature, K	Relative permittivity at various frequencies	uncertainty
293.15	7.117	0.472
298.15	6.984	0.469
303.15	6.856	0.465

System: N,N-dimethylethanamide + dipropylamine; phases: Liquid
Fixed: Pressure, kPa = 100
Fixed: Frequency, MHz = 1
Property: Relative permittivity at various frequencies (Liquid); method: Parallel plate capacitor
Mole fraction of N,N-dimethylethanamide	Temperature, K	Relative permittivity at various frequencies	uncertainty
0	293.15	3.148	0.338
0.06	293.15	4.165	0.379
0.1099	293.15	5.107	0.412
0.1494	293.15	5.897	0.438
0.2122	293.15	7.264	0.479
0.3021	293.15	9.46	0.539
0.4041	293.15	12.353	0.609
0.4917	293.15	15.141	0.67
0.5905	293.15	18.754	0.741
0.6398	293.15	20.725	0.777
0.6985	293.15	23.242	0.821
0.7479	293.15	25.568	0.86
0.7948	293.15	27.856	0.897
0.8464	293.15	30.535	0.937
0.8928	293.15	33.134	0.976
0.9494	293.15	36.494	1.023
1	293.15	39.695	1.058
0	298.15	3.093	0.335
0.06	298.15	4.083	0.375
0.1099	298.15	4.99	0.408
0.1494	298.15	5.757	0.433
0.2122	298.15	7.088	0.474
0.3021	298.15	9.217	0.533
0.4041	298.15	12.018	0.601
0.4917	298.15	14.741	0.661
0.5905	298.15	18.239	0.731
0.6398	298.15	20.156	0.767
0.6985	298.15	22.613	0.81
0.7479	298.15	24.852	0.848
0.7948	298.15	27.082	0.884
0.8464	298.15	29.694	0.925
0.8928	298.15	32.205	0.962
0.9494	298.15	35.464	1.008
1	298.15	38.586	1.043
0	303.15	3.037	0.333
0.06	303.15	3.999	0.372
0.1099	303.15	4.873	0.404
0.1494	303.15	5.619	0.429
0.2122	303.15	6.912	0.469
0.3021	303.15	8.98	0.526
0.4041	303.15	11.69	0.593
0.4917	303.15	14.338	0.653
0.5905	303.15	17.732	0.721
0.6398	303.15	19.598	0.757
0.6985	303.15	21.993	0.8
0.7479	303.15	24.135	0.836
0.7948	303.15	26.324	0.872
0.8464	303.15	28.874	0.912
0.8928	303.15	31.293	0.949
0.9494	303.15	34.462	0.994
1	303.15	37.499	1.029

System: N,N-dimethylethanamide + dibutylamine; phases: Liquid
Fixed: Pressure, kPa = 100
Fixed: Frequency, MHz = 1
Property: Relative permittivity at various frequencies (Liquid); method: Parallel plate capacitor
Mole fraction of N,N-dimethylethanamide	Temperature, K	Relative permittivity at various frequencies	uncertainty
0	293.15	2.938	0.329
0.0896	293.15	4.186	0.379
0.1507	293.15	5.155	0.413
0.219	293.15	6.372	0.452
0.3109	293.15	8.266	0.507
0.3974	293.15	10.35	0.561
0.4353	293.15	11.384	0.586
0.494	293.15	13.117	0.626
0.5505	293.15	14.971	0.666
0.6015	293.15	16.82	0.704
0.6429	293.15	18.472	0.737
0.7094	293.15	21.39	0.79
0.7469	293.15	23.221	0.823
0.7992	293.15	25.981	0.868
0.8428	293.15	28.506	0.909
0.8963	293.15	31.92	0.961
0.9456	293.15	35.389	1.012
1	293.15	39.695	1.058
0	298.15	2.896	0.327
0.0896	298.15	4.106	0.376
0.1507	298.15	5.045	0.409
0.219	298.15	6.224	0.447
0.3109	298.15	8.063	0.501
0.3974	298.15	10.085	0.554
0.4353	298.15	11.084	0.579
0.494	298.15	12.766	0.618
0.5505	298.15	14.575	0.658
0.6015	298.15	16.376	0.695
0.6429	298.15	17.967	0.727
0.7094	298.15	20.804	0.779
0.7469	298.15	22.565	0.811
0.7992	298.15	25.246	0.856
0.8428	298.15	27.715	0.897
0.8963	298.15	31.031	0.948
0.9456	298.15	34.398	0.997
1	298.15	38.586	1.043
0	303.15	2.858	0.326
0.0896	303.15	4.033	0.373
0.1507	303.15	4.942	0.405
0.219	303.15	6.086	0.443
0.3109	303.15	7.871	0.496
0.3974	303.15	9.833	0.548
0.4353	303.15	10.809	0.572
0.494	303.15	12.44	0.611
0.5505	303.15	14.195	0.65
0.6015	303.15	15.942	0.686
0.6429	303.15	17.504	0.718
0.7094	303.15	20.253	0.769
0.7469	303.15	21.966	0.801
0.7992	303.15	24.579	0.845
0.8428	303.15	26.984	0.885
0.8963	303.15	30.209	0.935
0.9456	303.15	33.491	0.984
1	303.15	37.499	1.029

System: N,N-dimethylethanamide + 1-butanamine; phases: Liquid
Fixed: Pressure, kPa = 100
Fixed: Frequency, MHz = 1
Property: Relative permittivity at various frequencies (Liquid); method: Parallel plate capacitor
Mole fraction of N,N-dimethylethanamide	Temperature, K	Relative permittivity at various frequencies	uncertainty
0	293.15	4.729	0.397
0.0584	293.15	6.126	0.445
0.1069	293.15	7.365	0.483
0.1973	293.15	9.841	0.549
0.3034	293.15	13	0.624
0.4037	293.15	16.238	0.692
0.4978	293.15	19.477	0.754
0.5989	293.15	23.127	0.818
0.6947	293.15	26.781	0.878
0.7906	293.15	30.606	0.936
0.8404	293.15	32.664	0.966
0.897	293.15	35.07	1
0.9491	293.15	37.354	1.031
1	293.15	39.653	1.057
0	298.15	4.636	0.394
0.0584	298.15	5.989	0.441
0.1069	298.15	7.194	0.478
0.1973	298.15	9.596	0.543
0.3034	298.15	12.665	0.616
0.4037	298.15	15.823	0.683
0.4978	298.15	18.954	0.744
0.5989	298.15	22.511	0.807
0.6947	298.15	26.066	0.866
0.7906	298.15	29.779	0.923
0.8404	298.15	31.779	0.953
0.897	298.15	34.105	0.986
0.9491	298.15	36.315	1.017
1	298.15	38.526	1.043
0	303.15	4.547	0.391
0.0584	303.15	5.863	0.437
0.1069	303.15	7.034	0.473
0.1973	303.15	9.38	0.537
0.3034	303.15	12.352	0.609
0.4037	303.15	15.431	0.675
0.4978	303.15	18.478	0.735
0.5989	303.15	21.946	0.797
0.6947	303.15	25.392	0.855
0.7906	303.15	28.998	0.911
0.8404	303.15	30.943	0.941
0.897	303.15	33.22	0.974
0.9491	303.15	35.362	1.003
1	303.15	37.515	1.029

System: N,N-dimethylethanamide + 1-hexanamine; phases: Liquid
Fixed: Pressure, kPa = 100
Fixed: Frequency, MHz = 1
Property: Relative permittivity at various frequencies (Liquid); method: Parallel plate capacitor
Mole fraction of N,N-dimethylethanamide	Temperature, K	Relative permittivity at various frequencies	uncertainty
0	293.15	3.955	0.369
0.1027	293.15	5.81	0.434
0.1921	293.15	7.69	0.491
0.3016	293.15	10.349	0.561
0.3994	293.15	13.099	0.626
0.5066	293.15	16.508	0.697
0.603	293.15	20.011	0.764
0.6944	293.15	23.705	0.829
0.7581	293.15	26.548	0.875
0.8028	293.15	28.677	0.909
0.8528	293.15	31.226	0.947
0.8986	293.15	33.671	0.983
0.9529	293.15	36.812	1.027
1	293.15	39.688	1.058
0	298.15	3.893	0.367
0.1027	298.15	5.694	0.431
0.1921	298.15	7.522	0.486
0.3016	298.15	10.096	0.555
0.3994	298.15	12.772	0.618
0.5066	298.15	16.083	0.689
0.603	298.15	19.493	0.754
0.6944	298.15	23.075	0.818
0.7581	298.15	25.835	0.864
0.8028	298.15	27.897	0.897
0.8528	298.15	30.358	0.934
0.8986	298.15	32.742	0.969
0.9529	298.15	35.798	1.013
1	298.15	38.6	1.044
0	303.15	3.835	0.365
0.1027	303.15	5.588	0.427
0.1921	303.15	7.362	0.481
0.3016	303.15	9.866	0.549
0.3994	303.15	12.465	0.611
0.5066	303.15	15.69	0.681
0.603	303.15	19.005	0.745
0.6944	303.15	22.498	0.808
0.7581	303.15	25.163	0.853
0.8028	303.15	27.182	0.885
0.8528	303.15	29.567	0.922
0.8986	303.15	31.893	0.957
0.9529	303.15	34.82	0.999
1	303.15	37.552	1.03

System: dimethylformamide + aniline; phases: Liquid
Fixed: Pressure, kPa = 100
Fixed: Frequency, MHz = 1
Property: Relative permittivity at various frequencies (Liquid); method: Parallel plate capacitor
Mole fraction of dimethylformamide	Temperature, K	Relative permittivity at various frequencies	uncertainty
0	293.15	7.117	0.472
0.0533	293.15	8.91	0.526
0.1046	293.15	10.653	0.57
0.1562	293.15	12.414	0.611
0.2033	293.15	14.004	0.646
0.3015	293.15	17.269	0.712
0.4071	293.15	20.625	0.774
0.5013	293.15	23.428	0.822
0.5999	293.15	26.184	0.866
0.6989	293.15	28.955	0.909
0.7931	293.15	31.604	0.949
0.8431	293.15	33.12	0.971
0.8982	293.15	34.833	0.995
0.9459	293.15	36.439	1.017
1	293.15	38.334	1.04
0	298.15	6.984	0.469
0.0533	298.15	8.729	0.521
0.1046	298.15	10.426	0.564
0.1562	298.15	12.144	0.605
0.2033	298.15	13.689	0.639
0.3015	298.15	16.874	0.704
0.4071	298.15	20.146	0.765
0.5013	298.15	22.895	0.813
0.5999	298.15	25.601	0.857
0.6989	298.15	28.31	0.899
0.7931	298.15	30.92	0.939
0.8431	298.15	32.402	0.96
0.8982	298.15	34.071	0.984
0.9459	298.15	35.62	1.006
1	298.15	37.44	1.028
0	303.15	6.856	0.465
0.0533	303.15	8.557	0.517
0.1046	303.15	10.2	0.559
0.1562	303.15	11.876	0.599
0.2033	303.15	13.383	0.632
0.3015	303.15	16.485	0.696
0.4071	303.15	19.678	0.756
0.5013	303.15	22.371	0.804
0.5999	303.15	25.026	0.848
0.6989	303.15	27.687	0.89
0.7931	303.15	30.246	0.929
0.8431	303.15	31.69	0.95
0.8982	303.15	33.315	0.973
0.9459	303.15	34.821	0.995
1	303.15	36.58	1.017
