Measured thermophysical data. Experiment and model for the surface tension of MEA-PEG400 and DEA-PEG400 aqueous solutions
Source: J. Chem. Thermodyn., 2014, 10.1016/j.jct.2013.10.016
Compound 1: 2-aminoethan-1-ol, C2H7NO, InChI=1S/C2H7NO/c3-1-2-4/h4H,1-3H2, purity 99%
Compound 2: diethanolamine, C4H11NO2, InChI=1S/C4H11NO2/c6-3-1-5-2-4-7/h5-7H,1-4H2, purity 99.7%
Compound 3: water, H2O, InChI=1S/H2O/h1H2

System: 2-aminoethan-1-ol + water; phases: Liquid, Air at 1 atmosphere
Property: Surface tension liquid-gas, N/m (Liquid); method: Wilhelmy plate method
Temperature, K	Mass fraction of 2-aminoethan-1-ol	Surface tension liquid-gas, N/m	uncertainty
293.2	0.2	0.0626	0.002
293.2	0.25	0.0612	0.002
293.2	0.3	0.0603	0.002
303.2	0.2	0.0618	0.002
303.2	0.25	0.0606	0.002
303.2	0.3	0.0595	0.002
313.2	0.2	0.0602	0.002
313.2	0.25	0.0592	0.002
313.2	0.3	0.058	0.002
323.2	0.2	0.0587	0.002
323.2	0.25	0.0577	0.002
323.2	0.3	0.0565	0.002

System: diethanolamine + water; phases: Liquid, Air at 1 atmosphere
Property: Surface tension liquid-gas, N/m (Liquid); method: Wilhelmy plate method
Temperature, K	Mass fraction of diethanolamine	Surface tension liquid-gas, N/m	uncertainty
293.2	0.2	0.0651	0.002
293.2	0.25	0.0646	0.002
293.2	0.3	0.0628	0.002
303.2	0.2	0.0644	0.002
303.2	0.25	0.0627	0.002
303.2	0.3	0.0613	0.002
313.2	0.2	0.0639	0.002
313.2	0.25	0.0618	0.002
313.2	0.3	0.0604	0.002
323.2	0.2	0.0618	0.002
323.2	0.25	0.0596	0.002
323.2	0.3	0.0582	0.002
