Measured thermophysical data. Studies on surface tension of 1,8-diazabicyclo [5.4.0] undec-7-ene (DBU)-glycerol and CO2-DBU-glycerol solutions at temperatures from 288.1 K to 323.1 K
Source: J. Chem. Thermodyn., 2018, 10.1016/j.jct.2018.05.013
Compound 1: 1,8-diaza-7-bicyclo[5.4.0]undecene, C9H16N2, InChI=1S/C9H16N2/c1-2-5-9-10-6-4-8-11(9)7-3-1/h1-8H2, purity 99%
Compound 2: glycerol, C3H8O3, InChI=1S/C3H8O3/c4-1-3(6)2-5/h3-6H,1-2H2, purity 99.5%
Compound 3: carbon dioxide, CO2, InChI=1S/CO2/c2-1-3
Compound 4: water, H2O, InChI=1S/H2O/h1H2

System: 1,8-diaza-7-bicyclo[5.4.0]undecene; phases: Liquid, Air at 1 atmosphere
Property: Surface tension liquid-gas, N/m (Liquid); method: Wilhelmy plate method
Temperature, K	Surface tension liquid-gas, N/m	uncertainty
288.1	0.04244	0.00112
293.1	0.04129	0.00112
298.1	0.03998	0.00112
303.1	0.03927	0.00112
308.1	0.03826	0.00112
313.1	0.0373	0.00112
318.1	0.03662	0.00112
323.1	0.03566	0.00112

System: glycerol; phases: Liquid, Air at 1 atmosphere
Property: Surface tension liquid-gas, N/m (Liquid); method: Wilhelmy plate method
Temperature, K	Surface tension liquid-gas, N/m	uncertainty
288.1	0.06637	0.00111
293.1	0.06485	0.00111
298.1	0.06351	0.00111
303.1	0.06255	0.00111
308.1	0.06131	0.00111
313.1	0.05945	0.00111
318.1	0.05835	0.00111
323.1	0.0575	0.00111

System: water; phases: Liquid, Air at 1 atmosphere
Property: Surface tension liquid-gas, N/m (Liquid); method: Wilhelmy plate method
Temperature, K	Surface tension liquid-gas, N/m	uncertainty
293.1	0.07286	0.00031
298.1	0.07218	0.00031
303.1	0.07132	0.00031
308.1	0.07059	0.00031
313.1	0.06948	0.00031
318.1	0.06885	0.00031
323.1	0.06796	0.00031

System: 1,8-diaza-7-bicyclo[5.4.0]undecene + glycerol; phases: Liquid, Air at 1 atmosphere
Property: Surface tension liquid-gas, N/m (Liquid); method: Wilhelmy plate method
Temperature, K	Mole fraction of 1,8-diaza-7-bicyclo[5.4.0]undecene	Surface tension liquid-gas, N/m	uncertainty
288.1	0	0.06637	0.00111
288.1	0.05	0.06297	0.00164
288.1	0.0909	0.06097	0.00148
288.1	0.1666	0.05731	0.00144
288.1	0.2001	0.05611	0.00123
288.1	0.2505	0.05515	0.00114
288.1	0.3332	0.05459	0.00113
288.1	0.4018	0.05365	0.00116
288.1	0.5	0.05219	0.00117
288.1	0.6007	0.05033	0.00119
288.1	0.6667	0.04887	0.0012
288.1	0.75	0.04706	0.0012
288.1	0.8333	0.04521	0.0012
288.1	0.9089	0.04357	0.00117
288.1	1	0.04244	0.00112
293.1	0	0.06485	0.00111
293.1	0.05	0.06133	0.0017
293.1	0.0909	0.05908	0.00146
293.1	0.1666	0.05579	0.00139
293.1	0.2001	0.05472	0.0013
293.1	0.2505	0.05302	0.00114
293.1	0.3332	0.05295	0.00113
293.1	0.4018	0.0517	0.00116
293.1	0.5	0.05036	0.00115
293.1	0.6007	0.04916	0.00115
293.1	0.6667	0.04797	0.00119
293.1	0.75	0.04617	0.0012
293.1	0.8333	0.0443	0.00121
293.1	0.9089	0.04254	0.00118
293.1	1	0.04129	0.00112
298.1	0	0.06351	0.00111
298.1	0.05	0.05992	0.00173
298.1	0.0909	0.0576	0.00148
298.1	0.1666	0.05419	0.00138
298.1	0.2001	0.05327	0.00128
298.1	0.2505	0.05161	0.00115
298.1	0.3332	0.05105	0.00113
298.1	0.4018	0.05021	0.00115
298.1	0.5	0.04889	0.00114
298.1	0.6007	0.04784	0.00115
298.1	0.6667	0.04667	0.00119
298.1	0.75	0.04495	0.0012
298.1	0.8333	0.04315	0.00121
298.1	0.9089	0.04139	0.00118
298.1	1	0.03998	0.00112
303.1	0	0.06255	0.00111
303.1	0.05	0.05856	0.00177
303.1	0.0909	0.0564	0.00147
303.1	0.1666	0.05296	0.00141
303.1	0.2001	0.05193	0.00131
303.1	0.2505	0.0501	0.00115
303.1	0.3332	0.04984	0.00112
303.1	0.4018	0.04906	0.00115
303.1	0.5	0.04758	0.00114
303.1	0.6007	0.04692	0.00114
303.1	0.6667	0.04549	0.00119
303.1	0.75	0.04383	0.00119
303.1	0.8333	0.04202	0.0012
303.1	0.9089	0.04037	0.00116
303.1	1	0.03927	0.00112
308.1	0	0.06131	0.00111
308.1	0.05	0.05733	0.00178
308.1	0.0909	0.05514	0.00153
308.1	0.1666	0.05123	0.00145
308.1	0.2001	0.05033	0.00129
308.1	0.2505	0.04854	0.00113
308.1	0.3332	0.04857	0.00112
308.1	0.4018	0.04789	0.00114
308.1	0.5	0.04666	0.00114
308.1	0.6007	0.04534	0.00116
308.1	0.6667	0.0441	0.00118
308.1	0.75	0.04258	0.00118
308.1	0.8333	0.04108	0.00119
308.1	0.9089	0.03939	0.00117
308.1	1	0.03826	0.00112
313.1	0	0.05945	0.00111
313.1	0.05	0.05591	0.00171
313.1	0.0909	0.05363	0.00157
313.1	0.1666	0.04951	0.00146
313.1	0.2001	0.04879	0.00128
313.1	0.2505	0.04692	0.00114
313.1	0.3332	0.0469	0.00111
313.1	0.4018	0.04669	0.00113
313.1	0.5	0.04555	0.00114
313.1	0.6007	0.04427	0.00116
313.1	0.6667	0.04297	0.00118
313.1	0.75	0.04151	0.00117
313.1	0.8333	0.0401	0.00118
313.1	0.9089	0.03849	0.00117
313.1	1	0.0373	0.00112
318.1	0	0.05835	0.00111
318.1	0.05	0.05471	0.00174
318.1	0.0909	0.05234	0.00157
318.1	0.1666	0.04824	0.00148
318.1	0.2001	0.04731	0.00127
318.1	0.2505	0.04575	0.00113
318.1	0.3332	0.04585	0.00111
318.1	0.4018	0.04572	0.00113
318.1	0.5	0.04445	0.00115
318.1	0.6007	0.04307	0.00116
318.1	0.6667	0.04184	0.00117
318.1	0.75	0.04054	0.00115
318.1	0.8333	0.03942	0.00117
318.1	0.9089	0.03789	0.00116
318.1	1	0.03662	0.00112
323.1	0	0.0575	0.00111
323.1	0.05	0.05355	0.00181
323.1	0.0909	0.05109	0.0016
323.1	0.1666	0.04685	0.00144
323.1	0.2001	0.04636	0.00121
323.1	0.2505	0.0449	0.00113
323.1	0.3332	0.04491	0.00111
323.1	0.4018	0.04486	0.00113
323.1	0.5	0.04351	0.00114
323.1	0.6007	0.04224	0.00116
323.1	0.6667	0.04094	0.00117
323.1	0.75	0.03947	0.00117
323.1	0.8333	0.03803	0.00117
323.1	0.9089	0.03669	0.00115
323.1	1	0.03566	0.00112
328.1	0.3332	0.0438	0.00167

System: 1,8-diaza-7-bicyclo[5.4.0]undecene + glycerol + carbon dioxide; phases: Liquid, Air at 1 atmosphere
Property: Surface tension liquid-gas, N/m (Liquid); method: Wilhelmy plate method
Temperature, K	Solvent: Mole fraction of 1,8-diaza-7-bicyclo[5.4.0]undecene	Mass ratio of solute to solvent of carbon dioxide	Surface tension liquid-gas, N/m	uncertainty
288.1	0.2001	0	0.05611	0.00172
288.1	0.2001	0.0093	0.05733	0.00176
288.1	0.2001	0.0192	0.05955	0.00172
288.1	0.2001	0.0322	0.06062	0.00171
288.1	0.2001	0.0459	0.06299	0.00169
288.1	0.2001	0.0589	0.06341	0.0017
288.1	0.2001	0.0692	0.0658	0.00175
288.1	0.2001	0.0754	0.06629	0.00182
288.1	0.2001	0.0791	0.06832	0.00241
293.1	0.2001	0	0.05472	0.00168
293.1	0.2001	0.0093	0.05487	0.00169
293.1	0.2001	0.0192	0.05637	0.00167
293.1	0.2001	0.0322	0.05669	0.00169
293.1	0.2001	0.0459	0.05956	0.00171
293.1	0.2001	0.0589	0.06005	0.00174
293.1	0.2001	0.0692	0.06347	0.00187
293.1	0.2001	0.0754	0.06387	0.0017
293.1	0.2001	0.0791	0.06428	0.00174
298.1	0.2001	0	0.05327	0.00168
298.1	0.2001	0.0093	0.05346	0.00168
298.1	0.2001	0.0192	0.05435	0.00167
298.1	0.2001	0.0322	0.05537	0.00168
298.1	0.2001	0.0459	0.05696	0.0017
298.1	0.2001	0.0589	0.05788	0.00173
298.1	0.2001	0.0692	0.06052	0.00181
298.1	0.2001	0.0754	0.06087	0.00169
298.1	0.2001	0.0791	0.0608	0.00173
303.1	0.2001	0	0.05193	0.00167
303.1	0.2001	0.0093	0.05195	0.00168
303.1	0.2001	0.0192	0.0532	0.00169
303.1	0.2001	0.0322	0.05376	0.00169
303.1	0.2001	0.0459	0.05601	0.00171
303.1	0.2001	0.0589	0.05647	0.0017
303.1	0.2001	0.0692	0.05837	0.00178
303.1	0.2001	0.0754	0.05869	0.00172
303.1	0.2001	0.0791	0.05906	0.00173
308.1	0.2001	0	0.05033	0.00167
308.1	0.2001	0.0093	0.05068	0.00169
308.1	0.2001	0.0192	0.0521	0.0017
308.1	0.2001	0.0322	0.05278	0.0017
308.1	0.2001	0.0459	0.05483	0.00172
308.1	0.2001	0.0589	0.05527	0.00171
308.1	0.2001	0.0692	0.05691	0.00173
308.1	0.2001	0.0754	0.05661	0.0017
308.1	0.2001	0.0791	0.05742	0.00177
313.1	0.2001	0	0.04879	0.0017
313.1	0.2001	0.0093	0.0497	0.00171
313.1	0.2001	0.0192	0.05088	0.00169
313.1	0.2001	0.0322	0.05148	0.0017
313.1	0.2001	0.0459	0.05325	0.00172
313.1	0.2001	0.0589	0.05385	0.00171
313.1	0.2001	0.0692	0.05527	0.00177
313.1	0.2001	0.0754	0.05491	0.00175
313.1	0.2001	0.0791	0.05534	0.00177
318.1	0.2001	0	0.04731	0.00173
318.1	0.2001	0.0093	0.04887	0.00171
318.1	0.2001	0.0192	0.04956	0.00169
318.1	0.2001	0.0322	0.05004	0.0017
318.1	0.2001	0.0459	0.0518	0.00172
318.1	0.2001	0.0589	0.05188	0.00171
318.1	0.2001	0.0692	0.05304	0.0018
318.1	0.2001	0.0754	0.05313	0.00176
318.1	0.2001	0.0791	0.05317	0.00177
323.1	0.2001	0	0.04636	0.00171
323.1	0.2001	0.0093	0.04755	0.00169
323.1	0.2001	0.0192	0.04805	0.00168
323.1	0.2001	0.0322	0.04889	0.00172
323.1	0.2001	0.0459	0.04999	0.00175
323.1	0.2001	0.0589	0.05033	0.00175
323.1	0.2001	0.0692	0.05105	0.00175
323.1	0.2001	0.0754	0.05083	0.00175
323.1	0.2001	0.0791	0.05119	0.00176
288.1	0.5	0	0.05219	0.00185
288.1	0.5	0.0131	0.05546	0.00181
288.1	0.5	0.0288	0.05864	0.00172
288.1	0.5	0.0481	0.06047	0.00181
288.1	0.5	0.0685	0.0672	0.0019
288.1	0.5	0.0778	0.06852	0.00173
293.1	0.5	0	0.05036	0.00169
293.1	0.5	0.0131	0.05163	0.00178
293.1	0.5	0.0288	0.05464	0.00174
293.1	0.5	0.0481	0.05591	0.00173
293.1	0.5	0.0685	0.05864	0.00187
293.1	0.5	0.0778	0.06292	0.00194
293.1	0.5	0.0985	0.06776	0.00184
298.1	0.5	0	0.04889	0.00167
298.1	0.5	0.0131	0.04911	0.00172
298.1	0.5	0.0288	0.0516	0.00171
298.1	0.5	0.0481	0.05241	0.0017
298.1	0.5	0.0685	0.0544	0.00175
298.1	0.5	0.0778	0.05706	0.00177
298.1	0.5	0.0985	0.05998	0.00176
298.1	0.5	0.1145	0.06339	0.00179
298.1	0.5	0.1179	0.06409	0.00179
303.1	0.5	0	0.04758	0.00167
303.1	0.5	0.0131	0.04838	0.00169
303.1	0.5	0.0288	0.04968	0.00171
303.1	0.5	0.0481	0.0505	0.00171
303.1	0.5	0.0685	0.05119	0.00172
303.1	0.5	0.0778	0.05222	0.00172
303.1	0.5	0.0985	0.05389	0.00172
303.1	0.5	0.1145	0.05718	0.00168
303.1	0.5	0.1179	0.05766	0.00219
308.1	0.5	0	0.04666	0.00167
308.1	0.5	0.0131	0.04743	0.00168
308.1	0.5	0.0288	0.04882	0.00169
308.1	0.5	0.0481	0.04887	0.00169
308.1	0.5	0.0685	0.04946	0.00174
308.1	0.5	0.0778	0.0498	0.00173
308.1	0.5	0.0985	0.05045	0.0017
308.1	0.5	0.1145	0.05282	0.00192
308.1	0.5	0.1179	0.05432	0.00224
313.1	0.5	0	0.04555	0.00167
313.1	0.5	0.0131	0.04654	0.00167
313.1	0.5	0.0288	0.04743	0.00167
313.1	0.5	0.0481	0.04733	0.00169
313.1	0.5	0.0685	0.04757	0.00169
313.1	0.5	0.0778	0.04779	0.0017
313.1	0.5	0.0985	0.04877	0.00168
313.1	0.5	0.1145	0.0499	0.00192
313.1	0.5	0.1179	0.05128	0.0021
318.1	0.5	0	0.04445	0.00166
318.1	0.5	0.0131	0.04496	0.00167
318.1	0.5	0.0288	0.04618	0.00168
318.1	0.5	0.0481	0.04647	0.00167
318.1	0.5	0.0685	0.04645	0.00167
318.1	0.5	0.0778	0.04618	0.00167
318.1	0.5	0.0985	0.04678	0.00167
318.1	0.5	0.1145	0.04798	0.00167
318.1	0.5	0.1179	0.0482	0.00175
323.1	0.5	0	0.04351	0.00166
323.1	0.5	0.0131	0.0443	0.00166
323.1	0.5	0.0288	0.04445	0.00166
323.1	0.5	0.0481	0.04481	0.00166
323.1	0.5	0.0685	0.04506	0.00166
323.1	0.5	0.0778	0.04497	0.00166
323.1	0.5	0.0985	0.04535	0.00166
323.1	0.5	0.1145	0.04613	0.00167
323.1	0.5	0.1179	0.04623	0.00167
298.1	0.3332	0	0.05105	0.00172
298.1	0.3332	0.0197	0.05373	0.00172
298.1	0.3332	0.0366	0.0552	0.00168
298.1	0.3332	0.0517	0.05593	0.00171
298.1	0.3332	0.0727	0.05857	0.00174
298.1	0.3332	0.088	0.06062	0.00169
298.1	0.3332	0.1087	0.062	0.0017
298.1	0.3332	0.1169	0.06422	0.00187
303.1	0.3332	0	0.04984	0.00169
303.1	0.3332	0.0197	0.05129	0.0017
303.1	0.3332	0.0366	0.05361	0.0017
303.1	0.3332	0.0517	0.05419	0.0017
303.1	0.3332	0.0727	0.05567	0.00173
303.1	0.3332	0.088	0.05696	0.0017
303.1	0.3332	0.1087	0.05784	0.00169
303.1	0.3332	0.1169	0.05958	0.00182
308.1	0.3332	0	0.04857	0.00168
308.1	0.3332	0.0197	0.04985	0.00169
308.1	0.3332	0.0366	0.0517	0.00168
308.1	0.3332	0.0517	0.05236	0.00171
308.1	0.3332	0.0727	0.05405	0.00172
308.1	0.3332	0.088	0.05456	0.00173
308.1	0.3332	0.1087	0.05484	0.00167
308.1	0.3332	0.1169	0.05516	0.00169
313.1	0.3332	0	0.0469	0.00167
313.1	0.3332	0.0197	0.0486	0.00168
313.1	0.3332	0.0366	0.04983	0.00168
313.1	0.3332	0.0517	0.05081	0.0017
313.1	0.3332	0.0727	0.05111	0.00172
313.1	0.3332	0.088	0.0513	0.00175
313.1	0.3332	0.1087	0.05158	0.00167
313.1	0.3332	0.1169	0.05215	0.00169
318.1	0.3332	0	0.04585	0.00167
318.1	0.3332	0.0197	0.04716	0.00168
318.1	0.3332	0.0366	0.04862	0.00167
318.1	0.3332	0.0517	0.04887	0.00168
318.1	0.3332	0.0727	0.04888	0.0017
318.1	0.3332	0.088	0.04922	0.00176
318.1	0.3332	0.1087	0.04948	0.00166
318.1	0.3332	0.1169	0.04999	0.00168
323.1	0.3332	0	0.04491	0.00167
323.1	0.3332	0.0197	0.04625	0.00166
323.1	0.3332	0.0366	0.04623	0.00167
323.1	0.3332	0.0517	0.04629	0.00168
323.1	0.3332	0.0727	0.04707	0.00169
323.1	0.3332	0.088	0.04717	0.00175
323.1	0.3332	0.1087	0.04743	0.00166
323.1	0.3332	0.1169	0.04814	0.00167
328.1	0.3332	0	0.0438	0.00167
328.1	0.3332	0.0197	0.04489	0.00167
328.1	0.3332	0.0366	0.04523	0.0017
328.1	0.3332	0.0517	0.04532	0.00174
328.1	0.3332	0.0727	0.04551	0.00174
328.1	0.3332	0.088	0.0455	0.00176
328.1	0.3332	0.1087	0.04569	0.00165
328.1	0.3332	0.1169	0.04577	0.00166
