Measured thermophysical data. Entropy, related thermodynamic properties, and structure of methylisocyanate
Source: J. Chem. Thermodyn., 2013, 10.1016/j.jct.2012.10.011
Compound 1: methyl isocyanate, C2H3NO, InChI=1S/C2H3NO/c1-3-2-4/h1H3, purity 99.6%

System: methyl isocyanate; phases: Crystal, Liquid, Gas
Property: Triple point temperature, K (Crystal); method: Adiabatic calorimetry
Triple point temperature, K	uncertainty
178.461	0.084

System: methyl isocyanate; phases: Crystal, Liquid, Gas
Property: Molar enthalpy of transition or fusion, kJ/mol (Crystal); method: Adiabatic calorimetry
Molar enthalpy of transition or fusion, kJ/mol	uncertainty
7.4552	0.016

System: methyl isocyanate; phases: Liquid, Gas
Property: Molar enthalpy of vaporization or sublimation, kJ/mol (Liquid); method: Static calorimetry
Temperature, K	Molar enthalpy of vaporization or sublimation, kJ/mol	uncertainty
298.15	28.748	0.15

System: methyl isocyanate; phases: Crystal
Fixed: Pressure, kPa = 101.325
Property: Molar heat capacity at constant pressure, J/K/mol (Crystal); method: Vacuum adiabatic calorimetry
Temperature, K	Molar heat capacity at constant pressure, J/K/mol	uncertainty
14.71	2.971	0.032
15.61	3.494	0.035
16.68	4.234	0.04
18.13	5.318	0.045
19.93	6.837	0.051
21.81	8.41	0.057
25.1	11.4	0.06
27.08	13.31	0.07
29.42	15.5	0.07
31.96	17.95	0.08
34.72	20.64	0.08
38.26	23.96	0.09
42.59	27.81	0.1
47.01	31.56	0.1
51.57	35.36	0.11
56.6	39.11	0.12
60.37	41.76	0.12
62.3	43.18	0.13
65.89	45.61	0.13
71.87	49.37	0.14
78.77	53.47	0.15
85.79	57.74	0.16
88.54	59.08	0.16
91.98	60.67	0.26
94.33	61.76	0.26
97.68	63.18	0.26
100.44	64.31	0.26
102.2	64.94	0.27
104.38	65.94	0.27
109.48	67.86	0.27
112.6	68.66	0.27
115.84	69.87	0.27
118.15	70.67	0.27
120.45	71.25	0.27
121.38	71.63	0.27
126.84	73.26	0.27
128.41	73.55	0.27
134.41	75.06	0.28
134.59	75.1	0.28
135.09	75.27	0.28
136.89	75.48	0.28
136.94	75.65	0.28
141.89	76.82	0.28
141.97	76.94	0.28
142.35	76.96	0.28
146.02	77.82	0.28
148.22	78.32	0.28
149.33	78.45	0.28
151.79	79.04	0.28
155.37	79.91	0.28
156.39	80	0.28
160.19	79.83	0.28
161.8	81.59	0.28
163.79	82.42	0.28
166.13	83.6	0.28
167.44	83.09	0.28
168.2	82.26	0.28
169.15	83.01	0.28
169.49	82.34	0.29
171.56	83.51	0.28
172.5	83.39	0.28
173.3	84.35	0.29

System: methyl isocyanate; phases: Liquid
Fixed: Pressure, kPa = 101.325
Property: Molar heat capacity at constant pressure, J/K/mol (Liquid); method: Vacuum adiabatic calorimetry
Temperature, K	Molar heat capacity at constant pressure, J/K/mol	uncertainty
183.24	103.39	0.3
186.5	103.34	0.3
187.36	103.26	0.3
192.13	103.09	0.3
196.44	103.09	0.3
197.5	102.93	0.3
198.47	103	0.3
201	102.97	0.3
202.92	103	0.3
211.33	103	0.3
219.74	103	0.3
228.75	102.9	0.3
238.24	103.3	0.3
247.64	103.6	0.3
257.03	104.1	0.3
266.32	104.6	0.3
275.54	105.4	0.3
284.64	106.1	0.3
293.07	107	0.3
301.23	107.7	0.3

System: methyl isocyanate; phases: Liquid, Gas
Property: Vapor or sublimation pressure, kPa (Liquid); method: Closed cell (Static) method
Temperature, K	Vapor or sublimation pressure, kPa	uncertainty
178.466	0.024	0.00667
184.026	0.036	0.00667
189.111	0.04666	0.00667
194.19	0.06666	0.00667
199.428	0.12932	0.00667
204.462	0.20532	0.00667
209.489	0.31064	0.00667
214.487	0.48263	0.00667
219.481	0.72261	0.008
224.442	1.04791	0.012
229.427	1.49988	0.01333
234.346	2.11983	0.01467
239.21	2.93843	0.016
244.155	4.03567	0.01867
249.073	5.45022	0.02133
253.977	7.28607	0.02666
258.876	9.59654	0.03066
263.718	12.46697	0.03733
268.594	16.03201	0.04533
273.398	20.31033	0.05466
278.1	25.43524	0.06533
282.71	31.40675	0.07866
287.267	38.39284	0.09466
296.383	56.22071	0.13066
297.068	57.77791	0.13332

System: methyl isocyanate; phases: Crystal
Fixed: Pressure, kPa = 101.325
Property: Molar heat capacity at constant pressure, J/K/mol (Crystal); method: Vacuum adiabatic calorimetry
Temperature, K	Molar heat capacity at constant pressure, J/K/mol	uncertainty
20	6.9	0.05
30	16.07	0.07
40	25.53	0.09
50	34.07	0.11
60	41.49	0.12
70	48.2	0.14
80	54.31	0.15
90	59.83	0.26
100	64.14	0.26
110	68.03	0.27
120	71.25	0.27
130	73.97	0.27
140	76.36	0.28
150	78.7	0.28
160	81	0.28
170	83.39	0.28

System: methyl isocyanate; phases: Crystal
Fixed: Pressure, kPa = 101.325
Property: Molar enthalpy, kJ/mol (Crystal); method: Vacuum adiabatic calorimetry
Temperature, K	Molar enthalpy, kJ/mol	uncertainty
20	0.03635	0.00046
30	0.15027	0.00153
40	0.35905	0.00237
50	0.6576	0.00338
60	1.0367	0.0045
70	1.4861	0.0059
80	1.9985	0.0073
90	2.5723	0.0206
100	3.1925	0.0232
110	3.8541	0.0259
120	4.5505	0.0286
130	5.2769	0.0313
140	6.0287	0.0341
150	6.8044	0.0368
160	7.6027	0.0396
170	8.4249	0.0425

System: methyl isocyanate; phases: Crystal
Fixed: Pressure, kPa = 101.325
Property: Molar entropy, J/K/mol (Crystal); method: Vacuum adiabatic calorimetry
Temperature, K	Molar entropy, J/K/mol	uncertainty
20	2.44	0.037
30	6.933	0.081
40	12.874	0.099
50	19.501	0.119
60	26.392	0.14
70	33.306	0.161
80	40.14	0.181
90	46.89	0.371
100	53.421	0.38
110	59.722	0.39
120	65.781	0.399
130	71.592	0.408
140	77.166	0.416
150	82.517	0.424
160	87.667	0.432
170	92.65	0.439

System: methyl isocyanate; phases: Liquid
Fixed: Pressure, kPa = 101.325
Property: Molar heat capacity at constant pressure, J/K/mol (Liquid); method: Vacuum adiabatic calorimetry
Temperature, K	Molar heat capacity at constant pressure, J/K/mol	uncertainty
180	103.4	0.3
190	103.2	0.3
200	103	0.3
210	103	0.3
220	103	0.3
230	103.1	0.3
240	103.4	0.3
250	103.8	0.3
260	104.3	0.3
270	104.9	0.3
280	105.8	0.3
290	106.7	0.3
300	107.7	0.3

System: methyl isocyanate; phases: Liquid
Fixed: Pressure, kPa = 101.325
Property: Molar enthalpy, kJ/mol (Liquid); method: Vacuum adiabatic calorimetry
Temperature, K	Molar enthalpy, kJ/mol	uncertainty
180	16.754	0.053
190	17.787	0.056
200	18.818	0.059
210	19.848	0.062
220	20.878	0.065
230	21.908	0.068
240	22.94	0.071
250	23.976	0.074
260	25.016	0.077
270	26.061	0.08
280	27.115	0.083
290	28.177	0.086
300	29.248	0.089

System: methyl isocyanate; phases: Liquid
Fixed: Pressure, kPa = 101.325
Property: Molar entropy, J/K/mol (Liquid); method: Vacuum adiabatic calorimetry
Temperature, K	Molar entropy, J/K/mol	uncertainty
180	139.42	0.51
190	145	0.52
200	150.29	0.53
210	155.31	0.53
220	160.1	0.54
230	164.68	0.55
240	169.08	0.55
250	173.31	0.56
260	177.38	0.57
270	181.33	0.57
280	185.16	0.58
290	188.89	0.58
300	192.52	0.59
