Measured thermophysical data. The heat capacity and entropy of the lithium silicides Li17Si4 and Li16.42Si4 in the temperature range from (2 to 873) K
Source: J. Chem. Thermodyn., 2015, 10.1016/j.jct.2015.01.004
Compound 1: lithium, Li, InChI=1S/Li, purity 99.8%
Compound 2: silicon, Si, InChI=1S/Si, purity 99.99%

System: lithium + silicon; phases: Crystal of intercomponent compound 1
Fixed: Mole fraction of lithium = 0.81
Fixed: Pressure, kPa = 100
Property: Molar heat capacity at constant pressure, J/K/mol (Crystal of intercomponent compound 1); method: relaxation calorimetry + DSC
Temperature, K	Molar heat capacity at constant pressure, J/K/mol	uncertainty
5	0.0184	0.0014
10	0.0403	0.0032
15	0.0895	0.007
20	0.184	0.014
25	0.347	0.014
30	0.596	0.024
35	0.934	0.038
40	1.35	0.06
45	1.85	0.08
50	2.41	0.1
60	3.63	0.15
70	5.02	0.2
80	6.43	0.26
90	7.82	0.32
100	9.14	0.37
110	10.39	0.42
120	11.56	0.47
130	12.64	0.51
140	13.65	0.55
150	14.58	0.59
160	15.43	0.63
170	16.22	0.66
180	16.94	0.69
190	17.6	0.71
200	18.2	0.74
210	18.76	0.76
220	19.27	0.78
230	19.74	0.8
240	20.18	0.82
250	20.59	0.84
260	20.98	0.85
270	21.36	0.87
280	21.72	0.88
290	22.08	0.9
298.15	22.38	0.91
300	22.58	0.92
320	23.07	0.94
340	23.51	0.95
360	23.91	0.97
380	24.29	0.99
400	24.63	1
420	24.96	1.01
440	25.28	1.03
460	25.6	1.04
480	25.91	1.05
500	26.22	1.07
520	26.54	1.08
540	26.88	1.09
560	27.23	1.11
580	27.6	1.12
600	28	1.14
620	28.43	1.15
640	28.9	1.17
660	29.4	1.19
680	29.94	1.22
700	30.53	1.24
720	31.18	1.27
740	31.88	1.29
760	32.63	1.33
780	33.45	1.36
800	34.34	1.39

System: lithium + silicon; phases: Crystal of intercomponent compound 2
Fixed: Mole fraction of lithium = 0.804
Fixed: Pressure, kPa = 100
Property: Molar heat capacity at constant pressure, J/K/mol (Crystal of intercomponent compound 2); method: relaxation calorimetry + DSC
Temperature, K	Molar heat capacity at constant pressure, J/K/mol	uncertainty
5	0.0056	0.0005
10	0.0233	0.002
15	0.0803	0.007
20	0.201	0.018
25	0.403	0.016
30	0.689	0.028
35	1.056	0.043
40	1.5	0.06
45	2.01	0.08
50	2.61	0.11
60	3.81	0.15
70	5.21	0.21
80	6.65	0.27
90	8.08	0.33
100	9.44	0.38
110	10.73	0.44
120	11.93	0.48
130	13.04	0.53
140	14.07	0.57
150	15.01	0.61
160	15.88	0.65
170	16.67	0.68
180	17.39	0.71
190	18.05	0.73
200	18.65	0.76
210	19.19	0.78
220	19.69	0.8
230	20.16	0.82
240	20.58	0.84
250	20.99	0.85
260	21.37	0.87
270	21.73	0.88
280	22.09	0.9
290	22.45	0.91
298.15	22.75	0.92
300	22.79	0.93
320	23.22	0.94
340	23.65	0.96
360	24.08	0.98
380	24.51	1
400	24.94	1.01
420	25.37	1.03
440	25.8	1.05
460	26.23	1.07
480	26.66	1.08
500	27.09	1.1
520	27.52	1.12
540	27.95	1.14
560	28.38	1.15
580	28.81	1.17
600	29.25	1.19
620	29.68	1.21
640	30.11	1.22
660	30.54	1.24
680	30.97	1.26
700	31.4	1.28
720	31.84	1.29
740	32.3	1.31
760	32.82	1.33
780	33.49	1.36
800	34.61	1.41
820	36.83	1.5
840	41.72	1.69
860	52.81	2.15

System: lithium + silicon; phases: Crystal of intercomponent compound 1
Fixed: Pressure, kPa = 100
Fixed: Mole fraction of lithium = 0.81
Property: Molar heat capacity at constant pressure, J/K/mol (Crystal of intercomponent compound 1); method: relaxation calorimetry
Temperature, K	Molar heat capacity at constant pressure, J/K/mol	uncertainty
2.03	0.0088	0.0007
2.13	0.0091	0.0007
2.25	0.0096	0.0008
2.37	0.0101	0.0008
2.49	0.0107	0.0008
2.63	0.0111	0.0009
2.77	0.0116	0.0009
2.92	0.0121	0.001
3.08	0.0126	0.001
3.24	0.0133	0.001
3.41	0.0135	0.0011
3.6	0.0141	0.0011
3.79	0.015	0.0012
3.99	0.0157	0.0012
4.2	0.0163	0.0013
4.43	0.0172	0.0014
4.67	0.0175	0.0014
4.92	0.0182	0.0014
5.18	0.0193	0.0015
5.47	0.0201	0.0016
5.76	0.0206	0.0016
6.07	0.0218	0.0017
6.39	0.0227	0.0018
6.73	0.0242	0.0019
7.09	0.0252	0.002
7.47	0.0267	0.0021
7.87	0.0284	0.0022
8.3	0.0304	0.0024
8.74	0.0327	0.0026
9.2	0.0351	0.0028
9.7	0.038	0.003
10.22	0.0412	0.0032
10.75	0.0449	0.0035
11.32	0.0492	0.0039
11.93	0.0547	0.0043
12.56	0.0613	0.0048
13.23	0.0671	0.0053
13.94	0.0741	0.0058
14.69	0.083	0.0065
15.47	0.094	0.0074
16.3	0.1071	0.0084
17.17	0.1224	0.0096
18.09	0.1403	0.011
19.06	0.1618	0.0127
20.09	0.187	0.008
21.16	0.219	0.009
22.28	0.255	0.01
23.51	0.297	0.012
24.74	0.331	0.014
26.08	0.39	0.016
27.48	0.457	0.019
28.95	0.534	0.022
30.49	0.625	0.026
32.12	0.728	0.03
33.84	0.848	0.035
35.66	0.987	0.04
37.56	1.143	0.047
39.56	1.315	0.054
41.67	1.513	0.062
43.88	1.731	0.07
46.22	1.98	0.081
48.69	2.259	0.092
51.29	2.56	0.1
54.03	2.89	0.12
56.91	3.26	0.13
59.95	3.65	0.15
63.15	4.08	0.17
66.53	4.52	0.18
70.08	5.02	0.2
73.83	5.54	0.23
77.77	6.09	0.25
81.93	6.66	0.27
86.31	7.27	0.3
90.93	7.89	0.32
91.01	7.88	0.32
95.01	8.41	0.34
99.07	8.94	0.36
103.16	9.52	0.39
107.24	10.04	0.41
111.29	10.53	0.43
115.39	11.05	0.45
119.47	11.55	0.47
123.51	12	0.49
127.61	12.47	0.51
131.69	12.88	0.52
135.76	13.31	0.54
139.83	13.71	0.56
143.86	14.08	0.57
147.97	14.51	0.59
152	14.84	0.6
156.1	15.17	0.62
160.12	15.52	0.63
164.23	15.85	0.64
168.29	16.17	0.66
172.36	16.41	0.67
176.43	16.71	0.68
180.45	16.95	0.69
184.57	17.2	0.7
188.59	17.45	0.71
192.69	17.73	0.72
196.78	17.96	0.73
200.8	18.22	0.74
204.92	18.43	0.75
208.93	18.63	0.76
213.05	18.87	0.77
217.11	19.04	0.77
221.12	19.24	0.78
225.24	19.46	0.79
229.3	19.66	0.8
233.3	19.83	0.81
237.41	20	0.81
241.48	20.17	0.82
245.48	20.3	0.82
249.6	20.44	0.83
253.67	20.58	0.84
257.66	20.7	0.84
261.78	20.8	0.84
265.84	20.92	0.85
269.85	21.06	0.86
273.9	21.15	0.86
278.02	21.25	0.86
282.08	21.37	0.87
286.08	21.42	0.87
290.12	21.52	0.87
294.26	21.6	0.88
298.32	21.66	0.88
302.31	21.75	0.88

System: lithium + silicon; phases: Crystal of intercomponent compound 1
Fixed: Pressure, kPa = 100
Fixed: Mole fraction of lithium = 0.81
Property: Molar heat capacity at constant pressure, J/K/mol (Crystal of intercomponent compound 1); method: Small sample (50 mg) DSC
Temperature, K	Molar heat capacity at constant pressure, J/K/mol	uncertainty
284.87	22.13	0.54
284.87	22.16	0.54
294.8	22.38	0.55
294.8	22.54	0.55
304.7	22.87	0.56
304.7	22.84	0.56
304.87	22.81	0.56
304.88	22.77	0.56
314.61	23.01	0.56
314.61	23.1	0.57
314.8	22.99	0.56
314.81	22.91	0.56
324.52	23.19	0.57
324.52	23.22	0.57
324.71	23.19	0.57
324.72	23.11	0.57
334.44	23.32	0.57
334.44	23.34	0.57
334.63	23.4	0.57
334.64	23.38	0.57
344.35	23.65	0.58
344.35	23.63	0.58
344.54	23.6	0.58
344.55	23.53	0.58
354.26	23.98	0.59
354.26	23.97	0.59
354.45	23.8	0.58
354.46	23.72	0.58
364.17	24.15	0.59
364.17	24.13	0.59
364.36	24.02	0.59
364.37	23.91	0.59
374.08	24.33	0.6
374.08	24.27	0.59
374.28	24.24	0.59
374.28	24.13	0.59
384.19	24.35	0.6
384.2	24.46	0.6
394.11	24.46	0.6
394.12	24.68	0.6
404.02	24.57	0.6
404.03	25.01	0.61
413.94	24.68	0.6
413.94	25.12	0.62
423.85	24.68	0.6
423.86	25.12	0.62
433.76	25.01	0.61
433.77	25.23	0.62
443.67	25.01	0.61
443.69	25.56	0.63
453.59	25.01	0.61
453.6	25.67	0.63
463.5	25.45	0.62
463.51	25.78	0.63
473.42	25.23	0.62
473.43	26	0.64
483.33	25.45	0.62
483.34	26.11	0.64
493.24	25.56	0.63
493.26	26.32	0.64
503.15	25.78	0.63
503.17	26.43	0.65
513.06	25.89	0.63
513.08	26.54	0.65
522.97	26.11	0.64
522.99	26.76	0.66
532.88	26.21	0.64
532.9	26.98	0.66
542.79	26.54	0.65
542.81	27.31	0.67
552.7	26.76	0.66
552.72	27.53	0.67
562.61	27.09	0.66
562.63	27.75	0.68
572.52	27.31	0.67
572.54	27.97	0.69
582.43	27.53	0.67
582.45	28.19	0.69
592.34	27.86	0.68
592.36	28.41	0.7
602.26	28.19	0.69
602.27	28.63	0.7
612.17	28.3	0.69
612.18	28.74	0.7
622.08	28.41	0.7
622.09	28.96	0.71
631.99	28.74	0.7
632.01	29.07	0.71
641.89	28.96	0.71
641.92	29.29	0.72
651.81	29.07	0.71
651.84	29.51	0.72
661.72	29.4	0.72
661.75	29.72	0.73
671.64	29.62	0.73
671.66	29.83	0.73
681.56	29.62	0.73
681.57	30.16	0.74
691.47	29.94	0.73
691.48	30.38	0.74
701.37	30.27	0.74
701.39	30.6	0.75
711.28	30.6	0.75
711.3	30.82	0.75
721.2	30.49	0.75
721.22	31.15	0.76
731.12	31.04	0.76
731.13	31.37	0.77
741.03	31.26	0.77
741.04	31.7	0.78
750.95	31.81	0.78
750.96	32.14	0.79
760.87	32.14	0.79
760.87	32.58	0.8
770.79	33.23	0.82
770.79	33.34	0.82
771.71	33.67	0.83
773.69	33.78	0.83
775.67	33.89	0.83
777.66	34.22	0.84
779.64	34.39	0.84
780.7	34	0.83
780.71	34.22	0.84
781.63	34.88	0.85
783.61	34.99	0.86
785.59	35.21	0.86
787.58	35.32	0.87
789.57	35.32	0.87
790.61	34.99	0.86
790.63	34.55	0.85
791.55	35.54	0.87
793.53	35.76	0.88
795.51	36.31	0.89
797.49	36.96	0.91

System: lithium + silicon; phases: Crystal of intercomponent compound 2
Fixed: Pressure, kPa = 100
Fixed: Mole fraction of lithium = 0.804
Property: Molar heat capacity at constant pressure, J/K/mol (Crystal of intercomponent compound 2); method: relaxation calorimeter
Temperature, K	Molar heat capacity at constant pressure, J/K/mol	uncertainty
2.03	0.0022	0.0002
2.03	0.0022	0.0002
2.13	0.0023	0.0002
2.14	0.0022	0.0002
2.25	0.0024	0.0002
2.25	0.0023	0.0002
2.37	0.0024	0.0002
2.37	0.0025	0.0002
2.49	0.0026	0.0002
2.5	0.0025	0.0002
2.63	0.0028	0.0002
2.63	0.0025	0.0002
2.77	0.0028	0.0002
2.77	0.0028	0.0002
2.92	0.0031	0.0003
2.92	0.003	0.0002
3.08	0.0032	0.0003
3.08	0.003	0.0002
3.24	0.0035	0.0003
3.24	0.0032	0.0003
3.41	0.0036	0.0003
3.41	0.0036	0.0003
3.6	0.0039	0.0003
3.6	0.0036	0.0003
3.79	0.0041	0.0003
3.79	0.004	0.0003
3.99	0.0044	0.0004
3.99	0.0042	0.0003
4.2	0.0047	0.0004
4.2	0.0044	0.0004
4.43	0.0048	0.0004
4.43	0.005	0.0004
4.66	0.0051	0.0004
4.67	0.0052	0.0004
4.91	0.0056	0.0004
4.92	0.0054	0.0004
5.18	0.006	0.0005
5.18	0.0057	0.0005
5.46	0.0064	0.0005
5.47	0.0061	0.0005
5.76	0.007	0.0006
5.76	0.0066	0.0005
6.07	0.0075	0.0006
6.07	0.0071	0.0006
6.39	0.0083	0.0007
6.39	0.0079	0.0006
6.73	0.0091	0.0007
6.73	0.0088	0.0007
7.09	0.0098	0.0008
7.09	0.01	0.0008
7.47	0.0113	0.0009
7.47	0.0109	0.0009
7.87	0.0126	0.001
7.87	0.0123	0.001
8.29	0.0143	0.0011
8.29	0.0139	0.0011
8.74	0.016	0.0013
8.74	0.0162	0.0013
9.2	0.0183	0.0014
9.2	0.0187	0.0015
9.69	0.0216	0.0017
9.69	0.0208	0.0016
10.22	0.0245	0.0019
10.22	0.025	0.002
10.75	0.0286	0.0022
10.75	0.0291	0.0023
11.32	0.0342	0.0027
11.32	0.0335	0.0026
11.93	0.0403	0.0032
11.93	0.0398	0.0031
12.56	0.0482	0.0038
12.56	0.0474	0.0037
13.23	0.0553	0.0043
13.24	0.0547	0.0043
13.94	0.0639	0.005
13.95	0.0628	0.0049
14.69	0.0753	0.0059
14.69	0.0743	0.0058
15.47	0.0889	0.007
15.48	0.0879	0.0069
16.3	0.1049	0.0082
16.31	0.1039	0.0082
17.18	0.1233	0.0097
17.18	0.1231	0.0097
18.09	0.1454	0.0114
18.1	0.1461	0.0115
19.07	0.1725	0.0135
19.07	0.1731	0.0136
20.09	0.205	0.008
20.1	0.203	0.008
21.16	0.24	0.01
21.17	0.242	0.01
22.3	0.283	0.012
22.3	0.286	0.012
23.49	0.333	0.014
23.49	0.337	0.014
24.75	0.391	0.016
24.75	0.396	0.016
26.07	0.458	0.019
26.07	0.454	0.019
27.47	0.534	0.022
27.48	0.531	0.022
28.94	0.623	0.025
28.95	0.619	0.025
30.48	0.723	0.03
30.5	0.718	0.029
32.11	0.835	0.034
32.12	0.832	0.034
33.83	0.964	0.039
33.84	0.961	0.039
35.64	1.113	0.045
35.65	1.109	0.045
37.54	1.278	0.052
37.56	1.272	0.052
39.55	1.458	0.059
39.57	1.455	0.059
41.66	1.664	0.068
41.68	1.659	0.068
43.89	1.888	0.077
43.9	1.888	0.077
46.23	2.145	0.087
46.23	2.142	0.087
48.7	2.429	0.099
48.72	2.429	0.099
51.3	2.74	0.11
51.3	2.74	0.11
54.03	3.08	0.13
54.04	3.08	0.13
56.92	3.45	0.14
56.92	3.45	0.14
59.96	3.84	0.16
59.96	3.84	0.16
63.17	4.27	0.17
63.18	4.27	0.17
66.54	4.72	0.19
66.55	4.73	0.19
70.1	5.22	0.21
70.11	5.22	0.21
73.84	5.75	0.23
73.86	5.75	0.23
77.78	6.31	0.26
77.8	6.32	0.26
81.94	6.9	0.28
81.95	6.9	0.28
86.32	7.53	0.31
86.33	7.53	0.31
90.93	8.14	0.33
90.95	8.17	0.33
91	8.16	0.33
91.02	8.18	0.33
95.02	8.71	0.35
95.04	8.73	0.35
99.06	9.29	0.38
99.08	9.32	0.38
103.16	9.83	0.4
103.18	9.87	0.4
107.25	10.37	0.42
107.26	10.4	0.42
111.29	10.88	0.44
111.31	10.88	0.44
115.4	11.39	0.46
115.41	11.41	0.46
119.47	11.87	0.48
119.49	11.92	0.48
123.51	12.35	0.5
123.53	12.4	0.5
127.62	12.78	0.52
127.64	12.84	0.52
131.69	13.22	0.54
131.71	13.3	0.54
135.76	13.64	0.55
135.78	13.71	0.56
139.83	14.04	0.57
139.85	14.09	0.57
143.87	14.45	0.59
143.88	14.5	0.59
147.98	14.83	0.6
147.99	14.94	0.61
152	15.17	0.62
152.02	15.29	0.62
156.1	15.54	0.63
156.12	15.62	0.63
160.13	15.86	0.64
160.14	15.96	0.65
164.23	16.22	0.66
164.24	16.27	0.66
168.29	16.53	0.67
168.31	16.6	0.67
172.36	16.79	0.68
172.38	16.9	0.69
176.43	17.06	0.69
176.43	17.19	0.7
180.45	17.33	0.7
180.46	17.44	0.71
184.56	17.58	0.71
184.57	17.69	0.72
188.58	17.84	0.72
188.59	17.97	0.73
192.69	18.09	0.73
192.71	18.27	0.74
196.74	18.32	0.74
196.78	18.47	0.75
200.77	18.54	0.75
200.8	18.74	0.76
204.91	18.8	0.76
204.93	18.97	0.77
208.92	19.05	0.77
208.94	19.19	0.78
213.04	19.24	0.78
213.05	19.41	0.79
217.1	19.42	0.79
217.12	19.59	0.8
221.11	19.62	0.8
221.13	19.84	0.81
225.23	19.86	0.81
225.25	20.03	0.81
229.28	20.05	0.81
229.31	20.22	0.82
233.29	20.23	0.82
233.31	20.38	0.83
237.4	20.4	0.83
237.43	20.54	0.83
241.46	20.62	0.84
241.49	20.73	0.84
245.47	20.87	0.85
245.5	20.93	0.85
249.59	21	0.85
249.62	21.13	0.86
253.66	21.14	0.86
253.68	21.27	0.86
257.65	21.3	0.87
257.68	21.42	0.87
261.78	21.42	0.87
261.79	21.54	0.87
265.83	21.55	0.88
265.86	21.64	0.88
269.82	21.67	0.88
269.85	21.75	0.88
273.88	21.84	0.89
273.91	21.9	0.89
278.02	21.93	0.89
278.04	22	0.89
282.07	22.06	0.9
282.09	22.11	0.9
286.06	22.16	0.9
286.08	22.26	0.9
290.13	22.36	0.91
294.27	22.5	0.91
298.33	22.58	0.92
302.34	22.69	0.92

System: lithium + silicon; phases: Crystal of intercomponent compound 2
Fixed: Pressure, kPa = 100
Fixed: Mole fraction of lithium = 0.804
Property: Molar heat capacity at constant pressure, J/K/mol (Crystal of intercomponent compound 2); method: Small sample (50 mg) DSC
Temperature, K	Molar heat capacity at constant pressure, J/K/mol	uncertainty
284.87	22.41	0.55
294.79	22.86	0.56
304.67	23.11	0.57
304.67	23.16	0.57
304.7	23.05	0.56
314.59	23.41	0.57
314.59	23.55	0.58
314.61	23.42	0.57
324.51	23.8	0.58
324.51	23.85	0.58
324.52	23.8	0.58
334.42	24.09	0.59
334.42	24.14	0.59
334.43	24.12	0.59
344.33	24.3	0.6
344.33	24.38	0.6
344.35	24.37	0.6
354.24	24.56	0.6
354.24	24.6	0.6
354.26	24.57	0.6
364.16	24.81	0.61
364.16	24.83	0.61
364.17	24.69	0.6
374.07	24.83	0.61
374.07	24.87	0.61
374.07	24.94	0.61
383.99	25.05	0.61
383.99	25.05	0.61
393.9	25.16	0.62
393.9	25.27	0.62
403.81	25.3	0.62
403.81	25.35	0.62
413.73	25.46	0.62
413.73	25.49	0.62
423.64	25.57	0.63
423.64	25.65	0.63
433.56	25.68	0.63
433.56	25.75	0.63
443.48	25.83	0.63
443.48	25.95	0.64
453.39	25.96	0.64
453.39	26.21	0.64
463.31	26.1	0.64
463.31	26.34	0.65
473.22	26.29	0.64
473.22	26.62	0.65
483.13	26.48	0.65
483.13	26.77	0.66
493.04	26.73	0.65
493.04	26.89	0.66
502.95	26.84	0.66
502.95	27.04	0.66
512.86	27	0.66
512.86	27.24	0.67
522.77	27.23	0.67
522.77	27.49	0.67
532.68	27.46	0.67
532.68	27.67	0.68
542.58	27.67	0.68
542.58	27.88	0.68
552.5	27.8	0.68
552.5	28	0.69
562.41	27.97	0.69
562.41	28.24	0.69
572.33	28.21	0.69
572.33	28.37	0.69
582.24	28.41	0.7
582.24	28.65	0.7
592.15	28.65	0.7
592.15	28.85	0.71
602.06	28.86	0.71
602.06	29.05	0.71
611.97	29.02	0.71
611.97	29.19	0.72
621.88	29.19	0.72
621.88	29.48	0.72
631.8	29.46	0.72
631.8	29.65	0.73
641.71	29.67	0.73
641.71	29.92	0.73
651.63	29.86	0.73
651.63	30.21	0.74
661.54	30.1	0.74
661.54	30.48	0.75
671.45	30.27	0.74
671.45	30.68	0.75
681.36	30.52	0.75
681.36	30.84	0.76
691.29	30.56	0.75
691.29	31.08	0.76
701.21	31.04	0.76
701.21	31.36	0.77
711.13	31.38	0.77
711.13	31.59	0.77
721.05	31.75	0.78
721.05	32.03	0.78
730.97	32.1	0.79
730.97	32.36	0.79
740.89	32.38	0.79
740.89	32.64	0.8
750.81	32.68	0.8
750.81	32.92	0.81
760.73	33.14	0.81
760.73	33.47	0.82
770.64	33.77	0.83
770.64	34.02	0.83
780.56	34.41	0.84
780.56	34.69	0.85
790.48	34.65	0.85
790.48	35.21	0.86
800.39	35.13	0.86
800.39	35.58	0.87
810.3	35.47	0.87
810.3	36.02	0.88
820.22	36.24	0.89
820.22	36.35	0.89
830.13	38.35	0.94
830.13	38.57	0.95
840.04	41.23	1.01
840.04	41.78	1.03
849.95	45.22	1.11
849.95	47.32	1.16
859.87	51.54	1.27
859.87	53.53	1.32
869.79	60.18	1.48
869.79	65.17	1.62
