Measured thermophysical data. Partial molar volume and partial molar compressibility of four homologous alpha-amino acids in aqueous sodium fluoride solutions at different temperatures
Source: J. Chem. Thermodyn., 2011, 10.1016/j.jct.2011.01.004
Compound 1: 2-aminoacetic acid, C2H5NO2, InChI=1S/C2H5NO2/c3-1-2(4)5/h1,3H2,(H,4,5), purity 99%
Compound 2: (S)-2-aminopropanoic acid, C3H7NO2, InChI=1S/C3H7NO2/c1-2(4)3(5)6/h2H,4H2,1H3,(H,5,6)/t2-/m0/s1, purity 99%
Compound 3: L-valine, C5H11NO2, InChI=1S/C5H11NO2/c1-3(2)4(6)5(7)8/h3-4H,6H2,1-2H3,(H,7,8)/t4-/m0/s1, purity 99%
Compound 4: L-leucine, C6H13NO2, InChI=1S/C6H13NO2/c1-4(2)3-5(7)6(8)9/h4-5H,3,7H2,1-2H3,(H,8,9)/t5-/m0/s1, purity 99%
Compound 5: water, H2O, InChI=1S/H2O/h1H2, purity 99.9%
Compound 6: sodium fluoride, FNa, InChI=1S/FH.Na/h1H;/q;+1/p-1, purity 99%

System: 2-aminoacetic acid + sodium fluoride + water; phases: Liquid
Fixed: Pressure, kPa = 101
Property: Speed of sound, m/s (Liquid); method: multifrequency ultra sonic interferometer
Temperature, K	Solvent: Molality, mol/kg of sodium fluoride	Molality, mol/kg of 2-aminoacetic acid	Speed of sound, m/s	uncertainty
308.15	0	0	1520.4	2
308.15	0	0.02	1521.4	2
308.15	0	0.04	1522.3	2
308.15	0	0.06	1523.2	2
308.15	0	0.08	1524	2
308.15	0	0.1	1525	2
308.15	0.1	0	1530.6	2
308.15	0.1	0.02	1531.5	2
308.15	0.1	0.04	1532.2	2
308.15	0.1	0.06	1533	2
308.15	0.1	0.08	1534	2
308.15	0.1	0.1	1534.9	2
308.15	0.3	0	1547.7	2
308.15	0.3	0.02	1548.5	2
308.15	0.3	0.04	1549.3	2
308.15	0.3	0.06	1550	2
308.15	0.3	0.08	1550.9	2
308.15	0.3	0.1	1551.5	2
308.15	0.5	0	1560.9	2
308.15	0.5	0.02	1561.6	2
308.15	0.5	0.04	1562.2	2
308.15	0.5	0.06	1563	2
308.15	0.5	0.08	1563.6	2
308.15	0.5	0.1	1564.4	2
313.15	0	0	1528	2
313.15	0	0.02	1529	2
313.15	0	0.04	1529.8	2
313.15	0	0.06	1530.7	2
313.15	0	0.08	1531.8	2
313.15	0	0.1	1532.7	2
313.15	0.1	0	1540.1	2
313.15	0.1	0.02	1540.9	2
313.15	0.1	0.04	1541.5	2
313.15	0.1	0.06	1542.1	2
313.15	0.1	0.08	1543.1	2
313.15	0.1	0.1	1543.9	2
313.15	0.3	0	1555.8	2
313.15	0.3	0.02	1556.5	2
313.15	0.3	0.04	1557.1	2
313.15	0.3	0.06	1557.7	2
313.15	0.3	0.08	1558.4	2
313.15	0.3	0.1	1559.3	2
313.15	0.5	0	1566.4	2
313.15	0.5	0.02	1567	2
313.15	0.5	0.04	1567.5	2
313.15	0.5	0.06	1568.2	2
313.15	0.5	0.08	1568.9	2
313.15	0.5	0.1	1569.7	2
318.15	0	0	1535.2	2
318.15	0	0.02	1536.2	2
318.15	0	0.04	1537.1	2
318.15	0	0.06	1537.8	2
318.15	0	0.08	1538.9	2
318.15	0	0.1	1539.8	2
318.15	0.1	0	1547.3	2
318.15	0.1	0.02	1548	2
318.15	0.1	0.04	1548.7	2
318.15	0.1	0.06	1549.2	2
318.15	0.1	0.08	1550.1	2
318.15	0.1	0.1	1551	2
318.15	0.3	0	1562.9	2
318.15	0.3	0.02	1563.5	2
318.15	0.3	0.04	1564	2
318.15	0.3	0.06	1564.7	2
318.15	0.3	0.08	1565.4	2
318.15	0.3	0.1	1566.2	2
318.15	0.5	0	1572.1	2
318.15	0.5	0.02	1572.6	2
318.15	0.5	0.04	1573.1	2
318.15	0.5	0.06	1573.7	2
318.15	0.5	0.08	1574.6	2
318.15	0.5	0.1	1575.2	2

System: 2-aminoacetic acid + sodium fluoride + water; phases: Liquid
Fixed: Pressure, kPa = 101
Property: Mass density, kg/m3 (Liquid); method: Pycnometric method
Temperature, K	Solvent: Molality, mol/kg of sodium fluoride	Molality, mol/kg of 2-aminoacetic acid	Mass density, kg/m3	uncertainty
308.15	0	0	994	1.2
308.15	0	0.02	994.6	1.2
308.15	0	0.04	995.3	1.2
308.15	0	0.06	995.9	1.2
308.15	0	0.08	996.5	1.2
308.15	0	0.1	997	1.2
308.15	0.1	0	998.7	1.2
308.15	0.1	0.02	999.3	1.2
308.15	0.1	0.04	1000	1.2
308.15	0.1	0.06	1000.6	1.2
308.15	0.1	0.08	1001.1	1.2
308.15	0.1	0.1	1001.6	1.2
308.15	0.3	0	1007.1	1.2
308.15	0.3	0.02	1007.7	1.2
308.15	0.3	0.04	1008.3	1.2
308.15	0.3	0.06	1008.9	1.2
308.15	0.3	0.08	1009.4	1.2
308.15	0.3	0.1	1010	1.2
308.15	0.5	0	1015.4	1.2
308.15	0.5	0.02	1016	1
308.15	0.5	0.04	1016.6	1.2
308.15	0.5	0.06	1017.1	1.2
308.15	0.5	0.08	1017.7	1.2
308.15	0.5	0.1	1018.1	1.2
313.15	0	0	992.2	1.2
313.15	0	0.02	992.8	1.2
313.15	0	0.04	993.5	1.2
313.15	0	0.06	994.1	1.2
313.15	0	0.08	994.6	1.2
313.15	0	0.1	995.2	1.2
313.15	0.1	0	996.8	1.2
313.15	0.1	0.02	997.4	1.2
313.15	0.1	0.04	998.1	1.2
313.15	0.1	0.06	998.7	1.2
313.15	0.1	0.08	999.1	1.2
313.15	0.1	0.1	999.6	1.2
313.15	0.3	0	1005.2	1.2
313.15	0.3	0.02	1005.8	1.2
313.15	0.3	0.04	1006.4	1.2
313.15	0.3	0.06	1007	1.2
313.15	0.3	0.08	1007.5	1.2
313.15	0.3	0.1	1007.9	1.2
313.15	0.5	0	1013.4	1.2
313.15	0.5	0.02	1014	1.2
313.15	0.5	0.04	1014.6	1.2
313.15	0.5	0.06	1015.1	1.2
313.15	0.5	0.08	1015.6	1.2
313.15	0.5	0.1	1016	1.2
318.15	0	0	990.2	1.2
318.15	0	0.02	990.8	1.2
318.15	0	0.04	991.4	1.2
318.15	0	0.06	992.1	1.2
318.15	0	0.08	992.6	1.2
318.15	0	0.1	993.2	1.2
318.15	0.1	0	994.5	1.2
318.15	0.1	0.02	995.1	1.2
318.15	0.1	0.04	995.7	1.2
318.15	0.1	0.06	996.4	1.2
318.15	0.1	0.08	996.8	1.2
318.15	0.1	0.1	997.2	1.2
318.15	0.3	0	1002.9	1.2
318.15	0.3	0.02	1003.5	1.2
318.15	0.3	0.04	1004.1	1.2
318.15	0.3	0.06	1004.6	1.2
318.15	0.3	0.08	1005.1	1.2
318.15	0.3	0.1	1005.5	1.2
318.15	0.5	0	1011.1	1.2
318.15	0.5	0.02	1011.7	1.2
318.15	0.5	0.04	1012.3	1.2
318.15	0.5	0.06	1012.8	1.2
318.15	0.5	0.08	1013.1	1.2
318.15	0.5	0.1	1013.6	1.2

System: (S)-2-aminopropanoic acid + sodium fluoride + water; phases: Liquid
Fixed: Pressure, kPa = 101
Property: Speed of sound, m/s (Liquid); method: multifrequency ultra sonic interferometer
Temperature, K	Solvent: Molality, mol/kg of sodium fluoride	Molality, mol/kg of (S)-2-aminopropanoic acid	Speed of sound, m/s	uncertainty
308.15	0	0	1520.4	2
308.15	0	0.02	1521.6	2
308.15	0	0.04	1522.7	2
308.15	0	0.06	1523.9	2
308.15	0	0.08	1525.2	2
308.15	0	0.1	1526.5	2
308.15	0.1	0	1530.6	2
308.15	0.1	0.02	1531.9	2
308.15	0.1	0.04	1532.7	2
308.15	0.1	0.06	1533.8	2
308.15	0.1	0.08	1534.8	2
308.15	0.1	0.1	1535.4	2
308.15	0.3	0	1547.7	2
308.15	0.3	0.02	1548.9	2
308.15	0.3	0.04	1550	2
308.15	0.3	0.06	1551.1	2
308.15	0.3	0.08	1551.9	2
308.15	0.3	0.1	1552.5	2
308.15	0.5	0	1560.9	2
308.15	0.5	0.02	1562.1	2
308.15	0.5	0.04	1562.9	2
308.15	0.5	0.06	1563.7	2
308.15	0.5	0.08	1564.6	2
308.15	0.5	0.1	1565.5	2
313.15	0	0	1528	2
313.15	0	0.02	1529.1	2
313.15	0	0.04	1530.3	2
313.15	0	0.06	1531.4	2
313.15	0	0.08	1532.5	2
313.15	0	0.1	1533.5	2
313.15	0.1	0	1540.1	2
313.15	0.1	0.02	1541.3	2
313.15	0.1	0.04	1542.3	2
313.15	0.1	0.06	1543.4	2
313.15	0.1	0.08	1544.5	2
313.15	0.1	0.1	1545.4	2
313.15	0.3	0	1555.8	2
313.15	0.3	0.02	1556.9	2
313.15	0.3	0.04	1557.9	2
313.15	0.3	0.06	1558.9	2
313.15	0.3	0.08	1559.6	2
313.15	0.3	0.1	1560.1	2
313.15	0.5	0	1566.4	2
313.15	0.5	0.02	1567.5	2
313.15	0.5	0.04	1568.6	2
313.15	0.5	0.06	1569.6	2
313.15	0.5	0.08	1571.1	2
313.15	0.5	0.1	1571.8	2
318.15	0	0	1535.2	2
318.15	0	0.02	1536.5	2
318.15	0	0.04	1537.2	2
318.15	0	0.06	1538.3	2
318.15	0	0.08	1539.6	2
318.15	0	0.1	1540.5	2
318.15	0.1	0	1547.3	2
318.15	0.1	0.02	1548.4	2
318.15	0.1	0.04	1549.3	2
318.15	0.1	0.06	1550.1	2
318.15	0.1	0.08	1550.8	2
318.15	0.1	0.1	1551.4	2
318.15	0.3	0	1562.9	2
318.15	0.3	0.02	1563.9	2
318.15	0.3	0.04	1564.8	2
318.15	0.3	0.06	1565.5	2
318.15	0.3	0.08	1566.4	2
318.15	0.3	0.1	1566.9	2
318.15	0.5	0	1572.1	2
318.15	0.5	0.02	1573.1	2
318.15	0.5	0.04	1574.2	2
318.15	0.5	0.06	1575.2	2
318.15	0.5	0.08	1576.3	2
318.15	0.5	0.1	1577.3	2

System: (S)-2-aminopropanoic acid + sodium fluoride + water; phases: Liquid
Fixed: Pressure, kPa = 101
Property: Mass density, kg/m3 (Liquid); method: Pycnometric method
Temperature, K	Solvent: Molality, mol/kg of sodium fluoride	Molality, mol/kg of (S)-2-aminopropanoic acid	Mass density, kg/m3	uncertainty
308.15	0	0	994	1.2
308.15	0	0.02	994.6	1.2
308.15	0	0.04	995.2	1.2
308.15	0	0.06	995.7	1.2
308.15	0	0.08	996.2	1.2
308.15	0	0.1	996.8	1.2
308.15	0.1	0	998.7	1.2
308.15	0.1	0.02	999.2	1.2
308.15	0.1	0.04	999.8	1.2
308.15	0.1	0.06	1000.4	1.2
308.15	0.1	0.08	1000.9	1.2
308.15	0.1	0.1	1001.5	1.2
308.15	0.3	0	1007.1	1.2
308.15	0.3	0.02	1007.6	1.2
308.15	0.3	0.04	1008.1	1.2
308.15	0.3	0.06	1008.7	1.2
308.15	0.3	0.08	1009.2	1.2
308.15	0.3	0.1	1009.7	1.2
308.15	0.5	0	1015.4	1.2
308.15	0.5	0.02	1015.9	1.2
308.15	0.5	0.04	1016.4	1.2
308.15	0.5	0.06	1016.9	1.2
308.15	0.5	0.08	1017.3	1.2
308.15	0.5	0.1	1017.8	1.2
313.15	0	0	992.2	1.2
313.15	0	0.02	992.8	1.2
313.15	0	0.04	993.3	1.2
313.15	0	0.06	993.9	1.2
313.15	0	0.08	994.3	1.2
313.15	0	0.1	994.9	1.2
313.15	0.1	0	996.8	1.2
313.15	0.1	0.02	997.3	1.2
313.15	0.1	0.04	997.9	1.2
313.15	0.1	0.06	998.4	1.2
313.15	0.1	0.08	998.9	1.2
313.15	0.1	0.1	999.4	1.2
313.15	0.3	0	1005.2	1.2
313.15	0.3	0.02	1005.7	1.2
313.15	0.3	0.04	1006.2	1.2
313.15	0.3	0.06	1006.7	1.2
313.15	0.3	0.08	1007.2	1.2
313.15	0.3	0.1	1007.7	1.2
313.15	0.5	0	1013.4	1.2
313.15	0.5	0.02	1013.9	1.2
313.15	0.5	0.04	1014.4	1.2
313.15	0.5	0.06	1014.8	1.2
313.15	0.5	0.08	1015.2	1.2
313.15	0.5	0.1	1015.7	1.2
318.15	0	0	990.2	1.2
318.15	0	0.02	990.7	1.2
318.15	0	0.04	991.4	1.2
318.15	0	0.06	991.9	1.2
318.15	0	0.08	992.4	1.2
318.15	0	0.1	993	1.2
318.15	0.1	0	994.5	1.2
318.15	0.1	0.02	995	1.2
318.15	0.1	0.04	995.5	1.2
318.15	0.1	0.06	996	1.2
318.15	0.1	0.08	996.6	1.2
318.15	0.1	0.1	997.1	1.2
318.15	0.3	0	1002.9	1.2
318.15	0.3	0.02	1003.4	1.2
318.15	0.3	0.04	1003.9	1.2
318.15	0.3	0.06	1004.3	1.2
318.15	0.3	0.08	1004.8	1.2
318.15	0.3	0.1	1005.2	1.2
318.15	0.5	0	1011.1	1.2
318.15	0.5	0.02	1011.6	1.2
318.15	0.5	0.04	1012	1.2
318.15	0.5	0.06	1012.5	1.2
318.15	0.5	0.08	1012.9	1.2
318.15	0.5	0.1	1013.3	1.2

System: L-valine + sodium fluoride + water; phases: Liquid
Fixed: Pressure, kPa = 101
Property: Speed of sound, m/s (Liquid); method: multifrequency ultra sonic interferometer
Temperature, K	Solvent: Molality, mol/kg of sodium fluoride	Molality, mol/kg of L-valine	Speed of sound, m/s	uncertainty
308.15	0	0	1520.4	2
308.15	0	0.02	1522	2
308.15	0	0.04	1523.5	2
308.15	0	0.06	1525.1	2
308.15	0	0.08	1526.9	2
308.15	0	0.1	1528.7	2
308.15	0.1	0	1530.6	2
308.15	0.1	0.02	1532.2	2
308.15	0.1	0.04	1533.7	2
308.15	0.1	0.06	1534.7	2
308.15	0.1	0.08	1535.8	2
308.15	0.1	0.1	1536.8	2
308.15	0.3	0	1547.7	2
308.15	0.3	0.02	1549.4	2
308.15	0.3	0.04	1550.6	2
308.15	0.3	0.06	1551.8	2
308.15	0.3	0.08	1552.8	2
308.15	0.3	0.1	1554	2
308.15	0.5	0	1560.9	2
308.15	0.5	0.02	1562.7	2
308.15	0.5	0.04	1563.9	2
308.15	0.5	0.06	1565	2
308.15	0.5	0.08	1566.1	2
308.15	0.5	0.1	1567.3	2
313.15	0	0	1528	2
313.15	0	0.02	1529.7	2
313.15	0	0.04	1531.2	2
313.15	0	0.06	1532.8	2
313.15	0	0.08	1534.4	2
313.15	0	0.1	1536.2	2
313.15	0.1	0	1540.1	2
313.15	0.1	0.02	1541.7	2
313.15	0.1	0.04	1543.2	2
313.15	0.1	0.06	1544.2	2
313.15	0.1	0.08	1545.4	2
313.15	0.1	0.1	1546.5	2
313.15	0.3	0	1555.8	2
313.15	0.3	0.02	1557.6	2
313.15	0.3	0.04	1558.7	2
313.15	0.3	0.06	1559.7	2
313.15	0.3	0.08	1560.8	2
313.15	0.3	0.1	1562.1	2
313.15	0.5	0	1566.4	2
313.15	0.5	0.02	1568.1	2
313.15	0.5	0.04	1569.4	2
313.15	0.5	0.06	1570.6	2
313.15	0.5	0.08	1571.9	2
313.15	0.5	0.1	1572.9	2
318.15	0	0	1535.2	2
318.15	0	0.02	1536.9	2
318.15	0	0.04	1538.4	2
318.15	0	0.06	1539.9	2
318.15	0	0.08	1541.5	2
318.15	0	0.1	1543.1	2
318.15	0.1	0	1547.3	2
318.15	0.1	0.02	1548.8	2
318.15	0.1	0.04	1550.4	2
318.15	0.1	0.06	1551.6	2
318.15	0.1	0.08	1553	2
318.15	0.1	0.1	1554.2	2
318.15	0.3	0	1562.9	2
318.15	0.3	0.02	1564.6	2
318.15	0.3	0.04	1565.7	2
318.15	0.3	0.06	1566.9	2
318.15	0.3	0.08	1568.2	2
318.15	0.3	0.1	1569.3	2
318.15	0.5	0	1572.1	2
318.15	0.5	0.02	1573.7	2
318.15	0.5	0.04	1575	2
318.15	0.5	0.06	1576.3	2
318.15	0.5	0.08	1577.7	2
318.15	0.5	0.1	1578.6	2

System: L-valine + sodium fluoride + water; phases: Liquid
Fixed: Pressure, kPa = 101
Property: Mass density, kg/m3 (Liquid); method: Pycnometric method
Temperature, K	Solvent: Molality, mol/kg of sodium fluoride	Molality, mol/kg of L-valine	Mass density, kg/m3	uncertainty
308.15	0	0	994	1.2
308.15	0	0.02	994.6	1.2
308.15	0	0.04	995.1	1.2
308.15	0	0.06	995.6	1.2
308.15	0	0.08	996.1	1.2
308.15	0	0.1	996.5	1.2
308.15	0.1	0	998.7	1.2
308.15	0.1	0.02	999.2	1.2
308.15	0.1	0.04	999.7	1.2
308.15	0.1	0.06	1000.1	1.2
308.15	0.1	0.08	1000.7	1.2
308.15	0.1	0.1	1001.1	1.2
308.15	0.3	0	1007.1	1.2
308.15	0.3	0.02	1007.6	1.2
308.15	0.3	0.04	1008	1.2
308.15	0.3	0.06	1008.5	1.2
308.15	0.3	0.08	1009	1.2
308.15	0.3	0.1	1009.3	1.2
308.15	0.5	0	1015.4	1.2
308.15	0.5	0.02	1015.8	1.2
308.15	0.5	0.04	1016.2	1.2
308.15	0.5	0.06	1016.8	1.2
308.15	0.5	0.08	1017.2	1.2
308.15	0.5	0.1	1017.6	1.2
313.15	0	0	992.2	1.2
313.15	0	0.02	992.7	1.2
313.15	0	0.04	993.3	1.2
313.15	0	0.06	993.8	1.2
313.15	0	0.08	994.3	1.2
313.15	0	0.1	994.8	1.2
313.15	0.1	0	996.8	1.2
313.15	0.1	0.02	997.3	1.2
313.15	0.1	0.04	997.7	1.2
313.15	0.1	0.06	998.3	1.2
313.15	0.1	0.08	998.7	1.2
313.15	0.1	0.1	999.1	1.2
313.15	0.3	0	1005.2	1.2
313.15	0.3	0.02	1005.6	1.2
313.15	0.3	0.04	1006.1	1.2
313.15	0.3	0.06	1006.5	1.2
313.15	0.3	0.08	1007	1.2
313.15	0.3	0.1	1007.4	1.2
313.15	0.5	0	1013.4	1.2
313.15	0.5	0.02	1013.8	1.2
313.15	0.5	0.04	1014.2	1.2
313.15	0.5	0.06	1014.7	1.2
313.15	0.5	0.08	1015	1.2
313.15	0.5	0.1	1015.6	1.2
318.15	0	0	990.2	1.2
318.15	0	0.02	990.7	1.2
318.15	0	0.04	991.2	1.2
318.15	0	0.06	991.8	1.2
318.15	0	0.08	992.3	1.2
318.15	0	0.1	992.8	1.2
318.15	0.1	0	994.5	1.2
318.15	0.1	0.02	995	1.2
318.15	0.1	0.04	995.5	1.2
318.15	0.1	0.06	995.9	1.2
318.15	0.1	0.08	996.2	1.2
318.15	0.1	0.1	996.7	1.2
318.15	0.3	0	1002.9	1.2
318.15	0.3	0.02	1003.3	1.2
318.15	0.3	0.04	1003.8	1.2
318.15	0.3	0.06	1004.2	1.2
318.15	0.3	0.08	1004.5	1.2
318.15	0.3	0.1	1005.1	1.2
318.15	0.5	0	1011.1	1.2
318.15	0.5	0.02	1011.5	1.2
318.15	0.5	0.04	1011.9	1.2
318.15	0.5	0.06	1012.4	1.2
318.15	0.5	0.08	1012.6	1.2
318.15	0.5	0.1	1013	1.2

System: L-leucine + sodium fluoride + water; phases: Liquid
Fixed: Pressure, kPa = 101
Property: Speed of sound, m/s (Liquid); method: multifrequency ultra sonic interferometer
Temperature, K	Solvent: Molality, mol/kg of sodium fluoride	Molality, mol/kg of L-leucine	Speed of sound, m/s	uncertainty
308.15	0	0	1520.4	2
308.15	0	0.02	1522.2	2
308.15	0	0.04	1523.6	2
308.15	0	0.06	1525.3	2
308.15	0	0.08	1527.1	2
308.15	0	0.1	1528.9	2
308.15	0.1	0	1530.6	2
308.15	0.1	0.02	1532.5	2
308.15	0.1	0.04	1534.3	2
308.15	0.1	0.06	1536.1	2
308.15	0.1	0.08	1537.7	2
308.15	0.1	0.1	1539.4	2
308.15	0.3	0	1547.7	2
308.15	0.3	0.02	1549.8	2
308.15	0.3	0.04	1551.6	2
308.15	0.3	0.06	1553.4	2
308.15	0.3	0.08	1554.9	2
308.15	0.3	0.1	1556.6	2
308.15	0.5	0	1560.9	2
308.15	0.5	0.02	1563	2
308.15	0.5	0.04	1565	2
308.15	0.5	0.06	1566.6	2
308.15	0.5	0.08	1568.3	2
308.15	0.5	0.1	1569.9	2
313.15	0	0	1528	2
313.15	0	0.02	1530	2
313.15	0	0.04	1531.6	2
313.15	0	0.06	1533.4	2
313.15	0	0.08	1535.3	2
313.15	0	0.1	1537.2	2
313.15	0.1	0	1540.1	2
313.15	0.1	0.02	1542.1	2
313.15	0.1	0.04	1543.8	2
313.15	0.1	0.06	1545.5	2
313.15	0.1	0.08	1547.3	2
313.15	0.1	0.1	1549	2
313.15	0.3	0	1555.8	2
313.15	0.3	0.02	1557.8	2
313.15	0.3	0.04	1559.7	2
313.15	0.3	0.06	1561.6	2
313.15	0.3	0.08	1563.2	2
313.15	0.3	0.1	1564.9	2
313.15	0.5	0	1566.4	2
313.15	0.5	0.02	1568.5	2
313.15	0.5	0.04	1570.3	2
313.15	0.5	0.06	1572.1	2
313.15	0.5	0.08	1573.9	2
313.15	0.5	0.1	1575.6	2
318.15	0	0	1535.2	2
318.15	0	0.02	1537	2
318.15	0	0.04	1539	2
318.15	0	0.06	1540.7	2
318.15	0	0.08	1542.6	2
318.15	0	0.1	1544.4	2
318.15	0.1	0	1547.3	2
318.15	0.1	0.02	1549.3	2
318.15	0.1	0.04	1550.9	2
318.15	0.1	0.06	1552.6	2
318.15	0.1	0.08	1554.5	2
318.15	0.1	0.1	1556.1	2
318.15	0.3	0	1562.9	2
318.15	0.3	0.02	1564.9	2
318.15	0.3	0.04	1566.9	2
318.15	0.3	0.06	1568.8	2
318.15	0.3	0.08	1570.5	2
318.15	0.3	0.1	1571.9	2
318.15	0.5	0	1572.1	2
318.15	0.5	0.02	1574.1	2
318.15	0.5	0.04	1576.2	2
318.15	0.5	0.06	1577.9	2
318.15	0.5	0.08	1579.8	2
318.15	0.5	0.1	1581.7	2

System: L-leucine + sodium fluoride + water; phases: Liquid
Fixed: Pressure, kPa = 101
Property: Mass density, kg/m3 (Liquid); method: Pycnometric method
Temperature, K	Solvent: Molality, mol/kg of sodium fluoride	Molality, mol/kg of L-leucine	Mass density, kg/m3	uncertainty
308.15	0	0	994	1.2
308.15	0	0.02	994.5	1.2
308.15	0	0.04	994.9	1.2
308.15	0	0.06	995.4	1.2
308.15	0	0.08	995.9	1.2
308.15	0	0.1	996.4	1.2
308.15	0.1	0	998.7	1.2
308.15	0.1	0.02	999.2	1.2
308.15	0.1	0.04	999.6	1.2
308.15	0.1	0.06	1000	1.2
308.15	0.1	0.08	1000.4	1.2
308.15	0.1	0.1	1000.8	1.2
308.15	0.3	0	1007.1	1.2
308.15	0.3	0.02	1007.5	1.2
308.15	0.3	0.04	1007.9	1.2
308.15	0.3	0.06	1008.3	1.2
308.15	0.3	0.08	1008.8	1.2
308.15	0.3	0.1	1009.2	1.2
308.15	0.5	0	1015.4	1.2
308.15	0.5	0.02	1015.8	1.2
308.15	0.5	0.04	1016.1	1.2
308.15	0.5	0.06	1016.6	1.2
308.15	0.5	0.08	1017	1.2
308.15	0.5	0.1	1017.4	1.2
313.15	0	0	992.2	1.2
313.15	0	0.02	992.6	1.2
313.15	0	0.04	993.2	1.2
313.15	0	0.06	993.7	1.2
313.15	0	0.08	994.1	1.2
313.15	0	0.1	994.5	1.2
313.15	0.1	0	996.8	1.2
313.15	0.1	0.02	997.2	1.2
313.15	0.1	0.04	997.7	1.2
313.15	0.1	0.06	998.1	1.2
313.15	0.1	0.08	998.5	1.2
313.15	0.1	0.1	999	1.2
313.15	0.3	0	1005.2	1.2
313.15	0.3	0.02	1005.6	1.2
313.15	0.3	0.04	1006	1.2
313.15	0.3	0.06	1006.3	1.2
313.15	0.3	0.08	1006.8	1.2
313.15	0.3	0.1	1007.2	1.2
313.15	0.5	0	1013.4	1.2
313.15	0.5	0.02	1013.8	1.2
313.15	0.5	0.04	1014.1	1.2
313.15	0.5	0.06	1014.4	1.2
313.15	0.5	0.08	1014.9	1.2
313.15	0.5	0.1	1015.4	1.2
