Measured thermophysical data. Determination and correlation of the solubility of tricin in water and ethanol mixtures
Source: J. Chem. Thermodyn., 2015, 10.1016/j.jct.2015.04.037
Compound 1: tricin, C17H14O7, InChI=1S/C17H14O7/c1-22-14-3-8(4-15(23-2)17(14)21)12-7-11(20)16-10(19)5-9(18)6-13(16)24-12/h3-7,18-19,21H,1-2H3, purity 96.7%
Compound 2: water, H2O, InChI=1S/H2O/h1H2, purity 99.8%
Compound 3: ethanol, C2H6O, InChI=1S/C2H6O/c1-2-3/h3H,2H2,1H3, purity 98%

System: ethanol + tricin + water; phases: Liquid, Crystal
Fixed: Pressure, kPa = 100
Property: Mole fraction of tricin (Liquid); method: UV spectrophotometer
Temperature, K	Solvent: Mole fraction of water	Mole fraction of tricin	uncertainty
288.15	1	5e-10	5e-10
293.16	1	1e-09	3e-10
298.15	1	1.4e-09	6e-10
303.15	1	2.1e-09	1.3e-09
308.16	1	3.5e-09	1e-09
313.18	1	5.6e-09	2.2e-09
318.15	1	8.1e-09	2.5e-09
288.17	0.8008	6.5e-07	2.7e-07
293.16	0.8008	8.9e-07	3.4e-07
298.15	0.8008	1.17e-06	3.8e-07
303.18	0.8008	1.6e-06	4e-07
308.15	0.8008	2.01e-06	3.9e-07
313.14	0.8008	2.6e-06	5.6e-07
318.15	0.8008	3.12e-06	5.2e-07
288.17	0.6085	2.02e-06	3.9e-07
293.14	0.6085	2.79e-06	3.4e-07
298.15	0.6085	3.85e-06	2.9e-07
303.14	0.6085	4.91e-06	4.4e-07
308.15	0.6085	5.63e-06	4.5e-07
313.17	0.6085	6.98e-06	3.4e-07
318.16	0.6085	7.55e-06	7e-07
288.14	0.4026	3.18e-06	7.4e-07
293.15	0.4026	4.37e-06	5.5e-07
298.15	0.4026	5.45e-06	6.1e-07
303.18	0.4026	6.61e-06	8.7e-07
308.17	0.4026	7.53e-06	7.8e-07
313.17	0.4026	8.71e-06	8.8e-07
318.15	0.4026	9.97e-06	1.03e-06
288.16	0.2008	5.01e-06	2.45e-06
293.17	0.2008	6.72e-06	2.01e-06
298.15	0.2008	8.53e-06	2.99e-06
303.18	0.2008	1.021e-05	2.84e-06
308.15	0.2008	1.293e-05	2.81e-06
313.16	0.2008	1.61e-05	3.1e-06
318.17	0.2008	1.969e-05	2.61e-06
288.18	0	5.94e-06	2.96e-06
293.18	0	8.85e-06	2.71e-06
298.15	0	1.256e-05	2.04e-06
303.17	0	1.716e-05	2.43e-06
308.15	0	2.191e-05	3e-06
313.18	0	3.001e-05	2.16e-06
318.16	0	3.827e-05	4.15e-06

System: tricin + water; phases: Liquid, Crystal
Fixed: Pressure, kPa = 100
Property: Mole fraction of tricin (Liquid); method: UV spectrophotometer
Temperature, K	Mole fraction of tricin	uncertainty
288.15	5e-10	5e-10
293.16	1e-09	3e-10
298.15	1.4e-09	6e-10
303.15	2.1e-09	1.3e-09
308.16	3.5e-09	1e-09
313.18	5.6e-09	2.2e-09
318.15	8.1e-09	2.5e-09

System: ethanol + tricin; phases: Liquid, Crystal
Fixed: Pressure, kPa = 100
Property: Mole fraction of tricin (Liquid); method: UV spectrophotometer
Temperature, K	Mole fraction of tricin	uncertainty
288.18	5.94e-06	2.96e-06
293.18	8.85e-06	2.71e-06
298.15	1.256e-05	2.04e-06
303.17	1.716e-05	2.43e-06
308.15	2.191e-05	3e-06
313.18	3.001e-05	2.16e-06
318.16	3.827e-05	4.15e-06
