Measured thermophysical data. Densities, ultrasonic speeds and refractive indices of phenetole with N-methyl-2-pyrrolidone, N,N-dimethylformamide and tetrahydrofuran binary mixtures at different temperatures
Source: J. Chem. Thermodyn., 2016, 10.1016/j.jct.2016.07.032
Compound 1: ethoxybenzene, C8H10O, InChI=1S/C8H10O/c1-2-9-8-6-4-3-5-7-8/h3-7H,2H2,1H3, purity 99%
Compound 2: N-methylpyrrolidone, C5H9NO, InChI=1S/C5H9NO/c1-6-4-2-3-5(6)7/h2-4H2,1H3, purity 99%
Compound 3: dimethylformamide, C3H7NO, InChI=1S/C3H7NO/c1-4(2)3-5/h3H,1-2H3, purity 99.8%
Compound 4: tetrahydrofuran, C4H8O, InChI=1S/C4H8O/c1-2-4-5-3-1/h1-4H2, purity 99%

System: ethoxybenzene; phases: Liquid
Fixed: Pressure, kPa = 101.3
Property: Mass density, kg/m3 (Liquid); method: Vibrating tube method
Temperature, K	Mass density, kg/m3	uncertainty
298	960	2
303	955	2
308	951	2

System: ethoxybenzene; phases: Liquid
Fixed: Pressure, kPa = 101.3
Property: Refractive index (Na D-line) (Liquid); method: Standard Abbe refractometry
Temperature, K	Refractive index (Na D-line)	uncertainty
298	1.505	0.002
303	1.503	0.002
308	1.499	0.002

System: ethoxybenzene; phases: Liquid
Fixed: Pressure, kPa = 101.3
Fixed: Frequency, MHz = 3
Property: Speed of sound, m/s (Liquid); method: Sing-around technique in a fixed-path interferometer
Temperature, K	Speed of sound, m/s	uncertainty
298	1369	2
303	1349	2
308	1329	2

System: N-methylpyrrolidone; phases: Liquid
Fixed: Pressure, kPa = 101.3
Property: Mass density, kg/m3 (Liquid); method: Vibrating tube method
Temperature, K	Mass density, kg/m3	uncertainty
298	1026	2
303	1022	2
308	1018	2

System: N-methylpyrrolidone; phases: Liquid
Fixed: Pressure, kPa = 101.3
Property: Refractive index (Na D-line) (Liquid); method: Standard Abbe refractometry
Temperature, K	Refractive index (Na D-line)	uncertainty
298	1.467	0.002
303	1.466	0.002
308	1.464	0.002

System: N-methylpyrrolidone; phases: Liquid
Fixed: Pressure, kPa = 101.3
Fixed: Frequency, MHz = 3
Property: Speed of sound, m/s (Liquid); method: Sing-around technique in a fixed-path interferometer
Temperature, K	Speed of sound, m/s	uncertainty
298	1546	2
303	1526	2
308	1507	2

System: dimethylformamide; phases: Liquid
Fixed: Pressure, kPa = 101.3
Property: Mass density, kg/m3 (Liquid); method: Vibrating tube method
Temperature, K	Mass density, kg/m3	uncertainty
298	944	2
303	939	2
308	935	2

System: dimethylformamide; phases: Liquid
Fixed: Pressure, kPa = 101.3
Property: Refractive index (Na D-line) (Liquid); method: Standard Abbe refractometry
Temperature, K	Refractive index (Na D-line)	uncertainty
298	1.429	0.002
303	1.427	0.002
308	1.425	0.002

System: dimethylformamide; phases: Liquid
Fixed: Pressure, kPa = 101.3
Fixed: Frequency, MHz = 3
Property: Speed of sound, m/s (Liquid); method: Sing-around technique in a fixed-path interferometer
Temperature, K	Speed of sound, m/s	uncertainty
298	1457	2
303	1437	2
308	1420	2

System: tetrahydrofuran; phases: Liquid
Fixed: Pressure, kPa = 101.3
Property: Mass density, kg/m3 (Liquid); method: Vibrating tube method
Temperature, K	Mass density, kg/m3	uncertainty
298	882	2
303	878	2
308	874	2

System: tetrahydrofuran; phases: Liquid
Fixed: Pressure, kPa = 101.3
Property: Refractive index (Na D-line) (Liquid); method: Standard Abbe refractometry
Temperature, K	Refractive index (Na D-line)	uncertainty
298	1.405	0.002
303	1.403	0.002
308	1.4	0.002

System: tetrahydrofuran; phases: Liquid
Fixed: Pressure, kPa = 101.3
Fixed: Frequency, MHz = 3
Property: Speed of sound, m/s (Liquid); method: Sing-around technique in a fixed-path interferometer
Temperature, K	Speed of sound, m/s	uncertainty
298	1278	2
303	1254	2
308	1230	2

System: ethoxybenzene + N-methylpyrrolidone; phases: Liquid
Fixed: Pressure, kPa = 101.3
Property: Mass density, kg/m3 (Liquid); method: Vibrating tube method
Temperature, K	Mole fraction of ethoxybenzene	Mass density, kg/m3	uncertainty
298	0	1026	2
298	0.041	1023	2
298	0.122	1018	2
298	0.201	1013	2
298	0.273	1008	2
298	0.37	1001	2
298	0.504	992	2
298	0.628	983	2
298	0.709	978	2
298	0.822	971	2
298	1	960	2
303	0	1022	2
303	0.041	1019	2
303	0.122	1014	2
303	0.201	1009	2
303	0.273	1004	2
303	0.37	997	2
303	0.504	988	2
303	0.628	979	2
303	0.709	974	2
303	0.822	966	2
303	1	955	2
308	0	1018	2
308	0.041	1015	2
308	0.122	1010	2
308	0.201	1005	2
308	0.273	1000	2
308	0.37	993	2
308	0.504	983	2
308	0.628	975	2
308	0.709	969	2
308	0.822	962	2
308	1	951	2

System: ethoxybenzene + N-methylpyrrolidone; phases: Liquid
Fixed: Pressure, kPa = 101.3
Property: Refractive index (Na D-line) (Liquid); method: Standard Abbe refractometry
Temperature, K	Mole fraction of ethoxybenzene	Refractive index (Na D-line)	uncertainty
298	0	1.467	0.002
298	0.041	1.469	0.002
298	0.122	1.474	0.002
298	0.201	1.478	0.002
298	0.273	1.481	0.002
298	0.37	1.485	0.002
298	0.504	1.491	0.002
298	0.628	1.495	0.002
298	0.709	1.498	0.002
298	0.822	1.501	0.002
298	1	1.505	0.002
303	0	1.466	0.002
303	0.041	1.468	0.002
303	0.122	1.472	0.002
303	0.201	1.475	0.002
303	0.273	1.479	0.002
303	0.37	1.483	0.002
303	0.504	1.488	0.002
303	0.628	1.492	0.002
303	0.709	1.495	0.002
303	0.822	1.498	0.002
303	1	1.503	0.002
308	0	1.464	0.002
308	0.041	1.466	0.002
308	0.122	1.469	0.002
308	0.201	1.473	0.002
308	0.273	1.476	0.002
308	0.37	1.48	0.002
308	0.504	1.485	0.002
308	0.628	1.489	0.002
308	0.709	1.491	0.002
308	0.822	1.495	0.002
308	1	1.499	0.002

System: ethoxybenzene + N-methylpyrrolidone; phases: Liquid
Fixed: Pressure, kPa = 101.3
Fixed: Frequency, MHz = 3
Property: Speed of sound, m/s (Liquid); method: Sing-around technique in a fixed-path interferometer
Temperature, K	Mole fraction of ethoxybenzene	Speed of sound, m/s	uncertainty
298	0	1546	2
298	0.041	1534	2
298	0.122	1513	2
298	0.201	1495	2
298	0.273	1480	2
298	0.37	1460	2
298	0.504	1437	2
298	0.628	1418	2
298	0.709	1406	2
298	0.822	1391	2
298	1	1369	2
303	0	1526	2
303	0.041	1515	2
303	0.122	1495	2
303	0.201	1477	2
303	0.273	1462	2
303	0.37	1443	2
303	0.504	1420	2
303	0.628	1400	2
303	0.709	1388	2
303	0.822	1372	2
303	1	1349	2
308	0	1507	2
308	0.041	1497	2
308	0.122	1477	2
308	0.201	1460	2
308	0.273	1445	2
308	0.37	1427	2
308	0.504	1403	2
308	0.628	1383	2
308	0.709	1370	2
308	0.822	1354	2
308	1	1329	2

System: dimethylformamide + ethoxybenzene; phases: Liquid
Fixed: Pressure, kPa = 101.3
Property: Mass density, kg/m3 (Liquid); method: Vibrating tube method
Temperature, K	Mole fraction of ethoxybenzene	Mass density, kg/m3	uncertainty
298	0	944	2
298	0.031	946	2
298	0.091	948	2
298	0.153	950	2
298	0.223	952	2
298	0.304	954	2
298	0.463	956	2
298	0.556	957	2
298	0.642	958	2
298	0.8	959	2
298	1	960	2
303	0	939	2
303	0.031	941	2
303	0.091	943	2
303	0.153	945	2
303	0.223	947	2
303	0.304	949	2
303	0.463	952	2
303	0.556	953	2
303	0.642	954	2
303	0.8	955	2
303	1	955	2
308	0	935	2
308	0.031	936	2
308	0.091	939	2
308	0.153	941	2
308	0.223	943	2
308	0.304	945	2
308	0.463	948	2
308	0.556	949	2
308	0.642	949	2
308	0.8	950	2
308	1	951	2

System: dimethylformamide + ethoxybenzene; phases: Liquid
Fixed: Pressure, kPa = 101.3
Property: Refractive index (Na D-line) (Liquid); method: Standard Abbe refractometry
Temperature, K	Mole fraction of ethoxybenzene	Refractive index (Na D-line)	uncertainty
298	0	1.429	0.002
298	0.031	1.431	0.002
298	0.091	1.437	0.002
298	0.153	1.442	0.002
298	0.223	1.448	0.002
298	0.304	1.455	0.002
298	0.463	1.468	0.002
298	0.556	1.475	0.002
298	0.642	1.481	0.002
298	0.8	1.493	0.002
298	1	1.505	0.002
303	0	1.427	0.002
303	0.031	1.43	0.002
303	0.091	1.435	0.002
303	0.153	1.44	0.002
303	0.223	1.446	0.002
303	0.304	1.452	0.002
303	0.463	1.465	0.002
303	0.556	1.471	0.002
303	0.642	1.478	0.002
303	0.8	1.489	0.002
303	1	1.503	0.002
308	0	1.425	0.002
308	0.031	1.427	0.002
308	0.091	1.432	0.002
308	0.153	1.437	0.002
308	0.223	1.442	0.002
308	0.304	1.449	0.002
308	0.463	1.461	0.002
308	0.556	1.468	0.002
308	0.642	1.474	0.002
308	0.8	1.485	0.002
308	1	1.499	0.002

System: dimethylformamide + ethoxybenzene; phases: Liquid
Fixed: Pressure, kPa = 101.3
Fixed: Frequency, MHz = 3
Property: Speed of sound, m/s (Liquid); method: Sing-around technique in a fixed-path interferometer
Temperature, K	Mole fraction of ethoxybenzene	Speed of sound, m/s	uncertainty
298	0	1457	2
298	0.031	1452	2
298	0.091	1443	2
298	0.153	1435	2
298	0.223	1427	2
298	0.304	1418	2
298	0.463	1403	2
298	0.556	1396	2
298	0.642	1390	2
298	0.8	1379	2
298	1	1369	2
303	0	1437	2
303	0.031	1432	2
303	0.091	1424	2
303	0.153	1415	2
303	0.223	1407	2
303	0.304	1398	2
303	0.463	1383	2
303	0.556	1376	2
303	0.642	1370	2
303	0.8	1360	2
303	1	1349	2
308	0	1420	2
308	0.031	1415	2
308	0.091	1406	2
308	0.153	1398	2
308	0.223	1389	2
308	0.304	1380	2
308	0.463	1365	2
308	0.556	1357	2
308	0.642	1350	2
308	0.8	1340	2
308	1	1329	2

System: ethoxybenzene + tetrahydrofuran; phases: Liquid
Fixed: Pressure, kPa = 101.3
Property: Mass density, kg/m3 (Liquid); method: Vibrating tube method
Temperature, K	Mole fraction of ethoxybenzene	Mass density, kg/m3	uncertainty
298	0	882	2
298	0.031	886	2
298	0.072	892	2
298	0.117	897	2
298	0.197	905	2
298	0.246	910	2
298	0.326	918	2
298	0.492	931	2
298	0.695	944	2
298	0.899	955	2
298	1	960	2
303	0	878	2
303	0.031	883	2
303	0.072	888	2
303	0.117	893	2
303	0.197	901	2
303	0.246	906	2
303	0.326	913	2
303	0.492	927	2
303	0.695	940	2
303	0.899	951	2
303	1	955	2
308	0	874	2
308	0.031	878	2
308	0.072	883	2
308	0.117	888	2
308	0.197	897	2
308	0.246	902	2
308	0.326	909	2
308	0.492	922	2
308	0.695	935	2
308	0.899	946	2
308	1	951	2

System: ethoxybenzene + tetrahydrofuran; phases: Liquid
Fixed: Pressure, kPa = 101.3
Property: Refractive index (Na D-line) (Liquid); method: Standard Abbe refractometry
Temperature, K	Mole fraction of ethoxybenzene	Refractive index (Na D-line)	uncertainty
298	0	1.405	0.002
298	0.031	1.41	0.002
298	0.072	1.417	0.002
298	0.117	1.424	0.002
298	0.197	1.436	0.002
298	0.246	1.443	0.002
298	0.326	1.453	0.002
298	0.492	1.472	0.002
298	0.695	1.49	0.002
298	0.899	1.502	0.002
298	1	1.505	0.002
303	0	1.403	0.002
303	0.031	1.408	0.002
303	0.072	1.414	0.002
303	0.117	1.422	0.002
303	0.197	1.433	0.002
303	0.246	1.44	0.002
303	0.326	1.45	0.002
303	0.492	1.469	0.002
303	0.695	1.487	0.002
303	0.899	1.499	0.002
303	1	1.503	0.002
308	0	1.4	0.002
308	0.031	1.405	0.002
308	0.072	1.412	0.002
308	0.117	1.419	0.002
308	0.197	1.43	0.002
308	0.246	1.437	0.002
308	0.326	1.447	0.002
308	0.492	1.466	0.002
308	0.695	1.483	0.002
308	0.899	1.494	0.002
308	1	1.499	0.002

System: ethoxybenzene + tetrahydrofuran; phases: Liquid
Fixed: Pressure, kPa = 101.3
Fixed: Frequency, MHz = 3
Property: Speed of sound, m/s (Liquid); method: Sing-around technique in a fixed-path interferometer
Temperature, K	Mole fraction of ethoxybenzene	Speed of sound, m/s	uncertainty
298	0	1278	2
298	0.031	1279	2
298	0.072	1281	2
298	0.117	1283	2
298	0.197	1287	2
298	0.246	1289	2
298	0.326	1295	2
298	0.492	1310	2
298	0.695	1332	2
298	0.899	1356	2
298	1	1369	2
303	0	1254	2
303	0.031	1255	2
303	0.072	1256	2
303	0.117	1258	2
303	0.197	1262	2
303	0.246	1265	2
303	0.326	1271	2
303	0.492	1287	2
303	0.695	1309	2
303	0.899	1334	2
303	1	1349	2
308	0	1230	2
308	0.031	1230	2
308	0.072	1231	2
308	0.117	1233	2
308	0.197	1237	2
308	0.246	1241	2
308	0.326	1247	2
308	0.492	1264	2
308	0.695	1287	2
308	0.899	1314	2
308	1	1329	2
