Measured thermophysical data. Liquid densities and excess volumes of biofuel mixtures: (2-butanol + di-isopropyl ether) system at pressures up to 140 MPa and temperatures from 293.15 K to 393.28 K
Source: J. Chem. Thermodyn., 2017, 10.1016/j.jct.2016.10.009
Compound 1: butan-2-ol, C4H10O, InChI=1S/C4H10O/c1-3-4(2)5/h4-5H,3H2,1-2H3, purity 99.5%
Compound 2: diisopropyl ether, C6H14O, InChI=1S/C6H14O/c1-5(2)7-6(3)4/h5-6H,1-4H3, purity 99.5%

System: butan-2-ol; phases: Liquid
Property: Mass density, kg/m3 (Liquid); method: Vibrating tube method
Pressure, kPa	Temperature, K	Mass density, kg/m3	uncertainty
100	293.15	806.7	0.7
1000	293.15	807.4	0.7
5000	293.15	810.4	0.7
10000	293.15	814	0.7
15000	293.15	817.4	0.7
20000	293.15	820.7	0.7
25000	293.15	823.9	0.8
30000	293.15	826.9	0.8
35000	293.15	829.8	0.8
40000	293.15	832.7	0.8
45000	293.15	835.4	0.8
50000	293.15	838.1	0.8
55000	293.15	840.6	0.8
60000	293.15	843.2	0.8
65000	293.15	845.6	0.8
70000	293.15	848	0.9
80000	293.15	852.6	0.9
90000	293.15	857.1	0.9
100000	293.15	861.2	0.9
110000	293.15	865.3	0.9
120000	293.15	869.2	1
130000	293.15	873	1
140000	293.15	876.6	1
100	298.15	802.6	0.7
1000	298.15	803.3	0.7
5000	298.15	806.4	0.7
10000	298.15	810.1	0.7
15000	298.15	813.7	0.7
20000	298.15	817	0.7
25000	298.15	820.2	0.8
30000	298.15	823.4	0.8
35000	298.15	826.4	0.8
40000	298.15	829.2	0.8
45000	298.15	832	0.8
50000	298.15	834.7	0.8
55000	298.15	837.4	0.8
60000	298.15	839.9	0.8
65000	298.15	842.4	0.8
70000	298.15	844.8	0.9
80000	298.15	849.5	0.9
90000	298.15	854.1	0.9
100000	298.15	858.3	0.9
110000	298.15	862.4	1
120000	298.15	866.3	1
130000	298.15	870.1	1
140000	298.15	873.9	1
100	313.15	789.6	0.7
1000	313.15	790.3	0.7
5000	313.15	793.7	0.7
10000	313.15	797.8	0.7
15000	313.15	801.6	0.7
20000	313.15	805.3	0.8
25000	313.15	808.6	0.8
30000	313.15	812.1	0.8
35000	313.15	815.3	0.8
40000	313.15	818.4	0.8
45000	313.15	821.3	0.8
50000	313.15	824.3	0.8
55000	313.15	827.1	0.8
60000	313.15	829.8	0.9
65000	313.15	832.5	0.9
70000	313.15	835	0.9
80000	313.15	839.9	0.9
90000	313.15	844.7	0.9
100000	313.15	849.1	1
110000	313.15	853.5	1
120000	313.15	857.6	1
130000	313.15	861.5	1
140000	313.15	865.4	1
100	333.15	770.8	0.7
1000	333.15	771.8	0.7
5000	333.15	775.7	0.7
10000	333.15	780.3	0.7
15000	333.15	784.7	0.7
20000	333.15	788.9	0.8
25000	333.15	792.7	0.8
30000	333.15	796.4	0.8
35000	333.15	800	0.8
40000	333.15	803.5	0.8
45000	333.15	806.6	0.8
50000	333.15	809.8	0.8
55000	333.15	812.8	0.9
60000	333.15	815.8	0.9
65000	333.15	818.7	0.9
70000	333.15	821.4	0.9
80000	333.15	826.8	0.9
90000	333.15	831.9	1
100000	333.15	836.7	1
110000	333.15	841.3	1
120000	333.15	845.6	1
130000	333.15	849.9	1.1
140000	333.15	853.9	1.1
100	353.19	750.3	0.7
1000	353.19	751.4	0.7
5000	353.19	756	0.7
10000	353.19	761.3	0.7
15000	353.19	766.4	0.8
20000	353.19	771	0.8
25000	353.19	775.4	0.8
30000	353.19	779.5	0.8
35000	353.19	783.5	0.8
40000	353.19	787.2	0.8
45000	353.19	790.8	0.8
50000	353.19	794.4	0.9
55000	353.19	797.7	0.9
60000	353.19	801	0.9
65000	353.19	804.1	0.9
70000	353.19	807.2	0.9
80000	353.19	812.9	1
90000	353.19	818.3	1
100000	353.19	823.5	1
110000	353.19	828.5	1.1
120000	353.19	833.1	1.1
130000	353.19	837.6	1.1
140000	353.19	842	1.1
1000	373.24	729.1	0.7
5000	373.24	734.5	0.7
10000	373.24	740.8	0.7
15000	373.24	746.6	0.8
20000	373.24	751.9	0.8
25000	373.24	757	0.8
30000	373.24	761.6	0.8
35000	373.24	766.1	0.8
40000	373.24	770.3	0.8
45000	373.24	774.4	0.9
50000	373.24	778.1	0.9
55000	373.24	781.8	0.9
60000	373.24	785.3	0.9
65000	373.24	788.8	0.9
70000	373.24	792.1	1
80000	373.24	798.4	1
90000	373.24	804.3	1
100000	373.24	809.8	1.1
110000	373.24	815.1	1.1
120000	373.24	820.1	1.1
130000	373.24	824.9	1.2
140000	373.24	829.5	1.2
1000	393.28	704.8	0.7
5000	393.28	711.3	0.7
10000	393.28	718.8	0.7
15000	393.28	725.6	0.8
20000	393.28	731.7	0.8
25000	393.28	737.4	0.8
30000	393.28	742.7	0.8
35000	393.28	747.8	0.8
40000	393.28	752.5	0.9
45000	393.28	757	0.9
50000	393.28	761.2	0.9
55000	393.28	765.4	0.9
60000	393.28	769.2	0.9
65000	393.28	772.9	1
70000	393.28	776.6	1
80000	393.28	783.4	1
90000	393.28	789.8	1.1
100000	393.28	795.8	1.1
110000	393.28	801.5	1.1
120000	393.28	806.8	1.2
130000	393.28	811.9	1.2
140000	393.28	816.8	1.2

System: diisopropyl ether; phases: Liquid
Property: Mass density, kg/m3 (Liquid); method: Vibrating tube method
Pressure, kPa	Temperature, K	Mass density, kg/m3	uncertainty
100	293.15	723.5	0.7
1000	293.15	724.6	0.7
5000	293.15	729.4	0.7
10000	293.15	734.9	0.7
15000	293.15	740	0.8
20000	293.15	744.8	0.8
25000	293.15	749.4	0.8
30000	293.15	753.7	0.8
35000	293.15	757.7	0.8
40000	293.15	761.6	0.8
45000	293.15	765.3	0.9
50000	293.15	768.9	0.9
55000	293.15	772.4	0.9
60000	293.15	775.7	0.9
65000	293.15	778.9	1
70000	293.15	782	1
80000	293.15	787.9	1
90000	293.15	793.5	1.1
100000	293.15	798.8	1.1
110000	293.15	803.9	1.1
120000	293.15	808.7	1.2
130000	293.15	813.2	1.2
140000	293.15	817.6	1.2
100	298.15	718.3	0.7
1000	298.15	719.6	0.7
5000	298.15	724.5	0.7
10000	298.15	730.2	0.7
15000	298.15	735.6	0.8
20000	298.15	740.5	0.8
25000	298.15	745.2	0.8
30000	298.15	749.6	0.8
35000	298.15	753.7	0.8
40000	298.15	757.8	0.9
45000	298.15	761.6	0.9
50000	298.15	765.2	0.9
55000	298.15	768.8	0.9
60000	298.15	772.2	0.9
65000	298.15	775.4	1
70000	298.15	778.6	1
80000	298.15	784.6	1
90000	298.15	790.3	1.1
100000	298.15	795.7	1.1
110000	298.15	800.8	1.1
120000	298.15	805.6	1.2
130000	298.15	810.3	1.2
140000	298.15	814.6	1.3
100	313.15	702.4	0.7
1000	313.15	703.8	0.7
5000	313.15	709.4	0.7
10000	313.15	715.8	0.7
15000	313.15	721.7	0.8
20000	313.15	727.2	0.8
25000	313.15	732.1	0.8
30000	313.15	737.1	0.8
35000	313.15	741.6	0.8
40000	313.15	745.9	0.9
45000	313.15	750	0.9
50000	313.15	753.9	0.9
55000	313.15	757.7	0.9
60000	313.15	761.3	1
65000	313.15	764.8	1
70000	313.15	768.1	1
80000	313.15	774.4	1
90000	313.15	780.5	1.1
100000	313.15	786.1	1.1
110000	313.15	791.4	1.2
120000	313.15	796.5	1.2
130000	313.15	801.4	1.3
140000	313.15	806	1.3
100	333.15	680.5	0.7
1000	333.15	682.1	0.7
5000	333.15	688.9	0.7
10000	333.15	696.4	0.8
15000	333.15	703.2	0.8
20000	333.15	709.4	0.8
25000	333.15	715.1	0.8
30000	333.15	720.5	0.8
35000	333.15	725.6	0.9
40000	333.15	730.3	0.9
45000	333.15	734.8	0.9
50000	333.15	739.1	0.9
55000	333.15	743.1	1
60000	333.15	747.1	1
65000	333.15	750.9	1
70000	333.15	754.4	1
80000	333.15	761.3	1.1
90000	333.15	767.7	1.1
100000	333.15	773.7	1.2
110000	333.15	779.4	1.2
120000	333.15	784.7	1.3
130000	333.15	789.9	1.3
140000	333.15	794.8	1.3
1000	353.19	659.5	0.7
5000	353.19	667.6	0.7
10000	353.19	676.5	0.8
15000	353.19	684.4	0.8
20000	353.19	691.5	0.8
25000	353.19	698	0.8
30000	353.19	704	0.8
35000	353.19	709.7	0.9
40000	353.19	714.8	0.9
45000	353.19	719.7	0.9
50000	353.19	724.6	0.9
55000	353.19	728.9	1
60000	353.19	733.2	1
65000	353.19	737.2	1
70000	353.19	741.1	1.1
80000	353.19	748.4	1.1
90000	353.19	755.4	1.2
100000	353.19	761.6	1.2
110000	353.19	767.8	1.3
120000	353.19	773.4	1.3
130000	353.19	778.8	1.3
140000	353.19	784	1.4
1000	373.24	635.6	0.7
5000	373.24	645.5	0.7
10000	373.24	656.1	0.8
15000	373.24	665.3	0.8
20000	373.24	673.5	0.8
25000	373.24	680.8	0.8
30000	373.24	687.6	0.9
35000	373.24	693.8	0.9
40000	373.24	699.6	0.9
45000	373.24	705	0.9
50000	373.24	710.1	1
55000	373.24	714.9	1
60000	373.24	719.5	1
65000	373.24	723.9	1.1
70000	373.24	728.1	1.1
80000	373.24	735.9	1.1
90000	373.24	743.2	1.2
100000	373.24	750	1.2
110000	373.24	756.3	1.3
120000	373.24	762.3	1.3
130000	373.24	768	1.4
140000	373.24	773.3	1.4
1000	393.28	609.5	0.7
5000	393.28	622.1	0.8
10000	393.28	635	0.8
15000	393.28	645.8	0.8
20000	393.28	655.2	0.8
25000	393.28	663.5	0.8
30000	393.28	671.1	0.9
35000	393.28	677.9	0.9
40000	393.28	684.3	0.9
45000	393.28	690.2	1
50000	393.28	695.8	1
55000	393.28	701.1	1
60000	393.28	705.9	1.1
65000	393.28	710.6	1.1
70000	393.28	715.2	1.1
80000	393.28	723.5	1.2
90000	393.28	731.3	1.2
100000	393.28	738.4	1.3
110000	393.28	745.3	1.3
120000	393.28	751.4	1.4
130000	393.28	757.4	1.4
140000	393.28	763.1	1.5

System: butan-2-ol + diisopropyl ether; phases: Liquid
Property: Mass density, kg/m3 (Liquid); method: Vibrating tube method
Mole fraction of butan-2-ol	Pressure, kPa	Temperature, K	Mass density, kg/m3	uncertainty
0	100	293.15	723.5	0.7
0	1000	293.15	724.6	0.7
0	5000	293.15	729.4	0.7
0	10000	293.15	734.9	0.7
0	15000	293.15	740	0.8
0	20000	293.15	744.8	0.8
0	25000	293.15	749.4	0.8
0	30000	293.15	753.7	0.8
0	35000	293.15	757.7	0.8
0	40000	293.15	761.6	0.8
0	45000	293.15	765.3	0.9
0	50000	293.15	768.9	0.9
0	55000	293.15	772.4	0.9
0	60000	293.15	775.7	0.9
0	65000	293.15	778.9	1
0	70000	293.15	782	1
0	80000	293.15	787.9	1
0	90000	293.15	793.5	1.1
0	100000	293.15	798.8	1.1
0	110000	293.15	803.9	1.1
0	120000	293.15	808.7	1.2
0	130000	293.15	813.2	1.2
0	140000	293.15	817.6	1.2
0	100	298.15	718.3	0.7
0	1000	298.15	719.6	0.7
0	5000	298.15	724.5	0.7
0	10000	298.15	730.2	0.7
0	15000	298.15	735.6	0.8
0	20000	298.15	740.5	0.8
0	25000	298.15	745.2	0.8
0	30000	298.15	749.6	0.8
0	35000	298.15	753.7	0.8
0	40000	298.15	757.8	0.9
0	45000	298.15	761.6	0.9
0	50000	298.15	765.2	0.9
0	55000	298.15	768.8	0.9
0	60000	298.15	772.2	0.9
0	65000	298.15	775.4	1
0	70000	298.15	778.6	1
0	80000	298.15	784.6	1
0	90000	298.15	790.3	1.1
0	100000	298.15	795.7	1.1
0	110000	298.15	800.8	1.1
0	120000	298.15	805.6	1.2
0	130000	298.15	810.3	1.2
0	140000	298.15	814.6	1.3
0	100	313.15	702.4	0.7
0	1000	313.15	703.8	0.7
0	5000	313.15	709.4	0.7
0	10000	313.15	715.8	0.7
0	15000	313.15	721.7	0.8
0	20000	313.15	727.2	0.8
0	25000	313.15	732.1	0.8
0	30000	313.15	737.1	0.8
0	35000	313.15	741.6	0.8
0	40000	313.15	745.9	0.9
0	45000	313.15	750	0.9
0	50000	313.15	753.9	0.9
0	55000	313.15	757.7	0.9
0	60000	313.15	761.3	1
0	65000	313.15	764.8	1
0	70000	313.15	768.1	1
0	80000	313.15	774.4	1
0	90000	313.15	780.5	1.1
0	100000	313.15	786.1	1.1
0	110000	313.15	791.4	1.2
0	120000	313.15	796.5	1.2
0	130000	313.15	801.4	1.3
0	140000	313.15	806	1.3
0	100	333.15	680.5	0.7
0	1000	333.15	682.1	0.7
0	5000	333.15	688.9	0.7
0	10000	333.15	696.4	0.8
0	15000	333.15	703.2	0.8
0	20000	333.15	709.4	0.8
0	25000	333.15	715.1	0.8
0	30000	333.15	720.5	0.8
0	35000	333.15	725.6	0.9
0	40000	333.15	730.3	0.9
0	45000	333.15	734.8	0.9
0	50000	333.15	739.1	0.9
0	55000	333.15	743.1	1
0	60000	333.15	747.1	1
0	65000	333.15	750.9	1
0	70000	333.15	754.4	1
0	80000	333.15	761.3	1.1
0	90000	333.15	767.7	1.1
0	100000	333.15	773.7	1.2
0	110000	333.15	779.4	1.2
0	120000	333.15	784.7	1.3
0	130000	333.15	789.9	1.3
0	140000	333.15	794.8	1.3
0	1000	353.19	659.5	0.7
0	5000	353.19	667.6	0.7
0	10000	353.19	676.5	0.8
0	15000	353.19	684.4	0.8
0	20000	353.19	691.5	0.8
0	25000	353.19	698	0.8
0	30000	353.19	704	0.8
0	35000	353.19	709.7	0.9
0	40000	353.19	714.8	0.9
0	45000	353.19	719.7	0.9
0	50000	353.19	724.6	0.9
0	55000	353.19	728.9	1
0	60000	353.19	733.2	1
0	65000	353.19	737.2	1
0	70000	353.19	741.1	1.1
0	80000	353.19	748.4	1.1
0	90000	353.19	755.4	1.2
0	100000	353.19	761.6	1.2
0	110000	353.19	767.8	1.3
0	120000	353.19	773.4	1.3
0	130000	353.19	778.8	1.3
0	140000	353.19	784	1.4
0	1000	373.24	635.6	0.7
0	5000	373.24	645.5	0.7
0	10000	373.24	656.1	0.8
0	15000	373.24	665.3	0.8
0	20000	373.24	673.5	0.8
0	25000	373.24	680.8	0.8
0	30000	373.24	687.6	0.9
0	35000	373.24	693.8	0.9
0	40000	373.24	699.6	0.9
0	45000	373.24	705	0.9
0	50000	373.24	710.1	1
0	55000	373.24	714.9	1
0	60000	373.24	719.5	1
0	65000	373.24	723.9	1.1
0	70000	373.24	728.1	1.1
0	80000	373.24	735.9	1.1
0	90000	373.24	743.2	1.2
0	100000	373.24	750	1.2
0	110000	373.24	756.3	1.3
0	120000	373.24	762.3	1.3
0	130000	373.24	768	1.4
0	140000	373.24	773.3	1.4
0	1000	393.28	609.5	0.7
0	5000	393.28	622.1	0.8
0	10000	393.28	635	0.8
0	15000	393.28	645.8	0.8
0	20000	393.28	655.2	0.8
0	25000	393.28	663.5	0.8
0	30000	393.28	671.1	0.9
0	35000	393.28	677.9	0.9
0	40000	393.28	684.3	0.9
0	45000	393.28	690.2	1
0	50000	393.28	695.8	1
0	55000	393.28	701.1	1
0	60000	393.28	705.9	1.1
0	65000	393.28	710.6	1.1
0	70000	393.28	715.2	1.1
0	80000	393.28	723.5	1.2
0	90000	393.28	731.3	1.2
0	100000	393.28	738.4	1.3
0	110000	393.28	745.3	1.3
0	120000	393.28	751.4	1.4
0	130000	393.28	757.4	1.4
0	140000	393.28	763.1	1.5
0.2036	100	293.15	737.9	0.7
0.2036	1000	293.15	739	0.7
0.2036	5000	293.15	743.4	0.7
0.2036	10000	293.15	748.6	0.7
0.2036	15000	293.15	753.3	0.8
0.2036	20000	293.15	757.9	0.8
0.2036	25000	293.15	762.2	0.8
0.2036	30000	293.15	766.2	0.8
0.2036	35000	293.15	770.1	0.8
0.2036	40000	293.15	773.8	0.8
0.2036	45000	293.15	777.3	0.9
0.2036	50000	293.15	780.7	0.9
0.2036	55000	293.15	784	0.9
0.2036	60000	293.15	787.1	0.9
0.2036	65000	293.15	790.3	0.9
0.2036	70000	293.15	793.2	1
0.2036	80000	293.15	798.9	1
0.2036	90000	293.15	804.4	1
0.2036	100000	293.15	809.3	1.1
0.2036	110000	293.15	814.2	1.1
0.2036	120000	293.15	818.9	1.1
0.2036	130000	293.15	823.4	1.2
0.2036	140000	293.15	827.6	1.2
0.2036	100	298.15	732.9	0.7
0.2036	1000	298.15	734	0.7
0.2036	5000	298.15	738.6	0.7
0.2036	10000	298.15	743.9	0.7
0.2036	15000	298.15	748.8	0.8
0.2036	20000	298.15	753.5	0.8
0.2036	25000	298.15	757.9	0.8
0.2036	30000	298.15	762.1	0.8
0.2036	35000	298.15	766	0.8
0.2036	40000	298.15	769.8	0.8
0.2036	45000	298.15	773.4	0.9
0.2036	50000	298.15	776.9	0.9
0.2036	55000	298.15	780.3	0.9
0.2036	60000	298.15	783.5	0.9
0.2036	65000	298.15	786.6	0.9
0.2036	70000	298.15	789.7	1
0.2036	80000	298.15	795.5	1
0.2036	90000	298.15	801	1
0.2036	100000	298.15	806.1	1.1
0.2036	110000	298.15	811.1	1.1
0.2036	120000	298.15	815.8	1.1
0.2036	130000	298.15	820.3	1.2
0.2036	140000	298.15	824.6	1.2
0.2036	100	313.15	717.2	0.7
0.2036	1000	313.15	718.4	0.7
0.2036	5000	313.15	723.5	0.7
0.2036	10000	313.15	729.6	0.7
0.2036	15000	313.15	735	0.8
0.2036	20000	313.15	740.2	0.8
0.2036	25000	313.15	744.8	0.8
0.2036	30000	313.15	749.5	0.8
0.2036	35000	313.15	753.8	0.8
0.2036	40000	313.15	757.8	0.9
0.2036	45000	313.15	761.7	0.9
0.2036	50000	313.15	765.5	0.9
0.2036	55000	313.15	769.1	0.9
0.2036	60000	313.15	772.7	0.9
0.2036	65000	313.15	776	1
0.2036	70000	313.15	779.1	1
0.2036	80000	313.15	785.2	1
0.2036	90000	313.15	791	1.1
0.2036	100000	313.15	796.5	1.1
0.2036	110000	313.15	801.7	1.1
0.2036	120000	313.15	806.5	1.2
0.2036	130000	313.15	811.3	1.2
0.2036	140000	313.15	815.8	1.3
0.2036	100	333.15	695.4	0.7
0.2036	1000	333.15	696.9	0.7
0.2036	5000	333.15	703	0.7
0.2036	10000	333.15	709.9	0.7
0.2036	15000	333.15	716.4	0.8
0.2036	20000	333.15	722.2	0.8
0.2036	25000	333.15	727.6	0.8
0.2036	30000	333.15	732.7	0.8
0.2036	35000	333.15	737.5	0.8
0.2036	40000	333.15	742	0.9
0.2036	45000	333.15	746.3	0.9
0.2036	50000	333.15	750.4	0.9
0.2036	55000	333.15	754.3	0.9
0.2036	60000	333.15	758	1
0.2036	65000	333.15	761.7	1
0.2036	70000	333.15	765.1	1
0.2036	80000	333.15	771.8	1.1
0.2036	90000	333.15	778	1.1
0.2036	100000	333.15	783.7	1.1
0.2036	110000	333.15	789.3	1.2
0.2036	120000	333.15	794.5	1.2
0.2036	130000	333.15	799.5	1.3
0.2036	140000	333.15	804.2	1.3
0.2036	100	353.19	672.3	0.7
0.2036	1000	353.19	674.1	0.7
0.2036	5000	353.19	681.5	0.7
0.2036	10000	353.19	689.7	0.8
0.2036	15000	353.19	697.1	0.8
0.2036	20000	353.19	703.8	0.8
0.2036	25000	353.19	709.9	0.8
0.2036	30000	353.19	715.7	0.8
0.2036	35000	353.19	721	0.9
0.2036	40000	353.19	725.9	0.9
0.2036	45000	353.19	730.8	0.9
0.2036	50000	353.19	735.3	0.9
0.2036	55000	353.19	739.4	1
0.2036	60000	353.19	743.6	1
0.2036	65000	353.19	747.6	1
0.2036	70000	353.19	751.3	1
0.2036	80000	353.19	758.3	1.1
0.2036	90000	353.19	765.1	1.1
0.2036	100000	353.19	771.2	1.2
0.2036	110000	353.19	777.1	1.2
0.2036	120000	353.19	782.6	1.3
0.2036	130000	353.19	787.8	1.3
0.2036	140000	353.19	792.9	1.4
0.2036	1000	373.24	649.8	0.7
0.2036	5000	373.24	659	0.7
0.2036	10000	373.24	668.7	0.8
0.2036	15000	373.24	677.4	0.8
0.2036	20000	373.24	685.1	0.8
0.2036	25000	373.24	692.1	0.8
0.2036	30000	373.24	698.6	0.9
0.2036	35000	373.24	704.4	0.9
0.2036	40000	373.24	710	0.9
0.2036	45000	373.24	715.3	0.9
0.2036	50000	373.24	720.1	1
0.2036	55000	373.24	724.9	1
0.2036	60000	373.24	729.2	1
0.2036	65000	373.24	733.4	1
0.2036	70000	373.24	737.4	1.1
0.2036	80000	373.24	745.2	1.1
0.2036	90000	373.24	752.3	1.2
0.2036	100000	373.24	758.8	1.2
0.2036	110000	373.24	765.1	1.3
0.2036	120000	373.24	770.9	1.3
0.2036	130000	373.24	776.5	1.4
0.2036	140000	373.24	781.8	1.4
0.2036	1000	393.28	623.6	0.7
0.2036	5000	393.28	635	0.8
0.2036	10000	393.28	647	0.8
0.2036	15000	393.28	657.1	0.8
0.2036	20000	393.28	666	0.8
0.2036	25000	393.28	674	0.8
0.2036	30000	393.28	681.1	0.9
0.2036	35000	393.28	687.8	0.9
0.2036	40000	393.28	694	0.9
0.2036	45000	393.28	699.6	0.9
0.2036	50000	393.28	705.1	1
0.2036	55000	393.28	710.3	1
0.2036	60000	393.28	714.9	1
0.2036	65000	393.28	719.4	1.1
0.2036	70000	393.28	723.9	1.1
0.2036	80000	393.28	732	1.1
0.2036	90000	393.28	739.7	1.2
0.2036	100000	393.28	746.7	1.3
0.2036	110000	393.28	753.3	1.3
0.2036	120000	393.28	759.4	1.4
0.2036	130000	393.28	765.3	1.4
0.2036	140000	393.28	770.8	1.5
0.3227	100	293.15	746.6	0.7
0.3227	1000	293.15	747.6	0.7
0.3227	5000	293.15	751.8	0.7
0.3227	10000	293.15	756.8	0.7
0.3227	15000	293.15	761.4	0.8
0.3227	20000	293.15	765.7	0.8
0.3227	25000	293.15	769.9	0.8
0.3227	30000	293.15	773.8	0.8
0.3227	35000	293.15	777.6	0.8
0.3227	40000	293.15	781.1	0.8
0.3227	45000	293.15	784.6	0.8
0.3227	50000	293.15	787.9	0.9
0.3227	55000	293.15	791.1	0.9
0.3227	60000	293.15	794.2	0.9
0.3227	65000	293.15	797.2	0.9
0.3227	70000	293.15	800.1	0.9
0.3227	80000	293.15	805.6	1
0.3227	90000	293.15	810.9	1
0.3227	100000	293.15	815.9	1
0.3227	110000	293.15	820.7	1.1
0.3227	120000	293.15	825.2	1.1
0.3227	130000	293.15	829.6	1.1
0.3227	140000	293.15	833.7	1.2
0.3227	100	298.15	741.7	0.7
0.3227	1000	298.15	742.8	0.7
0.3227	5000	298.15	747.1	0.7
0.3227	10000	298.15	752.2	0.7
0.3227	15000	298.15	757	0.8
0.3227	20000	298.15	761.5	0.8
0.3227	25000	298.15	765.7	0.8
0.3227	30000	298.15	769.8	0.8
0.3227	35000	298.15	773.6	0.8
0.3227	40000	298.15	777.3	0.8
0.3227	45000	298.15	780.8	0.9
0.3227	50000	298.15	784.2	0.9
0.3227	55000	298.15	787.5	0.9
0.3227	60000	298.15	790.6	0.9
0.3227	65000	298.15	793.7	0.9
0.3227	70000	298.15	796.6	0.9
0.3227	80000	298.15	802.3	1
0.3227	90000	298.15	807.7	1
0.3227	100000	298.15	812.7	1.1
0.3227	110000	298.15	817.6	1.1
0.3227	120000	298.15	822.1	1.1
0.3227	130000	298.15	826.5	1.2
0.3227	140000	298.15	830.9	1.2
0.3227	100	313.15	726.3	0.7
0.3227	1000	313.15	727.5	0.7
0.3227	5000	313.15	732.4	0.7
0.3227	10000	313.15	738.2	0.7
0.3227	15000	313.15	743.4	0.8
0.3227	20000	313.15	748.4	0.8
0.3227	25000	313.15	752.8	0.8
0.3227	30000	313.15	757.4	0.8
0.3227	35000	313.15	761.5	0.8
0.3227	40000	313.15	765.4	0.8
0.3227	45000	313.15	769.2	0.9
0.3227	50000	313.15	772.9	0.9
0.3227	55000	313.15	776.4	0.9
0.3227	60000	313.15	779.8	0.9
0.3227	65000	313.15	783.1	0.9
0.3227	70000	313.15	786.1	1
0.3227	80000	313.15	792.1	1
0.3227	90000	313.15	797.8	1
0.3227	100000	313.15	803.1	1.1
0.3227	110000	313.15	808.2	1.1
0.3227	120000	313.15	813	1.2
0.3227	130000	313.15	817.7	1.2
0.3227	140000	313.15	822	1.2
0.3227	100	333.15	704.8	0.7
0.3227	1000	333.15	706.3	0.7
0.3227	5000	333.15	712.1	0.7
0.3227	10000	333.15	718.7	0.7
0.3227	15000	333.15	724.8	0.8
0.3227	20000	333.15	730.4	0.8
0.3227	25000	333.15	735.7	0.8
0.3227	30000	333.15	740.5	0.8
0.3227	35000	333.15	745.2	0.8
0.3227	40000	333.15	749.6	0.9
0.3227	45000	333.15	753.7	0.9
0.3227	50000	333.15	757.8	0.9
0.3227	55000	333.15	761.6	0.9
0.3227	60000	333.15	765.2	0.9
0.3227	65000	333.15	768.8	1
0.3227	70000	333.15	772.1	1
0.3227	80000	333.15	778.6	1
0.3227	90000	333.15	784.7	1.1
0.3227	100000	333.15	790.3	1.1
0.3227	110000	333.15	795.8	1.2
0.3227	120000	333.15	800.9	1.2
0.3227	130000	333.15	805.9	1.2
0.3227	140000	333.15	810.4	1.3
0.3227	100	353.19	682	0.7
0.3227	1000	353.19	683.6	0.7
0.3227	5000	353.19	690.7	0.7
0.3227	10000	353.19	698.5	0.8
0.3227	15000	353.19	705.5	0.8
0.3227	20000	353.19	711.9	0.8
0.3227	25000	353.19	717.9	0.8
0.3227	30000	353.19	723.4	0.8
0.3227	35000	353.19	728.6	0.9
0.3227	40000	353.19	733.3	0.9
0.3227	45000	353.19	738	0.9
0.3227	50000	353.19	742.4	0.9
0.3227	55000	353.19	746.5	0.9
0.3227	60000	353.19	750.5	1
0.3227	65000	353.19	754.3	1
0.3227	70000	353.19	758	1
0.3227	80000	353.19	765	1.1
0.3227	90000	353.19	771.5	1.1
0.3227	100000	353.19	777.6	1.2
0.3227	110000	353.19	783.4	1.2
0.3227	120000	353.19	788.8	1.2
0.3227	130000	353.19	793.9	1.3
0.3227	140000	353.19	798.9	1.3
0.3227	1000	373.24	659.4	0.7
0.3227	5000	373.24	668	0.7
0.3227	10000	373.24	677.2	0.8
0.3227	15000	373.24	685.5	0.8
0.3227	20000	373.24	693	0.8
0.3227	25000	373.24	699.7	0.8
0.3227	30000	373.24	706	0.8
0.3227	35000	373.24	711.7	0.9
0.3227	40000	373.24	717.1	0.9
0.3227	45000	373.24	722.2	0.9
0.3227	50000	373.24	726.9	0.9
0.3227	55000	373.24	731.5	1
0.3227	60000	373.24	735.8	1
0.3227	65000	373.24	740	1
0.3227	70000	373.24	743.9	1
0.3227	80000	373.24	751.5	1.1
0.3227	90000	373.24	758.4	1.1
0.3227	100000	373.24	764.9	1.2
0.3227	110000	373.24	771	1.2
0.3227	120000	373.24	776.8	1.3
0.3227	130000	373.24	782.3	1.3
0.3227	140000	373.24	787.4	1.4
0.3227	1000	393.28	633.2	0.7
0.3227	5000	393.28	643.9	0.7
0.3227	10000	393.28	655.3	0.8
0.3227	15000	393.28	665	0.8
0.3227	20000	393.28	673.6	0.8
0.3227	25000	393.28	681.2	0.8
0.3227	30000	393.28	688.2	0.9
0.3227	35000	393.28	694.7	0.9
0.3227	40000	393.28	700.7	0.9
0.3227	45000	393.28	706.2	0.9
0.3227	50000	393.28	711.5	1
0.3227	55000	393.28	716.6	1
0.3227	60000	393.28	721.1	1
0.3227	65000	393.28	725.7	1.1
0.3227	70000	393.28	729.9	1.1
0.3227	80000	393.28	738	1.1
0.3227	90000	393.28	745.5	1.2
0.3227	100000	393.28	752.4	1.2
0.3227	110000	393.28	758.9	1.3
0.3227	120000	393.28	764.9	1.3
0.3227	130000	393.28	770.8	1.4
0.3227	140000	393.28	776.3	1.4
0.4464	100	293.15	756.1	0.7
0.4464	1000	293.15	757	0.7
0.4464	5000	293.15	761.1	0.7
0.4464	10000	293.15	765.7	0.7
0.4464	15000	293.15	770.2	0.7
0.4464	20000	293.15	774.3	0.8
0.4464	25000	293.15	778.3	0.8
0.4464	30000	293.15	782.2	0.8
0.4464	35000	293.15	785.7	0.8
0.4464	40000	293.15	789.2	0.8
0.4464	45000	293.15	792.5	0.8
0.4464	50000	293.15	795.7	0.9
0.4464	55000	293.15	798.8	0.9
0.4464	60000	293.15	801.8	0.9
0.4464	65000	293.15	804.8	0.9
0.4464	70000	293.15	807.5	0.9
0.4464	80000	293.15	812.9	1
0.4464	90000	293.15	818.1	1
0.4464	100000	293.15	822.9	1
0.4464	110000	293.15	827.6	1.1
0.4464	120000	293.15	832.1	1.1
0.4464	130000	293.15	836.4	1.1
0.4464	140000	293.15	840.4	1.1
0.4464	100	298.15	751.2	0.7
0.4464	1000	298.15	752.2	0.7
0.4464	5000	298.15	756.3	0.7
0.4464	10000	298.15	761.2	0.7
0.4464	15000	298.15	765.8	0.8
0.4464	20000	298.15	770.1	0.8
0.4464	25000	298.15	774.2	0.8
0.4464	30000	298.15	778.1	0.8
0.4464	35000	298.15	781.7	0.8
0.4464	40000	298.15	785.3	0.8
0.4464	45000	298.15	788.7	0.8
0.4464	50000	298.15	792	0.9
0.4464	55000	298.15	795.2	0.9
0.4464	60000	298.15	798.2	0.9
0.4464	65000	298.15	801.2	0.9
0.4464	70000	298.15	804.1	0.9
0.4464	80000	298.15	809.6	1
0.4464	90000	298.15	814.9	1
0.4464	100000	298.15	819.8	1
0.4464	110000	298.15	824.5	1.1
0.4464	120000	298.15	829	1.1
0.4464	130000	298.15	833.3	1.1
0.4464	140000	298.15	837.5	1.2
0.4464	100	313.15	736.2	0.7
0.4464	1000	313.15	737.3	0.7
0.4464	5000	313.15	741.9	0.7
0.4464	10000	313.15	747.4	0.7
0.4464	15000	313.15	752.4	0.8
0.4464	20000	313.15	757.1	0.8
0.4464	25000	313.15	761.4	0.8
0.4464	30000	313.15	765.8	0.8
0.4464	35000	313.15	769.8	0.8
0.4464	40000	313.15	773.6	0.8
0.4464	45000	313.15	777.2	0.9
0.4464	50000	313.15	780.8	0.9
0.4464	55000	313.15	784.2	0.9
0.4464	60000	313.15	787.4	0.9
0.4464	65000	313.15	790.7	0.9
0.4464	70000	313.15	793.7	1
0.4464	80000	313.15	799.4	1
0.4464	90000	313.15	805	1
0.4464	100000	313.15	810.1	1.1
0.4464	110000	313.15	815.1	1.1
0.4464	120000	313.15	819.8	1.1
0.4464	130000	313.15	824.4	1.2
0.4464	140000	313.15	828.7	1.2
0.4464	100	333.15	715.1	0.7
0.4464	1000	333.15	716.4	0.7
0.4464	5000	333.15	721.9	0.7
0.4464	10000	333.15	728.2	0.7
0.4464	15000	333.15	734	0.8
0.4464	20000	333.15	739.3	0.8
0.4464	25000	333.15	744.4	0.8
0.4464	30000	333.15	749.1	0.8
0.4464	35000	333.15	753.6	0.8
0.4464	40000	333.15	757.8	0.9
0.4464	45000	333.15	761.8	0.9
0.4464	50000	333.15	765.7	0.9
0.4464	55000	333.15	769.4	0.9
0.4464	60000	333.15	772.9	0.9
0.4464	65000	333.15	776.4	1
0.4464	70000	333.15	779.7	1
0.4464	80000	333.15	785.9	1
0.4464	90000	333.15	791.9	1.1
0.4464	100000	333.15	797.4	1.1
0.4464	110000	333.15	802.7	1.1
0.4464	120000	333.15	807.7	1.2
0.4464	130000	333.15	812.5	1.2
0.4464	140000	333.15	817	1.2
0.4464	100	353.19	692.5	0.7
0.4464	1000	353.19	694.1	0.7
0.4464	5000	353.19	700.7	0.7
0.4464	10000	353.19	708	0.8
0.4464	15000	353.19	714.7	0.8
0.4464	20000	353.19	720.9	0.8
0.4464	25000	353.19	726.6	0.8
0.4464	30000	353.19	731.9	0.8
0.4464	35000	353.19	736.8	0.8
0.4464	40000	353.19	741.5	0.9
0.4464	45000	353.19	745.9	0.9
0.4464	50000	353.19	750.3	0.9
0.4464	55000	353.19	754.3	0.9
0.4464	60000	353.19	758.1	1
0.4464	65000	353.19	761.9	1
0.4464	70000	353.19	765.5	1
0.4464	80000	353.19	772.2	1
0.4464	90000	353.19	778.6	1.1
0.4464	100000	353.19	784.5	1.1
0.4464	110000	353.19	790.2	1.2
0.4464	120000	353.19	795.5	1.2
0.4464	130000	353.19	800.6	1.3
0.4464	140000	353.19	805.4	1.3
0.4464	1000	373.24	670	0.7
0.4464	5000	373.24	678.1	0.7
0.4464	10000	373.24	686.9	0.8
0.4464	15000	373.24	694.7	0.8
0.4464	20000	373.24	701.7	0.8
0.4464	25000	373.24	708.2	0.8
0.4464	30000	373.24	714.3	0.8
0.4464	35000	373.24	719.8	0.9
0.4464	40000	373.24	725	0.9
0.4464	45000	373.24	730	0.9
0.4464	50000	373.24	734.6	0.9
0.4464	55000	373.24	739	1
0.4464	60000	373.24	743.2	1
0.4464	65000	373.24	747.3	1
0.4464	70000	373.24	751.1	1
0.4464	80000	373.24	758.4	1.1
0.4464	90000	373.24	765.2	1.1
0.4464	100000	373.24	771.5	1.2
0.4464	110000	373.24	777.6	1.2
0.4464	120000	373.24	783.2	1.3
0.4464	130000	373.24	788.7	1.3
0.4464	140000	373.24	793.7	1.3
0.4464	1000	393.28	644	0.7
0.4464	5000	393.28	654	0.7
0.4464	10000	393.28	664.6	0.8
0.4464	15000	393.28	673.9	0.8
0.4464	20000	393.28	682	0.8
0.4464	25000	393.28	689.5	0.8
0.4464	30000	393.28	696.2	0.9
0.4464	35000	393.28	702.5	0.9
0.4464	40000	393.28	708.3	0.9
0.4464	45000	393.28	713.7	0.9
0.4464	50000	393.28	718.8	1
0.4464	55000	393.28	723.7	1
0.4464	60000	393.28	728.2	1
0.4464	65000	393.28	732.5	1
0.4464	70000	393.28	736.8	1.1
0.4464	80000	393.28	744.7	1.1
0.4464	90000	393.28	752	1.2
0.4464	100000	393.28	758.7	1.2
0.4464	110000	393.28	765.2	1.3
0.4464	120000	393.28	771.1	1.3
0.4464	130000	393.28	776.8	1.4
0.4464	140000	393.28	782.3	1.4
0.4973	1000	293.15	761.1	0.7
0.4973	5000	293.15	765	0.7
0.4973	10000	293.15	769.6	0.7
0.4973	15000	293.15	774	0.7
0.4973	20000	293.15	778.1	0.8
0.4973	25000	293.15	782	0.8
0.4973	30000	293.15	785.7	0.8
0.4973	35000	293.15	789.3	0.8
0.4973	40000	293.15	792.7	0.8
0.4973	45000	293.15	796	0.8
0.4973	50000	293.15	799.1	0.9
0.4973	55000	293.15	802.2	0.9
0.4973	60000	293.15	805.2	0.9
0.4973	65000	293.15	808.1	0.9
0.4973	70000	293.15	810.8	0.9
0.4973	80000	293.15	816.2	1
0.4973	90000	293.15	821.3	1
0.4973	100000	293.15	826	1
0.4973	110000	293.15	830.7	1
0.4973	120000	293.15	835.1	1.1
0.4973	130000	293.15	839.3	1.1
0.4973	140000	293.15	843.3	1.1
0.4973	100	298.15	755.4	0.7
0.4973	1000	298.15	756.4	0.7
0.4973	5000	298.15	760.5	0.7
0.4973	10000	298.15	765.2	0.7
0.4973	15000	298.15	769.7	0.7
0.4973	20000	298.15	773.9	0.8
0.4973	25000	298.15	777.9	0.8
0.4973	30000	298.15	781.8	0.8
0.4973	35000	298.15	785.4	0.8
0.4973	40000	298.15	788.9	0.8
0.4973	45000	298.15	792.2	0.8
0.4973	50000	298.15	795.5	0.9
0.4973	55000	298.15	798.6	0.9
0.4973	60000	298.15	801.6	0.9
0.4973	65000	298.15	804.5	0.9
0.4973	70000	298.15	807.4	0.9
0.4973	80000	298.15	812.8	1
0.4973	90000	298.15	818	1
0.4973	100000	298.15	822.9	1
0.4973	110000	298.15	827.5	1.1
0.4973	120000	298.15	832	1.1
0.4973	130000	298.15	836.3	1.1
0.4973	140000	298.15	840.4	1.1
0.4973	100	313.15	740.5	0.7
0.4973	1000	313.15	741.6	0.7
0.4973	5000	313.15	746.1	0.7
0.4973	10000	313.15	751.5	0.7
0.4973	15000	313.15	756.4	0.8
0.4973	20000	313.15	761	0.8
0.4973	25000	313.15	765.2	0.8
0.4973	30000	313.15	769.6	0.8
0.4973	35000	313.15	773.5	0.8
0.4973	40000	313.15	777.2	0.8
0.4973	45000	313.15	780.8	0.9
0.4973	50000	313.15	784.3	0.9
0.4973	55000	313.15	787.7	0.9
0.4973	60000	313.15	790.9	0.9
0.4973	65000	313.15	794.1	0.9
0.4973	70000	313.15	797	0.9
0.4973	80000	313.15	802.7	1
0.4973	90000	313.15	808.2	1
0.4973	100000	313.15	813.4	1.1
0.4973	110000	313.15	818.3	1.1
0.4973	120000	313.15	822.9	1.1
0.4973	130000	313.15	827.4	1.2
0.4973	140000	313.15	831.7	1.2
0.4973	100	333.15	719.6	0.7
0.4973	1000	333.15	720.9	0.7
0.4973	5000	333.15	726.3	0.7
0.4973	10000	333.15	732.4	0.7
0.4973	15000	333.15	738.1	0.8
0.4973	20000	333.15	743.4	0.8
0.4973	25000	333.15	748.3	0.8
0.4973	30000	333.15	752.9	0.8
0.4973	35000	333.15	757.3	0.8
0.4973	40000	333.15	761.5	0.8
0.4973	45000	333.15	765.4	0.9
0.4973	50000	333.15	769.2	0.9
0.4973	55000	333.15	772.9	0.9
0.4973	60000	333.15	776.4	0.9
0.4973	65000	333.15	779.8	1
0.4973	70000	333.15	783.1	1
0.4973	80000	333.15	789.2	1
0.4973	90000	333.15	795.1	1.1
0.4973	100000	333.15	800.5	1.1
0.4973	110000	333.15	805.9	1.1
0.4973	120000	333.15	810.8	1.2
0.4973	130000	333.15	815.6	1.2
0.4973	140000	333.15	820	1.2
0.4973	1000	353.19	698.7	0.7
0.4973	5000	353.19	705.1	0.7
0.4973	10000	353.19	712.3	0.7
0.4973	15000	353.19	718.9	0.8
0.4973	20000	353.19	724.9	0.8
0.4973	25000	353.19	730.4	0.8
0.4973	30000	353.19	735.7	0.8
0.4973	35000	353.19	740.6	0.8
0.4973	40000	353.19	745.1	0.9
0.4973	45000	353.19	749.5	0.9
0.4973	50000	353.19	753.8	0.9
0.4973	55000	353.19	757.7	0.9
0.4973	60000	353.19	761.6	1
0.4973	65000	353.19	765.2	1
0.4973	70000	353.19	768.8	1
0.4973	80000	353.19	775.4	1
0.4973	90000	353.19	781.8	1.1
0.4973	100000	353.19	787.6	1.1
0.4973	110000	353.19	793.3	1.2
0.4973	120000	353.19	798.5	1.2
0.4973	130000	353.19	803.5	1.2
0.4973	140000	353.19	808.4	1.3
0.4973	1000	373.24	674.8	0.7
0.4973	5000	373.24	682.5	0.7
0.4973	10000	373.24	691.1	0.8
0.4973	15000	373.24	698.8	0.8
0.4973	20000	373.24	705.7	0.8
0.4973	25000	373.24	712	0.8
0.4973	30000	373.24	718	0.8
0.4973	35000	373.24	723.4	0.9
0.4973	40000	373.24	728.5	0.9
0.4973	45000	373.24	733.5	0.9
0.4973	50000	373.24	738	0.9
0.4973	55000	373.24	742.4	1
0.4973	60000	373.24	746.5	1
0.4973	65000	373.24	750.6	1
0.4973	70000	373.24	754.3	1
0.4973	80000	373.24	761.6	1.1
0.4973	90000	373.24	768.4	1.1
0.4973	100000	373.24	774.6	1.2
0.4973	110000	373.24	780.6	1.2
0.4973	120000	373.24	786.1	1.3
0.4973	130000	373.24	791.5	1.3
0.4973	140000	373.24	796.6	1.3
0.4973	1000	393.28	648.8	0.7
0.4973	5000	393.28	658.4	0.7
0.4973	10000	393.28	668.8	0.8
0.4973	15000	393.28	677.9	0.8
0.4973	20000	393.28	685.8	0.8
0.4973	25000	393.28	693.1	0.8
0.4973	30000	393.28	699.8	0.9
0.4973	35000	393.28	705.9	0.9
0.4973	40000	393.28	711.6	0.9
0.4973	45000	393.28	717	0.9
0.4973	50000	393.28	722	1
0.4973	55000	393.28	726.9	1
0.4973	60000	393.28	731.3	1
0.4973	65000	393.28	735.6	1
0.4973	70000	393.28	739.9	1.1
0.4973	80000	393.28	747.6	1.1
0.4973	90000	393.28	754.9	1.2
0.4973	100000	393.28	761.6	1.2
0.4973	110000	393.28	768	1.3
0.4973	120000	393.28	773.8	1.3
0.4973	130000	393.28	779.6	1.3
0.4973	140000	393.28	784.9	1.4
0.6595	100	293.15	774.1	0.7
0.6595	1000	293.15	774.9	0.7
0.6595	5000	293.15	778.5	0.7
0.6595	10000	293.15	782.9	0.7
0.6595	15000	293.15	786.9	0.7
0.6595	20000	293.15	790.8	0.8
0.6595	25000	293.15	794.5	0.8
0.6595	30000	293.15	798	0.8
0.6595	35000	293.15	801.3	0.8
0.6595	40000	293.15	804.5	0.8
0.6595	45000	293.15	807.7	0.8
0.6595	50000	293.15	810.7	0.8
0.6595	55000	293.15	813.6	0.9
0.6595	60000	293.15	816.4	0.9
0.6595	65000	293.15	819.2	0.9
0.6595	70000	293.15	821.8	0.9
0.6595	80000	293.15	826.9	0.9
0.6595	90000	293.15	831.9	1
0.6595	100000	293.15	836.4	1
0.6595	110000	293.15	840.9	1
0.6595	120000	293.15	845.2	1
0.6595	130000	293.15	849.3	1.1
0.6595	140000	293.15	853.2	1.1
0.6595	100	298.15	769.4	0.7
0.6595	1000	298.15	770.3	0.7
0.6595	5000	298.15	774.1	0.7
0.6595	10000	298.15	778.5	0.7
0.6595	15000	298.15	782.8	0.7
0.6595	20000	298.15	786.7	0.8
0.6595	25000	298.15	790.5	0.8
0.6595	30000	298.15	794.1	0.8
0.6595	35000	298.15	797.5	0.8
0.6595	40000	298.15	800.8	0.8
0.6595	45000	298.15	804.1	0.8
0.6595	50000	298.15	807.1	0.8
0.6595	55000	298.15	810.1	0.9
0.6595	60000	298.15	812.9	0.9
0.6595	65000	298.15	815.7	0.9
0.6595	70000	298.15	818.5	0.9
0.6595	80000	298.15	823.7	0.9
0.6595	90000	298.15	828.7	1
0.6595	100000	298.15	833.3	1
0.6595	110000	298.15	837.9	1
0.6595	120000	298.15	842.1	1.1
0.6595	130000	298.15	846.3	1.1
0.6595	140000	298.15	850.3	1.1
0.6595	100	313.15	755.1	0.7
0.6595	1000	313.15	756.1	0.7
0.6595	5000	313.15	760.2	0.7
0.6595	10000	313.15	765.2	0.7
0.6595	15000	313.15	769.8	0.7
0.6595	20000	313.15	774.1	0.8
0.6595	25000	313.15	778	0.8
0.6595	30000	313.15	782.1	0.8
0.6595	35000	313.15	785.8	0.8
0.6595	40000	313.15	789.3	0.8
0.6595	45000	313.15	792.8	0.8
0.6595	50000	313.15	796.1	0.9
0.6595	55000	313.15	799.3	0.9
0.6595	60000	313.15	802.3	0.9
0.6595	65000	313.15	805.4	0.9
0.6595	70000	313.15	808.2	0.9
0.6595	80000	313.15	813.7	1
0.6595	90000	313.15	818.9	1
0.6595	100000	313.15	823.9	1
0.6595	110000	313.15	828.6	1.1
0.6595	120000	313.15	833	1.1
0.6595	130000	313.15	837.4	1.1
0.6595	140000	313.15	841.6	1.1
0.6595	100	333.15	734.7	0.7
0.6595	1000	333.15	735.9	0.7
0.6595	5000	333.15	740.8	0.7
0.6595	10000	333.15	746.5	0.7
0.6595	15000	333.15	751.8	0.8
0.6595	20000	333.15	756.7	0.8
0.6595	25000	333.15	761.3	0.8
0.6595	30000	333.15	765.7	0.8
0.6595	35000	333.15	769.8	0.8
0.6595	40000	333.15	773.7	0.8
0.6595	45000	333.15	777.4	0.9
0.6595	50000	333.15	781.1	0.9
0.6595	55000	333.15	784.5	0.9
0.6595	60000	333.15	787.9	0.9
0.6595	65000	333.15	791.2	0.9
0.6595	70000	333.15	794.3	0.9
0.6595	80000	333.15	800.2	1
0.6595	90000	333.15	805.9	1
0.6595	100000	333.15	811.1	1.1
0.6595	110000	333.15	816.1	1.1
0.6595	120000	333.15	820.9	1.1
0.6595	130000	333.15	825.6	1.2
0.6595	140000	333.15	830	1.2
0.6595	100	353.19	712.8	0.7
0.6595	1000	353.19	714.2	0.7
0.6595	5000	353.19	720	0.7
0.6595	10000	353.19	726.7	0.7
0.6595	15000	353.19	732.8	0.8
0.6595	20000	353.19	738.3	0.8
0.6595	25000	353.19	743.5	0.8
0.6595	30000	353.19	748.5	0.8
0.6595	35000	353.19	753.1	0.8
0.6595	40000	353.19	757.3	0.9
0.6595	45000	353.19	761.5	0.9
0.6595	50000	353.19	765.6	0.9
0.6595	55000	353.19	769.4	0.9
0.6595	60000	353.19	773	0.9
0.6595	65000	353.19	776.6	1
0.6595	70000	353.19	780	1
0.6595	80000	353.19	786.3	1
0.6595	90000	353.19	792.4	1.1
0.6595	100000	353.19	798	1.1
0.6595	110000	353.19	803.5	1.1
0.6595	120000	353.19	808.6	1.2
0.6595	130000	353.19	813.4	1.2
0.6595	140000	353.19	818.2	1.2
0.6595	1000	373.24	690.8	0.7
0.6595	5000	373.24	697.8	0.7
0.6595	10000	373.24	705.6	0.8
0.6595	15000	373.24	712.7	0.8
0.6595	20000	373.24	719.1	0.8
0.6595	25000	373.24	725.1	0.8
0.6595	30000	373.24	730.6	0.8
0.6595	35000	373.24	735.7	0.8
0.6595	40000	373.24	740.7	0.9
0.6595	45000	373.24	745.3	0.9
0.6595	50000	373.24	749.6	0.9
0.6595	55000	373.24	753.8	0.9
0.6595	60000	373.24	757.8	1
0.6595	65000	373.24	761.6	1
0.6595	70000	373.24	765.2	1
0.6595	80000	373.24	772.3	1.1
0.6595	90000	373.24	778.8	1.1
0.6595	100000	373.24	784.8	1.1
0.6595	110000	373.24	790.6	1.2
0.6595	120000	373.24	796	1.2
0.6595	130000	373.24	801.3	1.3
0.6595	140000	373.24	806.1	1.3
0.6595	1000	393.28	665	0.7
0.6595	5000	393.28	673.7	0.7
0.6595	10000	393.28	683.2	0.8
0.6595	15000	393.28	691.5	0.8
0.6595	20000	393.28	698.9	0.8
0.6595	25000	393.28	705.7	0.8
0.6595	30000	393.28	712	0.8
0.6595	35000	393.28	717.8	0.9
0.6595	40000	393.28	723.2	0.9
0.6595	45000	393.28	728.3	0.9
0.6595	50000	393.28	733.1	0.9
0.6595	55000	393.28	737.8	1
0.6595	60000	393.28	742.1	1
0.6595	65000	393.28	746.3	1
0.6595	70000	393.28	750.3	1
0.6595	80000	393.28	757.7	1.1
0.6595	90000	393.28	764.8	1.1
0.6595	100000	393.28	771.3	1.2
0.6595	110000	393.28	777.5	1.2
0.6595	120000	393.28	783.2	1.3
0.6595	130000	393.28	788.8	1.3
0.6595	140000	393.28	794.1	1.3
0.8482	100	293.15	791.8	0.7
0.8482	1000	293.15	792.6	0.7
0.8482	5000	293.15	795.9	0.7
0.8482	10000	293.15	799.8	0.7
0.8482	15000	293.15	803.5	0.7
0.8482	20000	293.15	807.1	0.8
0.8482	25000	293.15	810.4	0.8
0.8482	30000	293.15	813.7	0.8
0.8482	35000	293.15	816.8	0.8
0.8482	40000	293.15	819.8	0.8
0.8482	45000	293.15	822.7	0.8
0.8482	50000	293.15	825.5	0.8
0.8482	55000	293.15	828.3	0.8
0.8482	60000	293.15	830.9	0.8
0.8482	65000	293.15	833.5	0.9
0.8482	70000	293.15	836	0.9
0.8482	80000	293.15	840.8	0.9
0.8482	90000	293.15	845.5	0.9
0.8482	100000	293.15	849.8	1
0.8482	110000	293.15	854.1	1
0.8482	120000	293.15	858.2	1
0.8482	130000	293.15	862.1	1
0.8482	140000	293.15	865.8	1
0.8482	100	298.15	787.5	0.7
0.8482	1000	298.15	788.3	0.7
0.8482	5000	298.15	791.7	0.7
0.8482	10000	298.15	795.7	0.7
0.8482	15000	298.15	799.6	0.7
0.8482	20000	298.15	803.2	0.8
0.8482	25000	298.15	806.6	0.8
0.8482	30000	298.15	810	0.8
0.8482	35000	298.15	813.1	0.8
0.8482	40000	298.15	816.2	0.8
0.8482	45000	298.15	819.2	0.8
0.8482	50000	298.15	822.1	0.8
0.8482	55000	298.15	824.9	0.8
0.8482	60000	298.15	827.6	0.9
0.8482	65000	298.15	830.2	0.9
0.8482	70000	298.15	832.8	0.9
0.8482	80000	298.15	837.7	0.9
0.8482	90000	298.15	842.4	0.9
0.8482	100000	298.15	846.9	1
0.8482	110000	298.15	851.2	1
0.8482	120000	298.15	855.3	1
0.8482	130000	298.15	859.2	1
0.8482	140000	298.15	863.1	1.1
0.8482	100	313.15	773.8	0.7
0.8482	1000	313.15	774.7	0.7
0.8482	5000	313.15	778.4	0.7
0.8482	10000	313.15	782.9	0.7
0.8482	15000	313.15	787.1	0.7
0.8482	20000	313.15	791.1	0.8
0.8482	25000	313.15	794.6	0.8
0.8482	30000	313.15	798.4	0.8
0.8482	35000	313.15	801.8	0.8
0.8482	40000	313.15	805.1	0.8
0.8482	45000	313.15	808.3	0.8
0.8482	50000	313.15	811.4	0.8
0.8482	55000	313.15	814.4	0.9
0.8482	60000	313.15	817.3	0.9
0.8482	65000	313.15	820.1	0.9
0.8482	70000	313.15	822.8	0.9
0.8482	80000	313.15	827.9	0.9
0.8482	90000	313.15	832.9	1
0.8482	100000	313.15	837.6	1
0.8482	110000	313.15	842.1	1
0.8482	120000	313.15	846.4	1
0.8482	130000	313.15	850.5	1.1
0.8482	140000	313.15	854.5	1.1
0.8482	100	333.15	754.2	0.7
0.8482	1000	333.15	755.4	0.7
0.8482	5000	333.15	759.7	0.7
0.8482	10000	333.15	764.8	0.7
0.8482	15000	333.15	769.6	0.7
0.8482	20000	333.15	774.1	0.8
0.8482	25000	333.15	778.2	0.8
0.8482	30000	333.15	782.3	0.8
0.8482	35000	333.15	786.2	0.8
0.8482	40000	333.15	789.8	0.8
0.8482	45000	333.15	793.2	0.8
0.8482	50000	333.15	796.6	0.9
0.8482	55000	333.15	799.8	0.9
0.8482	60000	333.15	803	0.9
0.8482	65000	333.15	806	0.9
0.8482	70000	333.15	808.9	0.9
0.8482	80000	333.15	814.6	1
0.8482	90000	333.15	820	1
0.8482	100000	333.15	824.9	1
0.8482	110000	333.15	829.8	1.1
0.8482	120000	333.15	834.3	1.1
0.8482	130000	333.15	838.8	1.1
0.8482	140000	333.15	842.9	1.1
0.8482	100	353.19	732.9	0.7
0.8482	1000	353.19	734.2	0.7
0.8482	5000	353.19	739.3	0.7
0.8482	10000	353.19	745.2	0.7
0.8482	15000	353.19	750.7	0.8
0.8482	20000	353.19	755.8	0.8
0.8482	25000	353.19	760.6	0.8
0.8482	30000	353.19	765.1	0.8
0.8482	35000	353.19	769.3	0.8
0.8482	40000	353.19	773.4	0.8
0.8482	45000	353.19	777.3	0.9
0.8482	50000	353.19	781	0.9
0.8482	55000	353.19	784.5	0.9
0.8482	60000	353.19	788	0.9
0.8482	65000	353.19	791.3	0.9
0.8482	70000	353.19	794.6	0.9
0.8482	80000	353.19	800.5	1
0.8482	90000	353.19	806.4	1
0.8482	100000	353.19	811.8	1.1
0.8482	110000	353.19	816.9	1.1
0.8482	120000	353.19	821.8	1.1
0.8482	130000	353.19	826.5	1.2
0.8482	140000	353.19	831	1.2
0.8482	1000	373.24	711.2	0.7
0.8482	5000	373.24	717.4	0.7
0.8482	10000	373.24	724.3	0.7
0.8482	15000	373.24	730.7	0.8
0.8482	20000	373.24	736.5	0.8
0.8482	25000	373.24	741.9	0.8
0.8482	30000	373.24	747.1	0.8
0.8482	35000	373.24	751.9	0.8
0.8482	40000	373.24	756.3	0.9
0.8482	45000	373.24	760.7	0.9
0.8482	50000	373.24	764.7	0.9
0.8482	55000	373.24	768.7	0.9
0.8482	60000	373.24	772.4	0.9
0.8482	65000	373.24	776	1
0.8482	70000	373.24	779.5	1
0.8482	80000	373.24	786.1	1
0.8482	90000	373.24	792.3	1.1
0.8482	100000	373.24	798.2	1.1
0.8482	110000	373.24	803.6	1.1
0.8482	120000	373.24	808.8	1.2
0.8482	130000	373.24	813.9	1.2
0.8482	140000	373.24	818.6	1.2
0.8482	1000	393.28	686.4	0.7
0.8482	5000	393.28	693.9	0.7
0.8482	10000	393.28	702.2	0.8
0.8482	15000	393.28	709.7	0.8
0.8482	20000	393.28	716.3	0.8
0.8482	25000	393.28	722.6	0.8
0.8482	30000	393.28	728.4	0.8
0.8482	35000	393.28	733.8	0.9
0.8482	40000	393.28	738.8	0.9
0.8482	45000	393.28	743.6	0.9
0.8482	50000	393.28	748.1	0.9
0.8482	55000	393.28	752.5	0.9
0.8482	60000	393.28	756.5	1
0.8482	65000	393.28	760.4	1
0.8482	70000	393.28	764.3	1
0.8482	80000	393.28	771.4	1.1
0.8482	90000	393.28	778.1	1.1
0.8482	100000	393.28	784.3	1.1
0.8482	110000	393.28	790.3	1.2
0.8482	120000	393.28	795.8	1.2
0.8482	130000	393.28	801.1	1.3
0.8482	140000	393.28	806.2	1.3
1	100	293.15	806.7	0.7
1	1000	293.15	807.4	0.7
1	5000	293.15	810.4	0.7
1	10000	293.15	814	0.7
1	15000	293.15	817.4	0.7
1	20000	293.15	820.7	0.7
1	25000	293.15	823.9	0.8
1	30000	293.15	826.9	0.8
1	35000	293.15	829.8	0.8
1	40000	293.15	832.7	0.8
1	45000	293.15	835.4	0.8
1	50000	293.15	838.1	0.8
1	55000	293.15	840.6	0.8
1	60000	293.15	843.2	0.8
1	65000	293.15	845.6	0.8
1	70000	293.15	848	0.9
1	80000	293.15	852.6	0.9
1	90000	293.15	857.1	0.9
1	100000	293.15	861.2	0.9
1	110000	293.15	865.3	0.9
1	120000	293.15	869.2	1
1	130000	293.15	873	1
1	140000	293.15	876.6	1
1	100	298.15	802.6	0.7
1	1000	298.15	803.3	0.7
1	5000	298.15	806.4	0.7
1	10000	298.15	810.1	0.7
1	15000	298.15	813.7	0.7
1	20000	298.15	817	0.7
1	25000	298.15	820.2	0.8
1	30000	298.15	823.4	0.8
1	35000	298.15	826.4	0.8
1	40000	298.15	829.2	0.8
1	45000	298.15	832	0.8
1	50000	298.15	834.7	0.8
1	55000	298.15	837.4	0.8
1	60000	298.15	839.9	0.8
1	65000	298.15	842.4	0.8
1	70000	298.15	844.8	0.9
1	80000	298.15	849.5	0.9
1	90000	298.15	854.1	0.9
1	100000	298.15	858.3	0.9
1	110000	298.15	862.4	1
1	120000	298.15	866.3	1
1	130000	298.15	870.1	1
1	140000	298.15	873.9	1
1	100	313.15	789.6	0.7
1	1000	313.15	790.3	0.7
1	5000	313.15	793.7	0.7
1	10000	313.15	797.8	0.7
1	15000	313.15	801.6	0.7
1	20000	313.15	805.3	0.8
1	25000	313.15	808.6	0.8
1	30000	313.15	812.1	0.8
1	35000	313.15	815.3	0.8
1	40000	313.15	818.4	0.8
1	45000	313.15	821.3	0.8
1	50000	313.15	824.3	0.8
1	55000	313.15	827.1	0.8
1	60000	313.15	829.8	0.9
1	65000	313.15	832.5	0.9
1	70000	313.15	835	0.9
1	80000	313.15	839.9	0.9
1	90000	313.15	844.7	0.9
1	100000	313.15	849.1	1
1	110000	313.15	853.5	1
1	120000	313.15	857.6	1
1	130000	313.15	861.5	1
1	140000	313.15	865.4	1
1	100	333.15	770.8	0.7
1	1000	333.15	771.8	0.7
1	5000	333.15	775.7	0.7
1	10000	333.15	780.3	0.7
1	15000	333.15	784.7	0.7
1	20000	333.15	788.9	0.8
1	25000	333.15	792.7	0.8
1	30000	333.15	796.4	0.8
1	35000	333.15	800	0.8
1	40000	333.15	803.5	0.8
1	45000	333.15	806.6	0.8
1	50000	333.15	809.8	0.8
1	55000	333.15	812.8	0.9
1	60000	333.15	815.8	0.9
1	65000	333.15	818.7	0.9
1	70000	333.15	821.4	0.9
1	80000	333.15	826.8	0.9
1	90000	333.15	831.9	1
1	100000	333.15	836.7	1
1	110000	333.15	841.3	1
1	120000	333.15	845.6	1
1	130000	333.15	849.9	1.1
1	140000	333.15	853.9	1.1
1	100	353.19	750.3	0.7
1	1000	353.19	751.4	0.7
1	5000	353.19	756	0.7
1	10000	353.19	761.3	0.7
1	15000	353.19	766.4	0.8
1	20000	353.19	771	0.8
1	25000	353.19	775.4	0.8
1	30000	353.19	779.5	0.8
1	35000	353.19	783.5	0.8
1	40000	353.19	787.2	0.8
1	45000	353.19	790.8	0.8
1	50000	353.19	794.4	0.9
1	55000	353.19	797.7	0.9
1	60000	353.19	801	0.9
1	65000	353.19	804.1	0.9
1	70000	353.19	807.2	0.9
1	80000	353.19	812.9	1
1	90000	353.19	818.3	1
1	100000	353.19	823.5	1
1	110000	353.19	828.5	1.1
1	120000	353.19	833.1	1.1
1	130000	353.19	837.6	1.1
1	140000	353.19	842	1.1
1	1000	373.24	729.1	0.7
1	5000	373.24	734.5	0.7
1	10000	373.24	740.8	0.7
1	15000	373.24	746.6	0.8
1	20000	373.24	751.9	0.8
1	25000	373.24	757	0.8
1	30000	373.24	761.6	0.8
1	35000	373.24	766.1	0.8
1	40000	373.24	770.3	0.8
1	45000	373.24	774.4	0.9
1	50000	373.24	778.1	0.9
1	55000	373.24	781.8	0.9
1	60000	373.24	785.3	0.9
1	65000	373.24	788.8	0.9
1	70000	373.24	792.1	1
1	80000	373.24	798.4	1
1	90000	373.24	804.3	1
1	100000	373.24	809.8	1.1
1	110000	373.24	815.1	1.1
1	120000	373.24	820.1	1.1
1	130000	373.24	824.9	1.2
1	140000	373.24	829.5	1.2
1	1000	393.28	704.8	0.7
1	5000	393.28	711.3	0.7
1	10000	393.28	718.8	0.7
1	15000	393.28	725.6	0.8
1	20000	393.28	731.7	0.8
1	25000	393.28	737.4	0.8
1	30000	393.28	742.7	0.8
1	35000	393.28	747.8	0.8
1	40000	393.28	752.5	0.9
1	45000	393.28	757	0.9
1	50000	393.28	761.2	0.9
1	55000	393.28	765.4	0.9
1	60000	393.28	769.2	0.9
1	65000	393.28	772.9	1
1	70000	393.28	776.6	1
1	80000	393.28	783.4	1
1	90000	393.28	789.8	1.1
1	100000	393.28	795.8	1.1
1	110000	393.28	801.5	1.1
1	120000	393.28	806.8	1.2
1	130000	393.28	811.9	1.2
1	140000	393.28	816.8	1.2
