Measured thermophysical data. The (p, rho, T, x) properties for (x1 n-butane + x2 isobutane) with x1 = (0.2625, 0.4913, and 0.7508) in the temperature range from (280 to 440) K at pressures from (1 to 200) MPa
Source: J. Chem. Thermodyn., 2008, 10.1016/j.jct.2007.11.013
Compound 1: butane, C4H10, InChI=1S/C4H10/c1-3-4-2/h3-4H2,1-2H3, purity 99.97%
Compound 2: 2-methylpropane, C4H10, InChI=1S/C4H10/c1-4(2)3/h4H,1-3H3, purity 99.99%

System: 2-methylpropane + butane; phases: Liquid
Property: Mass density, kg/m3 (Liquid); method: Bellows volumetry
Pressure, kPa	Temperature, K	Mole fraction of butane	Mass density, kg/m3	uncertainty
1000	280	0.2656	580.73	0.53
1000	280	0.4913	585.41	0.53
1000	280	0.7508	589.56	0.54
1000	320	0.2656	530.15	0.51
1000	320	0.4913	535.84	0.49
1000	320	0.7508	541.44	0.5
2000	280	0.2656	582.43	0.53
2000	280	0.4913	586.92	0.53
2000	280	0.7508	590.9	0.54
2000	320	0.2656	532.88	0.51
2000	320	0.4913	538.41	0.49
2000	320	0.7508	543.79	0.49
2000	360	0.2656	469.97	0.44
2000	360	0.4913	478.17	0.46
3000	280	0.2656	583.92	0.53
3000	280	0.4913	588.36	0.53
3000	280	0.7508	592.32	0.54
3000	320	0.2656	535.39	0.51
3000	320	0.4913	540.81	0.5
3000	320	0.7508	546.12	0.49
3000	360	0.2656	475.52	0.48
3000	360	0.4913	483.1	0.46
3000	360	0.7508	490.53	0.45
3000	400	0.4913	385.11	0.4
3000	400	0.7508	402.2	0.47
5000	280	0.2656	587.09	0.53
5000	280	0.4913	591.12	0.54
5000	280	0.7508	594.99	0.54
5000	320	0.2656	540.14	0.51
5000	320	0.4913	545.4	0.5
5000	320	0.7508	550.35	0.5
5000	360	0.2656	484.88	0.5
5000	360	0.4913	491.8	0.46
5000	360	0.7508	498.56	0.45
5000	400	0.2656	406.75	0.4
5000	400	0.4913	417.26	0.42
5000	400	0.7508	427.6	0.4
10000	280	0.2656	593.89	0.54
10000	280	0.4913	597.45	0.54
10000	280	0.7508	601.36	0.54
10000	320	0.2656	550.53	0.51
10000	320	0.4913	555.38	0.51
10000	320	0.7508	559.85	0.51
10000	360	0.2656	502.82	0.49
10000	360	0.4913	508.78	0.47
10000	360	0.7508	514.37	0.47
10000	400	0.2656	446.63	0.5
10000	400	0.4913	453.53	0.43
10000	400	0.7508	460.33	0.42
10000	440	0.2656	376.07	0.38
10000	440	0.4913	384.46	0.38
10000	440	0.7508	393.12	0.38
20000	280	0.2656	605.71	0.55
20000	280	0.4913	608.98	0.55
20000	280	0.7508	612.32	0.55
20000	320	0.2656	567.26	0.52
20000	320	0.4913	571.45	0.52
20000	320	0.7508	575.19	0.52
20000	360	0.2656	527.7	0.49
20000	360	0.4913	532.51	0.49
20000	360	0.7508	537.18	0.49
20000	400	0.2656	485.47	0.47
20000	400	0.4913	490.78	0.45
20000	400	0.7508	495.66	0.45
20000	440	0.2656	441.9	0.51
20000	440	0.4913	447.31	0.42
20000	440	0.7508	452.37	0.42
30000	280	0.2656	615.41	0.56
30000	280	0.4913	618.89	0.56
30000	280	0.7508	621.81	0.56
30000	320	0.2656	580.65	0.53
30000	320	0.4913	584.41	0.53
30000	320	0.7508	587.77	0.53
30000	360	0.2656	545.48	0.5
30000	360	0.4913	549.98	0.5
30000	360	0.7508	554.09	0.5
30000	400	0.2656	509.52	0.47
30000	400	0.4913	514.15	0.47
30000	400	0.7508	518.42	0.47
30000	440	0.2656	474.54	0.46
30000	440	0.4913	479.02	0.44
30000	440	0.7508	483.18	0.44
40000	280	0.2656	624.41	0.57
40000	280	0.4913	627.45	0.57
40000	280	0.7508	630.16	0.57
40000	320	0.2656	591.82	0.54
40000	320	0.4913	595.5	0.54
40000	320	0.7508	598.52	0.54
40000	360	0.2656	559.82	0.51
40000	360	0.4913	563.9	0.51
40000	360	0.7508	567.64	0.51
40000	400	0.2656	527.48	0.49
40000	400	0.4913	531.91	0.49
40000	400	0.7508	535.63	0.49
40000	440	0.2656	497.07	0.46
40000	440	0.4913	501.25	0.46
40000	440	0.7508	504.89	0.46
50000	280	0.2656	632.48	0.57
50000	280	0.4913	635.21	0.57
50000	280	0.7508	637.79	0.58
50000	320	0.2656	601.55	0.55
50000	320	0.4913	605.01	0.55
50000	320	0.7508	607.82	0.55
50000	360	0.2656	571.85	0.52
50000	360	0.4913	575.77	0.52
50000	360	0.7508	579.14	0.52
50000	400	0.2656	542.19	0.5
50000	400	0.4913	546.27	0.5
50000	400	0.7508	549.67	0.5
50000	440	0.2656	514.8	0.48
50000	440	0.4913	518.55	0.47
50000	440	0.7508	521.88	0.47
60000	280	0.2656	639.66	0.58
60000	280	0.4913	642.4	0.58
60000	280	0.7508	644.7	0.58
60000	320	0.2656	610.3	0.56
60000	320	0.4913	613.74	0.56
60000	320	0.7508	616.38	0.56
60000	360	0.2656	582.32	0.53
60000	360	0.4913	586.24	0.53
60000	360	0.7508	589.35	0.54
60000	400	0.2656	554.58	0.51
60000	400	0.4913	558.4	0.51
60000	400	0.7508	561.67	0.51
60000	440	0.2656	529.25	0.49
60000	440	0.4913	532.82	0.49
60000	440	0.7508	535.99	0.49
70000	280	0.2656	646.31	0.59
70000	280	0.4913	648.87	0.59
70000	280	0.7508	650.96	0.59
70000	320	0.2656	618.47	0.56
70000	320	0.4913	621.47	0.56
70000	320	0.7508	623.97	0.57
70000	360	0.2656	591.65	0.54
70000	360	0.4913	595.42	0.54
70000	360	0.7508	598.27	0.54
70000	400	0.2656	565.35	0.52
70000	400	0.4913	569.18	0.52
70000	400	0.7508	572.18	0.52
70000	440	0.2656	541.79	0.5
70000	440	0.4913	545.18	0.5
70000	440	0.7508	548.23	0.5
80000	280	0.2656	652.53	0.59
80000	280	0.4913	654.98	0.59
80000	280	0.7508	656.95	0.59
80000	320	0.2656	625.51	0.57
80000	320	0.4913	628.69	0.57
80000	320	0.7508	631.01	0.57
80000	360	0.2656	599.96	0.55
80000	360	0.4913	603.53	0.55
80000	360	0.7508	606.56	0.55
80000	400	0.2656	575	0.53
80000	400	0.4913	578.67	0.53
80000	400	0.7508	581.7	0.53
80000	440	0.2656	552.55	0.51
80000	440	0.4913	556.07	0.51
80000	440	0.7508	558.93	0.51
90000	280	0.2656	658.15	0.6
90000	280	0.4913	660.76	0.6
90000	280	0.7508	662.63	0.6
90000	320	0.2656	632.18	0.57
90000	320	0.4913	635.21	0.58
90000	320	0.7508	637.49	0.58
90000	360	0.2656	607.66	0.56
90000	360	0.4913	611.18	0.56
90000	360	0.7508	613.96	0.56
90000	400	0.2656	583.7	0.53
90000	400	0.4913	587.47	0.54
90000	400	0.7508	590.11	0.54
90000	440	0.2656	562.49	0.52
90000	440	0.4913	565.64	0.52
90000	440	0.7508	568.41	0.52
100000	280	0.2656	663.68	0.6
100000	280	0.4913	666.14	0.6
100000	280	0.7508	667.99	0.6
100000	320	0.2656	638.57	0.58
100000	320	0.4913	641.34	0.58
100000	320	0.7508	643.48	0.58
100000	360	0.2656	614.79	0.56
100000	360	0.4913	618.14	0.56
100000	360	0.7508	620.9	0.56
100000	400	0.2656	591.48	0.54
100000	400	0.4913	595.11	0.54
100000	400	0.7508	598.02	0.55
100000	440	0.2656	571.02	0.53
100000	440	0.4913	574.54	0.53
100000	440	0.7508	577.23	0.53
120000	280	0.2656	673.84	0.88
120000	280	0.4913	675.91	0.88
120000	280	0.7508	677.69	0.88
120000	320	0.2656	649.73	0.59
120000	320	0.4913	652.68	0.59
120000	320	0.7508	654.79	0.59
120000	360	0.2656	627.56	0.57
120000	360	0.4913	630.84	0.57
120000	360	0.7508	633.4	0.58
120000	400	0.2656	605.85	0.55
120000	400	0.4913	609.08	0.56
120000	400	0.7508	611.77	0.56
120000	440	0.2656	586.73	1.3
120000	440	0.4913	590.02	1.3
120000	440	0.7508	592.51	1.31
140000	280	0.2656	682.73	0.89
140000	280	0.4913	685.03	0.89
140000	280	0.7508	686.69	0.9
140000	320	0.2656	660.13	0.6
140000	320	0.4913	662.76	0.6
140000	320	0.7508	664.53	0.6
140000	360	0.2656	638.86	0.58
140000	360	0.4913	642.02	0.58
140000	360	0.7508	644.56	0.59
140000	400	0.2656	618.11	0.57
140000	400	0.4913	621.57	0.57
140000	400	0.7508	623.93	0.57
140000	440	0.2656	600.22	1.33
140000	440	0.4913	603.26	1.33
140000	440	0.7508	605.8	1.34
160000	280	0.2656	691.28	0.91
160000	280	0.4913	693.26	0.91
160000	280	0.7508	694.86	0.91
160000	320	0.2656	669.26	0.62
160000	320	0.4913	672	0.62
160000	320	0.7508	673.62	0.62
160000	360	0.2656	649.01	0.61
160000	360	0.4913	652.16	0.61
160000	360	0.7508	654.38	0.61
160000	400	0.2656	628.97	0.59
160000	400	0.4913	632.55	0.6
160000	400	0.7508	634.89	0.6
160000	440	0.2656	612.2	1.36
160000	440	0.4913	615.27	1.37
160000	440	0.7508	617.59	1.37
180000	280	0.2656	699.06	0.92
180000	280	0.4913	700.72	0.92
180000	280	0.7508	702.34	0.92
180000	320	0.2656	677.76	0.63
180000	320	0.4913	680.38	0.63
180000	320	0.7508	681.89	0.63
180000	360	0.2656	658.15	0.62
180000	360	0.4913	661.25	0.62
180000	360	0.7508	663.57	0.62
180000	400	0.2656	639.19	0.6
180000	400	0.4913	642.45	0.6
180000	400	0.7508	644.7	0.61
180000	440	0.2656	622.95	1.38
180000	440	0.4913	625.93	1.39
180000	440	0.7508	628.15	1.39
200000	280	0.2656	706.05	0.93
200000	280	0.4913	708	0.93
200000	280	0.7508	709.43	0.93
200000	320	0.2656	685.47	0.64
200000	320	0.4913	687.99	0.64
200000	320	0.7508	689.51	0.64
200000	360	0.2656	666.71	0.63
200000	360	0.4913	669.76	0.63
200000	360	0.7508	672.02	0.63
200000	400	0.2656	648.34	0.62
200000	400	0.4913	651.4	0.62
200000	400	0.7508	653.9	0.62
200000	440	0.2656	632.67	1.41
200000	440	0.4913	635.69	1.41
200000	440	0.7508	637.8	1.42
