Measured thermophysical data. Experimental and computational thermochemistry of 6,7-dihydro-4(5H)-benzofuranone
Source: J. Chem. Thermodyn., 2013, 10.1016/j.jct.2012.07.008
Compound 1: carbon dioxide, CO2, InChI=1S/CO2/c2-1-3
Compound 2: water, H2O, InChI=1S/H2O/h1H2
Compound 3: oxygen, O2, InChI=1S/O2/c1-2
Compound 4: hydrogen, H2, InChI=1S/H2/h1H
Compound 5: graphite, C
Compound 6: 6,7-dihydrobenzofuran-4(5H)-one, C8H8O2, InChI=1S/C8H8O2/c9-7-2-1-3-8-6(7)4-5-10-8/h4-5H,1-3H2, purity 98%

System: 6,7-dihydrobenzofuran-4(5H)-one; phases: Liquid, Gas
Property: Molar enthalpy of vaporization or sublimation, kJ/mol (Liquid); method: drop calorimetry
Temperature, K	Molar enthalpy of vaporization or sublimation, kJ/mol	uncertainty
298.15	69.4	4.4

Reaction: -1 6,7-dihydrobenzofuran-4(5H)-one + 8 carbon dioxide + 4 water + -9 oxygen
Property: Specific internal energy of reaction at constant volume, J/g
-29331.7

Reaction: 1 6,7-dihydrobenzofuran-4(5H)-one + -4 hydrogen + -8 graphite + -1 oxygen
Property: Molar enthalpy of reaction, kJ/mol
-295.4

Reaction: 1 6,7-dihydrobenzofuran-4(5H)-one + -4 hydrogen + -8 graphite + -1 oxygen
Property: Molar enthalpy of reaction, kJ/mol
-226
