Measured thermophysical data. Experimental and computational thermochemistry of 1-phenylpyrrole and 1-(4-methylphenyl)pyrrole
Source: J. Chem. Thermodyn., 2010, 10.1016/j.jct.2010.01.009
Compound 1: carbon dioxide, CO2, InChI=1S/CO2/c2-1-3
Compound 2: nitrogen, N2, InChI=1S/N2/c1-2
Compound 3: water, H2O, InChI=1S/H2O/h1H2
Compound 4: oxygen, O2, InChI=1S/O2/c1-2
Compound 5: hydrogen, H2, InChI=1S/H2/h1H
Compound 6: graphite, C
Compound 7: 1-phenylpyrrole, C10H9N, InChI=1S/C10H9N/c1-2-6-10(7-3-1)11-8-4-5-9-11/h1-9H, purity 99%
Compound 8: 1-(4-methylphenyl)-1H-pyrrole, C11H11N, InChI=1S/C11H11N/c1-10-4-6-11(7-5-10)12-8-2-3-9-12/h2-9H,1H3, purity 97%

System: 1-phenylpyrrole; phases: Crystal, Gas
Property: Molar enthalpy of transition or fusion, kJ/mol (Crystal); method: Derived by Second law
Temperature, K	Molar enthalpy of transition or fusion, kJ/mol	uncertainty
298.15	80.8	1.8

System: 1-phenylpyrrole; phases: Crystal, Gas
Property: Vapor or sublimation pressure, kPa (Crystal); method: Calculated from knudsen effusion weight loss
Temperature, K	Vapor or sublimation pressure, kPa	uncertainty
271.14	0.000151	8e-06
271.14	0.000147	7e-06
271.14	0.000143	7e-06
273.15	0.000191	1e-05
273.15	0.00019	1e-05
273.15	0.000185	9e-06
275.17	0.000255	1.3e-05
275.17	0.000247	1.2e-05
275.17	0.000241	1.2e-05
277.06	0.00033	1.7e-05
277.06	0.000336	1.7e-05
277.06	0.000311	1.6e-05
279.15	0.000426	2.1e-05
279.15	0.000414	2.1e-05
279.15	0.000397	2e-05
281.11	0.000537	2.7e-05
281.11	0.000537	2.7e-05
281.11	0.000525	2.6e-05
283.19	0.000682	3.4e-05
283.19	0.000678	3.4e-05
283.19	0.000651	3.3e-05
285.24	0.000905	4.5e-05
285.24	0.000887	4.4e-05
285.24	0.000887	4.4e-05
287.13	0.001123	0.000115
287.13	0.001111	0.000114
287.13	0.00106	0.000107

System: 1-(4-methylphenyl)-1H-pyrrole; phases: Crystal, Gas
Property: Molar enthalpy of transition or fusion, kJ/mol (Crystal); method: Derived by Second law
Temperature, K	Molar enthalpy of transition or fusion, kJ/mol	uncertainty
298.15	83.7	1.6

System: 1-(4-methylphenyl)-1H-pyrrole; phases: Crystal, Gas
Property: Vapor or sublimation pressure, kPa (Crystal); method: Calculated from knudsen effusion weight loss
Temperature, K	Vapor or sublimation pressure, kPa	uncertainty
283.11	0.00014	7e-06
283.11	0.000137	7e-06
283.11	0.000137	7e-06
285.13	0.000168	8e-06
285.13	0.000169	8e-06
285.13	0.000174	9e-06
287.12	0.00023	1.2e-05
287.12	0.000224	1.1e-05
287.12	0.00022	1.1e-05
289.13	0.000286	1.4e-05
289.13	0.000278	1.4e-05
289.13	0.000282	1.4e-05
291.14	0.000362	1.8e-05
291.14	0.000355	1.8e-05
291.14	0.000355	1.8e-05
293.13	0.000468	2.3e-05
293.13	0.000459	2.3e-05
293.13	0.000451	2.3e-05
295.18	0.000579	2.9e-05
295.18	0.000571	2.9e-05
295.18	0.000558	2.8e-05
297.15	0.000732	3.7e-05
297.15	0.000732	3.7e-05
297.15	0.000734	3.7e-05
299.16	0.000948	4.7e-05
299.16	0.000927	4.6e-05
299.16	0.000925	4.6e-05

Reaction: -1 1-phenylpyrrole + 10 carbon dioxide + .5 nitrogen + 4.5 water + -12.25 oxygen
Property: Specific internal energy of reaction at constant volume, J/g
-37452.3

Reaction: -1 1-(4-methylphenyl)-1H-pyrrole + 11 carbon dioxide + .5 nitrogen + 5.5 water + -13.75 oxygen
Property: Specific internal energy of reaction at constant volume, J/g
-38159.5

Reaction: 1 1-phenylpyrrole + -4.5 hydrogen + -.5 nitrogen + -10 graphite
Property: Molar enthalpy of reaction, kJ/mol
145.6

Reaction: 1 1-(4-methylphenyl)-1H-pyrrole + -5.5 hydrogen + -.5 nitrogen + -11 graphite
Property: Molar enthalpy of reaction, kJ/mol
104
