Measured thermophysical data. Thermodynamic properties of myo-inositol
Source: J. Chem. Thermodyn., 2018, 10.1016/j.jct.2017.08.028
Compound 1: carbon dioxide, CO2, InChI=1S/CO2/c2-1-3
Compound 2: water, H2O, InChI=1S/H2O/h1H2
Compound 3: oxygen, O2, InChI=1S/O2/c1-2
Compound 4: cis-1,2,3,5-trans-4,6-cyclohexanehexol, C6H12O6, InChI=1S/C6H12O6/c7-1-2(8)4(10)6(12)5(11)3(1)9/h1-12H/t1-,2-,3-,4+,5-,6-, purity 99.9%

System: cis-1,2,3,5-trans-4,6-cyclohexanehexol; phases: Crystal
Fixed: Pressure, kPa = 101.325
Property: Molar heat capacity at constant pressure, J/K/mol (Crystal); method: Small (less than 1 g) adiabatic calorimetry
Temperature, K	Molar heat capacity at constant pressure, J/K/mol	uncertainty
8.37	0.774	0.039
8.4	0.78	0.04
8.51	0.803	0.04
8.64	0.841	0.042
8.77	0.885	0.044
8.91	0.93	0.045
9.05	0.977	0.047
9.2	1.034	0.05
9.34	1.096	0.052
9.5	1.162	0.055
9.65	1.224	0.057
9.81	1.296	0.06
9.98	1.381	0.063
10.17	1.467	0.067
10.39	1.577	0.071
10.59	1.677	0.075
10.81	1.817	0.081
11.05	1.945	0.086
11.28	2.084	0.092
11.52	2.218	0.097
11.76	2.363	0.103
12	2.535	0.11
12.25	2.7	0.117
12.5	2.861	0.123
12.75	3.034	0.131
13.01	3.189	0.137
13.27	3.362	0.144
13.53	3.524	0.15
13.81	3.727	0.159
14.08	3.897	0.165
14.35	4.078	0.173
14.63	4.226	0.179
14.91	4.431	0.187
15.19	4.618	0.195
15.47	4.81	0.202
15.75	4.99	0.21
16.04	5.208	0.218
16.32	5.4	0.226
16.61	5.588	0.234
16.9	5.795	0.242
17.2	5.99	0.25
17.49	6.202	0.258
17.78	6.394	0.266
18.08	6.622	0.275
18.37	6.852	0.285
18.67	7.06	0.293
18.97	7.278	0.302
19.27	7.496	0.311
19.57	7.721	0.32
19.87	7.949	0.329
20.46	8.428	0.12
21.33	9.104	0.127
22.21	9.711	0.134
23.1	10.41	0.14
24	11.09	0.15
24.9	11.77	0.15
25.81	12.44	0.16
26.73	13.12	0.17
27.66	13.84	0.17
28.59	14.6	0.18
30.38	16.06	0.21
31.42	16.86	0.21
32.38	17.74	0.22
33.35	18.4	0.23
34.31	19.3	0.24
35.28	20.02	0.25
36.25	20.7	0.25
37.23	21.47	0.26
38.21	22.22	0.27
39.19	22.99	0.28
40.18	23.66	0.18
41.16	24.37	0.19
42.15	25.13	0.19
43.15	25.81	0.19
44.14	26.63	0.2
45.14	27.34	0.2
46.17	28.07	0.2
47.17	28.86	0.21
48.17	29.58	0.21
49.18	30.39	0.22
50.18	31.12	0.22
51.2	31.92	0.22
53.79	33.97	0.23
54.97	34.9	0.24
55.99	35.65	0.24
57.01	36.49	0.25
58.03	37.34	0.25
59.05	38.14	0.26
60.07	38.87	0.26
61.1	39.73	0.26
62.12	40.52	0.27
63.15	41.35	0.27
64.17	42.18	0.28
65.2	43.06	0.28
66.23	43.91	0.29
67.26	44.68	0.29
68.29	45.54	0.3
69.32	46.48	0.3
70.38	47.25	0.3
71.85	48.53	0.31
73.87	50.14	0.32
75.89	51.78	0.33
77.91	53.41	0.34
78.79	54.18	0.34
79.8	55.07	0.35
80.92	56.01	0.35
79.15	54.64	0.34
81.14	56.14	0.35
83.15	57.79	0.36
85.15	59.59	0.37
87.15	61.09	0.38
89.15	62.93	0.39
91.14	64.62	0.41
93.14	66.21	0.42
95.13	67.8	0.43
97.12	69.47	0.44
99.11	71.03	0.45
101.58	73.24	0.46
104.56	75.65	0.47
107.54	78.02	0.48
110.53	80.42	0.49
113.53	82.88	0.5
116.54	85.33	0.51
119.54	87.73	0.52
122.54	90.16	0.54
125.55	92.54	0.55
128.56	94.96	0.56
131.58	97.38	0.57
134.6	99.81	0.58
137.62	102.1	0.6
140.65	104.5	0.6
143.68	106.9	0.6
146.71	109.2	0.6
149.74	111.6	0.6
152.78	113.9	0.7
155.81	116.2	0.7
158.85	118.6	0.7
161.89	120.9	0.7
164.97	123.2	0.7
168.01	125.5	0.7
171.06	127.7	0.7
174.1	130	0.7
177.15	132.3	0.7
180.2	134.4	0.8
183.25	136.7	0.8
186.3	138.9	0.8
189.35	141.2	0.8
192.4	143.5	0.8
195.46	145.6	0.8
198.52	147.8	0.8
201.57	150.1	0.8
204.63	152.3	0.8
208.19	155.1	0.9
212.26	158	0.9
216.41	161.2	0.9
220.48	164	0.9
224.57	167.1	0.9
228.65	170.1	0.9
232.72	173.2	0.9
236.81	176.2	1
240.91	179.3	1
245	182.3	1
249.09	185.2	1
253.18	188.2	1
257.27	191.3	1
261.36	194.4	1
265.46	197.6	1.1
269.55	200.6	1.1
273.64	203.7	1.1
277.73	206.6	1.1
281.9	210	1.1
285.98	212.8	1.1
290.07	215.9	1.1
294.15	219	1.2
298.22	222	1.2
303.01	226	1.2
308.39	230	1.2
313.76	234	1.2
319.12	237.9	1.3
324.46	241.9	1.3
329.77	246	1.3
335.05	250.1	1.3
340.3	253.9	1.3

System: cis-1,2,3,5-trans-4,6-cyclohexanehexol; phases: Crystal
Fixed: Pressure, kPa = 100
Property: Molar enthalpy, kJ/mol (Crystal); method: Small (less than 1 g) adiabatic calorimetry
Temperature, K	Molar enthalpy, kJ/mol	uncertainty
5	9.5e-05	7.9e-05
6	0.00024	0.0001
7	0.000509	0.000115
8	0.000989	0.000137
9	0.00176	0.00017
10	0.00306	0.00022
15	0.0173	0.0008
20	0.04852	0.00207
25	0.09808	0.00407
30	0.1671	0.0072
35	0.2559	0.0108
40	0.3642	0.0151
45	0.4911	0.007
50	0.6366	0.0086
60	0.9855	0.0125
70	1.414	0.017
80	1.925	0.023
90	2.519	0.022
100	3.196	0.027
110	3.956	0.031
120	4.797	0.036
130	5.719	0.041
140	6.72	0.047
150	7.798	0.053
160	8.954	0.06
170	10.19	0.07
180	11.49	0.07
190	12.87	0.08
200	14.32	0.09
210	15.85	0.1
220	17.45	0.11
230	19.13	0.12
240	20.87	0.13
250	22.7	0.13
260	24.59	0.14
270	26.56	0.16
273.15	27.2	0.16
280	28.61	0.17
290	30.73	0.18
298.15	32.52	0.19
300	32.93	0.19
310	35.2	0.2
320	37.55	0.21
330	39.98	0.23
340	42.48	0.24

System: cis-1,2,3,5-trans-4,6-cyclohexanehexol; phases: Crystal
Fixed: Pressure, kPa = 100
Property: Molar entropy, J/K/mol (Crystal); method: Small (less than 1 g) adiabatic calorimetry
Temperature, K	Molar entropy, J/K/mol	uncertainty
5	0.0237	0.0237
6	0.0492	0.0243
7	0.091	0.0251
8	0.1546	0.0263
9	0.2451	0.0295
10	0.3742	0.0356
15	1.491	0.1
20	3.261	0.206
25	5.458	0.337
30	7.964	0.5
35	10.69	0.66
40	13.58	0.83
45	16.57	0.32
50	19.63	0.36
60	25.97	0.46
70	32.56	0.56
80	39.37	0.67
90	46.36	0.49
100	53.48	0.54
110	60.72	0.59
120	68.03	0.65
130	75.4	0.7
140	82.82	0.75
150	90.26	0.8
160	97.71	0.86
170	105.2	0.9
180	112.6	1
190	120.1	1
200	127.6	1.1
210	135	1.1
220	142.4	1.2
230	149.9	1.2
240	157.3	1.3
250	164.8	1.3
260	172.2	1.4
270	179.6	1.5
273.15	182	1.5
280	187.1	1.5
290	194.5	1.6
298.15	200.6	1.6
300	202	1.6
310	209.4	1.7
320	216.9	1.7
330	224.3	1.8
340	231.8	1.8

System: cis-1,2,3,5-trans-4,6-cyclohexanehexol; phases: Crystal, Gas
Property: Molar enthalpy of vaporization or sublimation, kJ/mol (Crystal); method: Derived by Second law
Temperature, K	Molar enthalpy of vaporization or sublimation, kJ/mol	uncertainty
376.8	172.8	4.1

System: cis-1,2,3,5-trans-4,6-cyclohexanehexol; phases: Crystal
Fixed: Pressure, kPa = 101.325
Property: Mass density, kg/m3 (Crystal); method: X-ray diffraction
Temperature, K	Mass density, kg/m3	uncertainty
150	1577	6
175	1574	6
200	1574	6
225	1575	6
250	1572	6
275	1570	6
300	1569	6
325	1569	6
350	1566	6
375	1561	6
400	1559	6
425	1555	6
450	1553	6

System: cis-1,2,3,5-trans-4,6-cyclohexanehexol; phases: Crystal
Fixed: Pressure, kPa = 101.325
Property: Molar heat capacity at constant pressure, J/K/mol (Crystal); method: Small (less than 1 g) adiabatic calorimetry
Temperature, K	Molar heat capacity at constant pressure, J/K/mol	uncertainty
5	0.095	0.009
6	0.1967	0.0117
7	0.3623	0.0177
8	0.6094	0.0273
9	0.9596	0.0411
10	1.387	0.058
15	4.502	0.183
20	8.03	0.324
25	11.83	0.13
30	15.78	0.17
35	19.73	0.21
40	23.57	0.24
45	27.22	0.13
50	30.99	0.14
60	38.84	0.18
70	46.97	0.21
80	55.23	0.25
90	63.55	0.32
100	71.84	0.35
110	80.06	0.38
120	88.17	0.41
130	96.15	0.44
140	104	0.5
150	111.7	0.5
160	119.4	0.5
170	126.9	0.6
180	134.3	0.6
190	141.7	0.6
200	149.1	0.6
210	156.4	0.7
220	163.7	0.7
230	171.1	0.7
240	178.5	0.8
250	185.9	0.8
260	193.4	0.8
270	200.9	0.9
273.15	203.2	0.9
280	208.4	0.9
290	216	0.9
298.15	222.1	0.9
300	223.5	0.9
310	231.1	1
320	238.7	1
330	246.2	1
340	253.7	1.1

Reaction: -1 cis-1,2,3,5-trans-4,6-cyclohexanehexol + 6 carbon dioxide + 6 water + -6 oxygen
Property: Specific internal energy of reaction at constant volume, J/g
-15246.4
