Measured thermophysical data. Physicochemical properties of choline chloride-based deep eutectic solvents and excess properties of their pseudo-binary mixtures with 1-butanol
Source: J. Chem. Thermodyn., 2019, 10.1016/j.jct.2019.02.010
Compound 1: choline chloride, C5H14ClNO, InChI=1S/C5H14NO.ClH/c1-6(2,3)4-5-7;/h7H,4-5H2,1-3H3;1H/q+1;/p-1, purity 99%
Compound 2: 4-oxopentanoic acid, C5H8O3, InChI=1S/C5H8O3/c1-4(6)2-3-5(7)8/h2-3H2,1H3,(H,7,8), purity 98%
Compound 3: 1,2-ethanediol, C2H6O2, InChI=1S/C2H6O2/c3-1-2-4/h3-4H,1-2H2, purity 99.8%
Compound 4: phenol, C6H6O, InChI=1S/C6H6O/c7-6-4-2-1-3-5-6/h1-5,7H, purity 99%
Compound 5: butan-1-ol, C4H10O, InChI=1S/C4H10O/c1-2-3-4-5/h5H,2-4H2,1H3, purity 99.8%

System: 4-oxopentanoic acid; phases: Metastable liquid
Fixed: Pressure, kPa = 101.325
Property: Mass density, kg/m3 (Metastable liquid); method: Vibrating tube method
Temperature, K	Mass density, kg/m3	uncertainty
293.15	1140.1	8.1
303.15	1131.6	8.1
313.15	1123	8.1
323.15	1114.5	8.1
333.15	1105.9	8.1
343.15	1097.4	8.1

System: butan-1-ol; phases: Liquid
Fixed: Pressure, kPa = 101.325
Property: Mass density, kg/m3 (Liquid); method: Vibrating tube method
Temperature, K	Mass density, kg/m3	uncertainty
313.15	794.1	8
303.15	801.9	8
293.15	809.5	8
323.15	786.2	8
333.15	778.1	8

System: butan-1-ol; phases: Liquid
Fixed: Pressure, kPa = 101.325
Property: Viscosity, Pa*s (Liquid); method: Falling or rolling sphere viscometry
Temperature, K	Viscosity, Pa*s	uncertainty
303.15	0.00228	0.00027
313.15	0.00179	0.00022
293.15	0.00295	0.00035
323.15	0.00142	0.00017
333.15	0.00115	0.00014

System: choline chloride + 4-oxopentanoic acid; phases: Liquid, Air at 1 atmosphere
Property: Surface tension liquid-gas, N/m (Liquid); method: Ring tensiometer
Mole fraction of choline chloride	Temperature, K	Surface tension liquid-gas, N/m	uncertainty
0.333	298.15	0.03995	0.00209

System: choline chloride + 4-oxopentanoic acid; phases: Liquid
Fixed: Mole fraction of choline chloride = 0.333
Fixed: Pressure, kPa = 101.3
Property: Mass density, kg/m3 (Liquid); method: Vibrating tube method
Temperature, K	Mass density, kg/m3	uncertainty
293.15	1141.9	8.1
303.15	1135.2	8.1
313.15	1128.5	8.1
323.15	1121.9	8.1
333.15	1115.3	8.1

System: choline chloride + 4-oxopentanoic acid; phases: Liquid
Fixed: Mole fraction of choline chloride = 0.333
Fixed: Pressure, kPa = 101.3
Property: Viscosity, Pa*s (Liquid); method: Falling or rolling sphere viscometry
Temperature, K	Viscosity, Pa*s	uncertainty
293.15	0.36208	0.04885
303.15	0.18372	0.02329
313.15	0.10346	0.01266
323.15	0.0628	0.00757
333.15	0.03959	0.00477

System: choline chloride + 1,2-ethanediol; phases: Liquid, Air at 1 atmosphere
Property: Surface tension liquid-gas, N/m (Liquid); method: Ring tensiometer
Mole fraction of choline chloride	Temperature, K	Surface tension liquid-gas, N/m	uncertainty
0.334	298.15	0.04566	0.00208

System: choline chloride + 1,2-ethanediol; phases: Liquid
Fixed: Mole fraction of choline chloride = 0.334
Fixed: Pressure, kPa = 101.3
Property: Mass density, kg/m3 (Liquid); method: Vibrating tube method
Temperature, K	Mass density, kg/m3	uncertainty
293.15	1119.5	8.1
303.15	1113.9	8.1
313.15	1108.1	8.1
323.15	1102.5	8.1
333.15	1096.9	8.1

System: choline chloride + 1,2-ethanediol; phases: Liquid
Fixed: Mole fraction of choline chloride = 0.334
Fixed: Pressure, kPa = 101.3
Property: Viscosity, Pa*s (Liquid); method: Falling or rolling sphere viscometry
Temperature, K	Viscosity, Pa*s	uncertainty
293.15	0.05881	0.00707
303.15	0.0389	0.00468
313.15	0.02704	0.00325
323.15	0.01974	0.00237
333.15	0.01469	0.00177

System: choline chloride + phenol; phases: Liquid, Air at 1 atmosphere
Property: Surface tension liquid-gas, N/m (Liquid); method: Ring tensiometer
Mole fraction of choline chloride	Temperature, K	Surface tension liquid-gas, N/m	uncertainty
0.333	298.15	0.03546	0.00206

System: choline chloride + phenol; phases: Liquid
Fixed: Mole fraction of choline chloride = 0.333
Fixed: Pressure, kPa = 101.3
Property: Mass density, kg/m3 (Liquid); method: Vibrating tube method
Temperature, K	Mass density, kg/m3	uncertainty
293.15	1099.4	8.1
303.15	1093.4	8.1
313.15	1087.4	8.1
323.15	1081.5	8.1
333.15	1075.6	8.1

System: choline chloride + phenol; phases: Liquid
Fixed: Mole fraction of choline chloride = 0.333
Fixed: Pressure, kPa = 101.3
Property: Viscosity, Pa*s (Liquid); method: Falling or rolling sphere viscometry
Temperature, K	Viscosity, Pa*s	uncertainty
293.15	0.12998	0.01608
303.15	0.074	0.00893
313.15	0.04433	0.00533
323.15	0.03023	0.00364
333.15	0.0215	0.00259

System: butan-1-ol + choline chloride + 4-oxopentanoic acid; phases: Liquid
Fixed: Solvent: Mole fraction of choline chloride = 0.333
Fixed: Pressure, kPa = 101.3
Property: Mass density, kg/m3 (Liquid); method: Vibrating tube method
Temperature, K	Mole fraction of butan-1-ol	Mass density, kg/m3	uncertainty
293.15	0	1141.9	8
293.15	0.1658	1097.6	8.5
293.15	0.3163	1053.3	8.6
293.15	0.4556	1009.5	8.6
293.15	0.5598	974.6	8.7
293.15	0.7163	919.6	8.8
293.15	0.8221	879.9	8.8
293.15	0.8913	853.6	8.9
293.15	1	809.5	8
303.15	0	1135.2	8
303.15	0.1658	1090.7	8.5
303.15	0.3163	1046.3	8.6
303.15	0.4556	1002.4	8.6
303.15	0.5598	967.3	8.7
303.15	0.7163	912.2	8.8
303.15	0.8221	872.4	8.8
303.15	0.8913	846.1	8.9
303.15	1	801.9	8
313.15	0	1128.5	8
313.15	0.1658	1083.8	8.5
313.15	0.3163	1039.3	8.6
313.15	0.4556	995.3	8.6
313.15	0.5598	960.1	8.7
313.15	0.7163	904.7	8.8
313.15	0.8221	864.8	8.9
313.15	0.8913	838.4	8.9
313.15	1	794.1	8
323.15	0	1121.9	8
323.15	0.1658	1077	8.5
323.15	0.3163	1032.3	8.6
323.15	0.4556	988.1	8.6
323.15	0.5598	952.8	8.7
323.15	0.7163	897.2	8.8
323.15	0.8221	857.2	8.9
323.15	0.8913	830.7	9
323.15	1	786.2	8
333.15	0	1115.3	8
333.15	0.1658	1070.3	8.5
333.15	0.3163	1025.4	8.6
333.15	0.4556	981	8.6
333.15	0.5598	945.5	8.7
333.15	0.7163	889.6	8.8
333.15	0.8221	849.4	8.9
333.15	0.8913	822.7	9
333.15	1	778.1	8

System: butan-1-ol + choline chloride + 4-oxopentanoic acid; phases: Liquid
Fixed: Solvent: Mole fraction of choline chloride = 0.333
Fixed: Pressure, kPa = 101.3
Property: Viscosity, Pa*s (Liquid); method: Falling or rolling sphere viscometry
Temperature, K	Mole fraction of butan-1-ol	Viscosity, Pa*s	uncertainty
293.15	0	0.36208	0.04875
293.15	0.1658	0.1352	0.01932
293.15	0.3163	0.05997	0.00808
293.15	0.4556	0.03025	0.00402
293.15	0.5598	0.01879	0.0024
293.15	0.7163	0.00852	0.00115
293.15	0.8221	0.00548	0.0007
293.15	0.8913	0.00423	0.00053
293.15	1	0.00295	0.00036
303.15	0	0.18372	0.02326
303.15	0.1658	0.07776	0.01049
303.15	0.3163	0.03795	0.00498
303.15	0.4556	0.02042	0.00268
303.15	0.5598	0.0125	0.00159
303.15	0.7163	0.00628	0.00082
303.15	0.8221	0.00415	0.00053
303.15	0.8913	0.00324	0.0004
303.15	1	0.00228	0.00027
313.15	0	0.10346	0.01264
313.15	0.1658	0.04639	0.00611
313.15	0.3163	0.02546	0.00326
313.15	0.4556	0.01407	0.00183
313.15	0.5598	0.00889	0.00112
313.15	0.7163	0.00477	0.00062
313.15	0.8221	0.00321	0.00041
313.15	0.8913	0.00253	0.00031
313.15	1	0.00179	0.00022
323.15	0	0.0628	0.00756
323.15	0.1658	0.03238	0.00415
323.15	0.3163	0.01812	0.00231
323.15	0.4556	0.00999	0.00129
323.15	0.5598	0.00661	0.00083
323.15	0.7163	0.00377	0.00048
323.15	0.8221	0.00255	0.00032
323.15	0.8913	0.00202	0.00025
323.15	1	0.00142	0.00017
333.15	0	0.03959	0.00476
333.15	0.1658	0.02281	0.00287
333.15	0.3163	0.01273	0.00162
333.15	0.4556	0.0075	0.00096
333.15	0.5598	0.00514	0.00064
333.15	0.7163	0.00313	0.00039
333.15	0.8221	0.00205	0.00026
333.15	0.8913	0.00163	0.0002
333.15	1	0.00115	0.00014

System: butan-1-ol + choline chloride + 4-oxopentanoic acid; phases: Liquid
Fixed: Pressure, kPa = 101.3
Fixed: Temperature, K = 313.15
Fixed: Solvent: Mole fraction of choline chloride = 0.334
Property: Molar enthalpy of mixing with solvent, kJ/mol of butan-1-ol (Liquid); method: Calvet calorimetry
Mole fraction of butan-1-ol	Molar enthalpy of mixing with solvent, kJ/mol of butan-1-ol	uncertainty
0.2942	-0.7871	0.0344
0.527	-1.073	0.0442
0.7126	-1.0404	0.0434
0.8681	-0.7422	0.0358

System: butan-1-ol + choline chloride + 1,2-ethanediol; phases: Liquid
Fixed: Solvent: Mole fraction of choline chloride = 0.334
Fixed: Pressure, kPa = 101.3
Property: Mass density, kg/m3 (Liquid); method: Vibrating tube method
Temperature, K	Mole fraction of butan-1-ol	Mass density, kg/m3	uncertainty
293.15	0	1119.5	8
293.15	0.1418	1073.8	8.6
293.15	0.2598	1034.9	8.6
293.15	0.384	994.6	8.6
293.15	0.5417	944.9	8.6
293.15	0.6467	912.8	8.6
293.15	0.7678	876.7	8.5
293.15	0.8784	844.3	8.5
293.15	1	809.5	8
303.15	0	1113.9	8
303.15	0.1418	1067.9	8.6
303.15	0.2598	1028.8	8.6
303.15	0.384	988.3	8.6
303.15	0.5417	938.3	8.6
303.15	0.6467	905.9	8.6
303.15	0.7678	869.6	8.5
303.15	0.8784	837	8.5
303.15	1	801.9	8
313.15	0	1108.1	8
313.15	0.1418	1062	8.6
313.15	0.2598	1022.7	8.7
313.15	0.384	981.9	8.6
313.15	0.5417	931.6	8.6
313.15	0.6467	899	8.6
313.15	0.7678	862.4	8.5
313.15	0.8784	829.6	8.5
313.15	1	794.1	8
323.15	0	1102.5	8
323.15	0.1418	1056.1	8.7
323.15	0.2598	1016.7	8.7
323.15	0.384	975.6	8.6
323.15	0.5417	924.9	8.6
323.15	0.6467	892	8.6
323.15	0.7678	855.1	8.6
323.15	0.8784	822	8.5
323.15	1	786.2	8
333.15	0	1096.9	8
333.15	0.1418	1050.3	8.7
333.15	0.2598	1010.6	8.7
333.15	0.384	969.3	8.6
333.15	0.5417	918.1	8.6
333.15	0.6467	885	8.6
333.15	0.7678	847.7	8.6
333.15	0.8784	814.3	8.5
333.15	1	778.1	8

System: butan-1-ol + choline chloride + 1,2-ethanediol; phases: Liquid
Fixed: Solvent: Mole fraction of choline chloride = 0.334
Fixed: Pressure, kPa = 101.3
Property: Viscosity, Pa*s (Liquid); method: Falling or rolling sphere viscometry
Temperature, K	Mole fraction of butan-1-ol	Viscosity, Pa*s	uncertainty
293.15	0	0.05881	0.00706
293.15	0.1418	0.04094	0.00505
293.15	0.2598	0.03018	0.00371
293.15	0.384	0.02177	0.00269
293.15	0.5417	0.01318	0.00166
293.15	0.6467	0.00923	0.00115
293.15	0.7678	0.00634	0.00079
293.15	0.8784	0.00448	0.00056
293.15	1	0.00295	0.00035
303.15	0	0.0389	0.00468
303.15	0.1418	0.02795	0.00343
303.15	0.2598	0.02112	0.00259
303.15	0.384	0.01545	0.0019
303.15	0.5417	0.00937	0.00117
303.15	0.6467	0.00686	0.00085
303.15	0.7678	0.0048	0.0006
303.15	0.8784	0.00343	0.00043
303.15	1	0.00228	0.00027
313.15	0	0.02704	0.00325
313.15	0.1418	0.0201	0.00246
313.15	0.2598	0.0151	0.00186
313.15	0.384	0.01087	0.00134
313.15	0.5417	0.00696	0.00086
313.15	0.6467	0.00524	0.00065
313.15	0.7678	0.00372	0.00046
313.15	0.8784	0.00268	0.00033
313.15	1	0.00179	0.00022
323.15	0	0.01974	0.00237
323.15	0.1418	0.01453	0.00178
323.15	0.2598	0.01091	0.00134
323.15	0.384	0.00809	0.00099
323.15	0.5417	0.00538	0.00066
323.15	0.6467	0.00409	0.0005
323.15	0.7678	0.00294	0.00036
323.15	0.8784	0.00213	0.00026
323.15	1	0.00142	0.00017
333.15	0	0.01469	0.00177
333.15	0.1418	0.01075	0.00132
333.15	0.2598	0.00828	0.00101
333.15	0.384	0.00625	0.00076
333.15	0.5417	0.00426	0.00052
333.15	0.6467	0.00326	0.0004
333.15	0.7678	0.00236	0.00029
333.15	0.8784	0.00172	0.00021
333.15	1	0.00115	0.00014

System: butan-1-ol + choline chloride + 1,2-ethanediol; phases: Liquid
Fixed: Pressure, kPa = 101.3
Fixed: Temperature, K = 313.15
Fixed: Solvent: Mole fraction of choline chloride = 0.331
Property: Molar enthalpy of mixing with solvent, kJ/mol of butan-1-ol (Liquid); method: Calvet calorimetry
Mole fraction of butan-1-ol	Molar enthalpy of mixing with solvent, kJ/mol of butan-1-ol	uncertainty
0.2291	-0.6431	0.0281
0.4392	-0.8531	0.0353
0.6354	-0.8895	0.0365
0.8108	-0.6832	0.0303

System: butan-1-ol + choline chloride + phenol; phases: Liquid
Fixed: Solvent: Mole fraction of choline chloride = 0.333
Fixed: Pressure, kPa = 101.3
Property: Mass density, kg/m3 (Liquid); method: Vibrating tube method
Temperature, K	Mole fraction of butan-1-ol	Mass density, kg/m3	uncertainty
293.15	0	1099.4	8
293.15	0.2347	1040.6	8.4
293.15	0.4483	985	8.4
293.15	0.5861	944.9	8.5
293.15	0.6829	915.1	8.6
293.15	0.7724	886.7	8.6
293.15	0.8975	845.4	8.7
293.15	1	809.5	8
303.15	0	1093.4	8
303.15	0.2347	1034.2	8.4
303.15	0.4483	978.3	8.5
303.15	0.5861	938	8.5
303.15	0.6829	908	8.6
303.15	0.7724	879.5	8.6
303.15	0.8975	838	8.7
303.15	1	801.9	8
313.15	0	1087.4	8
313.15	0.2347	1027.7	8.4
313.15	0.4483	971.6	8.5
313.15	0.5861	931	8.5
313.15	0.6829	900.9	8.6
313.15	0.7724	872.2	8.6
313.15	0.8975	830.5	8.7
313.15	1	794.1	8
323.15	0	1081.5	8
323.15	0.2347	1021.4	8.4
323.15	0.4483	964.9	8.5
323.15	0.5861	924.1	8.6
323.15	0.6829	893.7	8.6
323.15	0.7724	864.8	8.7
323.15	0.8975	822.8	8.7
323.15	1	786.2	8
333.15	0	1075.6	8
333.15	0.2347	1015	8.4
333.15	0.4483	958.1	8.5
333.15	0.5861	917	8.6
333.15	0.6829	886.5	8.6
333.15	0.7724	857.3	8.7
333.15	0.8975	815	8.7
333.15	1	778.1	8

System: butan-1-ol + choline chloride + phenol; phases: Liquid
Fixed: Solvent: Mole fraction of choline chloride = 0.333
Fixed: Pressure, kPa = 101.3
Property: Viscosity, Pa*s (Liquid); method: Falling or rolling sphere viscometry
Temperature, K	Mole fraction of butan-1-ol	Viscosity, Pa*s	uncertainty
293.15	0	0.12998	0.01606
293.15	0.2347	0.03811	0.00522
293.15	0.4483	0.01881	0.00239
293.15	0.5861	0.01118	0.00142
293.15	0.6829	0.00799	0.001
293.15	0.7724	0.006	0.00074
293.15	0.8975	0.00409	0.00051
293.15	1	0.00295	0.00035
303.15	0	0.074	0.00893
303.15	0.2347	0.02519	0.00333
303.15	0.4483	0.0127	0.00161
303.15	0.5861	0.00812	0.00102
303.15	0.6829	0.00596	0.00074
303.15	0.7724	0.00455	0.00056
303.15	0.8975	0.00314	0.00039
303.15	1	0.00228	0.00027
313.15	0	0.04433	0.00533
313.15	0.2347	0.01787	0.00229
313.15	0.4483	0.00912	0.00115
313.15	0.5861	0.00619	0.00077
313.15	0.6829	0.00457	0.00057
313.15	0.7724	0.00353	0.00044
313.15	0.8975	0.00246	0.00031
313.15	1	0.00179	0.00022
323.15	0	0.03023	0.00364
323.15	0.2347	0.01248	0.00159
323.15	0.4483	0.00688	0.00086
323.15	0.5861	0.00488	0.0006
323.15	0.6829	0.00359	0.00045
323.15	0.7724	0.00279	0.00034
323.15	0.8975	0.00196	0.00024
323.15	1	0.00142	0.00017
333.15	0	0.0215	0.00259
333.15	0.2347	0.00915	0.00116
333.15	0.4483	0.0054	0.00067
333.15	0.5861	0.00382	0.00047
333.15	0.6829	0.00288	0.00036
333.15	0.7724	0.00225	0.00028
333.15	0.8975	0.00158	0.0002
333.15	1	0.00115	0.00014

System: butan-1-ol + choline chloride + phenol; phases: Liquid
Fixed: Pressure, kPa = 101.3
Fixed: Temperature, K = 313.15
Fixed: Solvent: Mole fraction of choline chloride = 0.33
Property: Molar enthalpy of mixing with solvent, kJ/mol of butan-1-ol (Liquid); method: Calvet calorimetry
Mole fraction of butan-1-ol	Molar enthalpy of mixing with solvent, kJ/mol of butan-1-ol	uncertainty
0.27	-0.5845	0.0257
0.4963	-0.7977	0.0329
0.6847	-0.7686	0.0326
0.8532	-0.4738	0.0261
0.8555	-0.4742	0.0259
