Measured thermophysical data. Partial molar volumes and partial molar adiabatic compressibilities of a short chain perfluorosurfactant: Sodium heptafluorobutyrate in aqueous solutions at different temperatures
Source: J. Chem. Thermodyn., 2005, 10.1016/j.jct.2005.03.021
Compound 1: butanoic acid, heptafluoro-, sodium salt, C4F7NaO2, InChI=1S/C4HF7O2.Na/c5-2(6,1(12)13)3(7,8)4(9,10)11;/h(H,12,13);/q;+1/p-1
Compound 2: water, H2O, InChI=1S/H2O/h1H2

System: butanoic acid, heptafluoro-, sodium salt + water; phases: Liquid, Gas
Property: Speed of sound, m/s (Liquid); method: FPINT:UFactor:2
Molality, mol/kg of butanoic acid, heptafluoro-, sodium salt	Temperature, K	Speed of sound, m/s	uncertainty
0.0154	283.15	1449.2	1.89
0.0154	288.15	1467.5	1.9
0.0154	293.15	1483.72	1.91
0.0154	298.15	1497.86	1.92
0.0154	303.15	1510.17	1.93
0.0154	308.15	1520.67	1.93
0.0154	313.15	1529.49	1.94
0.0154	318.15	1537	1.94
0.0154	323.15	1543.01	1.95
0.02022	283.15	1449.71	1.89
0.02022	288.15	1467.9	1.9
0.02022	293.15	1484.05	1.91
0.02022	298.15	1498.14	1.92
0.02022	303.15	1510.4	1.93
0.02022	308.15	1520.84	1.93
0.02022	313.15	1529.64	1.94
0.02022	318.15	1537.1	1.94
0.02022	323.15	1543.06	1.95
0.02943	283.15	1450.71	1.89
0.02943	288.15	1468.68	1.9
0.02943	293.15	1484.69	1.91
0.02943	298.15	1498.69	1.92
0.02943	303.15	1510.85	1.93
0.02943	308.15	1521.18	1.93
0.02943	313.15	1529.92	1.94
0.02943	318.15	1537.28	1.95
0.02943	323.15	1543.15	1.95
0.03348	283.15	1451.17	1.89
0.03348	288.15	1469.02	1.9
0.03348	293.15	1484.97	1.91
0.03348	298.15	1498.93	1.92
0.03348	303.15	1511.04	1.93
0.03348	308.15	1521.33	1.93
0.03348	313.15	1530.04	1.94
0.03348	318.15	1537.35	1.95
0.03348	323.15	1543.2	1.95
0.04117	283.15	1451.91	1.89
0.04117	288.15	1469.69	1.9
0.04117	293.15	1485.48	1.91
0.04117	298.15	1499.39	1.92
0.04117	303.15	1511.41	1.93
0.04117	308.15	1521.62	1.93
0.04117	313.15	1530.27	1.94
0.04117	318.15	1537.51	1.95
0.04117	323.15	1543.28	1.95
0.04561	283.15	1452.32	1.89
0.04561	288.15	1470.03	1.9
0.04561	293.15	1485.78	1.91
0.04561	298.15	1499.65	1.92
0.04561	303.15	1511.61	1.93
0.04561	308.15	1521.79	1.93
0.04561	313.15	1530.41	1.94
0.04561	318.15	1537.6	1.95
0.04561	323.15	1543.33	1.95
0.04991	283.15	1452.69	1.89
0.04991	288.15	1470.39	1.9
0.04991	293.15	1486.06	1.91
0.04991	298.15	1499.88	1.92
0.04991	303.15	1511.8	1.93
0.04991	308.15	1521.94	1.93
0.04991	313.15	1530.53	1.94
0.04991	318.15	1537.69	1.95
0.04991	323.15	1543.39	1.95
0.05594	283.15	1453.26	1.89
0.05594	288.15	1470.87	1.9
0.05594	293.15	1486.47	1.91
0.05594	298.15	1500.21	1.92
0.05594	303.15	1512.07	1.93
0.05594	308.15	1522.15	1.94
0.05594	313.15	1530.7	1.94
0.05594	318.15	1537.82	1.95
0.05594	323.15	1543.47	1.95
0.05929	283.15	1453.56	1.89
0.05929	288.15	1471.14	1.9
0.05929	293.15	1486.7	1.91
0.05929	298.15	1500.38	1.92
0.05929	303.15	1512.22	1.93
0.05929	308.15	1522.27	1.94
0.05929	313.15	1530.79	1.94
0.05929	318.15	1537.88	1.95
0.05929	323.15	1543.52	1.95
0.06997	283.15	1454.58	1.89
0.06997	288.15	1472.01	1.91
0.06997	293.15	1487.45	1.91
0.06997	298.15	1501	1.92
0.06997	303.15	1512.71	1.93
0.06997	308.15	1522.67	1.94
0.06997	313.15	1531.12	1.94
0.06997	318.15	1538.11	1.95
0.06997	323.15	1543.66	1.95
0.07978	283.15	1455.51	1.89
0.07978	288.15	1472.8	1.91
0.07978	293.15	1488.14	1.91
0.07978	298.15	1501.58	1.92
0.07978	303.15	1513.17	1.93
0.07978	308.15	1523.03	1.94
0.07978	313.15	1531.43	1.94
0.07978	318.15	1538.31	1.95
0.07978	323.15	1543.78	1.95
0.09019	283.15	1456.46	1.89
0.09019	288.15	1473.66	1.91
0.09019	293.15	1488.89	1.92
0.09019	298.15	1502.19	1.92
0.09019	303.15	1513.67	1.93
0.09019	308.15	1523.43	1.94
0.09019	313.15	1531.75	1.94
0.09019	318.15	1538.54	1.95
0.09019	323.15	1543.92	1.95
0.10034	283.15	1457.44	1.89
0.10034	288.15	1474.51	1.91
0.10034	293.15	1489.62	1.92
0.10034	298.15	1502.8	1.92
0.10034	303.15	1514.17	1.93
0.10034	308.15	1523.84	1.94
0.10034	313.15	1532.07	1.94
0.10034	318.15	1538.77	1.95
0.10034	323.15	1544.06	1.95
0.10826	283.15	1458.18	1.89
0.10826	288.15	1475.15	1.91
0.10826	293.15	1490.2	1.92
0.10826	298.15	1503.27	1.92
0.10826	303.15	1514.55	1.93
0.10826	308.15	1524.15	1.94
0.10826	313.15	1532.33	1.94
0.10826	318.15	1538.95	1.95
0.10826	323.15	1544.18	1.95
0.12504	283.15	1459.75	1.9
0.12504	288.15	1476.56	1.91
0.12504	293.15	1491.44	1.92
0.12504	298.15	1504.3	1.93
0.12504	303.15	1515.41	1.93
0.12504	308.15	1524.83	1.94
0.12504	313.15	1532.87	1.94
0.12504	318.15	1539.35	1.95
0.12504	323.15	1544.44	1.95
0.13838	283.15	1460.99	1.9
0.13838	288.15	1477.7	1.91
0.13838	293.15	1492.44	1.92
0.13838	298.15	1505.13	1.93
0.13838	303.15	1516.1	1.93
0.13838	308.15	1525.36	1.94
0.13838	313.15	1533.3	1.95
0.13838	318.15	1539.66	1.95
0.13838	323.15	1544.63	1.95
0.16111	283.15	1463.21	1.9
0.16111	288.15	1479.66	1.91
0.16111	293.15	1494.18	1.92
0.16111	298.15	1506.56	1.93
0.16111	303.15	1517.29	1.93
0.16111	308.15	1526.33	1.94
0.16111	313.15	1534.07	1.95
0.16111	318.15	1540.22	1.95
0.16111	323.15	1545	1.95
0.17892	283.15	1464.89	1.9
0.17892	288.15	1481.18	1.91
0.17892	293.15	1495.56	1.92
0.17892	298.15	1507.68	1.93
0.17892	303.15	1518.22	1.94
0.17892	308.15	1527.09	1.94
0.17892	313.15	1534.67	1.95
0.17892	318.15	1540.68	1.95
0.17892	323.15	1545.31	1.96

System: butanoic acid, heptafluoro-, sodium salt + water; phases: Liquid, Gas
Property: Mass density, kg/m3 (Liquid); method: VIBTUB:UFactor:16
Molality, mol/kg of butanoic acid, heptafluoro-, sodium salt	Temperature, K	Mass density, kg/m3	uncertainty
0.0154	283.1	1001.78	0.67
0.0154	288.15	1001.16	0.67
0.0154	293.15	1000.25	0.66
0.0154	298.15	999.07	0.67
0.0154	303.15	997.66	0.68
0.0154	308.15	996.03	0.69
0.0154	313.15	994.19	0.7
0.0154	318.15	992.17	0.72
0.0154	323.15	989.98	0.73
0.02022	283.1	1002.43	0.68
0.02022	288.15	1001.81	0.67
0.02022	293.15	1000.89	0.66
0.02022	298.15	999.7	0.66
0.02022	303.15	998.28	0.67
0.02022	308.15	996.65	0.68
0.02022	313.15	994.81	0.7
0.02022	318.15	992.79	0.71
0.02022	323.15	990.59	0.73
0.02943	283.1	1003.67	0.69
0.02943	288.15	1003.03	0.68
0.02943	293.15	1002.12	0.67
0.02943	298.15	1000.91	0.66
0.02943	303.15	999.48	0.66
0.02943	308.15	997.83	0.67
0.02943	313.15	995.99	0.69
0.02943	318.15	993.96	0.7
0.02943	323.15	991.75	0.72
0.03348	283.1	1004.21	0.69
0.03348	288.15	1003.57	0.68
0.03348	293.15	1002.63	0.68
0.03348	298.15	1001.43	0.67
0.03348	303.15	1000.01	0.66
0.03348	308.15	998.35	0.67
0.03348	313.15	996.5	0.68
0.03348	318.15	994.47	0.7
0.03348	323.15	992.26	0.72
0.04117	283.1	1005.24	0.7
0.04117	288.15	1004.59	0.69
0.04117	293.15	1003.64	0.68
0.04117	298.15	1002.44	0.67
0.04117	303.15	1001.01	0.66
0.04117	308.15	999.34	0.66
0.04117	313.15	997.48	0.67
0.04117	318.15	995.44	0.69
0.04117	323.15	993.23	0.71
0.04561	283.1	1005.82	0.7
0.04561	288.15	1005.16	0.7
0.04561	293.15	1004.21	0.69
0.04561	298.15	1003.01	0.68
0.04561	303.15	1001.56	0.67
0.04561	308.15	999.89	0.66
0.04561	313.15	998.03	0.67
0.04561	318.15	995.99	0.69
0.04561	323.15	993.77	0.7
0.04991	283.1	1006.37	0.71
0.04991	288.15	1005.71	0.7
0.04991	293.15	1004.76	0.69
0.04991	298.15	1003.54	0.68
0.04991	303.15	1002.09	0.67
0.04991	308.15	1000.43	0.66
0.04991	313.15	998.56	0.67
0.04991	318.15	996.52	0.68
0.04991	323.15	994.29	0.7
0.05594	283.1	1007.16	0.71
0.05594	288.15	1006.49	0.71
0.05594	293.15	1005.53	0.7
0.05594	298.15	1004.31	0.69
0.05594	303.15	1002.85	0.68
0.05594	308.15	1001.18	0.66
0.05594	313.15	999.31	0.66
0.05594	318.15	997.26	0.68
0.05594	323.15	995.03	0.69
0.05929	283.1	1007.59	0.72
0.05929	288.15	1006.92	0.71
0.05929	293.15	1005.96	0.7
0.05929	298.15	1004.74	0.69
0.05929	303.15	1003.28	0.68
0.05929	308.15	1001.6	0.67
0.05929	313.15	999.73	0.66
0.05929	318.15	997.68	0.67
0.05929	323.15	995.44	0.69
0.06997	283.1	1009.01	0.73
0.06997	288.15	1008.31	0.72
0.06997	293.15	1007.34	0.71
0.06997	298.15	1006.1	0.7
0.06997	303.15	1004.63	0.69
0.06997	308.15	1002.95	0.68
0.06997	313.15	1001.07	0.66
0.06997	318.15	999	0.66
0.06997	323.15	996.76	0.68
0.07978	283.1	1010.29	0.74
0.07978	288.15	1009.6	0.73
0.07978	293.15	1008.61	0.72
0.07978	298.15	1007.36	0.71
0.07978	303.15	1005.88	0.7
0.07978	308.15	1004.19	0.69
0.07978	313.15	1002.3	0.67
0.07978	318.15	1000.22	0.66
0.07978	323.15	997.97	0.67
0.09019	283.1	1011.66	0.75
0.09019	288.15	1010.95	0.74
0.09019	293.15	1009.95	0.73
0.09019	298.15	1008.7	0.72
0.09019	303.15	1007.21	0.71
0.09019	308.15	1005.5	0.7
0.09019	313.15	1003.6	0.68
0.09019	318.15	1001.52	0.67
0.09019	323.15	999.26	0.66
0.10034	283.1	1012.99	0.76
0.10034	288.15	1012.27	0.75
0.10034	293.15	1011.26	0.74
0.10034	298.15	1009.99	0.73
0.10034	303.15	1008.49	0.72
0.10034	308.15	1006.78	0.71
0.10034	313.15	1004.87	0.69
0.10034	318.15	1002.77	0.68
0.10034	323.15	1000.51	0.66
0.10826	283.1	1014.03	0.77
0.10826	288.15	1013.32	0.76
0.10826	293.15	1012.28	0.75
0.10826	298.15	1011.01	0.74
0.10826	303.15	1009.5	0.73
0.10826	308.15	1007.77	0.72
0.10826	313.15	1005.85	0.7
0.10826	318.15	1003.76	0.69
0.10826	323.15	1001.48	0.67
0.12504	283.1	1016.22	0.78
0.12504	288.15	1015.47	0.78
0.12504	293.15	1014.43	0.77
0.12504	298.15	1013.14	0.76
0.12504	303.15	1011.61	0.75
0.12504	308.15	1009.87	0.73
0.12504	313.15	1007.94	0.72
0.12504	318.15	1005.82	0.7
0.12504	323.15	1003.53	0.68
0.13838	283.1	1017.96	0.8
0.13838	288.15	1017.19	0.79
0.13838	293.15	1016.14	0.78
0.13838	298.15	1014.83	0.77
0.13838	303.15	1013.29	0.76
0.13838	308.15	1011.54	0.75
0.13838	313.15	1009.59	0.73
0.13838	318.15	1007.47	0.72
0.13838	323.15	1005.16	0.7
0.16111	283.1	1020.9	0.82
0.16111	288.15	1020.11	0.82
0.16111	293.15	1019.03	0.81
0.16111	298.15	1017.7	0.8
0.16111	303.15	1016.14	0.78
0.16111	308.15	1014.36	0.77
0.16111	313.15	1012.39	0.75
0.16111	318.15	1010.25	0.74
0.16111	323.15	1007.92	0.72
0.17892	283.1	1023.21	0.84
0.17892	288.15	1022.38	0.83
0.17892	293.15	1021.28	0.82
0.17892	298.15	1019.94	0.81
0.17892	303.15	1018.36	0.8
0.17892	308.15	1016.56	0.79
0.17892	313.15	1014.58	0.77
0.17892	318.15	1012.41	0.75
0.17892	323.15	1010.08	0.74
