Measured thermophysical data. Volumetric and viscometric properties of ternary solution of (N-methyldiethanolamine + monoethanolamine + ethanol)
Source: J. Chem. Thermodyn., 2019, 10.1016/j.jct.2019.02.019
Compound 1: N-methyldiethanolamine, C5H13NO2, InChI=1S/C5H13NO2/c1-6(2-4-7)3-5-8/h7-8H,2-5H2,1H3, purity 99%
Compound 2: 2-aminoethan-1-ol, C2H7NO, InChI=1S/C2H7NO/c3-1-2-4/h4H,1-3H2, purity 99%
Compound 3: ethanol, C2H6O, InChI=1S/C2H6O/c1-2-3/h3H,2H2,1H3, purity 99.8%

System: N-methyldiethanolamine; phases: Liquid
Fixed: Pressure, kPa = 101
Property: Mass density, kg/m3 (Liquid); method: Vibrating tube method
Temperature, K	Mass density, kg/m3	uncertainty
293.15	1040.5	1.03
303.15	1032.6	1.03
313.15	1024.76	1.03
323.15	1017.12	1.03

System: N-methyldiethanolamine; phases: Liquid
Fixed: Pressure, kPa = 101
Property: Viscosity, Pa*s (Liquid); method: Capillary tube (Ostwald; Ubbelohde) method
Temperature, K	Viscosity, Pa*s	uncertainty
293.15	0.10304	0.00434
303.15	0.05728	0.00234
313.15	0.03394	0.00139
323.15	0.02131	0.00087

System: 2-aminoethan-1-ol; phases: Liquid
Fixed: Pressure, kPa = 101
Property: Mass density, kg/m3 (Liquid); method: Vibrating tube method
Temperature, K	Mass density, kg/m3	uncertainty
293.15	1016.3	1.03
303.15	1008.02	1.02
313.15	999.98	1.02
323.15	991.97	1.02

System: 2-aminoethan-1-ol; phases: Liquid
Fixed: Pressure, kPa = 101
Property: Viscosity, Pa*s (Liquid); method: Capillary tube (Ostwald; Ubbelohde) method
Temperature, K	Viscosity, Pa*s	uncertainty
293.15	0.0234	0.00095
303.15	0.01471	0.0006
313.15	0.00977	0.0004
323.15	0.00683	0.00028

System: ethanol; phases: Liquid
Fixed: Pressure, kPa = 101
Property: Mass density, kg/m3 (Liquid); method: Vibrating tube method
Temperature, K	Mass density, kg/m3	uncertainty
293.15	788.88	1.01
303.15	781.69	1.01
313.15	772.3	1.01
323.15	765.29	1.01

System: ethanol; phases: Liquid
Fixed: Pressure, kPa = 101
Property: Viscosity, Pa*s (Liquid); method: Capillary tube (Ostwald; Ubbelohde) method
Temperature, K	Viscosity, Pa*s	uncertainty
293.15	0.00117	5e-05
303.15	0.00097	4e-05
313.15	0.00081	3e-05
323.15	0.00069	3e-05

System: N-methyldiethanolamine + ethanol; phases: Liquid
Fixed: Pressure, kPa = 101
Property: Mass density, kg/m3 (Liquid); method: Vibrating tube method
Temperature, K	Mole fraction of N-methyldiethanolamine	Mass density, kg/m3	uncertainty
293.15	0.1003	838.89	2.07
293.15	0.2001	879.56	1.81
293.15	0.3001	913.83	1.6
293.15	0.3998	941.42	1.43
293.15	0.5	964.94	1.33
293.15	0.5999	984.81	1.25
293.15	0.7	1001.91	1.2
293.15	0.8001	1016.76	1.16
293.15	0.9005	1029.58	1.13
303.15	0.1003	830.03	2.03
303.15	0.2001	869.79	1.77
303.15	0.3001	903.04	1.58
303.15	0.3998	930.67	1.44
303.15	0.5	954.51	1.34
303.15	0.5999	974.63	1.26
303.15	0.7	992.31	1.21
303.15	0.8001	1007.51	1.16
303.15	0.9005	1020.96	1.14
313.15	0.1003	820.48	2.03
313.15	0.2001	860.28	1.78
313.15	0.3001	893.56	1.58
313.15	0.3998	921.43	1.45
313.15	0.5	945.44	1.34
313.15	0.5999	965.86	1.26
313.15	0.7	983.56	1.21
313.15	0.8001	999.13	1.17
313.15	0.9005	1012.93	1.14
323.15	0.1003	812.93	2.01
323.15	0.2001	852.57	1.77
323.15	0.3001	885.65	1.58
323.15	0.3998	913.45	1.44
323.15	0.5	937.39	1.34
323.15	0.5999	957.92	1.27
323.15	0.7	975.64	1.21
323.15	0.8001	991.3	1.17
323.15	0.9005	1005.16	1.14
293.15	1	1040.5	1.03
303.15	1	1032.6	1.03
313.15	1	1024.76	1.03
323.15	1	1017.12	1.03
293.15	0	788.88	1.01
303.15	0	781.69	1.01
313.15	0	772.3	1.01
323.15	0	765.29	1.01

System: N-methyldiethanolamine + ethanol; phases: Liquid
Fixed: Pressure, kPa = 101
Property: Viscosity, Pa*s (Liquid); method: Capillary tube (Ostwald; Ubbelohde) method
Temperature, K	Mole fraction of N-methyldiethanolamine	Viscosity, Pa*s	uncertainty
293.15	0.1003	0.00195	9e-05
293.15	0.2001	0.00325	0.00015
293.15	0.3001	0.00536	0.00024
293.15	0.3998	0.00877	0.0004
293.15	0.5	0.01409	0.00063
293.15	0.5999	0.02194	0.00097
293.15	0.7	0.03337	0.00146
293.15	0.8001	0.04936	0.00216
293.15	0.9005	0.07294	0.00317
303.15	0.1003	0.00154	7e-05
303.15	0.2001	0.00245	0.00011
303.15	0.3001	0.00388	0.00017
303.15	0.3998	0.00608	0.00027
303.15	0.5	0.00941	0.00041
303.15	0.5999	0.01414	0.00062
303.15	0.7	0.0208	0.0009
303.15	0.8001	0.02956	0.00127
303.15	0.9005	0.04184	0.0018
313.15	0.1003	0.00127	6e-05
313.15	0.2001	0.00194	9e-05
313.15	0.3001	0.00295	0.00013
313.15	0.3998	0.0045	0.0002
313.15	0.5	0.00664	0.00029
313.15	0.5999	0.00968	0.00042
313.15	0.7	0.01369	0.00059
313.15	0.8001	0.01885	0.0008
313.15	0.9005	0.02538	0.00108
323.15	0.1003	0.00103	5e-05
323.15	0.2001	0.00152	7e-05
323.15	0.3001	0.00225	0.0001
323.15	0.3998	0.00332	0.00014
323.15	0.5	0.00479	0.00021
323.15	0.5999	0.00679	0.00029
323.15	0.7	0.0094	0.0004
323.15	0.8001	0.01244	0.00053
323.15	0.9005	0.01652	0.0007
293.15	1	0.10304	0.00434
303.15	1	0.05728	0.00234
313.15	1	0.03394	0.00139
323.15	1	0.02131	0.00087
293.15	0	0.00117	5e-05
303.15	0	0.00097	4e-05
313.15	0	0.00081	3e-05
323.15	0	0.00069	3e-05

System: 2-aminoethan-1-ol + ethanol; phases: Liquid
Fixed: Pressure, kPa = 101
Property: Mass density, kg/m3 (Liquid); method: Vibrating tube method
Temperature, K	Mole fraction of 2-aminoethan-1-ol	Mass density, kg/m3	uncertainty
293.15	0.1002	816.84	1.49
293.15	0.1999	843.68	1.45
293.15	0.3002	868.92	1.41
293.15	0.4004	893.15	1.38
293.15	0.5	916.18	1.35
293.15	0.5998	938.02	1.32
293.15	0.7	959.13	1.3
293.15	0.7996	978.96	1.28
293.15	0.8994	998.41	1.26
303.15	0.1002	808.87	1.47
303.15	0.1999	834.94	1.44
303.15	0.3002	860.42	1.41
303.15	0.4004	884.54	1.38
303.15	0.5	907.59	1.35
303.15	0.5998	929.38	1.33
303.15	0.7	950.81	1.31
303.15	0.7996	970.81	1.28
303.15	0.8994	989.98	1.26
313.15	0.1002	799.33	1.46
313.15	0.1999	825.34	1.44
313.15	0.3002	850.66	1.41
313.15	0.4004	874.69	1.38
313.15	0.5	897.82	1.36
313.15	0.5998	919.84	1.34
313.15	0.7	941.56	1.32
313.15	0.7996	961.95	1.29
313.15	0.8994	981.44	1.27
323.15	0.1002	791.69	1.45
323.15	0.1999	817.35	1.43
323.15	0.3002	842.49	1.41
323.15	0.4004	866.58	1.38
323.15	0.5	889.61	1.36
323.15	0.5998	911.88	1.33
323.15	0.7	933.03	1.31
323.15	0.7996	953.82	1.3
323.15	0.8994	973.33	1.27
293.15	1	1016.3	1.03
303.15	1	1008.02	1.02
313.15	1	999.98	1.02
323.15	1	991.97	1.02
293.15	0	788.88	1.01
303.15	0	781.69	1.01
313.15	0	772.3	1.01
323.15	0	765.29	1.01

System: 2-aminoethan-1-ol + ethanol; phases: Liquid
Fixed: Pressure, kPa = 101
Property: Viscosity, Pa*s (Liquid); method: Capillary tube (Ostwald; Ubbelohde) method
Temperature, K	Mole fraction of 2-aminoethan-1-ol	Viscosity, Pa*s	uncertainty
293.15	0.1002	0.00156	7e-05
293.15	0.1999	0.00212	9e-05
293.15	0.3002	0.00289	0.00012
293.15	0.4004	0.00396	0.00017
293.15	0.5	0.00544	0.00023
293.15	0.5998	0.00745	0.00032
293.15	0.7	0.01019	0.00043
293.15	0.7996	0.01374	0.00058
293.15	0.8994	0.01822	0.00076
303.15	0.1002	0.00127	5e-05
303.15	0.1999	0.00168	7e-05
303.15	0.3002	0.00223	9e-05
303.15	0.4004	0.00298	0.00013
303.15	0.5	0.00396	0.00017
303.15	0.5998	0.00523	0.00022
303.15	0.7	0.00692	0.00029
303.15	0.7996	0.00905	0.00038
303.15	0.8994	0.01174	0.00049
313.15	0.1002	0.00105	4e-05
313.15	0.1999	0.00136	6e-05
313.15	0.3002	0.00177	7e-05
313.15	0.4004	0.00229	0.0001
313.15	0.5	0.00295	0.00012
313.15	0.5998	0.0038	0.00016
313.15	0.7	0.00487	0.0002
313.15	0.7996	0.00617	0.00026
313.15	0.8994	0.00774	0.00032
323.15	0.1002	0.00087	4e-05
323.15	0.1999	0.00111	5e-05
323.15	0.3002	0.00142	6e-05
323.15	0.4004	0.0018	8e-05
323.15	0.5	0.00228	0.0001
323.15	0.5998	0.00287	0.00012
323.15	0.7	0.0036	0.00015
323.15	0.7996	0.00448	0.00019
323.15	0.8994	0.00548	0.00023
293.15	1	0.0234	0.00095
303.15	1	0.01471	0.0006
313.15	1	0.00977	0.0004
323.15	1	0.00683	0.00028
293.15	0	0.00117	5e-05
303.15	0	0.00097	4e-05
313.15	0	0.00081	3e-05
323.15	0	0.00069	3e-05

System: N-methyldiethanolamine + 2-aminoethan-1-ol; phases: Liquid
Fixed: Pressure, kPa = 101
Property: Mass density, kg/m3 (Liquid); method: Vibrating tube method
Temperature, K	Mole fraction of N-methyldiethanolamine	Mass density, kg/m3	uncertainty
293.15	0.1001	1021.71	1.04
293.15	0.2006	1025.79	1.04
293.15	0.3	1029.07	1.03
293.15	0.3998	1031.69	1.03
293.15	0.4994	1033.82	1.03
293.15	0.5997	1035.58	1.03
293.15	0.6977	1037.09	1.03
293.15	0.7996	1038.43	1.03
293.15	0.8995	1039.57	1.03
303.15	0.1001	1013.23	1.04
303.15	0.2006	1017.39	1.04
303.15	0.3	1020.72	1.03
303.15	0.3998	1023.42	1.03
303.15	0.4994	1025.62	1.03
303.15	0.5997	1027.46	1.03
303.15	0.6977	1029.04	1.03
303.15	0.7996	1030.43	1.03
303.15	0.8995	1031.61	1.03
313.15	0.1001	1005.13	1.04
313.15	0.2006	1009.3	1
313.15	0.3	1012.66	1.03
313.15	0.3998	1015.36	1.03
313.15	0.4994	1017.61	1.03
313.15	0.5997	1019.48	1.03
313.15	0.6977	1021.11	1.03
313.15	0.7996	1022.52	1.03
313.15	0.8995	1023.72	1.03
323.15	0.1001	997.1	1
323.15	0.2006	1001.26	1.03
323.15	0.3	1004.69	1.03
323.15	0.3998	1007.45	1.03
323.15	0.4994	1009.72	1.03
323.15	0.5997	1011.68	1.03
323.15	0.6977	1013.34	1.03
323.15	0.7996	1014.79	1.03
323.15	0.8995	1016.04	1.03
293.15	1	1040.5	1.03
303.15	1	1032.6	1.03
313.15	1	1024.76	1.03
323.15	1	1017.12	1.03
293.15	0	1016.3	1.03
303.15	0	1008.02	1.02
313.15	0	999.98	1.02
323.15	0	991.97	1.02

System: N-methyldiethanolamine + 2-aminoethan-1-ol; phases: Liquid
Fixed: Pressure, kPa = 101
Property: Viscosity, Pa*s (Liquid); method: Capillary tube (Ostwald; Ubbelohde) method
Temperature, K	Mole fraction of N-methyldiethanolamine	Viscosity, Pa*s	uncertainty
293.15	0.1001	0.0329	0.0014
293.15	0.2006	0.04327	0.00181
293.15	0.3	0.05278	0.00217
293.15	0.3998	0.06264	0.00258
293.15	0.4994	0.0714	0.00294
293.15	0.5997	0.07947	0.00329
293.15	0.6977	0.08628	0.00359
293.15	0.7996	0.0929	0.00388
293.15	0.8995	0.09821	0.00412
303.15	0.1001	0.01984	0.00084
303.15	0.2006	0.02518	0.00105
303.15	0.3	0.03053	0.00127
303.15	0.3998	0.0358	0.00148
303.15	0.4994	0.0406	0.00167
303.15	0.5997	0.04511	0.00185
303.15	0.6977	0.04861	0.00199
303.15	0.7996	0.05206	0.00213
303.15	0.8995	0.0548	0.00224
313.15	0.1001	0.01283	0.00054
313.15	0.2006	0.01597	0.00066
313.15	0.3	0.01892	0.00078
313.15	0.3998	0.02186	0.0009
313.15	0.4994	0.02453	0.00101
313.15	0.5997	0.02697	0.0011
313.15	0.6977	0.02905	0.00119
313.15	0.7996	0.03087	0.00126
313.15	0.8995	0.03288	0.00134
323.15	0.1001	0.0084	0.00035
323.15	0.2006	0.01048	0.00044
323.15	0.3	0.01249	0.00052
323.15	0.3998	0.0143	0.00059
323.15	0.4994	0.01583	0.00065
323.15	0.5997	0.01735	0.00071
323.15	0.6977	0.0186	0.00076
323.15	0.7996	0.01964	0.0008
323.15	0.8995	0.02056	0.00084
293.15	1	0.10304	0.00434
303.15	1	0.05728	0.00234
313.15	1	0.03394	0.00139
323.15	1	0.02131	0.00087
293.15	0	0.0234	0.00095
303.15	0	0.01471	0.0006
313.15	0	0.00977	0.0004
323.15	0	0.00683	0.00028

System: N-methyldiethanolamine + 2-aminoethan-1-ol + ethanol; phases: Liquid
Fixed: Pressure, kPa = 101
Property: Mass density, kg/m3 (Liquid); method: Vibrating tube method
Temperature, K	Mole fraction of N-methyldiethanolamine	Mole fraction of 2-aminoethan-1-ol	Mass density, kg/m3	uncertainty
293.15	0.1001	0.09	860.47	2.03
293.15	0.2	0.08	896.05	1.94
293.15	0.3	0.07	925.43	1.74
293.15	0.4002	0.06	950.59	1.6
293.15	0.4999	0.05	971.53	1.48
293.15	0.6	0.04	989.44	1.4
293.15	0.6996	0.03	1004.99	1.31
293.15	0.8003	0.02	1018.76	1.28
293.15	0.8998	0.01	1031.09	1.22
293.15	0.1001	0.18	880.71	1.97
293.15	0.2	0.16	911.91	1.77
293.15	0.2998	0.14	938.16	1.58
293.15	0.3999	0.12	960.24	1.49
293.15	0.4996	0.1001	978.93	1.38
293.15	0.5996	0.0801	994.96	1.33
293.15	0.7001	0.06	1008.83	1.27
293.15	0.8	0.04	1021.04	1.26
293.15	0.9001	0.02	1032.11	1.22
293.15	0.1002	0.2699	900.96	1.92
293.15	0.2001	0.24	928.27	1.68
293.15	0.3	0.21	951.22	1.55
293.15	0.4001	0.18	970.27	1.46
293.15	0.4996	0.1501	986.51	1.38
293.15	0.5999	0.12	1000.67	1.32
293.15	0.6998	0.0901	1012.71	1.3
293.15	0.7996	0.0601	1023.33	1.25
293.15	0.8994	0.0302	1033.07	1.23
293.15	0.0999	0.3601	920.71	1.81
293.15	0.2003	0.3199	944.06	1.64
293.15	0.3	0.28	963.44	1.52
293.15	0.4001	0.24	979.95	1.43
293.15	0.5	0.2	994.05	1.36
293.15	0.5998	0.1601	1006.02	1.34
293.15	0.7003	0.1199	1016.53	1.28
293.15	0.7987	0.0805	1025.71	1.24
293.15	0.9	0.04	1034.22	1.22
293.15	0.0999	0.45	940.04	1.72
293.15	0.2001	0.3999	959.77	1.59
293.15	0.3001	0.3499	975.73	1.49
293.15	0.3998	0.3001	989.35	1.41
293.15	0.5	0.25	1001.36	1.38
293.15	0.5998	0.2001	1011.44	1.31
293.15	0.6991	0.1504	1020.23	1.27
293.15	0.7993	0.1004	1028.07	1.26
293.15	0.8997	0.0501	1035.15	1.22
293.15	0.1	0.54	957.52	1.66
293.15	0.2002	0.4799	973.84	1.54
293.15	0.3	0.42	987.19	1.45
293.15	0.3998	0.3601	998.52	1.42
293.15	0.5001	0.3	1008.16	1.34
293.15	0.6	0.24	1016.71	1.29
293.15	0.7003	0.1798	1023.99	1.26
293.15	0.8001	0.12	1030.45	1.26
293.15	0.8998	0.0601	1036.27	1.23
293.15	0.0999	0.6301	974.88	1.6
293.15	0.1999	0.5601	988.01	1.5
293.15	0.2999	0.4901	998.55	1.47
293.15	0.3997	0.4202	1007.51	1.43
293.15	0.5	0.35	1015.23	1.34
293.15	0.6002	0.2799	1021.74	1.28
293.15	0.6995	0.2103	1027.71	1.28
293.15	0.7965	0.1425	1032.69	1.25
293.15	0.8912	0.0762	1037.01	1.2
293.15	0.1001	0.7199	991.18	1.56
293.15	0.2003	0.6397	1001.29	1.52
293.15	0.2999	0.5601	1009.48	1.47
293.15	0.4	0.48	1016.44	1.41
293.15	0.4998	0.4001	1022.07	1.35
293.15	0.5997	0.3202	1026.98	1.32
293.15	0.6998	0.2402	1031.21	1.27
293.15	0.7994	0.1605	1035.11	1.25
293.15	0.9004	0.0797	1038.44	1.2
293.15	0.1001	0.8112	1007.78	1.56
293.15	0.2	0.7211	1014.73	1.54
293.15	0.3001	0.6309	1020.54	1.45
293.15	0.4	0.5408	1025.29	1.39
293.15	0.4995	0.4512	1029.11	1.34
293.15	0.6001	0.3605	1032.36	1.31
293.15	0.6998	0.2706	1035.01	1.28
293.15	0.8004	0.1799	1037.61	1.26
293.15	0.9001	0.09	1039.47	1.22
303.15	0.1001	0.09	852.14	2.06
303.15	0.2	0.08	887.62	1.92
303.15	0.3	0.07	917.17	1.73
303.15	0.4002	0.06	942.22	1.58
303.15	0.4999	0.05	963.3	1.5
303.15	0.6	0.04	981.28	1.38
303.15	0.6996	0.03	996.74	1.29
303.15	0.8003	0.02	1010.51	1.27
303.15	0.8998	0.01	1023.04	1.26
303.15	0.1001	0.18	872.58	1.97
303.15	0.2	0.16	903.66	1.77
303.15	0.2998	0.14	929.81	1.58
303.15	0.3999	0.12	951.94	1.5
303.15	0.4996	0.1001	970.72	1.38
303.15	0.5996	0.0801	986.64	1.33
303.15	0.7001	0.06	1000.54	1.28
303.15	0.8	0.04	1012.89	1.26
303.15	0.9001	0.02	1024.08	1.23
303.15	0.1002	0.2699	892.76	1.91
303.15	0.2001	0.24	919.71	1.67
303.15	0.3	0.21	942.86	1.54
303.15	0.4001	0.18	961.93	1.46
303.15	0.4996	0.1501	978.19	1.38
303.15	0.5999	0.12	992.32	1.32
303.15	0.6998	0.0901	1004.41	1.3
303.15	0.7996	0.0601	1015.19	1.25
303.15	0.8994	0.0302	1025.05	1.22
303.15	0.0999	0.3601	912.22	1.8
303.15	0.2003	0.3199	935.56	1.65
303.15	0.3	0.28	954.87	1.52
303.15	0.4001	0.24	971.52	1.44
303.15	0.5	0.2	985.61	1.37
303.15	0.5998	0.1601	997.78	1.34
303.15	0.7003	0.1199	1008.29	1.28
303.15	0.7987	0.0805	1017.47	1.24
303.15	0.9	0.04	1026.16	1.22
303.15	0.0999	0.45	931.36	1.72
303.15	0.2001	0.3999	951.14	1.59
303.15	0.3001	0.3499	967.11	1.49
303.15	0.3998	0.3001	980.93	1.41
303.15	0.5	0.25	993	1.38
303.15	0.5998	0.2001	1003.1	1.31
303.15	0.6991	0.1504	1011.93	1.27
303.15	0.7993	0.1004	1019.87	1.26
303.15	0.8997	0.0501	1027.13	1.22
303.15	0.1	0.54	948.86	1.66
303.15	0.2002	0.4799	965.33	1.54
303.15	0.3	0.42	978.83	1.46
303.15	0.3998	0.3601	990.03	1.42
303.15	0.5001	0.3	999.72	1.33
303.15	0.6	0.24	1008.41	1.29
303.15	0.7003	0.1798	1015.73	1.25
303.15	0.8001	0.12	1022.19	1.25
303.15	0.8998	0.0601	1028.21	1.23
303.15	0.0999	0.6301	966.49	1.6
303.15	0.1999	0.5601	979.44	1.5
303.15	0.2999	0.4901	990.18	1.47
303.15	0.3997	0.4202	999.03	1.42
303.15	0.5	0.35	1006.63	1.33
303.15	0.6002	0.2799	1013.29	1.27
303.15	0.6995	0.2103	1019.4	1.3
303.15	0.7965	0.1425	1024.38	1.25
303.15	0.8912	0.0762	1028.93	1.25
303.15	0.1001	0.7199	982.61	1.55
303.15	0.2003	0.6397	992.68	1.51
303.15	0.2999	0.5601	1000.97	1.46
303.15	0.4	0.48	1007.79	1.39
303.15	0.4998	0.4001	1013.45	1.34
303.15	0.5997	0.3202	1018.48	1.31
303.15	0.6998	0.2402	1022.81	1.26
303.15	0.7994	0.1605	1026.72	1.24
303.15	0.9004	0.0797	1030.41	1.18
303.15	0.1001	0.8112	998.89	1.55
303.15	0.2	0.7211	1005.83	1.52
303.15	0.3001	0.6309	1011.63	1.44
303.15	0.4	0.5408	1016.38	1.38
303.15	0.4995	0.4512	1020.25	1.34
303.15	0.6001	0.3605	1023.59	1.31
303.15	0.6998	0.2706	1026.29	1.27
303.15	0.8004	0.1799	1028.88	1.24
303.15	0.9001	0.09	1031.28	1.2
313.15	0.1001	0.09	842.42	2.01
313.15	0.2	0.08	878.31	1.92
313.15	0.3	0.07	907.99	1.72
313.15	0.4002	0.06	933.12	1.57
313.15	0.4999	0.05	954.21	1.46
313.15	0.6	0.04	972.36	1.37
313.15	0.6996	0.03	987.96	1.27
313.15	0.8003	0.02	1001.81	1.24
313.15	0.8998	0.01	1014.28	1.19
313.15	0.1001	0.18	863.18	1.96
313.15	0.2	0.16	894.33	1.76
313.15	0.2998	0.14	920.69	1.57
313.15	0.3999	0.12	942.87	1.49
313.15	0.4996	0.1001	961.68	1.38
313.15	0.5996	0.0801	977.71	1.32
313.15	0.7001	0.06	991.87	1.27
313.15	0.8	0.04	1004.18	1.27
313.15	0.9001	0.02	1015.31	1.22
313.15	0.1002	0.2699	883.12	1.89
313.15	0.2001	0.24	910.31	1.67
313.15	0.3	0.21	933.21	1.54
313.15	0.4001	0.18	952.68	1.46
313.15	0.4996	0.1501	969.24	1.37
313.15	0.5999	0.12	983.24	1.32
313.15	0.6998	0.0901	995.63	1.31
313.15	0.7996	0.0601	1006.45	1.25
313.15	0.8994	0.0302	1016.24	1.23
313.15	0.0999	0.3601	902.51	1.79
313.15	0.2003	0.3199	926.14	1.65
313.15	0.3	0.28	945.74	1.53
313.15	0.4001	0.24	962.52	1.43
313.15	0.5	0.2	976.74	1.36
313.15	0.5998	0.1601	988.73	1.34
313.15	0.7003	0.1199	999.49	1.29
313.15	0.7987	0.0805	1008.75	1.25
313.15	0.9	0.04	1017.38	1.23
313.15	0.0999	0.45	921.83	1.73
313.15	0.2001	0.3999	941.69	1.59
313.15	0.3001	0.3499	958.21	1.49
313.15	0.3998	0.3001	971.97	1.41
313.15	0.5	0.25	983.89	1.39
313.15	0.5998	0.2001	994.11	1.32
313.15	0.6991	0.1504	1003.22	1.28
313.15	0.7993	0.1004	1011.23	1.27
313.15	0.8997	0.0501	1018.42	1.23
313.15	0.1	0.54	939.91	1.67
313.15	0.2002	0.4799	956.37	1.55
313.15	0.3	0.42	969.91	1.46
313.15	0.3998	0.3601	981.27	1.44
313.15	0.5001	0.3	991.07	1.35
313.15	0.6	0.24	999.53	1.31
313.15	0.7003	0.1798	1007.16	1.26
313.15	0.8001	0.12	1013.67	1.26
313.15	0.8998	0.0601	1019.51	1.23
313.15	0.0999	0.6301	957.66	1.6
313.15	0.1999	0.5601	970.65	1.5
313.15	0.2999	0.4901	981.47	1.48
313.15	0.3997	0.4202	990.57	1.43
313.15	0.5	0.35	998.33	1.33
313.15	0.6002	0.2799	1005.04	1.28
313.15	0.6995	0.2103	1010.88	1.29
313.15	0.7965	0.1425	1015.89	1.26
313.15	0.8912	0.0762	1020.22	1.18
313.15	0.1001	0.7199	973.99	1.55
313.15	0.2003	0.6397	984.06	1.51
313.15	0.2999	0.5601	992.22	1.47
313.15	0.4	0.48	999.07	1.39
313.15	0.4998	0.4001	1004.89	1.34
313.15	0.5997	0.3202	1010.04	1.31
313.15	0.6998	0.2402	1014.48	1.27
313.15	0.7994	0.1605	1018.39	1.25
313.15	0.9004	0.0797	1021.78	1.27
313.15	0.1001	0.8112	990.29	1.55
313.15	0.2	0.7211	997.17	1.52
313.15	0.3001	0.6309	1003.02	1.44
313.15	0.4	0.5408	1007.82	1.39
313.15	0.4995	0.4512	1011.97	1.35
313.15	0.6001	0.3605	1015.12	1.3
313.15	0.6998	0.2706	1018.01	1.27
313.15	0.8004	0.1799	1020.67	1.25
313.15	0.9001	0.09	1022.95	1.26
323.15	0.1001	0.09	834.85	2.04
323.15	0.2	0.08	870.69	1.95
323.15	0.3	0.07	900.28	1.75
323.15	0.4002	0.06	925.28	1.6
323.15	0.4999	0.05	946.39	1.49
323.15	0.6	0.04	964.48	1.4
323.15	0.6996	0.03	980.12	1.31
323.15	0.8003	0.02	993.98	1.28
323.15	0.8998	0.01	1006.26	1.22
323.15	0.1001	0.18	855.42	1.97
323.15	0.2	0.16	886.64	1.77
323.15	0.2998	0.14	912.92	1.58
323.15	0.3999	0.12	935.07	1.49
323.15	0.4996	0.1001	953.87	1.38
323.15	0.5996	0.0801	969.96	1.32
323.15	0.7001	0.06	983.94	1.27
323.15	0.8	0.04	996.23	1.25
323.15	0.9001	0.02	1007.32	1.22
323.15	0.1002	0.2699	875.41	1.9
323.15	0.2001	0.24	902.61	1.68
323.15	0.3	0.21	925.43	1.55
323.15	0.4001	0.18	944.81	1.45
323.15	0.4996	0.1501	961.28	1.37
323.15	0.5999	0.12	975.49	1.31
323.15	0.6998	0.0901	987.61	1.29
323.15	0.7996	0.0601	998.42	1.25
323.15	0.8994	0.0302	1008.29	1.22
323.15	0.0999	0.3601	894.67	1.8
323.15	0.2003	0.3199	918.31	1.64
323.15	0.3	0.28	937.84	1.53
323.15	0.4001	0.24	954.64	1.44
323.15	0.5	0.2	968.62	1.36
323.15	0.5998	0.1601	980.74	1.34
323.15	0.7003	0.1199	991.39	1.28
323.15	0.7987	0.0805	1000.74	1.25
323.15	0.9	0.04	1009.41	1.23
323.15	0.0999	0.45	913.94	1.73
323.15	0.2001	0.3999	933.85	1.59
323.15	0.3001	0.3499	950.04	1.5
323.15	0.3998	0.3001	964.07	1.41
323.15	0.5	0.25	975.91	1.39
323.15	0.5998	0.2001	986.17	1.32
323.15	0.6991	0.1504	995.13	1.29
323.15	0.7993	0.1004	1003.23	1.27
323.15	0.8997	0.0501	1010.47	1.23
323.15	0.1	0.54	931.91	1.67
323.15	0.2002	0.4799	948.32	1.55
323.15	0.3	0.42	961.65	1.47
323.15	0.3998	0.3601	973.27	1.44
323.15	0.5001	0.3	983.09	1.35
323.15	0.6	0.24	991.59	1.31
323.15	0.7003	0.1798	999.13	1.26
323.15	0.8001	0.12	1005.69	1.27
323.15	0.8998	0.0601	1011.58	1.23
323.15	0.0999	0.6301	949.51	1.6
323.15	0.1999	0.5601	962.47	1.5
323.15	0.2999	0.4901	973.49	1.47
323.15	0.3997	0.4202	982.52	1.43
323.15	0.5	0.35	990.23	1.33
323.15	0.6002	0.2799	996.98	1.28
323.15	0.6995	0.2103	1002.91	1.28
323.15	0.7965	0.1425	1007.92	1.25
323.15	0.8912	0.0762	1012.31	1.23
323.15	0.1001	0.7199	965.64	1.55
323.15	0.2003	0.6397	975.73	1.51
323.15	0.2999	0.5601	983.86	1.46
323.15	0.4	0.48	990.87	1.39
323.15	0.4998	0.4001	996.85	1.33
323.15	0.5997	0.3202	1001.91	1.31
323.15	0.6998	0.2402	1006.36	1.27
323.15	0.7994	0.1605	1010.29	1.25
323.15	0.9004	0.0797	1013.89	1.23
323.15	0.1001	0.8112	981.92	1.55
323.15	0.2	0.7211	988.87	1.52
323.15	0.3001	0.6309	994.71	1.44
323.15	0.4	0.5408	999.56	1.38
323.15	0.4995	0.4512	1003.61	1.33
323.15	0.6001	0.3605	1007.06	1.3
323.15	0.6998	0.2706	1010.09	1.27
323.15	0.8004	0.1799	1012.72	1.25
323.15	0.9001	0.09	1015.01	1.23

System: N-methyldiethanolamine + 2-aminoethan-1-ol + ethanol; phases: Liquid
Fixed: Pressure, kPa = 101
Property: Viscosity, Pa*s (Liquid); method: Capillary tube (Ostwald; Ubbelohde) method
Temperature, K	Mole fraction of N-methyldiethanolamine	Mole fraction of 2-aminoethan-1-ol	Viscosity, Pa*s	uncertainty
293.15	0.1001	0.09	0.00265	0.00017
293.15	0.2	0.08	0.0039	0.00025
293.15	0.3	0.07	0.00685	0.00045
293.15	0.4002	0.06	0.01131	0.00073
293.15	0.4999	0.05	0.0172	0.0011
293.15	0.6	0.04	0.02574	0.00163
293.15	0.6996	0.03	0.03716	0.00235
293.15	0.8003	0.02	0.05331	0.00333
293.15	0.8998	0.01	0.07423	0.00467
293.15	0.1001	0.18	0.00314	0.00021
293.15	0.2	0.16	0.0052	0.00036
293.15	0.2998	0.14	0.00893	0.00061
293.15	0.3999	0.12	0.01358	0.00089
293.15	0.4996	0.1001	0.02029	0.00134
293.15	0.5996	0.0801	0.02893	0.00188
293.15	0.7001	0.06	0.04072	0.00262
293.15	0.8	0.04	0.05634	0.00355
293.15	0.9001	0.02	0.07638	0.00481
293.15	0.1002	0.2699	0.00402	0.00028
293.15	0.2001	0.24	0.0069	0.00049
293.15	0.3	0.21	0.01129	0.00076
293.15	0.4001	0.18	0.01671	0.0011
293.15	0.4996	0.1501	0.02356	0.00154
293.15	0.5999	0.12	0.03288	0.00213
293.15	0.6998	0.0901	0.04472	0.00283
293.15	0.7996	0.0601	0.05986	0.00378
293.15	0.8994	0.0302	0.07856	0.00494
293.15	0.0999	0.3601	0.00567	0.00043
293.15	0.2003	0.3199	0.00827	0.0006
293.15	0.3	0.28	0.01379	0.00093
293.15	0.4001	0.24	0.01998	0.00132
293.15	0.5	0.2	0.02749	0.0018
293.15	0.5998	0.1601	0.03723	0.00237
293.15	0.7003	0.1199	0.04903	0.00312
293.15	0.7987	0.0805	0.06263	0.00396
293.15	0.9	0.04	0.08043	0.00504
293.15	0.0999	0.45	0.00852	0.0006
293.15	0.2001	0.3999	0.013	0.00089
293.15	0.3001	0.3499	0.01812	0.0012
293.15	0.3998	0.3001	0.02478	0.00161
293.15	0.5	0.25	0.03283	0.00209
293.15	0.5998	0.2001	0.04238	0.00271
293.15	0.6991	0.1504	0.05362	0.0034
293.15	0.7993	0.1004	0.06681	0.00421
293.15	0.8997	0.0501	0.08236	0.00517
293.15	0.1	0.54	0.01171	0.00081
293.15	0.2002	0.4799	0.01681	0.00112
293.15	0.3	0.42	0.02284	0.00149
293.15	0.3998	0.3601	0.02964	0.00189
293.15	0.5001	0.3	0.03744	0.0024
293.15	0.6	0.24	0.04725	0.003
293.15	0.7003	0.1798	0.05851	0.00371
293.15	0.8001	0.12	0.07148	0.0045
293.15	0.8998	0.0601	0.0845	0.00531
293.15	0.0999	0.6301	0.01548	0.00103
293.15	0.1999	0.5601	0.02152	0.0014
293.15	0.2999	0.4901	0.02843	0.00181
293.15	0.3997	0.4202	0.03543	0.00223
293.15	0.5	0.35	0.04392	0.00278
293.15	0.6002	0.2799	0.05311	0.00336
293.15	0.6995	0.2103	0.06375	0.00399
293.15	0.7965	0.1425	0.07479	0.00469
293.15	0.8912	0.0762	0.08605	0.00538
293.15	0.1001	0.7199	0.01903	0.00125
293.15	0.2003	0.6397	0.02594	0.00164
293.15	0.2999	0.5601	0.03314	0.00207
293.15	0.4	0.48	0.04083	0.00254
293.15	0.4998	0.4001	0.04941	0.00308
293.15	0.5997	0.3202	0.05902	0.00367
293.15	0.6998	0.2402	0.06867	0.00427
293.15	0.7994	0.1605	0.07849	0.0049
293.15	0.9004	0.0797	0.08876	0.00555
293.15	0.1001	0.8112	0.02393	0.00153
293.15	0.2	0.7211	0.03053	0.00192
293.15	0.3001	0.6309	0.03758	0.00234
293.15	0.4	0.5408	0.04516	0.0028
293.15	0.4995	0.4512	0.05375	0.00332
293.15	0.6001	0.3605	0.06271	0.00388
293.15	0.6998	0.2706	0.07179	0.00444
293.15	0.8004	0.1799	0.08128	0.00506
293.15	0.9001	0.09	0.09087	0.00571
303.15	0.1001	0.09	0.00206	0.00013
303.15	0.2	0.08	0.00317	0.0002
303.15	0.3	0.07	0.00485	0.00031
303.15	0.4002	0.06	0.00756	0.00048
303.15	0.4999	0.05	0.01132	0.00072
303.15	0.6	0.04	0.01644	0.00103
303.15	0.6996	0.03	0.0229	0.00142
303.15	0.8003	0.02	0.03147	0.00197
303.15	0.8998	0.01	0.04237	0.00303
303.15	0.1001	0.18	0.00272	0.00018
303.15	0.2	0.16	0.00401	0.00026
303.15	0.2998	0.14	0.00627	0.00042
303.15	0.3999	0.12	0.00917	0.00059
303.15	0.4996	0.1001	0.0133	0.00086
303.15	0.5996	0.0801	0.01829	0.00116
303.15	0.7001	0.06	0.02488	0.00157
303.15	0.8	0.04	0.03305	0.00208
303.15	0.9001	0.02	0.04352	0.00274
303.15	0.1002	0.2699	0.0034	0.00022
303.15	0.2001	0.24	0.0049	0.00033
303.15	0.3	0.21	0.00751	0.00049
303.15	0.4001	0.18	0.01104	0.00071
303.15	0.4996	0.1501	0.01508	0.00096
303.15	0.5999	0.12	0.02045	0.00129
303.15	0.6998	0.0901	0.02703	0.0017
303.15	0.7996	0.0601	0.03495	0.00219
303.15	0.8994	0.0302	0.04463	0.00281
303.15	0.0999	0.3601	0.00405	0.00028
303.15	0.2003	0.3199	0.00571	0.00039
303.15	0.3	0.28	0.00877	0.00058
303.15	0.4001	0.24	0.01239	0.0008
303.15	0.5	0.2	0.01725	0.00109
303.15	0.5998	0.1601	0.02262	0.00142
303.15	0.7003	0.1199	0.02923	0.00183
303.15	0.7987	0.0805	0.03658	0.00228
303.15	0.9	0.04	0.04551	0.00284
303.15	0.0999	0.45	0.00564	0.00038
303.15	0.2001	0.3999	0.00814	0.00054
303.15	0.3001	0.3499	0.01122	0.00073
303.15	0.3998	0.3001	0.01517	0.00097
303.15	0.5	0.25	0.01964	0.00124
303.15	0.5998	0.2001	0.02491	0.00157
303.15	0.6991	0.1504	0.03116	0.00195
303.15	0.7993	0.1004	0.03829	0.0024
303.15	0.8997	0.0501	0.04626	0.00289
303.15	0.1	0.54	0.00758	0.0005
303.15	0.2002	0.4799	0.01062	0.00068
303.15	0.3	0.42	0.01398	0.00089
303.15	0.3998	0.3601	0.01797	0.00114
303.15	0.5001	0.3	0.02235	0.00141
303.15	0.6	0.24	0.02755	0.00173
303.15	0.7003	0.1798	0.03327	0.00206
303.15	0.8001	0.12	0.03972	0.00249
303.15	0.8998	0.0601	0.04689	0.00291
303.15	0.0999	0.6301	0.01005	0.00064
303.15	0.1999	0.5601	0.01292	0.00082
303.15	0.2999	0.4901	0.01656	0.00105
303.15	0.3997	0.4202	0.02074	0.00131
303.15	0.5	0.35	0.02553	0.00159
303.15	0.6002	0.2799	0.03062	0.0019
303.15	0.6995	0.2103	0.03602	0.00227
303.15	0.7965	0.1425	0.04166	0.00262
303.15	0.8912	0.0762	0.0471	0.00379
303.15	0.1001	0.7199	0.01189	0.00075
303.15	0.2003	0.6397	0.01523	0.00095
303.15	0.2999	0.5601	0.01923	0.00121
303.15	0.4	0.48	0.02362	0.00148
303.15	0.4998	0.4001	0.02799	0.00175
303.15	0.5997	0.3202	0.03298	0.00207
303.15	0.6998	0.2402	0.03805	0.00238
303.15	0.7994	0.1605	0.04303	0.00268
303.15	0.9004	0.0797	0.04832	0.00383
303.15	0.1001	0.8112	0.01396	0.00089
303.15	0.2	0.7211	0.01729	0.00112
303.15	0.3001	0.6309	0.02101	0.00136
303.15	0.4	0.5408	0.02515	0.00163
303.15	0.4995	0.4512	0.02974	0.00195
303.15	0.6001	0.3605	0.03447	0.00224
303.15	0.6998	0.2706	0.03932	0.00264
303.15	0.8004	0.1799	0.04397	0.00315
303.15	0.9001	0.09	0.04889	0.00436
313.15	0.1001	0.09	0.00163	0.0001
313.15	0.2	0.08	0.00236	0.00015
313.15	0.3	0.07	0.0035	0.00022
313.15	0.4002	0.06	0.00514	0.00033
313.15	0.4999	0.05	0.00737	0.00047
313.15	0.6	0.04	0.01029	0.00065
313.15	0.6996	0.03	0.01399	0.00087
313.15	0.8003	0.02	0.01906	0.00118
313.15	0.8998	0.01	0.0254	0.00181
313.15	0.1001	0.18	0.00203	0.00013
313.15	0.2	0.16	0.003	0.0002
313.15	0.2998	0.14	0.00455	0.0003
313.15	0.3999	0.12	0.00645	0.00041
313.15	0.4996	0.1001	0.00906	0.00058
313.15	0.5996	0.0801	0.01218	0.00077
313.15	0.7001	0.06	0.01614	0.00102
313.15	0.8	0.04	0.0207	0.00131
313.15	0.9001	0.02	0.02582	0.00161
313.15	0.1002	0.2699	0.00263	0.00017
313.15	0.2001	0.24	0.00395	0.00026
313.15	0.3	0.21	0.00553	0.00036
313.15	0.4001	0.18	0.00762	0.00049
313.15	0.4996	0.1501	0.01013	0.00064
313.15	0.5999	0.12	0.01357	0.00085
313.15	0.6998	0.0901	0.01737	0.00108
313.15	0.7996	0.0601	0.0218	0.00135
313.15	0.8994	0.0302	0.02616	0.00162
313.15	0.0999	0.3601	0.00313	0.00021
313.15	0.2003	0.3199	0.00479	0.00032
313.15	0.3	0.28	0.00658	0.00043
313.15	0.4001	0.24	0.0089	0.00057
313.15	0.5	0.2	0.01158	0.00073
313.15	0.5998	0.1601	0.01483	0.00093
313.15	0.7003	0.1199	0.0186	0.00115
313.15	0.7987	0.0805	0.02248	0.00139
313.15	0.9	0.04	0.02661	0.00165
313.15	0.0999	0.45	0.00434	0.00029
313.15	0.2001	0.3999	0.00592	0.00039
313.15	0.3001	0.3499	0.00808	0.00052
313.15	0.3998	0.3001	0.01051	0.00067
313.15	0.5	0.25	0.0133	0.00084
313.15	0.5998	0.2001	0.01644	0.00103
313.15	0.6991	0.1504	0.01968	0.00122
313.15	0.7993	0.1004	0.02328	0.00144
313.15	0.8997	0.0501	0.02699	0.00167
313.15	0.1	0.54	0.00535	0.00035
313.15	0.2002	0.4799	0.0075	0.00048
313.15	0.3	0.42	0.00984	0.00062
313.15	0.3998	0.3601	0.01237	0.00077
313.15	0.5001	0.3	0.01508	0.00094
313.15	0.6	0.24	0.01797	0.00111
313.15	0.7003	0.1798	0.02099	0.00129
313.15	0.8001	0.12	0.02405	0.00149
313.15	0.8998	0.0601	0.02741	0.00169
313.15	0.0999	0.6301	0.00665	0.00042
313.15	0.1999	0.5601	0.00884	0.00056
313.15	0.2999	0.4901	0.01111	0.00069
313.15	0.3997	0.4202	0.01363	0.00085
313.15	0.5	0.35	0.0163	0.00101
313.15	0.6002	0.2799	0.01904	0.00117
313.15	0.6995	0.2103	0.022	0.00136
313.15	0.7965	0.1425	0.02486	0.00155
313.15	0.8912	0.0762	0.02799	0.00205
313.15	0.1001	0.7199	0.00796	0.0005
313.15	0.2003	0.6397	0.01015	0.00063
313.15	0.2999	0.5601	0.01249	0.00078
313.15	0.4	0.48	0.01494	0.00093
313.15	0.4998	0.4001	0.0175	0.00108
313.15	0.5997	0.3202	0.02027	0.00125
313.15	0.6998	0.2402	0.02291	0.00142
313.15	0.7994	0.1605	0.02577	0.00159
313.15	0.9004	0.0797	0.02873	0.00211
313.15	0.1001	0.8112	0.0094	0.00059
313.15	0.2	0.7211	0.01157	0.00073
313.15	0.3001	0.6309	0.01392	0.00087
313.15	0.4	0.5408	0.01624	0.00102
313.15	0.4995	0.4512	0.01874	0.00118
313.15	0.6001	0.3605	0.02137	0.00135
313.15	0.6998	0.2706	0.02404	0.00156
313.15	0.8004	0.1799	0.02669	0.00179
313.15	0.9001	0.09	0.02949	0.0023
323.15	0.1001	0.09	0.00131	9e-05
323.15	0.2	0.08	0.00204	0.00013
323.15	0.3	0.07	0.00276	0.00017
323.15	0.4002	0.06	0.00389	0.00024
323.15	0.4999	0.05	0.00548	0.00034
323.15	0.6	0.04	0.00761	0.00047
323.15	0.6996	0.03	0.01023	0.00064
323.15	0.8003	0.02	0.01337	0.00082
323.15	0.8998	0.01	0.01653	0.00102
323.15	0.1001	0.18	0.00162	0.0001
323.15	0.2	0.16	0.00238	0.00015
323.15	0.2998	0.14	0.0033	0.00021
323.15	0.3999	0.12	0.00458	0.00029
323.15	0.4996	0.1001	0.00625	0.0004
323.15	0.5996	0.0801	0.00836	0.00053
323.15	0.7001	0.06	0.01096	0.00068
323.15	0.8	0.04	0.01379	0.00085
323.15	0.9001	0.02	0.01686	0.00104
323.15	0.1002	0.2699	0.00199	0.00013
323.15	0.2001	0.24	0.00271	0.00018
323.15	0.3	0.21	0.00386	0.00025
323.15	0.4001	0.18	0.00535	0.00034
323.15	0.4996	0.1501	0.0071	0.00045
323.15	0.5999	0.12	0.00916	0.00057
323.15	0.6998	0.0901	0.01159	0.00072
323.15	0.7996	0.0601	0.01431	0.00088
323.15	0.8994	0.0302	0.0172	0.00106
323.15	0.0999	0.3601	0.00233	0.00015
323.15	0.2003	0.3199	0.00336	0.00022
323.15	0.3	0.28	0.00472	0.0003
323.15	0.4001	0.24	0.00629	0.0004
323.15	0.5	0.2	0.0082	0.00051
323.15	0.5998	0.1601	0.01018	0.00063
323.15	0.7003	0.1199	0.01236	0.00077
323.15	0.7987	0.0805	0.01474	0.00091
323.15	0.9	0.04	0.01748	0.00107
323.15	0.0999	0.45	0.00304	0.0002
323.15	0.2001	0.3999	0.00415	0.00027
323.15	0.3001	0.3499	0.00562	0.00036
323.15	0.3998	0.3001	0.00719	0.00045
323.15	0.5	0.25	0.00899	0.00056
323.15	0.5998	0.2001	0.01088	0.00067
323.15	0.6991	0.1504	0.013	0.0008
323.15	0.7993	0.1004	0.01529	0.00094
323.15	0.8997	0.0501	0.01768	0.00109
323.15	0.1	0.54	0.00392	0.00025
323.15	0.2002	0.4799	0.0052	0.00033
323.15	0.3	0.42	0.00668	0.00042
323.15	0.3998	0.3601	0.00827	0.00051
323.15	0.5001	0.3	0.01003	0.00062
323.15	0.6	0.24	0.01184	0.00073
323.15	0.7003	0.1798	0.01381	0.00085
323.15	0.8001	0.12	0.01591	0.00098
323.15	0.8998	0.0601	0.01801	0.00111
323.15	0.0999	0.6301	0.00463	0.00029
323.15	0.1999	0.5601	0.00601	0.00038
323.15	0.2999	0.4901	0.0074	0.00046
323.15	0.3997	0.4202	0.00895	0.00055
323.15	0.5	0.35	0.01068	0.00066
323.15	0.6002	0.2799	0.01244	0.00077
323.15	0.6995	0.2103	0.01435	0.00088
323.15	0.7965	0.1425	0.01616	0.00099
323.15	0.8912	0.0762	0.01817	0.00111
323.15	0.1001	0.7199	0.00544	0.00034
323.15	0.2003	0.6397	0.00678	0.00042
323.15	0.2999	0.5601	0.00825	0.00051
323.15	0.4	0.48	0.00975	0.0006
323.15	0.4998	0.4001	0.01141	0.0007
323.15	0.5997	0.3202	0.01311	0.0008
323.15	0.6998	0.2402	0.01494	0.00092
323.15	0.7994	0.1605	0.01669	0.00102
323.15	0.9004	0.0797	0.01855	0.00113
323.15	0.1001	0.8112	0.00616	0.00038
323.15	0.2	0.7211	0.00752	0.00046
323.15	0.3001	0.6309	0.00897	0.00055
323.15	0.4	0.5408	0.01047	0.00064
323.15	0.4995	0.4512	0.01206	0.00074
323.15	0.6001	0.3605	0.01364	0.00084
323.15	0.6998	0.2706	0.01537	0.00094
323.15	0.8004	0.1799	0.01708	0.00105
323.15	0.9001	0.09	0.01878	0.00115
