Measured thermophysical data. Thermodynamic studies on the interactions of diglycine with magnesium chloride in aqueous medium at different temperatures
Source: J. Chem. Thermodyn., 2006, 10.1016/j.jct.2006.03.022
Compound 1: glycylglycine, C4H8N2O3, InChI=1S/C4H8N2O3/c5-1-3(7)6-2-4(8)9/h1-2,5H2,(H,6,7)(H,8,9)
Compound 2: water, H2O, InChI=1S/H2O/h1H2
Compound 3: magnesium chloride, Cl2Mg, InChI=1S/2ClH.Mg/h2*1H;/q;;+2/p-2, purity 98%

System: glycylglycine + water; phases: Liquid
Fixed: Pressure, kPa = 101
Property: Viscosity, Pa*s (Liquid); method: Capillary tube (Ostwald; Ubbelohde) method
Temperature, K	Molality, mol/kg of glycylglycine	Viscosity, Pa*s	uncertainty
288.15	0.05137	1.017	0.004
288.15	0.09981	1.034	0.004
288.15	0.19512	1.065	0.005
288.15	0.29293	1.099	0.005
288.15	0.36698	1.125	0.005
288.15	0.47468	1.163	0.005
298.15	0.05126	1.017	0.004
298.15	0.09958	1.031	0.004
298.15	0.19465	1.061	0.005
298.15	0.29219	1.094	0.005
298.15	0.36605	1.119	0.005
298.15	0.47349	1.151	0.005
308.15	0.05063	1.016	0.004
308.15	0.09406	1.03	0.004
308.15	0.19397	1.057	0.005
308.15	0.28785	1.086	0.005
308.15	0.38756	1.112	0.005
308.15	0.47665	1.139	0.005

System: glycylglycine + water; phases: Liquid
Fixed: Pressure, kPa = 101
Property: Mass density, kg/m3 (Liquid); method: VIBTUB:UFactor:16
Temperature, K	Molality, mol/kg of glycylglycine	Mass density, kg/m3	uncertainty
288.15	0.04995	1001.923	0.521
288.15	0.10035	1004.74	0.54
288.15	0.19898	1010.165	0.583
288.15	0.29966	1015.579	0.625
288.15	0.40028	1020.873	0.668
288.15	0.50131	1026.067	0.712
298.15	0.04989	999.82	0.51
298.15	0.10035	1002.592	0.528
298.15	0.19892	1007.894	0.568
298.15	0.29977	1013.199	0.61
298.15	0.3984	1018.275	0.651
298.15	0.49948	1023.343	0.694
308.15	0.04961	996.748	0.529
308.15	0.10096	999.518	0.515
308.15	0.20027	1004.768	0.549
308.15	0.29604	1009.706	0.588
308.15	0.40043	1015.361	0.633
308.15	0.49861	1019.767	0.671

System: glycylglycine + water + magnesium chloride; phases: Liquid
Fixed: Pressure, kPa = 101
Property: Molar heat capacity at constant pressure, J/K/mol (Liquid); method: Large sample (1 g) DSC
Temperature, K	Solvent: Molality, mol/kg of magnesium chloride	Molality, mol/kg of glycylglycine	Molar heat capacity at constant pressure, J/K/mol	uncertainty
298.15	0.04991	0.05125	75.08923	1.5025
298.15	0.04991	0.1042	75.14895	1.5024
298.15	0.04991	0.20195	75.26555	1.5059
298.15	0.04991	0.30309	75.40496	1.5077
298.15	0.04991	0.41631	75.5652	1.5112
298.15	0.10047	0.05091	74.80385	1.4955
298.15	0.10047	0.10043	74.82396	1.4965
298.15	0.10047	0.19926	74.87106	1.4982
298.15	0.10047	0.29211	74.94495	1.4986
298.15	0.10047	0.38056	75.03674	1.5017
298.15	0.10047	0.49786	75.31019	1.5053
298.15	0.29154	0.04996	73.79431	1.4763
298.15	0.29154	0.09954	73.85291	1.4771
298.15	0.29154	0.19864	73.99139	1.4803
298.15	0.29154	0.29701	74.14424	1.483
298.15	0.29154	0.39001	74.28176	1.4864
298.15	0.29154	0.49728	74.45864	1.4899
298.15	0.49367	0.05046	73.47332	1.4704
298.15	0.49367	0.09805	73.5471	1.4707
298.15	0.49367	0.1938	73.72522	1.4749
298.15	0.49367	0.29979	73.95449	1.4786
298.15	0.49367	0.50319	74.41096	1.4874
303.15	0.049912	0.05125	75.08742	1.5025
303.15	0.049912	0.1042	75.15262	1.5024
303.15	0.049912	0.20195	75.30071	1.5059
303.15	0.049912	0.30309	75.46858	1.5096
303.15	0.049912	0.41631	75.66368	1.513
303.15	0.10047	0.05091	74.80385	1.4955
303.15	0.10047	0.10043	74.85151	1.4965
303.15	0.10047	0.19926	74.96018	1.5001
303.15	0.10047	0.29211	75.07999	1.5024
303.15	0.10047	0.38056	75.19391	1.5036
303.15	0.10047	0.49786	75.4751	1.5091
303.15	0.29154	0.04996	73.81098	1.4763
303.15	0.29154	0.09954	73.87527	1.4771
303.15	0.29154	0.19864	74.02152	1.4803
303.15	0.29154	0.29701	74.19373	1.483
303.15	0.29154	0.39001	74.36637	1.4864
303.15	0.29154	0.49728	74.58313	1.4919
303.15	0.49367	0.05046	73.52032	1.4704
303.15	0.49367	0.09805	73.58868	1.4726
303.15	0.49367	0.1938	73.7577	1.4749
303.15	0.49367	0.29979	73.95449	1.4786
303.15	0.49367	0.50319	74.42676	1.4894
308.15	0.049912	0.05125	75.09469	1.5025
308.15	0.049912	0.1042	75.17275	1.5042
308.15	0.049912	0.20195	75.33031	1.5059
308.15	0.049912	0.30309	75.51721	1.5096
308.15	0.049912	0.41631	75.7186	1.5149
308.15	0.10047	0.05091	74.81298	1.4955
308.15	0.10047	0.10043	74.87354	1.4984
308.15	0.10047	0.19926	75.00288	1.5001
308.15	0.10047	0.29211	75.14563	1.5024
308.15	0.10047	0.38056	75.30943	1.5055
308.15	0.10047	0.49786	75.55755	1.511
308.15	0.29154	0.04996	73.87211	1.4781
308.15	0.29154	0.09954	73.94977	1.479
308.15	0.29154	0.19864	74.11757	1.4822
308.15	0.29154	0.29701	74.29844	1.4868
308.15	0.29154	0.39001	74.49136	1.4903
308.15	0.29154	0.49728	74.6901	1.4938
308.15	0.49367	0.05046	73.63126	1.4722
308.15	0.49367	0.09805	73.72101	1.4745
308.15	0.49367	0.1938	73.93347	1.4787
308.15	0.49367	0.29979	74.19608	1.4844
308.15	0.49367	0.50319	74.68947	1.4933
313.15	0.049912	0.05125	75.11107	1.5025
313.15	0.049912	0.1042	75.20569	1.5042
313.15	0.049912	0.20195	75.39691	1.5077
313.15	0.049912	0.30309	75.59578	1.5115
313.15	0.049912	0.41631	75.81517	1.5168
313.15	0.10047	0.05091	74.83855	1.4973
313.15	0.10047	0.10043	74.91577	1.4984
313.15	0.10047	0.19926	75.08828	1.502
313.15	0.10047	0.29211	75.29193	1.5061
313.15	0.10047	0.38056	75.51584	1.5111
313.15	0.10047	0.49786	75.83368	1.5168
313.15	0.29154	0.04996	73.87026	1.4781
313.15	0.29154	0.09954	73.95909	1.479
313.15	0.29154	0.19864	74.1364	1.4822
313.15	0.29154	0.29701	74.35555	1.4868
313.15	0.29154	0.39001	74.55674	1.4903
313.15	0.29154	0.49728	74.80875	1.4957
313.15	0.49367	0.05046	73.69895	1.4741
313.15	0.49367	0.09805	73.8004	1.4763
313.15	0.49367	0.1938	74.02326	1.4807
313.15	0.49367	0.29979	74.29852	1.4863
313.15	0.49367	0.50319	74.85342	1.4973
318.15	0.049912	0.05125	75.13108	1.5025
318.15	0.049912	0.1042	75.22582	1.5042
318.15	0.049912	0.20195	75.40616	1.5077
318.15	0.049912	0.30309	75.61449	1.5115
318.15	0.049912	0.41631	75.85305	1.5168
318.15	0.10047	0.05091	74.8495	1.4973
318.15	0.10047	0.10043	74.92863	1.4984
318.15	0.10047	0.19926	75.09014	1.502
318.15	0.10047	0.29211	75.24879	1.5042
318.15	0.10047	0.38056	75.41358	1.5074
318.15	0.10047	0.49786	75.70328	1.5149
318.15	0.29154	0.04996	73.81839	1.4763
318.15	0.29154	0.09954	73.90321	1.479
318.15	0.29154	0.19864	74.10251	1.4822
318.15	0.29154	0.29701	74.32509	1.4868
318.15	0.29154	0.39001	74.56635	1.4922
318.15	0.29154	0.49728	74.96436	1.4996
318.15	0.49367	0.05046	73.71963	1.4741
318.15	0.49367	0.09805	73.81174	1.4763
318.15	0.49367	0.1938	74.01371	1.4807
318.15	0.49367	0.29979	74.2676	1.4863
318.15	0.49367	0.50319	74.90873	1.4973
323.15	0.049912	0.05125	75.17109	1.5043
323.15	0.049912	0.1042	75.27706	1.506
323.15	0.049912	0.20195	75.47831	1.5096
323.15	0.049912	0.30309	75.69679	1.5133
323.15	0.049912	0.41631	75.95152	1.5187
323.15	0.10047	0.05091	74.8988	1.4973
323.15	0.10047	0.10043	74.99473	1.5002
323.15	0.10047	0.19926	75.19967	1.5038
323.15	0.10047	0.29211	75.40072	1.508
323.15	0.10047	0.38056	75.61242	1.513
323.15	0.10047	0.49786	75.90271	1.5187
323.15	0.29154	0.04996	73.81283	1.4763
323.15	0.29154	0.09954	73.90693	1.479
323.15	0.29154	0.19864	74.10062	1.4822
323.15	0.29154	0.29701	74.31557	1.4868
323.15	0.29154	0.39001	74.55482	1.4903
323.15	0.29154	0.49728	74.95269	1.4996
323.15	0.49367	0.05046	73.78356	1.476
323.15	0.49367	0.09805	73.88358	1.4782
323.15	0.49367	0.1938	74.09013	1.4826
323.15	0.49367	0.29979	74.36037	1.4863
323.15	0.49367	0.50319	75.04107	1.5012
328.15	0.049912	0.05125	75.19474	1.5043
328.15	0.049912	0.1042	75.30817	1.506
328.15	0.049912	0.20195	75.52086	1.5096
328.15	0.049912	0.30309	75.74356	1.5152
328.15	0.049912	0.41631	76.0159	1.5206
328.15	0.10047	0.05091	74.92985	1.4991
328.15	0.10047	0.10043	75.04064	1.5002
328.15	0.10047	0.19926	75.26836	1.5057
328.15	0.10047	0.29211	75.53388	1.5099
328.15	0.10047	0.38056	75.79421	1.5168
328.15	0.10047	0.49786	76.21144	1.5245
328.15	0.29154	0.04996	73.87211	1.4781
328.15	0.29154	0.09954	73.98144	1.479
328.15	0.29154	0.19864	74.22304	1.484
328.15	0.29154	0.29701	74.49452	1.4906
328.15	0.29154	0.39001	74.76634	1.4961
328.15	0.29154	0.49728	75.17053	1.5035
328.15	0.49367	0.05046	73.83245	1.476
328.15	0.49367	0.09805	73.94596	1.4782
328.15	0.49367	0.1938	74.20285	1.4845
328.15	0.49367	0.29979	74.50147	1.4902
328.15	0.49367	0.50319	75.13194	1.5032

System: glycylglycine + water + magnesium chloride; phases: Liquid
Fixed: Pressure, kPa = 101
Property: Viscosity, Pa*s (Liquid); method: Capillary tube (Ostwald; Ubbelohde) method
Temperature, K	Molality, mol/kg of glycylglycine	Solvent: Molality, mol/kg of magnesium chloride	Viscosity, Pa*s	uncertainty
288.15	0.05028	0.05017	0.0011861	1.78e-05
288.15	0.05074	0.30192	0.0013048	1.95e-05
288.15	0.05335	0.10028	0.0012129	1.82e-05
288.15	0.05434	0.50533	0.0014131	2.11e-05
288.15	0.05534	0.71001	0.0015192	2.25e-05
288.15	0.10012	0.30192	0.0013317	1.99e-05
288.15	0.10207	0.05017	0.0012117	1.81e-05
288.15	0.10238	0.50533	0.001438	2.14e-05
288.15	0.10251	0.71001	0.0015489	2.3e-05
288.15	0.12488	0.10028	0.0012474	1.87e-05
288.15	0.19305	0.30192	0.0013751	2.06e-05
288.15	0.19954	0.05017	0.001249	1.87e-05
288.15	0.20131	0.10028	0.0012807	1.92e-05
288.15	0.20281	0.50533	0.0015003	2.24e-05
288.15	0.20806	0.71001	0.0016157	2.4e-05
288.15	0.28828	0.10028	0.0013175	1.97e-05
288.15	0.29101	0.05017	0.0012885	1.93e-05
288.15	0.2917	0.30192	0.0014262	2.13e-05
288.15	0.29547	0.71001	0.0016899	2.51e-05
288.15	0.30588	0.50533	0.0015653	2.34e-05
288.15	0.38241	0.05017	0.0013293	1.99e-05
288.15	0.39094	0.30192	0.0014838	2.22e-05
288.15	0.39115	0.10028	0.0013769	2.06e-05
288.15	0.39723	0.50533	0.001611	2.41e-05
288.15	0.3982	0.71001	0.0017419	2.59e-05
288.15	0.477	0.05017	0.0013712	2.05e-05
288.15	0.48292	0.10028	0.0014185	2.12e-05
288.15	0.48376	0.50533	0.001665	2.49e-05
288.15	0.48398	0.71001	0.0018043	2.68e-05
288.15	0.488	0.30192	0.001531	2.29e-05
298.15	0.0484	0.50679	0.0010994	1.66e-05
298.15	0.05014	0.05027	0.0009263	1.41e-05
298.15	0.05147	0.30247	0.0010211	1.55e-05
298.15	0.05325	0.10048	0.0009434	1.43e-05
298.15	0.0552	0.71191	0.0011934	1.8e-05
298.15	0.09879	0.30247	0.0010381	1.57e-05
298.15	0.10186	0.05027	0.00094	1.43e-05
298.15	0.1021	0.50679	0.0011221	1.7e-05
298.15	0.10225	0.71191	0.0012156	1.83e-05
298.15	0.12463	0.10048	0.0009666	1.47e-05
298.15	0.19914	0.05027	0.0009728	1.48e-05
298.15	0.19936	0.30247	0.0010722	1.63e-05
298.15	0.20091	0.10048	0.0009907	1.51e-05
298.15	0.20188	0.50679	0.0011621	1.76e-05
298.15	0.20755	0.71191	0.0012601	1.9e-05
298.15	0.28768	0.10048	0.0010222	1.55e-05
298.15	0.29042	0.05027	0.0010001	1.52e-05
298.15	0.29474	0.71191	0.001301	1.97e-05
298.15	0.29764	0.30247	0.0011093	1.68e-05
298.15	0.30501	0.50679	0.0011999	1.82e-05
298.15	0.38162	0.05027	0.0010302	1.57e-05
298.15	0.38674	0.30247	0.0011404	1.73e-05
298.15	0.39026	0.10048	0.0010528	1.61e-05
298.15	0.39608	0.50679	0.0012355	1.88e-05
298.15	0.3972	0.71191	0.0013537	2.05e-05
298.15	0.4726	0.30247	0.0011725	1.78e-05
298.15	0.47598	0.05027	0.0010585	1.61e-05
298.15	0.48174	0.10048	0.0010825	1.65e-05
298.15	0.48235	0.50679	0.0012722	1.93e-05
298.15	0.48274	0.71191	0.0013876	2.1e-05
308.15	0.04933	0.50852	0.0008853	1.35e-05
308.15	0.05016	0.0504	0.0007485	1.15e-05
308.15	0.0513	0.30353	0.0008248	1.26e-05
308.15	0.05297	0.71516	0.0009541	1.46e-05
308.15	0.0549	0.10081	0.0007634	1.17e-05
308.15	0.09845	0.30353	0.000837	1.28e-05
308.15	0.09952	0.0504	0.0007573	1.16e-05
308.15	0.10067	0.71516	0.000972	1.49e-05
308.15	0.10329	0.50852	0.0008992	1.37e-05
308.15	0.10779	0.10081	0.0007731	1.19e-05
308.15	0.18696	0.0504	0.0007787	1.2e-05
308.15	0.19428	0.10081	0.0007896	1.21e-05
308.15	0.19867	0.30353	0.000858	1.32e-05
308.15	0.1996	0.50852	0.0009219	1.41e-05
308.15	0.20407	0.71516	0.0010001	1.53e-05
308.15	0.286	0.10081	0.0008136	1.25e-05
308.15	0.2898	0.0504	0.0007993	1.23e-05
308.15	0.29663	0.30353	0.0008807	1.35e-05
308.15	0.31004	0.50852	0.0009541	1.46e-05
308.15	0.3138	0.71516	0.0010311	1.58e-05
308.15	0.37635	0.0504	0.0008177	1.26e-05
308.15	0.38544	0.30353	0.0009026	1.39e-05
308.15	0.39181	0.71516	0.0010574	1.63e-05
308.15	0.3951	0.10081	0.0008346	1.29e-05
308.15	0.39814	0.50852	0.0009741	1.5e-05
308.15	0.47105	0.30353	0.0009245	1.43e-05
308.15	0.47512	0.50852	0.0009967	1.53e-05
308.15	0.48031	0.71516	0.0010855	1.67e-05
308.15	0.48156	0.10081	0.0008534	1.32e-05
308.15	0.49248	0.0504	0.0008391	1.3e-05

System: glycylglycine + water + magnesium chloride; phases: Liquid
Fixed: Pressure, kPa = 101
Property: Mass density, kg/m3 (Liquid); method: Vibrating tube method
Temperature, K	Molality, mol/kg of glycylglycine	Solvent: Molality, mol/kg of magnesium chloride	Mass density, kg/m3	uncertainty
288.15	0.04706	0.71015	1054.89	1.75
288.15	0.04991	0.30193	1024.933	1.642
288.15	0.04992	0.50524	1039.984	1.696
288.15	0.05018	0.05027	1005.787	1.573
288.15	0.05033	0.10052	1009.675	1.587
288.15	0.09553	0.71015	1057.354	1.76
288.15	0.09768	0.50524	1042.499	1.705
288.15	0.09909	0.30193	1027.567	1.651
288.15	0.09942	0.10052	1012.332	1.596
288.15	0.10056	0.05027	1008.529	1.583
288.15	0.19226	0.71015	1062.213	1.778
288.15	0.19867	0.30193	1032.839	1.67
288.15	0.19911	0.10052	1017.655	1.615
288.15	0.20061	0.50524	1047.831	1.725
288.15	0.20133	0.05027	1013.931	1.602
288.15	0.28888	0.71015	1066.951	1.795
288.15	0.29416	0.50524	1052.572	1.742
288.15	0.29953	0.05027	1019.083	1.62
288.15	0.29975	0.10052	1022.934	1.634
288.15	0.29997	0.30193	1038.105	1.689
288.15	0.39303	0.50524	1057.372	1.76
288.15	0.39695	0.05027	1024.075	1.638
288.15	0.39864	0.30193	1043.073	1.707
288.15	0.39881	0.10052	1027.991	1.652
288.15	0.39941	0.71015	1072.211	1.815
288.15	0.48061	0.71015	1076.021	1.829
288.15	0.49377	0.50524	1062.082	1.777
288.15	0.49556	0.05027	1029.043	1.656
288.15	0.49672	0.30193	1047.883	1.725
288.15	0.5005	0.10052	1033.081	1.671
298.15	0.04593	0.30264	1022.435	1.633
298.15	0.04802	0.71047	1052.303	1.741
298.15	0.0495	0.10062	1007.638	1.58
298.15	0.05073	0.50511	1037.167	1.686
298.15	0.05111	0.05022	1003.805	1.566
298.15	0.09587	0.71047	1054.731	1.75
298.15	0.09785	0.50511	1039.619	1.695
298.15	0.09815	0.10062	1010.252	1.589
298.15	0.09916	0.05022	1006.409	1.575
298.15	0.09977	0.30264	1025.293	1.643
298.15	0.19229	0.71047	1059.557	1.768
298.15	0.19556	0.10062	1015.397	1.607
298.15	0.19653	0.30264	1030.351	1.661
298.15	0.20074	0.05022	1011.832	1.595
298.15	0.20688	0.50511	1045.201	1.715
298.15	0.27611	0.71047	1063.686	1.783
298.15	0.29722	0.05022	1016.89	1.61
298.15	0.29899	0.10062	1020.734	1.626
298.15	0.3056	0.30264	1035.891	1.681
298.15	0.30793	0.50511	1050.23	1.73
298.15	0.38544	0.71047	1068.899	1.803
298.15	0.38722	0.30264	1039.839	1.695
298.15	0.39516	0.05022	1021.876	1.63
298.15	0.39571	0.10062	1025.531	1.644
298.15	0.41775	0.50511	1055.439	1.753
298.15	0.46534	0.10062	1028.867	1.656
298.15	0.48275	0.71047	1073.289	1.819
298.15	0.49698	0.50511	1059.141	1.766
298.15	0.49919	0.05022	1027.05	1.65
298.15	0.50357	0.30264	1045.314	1.715
308.15	0.04754	1.045515	1047.919	2.312
308.15	0.04869	1.031028	1033.561	2.273
308.15	0.05073	1.016512	1019.205	2.237
308.15	0.05111	1.00201	1004.762	2.2
308.15	0.05978	0.997976	1001.207	2.19
308.15	0.09785	1.016512	1021.688	2.238
308.15	0.09929	1.045515	1050.518	2.314
308.15	0.10046	1.031028	1036.234	2.278
308.15	0.10196	1.00201	1007.47	2.2
308.15	0.10783	0.997976	1003.679	2.191
308.15	0.20091	1.00201	1012.67	2.21
308.15	0.20453	1.031028	1041.531	2.281
308.15	0.20688	1.016512	1027.339	2.253
308.15	0.21623	1.045515	1056.294	2.325
308.15	0.21734	0.997976	1009.532	2.2
308.15	0.29894	1.00201	1017.714	2.21
308.15	0.30692	1.031028	1046.625	2.282
308.15	0.30781	1.045515	1060.707	2.322
308.15	0.30793	1.016512	1032.469	2.242
308.15	0.34562	0.997976	1016.552	1.705
308.15	0.38627	1.031028	1050.484	2.303
308.15	0.39962	1.00201	1022.712	2.229
308.15	0.40452	0.997976	1019.011	2.22
308.15	0.41775	1.016512	1037.867	1.742
308.15	0.46782	1.045515	1068.197	2.35
308.15	0.48908	1.031028	1055.392	2.314
308.15	0.49088	0.997976	1023.214	2.225
308.15	0.49698	1.016512	1041.631	2.279
308.15	0.49783	1.00201	1027.474	2.238
308.15	0.51343	1.045515	1070.295	2.35
