Measured thermophysical data. Thermodynamic studies on CsF/RbF in N,N-dimethylformamide/N, N-dimethylacetamide + H2O mixtures at T = 298.15 K
Source: J. Chem. Thermodyn., 2014, 10.1016/j.jct.2014.05.003
Compound 1: dimethylformamide, C3H7NO, InChI=1S/C3H7NO/c1-4(2)3-5/h3H,1-2H3, purity 99.5%
Compound 2: water, H2O, InChI=1S/H2O/h1H2
Compound 3: N,N-dimethylethanamide, C4H9NO, InChI=1S/C4H9NO/c1-4(6)5(2)3/h1-3H3, purity 99.5%
Compound 4: cesium fluoride (CsF), CsF, InChI=1S/Cs.FH/h;1H/q+1;/p-1, purity 99.5%
Compound 5: rubidium fluoride (RbF), FRb, InChI=1S/FH.Rb/h1H;/q;+1/p-1, purity 99.5%

System: dimethylformamide + water; phases: Liquid
Fixed: Pressure, kPa = 100
Fixed: Temperature, K = 298.15
Property: Mass density, kg/m3 (Liquid); method: Vibrating tube method
Mass fraction of dimethylformamide	Mass density, kg/m3	uncertainty
0.1	996.3	1
0.2	996.4	1
0.3	996.9	1

System: dimethylformamide + water; phases: Liquid
Fixed: Pressure, kPa = 100
Fixed: Temperature, K = 298.15
Property: Relative permittivity at zero frequency (Liquid); method: Coaxial cylinder capacitor
Mass fraction of dimethylformamide	Relative permittivity at zero frequency	uncertainty
0.1	76.8	0.2
0.2	74.6	0.2
0.3	72.2	0.2

System: N,N-dimethylethanamide + water; phases: Liquid
Fixed: Pressure, kPa = 100
Fixed: Temperature, K = 298.15
Property: Mass density, kg/m3 (Liquid); method: Vibrating tube method
Mass fraction of N,N-dimethylethanamide	Mass density, kg/m3	uncertainty
0.1	995.7	1
0.2	996.2	1
0.3	997.3	1

System: N,N-dimethylethanamide + water; phases: Liquid
Fixed: Pressure, kPa = 100
Fixed: Temperature, K = 298.15
Property: Relative permittivity at zero frequency (Liquid); method: Coaxial cylinder capacitor
Mass fraction of N,N-dimethylethanamide	Relative permittivity at zero frequency	uncertainty
0.1	76.5	0.2
0.2	74.2	0.2
0.3	71.7	0.2

System: dimethylformamide + water + cesium fluoride (CsF); phases: Liquid
Fixed: Pressure, kPa = 100
Fixed: Temperature, K = 298.15
Property: Mean ionic activity coefficient of cesium fluoride (CsF) (Liquid); method: Calculated from EMF cell potential
Solvent: Mass fraction of dimethylformamide	Molality, mol/kg of cesium fluoride (CsF)	Mean ionic activity coefficient of cesium fluoride (CsF)	uncertainty
0	0.0028	0.9436	0.0202
0	0.0053	0.9258	0.0204
0	0.0077	0.9129	0.0205
0	0.0105	0.9011	0.0206
0	0.0136	0.8903	0.0207
0	0.0196	0.8734	0.0209
0	0.0257	0.8599	0.021
0	0.0317	0.8491	0.0211
0	0.0381	0.8392	0.0212
0	0.0488	0.8253	0.0214
0	0.0578	0.8157	0.0215
0	0.0677	0.8066	0.0216
0	0.0834	0.7945	0.0218
0	0.0984	0.7849	0.0219
0	0.1245	0.7715	0.022
0	0.1503	0.7611	0.0221
0	0.1888	0.749	0.0223
0	0.2237	0.7406	0.0224
0	0.2732	0.7316	0.0225
0	0.3185	0.7255	0.0226
0	0.3573	0.7215	0.0226
0	0.4152	0.717	0.0227
0	0.4731	0.7141	0.0227
0	0.526	0.7123	0.0227
0	0.5773	0.7114	0.0227
0.1	0.0045	0.9294	0.0203
0.1	0.0067	0.9163	0.0205
0.1	0.0085	0.9079	0.0205
0.1	0.0143	0.8864	0.0207
0.1	0.0161	0.8808	0.0208
0.1	0.0201	0.8705	0.0209
0.1	0.0243	0.861	0.021
0.1	0.0282	0.8532	0.0211
0.1	0.0321	0.8464	0.0212
0.1	0.0384	0.8365	0.0213
0.1	0.045	0.8275	0.0214
0.1	0.0514	0.8199	0.0215
0.1	0.0641	0.8067	0.0216
0.1	0.0751	0.797	0.0217
0.1	0.0926	0.784	0.0219
0.1	0.1132	0.7712	0.022
0.1	0.14	0.7574	0.0222
0.1	0.1674	0.7456	0.0223
0.1	0.2067	0.7315	0.0225
0.1	0.2426	0.7205	0.0226
0.1	0.3075	0.7039	0.0228
0.1	0.3729	0.6901	0.023
0.1	0.4489	0.6763	0.0232
0.1	0.5103	0.6665	0.0233
0.1	0.5563	0.6597	0.0234
0.2	0.0024	0.9434	0.0203
0.2	0.0045	0.9253	0.0204
0.2	0.0069	0.9103	0.0205
0.2	0.0092	0.8983	0.0206
0.2	0.0116	0.8884	0.0207
0.2	0.0165	0.8714	0.0209
0.2	0.0213	0.8577	0.0211
0.2	0.0259	0.8467	0.0212
0.2	0.0306	0.8371	0.0213
0.2	0.0374	0.8247	0.0214
0.2	0.0442	0.8141	0.0215
0.2	0.0517	0.8039	0.0217
0.2	0.064	0.7894	0.0218
0.2	0.0758	0.7776	0.022
0.2	0.0962	0.7605	0.0222
0.2	0.1162	0.7466	0.0223
0.2	0.148	0.7284	0.0226
0.2	0.1772	0.7147	0.0227
0.2	0.214	0.7001	0.0229
0.2	0.2526	0.6872	0.0231
0.2	0.3006	0.6736	0.0232
0.2	0.3467	0.6624	0.0234
0.2	0.4045	0.6502	0.0235
0.2	0.4604	0.64	0.0236
0.2	0.5191	0.6305	0.0237
0.2	0.5753	0.6223	0.0238
0.3	0.0017	0.949	0.0205
0.3	0.0033	0.9302	0.0204
0.3	0.0077	0.898	0.0207
0.3	0.0094	0.8885	0.0208
0.3	0.0112	0.8797	0.0208
0.3	0.0155	0.8624	0.021
0.3	0.0244	0.8343	0.0213
0.3	0.0298	0.821	0.0215
0.3	0.0333	0.813	0.0216
0.3	0.039	0.8015	0.0217
0.3	0.0448	0.7911	0.0218
0.3	0.0525	0.7788	0.022
0.3	0.063	0.764	0.0221
0.3	0.0729	0.7519	0.0223
0.3	0.0885	0.7354	0.0225
0.3	0.1055	0.72	0.0227
0.3	0.1301	0.7015	0.0229
0.3	0.1561	0.6852	0.0231
0.3	0.1903	0.6674	0.0233
0.3	0.2264	0.6519	0.0235
0.3	0.2618	0.6392	0.0236
0.3	0.2966	0.6284	0.0238
0.3	0.3504	0.6144	0.0239
0.3	0.4081	0.6022	0.0241
0.3	0.4639	0.5924	0.0242
0.3	0.512	0.5853	0.0243
0.3	0.5589	0.5793	0.0243

System: N,N-dimethylethanamide + water + cesium fluoride (CsF); phases: Liquid
Fixed: Pressure, kPa = 100
Fixed: Temperature, K = 298.15
Property: Mean ionic activity coefficient of cesium fluoride (CsF) (Liquid); method: Calculated from EMF cell potential
Solvent: Mass fraction of N,N-dimethylethanamide	Molality, mol/kg of cesium fluoride (CsF)	Mean ionic activity coefficient of cesium fluoride (CsF)	uncertainty
0	0.0024	0.9474	0.0202
0	0.0048	0.9288	0.0204
0	0.0075	0.9142	0.0205
0	0.01	0.9029	0.0206
0	0.0129	0.8926	0.0206
0	0.0187	0.8759	0.0208
0	0.0243	0.8629	0.021
0	0.0303	0.8517	0.0211
0	0.0394	0.8376	0.0213
0	0.048	0.8265	0.0214
0	0.0627	0.8111	0.0216
0	0.0779	0.7985	0.0217
0	0.1025	0.7825	0.0219
0	0.126	0.7705	0.022
0	0.16	0.7569	0.0222
0	0.1955	0.746	0.0223
0	0.2468	0.7341	0.0225
0	0.2968	0.7254	0.0226
0	0.3685	0.7163	0.0227
0	0.4369	0.7102	0.0227
0	0.5011	0.706	0.0228
0	0.5606	0.7031	0.0228
0	0.6205	0.701	0.0228
0.1	0.0012	0.9607	0.0204
0.1	0.0027	0.9426	0.0205
0.1	0.0041	0.9306	0.0204
0.1	0.0073	0.9103	0.0205
0.1	0.0092	0.9012	0.0207
0.1	0.0134	0.8843	0.0208
0.1	0.0181	0.8691	0.0209
0.1	0.024	0.8538	0.0211
0.1	0.0342	0.8329	0.0213
0.1	0.0425	0.8192	0.0215
0.1	0.0584	0.7979	0.0217
0.1	0.0751	0.78	0.0219
0.1	0.0993	0.7594	0.0222
0.1	0.1232	0.743	0.0224
0.1	0.161	0.722	0.0226
0.1	0.1945	0.7069	0.0228
0.1	0.2448	0.6883	0.023
0.1	0.3105	0.6689	0.0233
0.1	0.3772	0.653	0.0235
0.1	0.4479	0.6389	0.0236
0.1	0.5122	0.6279	0.0238
0.1	0.568	0.6194	0.0239
0.1	0.6289	0.6112	0.024
0.2	0.0013	0.9564	0.0204
0.2	0.0027	0.9395	0.0205
0.2	0.0042	0.9263	0.0204
0.2	0.0071	0.9067	0.0206
0.2	0.01	0.8921	0.0207
0.2	0.0137	0.8769	0.0208
0.2	0.0181	0.862	0.021
0.2	0.0237	0.8465	0.0212
0.2	0.032	0.8276	0.0214
0.2	0.0424	0.8087	0.0216
0.2	0.059	0.7849	0.0219
0.2	0.0752	0.7664	0.0221
0.2	0.0991	0.7444	0.0224
0.2	0.1241	0.726	0.0226
0.2	0.1572	0.706	0.0228
0.2	0.1914	0.6891	0.023
0.2	0.2485	0.6664	0.0233
0.2	0.3045	0.6486	0.0235
0.2	0.3708	0.6313	0.0237
0.2	0.441	0.6162	0.0239
0.2	0.51	0.6036	0.024
0.2	0.561	0.5954	0.0241
0.2	0.6254	0.5861	0.0242
0.3	0.002	0.9435	0.0204
0.3	0.0046	0.917	0.0206
0.3	0.0071	0.899	0.0207
0.3	0.0097	0.884	0.0208
0.3	0.0123	0.8717	0.0209
0.3	0.0177	0.8502	0.0212
0.3	0.0237	0.8311	0.0214
0.3	0.029	0.8167	0.0215
0.3	0.0389	0.7944	0.0218
0.3	0.0482	0.777	0.022
0.3	0.0613	0.7563	0.0222
0.3	0.0751	0.7381	0.0224
0.3	0.0975	0.7137	0.0227
0.3	0.1214	0.6925	0.023
0.3	0.1591	0.6657	0.0233
0.3	0.194	0.6458	0.0235
0.3	0.2445	0.6225	0.0238
0.3	0.295	0.6038	0.0241
0.3	0.367	0.5826	0.0243
0.3	0.4387	0.5658	0.0245
0.3	0.5002	0.554	0.0246
0.3	0.5568	0.5447	0.0248
0.3	0.6369	0.5335	0.0249

System: dimethylformamide + water + rubidium fluoride (RbF); phases: Liquid
Fixed: Pressure, kPa = 100
Fixed: Temperature, K = 298.15
Property: Mean ionic activity coefficient of rubidium fluoride (RbF) (Liquid); method: Calculated from EMF cell potential
Solvent: Mass fraction of dimethylformamide	Molality, mol/kg of rubidium fluoride (RbF)	Mean ionic activity coefficient of rubidium fluoride (RbF)	uncertainty
0	0.0035	0.9381	0.0202
0	0.0074	0.9145	0.0205
0	0.0108	0.9	0.0206
0	0.0146	0.8872	0.0207
0	0.0185	0.8763	0.0208
0	0.0264	0.8589	0.021
0	0.0339	0.8457	0.0212
0	0.0415	0.8346	0.0213
0	0.049	0.8253	0.0214
0	0.06	0.8137	0.0215
0	0.0715	0.8035	0.0217
0	0.0832	0.7947	0.0218
0	0.1022	0.7826	0.0219
0	0.1212	0.7727	0.022
0	0.15	0.7606	0.0221
0	0.1795	0.7506	0.0223
0	0.224	0.739	0.0224
0	0.2661	0.7305	0.0225
0	0.3215	0.7219	0.0226
0	0.3786	0.7153	0.0227
0	0.4521	0.7091	0.0227
0	0.5237	0.7048	0.0228
0	0.5992	0.7017	0.0228
0.1	0.0029	0.9416	0.0203
0.1	0.0057	0.9206	0.0204
0.1	0.009	0.9036	0.0206
0.1	0.0123	0.8902	0.0207
0.1	0.0153	0.88	0.0208
0.1	0.0217	0.8623	0.021
0.1	0.0282	0.848	0.0211
0.1	0.0378	0.8307	0.0213
0.1	0.0468	0.8172	0.0215
0.1	0.0585	0.8025	0.0217
0.1	0.0706	0.7897	0.0218
0.1	0.0862	0.7755	0.022
0.1	0.1042	0.7616	0.0221
0.1	0.1282	0.7459	0.0223
0.1	0.1681	0.7245	0.0226
0.1	0.2004	0.7101	0.0228
0.1	0.2471	0.6923	0.023
0.1	0.2936	0.6771	0.0232
0.1	0.3544	0.66	0.0234
0.1	0.4301	0.6417	0.0236
0.1	0.505	0.6258	0.0238
0.1	0.5818	0.6113	0.0241
0.2	0.0022	0.946	0.0203
0.2	0.0045	0.9252	0.0205
0.2	0.0071	0.9084	0.0206
0.2	0.0099	0.8945	0.0207
0.2	0.0148	0.8756	0.0209
0.2	0.0193	0.8617	0.021
0.2	0.0271	0.8421	0.0212
0.2	0.0349	0.8263	0.0214
0.2	0.0434	0.8119	0.0216
0.2	0.0508	0.801	0.0217
0.2	0.0654	0.7827	0.0219
0.2	0.0772	0.7702	0.022
0.2	0.094	0.7546	0.0222
0.2	0.1162	0.7372	0.0224
0.2	0.1588	0.7102	0.0228
0.2	0.1902	0.6938	0.0229
0.2	0.2286	0.6765	0.0232
0.2	0.2717	0.6595	0.0234
0.2	0.3317	0.639	0.0236
0.2	0.4058	0.6173	0.0239
0.2	0.4731	0.5999	0.0241
0.2	0.5438	0.5835	0.0243
0.2	0.6093	0.5697	0.0244
0.3	0.0023	0.9417	0.0204
0.3	0.0049	0.9179	0.0206
0.3	0.0077	0.9001	0.0207
0.3	0.0103	0.8866	0.0208
0.3	0.0133	0.874	0.0209
0.3	0.0187	0.8555	0.0211
0.3	0.0246	0.8388	0.0213
0.3	0.0323	0.821	0.0215
0.3	0.0412	0.804	0.0217
0.3	0.05	0.7894	0.0218
0.3	0.0637	0.7705	0.022
0.3	0.0788	0.7528	0.0223
0.3	0.0921	0.7392	0.0224
0.3	0.1145	0.7195	0.0226
0.3	0.1536	0.6912	0.023
0.3	0.1903	0.6692	0.0232
0.3	0.2203	0.6535	0.0234
0.3	0.2641	0.6331	0.0237
0.3	0.3209	0.6101	0.0239
0.3	0.393	0.5847	0.0242
0.3	0.4621	0.5632	0.0245
0.3	0.5329	0.5434	0.0247
0.3	0.6099	0.5237	0.025

System: N,N-dimethylethanamide + water + rubidium fluoride (RbF); phases: Liquid
Fixed: Pressure, kPa = 100
Fixed: Temperature, K = 298.15
Property: Mean ionic activity coefficient of rubidium fluoride (RbF) (Liquid); method: Calculated from EMF cell potential
Solvent: Mass fraction of N,N-dimethylethanamide	Molality, mol/kg of rubidium fluoride (RbF)	Mean ionic activity coefficient of rubidium fluoride (RbF)	uncertainty
0	0.0044	0.9313	0.0203
0	0.0095	0.9053	0.0205
0	0.0145	0.8874	0.0207
0	0.0197	0.8734	0.0209
0	0.0226	0.8665	0.0209
0	0.0332	0.8468	0.0212
0	0.0442	0.8311	0.0213
0	0.0542	0.8195	0.0215
0	0.0612	0.8126	0.0215
0	0.0746	0.801	0.0217
0	0.0861	0.7926	0.0218
0	0.0993	0.7843	0.0219
0	0.1201	0.7732	0.022
0	0.1411	0.764	0.0221
0	0.1709	0.7533	0.0222
0	0.1972	0.7456	0.0223
0	0.2474	0.734	0.0225
0	0.2962	0.7255	0.0226
0	0.367	0.7165	0.0227
0	0.4347	0.7103	0.0227
0	0.5187	0.705	0.0228
0	0.5989	0.7017	0.0228
0.1	0.0027	0.9418	0.0203
0.1	0.0053	0.9202	0.0205
0.1	0.008	0.9046	0.0206
0.1	0.0108	0.8913	0.0207
0.1	0.0135	0.8805	0.0208
0.1	0.0187	0.8632	0.021
0.1	0.0246	0.8472	0.0212
0.1	0.0332	0.828	0.0214
0.1	0.0422	0.8118	0.0216
0.1	0.0534	0.7948	0.0218
0.1	0.0622	0.7832	0.0219
0.1	0.0763	0.7673	0.0221
0.1	0.0963	0.7484	0.0223
0.1	0.1131	0.7351	0.0225
0.1	0.1419	0.7159	0.0227
0.1	0.1752	0.6977	0.0229
0.1	0.218	0.6788	0.0232
0.1	0.2678	0.6611	0.0234
0.1	0.3257	0.6445	0.0236
0.1	0.3872	0.6302	0.0238
0.1	0.4687	0.615	0.024
0.1	0.5439	0.6037	0.0242
0.1	0.6194	0.5943	0.0243
0.2	0.0023	0.9435	0.0203
0.2	0.0051	0.9177	0.0206
0.2	0.008	0.8995	0.0207
0.2	0.0108	0.8852	0.0208
0.2	0.0138	0.8726	0.0209
0.2	0.0194	0.8531	0.0211
0.2	0.028	0.8297	0.0214
0.2	0.0338	0.8166	0.0215
0.2	0.0452	0.7948	0.0218
0.2	0.0574	0.7757	0.022
0.2	0.0658	0.7643	0.0221
0.2	0.0809	0.7463	0.0223
0.2	0.102	0.7254	0.0226
0.2	0.1166	0.7129	0.0227
0.2	0.1461	0.6912	0.023
0.2	0.1816	0.6698	0.0233
0.2	0.2269	0.6474	0.0235
0.2	0.2752	0.6276	0.0238
0.2	0.3355	0.6072	0.024
0.2	0.3986	0.5894	0.0242
0.2	0.4759	0.5711	0.0244
0.2	0.554	0.5556	0.0246
0.2	0.6314	0.5423	0.0248
0.3	0.0025	0.936	0.0205
0.3	0.005	0.912	0.0207
0.3	0.0075	0.8943	0.0208
0.3	0.0099	0.88	0.0209
0.3	0.0151	0.8553	0.0211
0.3	0.0202	0.8358	0.0213
0.3	0.0255	0.8187	0.0215
0.3	0.0306	0.8045	0.0217
0.3	0.0382	0.7861	0.0219
0.3	0.0483	0.7651	0.0221
0.3	0.0587	0.7467	0.0223
0.3	0.0694	0.7302	0.0225
0.3	0.0823	0.7129	0.0227
0.3	0.0947	0.6981	0.0229
0.3	0.1172	0.6748	0.0232
0.3	0.1406	0.6546	0.0234
0.3	0.1757	0.6292	0.0238
0.3	0.2093	0.609	0.024
0.3	0.2528	0.5873	0.0243
0.3	0.2944	0.5698	0.0245
0.3	0.3453	0.5517	0.0247
0.3	0.396	0.5364	0.0249
0.3	0.4446	0.5238	0.025
0.3	0.4922	0.513	0.0251
0.3	0.5376	0.5038	0.0252
0.3	0.5839	0.4955	0.0253
0.3	0.6286	0.4883	0.0254

System: water + cesium fluoride (CsF); phases: Liquid
Fixed: Pressure, kPa = 100
Fixed: Temperature, K = 298.15
Property: Mean ionic activity coefficient of cesium fluoride (CsF) (Liquid); method: Calculated from EMF cell potential
Molality, mol/kg of cesium fluoride (CsF)	Mean ionic activity coefficient of cesium fluoride (CsF)	uncertainty
0.0028	0.9436	0.0202
0.0053	0.9258	0.0204
0.0077	0.9129	0.0205
0.0105	0.9011	0.0206
0.0136	0.8903	0.0207
0.0196	0.8734	0.0209
0.0257	0.8599	0.021
0.0317	0.8491	0.0211
0.0381	0.8392	0.0212
0.0488	0.8253	0.0214
0.0578	0.8157	0.0215
0.0677	0.8066	0.0216
0.0834	0.7945	0.0218
0.0984	0.7849	0.0219
0.1245	0.7715	0.022
0.1503	0.7611	0.0221
0.1888	0.749	0.0223
0.2237	0.7406	0.0224
0.2732	0.7316	0.0225
0.3185	0.7255	0.0226
0.3573	0.7215	0.0226
0.4152	0.717	0.0227
0.4731	0.7141	0.0227
0.526	0.7123	0.0227
0.5773	0.7114	0.0227
0.0024	0.9474	0.0202
0.0048	0.9288	0.0204
0.0075	0.9142	0.0205
0.01	0.9029	0.0206
0.0129	0.8926	0.0206
0.0187	0.8759	0.0208
0.0243	0.8629	0.021
0.0303	0.8517	0.0211
0.0394	0.8376	0.0213
0.048	0.8265	0.0214
0.0627	0.8111	0.0216
0.0779	0.7985	0.0217
0.1025	0.7825	0.0219
0.126	0.7705	0.022
0.16	0.7569	0.0222
0.1955	0.746	0.0223
0.2468	0.7341	0.0225
0.2968	0.7254	0.0226
0.3685	0.7163	0.0227
0.4369	0.7102	0.0227
0.5011	0.706	0.0228
0.5606	0.7031	0.0228
0.6205	0.701	0.0228

System: water + rubidium fluoride (RbF); phases: Liquid
Fixed: Pressure, kPa = 100
Fixed: Temperature, K = 298.15
Property: Mean ionic activity coefficient of rubidium fluoride (RbF) (Liquid); method: Calculated from EMF cell potential
Molality, mol/kg of rubidium fluoride (RbF)	Mean ionic activity coefficient of rubidium fluoride (RbF)	uncertainty
0.0035	0.9381	0.0202
0.0074	0.9145	0.0205
0.0108	0.9	0.0206
0.0146	0.8872	0.0207
0.0185	0.8763	0.0208
0.0264	0.8589	0.021
0.0339	0.8457	0.0212
0.0415	0.8346	0.0213
0.049	0.8253	0.0214
0.06	0.8137	0.0215
0.0715	0.8035	0.0217
0.0832	0.7947	0.0218
0.1022	0.7826	0.0219
0.1212	0.7727	0.022
0.15	0.7606	0.0221
0.1795	0.7506	0.0223
0.224	0.739	0.0224
0.2661	0.7305	0.0225
0.3215	0.7219	0.0226
0.3786	0.7153	0.0227
0.4521	0.7091	0.0227
0.5237	0.7048	0.0228
0.5992	0.7017	0.0228
0.0044	0.9313	0.0203
0.0095	0.9053	0.0205
0.0145	0.8874	0.0207
0.0197	0.8734	0.0209
0.0226	0.8665	0.0209
0.0332	0.8468	0.0212
0.0442	0.8311	0.0213
0.0542	0.8195	0.0215
0.0612	0.8126	0.0215
0.0746	0.801	0.0217
0.0861	0.7926	0.0218
0.0993	0.7843	0.0219
0.1201	0.7732	0.022
0.1411	0.764	0.0221
0.1709	0.7533	0.0222
0.1972	0.7456	0.0223
0.2474	0.734	0.0225
0.2962	0.7255	0.0226
0.367	0.7165	0.0227
0.4347	0.7103	0.0227
0.5187	0.705	0.0228
0.5989	0.7017	0.0228
