Measured thermophysical data. Thermodynamics of 4'-bromomethyl-2-cyanobiphenyl in different solvents
Source: J. Chem. Thermodyn., 2015, 10.1016/j.jct.2014.12.002
Compound 1: 4'-(bromomethyl)-2-cyanobiphenyl, C14H10BrN, InChI=1S/C14H10BrN/c15-9-11-5-7-12(8-6-11)14-4-2-1-3-13(14)10-16/h1-8H,9H2, purity 99.3%
Compound 2: acetone, C3H6O, InChI=1S/C3H6O/c1-3(2)4/h1-2H3, purity 99.7%
Compound 3: ethyl acetate, C4H8O2, InChI=1S/C4H8O2/c1-3-6-4(2)5/h3H2,1-2H3, purity 99.7%
Compound 4: butan-1-ol, C4H10O, InChI=1S/C4H10O/c1-2-3-4-5/h5H,2-4H2,1H3, purity 99.7%
Compound 5: propan-2-ol, C3H8O, InChI=1S/C3H8O/c1-3(2)4/h3-4H,1-2H3, purity 99.7%
Compound 6: ethanol, C2H6O, InChI=1S/C2H6O/c1-2-3/h3H,2H2,1H3, purity 99.7%
Compound 7: methyl ethanoate, C3H6O2, InChI=1S/C3H6O2/c1-3(4)5-2/h1-2H3, purity 99.7%
Compound 8: butyl ethanoate, C6H12O2, InChI=1S/C6H12O2/c1-3-4-5-8-6(2)7/h3-5H2,1-2H3, purity 99.7%
Compound 9: dimethylformamide, C3H7NO, InChI=1S/C3H7NO/c1-4(2)3-5/h3H,1-2H3, purity 99.7%

System: 4'-(bromomethyl)-2-cyanobiphenyl; phases: Crystal, Liquid, Air at 1 atmosphere
Property: Normal melting temperature, K (Crystal); method: DTA
Normal melting temperature, K	uncertainty
399.21	0.53

System: 4'-(bromomethyl)-2-cyanobiphenyl; phases: Crystal, Liquid, Air at 1 atmosphere
Property: Molar enthalpy of transition or fusion, kJ/mol (Crystal); method: DSC
Molar enthalpy of transition or fusion, kJ/mol	uncertainty
29.489	0.649

System: 4'-(bromomethyl)-2-cyanobiphenyl; phases: Crystal
Property: Molar volume, m3/mol (Crystal); method: Pycnometric method
Temperature, K	Pressure, kPa	Molar volume, m3/mol	uncertainty
293.15	101.325	0.000223	1.2e-06

System: 4'-(bromomethyl)-2-cyanobiphenyl; phases: Crystal
Fixed: Pressure, kPa = 100
Property: Molar heat capacity at constant pressure, J/K/mol (Crystal); method: Small sample (50 mg) DSC
Temperature, K	Molar heat capacity at constant pressure, J/K/mol	uncertainty
293.15	253.23	10.74
297.15	256.2	10.87
301.15	259.07	10.99
305.15	261.5	11.1
309.15	265.03	11.25
313.15	268.1	11.38
317.15	271.41	11.52
321.15	274.74	11.66
325.15	277.96	11.79
329.15	281.51	11.94
333.15	284.37	12.07
337.15	287.74	12.21
341.15	291.32	12.36
345.15	294.58	12.5
349.15	298.15	12.65
353.15	300.62	12.76
357.15	303.82	12.89
361.15	306.86	13.02
365.15	309.09	13.11
369.15	314.38	13.34
373.15	317.58	13.47

System: 4'-(bromomethyl)-2-cyanobiphenyl; phases: Liquid
Fixed: Pressure, kPa = 100
Property: Molar heat capacity at constant pressure, J/K/mol (Liquid); method: Small sample (50 mg) DSC
Temperature, K	Molar heat capacity at constant pressure, J/K/mol	uncertainty
433.15	408.2	17.32
437.15	410.68	17.42
441.15	413.2	17.53
445.15	415.66	17.64
449.15	417.96	17.73
453.15	420.63	17.85
457.15	423.5	17.97
461.15	425.47	18.05
465.15	427.72	18.15
469.15	429.91	18.24
473.15	432.48	18.35
477.15	434.9	18.45
481.15	437.62	18.57
485.15	440.31	18.68
489.15	441.88	18.75
493.15	444.14	18.84

System: dimethylformamide + 4'-(bromomethyl)-2-cyanobiphenyl; phases: Liquid, Crystal
Fixed: Pressure, kPa = 100
Property: Mole fraction of 4'-(bromomethyl)-2-cyanobiphenyl (Liquid); method: Gravimetric Technique
Temperature, K	Mole fraction of 4'-(bromomethyl)-2-cyanobiphenyl	uncertainty
283.15	0.04026	0.00403
288.15	0.0458	0.00458
293.15	0.05302	0.0053
298.15	0.0603	0.00603
303.15	0.06888	0.00689
308.15	0.07972	0.00797
313.15	0.09113	0.00912
318.15	0.10248	0.01025
323.15	0.11895	0.0119

System: acetone + 4'-(bromomethyl)-2-cyanobiphenyl; phases: Liquid, Crystal
Fixed: Pressure, kPa = 100
Property: Mole fraction of 4'-(bromomethyl)-2-cyanobiphenyl (Liquid); method: Gravimetric Technique
Temperature, K	Mole fraction of 4'-(bromomethyl)-2-cyanobiphenyl	uncertainty
283.15	0.01681	0.00168
288.15	0.02019	0.00202
293.15	0.0244	0.00244
298.15	0.02924	0.00293
303.15	0.03568	0.00357
308.15	0.0431	0.00431
313.15	0.05224	0.00523
318.15	0.06329	0.00633
323.15	0.07801	0.0078

System: methyl ethanoate + 4'-(bromomethyl)-2-cyanobiphenyl; phases: Liquid, Crystal
Fixed: Pressure, kPa = 100
Property: Mole fraction of 4'-(bromomethyl)-2-cyanobiphenyl (Liquid); method: Gravimetric Technique
Temperature, K	Mole fraction of 4'-(bromomethyl)-2-cyanobiphenyl	uncertainty
283.15	0.01015	0.00102
288.15	0.01221	0.00122
293.15	0.01479	0.00148
298.15	0.01784	0.00178
303.15	0.02153	0.00215
308.15	0.02615	0.00262
313.15	0.03143	0.00314
318.15	0.03806	0.00381
323.15	0.04692	0.00469

System: ethyl acetate + 4'-(bromomethyl)-2-cyanobiphenyl; phases: Liquid, Crystal
Fixed: Pressure, kPa = 100
Property: Mole fraction of 4'-(bromomethyl)-2-cyanobiphenyl (Liquid); method: Gravimetric Technique
Temperature, K	Mole fraction of 4'-(bromomethyl)-2-cyanobiphenyl	uncertainty
283.15	0.00883	0.00088
288.15	0.01028	0.00103
293.15	0.01249	0.00125
298.15	0.01466	0.00147
303.15	0.01807	0.00181
308.15	0.02091	0.00209
313.15	0.02516	0.00252
318.15	0.03035	0.00304
323.15	0.03586	0.00359

System: butyl ethanoate + 4'-(bromomethyl)-2-cyanobiphenyl; phases: Liquid, Crystal
Fixed: Pressure, kPa = 100
Property: Mole fraction of 4'-(bromomethyl)-2-cyanobiphenyl (Liquid); method: Gravimetric Technique
Temperature, K	Mole fraction of 4'-(bromomethyl)-2-cyanobiphenyl	uncertainty
283.15	0.00611	0.00061
288.15	0.00741	0.00074
293.15	0.00878	0.00088
298.15	0.01045	0.00105
303.15	0.01225	0.00123
308.15	0.01502	0.0015
313.15	0.01705	0.00171
318.15	0.021	0.0021
323.15	0.0233	0.00233

System: ethanol + 4'-(bromomethyl)-2-cyanobiphenyl; phases: Liquid, Crystal
Fixed: Pressure, kPa = 100
Property: Mole fraction of 4'-(bromomethyl)-2-cyanobiphenyl (Liquid); method: Gravimetric Technique
Temperature, K	Mole fraction of 4'-(bromomethyl)-2-cyanobiphenyl	uncertainty
283.15	0.00082	8e-05
288.15	0.001	0.0001
293.15	0.00129	0.00013
298.15	0.00184	0.00018
303.15	0.0023	0.00023
308.15	0.00303	0.0003
313.15	0.00394	0.00039
318.15	0.00553	0.00055
323.15	0.00711	0.00071

System: butan-1-ol + 4'-(bromomethyl)-2-cyanobiphenyl; phases: Liquid, Crystal
Fixed: Pressure, kPa = 100
Property: Mole fraction of 4'-(bromomethyl)-2-cyanobiphenyl (Liquid); method: Gravimetric Technique
Temperature, K	Mole fraction of 4'-(bromomethyl)-2-cyanobiphenyl	uncertainty
283.15	0.00048	5e-05
288.15	0.00057	6e-05
293.15	0.00075	8e-05
298.15	0.00128	0.00013
303.15	0.00174	0.00017
308.15	0.00232	0.00023
313.15	0.00307	0.00031
318.15	0.00426	0.00043
323.15	0.00555	0.00056

System: propan-2-ol + 4'-(bromomethyl)-2-cyanobiphenyl; phases: Liquid, Crystal
Fixed: Pressure, kPa = 100
Property: Mole fraction of 4'-(bromomethyl)-2-cyanobiphenyl (Liquid); method: Gravimetric Technique
Temperature, K	Mole fraction of 4'-(bromomethyl)-2-cyanobiphenyl	uncertainty
283.15	0.00029	3e-05
288.15	0.0005	5e-05
293.15	0.0006	6e-05
298.15	0.00086	9e-05
303.15	0.00121	0.00012
308.15	0.00164	0.00016
313.15	0.00208	0.00021
318.15	0.00285	0.00029
323.15	0.00412	0.00041
