Measured thermophysical data. Viscometric studies on saccharides in aqueous magnesium chloride solutions at T = (288.15 to 318.15) K
Source: J. Chem. Thermodyn., 2012, 10.1016/j.jct.2012.02.016
Compound 1: D-(-)-arabinose, C5H10O5, InChI=1S/C5H10O5/c6-1-3(8)5(10)4(9)2-7/h1,3-5,7-10H,2H2/t3-,4-,5+/m1/s1, purity 98%
Compound 2: D-ribose, C5H10O5, InChI=1S/C5H10O5/c6-1-3(8)5(10)4(9)2-7/h1,3-5,7-10H,2H2/t3-,4+,5-/m0/s1, purity 98%
Compound 3: D-xylose, C5H10O5, InChI=1S/C5H10O5/c6-1-3(8)5(10)4(9)2-7/h1,3-5,7-10H,2H2/t3-,4+,5+/m0/s1, purity 98%
Compound 4: D-fructose, C6H12O6, InChI=1S/C6H12O6/c7-1-3(9)5(11)6(12)4(10)2-8/h3,5-9,11-12H,1-2H2/t3-,5-,6-/m1/s1, purity 98%
Compound 5: (+)-galactose, C6H12O6, InChI=1S/C6H12O6/c7-1-3(9)5(11)6(12)4(10)2-8/h1,3-6,8-12H,2H2/t3-,4+,5+,6-/m0/s1, purity 98%
Compound 6: D-glucose, C6H12O6, InChI=1S/C6H12O6/c7-1-3(9)5(11)6(12)4(10)2-8/h1,3-6,8-12H,2H2/t3-,4+,5+,6+/m0/s1, purity 98%
Compound 7: D-mannose, C6H12O6, InChI=1S/C6H12O6/c7-1-3(9)5(11)6(12)4(10)2-8/h1,3-6,8-12H,2H2/t3-,4-,5-,6-/m1/s1, purity 98%
Compound 8: D-cellobiose, C12H22O11, InChI=1S/C12H22O11/c13-1-3-5(15)6(16)9(19)12(22-3)23-10-4(2-14)21-11(20)8(18)7(10)17/h3-20H,1-2H2/t3-,4-,5-,6+,7-,8-,9-,10-,11-,12+/m1/s1, purity 98%
Compound 9: 6-.alpha.-D-galactopyranosyl-D-glucopyranose, C12H22O11, InChI=1S/C12H22O11/c13-1-3-5(14)8(17)10(19)12(23-3)21-2-4-6(15)7(16)9(18)11(20)22-4/h3-20H,1-2H2/t3-,4-,5+,6-,7+,8+,9-,10-,11-,12+/m1/s1, purity 98%
Compound 10: D-sucrose, C12H22O11, InChI=1S/C12H22O11/c13-1-4-6(16)8(18)9(19)11(21-4)23-12(3-15)10(20)7(17)5(2-14)22-12/h4-11,13-20H,1-3H2/t4-,5-,6-,7-,8+,9-,10+,11-,12+/m1/s1, purity 98%
Compound 11: .alpha.-D-lactose hydrate, C12H24O12, InChI=1S/C12H22O11.H2O/c13-1-3-5(15)6(16)9(19)12(22-3)23-10-4(2-14)21-11(20)8(18)7(10)17;/h3-20H,1-2H2;1H2/t3-,4-,5+,6+,7-,8-,9-,10-,11+,12+;/m1./s1, purity 98%
Compound 12: D-(+)-maltose monohydrate, C12H24O12, InChI=1S/C12H22O11.H2O/c13-1-3-5(15)6(16)9(19)12(22-3)23-10-4(2-14)21-11(20)8(18)7(10)17;/h3-20H,1-2H2;1H2/t3-,4-,5-,6+,7-,8-,9-,10-,11-,12-;/m1./s1, purity 98%
Compound 13: D-(+)-trehalose dihydrate, C12H26O13, InChI=1S/C12H22O11.2H2O/c13-1-3-5(15)7(17)9(19)11(21-3)23-12-10(20)8(18)6(16)4(2-14)22-12;;/h3-20H,1-2H2;2*1H2/t3-,4-,5-,6-,7+,8+,9-,10-,11-,12-;;/m1../s1, purity 98%
Compound 14: D-raffinose, pentahydrate, C18H42O21, InChI=1S/C18H32O16.5H2O/c19-1-5-8(22)11(25)13(27)16(31-5)30-3-7-9(23)12(26)14(28)17(32-7)34-18(4-21)15(29)10(24)6(2-20)33-18;;;;;/h5-17,19-29H,1-4H2;5*1H2/t5-,6-,7-,8+,9-,10-,11+,12+,13-,14-,15+,16+,17-,18+;;;;;/m1...../s1, purity 98%
Compound 15: methyl-.alpha.-D-glucopyranoside, C7H14O6, InChI=1S/C7H14O6/c1-12-7-6(11)5(10)4(9)3(2-8)13-7/h3-11H,2H2,1H3/t3-,4-,5+,6-,7+/m1/s1, purity 98%
Compound 16: methyl .alpha.-D-xylopyranoside, C6H12O5, InChI=1S/C6H12O5/c1-10-6-5(9)4(8)3(7)2-11-6/h3-9H,2H2,1H3/t3-,4+,5-,6+/m1/s1, purity 98%
Compound 17: methyl .beta.-D-xylopyranoside, C6H12O5, InChI=1S/C6H12O5/c1-10-6-5(9)4(8)3(7)2-11-6/h3-9H,2H2,1H3/t3-,4+,5-,6-/m1/s1, purity 98%
Compound 18: water, H2O, InChI=1S/H2O/h1H2, purity 98.8%
Compound 19: magnesium chloride, Cl2Mg, InChI=1S/2ClH.Mg/h2*1H;/q;;+2/p-2

System: water + magnesium chloride + D-(-)-arabinose; phases: Liquid
Fixed: Pressure, kPa = 101
Property: Viscosity, Pa*s (Liquid); method: Capillary tube (Ostwald; Ubbelohde) method
Solvent: Molality, mol/kg of magnesium chloride	Temperature, K	Amount concentration (molarity), mol/dm3 of D-(-)-arabinose	Viscosity, Pa*s	uncertainty
0.5	288.15	0.05203	0.00137344	2.176e-05
0.5	288.15	0.06876	0.0013822	2.19e-05
0.5	288.15	0.08325	0.0013899	2.2e-05
0.5	288.15	0.11718	0.0014084	2.223e-05
0.5	298.15	0.05366	0.00107897	1.785e-05
0.5	298.15	0.07537	0.00108764	1.796e-05
0.5	298.15	0.09362	0.00109504	1.805e-05
0.5	298.15	0.10725	0.00110054	1.812e-05
0.5	308.15	0.04549	0.00086497	1.515e-05
0.5	308.15	0.0714	0.00087255	1.524e-05
0.5	308.15	0.091	0.00087834	1.531e-05
0.5	308.15	0.1025	0.00088175	1.535e-05
0.5	318.15	0.04539	0.00059838	1.206e-05
0.5	318.15	0.07123	0.0006035	1.211e-05
0.5	318.15	0.09078	0.00060745	1.216e-05
0.5	318.15	0.10225	0.00060975	1.218e-05
1	288.15	0.05909	0.00159594	2.479e-05
1	288.15	0.06876	0.00160263	2.488e-05
1	288.15	0.08614	0.00161445	2.504e-05
1	288.15	0.12194	0.00163903	2.537e-05
1	298.15	0.05954	0.00125419	2.016e-05
1	298.15	0.07601	0.0012624	2.026e-05
1	298.15	0.09614	0.00127256	2.039e-05
1	298.15	0.10302	0.00127598	2.044e-05
1	308.15	0.0541	0.00100571	1.692e-05
1	308.15	0.07854	0.00101478	1.703e-05
1	308.15	0.09373	0.0010204	1.71e-05
1	308.15	0.10546	0.00102464	1.716e-05
1	318.15	0.05376	0.00071858	1.341e-05
1	318.15	0.07804	0.00072471	1.348e-05
1	318.15	0.09313	0.00072851	1.353e-05
1	318.15	0.10478	0.00073147	1.356e-05
2	288.15	0.06156	0.00203418	3.088e-05
2	288.15	0.07942	0.00205155	3.113e-05
2	288.15	0.09182	0.00206358	3.13e-05
2	288.15	0.13624	0.0021072	3.189e-05
2	298.15	0.06097	0.00159783	2.482e-05
2	298.15	0.08402	0.00161258	2.503e-05
2	298.15	0.09185	0.00161817	2.51e-05
2	298.15	0.11105	0.00163169	2.528e-05
2	308.15	0.06721	0.00128683	2.06e-05
2	308.15	0.07897	0.00129271	2.068e-05
2	308.15	0.10206	0.00130486	2.085e-05
2	308.15	0.1134	0.00131061	2.093e-05
2	318.15	0.05704	0.00092626	1.594e-05
2	318.15	0.07803	0.00093387	1.604e-05
2	318.15	0.10084	0.00094202	1.614e-05
2	318.15	0.11205	0.00094609	1.619e-05
3	288.15	0.06163	0.00247812	3.715e-05
3	288.15	0.08314	0.00250755	3.757e-05
3	288.15	0.09874	0.00252932	3.788e-05
3	288.15	0.12819	0.00257	3.844e-05
3	298.15	0.05731	0.00195046	2.973e-05
3	298.15	0.07808	0.0019711	3.002e-05
3	298.15	0.10283	0.0019959	3.036e-05
3	298.15	0.11091	0.00200404	3.046e-05
3	308.15	0.05933	0.00156188	2.434e-05
3	308.15	0.08277	0.00157918	2.458e-05
3	308.15	0.10692	0.0015968	2.483e-05
3	308.15	0.11864	0.00160545	2.495e-05
3	318.15	0.0583	0.00113397	1.862e-05
3	318.15	0.08132	0.00114546	1.877e-05
3	318.15	0.10505	0.00115739	1.893e-05
3	318.15	0.11657	0.00116313	1.901e-05

System: D-ribose + water + magnesium chloride; phases: Liquid
Fixed: Pressure, kPa = 101
Property: Viscosity, Pa*s (Liquid); method: Capillary tube (Ostwald; Ubbelohde) method
Solvent: Molality, mol/kg of magnesium chloride	Temperature, K	Amount concentration (molarity), mol/dm3 of D-ribose	Viscosity, Pa*s	uncertainty
0.5	288.15	0.051	0.00137331	2.175e-05
0.5	288.15	0.07084	0.00138447	2.19e-05
0.5	288.15	0.09048	0.00139536	2.205e-05
0.5	288.15	0.14101	0.00142374	2.243e-05
0.5	298.15	0.05426	0.00107971	1.786e-05
0.5	298.15	0.07317	0.00108754	1.796e-05
0.5	298.15	0.09952	0.00109832	1.809e-05
0.5	298.15	0.10345	0.00109991	1.812e-05
0.5	308.15	0.05121	0.00086701	1.517e-05
0.5	308.15	0.07082	0.00087298	1.524e-05
0.5	308.15	0.09035	0.00087885	1.532e-05
0.5	308.15	0.10188	0.00088234	1.536e-05
0.5	318.15	0.0583	0.00060486	1.213e-05
0.5	318.15	0.08132	0.00061099	1.219e-05
0.5	318.15	0.10505	0.00061735	1.226e-05
0.5	318.15	0.11657	0.00062042	1.23e-05
1	288.15	0.05372	0.0015961	2.479e-05
1	288.15	0.06893	0.00160761	2.495e-05
1	288.15	0.08682	0.00162114	2.514e-05
1	288.15	0.1139	0.00164167	2.542e-05
1	298.15	0.05547	0.00125505	2.017e-05
1	298.15	0.07244	0.00126448	2.03e-05
1	298.15	0.09579	0.00127745	2.046e-05
1	298.15	0.11986	0.0012908	2.066e-05
1	308.15	0.0526	0.00100749	1.694e-05
1	308.15	0.0725	0.00101577	1.704e-05
1	308.15	0.09446	0.00102484	1.716e-05
1	308.15	0.10539	0.00102937	1.722e-05
1	318.15	0.05226	0.00071928	1.342e-05
1	318.15	0.07203	0.00072478	1.348e-05
1	318.15	0.09385	0.00073077	1.355e-05
1	318.15	0.10471	0.00073373	1.359e-05
2	288.15	0.05654	0.00203694	3.092e-05
2	288.15	0.07705	0.00205983	3.124e-05
2	288.15	0.09425	0.00207898	3.151e-05
2	288.15	0.12145	0.00210956	3.194e-05
2	298.15	0.0587	0.00160156	2.487e-05
2	298.15	0.0774	0.00161709	2.509e-05
2	298.15	0.09875	0.00163464	2.533e-05
2	298.15	0.14036	0.00166912	2.582e-05
2	308.15	0.05006	0.00128257	2.055e-05
2	308.15	0.08271	0.00130248	2.082e-05
2	308.15	0.09854	0.00131224	2.095e-05
2	308.15	0.11567	0.00132276	2.109e-05
2	318.15	0.04947	0.00092617	1.594e-05
2	318.15	0.08172	0.00093948	1.611e-05
2	318.15	0.09736	0.000946	1.619e-05
2	318.15	0.11429	0.00095298	1.628e-05
3	288.15	0.0641	0.00249487	3.739e-05
3	288.15	0.0844	0.00252717	3.784e-05
3	288.15	0.09036	0.00253674	3.798e-05
3	288.15	0.13608	0.00260948	3.901e-05
3	298.15	0.06212	0.00196561	2.994e-05
3	298.15	0.08542	0.00199287	3.032e-05
3	298.15	0.1225	0.00203622	3.091e-05
3	298.15	0.17766	0.00210058	3.185e-05
3	308.15	0.05854	0.0015681	2.443e-05
3	308.15	0.07985	0.00158617	2.468e-05
3	308.15	0.10134	0.00160454	2.494e-05
3	308.15	0.119	0.00161942	2.514e-05
3	318.15	0.05752	0.00113761	1.867e-05
3	318.15	0.07845	0.00114954	1.883e-05
3	318.15	0.09956	0.00116159	1.899e-05
3	318.15	0.11686	0.00117142	1.912e-05

System: D-xylose + water + magnesium chloride; phases: Liquid
Fixed: Pressure, kPa = 101
Property: Viscosity, Pa*s (Liquid); method: Capillary tube (Ostwald; Ubbelohde) method
Solvent: Molality, mol/kg of magnesium chloride	Temperature, K	Amount concentration (molarity), mol/dm3 of D-xylose	Viscosity, Pa*s	uncertainty
0.5	288.15	0.05391	0.0013795	2.184e-05
0.5	288.15	0.07169	0.00139093	2.199e-05
0.5	288.15	0.08717	0.00140088	2.213e-05
0.5	288.15	0.09156	0.0014037	2.217e-05
0.5	298.15	0.06034	0.00108542	1.795e-05
0.5	298.15	0.07132	0.0010905	1.8e-05
0.5	298.15	0.09381	0.00110096	1.814e-05
0.5	298.15	0.11937	0.00111281	1.828e-05
0.5	308.15	0.05022	0.00086923	1.52e-05
0.5	308.15	0.07074	0.00087647	1.529e-05
0.5	308.15	0.09522	0.00088507	1.539e-05
0.5	308.15	0.10436	0.0008883	1.544e-05
0.5	318.15	0.05011	0.00060044	1.208e-05
0.5	318.15	0.07057	0.00060503	1.213e-05
0.5	318.15	0.09499	0.00061046	1.219e-05
0.5	318.15	0.10411	0.00061252	1.222e-05
1	288.15	0.06004	0.00160356	2.489e-05
1	288.15	0.07421	0.00161492	2.505e-05
1	288.15	0.08686	0.00162503	2.519e-05
1	288.15	0.12097	0.00165241	2.557e-05
1	298.15	0.06134	0.00125933	2.024e-05
1	298.15	0.07982	0.00126999	2.036e-05
1	298.15	0.10003	0.00128149	2.051e-05
1	298.15	0.12751	0.00129728	2.075e-05
1	308.15	0.04675	0.0010063	1.693e-05
1	308.15	0.07778	0.00101981	1.709e-05
1	308.15	0.09208	0.00102612	1.718e-05
1	308.15	0.10882	0.00103341	1.728e-05
1	318.15	0.04675	0.00071829	1.341e-05
1	318.15	0.07729	0.00072703	1.351e-05
1	318.15	0.0915	0.00073098	1.356e-05
1	318.15	0.10813	0.00073585	1.362e-05
2	288.15	0.06422	0.0020245	3.07e-05
2	288.15	0.07991	0.0020735	3.14e-05
2	288.15	0.09422	0.0020914	3.17e-05
2	288.15	0.12875	0.0021348	3.23e-05
2	298.15	0.05756	0.0016045	2.49e-05
2	298.15	0.07946	0.0016241	2.52e-05
2	298.15	0.09599	0.0016388	2.54e-05
2	298.15	0.11738	0.0016579	2.56e-05
2	308.15	0.05016	0.0012853	2.06e-05
2	308.15	0.08315	0.0013074	2.09e-05
2	308.15	0.09765	0.001317	2.1e-05
2	308.15	0.11155	0.0013264	2.11e-05
2	318.15	0.04956	0.0009282	1.6e-05
2	318.15	0.08216	0.0009429	1.62e-05
2	318.15	0.09646	0.0009494	1.62e-05
2	318.15	0.1198	0.00096	1.64e-05
3	288.15	0.06335	0.0024992	3.75e-05
3	288.15	0.08903	0.0025425	3.81e-05
3	288.15	0.09887	0.002559	3.83e-05
3	288.15	0.12793	0.0026078	3.9e-05
3	298.15	0.05799	0.0019395	2.96e-05
3	298.15	0.08145	0.0019932	3.03e-05
3	298.15	0.10712	0.0020249	3.08e-05
3	298.15	0.11979	0.0020406	3.1e-05
3	308.15	0.051	0.0015652	2.44e-05
3	308.15	0.06991	0.0015825	2.46e-05
3	308.15	0.10768	0.0016171	2.51e-05
3	308.15	0.13718	0.0016443	2.55e-05
3	318.15	0.05011	0.0011356	1.86e-05
3	318.15	0.06869	0.0011471	1.88e-05
3	318.15	0.10579	0.0011699	1.91e-05
3	318.15	0.13478	0.0011878	1.93e-05

System: D-fructose + water + magnesium chloride; phases: Liquid
Fixed: Pressure, kPa = 101
Property: Viscosity, Pa*s (Liquid); method: Capillary tube (Ostwald; Ubbelohde) method
Solvent: Molality, mol/kg of magnesium chloride	Temperature, K	Amount concentration (molarity), mol/dm3 of D-fructose	Viscosity, Pa*s	uncertainty
0.5	288.15	0.05265	0.0013897	2.2e-05
0.5	288.15	0.0719	0.0014063	2.22e-05
0.5	288.15	0.08566	0.001418	2.24e-05
0.5	288.15	0.10176	0.0014317	2.25e-05
0.5	298.15	0.05159	0.0010892	1.8e-05
0.5	298.15	0.07693	0.0011049	1.82e-05
0.5	298.15	0.0948	0.0011159	1.83e-05
0.5	298.15	0.11349	0.0011274	1.85e-05
0.5	298.15	0.15321	0.0011518	1.88e-05
0.5	308.15	0.06006	0.0008785	1.53e-05
0.5	308.15	0.07028	0.0008831	1.54e-05
0.5	308.15	0.0896	0.0008917	1.55e-05
0.5	308.15	0.10069	0.0008967	1.55e-05
0.5	318.15	0.05992	0.0006061	1.21e-05
0.5	318.15	0.07011	0.0006089	1.22e-05
0.5	318.15	0.08938	0.0006143	1.22e-05
0.5	318.15	0.10044	0.0006174	1.23e-05
1	288.15	0.0546	0.0016126	2.5e-05
1	288.15	0.07499	0.0016334	2.53e-05
1	288.15	0.08867	0.0016482	2.55e-05
1	288.15	0.10162	0.0016617	2.57e-05
1	298.15	0.06305	0.0012715	2.04e-05
1	298.15	0.07263	0.0012787	2.05e-05
1	298.15	0.08785	0.0012902	2.06e-05
1	298.15	0.12213	0.0013159	2.1e-05
1	298.15	0.15325	0.0013392	2.13e-05
1	308.15	0.05276	0.0010146	1.7e-05
1	308.15	0.07326	0.0010258	1.72e-05
1	308.15	0.1069	0.0010442	1.74e-05
1	308.15	0.11935	0.001051	1.75e-05
1	318.15	0.05243	0.0007234	1.35e-05
1	318.15	0.07279	0.0007306	1.36e-05
1	318.15	0.10621	0.0007424	1.37e-05
1	318.15	0.11857	0.0007468	1.37e-05
2	288.15	0.05841	0.0020677	3.14e-05
2	288.15	0.08051	0.0021034	3.19e-05
2	288.15	0.0929	0.0021236	3.21e-05
2	288.15	0.11086	0.0021526	3.25e-05
2	298.15	0.06635	0.0016311	2.53e-05
2	298.15	0.08479	0.0016527	2.56e-05
2	298.15	0.1069	0.0016786	2.6e-05
2	298.15	0.10931	0.0016814	2.61e-05
2	298.15	0.16573	0.0017477	2.69e-05
2	308.15	0.05596	0.0013011	2.08e-05
2	308.15	0.0777	0.0013201	2.11e-05
2	308.15	0.0998	0.0013397	2.13e-05
2	308.15	0.11136	0.0013498	2.15e-05
2	318.15	0.05529	0.000938	1.61e-05
2	318.15	0.07677	0.0009505	1.62e-05
2	318.15	0.09862	0.0009633	1.64e-05
2	318.15	0.11003	0.00097	1.65e-05
3	288.15	0.0633	0.0025348	3.8e-05
3	288.15	0.08523	0.0025841	3.87e-05
3	288.15	0.09886	0.0026147	3.91e-05
3	288.15	0.12542	0.0026746	3.99e-05
3	298.15	0.05883	0.0019906	3.03e-05
3	298.15	0.0816	0.0020283	3.08e-05
3	298.15	0.13461	0.0021161	3.2e-05
3	298.15	0.18703	0.002203	3.33e-05
3	308.15	0.05844	0.0015897	2.47e-05
3	308.15	0.08562	0.0016228	2.52e-05
3	308.15	0.09905	0.0016392	2.54e-05
3	308.15	0.12928	0.0016761	2.59e-05
3	318.15	0.05741	0.0011512	1.89e-05
3	318.15	0.08412	0.0011727	1.91e-05
3	318.15	0.09732	0.0011834	1.93e-05
3	318.15	0.12703	0.0012074	1.96e-05

System: (+)-galactose + water + magnesium chloride; phases: Liquid
Fixed: Pressure, kPa = 101
Property: Viscosity, Pa*s (Liquid); method: Capillary tube (Ostwald; Ubbelohde) method
Solvent: Molality, mol/kg of magnesium chloride	Temperature, K	Amount concentration (molarity), mol/dm3 of (+)-galactose	Viscosity, Pa*s	uncertainty
0.5	288.15	0.05285	0.0013924	2.2e-05
0.5	288.15	0.07199	0.0014096	2.22e-05
0.5	288.15	0.08588	0.0014221	2.24e-05
0.5	288.15	0.10204	0.0014368	2.26e-05
0.5	298.15	0.05517	0.001093	1.8e-05
0.5	298.15	0.07385	0.0011051	1.82e-05
0.5	298.15	0.09767	0.0011205	1.84e-05
0.5	298.15	0.10534	0.0011255	1.85e-05
0.5	308.15	0.05187	0.0008761	1.53e-05
0.5	308.15	0.07289	0.0008861	1.54e-05
0.5	308.15	0.09158	0.0008949	1.55e-05
0.5	308.15	0.10124	0.0008995	1.56e-05
0.5	318.15	0.05175	0.0006046	1.21e-05
0.5	318.15	0.07271	0.0006109	1.22e-05
0.5	318.15	0.09135	0.0006163	1.23e-05
0.5	318.15	0.10099	0.0006192	1.23e-05
1	288.15	0.05478	0.0016154	2.51e-05
1	288.15	0.0711	0.0016331	2.53e-05
1	288.15	0.08947	0.0016532	2.56e-05
1	288.15	0.10136	0.0016663	2.58e-05
1	298.15	0.05966	0.0012716	2.04e-05
1	298.15	0.07526	0.0012839	2.06e-05
1	298.15	0.10516	0.0013077	2.09e-05
1	298.15	0.11374	0.0013145	2.1e-05
1	308.15	0.0536	0.001017	1.71e-05
1	308.15	0.07482	0.0010294	1.72e-05
1	308.15	0.09813	0.001043	1.74e-05
1	308.15	0.10666	0.0010479	1.75e-05
1	318.15	0.05326	0.0007248	1.35e-05
1	318.15	0.07434	0.0007327	1.36e-05
1	318.15	0.0975	0.0007415	1.37e-05
1	318.15	0.10598	0.0007447	1.37e-05
2	288.15	0.05863	0.0020699	3.14e-05
2	288.15	0.08027	0.0021054	3.19e-05
2	288.15	0.09215	0.0021252	3.22e-05
2	288.15	0.11326	0.0021599	3.27e-05
2	298.15	0.06097	0.0016267	2.52e-05
2	298.15	0.07706	0.0016461	2.55e-05
2	298.15	0.08889	0.0016604	2.57e-05
2	298.15	0.11789	0.0016954	2.62e-05
2	308.15	0.0628	0.0013082	2.09e-05
2	308.15	0.08036	0.001324	2.11e-05
2	308.15	0.09712	0.001339	2.13e-05
2	308.15	0.11414	0.0013543	2.15e-05
2	318.15	0.06206	0.0009427	1.61e-05
2	318.15	0.0794	0.000953	1.63e-05
2	318.15	0.09597	0.0009628	1.64e-05
2	318.15	0.11278	0.0009729	1.65e-05
3	288.15	0.06148	0.002537	3.8e-05
3	288.15	0.08554	0.0025932	3.88e-05
3	288.15	0.10145	0.0026305	3.93e-05
3	288.15	0.12234	0.0026796	4e-05
3	298.15	0.06203	0.0019995	3.04e-05
3	298.15	0.09009	0.0020476	3.11e-05
3	298.15	0.11013	0.002082	3.16e-05
3	298.15	0.14159	0.002136	3.23e-05
3	308.15	0.06494	0.0016003	2.49e-05
3	308.15	0.08271	0.0016228	2.52e-05
3	308.15	0.11162	0.0016594	2.57e-05
3	308.15	0.12274	0.0016733	2.59e-05
3	318.15	0.0638	0.0011587	1.89e-05
3	318.15	0.08127	0.0011735	1.91e-05
3	318.15	0.10967	0.0011975	1.95e-05
3	318.15	0.1206	0.0012068	1.96e-05

System: D-glucose + water + magnesium chloride; phases: Liquid
Fixed: Pressure, kPa = 101
Property: Viscosity, Pa*s (Liquid); method: Capillary tube (Ostwald; Ubbelohde) method
Solvent: Molality, mol/kg of magnesium chloride	Temperature, K	Amount concentration (molarity), mol/dm3 of D-glucose	Viscosity, Pa*s	uncertainty
0.5	288.15	0.05182	0.0013938	2.2e-05
0.5	288.15	0.07177	0.0014126	2.23e-05
0.5	288.15	0.08561	0.0014256	2.25e-05
0.5	288.15	0.10289	0.0014419	2.27e-05
0.5	298.15	0.08561	0.0011155	1.83e-05
0.5	298.15	0.09213	0.0011199	1.84e-05
0.5	298.15	0.10289	0.0011272	1.85e-05
0.5	298.15	0.15758	0.0011642	1.9e-05
0.5	308.15	0.05236	0.0008777	1.53e-05
0.5	308.15	0.07565	0.0008892	1.55e-05
0.5	308.15	0.1008	0.0009018	1.56e-05
0.5	308.15	0.11484	0.0009087	1.57e-05
0.5	318.15	0.05224	0.0006057	1.21e-05
0.5	318.15	0.07548	0.000613	1.22e-05
0.5	318.15	0.10057	0.0006208	1.23e-05
0.5	318.15	0.11457	0.0006252	1.24e-05
1	288.15	0.05382	0.0016169	2.51e-05
1	288.15	0.07451	0.0016406	2.54e-05
1	288.15	0.08683	0.0016546	2.56e-05
1	288.15	0.10307	0.0016733	2.59e-05
1	298.15	0.05178	0.0012667	2.03e-05
1	298.15	0.08142	0.001291	2.07e-05
1	298.15	0.09727	0.0013041	2.08e-05
1	298.15	0.10385	0.0013095	2.09e-05
1	298.15	0.15285	0.0013498	2.14e-05
1	308.15	0.05318	0.001018	1.71e-05
1	308.15	0.07394	0.0010307	1.72e-05
1	308.15	0.09473	0.0010433	1.74e-05
1	308.15	0.10605	0.0010501	1.75e-05
1	318.15	0.05284	0.0007258	1.35e-05
1	318.15	0.07347	0.0007341	1.36e-05
1	318.15	0.09412	0.0007423	1.37e-05
1	318.15	0.10537	0.0007467	1.37e-05
2	288.15	0.05848	0.0020738	3.14e-05
2	288.15	0.07974	0.0021104	3.2e-05
2	288.15	0.09203	0.0021315	3.23e-05
2	288.15	0.11099	0.002164	3.27e-05
2	298.15	0.05768	0.0016258	2.52e-05
2	298.15	0.08221	0.0016567	2.56e-05
2	298.15	0.10715	0.0016881	2.61e-05
2	298.15	0.10754	0.0016885	2.61e-05
2	298.15	0.15967	0.0017542	2.7e-05
2	308.15	0.05918	0.0013069	2.09e-05
2	308.15	0.08357	0.0013295	2.12e-05
2	308.15	0.10359	0.0013482	2.14e-05
2	308.15	0.11612	0.0013598	2.16e-05
2	318.15	0.05848	0.0009418	1.61e-05
2	318.15	0.08258	0.0009567	1.63e-05
2	318.15	0.10235	0.0009689	1.65e-05
2	318.15	0.11474	0.0009766	1.66e-05
3	288.15	0.06152	0.0026009	3.89e-05
3	288.15	0.08527	0.0026813	4.01e-05
3	288.15	0.09803	0.0027243	4.07e-05
3	288.15	0.11998	0.0027987	4.17e-05
3	298.15	0.05482	0.0019912	3.03e-05
3	298.15	0.07912	0.0020345	3.09e-05
3	298.15	0.10445	0.0020798	3.16e-05
3	298.15	0.19265	0.0022375	3.37e-05
3	308.15	0.06505	0.0016038	2.49e-05
3	308.15	0.07891	0.001622	2.52e-05
3	308.15	0.1088	0.0016613	2.57e-05
3	308.15	0.12183	0.0016785	2.6e-05
3	318.15	0.06391	0.0011609	1.9e-05
3	318.15	0.07752	0.0011727	1.91e-05
3	318.15	0.10689	0.0011985	1.95e-05
3	318.15	0.11969	0.0012096	1.96e-05

System: D-mannose + water + magnesium chloride; phases: Liquid
Fixed: Pressure, kPa = 101
Property: Viscosity, Pa*s (Liquid); method: Capillary tube (Ostwald; Ubbelohde) method
Solvent: Molality, mol/kg of magnesium chloride	Temperature, K	Amount concentration (molarity), mol/dm3 of D-mannose	Viscosity, Pa*s	uncertainty
0.5	288.15	0.05275	0.0013837	2.19e-05
0.5	288.15	0.07154	0.0013974	2.21e-05
0.5	288.15	0.08582	0.0014079	2.22e-05
0.5	288.15	0.10537	0.0014223	2.24e-05
0.5	298.15	0.055	0.0010922	1.8e-05
0.5	298.15	0.07274	0.0011035	1.82e-05
0.5	298.15	0.09032	0.0011146	1.83e-05
0.5	298.15	0.10545	0.0011243	1.84e-05
0.5	298.15	0.15353	0.0011528	1.88e-05
0.5	308.15	0.05369	0.0008766	1.53e-05
0.5	308.15	0.09059	0.0008936	1.55e-05
0.5	308.15	0.10091	0.0008984	1.56e-05
0.5	308.15	0.11617	0.0009054	1.57e-05
0.5	318.15	0.05356	0.000605	1.21e-05
0.5	318.15	0.09037	0.0006158	1.23e-05
0.5	318.15	0.10067	0.0006188	1.23e-05
0.5	318.15	0.11588	0.0006232	1.23e-05
1	288.15	0.0546	0.0016138	2.5e-05
1	288.15	0.07713	0.0016376	2.54e-05
1	288.15	0.08936	0.0016507	2.55e-05
1	288.15	0.10299	0.0016652	2.57e-05
1	298.15	0.05603	0.0012678	2.03e-05
1	298.15	0.08092	0.001287	2.06e-05
1	298.15	0.09463	0.0012977	2.07e-05
1	298.15	0.10941	0.0013092	2.09e-05
1	308.15	0.05625	0.0010178	1.71e-05
1	308.15	0.07794	0.0010302	1.72e-05
1	308.15	0.10626	0.0010462	1.74e-05
1	308.15	0.12027	0.0010542	1.75e-05
1	318.15	0.05589	0.0007258	1.35e-05
1	318.15	0.07744	0.0007338	1.36e-05
1	318.15	0.10558	0.0007444	1.37e-05
1	318.15	0.11949	0.0007495	1.38e-05
2	288.15	0.06555	0.0020796	3.15e-05
2	288.15	0.08034	0.0021031	3.18e-05
2	288.15	0.09195	0.002122	3.21e-05
2	288.15	0.11092	0.0021526	3.25e-05
2	298.15	0.0607	0.0016252	2.52e-05
2	298.15	0.09881	0.0016705	2.58e-05
2	298.15	0.1012	0.0016733	2.59e-05
2	298.15	0.11457	0.0016892	2.61e-05
2	308.15	0.05665	0.0013024	2.08e-05
2	308.15	0.07965	0.0013229	2.11e-05
2	308.15	0.09996	0.001341	2.13e-05
2	308.15	0.10989	0.0013498	2.15e-05
2	318.15	0.05597	0.0009391	1.61e-05
2	318.15	0.0787	0.0009527	1.63e-05
2	318.15	0.09876	0.0009648	1.64e-05
2	318.15	0.10858	0.0009706	1.65e-05
3	288.15	0.06152	0.0025312	3.79e-05
3	288.15	0.08589	0.0025858	3.87e-05
3	288.15	0.09672	0.0026102	3.9e-05
3	288.15	0.11995	0.0026626	3.98e-05
3	298.15	0.0634	0.0019985	3.04e-05
3	298.15	0.09767	0.0020551	3.12e-05
3	298.15	0.10803	0.0020724	3.14e-05
3	298.15	0.12474	0.0021002	3.18e-05
3	308.15	0.0612	0.0015935	2.48e-05
3	308.15	0.08203	0.0016187	2.51e-05
3	308.15	0.10494	0.0016469	2.55e-05
3	308.15	0.11881	0.0016639	2.58e-05
3	318.15	0.05962	0.0011532	1.89e-05
3	318.15	0.07958	0.0011691	1.91e-05
3	318.15	0.10311	0.0011883	1.93e-05
3	318.15	0.11673	0.0011994	1.95e-05

System: D-cellobiose + water + magnesium chloride; phases: Liquid
Fixed: Pressure, kPa = 101
Property: Viscosity, Pa*s (Liquid); method: Capillary tube (Ostwald; Ubbelohde) method
Solvent: Molality, mol/kg of magnesium chloride	Temperature, K	Amount concentration (molarity), mol/dm3 of D-cellobiose	Viscosity, Pa*s	uncertainty
0.5	288.15	0.05415	0.0014267	2.25e-05
0.5	288.15	0.07517	0.0014586	2.29e-05
0.5	288.15	0.07793	0.0014629	2.3e-05
0.5	288.15	0.0986	0.0014939	2.34e-05
0.5	298.15	0.06138	0.0011268	1.85e-05
0.5	298.15	0.07574	0.0011429	1.87e-05
0.5	298.15	0.10386	0.0011747	1.91e-05
0.5	298.15	0.11143	0.0011832	1.92e-05
0.5	308.15	0.05078	0.0008947	1.55e-05
0.5	308.15	0.06838	0.0009097	1.57e-05
0.5	308.15	0.08974	0.0009278	1.59e-05
0.5	308.15	0.10118	0.0009375	1.61e-05
0.5	318.15	0.05066	0.0006172	1.23e-05
0.5	318.15	0.06822	0.0006269	1.24e-05
0.5	318.15	0.08952	0.0006386	1.25e-05
0.5	318.15	0.10093	0.0006449	1.26e-05
1	288.15	0.05465	0.0016568	2.56e-05
1	288.15	0.0778	0.0016992	2.62e-05
1	288.15	0.08319	0.0017093	2.64e-05
1	288.15	0.10462	0.001749	2.69e-05
1	298.15	0.05235	0.0012963	2.07e-05
1	298.15	0.07907	0.0013332	2.12e-05
1	298.15	0.09915	0.0013607	2.16e-05
1	298.15	0.10532	0.0013693	2.17e-05
1	308.15	0.05416	0.0010429	1.74e-05
1	308.15	0.07282	0.0010625	1.77e-05
1	308.15	0.09352	0.0010844	1.79e-05
1	308.15	0.10255	0.0010938	1.81e-05
1	318.15	0.05382	0.0007427	1.37e-05
1	318.15	0.07237	0.0007557	1.39e-05
1	318.15	0.09292	0.0007701	1.4e-05
1	318.15	0.1019	0.0007764	1.41e-05
2	288.15	0.05853	0.0021234	3.21e-05
2	288.15	0.08328	0.0021869	3.3e-05
2	288.15	0.09194	0.002209	3.33e-05
2	288.15	0.11219	0.0022609	3.41e-05
2	298.15	0.05826	0.0016649	2.57e-05
2	298.15	0.07609	0.0016991	2.62e-05
2	298.15	0.09476	0.001735	2.67e-05
2	298.15	0.10589	0.0017564	2.7e-05
2	308.15	0.05752	0.0013358	2.13e-05
2	308.15	0.07506	0.0013613	2.16e-05
2	308.15	0.09753	0.001394	2.21e-05
2	308.15	0.11014	0.0014124	2.23e-05
2	318.15	0.05684	0.0009623	1.64e-05
2	318.15	0.07407	0.0009794	1.66e-05
2	318.15	0.09637	0.0010016	1.69e-05
2	318.15	0.10883	0.001014	1.71e-05
3	288.15	0.06044	0.0026045	3.89e-05
3	288.15	0.08876	0.0027038	4.04e-05
3	288.15	0.10037	0.0027444	4.09e-05
3	288.15	0.12299	0.0028239	4.21e-05
3	298.15	0.06406	0.0020589	3.12e-05
3	298.15	0.08222	0.0021061	3.19e-05
3	298.15	0.09883	0.002149	3.25e-05
3	298.15	0.11419	0.0021888	3.31e-05
3	308.15	0.06069	0.0016367	2.54e-05
3	308.15	0.08008	0.0016742	2.59e-05
3	308.15	0.10625	0.0017254	2.66e-05
3	308.15	0.11673	0.0017459	2.69e-05
3	318.15	0.05963	0.001184	1.93e-05
3	318.15	0.07868	0.0012094	1.96e-05
3	318.15	0.1044	0.0012436	2.01e-05
3	318.15	0.1147	0.0012573	2.03e-05

System: 6-.alpha.-D-galactopyranosyl-D-glucopyranose + water + magnesium chloride; phases: Liquid
Fixed: Pressure, kPa = 101
Property: Viscosity, Pa*s (Liquid); method: Capillary tube (Ostwald; Ubbelohde) method
Solvent: Molality, mol/kg of magnesium chloride	Temperature, K	Amount concentration (molarity), mol/dm3 of 6-.alpha.-D-galactopyranosyl-D-glucopyranose	Viscosity, Pa*s	uncertainty
0.5	288.15	0.05505	0.0014295	2.25e-05
0.5	288.15	0.07471	0.0014595	2.29e-05
0.5	288.15	0.08004	0.0014678	2.3e-05
0.5	288.15	0.10366	0.0015042	2.35e-05
0.5	298.15	0.05279	0.0011179	1.84e-05
0.5	298.15	0.07951	0.0011483	1.88e-05
0.5	298.15	0.09392	0.0011648	1.9e-05
0.5	298.15	0.09918	0.0011709	1.9e-05
0.5	308.15	0.04945	0.0008941	1.55e-05
0.5	308.15	0.06914	0.000911	1.57e-05
0.5	308.15	0.0909	0.0009298	1.6e-05
0.5	308.15	0.10021	0.0009378	1.61e-05
0.5	318.15	0.04933	0.0006167	1.23e-05
0.5	318.15	0.06898	0.0006276	1.24e-05
0.5	318.15	0.09068	0.0006397	1.25e-05
0.5	318.15	0.09996	0.0006449	1.26e-05
1	288.15	0.05438	0.0016583	2.56e-05
1	288.15	0.07555	0.0016983	2.62e-05
1	288.15	0.08245	0.0017114	2.64e-05
1	288.15	0.10414	0.0017523	2.69e-05
1	298.15	0.05426	0.0013005	2.08e-05
1	298.15	0.07769	0.0013335	2.12e-05
1	298.15	0.09717	0.0013608	2.16e-05
1	298.15	0.10039	0.0013654	2.17e-05
1	308.15	0.05316	0.0010426	1.74e-05
1	308.15	0.07251	0.0010632	1.77e-05
1	308.15	0.09309	0.0010852	1.79e-05
1	308.15	0.10353	0.0010963	1.81e-05
1	318.15	0.05282	0.0007426	1.37e-05
1	318.15	0.07204	0.0007563	1.39e-05
1	318.15	0.0925	0.0007709	1.4e-05
1	318.15	0.10286	0.0007783	1.41e-05
2	288.15	0.05762	0.0021238	3.21e-05
2	288.15	0.08302	0.0021901	3.31e-05
2	288.15	0.08936	0.0022065	3.33e-05
2	288.15	0.112	0.0022657	3.41e-05
2	298.15	0.05315	0.0016567	2.56e-05
2	298.15	0.07892	0.0017069	2.63e-05
2	298.15	0.10267	0.0017533	2.7e-05
2	298.15	0.11495	0.0017772	2.73e-05
2	308.15	0.05635	0.0013349	2.13e-05
2	308.15	0.07446	0.0013618	2.16e-05
2	308.15	0.09709	0.0013951	2.21e-05
2	308.15	0.10931	0.0014131	2.23e-05
2	318.15	0.05568	0.0009619	1.64e-05
2	318.15	0.07357	0.0009801	1.66e-05
2	318.15	0.09593	0.0010027	1.69e-05
2	318.15	0.10801	0.0010148	1.71e-05
3	288.15	0.06225	0.0026114	3.9e-05
3	288.15	0.08877	0.0027047	4.04e-05
3	288.15	0.10099	0.0027478	4.1e-05
3	288.15	0.12724	0.0028399	4.23e-05
3	298.15	0.0554	0.0020366	3.09e-05
3	298.15	0.08235	0.0021065	3.19e-05
3	298.15	0.09702	0.0021443	3.24e-05
3	298.15	0.10735	0.0021712	3.28e-05
3	308.15	0.06013	0.0016369	2.54e-05
3	308.15	0.07902	0.0016741	2.59e-05
3	308.15	0.10531	0.001726	2.66e-05
3	308.15	0.12163	0.0017582	2.71e-05
3	318.15	0.05908	0.0011842	1.93e-05
3	318.15	0.07764	0.0012089	1.96e-05
3	318.15	0.10348	0.0012437	2.01e-05
3	318.15	0.11384	0.0012576	2.03e-05

System: D-sucrose + water + magnesium chloride; phases: Liquid
Fixed: Pressure, kPa = 101
Property: Viscosity, Pa*s (Liquid); method: Capillary tube (Ostwald; Ubbelohde) method
Solvent: Molality, mol/kg of magnesium chloride	Temperature, K	Amount concentration (molarity), mol/dm3 of D-sucrose	Viscosity, Pa*s	uncertainty
0.5	288.15	0.05355	0.0014457	2.27e-05
0.5	288.15	0.07494	0.001486	2.33e-05
0.5	288.15	0.08605	0.001507	2.36e-05
0.5	288.15	0.10769	0.0015477	2.41e-05
0.5	298.15	0.04674	0.0011207	1.84e-05
0.5	298.15	0.06648	0.0011475	1.88e-05
0.5	298.15	0.08694	0.0011752	1.91e-05
0.5	298.15	0.09252	0.0011827	1.92e-05
0.5	308.15	0.05037	0.0009015	1.56e-05
0.5	308.15	0.07578	0.0009267	1.59e-05
0.5	308.15	0.09184	0.0009426	1.61e-05
0.5	308.15	0.10374	0.0009545	1.63e-05
0.5	318.15	0.05025	0.0006205	1.23e-05
0.5	318.15	0.0756	0.0006362	1.25e-05
0.5	318.15	0.08704	0.0006433	1.26e-05
0.5	318.15	0.09832	0.0006503	1.26e-05
1	288.15	0.0615	0.0016988	2.62e-05
1	288.15	0.07493	0.00173	2.66e-05
1	288.15	0.09324	0.0017728	2.72e-05
1	288.15	0.11645	0.0018268	2.8e-05
1	298.15	0.0495	0.0013073	2.09e-05
1	298.15	0.06942	0.0013407	2.13e-05
1	298.15	0.09006	0.0013754	2.18e-05
1	298.15	0.09646	0.001386	2.19e-05
1	308.15	0.05154	0.0010483	1.75e-05
1	308.15	0.07761	0.0010799	1.79e-05
1	308.15	0.0953	0.0011014	1.82e-05
1	308.15	0.10819	0.0011171	1.84e-05
1	318.15	0.05121	0.0007453	1.37e-05
1	318.15	0.07699	0.0007657	1.4e-05
1	318.15	0.09469	0.0007796	1.41e-05
1	318.15	0.1075	0.0007897	1.43e-05
2	288.15	0.06075	0.0021739	3.29e-05
2	288.15	0.08371	0.0022497	3.39e-05
2	288.15	0.10318	0.002314	3.48e-05
2	288.15	0.11707	0.00236	3.55e-05
2	298.15	0.06165	0.0016988	2.62e-05
2	298.15	0.08307	0.0017493	2.69e-05
2	298.15	0.10993	0.0018128	2.78e-05
2	298.15	0.11867	0.0018334	2.81e-05
2	308.15	0.05712	0.0013503	2.15e-05
2	308.15	0.08056	0.0013907	2.2e-05
2	308.15	0.10072	0.0014254	2.25e-05
2	308.15	0.11436	0.0014489	2.28e-05
2	318.15	0.05645	0.0009688	1.65e-05
2	318.15	0.07961	0.0009946	1.68e-05
2	318.15	0.09952	0.0010169	1.71e-05
2	318.15	0.11301	0.001032	1.73e-05
3	288.15	0.06577	0.0026868	4.01e-05
3	288.15	0.08881	0.0027896	4.16e-05
3	288.15	0.10075	0.002843	4.23e-05
3	288.15	0.12539	0.0029531	4.39e-05
3	298.15	0.05453	0.0020678	3.14e-05
3	298.15	0.08641	0.0021699	3.28e-05
3	298.15	0.09161	0.0021865	3.31e-05
3	298.15	0.12782	0.0023026	3.47e-05
3	308.15	0.06031	0.0016575	2.57e-05
3	308.15	0.08492	0.0017142	2.65e-05
3	308.15	0.10682	0.0017647	2.72e-05
3	308.15	0.1248	0.0018062	2.77e-05
3	318.15	0.05926	0.0011933	1.94e-05
3	318.15	0.08345	0.0012293	1.99e-05
3	318.15	0.10497	0.0012615	2.03e-05
3	318.15	0.12264	0.0012879	2.07e-05

System: .alpha.-D-lactose hydrate + water + magnesium chloride; phases: Liquid
Fixed: Pressure, kPa = 101
Property: Viscosity, Pa*s (Liquid); method: Capillary tube (Ostwald; Ubbelohde) method
Solvent: Molality, mol/kg of magnesium chloride	Temperature, K	Amount concentration (molarity), mol/dm3 of .alpha.-D-lactose hydrate	Viscosity, Pa*s	uncertainty
0.5	288.15	0.04855	0.0014401	2.27e-05
0.5	288.15	0.07091	0.001484	2.33e-05
0.5	288.15	0.08294	0.0015077	2.36e-05
0.5	288.15	0.09949	0.0015402	2.4e-05
0.5	298.15	0.05951	0.0011419	1.87e-05
0.5	298.15	0.07927	0.00117	1.91e-05
0.5	298.15	0.09819	0.0011969	1.94e-05
0.5	298.15	0.10778	0.0012104	1.96e-05
0.5	308.15	0.05147	0.0009061	1.57e-05
0.5	308.15	0.07073	0.0009265	1.59e-05
0.5	308.15	0.09219	0.0009493	1.62e-05
0.5	308.15	0.10142	0.0009591	1.63e-05
0.5	318.15	0.05135	0.0006233	1.23e-05
0.5	318.15	0.07045	0.0006359	1.25e-05
0.5	318.15	0.09196	0.0006502	1.26e-05
0.5	318.15	0.10116	0.0006562	1.27e-05
1	288.15	0.05281	0.0016838	2.6e-05
1	288.15	0.07391	0.0017352	2.67e-05
1	288.15	0.08476	0.0017616	2.71e-05
1	288.15	0.10531	0.0018115	2.78e-05
1	298.15	0.05791	0.0013265	2.11e-05
1	298.15	0.08127	0.0013678	2.17e-05
1	298.15	0.09132	0.0013855	2.19e-05
1	298.15	0.10539	0.0014104	2.23e-05
1	308.15	0.0523	0.0010546	1.75e-05
1	308.15	0.07287	0.0010816	1.79e-05
1	308.15	0.09303	0.0011081	1.82e-05
1	308.15	0.10381	0.0011223	1.84e-05
1	318.15	0.05197	0.0007487	1.38e-05
1	318.15	0.07241	0.0007659	1.4e-05
1	318.15	0.09244	0.0007828	1.42e-05
1	318.15	0.10314	0.0007918	1.43e-05
2	288.15	0.05764	0.0021709	3.28e-05
2	288.15	0.07822	0.0022436	3.38e-05
2	288.15	0.08993	0.0022816	3.44e-05
2	288.15	0.11195	0.0023572	3.54e-05
2	298.15	0.05661	0.0016924	2.61e-05
2	298.15	0.07491	0.0017371	2.68e-05
2	298.15	0.09236	0.0017802	2.73e-05
2	298.15	0.11235	0.0018294	2.8e-05
2	308.15	0.05573	0.0013533	2.15e-05
2	308.15	0.07685	0.0013917	2.2e-05
2	308.15	0.10012	0.0014342	2.26e-05
2	308.15	0.10918	0.0014506	2.28e-05
2	318.15	0.05507	0.0009715	1.65e-05
2	318.15	0.07594	0.0009965	1.68e-05
2	318.15	0.09894	0.001024	1.72e-05
2	318.15	0.10789	0.0010347	1.73e-05
3	288.15	0.06047	0.0026743	3.99e-05
3	288.15	0.08405	0.0027841	4.15e-05
3	288.15	0.09571	0.0028385	4.23e-05
3	288.15	0.1249	0.0029746	4.42e-05
3	298.15	0.06218	0.0021008	3.18e-05
3	298.15	0.07943	0.0021581	3.26e-05
3	298.15	0.0995	0.0022251	3.36e-05
3	298.15	0.11626	0.0022812	3.44e-05
3	308.15	0.05944	0.0016668	2.58e-05
3	308.15	0.08064	0.0017195	2.65e-05
3	308.15	0.10731	0.0017861	2.75e-05
3	308.15	0.11551	0.0018066	2.77e-05
3	318.15	0.0584	0.0011971	1.95e-05
3	318.15	0.07925	0.0012298	1.99e-05
3	318.15	0.10546	0.0012712	2.05e-05
3	318.15	0.11352	0.0012839	2.06e-05

System: D-(+)-maltose monohydrate + water + magnesium chloride; phases: Liquid
Fixed: Pressure, kPa = 101
Property: Viscosity, Pa*s (Liquid); method: Capillary tube (Ostwald; Ubbelohde) method
Solvent: Molality, mol/kg of magnesium chloride	Temperature, K	Amount concentration (molarity), mol/dm3 of D-(+)-maltose monohydrate	Viscosity, Pa*s	uncertainty
0.5	288.15	0.04901	0.001445	2.27e-05
0.5	288.15	0.07122	0.0014904	2.33e-05
0.5	288.15	0.0907	0.0015302	2.39e-05
0.5	288.15	0.10885	0.0015674	2.44e-05
0.5	298.15	0.05905	0.0011409	1.87e-05
0.5	298.15	0.07307	0.0011605	1.89e-05
0.5	298.15	0.09418	0.0011904	1.93e-05
0.5	298.15	0.111	0.0012142	1.96e-05
0.5	308.15	0.05246	0.000907	1.57e-05
0.5	308.15	0.06216	0.0009171	1.58e-05
0.5	308.15	0.09131	0.0009479	1.62e-05
0.5	308.15	0.11206	0.0009698	1.65e-05
0.5	318.15	0.05234	0.0006251	1.24e-05
0.5	318.15	0.06201	0.0006317	1.24e-05
0.5	318.15	0.09108	0.0006516	1.27e-05
0.5	318.15	0.11426	0.0006675	1.28e-05
1	288.15	0.05447	0.001693	2.61e-05
1	288.15	0.07377	0.0017415	2.68e-05
1	288.15	0.08654	0.0017737	2.72e-05
1	288.15	0.10481	0.0018198	2.79e-05
1	298.15	0.05645	0.0013279	2.11e-05
1	298.15	0.07845	0.0013682	2.17e-05
1	298.15	0.0978	0.0014037	2.22e-05
1	298.15	0.11261	0.0014308	2.25e-05
1	308.15	0.05312	0.0010595	1.76e-05
1	308.15	0.07332	0.0010876	1.8e-05
1	308.15	0.09295	0.0011149	1.83e-05
1	308.15	0.11064	0.0011395	1.87e-05
1	318.15	0.05279	0.0007523	1.38e-05
1	318.15	0.07285	0.0007702	1.4e-05
1	318.15	0.09235	0.0007878	1.42e-05
1	318.15	0.10992	0.0008035	1.44e-05
2	288.15	0.07917	0.0022542	3.4e-05
2	288.15	0.08986	0.0022923	3.45e-05
2	288.15	0.10802	0.0023566	3.54e-05
2	298.15	0.05472	0.0016919	2.61e-05
2	298.15	0.08605	0.0017712	2.72e-05
2	298.15	0.09805	0.0018016	2.76e-05
2	298.15	0.09983	0.0018061	2.77e-05
2	308.15	0.05652	0.0013587	2.16e-05
2	308.15	0.07764	0.0013989	2.21e-05
2	308.15	0.10526	0.001451	2.28e-05
2	308.15	0.11151	0.0014628	2.3e-05
2	318.15	0.05585	0.0009752	1.66e-05
2	318.15	0.07672	0.0010012	1.69e-05
2	318.15	0.10401	0.0010351	1.73e-05
2	318.15	0.11018	0.0010428	1.74e-05
3	288.15	0.0629	0.002692	4.02e-05
3	288.15	0.08469	0.0027956	4.17e-05
3	288.15	0.09581	0.0028487	4.24e-05
3	288.15	0.12467	0.0029861	4.44e-05
3	298.15	0.05522	0.0020852	3.16e-05
3	298.15	0.08197	0.0021784	3.29e-05
3	298.15	0.0976	0.0022329	3.37e-05
3	298.15	0.11521	0.0022942	3.45e-05
3	308.15	0.05912	0.0016692	2.58e-05
3	308.15	0.07765	0.0017166	2.65e-05
3	308.15	0.10717	0.001792	2.75e-05
3	308.15	0.14218	0.0018813	2.88e-05
3	318.15	0.05809	0.0012051	1.96e-05
3	318.15	0.0763	0.0012363	2e-05
3	318.15	0.10532	0.0012864	2.07e-05
3	318.15	0.13972	0.0013458	2.15e-05

System: D-(+)-trehalose dihydrate + water + magnesium chloride; phases: Liquid
Fixed: Pressure, kPa = 101
Property: Viscosity, Pa*s (Liquid); method: Capillary tube (Ostwald; Ubbelohde) method
Solvent: Molality, mol/kg of magnesium chloride	Temperature, K	Amount concentration (molarity), mol/dm3 of D-(+)-trehalose dihydrate	Viscosity, Pa*s	uncertainty
0.5	288.15	0.05231	0.0014816	2.32e-05
0.5	288.15	0.07065	0.0015294	2.39e-05
0.5	288.15	0.07935	0.0015523	2.42e-05
0.5	288.15	0.09831	0.0016018	2.49e-05
0.5	298.15	0.05522	0.0011604	1.89e-05
0.5	298.15	0.07649	0.0012	1.94e-05
0.5	298.15	0.08866	0.0012227	1.97e-05
0.5	298.15	0.10697	0.0012568	2.02e-05
0.5	308.15	0.05097	0.000919	1.58e-05
0.5	308.15	0.07551	0.0009515	1.62e-05
0.5	308.15	0.08561	0.0009649	1.64e-05
0.5	308.15	0.10027	0.0009842	1.67e-05
0.5	318.15	0.05084	0.0006318	1.24e-05
0.5	318.15	0.07533	0.0006523	1.27e-05
0.5	318.15	0.0854	0.0006607	1.28e-05
0.5	318.15	0.10002	0.0006729	1.29e-05
1	288.15	0.05455	0.0017454	2.69e-05
1	288.15	0.07579	0.0018195	2.79e-05
1	288.15	0.08273	0.0018436	2.82e-05
1	288.15	0.10448	0.0019193	2.93e-05
1	298.15	0.06183	0.0013755	2.18e-05
1	298.15	0.07422	0.0014059	2.22e-05
1	298.15	0.09604	0.0014592	2.29e-05
1	298.15	0.10359	0.0014777	2.32e-05
1	308.15	0.0511	0.0010717	1.78e-05
1	308.15	0.0742	0.0011105	1.83e-05
1	308.15	0.08648	0.0011311	1.85e-05
1	308.15	0.10447	0.0011614	1.89e-05
1	318.15	0.05078	0.0007621	1.39e-05
1	318.15	0.07372	0.0007878	1.42e-05
1	318.15	0.08592	0.0008015	1.44e-05
1	318.15	0.10314	0.0008209	1.46e-05
2	288.15	0.05855	0.0022682	3.42e-05
2	288.15	0.08081	0.0023801	3.58e-05
2	288.15	0.09261	0.0024395	3.66e-05
2	288.15	0.1108	0.0025309	3.79e-05
2	298.15	0.05568	0.0017472	2.69e-05
2	298.15	0.07966	0.0018306	2.81e-05
2	298.15	0.09653	0.0018893	2.89e-05
2	298.15	0.10407	0.0019156	2.92e-05
2	308.15	0.05577	0.001391	2.2e-05
2	308.15	0.0816	0.0014552	2.29e-05
2	308.15	0.09956	0.0015	2.35e-05
2	308.15	0.11511	0.0015388	2.4e-05
2	318.15	0.0551	0.0009939	1.68e-05
2	318.15	0.08063	0.0010347	1.73e-05
2	318.15	0.09837	0.001063	1.77e-05
2	318.15	0.11373	0.0010876	1.8e-05
3	288.15	0.06088	0.0028002	4.17e-05
3	288.15	0.08915	0.0029894	4.44e-05
3	288.15	0.097	0.0030418	4.52e-05
3	288.15	0.11811	0.0031832	4.72e-05
3	298.15	0.0558	0.0021555	3.26e-05
3	298.15	0.07821	0.0022606	3.41e-05
3	298.15	0.09688	0.0023484	3.54e-05
3	298.15	0.10894	0.002405	3.61e-05
3	308.15	0.0589	0.001719	2.65e-05
3	308.15	0.08625	0.0018122	2.78e-05
3	308.15	0.10674	0.0018821	2.88e-05
3	308.15	0.12048	0.001929	2.95e-05
3	318.15	0.05788	0.0012288	1.99e-05
3	318.15	0.08475	0.0012862	2.07e-05
3	318.15	0.10488	0.0013294	2.13e-05
3	318.15	0.11838	0.0013582	2.16e-05

System: water + magnesium chloride + D-raffinose, pentahydrate; phases: Liquid
Fixed: Pressure, kPa = 101
Property: Viscosity, Pa*s (Liquid); method: Capillary tube (Ostwald; Ubbelohde) method
Solvent: Molality, mol/kg of magnesium chloride	Temperature, K	Amount concentration (molarity), mol/dm3 of D-raffinose, pentahydrate	Viscosity, Pa*s	uncertainty
0.5	288.15	0.05163	0.0014985	2.35e-05
0.5	288.15	0.06998	0.0015531	2.42e-05
0.5	288.15	0.08378	0.0015943	2.48e-05
0.5	288.15	0.10663	0.0016623	2.57e-05
0.5	298.15	0.05188	0.0011687	1.9e-05
0.5	298.15	0.06815	0.0012036	1.95e-05
0.5	298.15	0.08834	0.0012469	2.01e-05
0.5	298.15	0.1074	0.0012878	2.06e-05
0.5	308.15	0.05287	0.0009338	1.6e-05
0.5	308.15	0.0675	0.0009566	1.63e-05
0.5	308.15	0.08849	0.0009892	1.67e-05
0.5	308.15	0.10442	0.001014	1.7e-05
0.5	308.15	0.14058	0.0010702	1.78e-05
0.5	318.15	0.05275	0.0006406	1.25e-05
0.5	318.15	0.06734	0.0006549	1.27e-05
0.5	318.15	0.08827	0.0006753	1.29e-05
0.5	318.15	0.10416	0.0006908	1.31e-05
0.5	318.15	0.14022	0.0007259	1.35e-05
1	288.15	0.04285	0.001719	2.65e-05
1	288.15	0.06197	0.0017919	2.75e-05
1	288.15	0.08314	0.0018727	2.86e-05
1	288.15	0.08718	0.0018882	2.88e-05
1	298.15	0.05227	0.0013685	2.17e-05
1	298.15	0.07318	0.0014262	2.25e-05
1	298.15	0.08875	0.0014692	2.31e-05
1	298.15	0.09927	0.0014983	2.35e-05
1	308.15	0.07474	0.0011375	1.86e-05
1	308.15	0.08194	0.0011521	1.88e-05
1	308.15	0.0886	0.0011656	1.9e-05
1	308.15	0.1001	0.001189	1.93e-05
1	308.15	0.15108	0.0012925	2.07e-05
1	318.15	0.07425	0.0008021	1.44e-05
1	318.15	0.08134	0.0008113	1.45e-05
1	318.15	0.08803	0.0008202	1.46e-05
1	318.15	0.1501	0.0009014	1.56e-05
2	288.15	0.05086	0.0022807	3.44e-05
2	288.15	0.0663	0.0023734	3.57e-05
2	288.15	0.07171	0.0024064	3.61e-05
2	288.15	0.1068	0.0026181	3.91e-05
2	298.15	0.05266	0.0017823	2.74e-05
2	298.15	0.07391	0.0018744	2.87e-05
2	298.15	0.09568	0.001969	3e-05
2	298.15	0.10076	0.0019911	3.03e-05
2	308.15	0.05142	0.0014138	2.23e-05
2	308.15	0.07303	0.0014817	2.32e-05
2	308.15	0.09484	0.0015504	2.42e-05
2	308.15	0.10087	0.0015694	2.45e-05
2	318.15	0.05082	0.0010095	1.7e-05
2	318.15	0.07217	0.0010531	1.76e-05
2	318.15	0.09372	0.0010972	1.82e-05
2	318.15	0.09969	0.0011094	1.83e-05
3	288.15	0.06038	0.0028653	4.27e-05
3	288.15	0.07569	0.0029844	4.44e-05
3	288.15	0.09018	0.0030981	4.6e-05
3	288.15	0.10628	0.0032239	4.78e-05
3	298.15	0.06069	0.0022297	3.37e-05
3	298.15	0.07563	0.0023124	3.48e-05
3	298.15	0.09447	0.0024169	3.63e-05
3	298.15	0.11438	0.0025273	3.79e-05
3	308.15	0.05961	0.001753	2.7e-05
3	308.15	0.07218	0.0018025	2.77e-05
3	308.15	0.09244	0.0018822	2.88e-05
3	308.15	0.1117	0.001958	2.99e-05
3	318.15	0.05858	0.0012532	2.02e-05
3	318.15	0.07093	0.0012844	2.06e-05
3	318.15	0.09085	0.0013348	2.13e-05
3	318.15	0.10979	0.0013828	2.2e-05

System: methyl-.alpha.-D-glucopyranoside + water + magnesium chloride; phases: Liquid
Fixed: Pressure, kPa = 101
Property: Viscosity, Pa*s (Liquid); method: Capillary tube (Ostwald; Ubbelohde) method
Solvent: Molality, mol/kg of magnesium chloride	Temperature, K	Amount concentration (molarity), mol/dm3 of methyl-.alpha.-D-glucopyranoside	Viscosity, Pa*s	uncertainty
0.5	288.15	0.05936	0.0013932	2.2e-05
0.5	288.15	0.07236	0.0014037	2.22e-05
0.5	288.15	0.09866	0.0014251	2.25e-05
0.5	288.15	0.11245	0.0014362	2.26e-05
0.5	298.15	0.05423	0.0010898	1.8e-05
0.5	298.15	0.07497	0.0011022	1.82e-05
0.5	298.15	0.09718	0.0011155	1.83e-05
0.5	298.15	0.12631	0.0011329	1.86e-05
0.5	308.15	0.05001	0.0008738	1.53e-05
0.5	308.15	0.07212	0.0008836	1.54e-05
0.5	308.15	0.09549	0.000894	1.55e-05
0.5	308.15	0.12152	0.0009055	1.56e-05
0.5	318.15	0.04989	0.0006019	1.21e-05
0.5	318.15	0.07194	0.0006096	1.22e-05
0.5	318.15	0.09526	0.0006162	1.23e-05
0.5	318.15	0.12122	0.0006235	1.23e-05
1	288.15	0.05368	0.0016103	2.5e-05
1	288.15	0.07015	0.0016269	2.52e-05
1	288.15	0.08717	0.0016442	2.55e-05
1	288.15	0.30923	0.00187	2.86e-05
1	298.15	0.05886	0.001268	2.03e-05
1	298.15	0.07976	0.0012835	2.06e-05
1	298.15	0.10116	0.0012994	2.08e-05
1	298.15	0.11159	0.0013071	2.09e-05
1	308.15	0.05845	0.0010177	1.71e-05
1	308.15	0.07211	0.0010251	1.72e-05
1	308.15	0.09677	0.0010385	1.73e-05
1	308.15	0.1087	0.001045	1.74e-05
1	318.15	0.05807	0.0007258	1.35e-05
1	318.15	0.07166	0.0007303	1.35e-05
1	318.15	0.09605	0.0007395	1.37e-05
1	318.15	0.10801	0.0007438	1.37e-05
2	288.15	0.05232	0.0020474	3.11e-05
2	288.15	0.06082	0.0020592	3.12e-05
2	288.15	0.09403	0.002106	3.19e-05
2	288.15	0.11165	0.0021309	3.22e-05
2	298.15	0.05371	0.0016082	2.5e-05
2	298.15	0.07539	0.0016304	2.53e-05
2	298.15	0.09547	0.0016511	2.56e-05
2	298.15	0.11168	0.0016677	2.58e-05
2	308.15	0.05257	0.0012923	2.07e-05
2	308.15	0.07282	0.001308	2.09e-05
2	308.15	0.09398	0.0013243	2.11e-05
2	308.15	0.11094	0.0013373	2.13e-05
2	318.15	0.05194	0.0009325	1.6e-05
2	318.15	0.07195	0.0009427	1.61e-05
2	318.15	0.09286	0.0009535	1.63e-05
2	318.15	0.10962	0.0009622	1.64e-05
3	288.15	0.05138	0.0024882	3.73e-05
3	288.15	0.05825	0.0025009	3.75e-05
3	288.15	0.08926	0.0025585	3.83e-05
3	288.15	0.11572	0.0026076	3.9e-05
3	298.15	0.059	0.0019745	3.01e-05
3	298.15	0.08807	0.0020144	3.06e-05
3	298.15	0.09939	0.0020302	3.08e-05
3	298.15	0.11348	0.0020495	3.11e-05
3	308.15	0.05749	0.0015765	2.45e-05
3	308.15	0.08018	0.0015995	2.49e-05
3	308.15	0.09728	0.0016168	2.51e-05
3	308.15	0.11308	0.0016328	2.53e-05
3	318.15	0.05648	0.0011431	1.87e-05
3	318.15	0.07878	0.0011583	1.89e-05
3	318.15	0.09557	0.0011698	1.91e-05
3	318.15	0.11109	0.0011803	1.92e-05

System: methyl .alpha.-D-xylopyranoside + water + magnesium chloride; phases: Liquid
Fixed: Pressure, kPa = 101
Property: Viscosity, Pa*s (Liquid); method: Capillary tube (Ostwald; Ubbelohde) method
Solvent: Molality, mol/kg of magnesium chloride	Temperature, K	Amount concentration (molarity), mol/dm3 of methyl .alpha.-D-xylopyranoside	Viscosity, Pa*s	uncertainty
0.5	288.15	0.05294	0.0013741	2.18e-05
0.5	288.15	0.07308	0.0013853	2.19e-05
0.5	288.15	0.08384	0.0013912	2.2e-05
0.5	288.15	0.10336	0.0014021	2.21e-05
0.5	298.15	0.05052	0.0010778	1.78e-05
0.5	298.15	0.06824	0.001085	1.79e-05
0.5	298.15	0.07918	0.0010894	1.8e-05
0.5	298.15	0.10275	0.0010991	1.81e-05
0.5	308.15	0.05058	0.000867	1.52e-05
0.5	308.15	0.06852	0.0008724	1.52e-05
0.5	308.15	0.10082	0.0008822	1.54e-05
0.5	318.15	0.05046	0.0005991	1.21e-05
0.5	318.15	0.06836	0.0006025	1.21e-05
0.5	318.15	0.10058	0.0006087	1.22e-05
1	288.15	0.05985	0.0015998	2.48e-05
1	288.15	0.06984	0.0016073	2.49e-05
1	288.15	0.08287	0.0016169	2.51e-05
1	288.15	0.11513	0.0016409	2.54e-05
1	298.15	0.05733	0.0012544	2.02e-05
1	298.15	0.07135	0.0012617	2.03e-05
1	298.15	0.08634	0.0012695	2.04e-05
1	298.15	0.1103	0.0012821	2.05e-05
1	308.15	0.05577	0.0010075	1.69e-05
1	308.15	0.06919	0.0010126	1.7e-05
1	308.15	0.10687	0.0010272	1.72e-05
1	318.15	0.05541	0.0007191	1.34e-05
1	318.15	0.06875	0.0007225	1.35e-05
1	318.15	0.10618	0.000732	1.36e-05
2	288.15	0.07766	0.0020531	3.11e-05
2	288.15	0.07993	0.0020553	3.12e-05
2	288.15	0.09857	0.0020744	3.14e-05
2	288.15	0.13423	0.0021109	3.2e-05
2	298.15	0.07648	0.0016104	2.5e-05
2	298.15	0.07924	0.0016124	2.5e-05
2	298.15	0.09325	0.0016231	2.52e-05
2	298.15	0.12774	0.0016488	2.55e-05
2	308.15	0.0754	0.0012932	2.07e-05
2	308.15	0.07812	0.0012946	2.07e-05
2	308.15	0.12314	0.0013193	2.1e-05
2	318.15	0.0745	0.0009324	1.6e-05
2	318.15	0.07719	0.0009333	1.6e-05
2	318.15	0.12167	0.0009493	1.62e-05
3	288.15	0.05959	0.0024733	3.71e-05
3	288.15	0.08941	0.0025135	3.76e-05
3	288.15	0.117	0.0025509	3.82e-05
3	288.15	0.15441	0.0026013	3.89e-05
3	298.15	0.0588	0.0019529	2.98e-05
3	298.15	0.0852	0.0019798	3.01e-05
3	298.15	0.1122	0.0020073	3.05e-05
3	298.15	0.14996	0.0020455	3.11e-05
3	308.15	0.0543	0.0015591	2.43e-05
3	308.15	0.08312	0.0015809	2.46e-05
3	308.15	0.1435	0.0016264	2.52e-05
3	318.15	0.05637	0.0011321	1.86e-05
3	318.15	0.08166	0.0011444	1.88e-05
3	318.15	0.14097	0.0011732	1.91e-05

System: methyl .beta.-D-xylopyranoside + water + magnesium chloride; phases: Liquid
Fixed: Pressure, kPa = 101
Property: Viscosity, Pa*s (Liquid); method: Capillary tube (Ostwald; Ubbelohde) method
Solvent: Molality, mol/kg of magnesium chloride	Temperature, K	Amount concentration (molarity), mol/dm3 of methyl .beta.-D-xylopyranoside	Viscosity, Pa*s	uncertainty
0.5	288.15	0.04934	0.0013726	2.17e-05
0.5	288.15	0.07248	0.0013857	2.19e-05
0.5	288.15	0.08359	0.0013919	2.2e-05
0.5	288.15	0.11883	0.0014118	2.23e-05
0.5	298.15	0.04756	0.0010771	1.78e-05
0.5	298.15	0.0771	0.0010893	1.8e-05
0.5	298.15	0.08553	0.0010928	1.8e-05
0.5	298.15	0.10988	0.001103	1.82e-05
0.5	308.15	0.05006	0.0008668	1.52e-05
0.5	308.15	0.07181	0.0008733	1.52e-05
0.5	308.15	0.10976	0.0008849	1.54e-05
0.5	318.15	0.04994	0.0005988	1.21e-05
0.5	318.15	0.07164	0.000603	1.21e-05
0.5	318.15	0.10949	0.0006103	1.22e-05
1	288.15	0.06035	0.0015987	2.48e-05
1	288.15	0.08037	0.0016131	2.5e-05
1	288.15	0.08569	0.0016168	2.51e-05
1	288.15	0.13706	0.0016535	2.56e-05
1	298.15	0.06188	0.0012569	2.02e-05
1	298.15	0.08232	0.0012675	2.03e-05
1	298.15	0.08835	0.0012707	2.04e-05
1	298.15	0.13649	0.0012961	2.07e-05
1	308.15	0.05977	0.0010093	1.7e-05
1	308.15	0.08071	0.0010175	1.71e-05
1	308.15	0.13453	0.0010387	1.73e-05
1	318.15	0.05939	0.0007201	1.34e-05
1	318.15	0.07982	0.0007256	1.35e-05
1	318.15	0.13366	0.0007395	1.37e-05
2	288.15	0.06778	0.0020401	3.1e-05
2	288.15	0.07192	0.002044	3.1e-05
2	288.15	0.08306	0.0020551	3.12e-05
2	288.15	0.12645	0.0020977	3.18e-05
2	298.15	0.06937	0.0016034	2.49e-05
2	298.15	0.0725	0.0016056	2.49e-05
2	298.15	0.08311	0.0016132	2.51e-05
2	298.15	0.12279	0.0016419	2.54e-05
2	308.15	0.06487	0.0012868	2.06e-05
2	308.15	0.07009	0.0012896	2.06e-05
2	308.15	0.12029	0.0013165	2.1e-05
2	318.15	0.06409	0.0009284	1.6e-05
2	318.15	0.06925	0.0009301	1.6e-05
2	318.15	0.11885	0.0009477	1.62e-05
3	288.15	0.07063	0.0024884	3.73e-05
3	288.15	0.08608	0.0025095	3.76e-05
3	288.15	0.1024	0.0025317	3.79e-05
3	288.15	0.16876	0.0026217	3.92e-05
3	298.15	0.06653	0.0019592	2.99e-05
3	298.15	0.08248	0.0019749	3.01e-05
3	298.15	0.1028	0.0019951	3.04e-05
3	298.15	0.16309	0.002055	3.12e-05
3	308.15	0.06336	0.0015646	2.44e-05
3	308.15	0.07859	0.0015755	2.45e-05
3	308.15	0.1594	0.0016344	2.53e-05
3	318.15	0.06226	0.0011352	1.86e-05
3	318.15	0.07721	0.0011424	1.87e-05
3	318.15	0.15661	0.0011809	1.92e-05
