Measured thermophysical data. High-pressure phase equilibria of {carbon dioxide (CO2) + n-alkyl-imidazolium bis(trifluoromethylsulfonyl)amide} ionic liquids
Source: J. Chem. Thermodyn., 2010, 10.1016/j.jct.2009.08.018
Compound 1: carbon dioxide, CO2, InChI=1S/CO2/c2-1-3
Compound 2: 1-ethyl-3-methylimidazolium bis((trifluoromethyl)sulfonyl)imide, C8H11F6N3O4S2, InChI=1S/C6H11N2.C2F6NO4S2/c1-3-8-5-4-7(2)6-8;3-1(4,5)14(10,11)9-15(12,13)2(6,7)8/h4-6H,3H2,1-2H3;/q+1;-1, purity 99%
Compound 3: 1-hexyl-3-methylimidazolium bis[(trifluoromethyl)sulfonyl]imide, C12H19F6N3O4S2, InChI=1S/C10H19N2.C2F6NO4S2/c1-3-4-5-6-7-12-9-8-11(2)10-12;3-1(4,5)14(10,11)9-15(12,13)2(6,7)8/h8-10H,3-7H2,1-2H3;/q+1;-1, purity 99%
Compound 4: 1-decyl-3-methylimidazolium bis(trifluoromethylsulfonyl)amide, C16H27F6N3O4S2, InChI=1S/C14H27N2.C2F6NO4S2/c1-3-4-5-6-7-8-9-10-11-16-13-12-15(2)14-16;3-1(4,5)14(10,11)9-15(12,13)2(6,7)8/h12-14H,3-11H2,1-2H3;/q+1;-1, purity 99%

System: carbon dioxide + 1-ethyl-3-methylimidazolium bis((trifluoromethyl)sulfonyl)imide; phases: Liquid mixture 1, Liquid mixture 2, Gas
Property: Mole fraction of carbon dioxide (Liquid mixture 1); method: Static
Pressure, kPa	Mole fraction of carbon dioxide	uncertainty
6471	0.747	0.006

System: carbon dioxide + 1-ethyl-3-methylimidazolium bis((trifluoromethyl)sulfonyl)imide; phases: Liquid mixture 1, Liquid mixture 2
Fixed: Temperature, K = 298.15
Property: Mole fraction of carbon dioxide (Liquid mixture 1); method: Static
Pressure, kPa	Mole fraction of carbon dioxide	uncertainty
10194	0.767	0.006
11608	0.777	0.006
13084	0.781	0.006
14794	0.782	0.006

System: carbon dioxide + 1-ethyl-3-methylimidazolium bis((trifluoromethyl)sulfonyl)imide; phases: Liquid, Gas
Property: Vapor or sublimation pressure, kPa (Liquid); method: Static
Temperature, K	Mole fraction of carbon dioxide	Vapor or sublimation pressure, kPa	uncertainty
298.15	0.28	1235	
298.15	0.533	3254	
323.15	0.302	2005	
323.15	0.483	4250	
323.15	0.587	6213	
323.15	0.657	8156	
323.15	0.711	10081	
323.15	0.743	12307	
323.15	0.749	14625	
343.15	0.247	2182	
343.15	0.416	4070	
343.15	0.509	6063	
343.15	0.579	7999	
343.15	0.636	9938	
343.15	0.684	12143	
343.15	0.709	14682	

System: carbon dioxide + 1-ethyl-3-methylimidazolium bis((trifluoromethyl)sulfonyl)imide; phases: Liquid
Property: Molar volume, m3/mol (Liquid); method: Static
Temperature, K	Pressure, kPa	Mole fraction of carbon dioxide	Molar volume, m3/mol	uncertainty
298.15	1235	0.28	0.00020404	1.3e-07
298.15	3254	0.533	0.0001415	1e-07
323.15	2005	0.302	0.00020211	1.4e-07
323.15	4250	0.483	0.00016073	1e-07
323.15	6213	0.587	0.00013668	8e-08
323.15	8156	0.657	0.00011967	6e-08
323.15	10081	0.711	0.00010493	6e-08
323.15	12307	0.743	9.597e-05	4e-08
323.15	14625	0.749	9.492e-05	4e-08
343.15	2182	0.247	0.00021863	1.4e-07
343.15	4070	0.416	0.00017766	1e-07
343.15	6063	0.509	0.00015589	8e-08
343.15	7999	0.579	0.00013943	8e-08
343.15	9938	0.636	0.00012491	6e-08
343.15	12143	0.684	0.00011169	6e-08
343.15	14682	0.709	0.00010559	4e-08

System: carbon dioxide + 1-ethyl-3-methylimidazolium bis((trifluoromethyl)sulfonyl)imide; phases: Liquid
Fixed: Temperature, K = 298.15
Property: Molar volume, m3/mol (Liquid); method: Static
Pressure, kPa	Mole fraction of carbon dioxide	Molar volume, m3/mol	uncertainty
10194	0.767	9.034e-05	5e-08
11608	0.777	8.747e-05	5e-08
13084	0.781	8.646e-05	5e-08
14794	0.782	8.625e-05	5e-08

System: carbon dioxide + 1-ethyl-3-methylimidazolium bis((trifluoromethyl)sulfonyl)imide; phases: Liquid
Property: Molar volume, m3/mol (Liquid); method: Static
Temperature, K	Pressure, kPa	Mole fraction of carbon dioxide	Molar volume, m3/mol	uncertainty
298.15	6471	0.747	9.622e-05	4e-08

System: carbon dioxide + 1-hexyl-3-methylimidazolium bis[(trifluoromethyl)sulfonyl]imide; phases: Liquid mixture 1, Liquid mixture 2, Gas
Property: Mole fraction of carbon dioxide (Liquid mixture 1); method: Static
Pressure, kPa	Mole fraction of carbon dioxide	uncertainty
6489	0.762	0.004

System: carbon dioxide + 1-hexyl-3-methylimidazolium bis[(trifluoromethyl)sulfonyl]imide; phases: Liquid, Gas
Property: Vapor or sublimation pressure, kPa (Liquid); method: Static
Temperature, K	Mole fraction of carbon dioxide	Vapor or sublimation pressure, kPa	uncertainty
298.15	0.396	2015	
298.15	0.592	3586	
323.15	0.139	800	
323.15	0.487	3716	
323.15	0.583	5430	
323.15	0.637	6560	
323.15	0.692	8039	
323.15	0.726	9078	
323.15	0.751	9969	
323.15	0.769	11081	
323.15	0.774	12224	
323.15	0.779	12959	
343.15	0.14	1793	
343.15	0.239	2754	
343.15	0.436	5537	
343.15	0.596	8861	
343.15	0.673	11560	
343.15	0.721	14469	
343.15	0.755	19818	
343.15	0.771	24708	

System: carbon dioxide + 1-hexyl-3-methylimidazolium bis[(trifluoromethyl)sulfonyl]imide; phases: Liquid mixture 1, Liquid mixture 2
Fixed: Temperature, K = 298.15
Property: Mole fraction of carbon dioxide (Liquid mixture 1); method: Static
Pressure, kPa	Mole fraction of carbon dioxide	uncertainty
8967	0.8	0.1
10321	0.81	0.01
11969	0.819	0.002
13525	0.822	0.004
14804	0.823	0.004

System: carbon dioxide + 1-hexyl-3-methylimidazolium bis[(trifluoromethyl)sulfonyl]imide; phases: Liquid
Fixed: Temperature, K = 298.15
Property: Molar volume, m3/mol (Liquid); method: Static
Pressure, kPa	Mole fraction of carbon dioxide	Molar volume, m3/mol	uncertainty
8967	0.8	9.883e-05	4e-08
10321	0.81	9.556e-05	4e-08
11969	0.819	9.198e-05	4e-08
13525	0.822	9.084e-05	4e-08
14804	0.823	9.095e-05	4e-08

System: carbon dioxide + 1-hexyl-3-methylimidazolium bis[(trifluoromethyl)sulfonyl]imide; phases: Liquid
Property: Molar volume, m3/mol (Liquid); method: Static
Temperature, K	Pressure, kPa	Mole fraction of carbon dioxide	Molar volume, m3/mol	uncertainty
298.15	2015	0.396	0.00022054	1.4e-07
298.15	3586	0.592	0.00016303	9e-08
323.15	800	0.139	0.00030825	1.9e-07
323.15	3716	0.487	0.00020135	1e-07
323.15	5430	0.583	0.00017249	8e-08
323.15	6560	0.637	0.00015676	8e-08
323.15	8039	0.692	0.00013952	6e-08
323.15	9078	0.726	0.00012823	6e-08
323.15	9969	0.751	0.00011803	6e-08
323.15	11081	0.769	0.00011077	4e-08
323.15	12224	0.774	0.00010943	4e-08
323.15	12959	0.779	0.00010793	4e-08
343.15	1793	0.14	0.00030808	1.8e-07
343.15	2754	0.239	0.00027817	1.4e-07
343.15	5537	0.436	0.00021942	1.2e-07
343.15	8861	0.596	0.00017013	8e-08
343.15	11560	0.673	0.00014475	6e-08
343.15	14469	0.721	0.00012816	6e-08
343.15	19818	0.755	0.00011691	4e-08
343.15	24708	0.771	0.00011152	4e-08

System: carbon dioxide + 1-hexyl-3-methylimidazolium bis[(trifluoromethyl)sulfonyl]imide; phases: Liquid
Property: Molar volume, m3/mol (Liquid); method: Static
Temperature, K	Pressure, kPa	Mole fraction of carbon dioxide	Molar volume, m3/mol	uncertainty
298.15	6489	0.762	0.00011272	8e-08

System: carbon dioxide + 1-decyl-3-methylimidazolium bis(trifluoromethylsulfonyl)amide; phases: Liquid, Gas
Property: Vapor or sublimation pressure, kPa (Liquid); method: Static
Temperature, K	Mole fraction of carbon dioxide	Vapor or sublimation pressure, kPa	uncertainty
298.15	0.35	1474	
298.15	0.562	2828	
298.15	0.709	4516	
323.15	0.257	1439	
323.15	0.489	3371	
323.15	0.696	6891	
323.15	0.752	8581	
323.15	0.8	10917	
323.15	0.814	13030	
323.15	0.819	14596	
343.15	0.302	2003	
343.15	0.475	3941	
343.15	0.587	6242	
343.15	0.683	8674	
343.15	0.744	10773	
343.15	0.776	12515	
343.15	0.801	14534	

System: carbon dioxide + 1-decyl-3-methylimidazolium bis(trifluoromethylsulfonyl)amide; phases: Liquid mixture 1, Liquid mixture 2
Fixed: Temperature, K = 298.15
Property: Mole fraction of carbon dioxide (Liquid mixture 1); method: Static
Pressure, kPa	Mole fraction of carbon dioxide	uncertainty
6799	0.81	0.004
8659	0.83	0.002
10909	0.841	0.002
12873	0.848	0.002
14847	0.849	0.004

System: carbon dioxide + 1-decyl-3-methylimidazolium bis(trifluoromethylsulfonyl)amide; phases: Liquid
Property: Molar volume, m3/mol (Liquid); method: Static
Temperature, K	Pressure, kPa	Mole fraction of carbon dioxide	Molar volume, m3/mol	uncertainty
298.15	1474	0.35	0.00027751	2.3e-07
298.15	2828	0.562	0.00019969	1.5e-07
298.15	4516	0.709	0.00014704	8e-08
323.15	1439	0.257	0.00032116	1.8e-07
323.15	3371	0.489	0.00023466	1.2e-07
323.15	6891	0.696	0.0001569	1e-07
323.15	8581	0.752	0.00013536	6e-08
323.15	10917	0.8	0.00011448	4e-08
323.15	13030	0.814	0.00010856	4e-08
323.15	14596	0.819	0.00010714	4e-08
343.15	2003	0.302	0.00030887	2.2e-07
343.15	3941	0.475	0.00024281	1.6e-07
343.15	6242	0.587	0.00020174	1.2e-07
343.15	8674	0.683	0.00016404	1e-07
343.15	10773	0.744	0.00013836	8e-08
343.15	12515	0.776	0.00012489	6e-08
343.15	14534	0.801	0.00011296	6e-08

System: carbon dioxide + 1-decyl-3-methylimidazolium bis(trifluoromethylsulfonyl)amide; phases: Liquid
Fixed: Temperature, K = 298.15
Property: Molar volume, m3/mol (Liquid); method: Static
Pressure, kPa	Mole fraction of carbon dioxide	Molar volume, m3/mol	uncertainty
6799	0.81	0.00011106	7e-08
8659	0.83	0.00010063	6e-08
10909	0.841	9.556e-05	4e-08
12873	0.848	9.235e-05	4e-08
14847	0.849	9.169e-05	4e-08
