Measured thermophysical data. Measurement and correlation of the (p, ?, T) relation of liquid n-heptane, n-nonane, 2,4-dichlorotoluene, and bromobenzene in the temperature range from (233.15 to 473.15) K at pressures up to 30 MPa for use as density reference liquids
Source: J. Chem. Thermodyn., 2008, 10.1016/j.jct.2008.02.020
Compound 1: heptane, C7H16, InChI=1S/C7H16/c1-3-5-7-6-4-2/h3-7H2,1-2H3, purity 99.3%
Compound 2: nonane, C9H20, InChI=1S/C9H20/c1-3-5-7-9-8-6-4-2/h3-9H2,1-2H3, purity 99%
Compound 3: 1,3-dichloro-4-methylbenzene, C7H6Cl2, InChI=1S/C7H6Cl2/c1-5-2-3-6(8)4-7(5)9/h2-4H,1H3, purity 98%
Compound 4: bromobenzene, C6H5Br, InChI=1S/C6H5Br/c7-6-4-2-1-3-5-6/h1-5H, purity 99%

System: heptane; phases: Liquid
Property: Mass density, kg/m3 (Liquid); method: Buoyancy - hydrostatic balance with magnetic suspension - one sinker
Temperature, K	Pressure, kPa	Mass density, kg/m3	uncertainty
233.15	101.68	733.289	0.195
233.15	1104.14	733.918	0.195
233.15	2003.32	734.481	0.195
233.15	4006.02	735.714	0.195
233.15	6004.84	736.928	0.196
233.15	8009.54	738.125	0.196
233.15	9956.83	739.277	0.196
233.15	11864.2	740.377	0.197
233.15	13984.2	741.588	0.197
233.15	15994.7	742.722	0.197
233.15	17888.3	743.774	0.198
233.15	20074.1	744.977	0.198
233.15	22023.8	746.029	0.198
233.15	24017.6	747.094	0.199
233.15	25954	748.113	0.199
233.15	27944.5	749.147	0.199
233.15	29979.3	750.192	0.2
253.15	98.99	717.086	0.19
253.15	1101.5	717.807	0.19
253.15	2000.52	718.446	0.19
253.15	4006.34	719.85	0.19
253.15	6005.44	721.223	0.191
253.15	8147.76	722.669	0.191
253.15	10096.2	723.959	0.192
253.15	11827.3	725.088	0.192
253.15	13955.1	726.459	0.192
253.15	16060.2	727.785	0.193
253.15	18039.5	729.014	0.193
253.15	20020	730.22	0.194
253.15	22093.3	731.465	0.194
253.15	23827.7	732.495	0.194
253.15	25891.2	733.701	0.195
253.15	27738.7	734.762	0.195
253.15	29899.8	735.987	0.195
273.15	102.15	700.687	0.185
273.15	1101.26	701.507	0.185
273.15	2006.3	702.244	0.185
273.15	4005.43	703.841	0.186
273.15	6005.46	705.403	0.186
273.15	8197.47	707.077	0.187
273.15	10109.3	708.507	0.187
273.15	12113.7	709.976	0.187
273.15	14092.3	711.403	0.188
273.15	16115.7	712.831	0.188
273.15	18076	714.19	0.189
273.15	20096.3	715.565	0.189
273.15	22068.9	716.883	0.189
273.15	24101.5	718.226	0.19
273.15	25917.6	719.397	0.19
273.15	27991.3	720.718	0.191
273.15	29444.5	721.633	0.191
293.15	98.89	683.986	0.18
293.15	1104.28	684.937	0.18
293.15	2003.35	685.779	0.18
293.15	4003.02	687.611	0.181
293.15	6003.71	689.394	0.181
293.15	8007.44	691.14	0.182
293.15	10027.9	692.854	0.182
293.15	12138.7	694.603	0.183
293.15	14007.8	696.118	0.183
293.15	16160.3	697.827	0.184
293.15	18149.3	699.368	0.184
293.15	19992.1	700.756	0.185
293.15	22123	702.362	0.185
293.15	24036.2	703.766	0.186
293.15	25999	705.175	0.186
293.15	27982.8	706.576	0.186
293.15	29985.7	707.965	0.187
313.15	101.45	666.898	0.175
313.15	1102.2	667.995	0.175
313.15	2005.49	668.973	0.175
313.15	4004.53	671.086	0.176
313.15	6106.94	673.238	0.176
313.15	7941.18	675.062	0.177
313.15	9944.39	676.997	0.178
313.15	11841.2	678.793	0.178
313.15	13782.4	680.575	0.179
313.15	16032.4	682.588	0.179
313.15	17876	684.2	0.18
313.15	19748.4	685.804	0.18
313.15	21802.9	687.518	0.181
313.15	23828.7	689.172	0.181
313.15	25813.9	690.765	0.182
313.15	27801.4	692.324	0.182
313.15	29818.4	693.872	0.183
333.15	103	649.298	0.17
333.15	1105.97	650.588	0.17
333.15	2004.12	651.723	0.17
333.15	4003.59	654.18	0.171
333.15	6004.59	656.549	0.172
333.15	8005.55	658.837	0.172
333.15	9901.48	660.933	0.173
333.15	12083.4	663.274	0.174
333.15	14040.1	665.309	0.174
333.15	16005.2	667.293	0.175
333.15	17854.3	669.109	0.175
333.15	19984.7	671.149	0.176
333.15	21966.6	672.997	0.176
333.15	23925.5	674.778	0.177
333.15	25823.4	676.467	0.177
333.15	27822.8	678.205	0.178
333.15	30009.2	680.058	0.178
353.15	99.37	631.037	0.164
353.15	1182.85	632.68	0.165
353.15	2156.26	634.131	0.165
353.15	4140.73	636.982	0.166
353.15	6175.55	639.78	0.167
353.15	8138.91	642.37	0.167
353.15	10095	644.851	0.168
353.15	12083.3	647.284	0.169
353.15	14039.8	649.596	0.169
353.15	16039.2	651.883	0.17
353.15	18008.2	654.064	0.171
353.15	19996.3	656.201	0.171
353.15	21955.5	658.247	0.172
353.15	23925.4	660.247	0.173
353.15	25887.2	662.188	0.173
353.15	27855	664.084	0.174
353.15	29976	666.077	0.174
373.15	1164.33	613.877	0.159
373.15	2149.21	615.631	0.16
373.15	4123.49	618.999	0.161
373.15	5987.02	622.014	0.162
373.15	8094.82	625.262	0.162
373.15	10059.8	628.151	0.163
373.15	12066.3	630.972	0.164
373.15	14017.8	633.61	0.165
373.15	16044.4	636.241	0.166
373.15	18058	638.765	0.166
373.15	19975.6	641.085	0.167
373.15	21959.6	643.408	0.168
373.15	23948	645.665	0.168
373.15	25804.8	647.712	0.169
373.15	27898.4	649.952	0.17
373.15	29818.7	651.952	0.17
393.15	1101.93	593.952	0.154
393.15	2001.51	595.905	0.154
393.15	4002.83	600.027	0.155
393.15	6004.29	603.884	0.156
393.15	8005.48	607.511	0.157
393.15	10007.1	610.942	0.158
393.15	12110.9	614.361	0.159
393.15	14116.5	617.466	0.16
393.15	16097.2	620.399	0.161
393.15	18029	623.142	0.162
393.15	20054	625.904	0.163
393.15	22015.9	628.483	0.163
393.15	24005.5	631.008	0.164
393.15	25986.1	633.434	0.165
393.15	27951.6	635.769	0.165
393.15	29842.8	638.037	0.166

System: nonane; phases: Liquid
Property: Mass density, kg/m3 (Liquid); method: Buoyancy - hydrostatic balance with magnetic suspension - one sinker
Temperature, K	Pressure, kPa	Mass density, kg/m3	uncertainty
233.15	101.46	763.962	0.243
233.15	1176.07	764.563	0.243
233.15	2178.21	765.126	0.243
233.15	4167.03	766.231	0.244
233.15	5936.52	767.203	0.244
233.15	8144.53	768.395	0.245
233.15	10065.6	769.42	0.245
233.15	12147.7	770.516	0.246
233.15	14076.4	771.516	0.246
233.15	16087.1	772.548	0.246
233.15	18066.9	773.551	0.247
233.15	19984.5	774.511	0.247
233.15	21989.6	775.502	0.248
233.15	24043.8	776.506	0.248
233.15	25990.2	777.446	0.249
233.15	27926.7	778.373	0.249
233.15	29906	779.308	0.249
253.15	101.82	748.678	0.236
253.15	1135.27	749.335	0.237
253.15	2178.61	749.992	0.237
253.15	3967.76	751.107	0.237
253.15	6147.47	752.446	0.238
253.15	8137.98	753.648	0.239
253.15	10112.3	754.82	0.239
253.15	12111.2	755.991	0.24
253.15	14130.2	757.156	0.24
253.15	16140.1	758.299	0.24
253.15	18106.1	759.398	0.241
253.15	20064.2	760.484	0.241
253.15	22026.1	761.552	0.242
253.15	23955	762.59	0.242
253.15	25972.3	763.661	0.243
253.15	27912.6	764.677	0.243
253.15	29966.8	765.739	0.244
273.15	102.52	733.389	0.23
273.15	1156.84	734.143	0.23
273.15	2137.97	734.842	0.231
273.15	4026.01	736.166	0.231
273.15	6169.44	737.644	0.232
273.15	8161.45	738.99	0.232
273.15	10122	740.29	0.233
273.15	12106.5	741.586	0.233
273.15	14100.7	742.864	0.234
273.15	16067	744.108	0.235
273.15	18074.3	745.354	0.235
273.15	20036.3	746.555	0.236
273.15	21999.7	747.737	0.236
273.15	23995.5	748.923	0.237
273.15	25993.5	750.093	0.237
273.15	27981.5	751.238	0.237
273.15	29875.5	752.316	0.238
293.15	101.69	717.968	0.224
293.15	1184.28	718.847	0.224
293.15	2129.17	719.604	0.224
293.15	3960.49	721.055	0.225
293.15	6115.45	722.729	0.226
293.15	7981.56	724.145	0.226
293.15	10014.7	725.663	0.227
293.15	12148.6	727.214	0.228
293.15	13981.1	728.526	0.228
293.15	16170.1	730.062	0.229
293.15	17942.9	731.285	0.229
293.15	20200	732.813	0.23
293.15	22156.5	734.115	0.23
293.15	24157.9	735.421	0.231
293.15	26136.5	736.696	0.231
293.15	28126.3	737.958	0.232
293.15	29978.5	739.115	0.232
313.15	98.73	702.339	0.218
313.15	1168.73	703.323	0.218
313.15	2131.95	704.205	0.218
313.15	3967.37	705.852	0.219
313.15	6162.29	707.777	0.22
313.15	8113.86	709.449	0.22
313.15	10023.5	711.038	0.221
313.15	12172.8	712.791	0.222
313.15	14170	714.384	0.222
313.15	16194.4	715.964	0.223
313.15	17956.1	717.315	0.223
313.15	20057.4	718.889	0.224
313.15	22190.8	720.459	0.225
313.15	24136.3	721.862	0.225
313.15	26139.1	723.282	0.226
313.15	28073.1	724.629	0.226
313.15	29972.4	725.932	0.227
333.15	102.84	686.431	0.211
333.15	1137.45	687.521	0.212
333.15	2113.93	688.539	0.212
333.15	4162.71	690.632	0.213
333.15	6145.33	692.599	0.214
333.15	8151.89	694.535	0.214
333.15	10023.6	696.296	0.215
333.15	12113.9	698.208	0.216
333.15	14126.6	700.005	0.217
333.15	15989.2	701.627	0.217
333.15	18027.4	703.362	0.218
333.15	19954.2	704.977	0.218
333.15	22112.4	706.723	0.219
333.15	24079.9	708.292	0.22
333.15	26037.6	709.821	0.22
333.15	28054.2	711.366	0.221
333.15	29912.3	712.772	0.222
353.15	97.13	671.217	0.205
353.15	2136.7	672.617	0.206
353.15	6141.9	677.222	0.207
353.15	8110.87	679.378	0.208
353.15	10054.1	681.439	0.209
353.15	12124	683.57	0.21
353.15	14143.8	685.589	0.211
353.15	15989	687.385	0.211
353.15	18010.6	689.305	0.212
353.15	20035.8	691.174	0.213
353.15	21991.1	692.938	0.214
353.15	23964.8	694.678	0.214
353.15	25968.3	696.403	0.215
353.15	27955.3	698.078	0.216
353.15	29938.7	699.718	0.216
373.15	102.37	653.427	0.198
373.15	1227.94	655.018	0.199
373.15	2148.86	656.298	0.199
373.15	4131.53	658.968	0.2
373.15	6127.03	661.551	0.201
373.15	8138.76	664.058	0.202
373.15	10022.2	666.323	0.203
373.15	12111.6	668.749	0.204
373.15	14118.8	671.003	0.205
373.15	16133.9	673.197	0.206
373.15	18104	675.276	0.207
373.15	20078.3	677.302	0.207
373.15	22063.5	679.286	0.208
373.15	23987.7	681.158	0.209
373.15	26124	683.184	0.21
373.15	28010.2	684.93	0.21
373.15	29904.7	686.647	0.211

System: 1,3-dichloro-4-methylbenzene; phases: Liquid
Property: Mass density, kg/m3 (Liquid); method: Buoyancy - hydrostatic balance with magnetic suspension - one sinker
Temperature, K	Pressure, kPa	Mass density, kg/m3	uncertainty
263.15	97.86	1280.746	1.474
263.15	1123.89	1281.41	1.476
263.15	2150.08	1282.078	1.477
263.15	3971.85	1283.256	1.48
263.15	6167.48	1284.655	1.483
263.15	7898.48	1285.752	1.485
263.15	9974.67	1287.058	1.488
273.15	101.87	1270.262	1.451
273.15	1168.7	1270.98	1.453
273.15	2038.48	1271.569	1.454
273.15	4184.12	1273.017	1.457
273.15	5901.85	1274.166	1.46
273.15	7916.96	1275.502	1.463
273.15	10080.1	1276.917	1.466
273.15	11859.3	1278.072	1.468
273.15	14023.9	1279.464	1.471
273.15	16108.4	1280.788	1.474
273.15	17842.3	1281.881	1.477
273.15	20076	1283.276	1.48
273.15	22131.9	1284.547	1.482
273.15	24150.5	1285.785	1.485
273.15	26075.7	1286.947	1.488
273.15	27912.8	1288.061	1.49
273.15	29994	1289.3	1.493
293.15	97.54	1249.314	1.406
293.16	1126.71	1250.082	1.408
293.17	1886.78	1250.652	1.409
293.18	4191.9	1252.359	1.413
293.19	6062.35	1253.73	1.416
293.2	7970.06	1255.113	1.419
293.21	10164.9	1256.679	1.422
293.22	12144	1258.087	1.425
293.23	14100.9	1259.459	1.428
293.24	16101.3	1260.848	1.431
293.25	18109.9	1262.226	1.434
293.26	20077.2	1263.554	1.437
293.27	22135.5	1264.942	1.44
293.28	24103.4	1266.25	1.443
293.29	25961.7	1267.476	1.445
293.3	27896.3	1268.742	1.448
293.31	29828.6	1269.998	1.451
313.15	107.85	1228.386	1.362
313.15	1095.73	1229.211	1.364
313.15	2082.65	1230.022	1.366
313.15	4107.17	1231.674	1.369
313.15	5854.63	1233.08	1.372
313.15	8123.14	1234.888	1.376
313.15	10162.5	1236.487	1.379
313.15	12123.5	1238.006	1.382
313.15	13892.2	1239.361	1.385
313.15	16106.5	1241.042	1.389
313.15	18086.1	1242.52	1.392
313.15	20143.9	1244.041	1.395
313.15	22019.9	1245.416	1.398
313.15	24013.7	1246.859	1.401
313.15	25938.1	1248.234	1.404
313.15	27775.8	1249.538	1.407
313.15	29827.6	1250.978	1.41
333.15	101.71	1207.383	1.318
333.15	1081.65	1208.275	1.32
333.15	1877.77	1208.998	1.322
333.15	3933.05	1210.851	1.326
333.15	5993.05	1212.681	1.329
333.15	8164.28	1214.583	1.333
333.15	10140.5	1216.287	1.337
333.15	12129.1	1217.977	1.34
333.15	14157.3	1219.677	1.344
333.15	16128.6	1221.308	1.347
333.15	18148.4	1222.96	1.351
333.15	20045.8	1224.49	1.354
333.15	22094	1226.119	1.357
333.15	24025.8	1227.64	1.361
333.15	25826.1	1229.042	1.364
333.15	27856.3	1230.606	1.367
333.15	29702.4	1232.007	1.37
353.15	101.05	1186.204	1.275
353.15	1223.95	1187.34	1.277
353.15	2054.23	1188.178	1.279
353.15	4178.04	1190.3	1.283
353.15	6020.58	1192.109	1.287
353.15	8131.5	1194.145	1.291
353.15	10112.6	1196.024	1.295
353.15	12081.4	1197.868	1.299
353.15	14117.6	1199.739	1.303
353.15	16085.3	1201.527	1.306
353.15	18057.7	1203.289	1.31
353.15	19979.7	1204.984	1.314
353.15	22046.3	1206.781	1.317
353.15	24055.6	1208.502	1.321
353.15	26024.8	1210.171	1.324
353.15	27872.2	1211.714	1.327
353.15	29803.8	1213.316	1.331
373.15	99.43	1164.779	1.232
373.15	1084.4	1165.894	1.234
373.15	1956.51	1166.871	1.236
373.15	4135.41	1169.289	1.241
373.15	5954.62	1171.267	1.245
373.15	7981.3	1173.428	1.249
373.15	10128	1175.674	1.254
373.15	11936	1177.539	1.258
373.15	14002.5	1179.625	1.262
373.15	15987.4	1181.598	1.266
373.15	18115.7	1183.682	1.27
373.15	19989.9	1185.498	1.274
373.15	22002	1187.396	1.278
373.15	23973.4	1189.24	1.281
373.15	26011.4	1191.114	1.285
373.15	28050.4	1192.964	1.289
373.15	29921.5	1194.643	1.292
393.15	100.49	1143.033	1.189
393.15	1179.48	1144.396	1.192
393.15	1991.45	1145.418	1.194
393.15	3926.62	1147.803	1.198
393.15	5963.77	1150.268	1.203
393.15	7963.7	1152.638	1.208
393.15	10152.5	1155.171	1.213
393.15	12148.5	1157.433	1.217
393.15	14137.4	1159.653	1.222
393.15	16116.4	1161.814	1.226
393.15	17916.8	1163.747	1.23
393.15	20141	1166.094	1.235
393.15	22095.5	1168.12	1.239
393.15	24174	1170.233	1.243
393.15	26159.6	1172.224	1.247
393.15	27968.1	1174.003	1.25
393.15	29926.9	1175.919	1.254
413.15	100.59	1120.918	1.146
413.15	1151.63	1122.413	1.149
413.15	2145.34	1123.811	1.152
413.15	3981.28	1126.345	1.157
413.15	6146.6	1129.268	1.162
413.15	8164.11	1131.917	1.167
413.15	10060.2	1134.353	1.172
413.15	11926.6	1136.701	1.177
413.15	14144.6	1139.432	1.182
413.15	16149.8	1141.844	1.187
413.15	18124.3	1144.175	1.191
413.15	20124.5	1146.49	1.196
413.15	22138.7	1148.774	1.2
413.15	24073.1	1150.924	1.205
413.15	26090.8	1153.131	1.209
413.15	29979.1	1157.28	1.217
433.15	95.11	1098.158	1.103
433.15	1136.65	1099.852	1.106
433.15	2147.69	1101.453	1.109
433.15	3917.76	1104.21	1.114
433.15	6150.53	1107.594	1.121
433.15	8148.51	1110.531	1.126
433.15	10046.1	1113.259	1.131
433.15	12142.1	1116.175	1.137
433.15	14150.6	1118.907	1.142
433.15	16186.8	1121.618	1.147
433.15	18165.4	1124.186	1.152
433.15	20168.2	1126.732	1.157
433.15	22137.8	1129.181	1.162
433.15	24092.9	1131.563	1.167
433.15	26057	1133.915	1.171
433.15	28002.6	1136.199	1.176
433.15	29939.2	1138.435	1.18
453.15	1198.47	1076.81	1.063
453.15	2151.66	1078.53	1.066
453.15	4164.4	1082.075	1.073
453.15	6169.55	1085.471	1.079
453.15	8024.43	1088.532	1.085
453.15	10086.4	1091.847	1.091
453.15	12118.8	1094.988	1.097
453.15	14143.9	1098.053	1.103
453.15	16087.3	1100.887	1.108
453.15	19984.2	1106.47	1.118
453.15	22044.3	1109.28	1.124
453.15	24087.4	1112.012	1.129
453.15	26125	1114.677	1.134
453.15	28000.4	1117.083	1.139
453.15	29897.2	1119.486	1.143
473.15	1132.46	1052.656	1.019
473.15	2054.35	1054.566	1.022
473.15	4181.88	1058.813	1.03
473.15	5970.87	1062.272	1.036
473.15	8153.54	1066.335	1.043
473.15	10137.9	1069.908	1.05
473.15	12108.7	1073.331	1.056
473.15	14124.6	1073.331	10
473.15	16133.4	1080.012	1.069
473.15	18132.3	1083.191	1.075
473.15	20146.9	1086.297	1.08
473.15	22083.3	1089.222	1.086
473.15	24078.5	1092.15	1.091
473.15	26042.8	1094.963	1.097
473.15	27886.3	1097.55	1.102
473.15	29892.6	1100.313	1.107

System: bromobenzene; phases: Liquid
Property: Mass density, kg/m3 (Liquid); method: Buoyancy - hydrostatic balance with magnetic suspension - one sinker
Temperature, K	Pressure, kPa	Mass density, kg/m3	uncertainty
248.15	99.7	1554.489	0.679
248.15	1231.41	1555.368	0.679
248.15	2075.45	1556.036	0.68
248.15	4196.22	1557.697	0.681
248.15	5950.98	1559.054	0.682
248.15	8068.32	1560.666	0.683
248.15	10015.4	1562.113	0.684
248.15	11951.6	1563.577	0.685
248.15	13994.8	1565.093	0.686
248.15	15940.3	1566.527	0.687
248.15	18145	1568.122	0.688
248.15	19946.5	1569.417	0.689
248.15	21965	1570.861	0.69
248.15	24135.9	1572.41	0.691
248.15	25864.7	1573.623	0.692
248.15	27917.3	1575.05	0.693
248.15	29850.3	1576.387	0.694
273.15	100.51	1520.557	0.656
273.15	1116.26	1521.447	0.656
273.15	2128.1	1522.34	0.657
273.15	4045.82	1524.026	0.658
273.15	5967.3	1525.66	0.659
273.15	8142.83	1527.515	0.66
273.15	10020.3	1529.109	0.661
273.15	11896.1	1530.677	0.662
273.15	13922	1532.353	0.664
273.15	16083	1534.134	0.665
273.15	18195.2	1535.834	0.666
273.15	20035.1	1537.31	0.667
273.15	21829.3	1538.747	0.668
273.15	23856.5	1540.342	0.669
273.15	25976.2	1542.017	0.67
273.15	28097.7	1543.651	0.671
273.15	29947	1545.093	0.672
293.15	101.93	1493.557	0.638
293.15	1239.69	1494.684	0.638
293.15	2010.73	1495.408	0.639
293.15	4059.7	1497.371	0.64
293.15	6007.85	1499.218	0.641
293.15	8079.77	1501.16	0.643
293.15	10000.8	1502.944	0.644
293.15	11960	1504.732	0.645
293.15	14168.6	1506.732	0.646
293.15	15878.8	1508.265	0.647
293.15	17960.3	1510.109	0.649
293.15	19999.4	1511.901	0.65
293.15	21880	1513.531	0.651
293.15	24122.2	1515.458	0.652
293.15	26141	1517.174	0.653
293.15	28060.5	1518.79	0.654
293.15	29992.7	1520.418	0.655
313.15	102.54	1466.553	0.62
313.15	2000.76	1468.587	0.621
313.15	4010.97	1470.712	0.623
313.15	6189.56	1473	0.624
313.15	7991.64	1474.858	0.625
313.15	10089.4	1477.007	0.627
313.15	12142.8	1479.063	0.628
313.15	14014.6	1480.929	0.629
313.15	16087.3	1482.944	0.631
313.15	18046.6	1484.852	0.632
313.15	20004.2	1486.73	0.633
313.15	22154.3	1488.763	0.634
313.15	23944.2	1490.446	0.635
313.15	26099.8	1492.424	0.637
313.15	28042.5	1494.215	0.638
313.15	29905.5	1495.902	0.639
333.15	100.42	1439.385	0.602
333.15	1115.03	1440.596	0.603
333.15	1943.37	1441.571	0.604
333.15	4094.54	1444.097	0.605
333.15	6114.22	1446.439	0.607
333.15	7927.8	1448.512	0.608
333.15	10021.7	1450.842	0.61
333.15	11958.5	1453.001	0.611
333.15	13999	1455.239	0.612
333.15	16048.7	1457.443	0.614
333.15	18155.7	1459.682	0.615
333.15	20007.8	1461.631	0.617
333.15	22157.5	1463.842	0.618
333.15	24129.6	1465.857	0.619
333.15	26094.5	1467.846	0.621
333.15	28018.5	1469.764	0.622
333.15	29890.3	1471.607	0.623
353.15	99.8	1411.936	0.585
353.15	1173.75	1413.368	0.586
353.15	1944.34	1414.39	0.586
353.15	3949.81	1417.013	0.588
353.15	5968.93	1419.612	0.59
353.15	7990.46	1422.164	0.591
353.15	9916.05	1424.555	0.593
353.15	11986.6	1427.088	0.594
353.15	14134.6	1429.674	0.596
353.15	15921.3	1431.797	0.597
353.15	18146.3	1434.386	0.599
353.15	19873.5	1436.374	0.6
353.15	22180	1438.986	0.602
353.15	23963.5	1440.977	0.603
353.15	26085.2	1443.316	0.605
353.15	28122.1	1445.529	0.606
353.15	29956.1	1447.501	0.607
373.15	98.54	1384.068	0.567
373.15	1150.11	1385.641	0.568
373.15	2174.39	1387.16	0.569
373.15	3917.65	1389.708	0.571
373.15	6182.4	1392.956	0.573
373.15	8042.69	1395.57	0.574
373.15	10003.4	1398.276	0.576
373.15	12007.7	1400.991	0.578
373.15	14086.4	1403.757	0.579
373.15	15912.6	1406.155	0.581
373.15	18065.6	1408.912	0.583
373.15	19882.1	1411.213	0.584
373.15	22174.1	1414.047	0.586
373.15	24052.6	1416.329	0.587
373.15	25897.2	1418.541	0.589
373.15	27711	1420.705	0.59
373.15	29530.8	1422.851	0.592
393.15	97.33	1355.66	0.549
393.15	1226.04	1357.559	0.551
393.15	2181.2	1359.152	0.552
393.15	3965.26	1362.078	0.553
393.15	6075.43	1365.466	0.556
393.15	8146.91	1368.751	0.558
393.15	9937.3	1371.465	0.559
393.15	11969.7	1374.529	0.561
393.15	14177	1377.777	0.563
393.15	15955.8	1380.344	0.565
393.15	18163.7	1383.473	0.567
393.15	20146.9	1386.231	0.568
393.15	22175.7	1388.998	0.57
393.15	23981.5	1391.424	0.572
393.15	26169.9	1394.302	0.573
393.15	28005.4	1396.697	0.575
393.15	29541.5	1398.685	0.576
413.15	99.45	1326.547	0.532
413.15	1202.85	1328.655	0.533
413.15	2177.13	1330.512	0.534
413.15	3915.54	1333.735	0.536
413.15	6185.52	1337.833	0.539
413.15	8176.14	1341.325	0.541
413.15	10032.4	1344.48	0.543
413.15	12103.6	1348.01	0.545
413.15	13991.8	1351.03	0.547
413.15	15890.5	1354.115	0.548
413.15	18162.2	1357.681	0.551
413.15	19933	1360.414	0.552
413.15	22150.2	1363.736	0.554
413.15	24133.1	1366.656	0.556
413.15	26038.9	1369.413	0.558
413.15	27898.5	1372.058	0.56
413.15	29858	1374.805	0.561
433.15	1243.75	1299.092	0.515
433.15	1973.28	1300.66	0.516
433.15	4075.91	1305.09	0.519
433.15	6197.75	1309.427	0.521
433.15	7981.47	1312.955	0.523
433.15	10019.8	1316.907	0.526
433.15	12072.6	1320.75	0.528
433.15	14033.5	1324.335	0.53
433.15	15960.2	1327.765	0.532
433.15	17921.1	1331.186	0.534
433.15	19992.2	1334.752	0.537
433.15	21950.2	1337.95	0.539
433.15	24017.9	1341.307	0.541
433.15	26143.4	1344.678	0.543
433.15	28052.4	1347.64	0.544
433.15	29864.5	1350.426	0.546
453.15	1135.36	1268.141	0.497
453.15	1982.45	1270.245	0.498
453.15	4017.67	1275.165	0.501
453.15	6189.02	1280.221	0.504
453.15	7994.19	1284.28	0.506
453.15	10138.8	1288.978	0.509
453.15	12157.2	1293.201	0.512
453.15	13981.8	1296.937	0.514
453.15	16133.8	1301.214	0.516
453.15	18121.6	1305.054	0.519
453.15	19974.2	1308.564	0.521
453.15	22140.8	1312.522	0.523
453.15	24115.4	1316.051	0.525
453.15	26121.3	1319.557	0.527
453.15	28034.2	1322.825	0.529
453.15	29912.1	1325.979	0.531
473.15	1191.19	1236.278	0.479
473.15	2175.44	1239.118	0.48
473.15	4131.48	1244.576	0.483
473.15	5988.1	1249.543	0.486
473.15	8161.41	1255.135	0.489
473.15	10165.4	1260.077	0.492
473.15	12165.9	1264.845	0.495
473.15	14162.7	1269.434	0.498
473.15	16124.7	1273.802	0.5
473.15	18166.7	1278.202	0.503
473.15	20146.2	1282.345	0.505
473.15	22123.1	1286.362	0.508
473.15	24157	1290.388	0.51
473.15	26074.7	1294.08	0.512
473.15	28019.9	1297.733	0.514
473.15	29860.3	1301.116	0.516
