Measured thermophysical data. Investigations on the temperature dependent volumetric and ultrasonic properties of structural isomers D(+)-glucose and D(-)-fructose in aqueous dipotassium oxalate solutions
Source: J. Chem. Thermodyn., 2019, 10.1016/j.jct.2019.06.023
Compound 1: D-glucose, C6H12O6, InChI=1S/C6H12O6/c7-1-3(9)5(11)6(12)4(10)2-8/h1,3-6,8-12H,2H2/t3-,4+,5+,6+/m0/s1, purity 99%
Compound 2: D-fructose, C6H12O6, InChI=1S/C6H12O6/c7-1-3(9)5(11)6(12)4(10)2-8/h3,5-9,11-12H,1-2H2/t3-,5-,6-/m1/s1, purity 99%
Compound 3: potassium oxalate, C2K2O4, InChI=1S/C2H2O4.2K/c3-1(4)2(5)6;;/h(H,3,4)(H,5,6);;/q;2*+1/p-2, purity 99%
Compound 4: water, H2O, InChI=1S/H2O/h1H2

System: D-glucose + potassium oxalate + water; phases: Liquid
Fixed: Pressure, kPa = 100
Property: Mass density, kg/m3 (Liquid); method: Vibrating tube method
Solvent: Molality, mol/kg of potassium oxalate	Temperature, K	Molality, mol/kg of D-glucose	Mass density, kg/m3	uncertainty
0.2	288.15	0	1023.62	0.58
0.2	288.15	0.10069	1030.16	0.59
0.2	288.15	0.20044	1036.46	0.62
0.2	288.15	0.3024	1042.73	0.68
0.2	288.15	0.40152	1048.67	0.74
0.2	288.15	0.50205	1054.53	0.81
0.2	288.15	0.60557	1060.4	0.88
0.2	288.15	0.70256	1065.75	0.95
0.2	288.15	0.79836	1070.9	1.02
0.2	298.15	0	1021.1	0.57
0.2	298.15	0.10069	1027.57	0.58
0.2	298.15	0.20044	1033.8	0.62
0.2	298.15	0.3024	1040.01	0.67
0.2	298.15	0.40152	1045.88	0.73
0.2	298.15	0.50205	1051.68	0.8
0.2	298.15	0.60557	1057.5	0.87
0.2	298.15	0.70256	1062.8	0.94
0.2	298.15	0.79836	1067.89	0.98
0.2	308.15	0	1017.79	0.57
0.2	308.15	0.10069	1024.2	0.58
0.2	308.15	0.20044	1030.37	0.61
0.2	308.15	0.3024	1036.52	0.66
0.2	308.15	0.40152	1042.34	0.73
0.2	308.15	0.50205	1048.08	0.79
0.2	308.15	0.60557	1053.85	0.87
0.2	308.15	0.70256	1059.1	0.93
0.2	308.15	0.79836	1064.17	0.98
0.2	318.15	0	1013.81	0.56
0.2	318.15	0.10069	1020.16	0.57
0.2	318.15	0.20044	1026.29	0.61
0.2	318.15	0.3024	1032.38	0.66
0.2	318.15	0.40152	1038.14	0.72
0.2	318.15	0.50205	1043.83	0.78
0.2	318.15	0.60557	1049.54	0.86
0.2	318.15	0.70256	1054.73	0.92
0.2	318.15	0.79836	1059.75	1
0.4	288.15	0	1046.97	0.96
0.4	288.15	0.10066	1053.33	0.98
0.4	288.15	0.20006	1059.44	1
0.4	288.15	0.30141	1065.49	1.02
0.4	288.15	0.40075	1071.26	1.06
0.4	288.15	0.50434	1077.11	1.1
0.4	288.15	0.59978	1082.36	1.14
0.4	288.15	0.69493	1087.45	1.19
0.4	288.15	0.79862	1092.86	1.22
0.4	298.15	0	1044.13	0.97
0.4	298.15	0.10066	1050.42	0.97
0.4	298.15	0.20006	1056.46	0.98
0.4	298.15	0.30141	1062.45	1.01
0.4	298.15	0.40075	1068.16	1.05
0.4	298.15	0.50434	1073.95	1.09
0.4	298.15	0.59978	1079.14	1.13
0.4	298.15	0.69493	1084.17	1.17
0.4	298.15	0.79862	1089.52	1.21
0.4	308.15	0	1040.55	0.96
0.4	308.15	0.10066	1046.79	0.96
0.4	308.15	0.20006	1052.78	0.98
0.4	308.15	0.30141	1058.72	1
0.4	308.15	0.40075	1064.38	1.04
0.4	308.15	0.50434	1070.12	1.08
0.4	308.15	0.59978	1075.27	1.12
0.4	308.15	0.69493	1080.27	1.17
0.4	308.15	0.79862	1085.58	1.19
0.4	318.15	0	1036.39	0.65
0.4	318.15	0.10066	1042.55	0.95
0.4	318.15	0.20006	1048.47	0.97
0.4	318.15	0.30141	1054.34	0.99
0.4	318.15	0.40075	1059.94	1.03
0.4	318.15	0.50434	1065.62	1.07
0.4	318.15	0.59978	1070.71	1.11
0.4	318.15	0.69493	1075.64	1.15
0.4	318.15	0.79862	1080.88	1.19
0.6	288.15	0	1069.58	1.37
0.6	288.15	0.10122	1075.79	1.4
0.6	288.15	0.20179	1081.77	1.4
0.6	288.15	0.30141	1087.53	1.41
0.6	288.15	0.3996	1093.05	1.43
0.6	288.15	0.50155	1098.62	1.45
0.6	288.15	0.60414	1104.06	1.48
0.6	288.15	0.6993	1108.98	1.5
0.6	288.15	0.80514	1114.28	1.54
0.6	298.15	0	1066.44	1.39
0.6	298.15	0.10122	1072.6	1.38
0.6	298.15	0.20179	1078.53	1.39
0.6	298.15	0.30141	1084.23	1.4
0.6	298.15	0.3996	1089.7	1.42
0.6	298.15	0.50155	1095.21	1.44
0.6	298.15	0.60414	1100.6	1.47
0.6	298.15	0.6993	1105.47	1.49
0.6	298.15	0.80514	1110.73	1.52
0.6	308.15	0	1062.69	1.37
0.6	308.15	0.10122	1068.78	1.37
0.6	308.15	0.20179	1074.66	1.37
0.6	308.15	0.30141	1080.32	1.38
0.6	308.15	0.3996	1085.73	1.4
0.6	308.15	0.50155	1091.2	1.42
0.6	308.15	0.60414	1096.55	1.45
0.6	308.15	0.6993	1101.36	1.47
0.6	308.15	0.80514	1106.58	1.5
0.6	318.15	0	1058.36	1.56
0.6	318.15	0.10122	1064.38	1.36
0.6	318.15	0.20179	1070.19	1.36
0.6	318.15	0.30141	1075.78	1.37
0.6	318.15	0.3996	1081.13	1.39
0.6	318.15	0.50155	1086.53	1.41
0.6	318.15	0.60414	1091.81	1.44
0.6	318.15	0.6993	1096.57	1.46
0.6	318.15	0.80514	1101.71	1.5
0.8	288.15	0	1092.28	1.85
0.8	288.15	0.10026	1098.21	1.83
0.8	288.15	0.19968	1103.92	1.83
0.8	288.15	0.29905	1109.46	1.83
0.8	288.15	0.39937	1114.88	1.83
0.8	288.15	0.49459	1119.87	1.83
0.8	288.15	0.59951	1125.22	1.85
0.8	288.15	0.69813	1130.1	1.86
0.8	288.15	0.80114	1135.04	1.88
0.8	298.15	0	1088.95	1.82
0.8	298.15	0.10026	1094.85	1.81
0.8	298.15	0.19968	1100.52	1.8
0.8	298.15	0.29905	1106.03	1.8
0.8	298.15	0.39937	1111.43	1.81
0.8	298.15	0.49459	1116.4	1.82
0.8	298.15	0.59951	1121.73	1.83
0.8	298.15	0.69813	1126.58	1.84
0.8	298.15	0.80114	1131.5	1.83
0.8	308.15	0	1084.89	1.8
0.8	308.15	0.10026	1090.73	1.79
0.8	308.15	0.19968	1096.34	1.78
0.8	308.15	0.29905	1101.78	1.78
0.8	308.15	0.39937	1107.12	1.79
0.8	308.15	0.49459	1112.03	1.79
0.8	308.15	0.59951	1117.29	1.81
0.8	308.15	0.69813	1122.08	1.82
0.8	308.15	0.80114	1126.95	1.83
0.8	318.15	0	1080.46	1.8
0.8	318.15	0.10026	1086.22	1.78
0.8	318.15	0.19968	1091.76	1.78
0.8	318.15	0.29905	1097.14	1.78
0.8	318.15	0.39937	1102.4	1.78
0.8	318.15	0.49459	1107.26	1.79
0.8	318.15	0.59951	1112.45	1.8
0.8	318.15	0.69813	1117.18	1.81
0.8	318.15	0.80114	1121.98	1.83

System: D-glucose + potassium oxalate + water; phases: Liquid
Fixed: Pressure, kPa = 100
Fixed: Frequency, MHz = 3
Property: Speed of sound, m/s (Liquid); method: Single path-length method
Solvent: Molality, mol/kg of potassium oxalate	Temperature, K	Molality, mol/kg of D-glucose	Speed of sound, m/s	uncertainty
0.2	288.15	0	1497	1.4
0.2	288.15	0.10069	1503.5	1.4
0.2	288.15	0.20044	1509.8	1.4
0.2	288.15	0.3024	1516.3	1.4
0.2	288.15	0.40152	1522.6	1.5
0.2	288.15	0.50205	1529.1	1.5
0.2	288.15	0.60557	1535.7	1.6
0.2	288.15	0.70256	1541.8	1.7
0.2	288.15	0.79836	1548	1.7
0.2	298.15	0	1524.8	1.4
0.2	298.15	0.10069	1531.2	1.4
0.2	298.15	0.20044	1537.6	1.4
0.2	298.15	0.3024	1544.1	1.4
0.2	298.15	0.40152	1550.4	1.4
0.2	298.15	0.50205	1556.8	1.5
0.2	298.15	0.60557	1563.4	1.6
0.2	298.15	0.70256	1569.6	1.6
0.2	298.15	0.79836	1575.7	1.5
0.2	308.15	0	1545.9	1.4
0.2	308.15	0.10069	1552.4	1.3
0.2	308.15	0.20044	1558.7	1.4
0.2	308.15	0.3024	1565.2	1.4
0.2	308.15	0.40152	1571.6	1.4
0.2	308.15	0.50205	1578	1.5
0.2	308.15	0.60557	1584.6	1.5
0.2	308.15	0.70256	1590.8	1.6
0.2	308.15	0.79836	1596.9	1.5
0.2	318.15	0	1561.2	1.3
0.2	318.15	0.10069	1567.6	1.3
0.2	318.15	0.20044	1574	1.3
0.2	318.15	0.3024	1580.5	1.4
0.2	318.15	0.40152	1586.8	1.4
0.2	318.15	0.50205	1593.2	1.4
0.2	318.15	0.60557	1599.8	1.5
0.2	318.15	0.70256	1606	1.6
0.2	318.15	0.79836	1612.1	1.6
0.4	288.15	0	1525.3	2.1
0.4	288.15	0.10066	1532.3	1.7
0.4	288.15	0.20006	1538.9	1.7
0.4	288.15	0.30141	1545.7	1.7
0.4	288.15	0.40075	1552.2	1.7
0.4	288.15	0.50434	1559.2	1.8
0.4	288.15	0.59978	1565.2	1.8
0.4	288.15	0.69493	1571.7	1.9
0.4	288.15	0.79862	1577.9	1.8
0.4	298.15	0	1550.9	1.6
0.4	298.15	0.10066	1557.2	1.6
0.4	298.15	0.20006	1563.3	1.6
0.4	298.15	0.30141	1569.4	1.6
0.4	298.15	0.40075	1575.4	1.7
0.4	298.15	0.50434	1581.7	1.7
0.4	298.15	0.59978	1587.3	1.7
0.4	298.15	0.69493	1593.2	1.8
0.4	298.15	0.79862	1599	1.7
0.4	308.15	0	1570.5	1.6
0.4	308.15	0.10066	1576.2	1.6
0.4	308.15	0.20006	1581.8	1.6
0.4	308.15	0.30141	1587.5	1.6
0.4	308.15	0.40075	1593	1.6
0.4	308.15	0.50434	1598.8	1.6
0.4	308.15	0.59978	1604	1.6
0.4	308.15	0.69493	1609.2	1.7
0.4	308.15	0.79862	1614.7	1.7
0.4	318.15	0	1584.6	2.4
0.4	318.15	0.10066	1589.9	1.5
0.4	318.15	0.20006	1595.2	1.5
0.4	318.15	0.30141	1600.9	1.5
0.4	318.15	0.40075	1606.5	1.6
0.4	318.15	0.50434	1612	1.6
0.4	318.15	0.59978	1617.2	1.6
0.4	318.15	0.69493	1622.1	1.6
0.4	318.15	0.79862	1627.7	1.8
0.6	288.15	0	1552.3	1.3
0.6	288.15	0.10122	1558.1	2
0.6	288.15	0.20179	1565.4	2
0.6	288.15	0.30141	1571.5	2
0.6	288.15	0.3996	1577.1	2.1
0.6	288.15	0.50155	1583.9	2.1
0.6	288.15	0.60414	1590.1	2.1
0.6	288.15	0.6993	1595.9	2.1
0.6	288.15	0.80514	1602.1	2.3
0.6	298.15	0	1576.4	2
0.6	298.15	0.10122	1581.5	2
0.6	298.15	0.20179	1588.3	2
0.6	298.15	0.30141	1593.9	2
0.6	298.15	0.3996	1600	2
0.6	298.15	0.50155	1605.4	2
0.6	298.15	0.60414	1611.1	2
0.6	298.15	0.6993	1616.4	2.1
0.6	298.15	0.80514	1622.2	2.1
0.6	308.15	0	1594.5	1.9
0.6	308.15	0.10122	1599.2	1.9
0.6	308.15	0.20179	1605.5	1.9
0.6	308.15	0.30141	1610.7	1.9
0.6	308.15	0.3996	1615.6	1.9
0.6	308.15	0.50155	1621.4	1.9
0.6	308.15	0.60414	1626.7	2
0.6	308.15	0.6993	1631.6	2
0.6	308.15	0.80514	1637	2
0.6	318.15	0	1607.1	1.6
0.6	318.15	0.10122	1612	1.8
0.6	318.15	0.20179	1617.7	1.8
0.6	318.15	0.30141	1622.4	1.8
0.6	318.15	0.3996	1628	1.8
0.6	318.15	0.50155	1633.1	1.9
0.6	318.15	0.60414	1638.2	1.9
0.6	318.15	0.6993	1642.9	1.9
0.6	318.15	0.80514	1648.1	2
0.8	288.15	0	1580.5	2.6
0.8	288.15	0.10026	1585.7	2.6
0.8	288.15	0.19968	1591.8	2.5
0.8	288.15	0.29905	1597.5	2.5
0.8	288.15	0.39937	1604.7	2.6
0.8	288.15	0.49459	1610.9	2.6
0.8	288.15	0.59951	1617.1	2.6
0.8	288.15	0.69813	1623	2.7
0.8	288.15	0.80114	1630	2.8
0.8	298.15	0	1602.3	2.3
0.8	298.15	0.10026	1607.2	2.3
0.8	298.15	0.19968	1612.9	2.3
0.8	298.15	0.29905	1618.2	2.3
0.8	298.15	0.39937	1624.7	2.3
0.8	298.15	0.49459	1630.9	2.4
0.8	298.15	0.59951	1636.2	2.4
0.8	298.15	0.69813	1642.2	2.5
0.8	298.15	0.80114	1647.6	2.4
0.8	308.15	0	1618.8	2.2
0.8	308.15	0.10026	1623.3	2.2
0.8	308.15	0.19968	1628.6	2.2
0.8	308.15	0.29905	1633.5	2.2
0.8	308.15	0.39937	1639.3	2.3
0.8	308.15	0.49459	1644.9	2.3
0.8	308.15	0.59951	1649.8	2.3
0.8	308.15	0.69813	1655.2	2.3
0.8	308.15	0.80114	1660.2	2.3
0.8	318.15	0	1630.1	2.2
0.8	318.15	0.10026	1634.6	2.2
0.8	318.15	0.19968	1639.4	2.2
0.8	318.15	0.29905	1644.5	2.2
0.8	318.15	0.39937	1649.5	2.2
0.8	318.15	0.49459	1654.8	2.2
0.8	318.15	0.59951	1659.7	2.2
0.8	318.15	0.69813	1664.4	2.2
0.8	318.15	0.80114	1669.6	2.3

System: D-fructose + potassium oxalate + water; phases: Liquid
Fixed: Pressure, kPa = 100
Property: Mass density, kg/m3 (Liquid); method: Vibrating tube method
Solvent: Molality, mol/kg of potassium oxalate	Temperature, K	Molality, mol/kg of D-fructose	Mass density, kg/m3	uncertainty
0.2	288.15	0	1023.62	0.58
0.2	288.15	0.10016	1030.26	0.59
0.2	288.15	0.20239	1036.86	0.62
0.2	288.15	0.30174	1043.11	0.68
0.2	288.15	0.40292	1049.31	0.75
0.2	288.15	0.50595	1055.46	0.82
0.2	288.15	0.60082	1060.98	0.89
0.2	288.15	0.70007	1066.6	0.96
0.2	288.15	0.80401	1072.36	1.05
0.2	298.15	0	1021.1	0.57
0.2	298.15	0.10016	1027.71	0.58
0.2	298.15	0.20239	1034.29	0.62
0.2	298.15	0.30174	1040.51	0.68
0.2	298.15	0.40292	1046.68	0.74
0.2	298.15	0.50595	1052.8	0.82
0.2	298.15	0.60082	1058.3	0.89
0.2	298.15	0.70007	1063.92	0.96
0.2	298.15	0.80401	1069.66	1.01
0.2	308.15	0	1017.79	0.57
0.2	308.15	0.10016	1024.39	0.58
0.2	308.15	0.20239	1030.95	0.62
0.2	308.15	0.30174	1037.16	0.67
0.2	308.15	0.40292	1043.32	0.74
0.2	308.15	0.50595	1049.42	0.81
0.2	308.15	0.60082	1054.9	0.88
0.2	308.15	0.70007	1060.48	0.95
0.2	308.15	0.80401	1066.19	1.02
0.2	318.15	0	1013.81	0.56
0.2	318.15	0.10016	1020.4	0.57
0.2	318.15	0.20239	1026.95	0.61
0.2	318.15	0.30174	1033.15	0.67
0.2	318.15	0.40292	1039.3	0.73
0.2	318.15	0.50595	1045.4	0.81
0.2	318.15	0.60082	1050.88	0.88
0.2	318.15	0.70007	1056.47	0.95
0.2	318.15	0.80401	1062.18	1.04
0.4	288.15	0	1046.98	1.17
0.4	288.15	0.10053	1053.45	0.98
0.4	288.15	0.20154	1059.79	1
0.4	288.15	0.30209	1065.93	1.03
0.4	288.15	0.39946	1071.72	1.06
0.4	288.15	0.50214	1077.66	1.11
0.4	288.15	0.60407	1083.39	1.15
0.4	288.15	0.70498	1088.92	1.21
0.4	288.15	0.80021	1094	1.23
0.4	298.15	0	1044.13	0.97
0.4	298.15	0.10053	1050.59	0.97
0.4	298.15	0.20154	1056.91	0.99
0.4	298.15	0.30209	1063.02	1.01
0.4	298.15	0.39946	1068.79	1.05
0.4	298.15	0.50214	1074.72	1.1
0.4	298.15	0.60407	1080.44	1.14
0.4	298.15	0.70498	1085.95	1.19
0.4	298.15	0.80021	1091	1.22
0.4	308.15	0	1040.55	0.96
0.4	308.15	0.10053	1047.01	0.96
0.4	308.15	0.20154	1053.32	0.98
0.4	308.15	0.30209	1059.43	1.01
0.4	308.15	0.39946	1065.2	1.04
0.4	308.15	0.50214	1071.13	1.09
0.4	308.15	0.60407	1076.84	1.14
0.4	308.15	0.70498	1082.35	1.19
0.4	308.15	0.80021	1087.41	1.21
0.4	318.15	0	1036.39	0.65
0.4	318.15	0.10053	1042.83	0.95
0.4	318.15	0.20154	1049.14	0.97
0.4	318.15	0.30209	1055.24	1
0.4	318.15	0.39946	1061	1.04
0.4	318.15	0.50214	1066.91	1.08
0.4	318.15	0.60407	1072.63	1.13
0.4	318.15	0.70498	1078.14	1.18
0.4	318.15	0.80021	1083.21	1.21
0.6	288.15	0	1069.58	1.49
0.6	288.15	0.10045	1075.86	1.4
0.6	288.15	0.20029	1081.93	1.4
0.6	288.15	0.30176	1087.93	1.41
0.6	288.15	0.39844	1093.5	1.43
0.6	288.15	0.50205	1099.3	1.45
0.6	288.15	0.60499	1104.9	1.48
0.6	288.15	0.70281	1110.06	1.51
0.6	288.15	0.80283	1115.22	1.55
0.6	298.15	0	1066.44	1.39
0.6	298.15	0.10045	1072.71	1.38
0.6	298.15	0.20029	1078.77	1.39
0.6	298.15	0.30176	1084.75	1.4
0.6	298.15	0.39844	1090.3	1.42
0.6	298.15	0.50205	1096.08	1.44
0.6	298.15	0.60499	1101.67	1.47
0.6	298.15	0.70281	1106.82	1.5
0.6	298.15	0.80283	1111.96	1.53
0.6	308.15	0	1062.69	1.37
0.6	308.15	0.10045	1068.95	1.37
0.6	308.15	0.20029	1075	1.37
0.6	308.15	0.30176	1080.97	1.39
0.6	308.15	0.39844	1086.5	1.4
0.6	308.15	0.50205	1092.28	1.43
0.6	308.15	0.60499	1097.87	1.46
0.6	308.15	0.70281	1103.02	1.49
0.6	308.15	0.80283	1108.15	1.52
0.6	318.15	0	1058.36	1.28
0.6	318.15	0.10045	1064.61	1.36
0.6	318.15	0.20029	1070.65	1.36
0.6	318.15	0.30176	1076.61	1.38
0.6	318.15	0.39844	1082.14	1.4
0.6	318.15	0.50205	1087.92	1.42
0.6	318.15	0.60499	1093.49	1.45
0.6	318.15	0.70281	1098.64	1.48
0.6	318.15	0.80283	1103.77	1.52
0.8	288.15	0	1092.28	1.85
0.8	288.15	0.10148	1098.41	1.83
0.8	288.15	0.20191	1104.31	1.83
0.8	288.15	0.3004	1109.92	1.83
0.8	288.15	0.40304	1115.61	1.83
0.8	288.15	0.50362	1121.03	1.84
0.8	288.15	0.60271	1126.22	1.86
0.8	288.15	0.70208	1131.27	1.87
0.8	288.15	0.80236	1136.24	1.9
0.8	298.15	0	1088.95	1.82
0.8	298.15	0.10148	1095.08	1.81
0.8	298.15	0.20191	1100.97	1.8
0.8	298.15	0.3004	1106.59	1.81
0.8	298.15	0.40304	1112.28	1.81
0.8	298.15	0.50362	1117.7	1.83
0.8	298.15	0.60271	1122.89	1.84
0.8	298.15	0.70208	1127.94	1.86
0.8	298.15	0.80236	1132.91	1.86
0.8	308.15	0	1084.89	1.8
0.8	308.15	0.10148	1091.02	1.79
0.8	308.15	0.20191	1096.91	1.79
0.8	308.15	0.3004	1102.52	1.79
0.8	308.15	0.40304	1108.21	1.8
0.8	308.15	0.50362	1113.63	1.81
0.8	308.15	0.60271	1118.82	1.82
0.8	308.15	0.70208	1123.88	1.84
0.8	308.15	0.80236	1128.86	1.85
0.8	318.15	0	1080.46	1.8
0.8	318.15	0.10148	1086.57	1.79
0.8	318.15	0.20191	1092.45	1.78
0.8	318.15	0.3004	1098.05	1.78
0.8	318.15	0.40304	1103.72	1.79
0.8	318.15	0.50362	1109.12	1.8
0.8	318.15	0.60271	1114.27	1.81
0.8	318.15	0.70208	1119.31	1.83
0.8	318.15	0.80236	1124.25	1.86

System: D-fructose + potassium oxalate + water; phases: Liquid
Fixed: Pressure, kPa = 100
Fixed: Frequency, MHz = 3
Property: Speed of sound, m/s (Liquid); method: Single path-length method
Solvent: Molality, mol/kg of potassium oxalate	Temperature, K	Molality, mol/kg of D-fructose	Speed of sound, m/s	uncertainty
0.2	288.15	0	1497	1.4
0.2	288.15	0.10016	1504.1	1.4
0.2	288.15	0.20239	1511.4	1.4
0.2	288.15	0.30174	1518.4	1.4
0.2	288.15	0.40292	1525.6	1.5
0.2	288.15	0.50595	1532.9	1.5
0.2	288.15	0.60082	1539.6	1.6
0.2	288.15	0.70007	1546.6	1.7
0.2	288.15	0.80401	1554	1.8
0.2	298.15	0	1524.8	1.4
0.2	298.15	0.10016	1531.9	1.4
0.2	298.15	0.20239	1539.1	1.4
0.2	298.15	0.30174	1546.2	1.4
0.2	298.15	0.40292	1553.3	1.5
0.2	298.15	0.50595	1560.6	1.5
0.2	298.15	0.60082	1567.3	1.6
0.2	298.15	0.70007	1574.4	1.7
0.2	298.15	0.80401	1581.7	1.6
0.2	308.15	0	1545.9	1.4
0.2	308.15	0.10016	1553	1.4
0.2	308.15	0.20239	1560.3	1.4
0.2	308.15	0.30174	1567.3	1.4
0.2	308.15	0.40292	1574.5	1.5
0.2	308.15	0.50595	1581.8	1.5
0.2	308.15	0.60082	1588.5	1.6
0.2	308.15	0.70007	1595.5	1.7
0.2	308.15	0.80401	1602.9	1.6
0.2	318.15	0	1561.2	1.3
0.2	318.15	0.10016	1568.3	1.3
0.2	318.15	0.20239	1575.6	1.4
0.2	318.15	0.30174	1582.6	1.4
0.2	318.15	0.40292	1589.8	1.4
0.2	318.15	0.50595	1597.1	1.5
0.2	318.15	0.60082	1603.8	1.6
0.2	318.15	0.70007	1610.8	1.6
0.2	318.15	0.80401	1618.2	1.7
0.4	288.15	0	1525.3	2
0.4	288.15	0.10053	1532.3	1.7
0.4	288.15	0.20154	1539.3	1.7
0.4	288.15	0.30209	1546.3	1.7
0.4	288.15	0.39946	1553.1	1.8
0.4	288.15	0.50214	1560.3	1.8
0.4	288.15	0.60407	1567.4	1.9
0.4	288.15	0.70498	1574.4	1.9
0.4	288.15	0.80021	1581.1	2
0.4	298.15	0	1551	1.6
0.4	298.15	0.10053	1558	1.6
0.4	298.15	0.20154	1565	1.6
0.4	298.15	0.30209	1572	1.7
0.4	298.15	0.39946	1578.8	1.7
0.4	298.15	0.50214	1586	1.8
0.4	298.15	0.60407	1593.1	1.8
0.4	298.15	0.70498	1600.1	1.9
0.4	298.15	0.80021	1606.7	1.9
0.4	308.15	0	1570.5	1.6
0.4	308.15	0.10053	1577.5	1.6
0.4	308.15	0.20154	1584.6	1.6
0.4	308.15	0.30209	1591.6	1.6
0.4	308.15	0.39946	1598.3	1.7
0.4	308.15	0.50214	1605.5	1.7
0.4	308.15	0.60407	1612.6	1.8
0.4	308.15	0.70498	1619.6	1.9
0.4	308.15	0.80021	1626.3	1.8
0.4	318.15	0	1584.6	2.4
0.4	318.15	0.10053	1590.5	1.6
0.4	318.15	0.20154	1597.5	1.6
0.4	318.15	0.30209	1604.5	1.6
0.4	318.15	0.39946	1611.3	1.6
0.4	318.15	0.50214	1618.4	1.7
0.4	318.15	0.60407	1625.5	1.8
0.4	318.15	0.70498	1632.6	1.8
0.4	318.15	0.80021	1639.2	2
0.6	288.15	0	1552.3	2.1
0.6	288.15	0.10045	1559.4	2.1
0.6	288.15	0.20029	1566.4	2.1
0.6	288.15	0.30176	1573.6	2.1
0.6	288.15	0.39844	1580.4	2.1
0.6	288.15	0.50205	1587.7	2.1
0.6	288.15	0.60499	1594.9	2.2
0.6	288.15	0.70281	1601.8	2.2
0.6	288.15	0.80283	1608.8	2.2
0.6	298.15	0	1576.4	2
0.6	298.15	0.10045	1583.5	2
0.6	298.15	0.20029	1590.5	2
0.6	298.15	0.30176	1597.6	2
0.6	298.15	0.39844	1604.4	2
0.6	298.15	0.50205	1611.7	2.1
0.6	298.15	0.60499	1619	2.1
0.6	298.15	0.70281	1625.9	2.2
0.6	298.15	0.80283	1632.9	2.1
0.6	308.15	0	1594.5	1.9
0.6	308.15	0.10045	1601.5	1.9
0.6	308.15	0.20029	1608.6	1.9
0.6	308.15	0.30176	1615.7	1.9
0.6	308.15	0.39844	1622.5	2
0.6	308.15	0.50205	1629.8	2
0.6	308.15	0.60499	1637.1	2
0.6	308.15	0.70281	1643.9	2.1
0.6	308.15	0.80283	1651	2
0.6	318.15	0	1607.1	2.2
0.6	318.15	0.10045	1614.2	1.9
0.6	318.15	0.20029	1621.2	1.9
0.6	318.15	0.30176	1628.4	1.9
0.6	318.15	0.39844	1635.2	1.9
0.6	318.15	0.50205	1642.5	1.9
0.6	318.15	0.60499	1649.7	2
0.6	318.15	0.70281	1656.6	2.1
0.6	318.15	0.80283	1663.7	2
0.8	288.15	0	1580.5	2.6
0.8	288.15	0.10148	1587.1	2.5
0.8	288.15	0.20191	1593.7	2.5
0.8	288.15	0.3004	1600.1	2.5
0.8	288.15	0.40304	1606.8	2.5
0.8	288.15	0.50362	1613.4	2.5
0.8	288.15	0.60271	1619.9	2.5
0.8	288.15	0.70208	1626.4	2.5
0.8	288.15	0.80236	1632.9	2.5
0.8	298.15	0	1602.3	2.3
0.8	298.15	0.10148	1608.9	2.3
0.8	298.15	0.20191	1615.5	2.3
0.8	298.15	0.3004	1621.9	2.3
0.8	298.15	0.40304	1628.7	2.3
0.8	298.15	0.50362	1635.2	2.3
0.8	298.15	0.60271	1641.7	2.3
0.8	298.15	0.70208	1648.2	2.3
0.8	298.15	0.80236	1654.7	2.2
0.8	308.15	0	1618.8	2.2
0.8	308.15	0.10148	1625.5	2.2
0.8	308.15	0.20191	1632	2.2
0.8	308.15	0.3004	1638.5	2.2
0.8	308.15	0.40304	1645.2	2.2
0.8	308.15	0.50362	1651.7	2.2
0.8	308.15	0.60271	1658.2	2.2
0.8	308.15	0.70208	1664.7	2.2
0.8	308.15	0.80236	1671.3	2.1
0.8	318.15	0	1630.1	2.2
0.8	318.15	0.10148	1636.2	2.2
0.8	318.15	0.20191	1642.8	2.1
0.8	318.15	0.3004	1649.2	2.1
0.8	318.15	0.40304	1655.9	2.1
0.8	318.15	0.50362	1662.5	2.1
0.8	318.15	0.60271	1669	2.1
0.8	318.15	0.70208	1675.5	2.2
0.8	318.15	0.80236	1682	2.2

System: potassium oxalate + water; phases: Liquid
Fixed: Pressure, kPa = 100
Property: Mass density, kg/m3 (Liquid); method: Vibrating tube method
Molality, mol/kg of potassium oxalate	Temperature, K	Mass density, kg/m3	uncertainty
0.2	288.15	1023.62	0.58
0.2	298.15	1021.1	0.57
0.2	308.15	1017.79	0.57
0.2	318.15	1013.81	0.56
0.4	288.15	1046.97	0.96
0.4	298.15	1044.13	0.97
0.4	308.15	1040.55	0.96
0.4	318.15	1036.39	0.65
0.6	288.15	1069.58	1.37
0.6	298.15	1066.44	1.39
0.6	308.15	1062.69	1.37
0.6	318.15	1058.36	1.56
0.8	288.15	1092.28	1.85
0.8	298.15	1088.95	1.82
0.8	308.15	1084.89	1.8
0.8	318.15	1080.46	1.8

System: potassium oxalate + water; phases: Liquid
Fixed: Pressure, kPa = 100
Fixed: Frequency, MHz = 3
Property: Speed of sound, m/s (Liquid); method: Single path-length method
Molality, mol/kg of potassium oxalate	Temperature, K	Speed of sound, m/s	uncertainty
0.2	288.15	1497	1.4
0.2	298.15	1524.8	1.4
0.2	308.15	1545.9	1.4
0.2	318.15	1561.2	1.3
0.4	288.15	1525.3	2.1
0.4	298.15	1550.9	1.6
0.4	308.15	1570.5	1.6
0.4	318.15	1584.6	2.4
0.6	288.15	1552.3	1.3
0.6	298.15	1576.4	2
0.6	308.15	1594.5	1.9
0.6	318.15	1607.1	1.6
0.8	288.15	1580.5	2.6
0.8	298.15	1602.3	2.3
0.8	308.15	1618.8	2.2
0.8	318.15	1630.1	2.2
