Measured thermophysical data. Experimental determination and prediction of gas solubility data for oxygen in acetonitrile
Source: J. Chem. Thermodyn., 2004, 10.1016/j.jct.2004.07.014
Compound 1: oxygen, O2, InChI=1S/O2/c1-2, purity 99.995%
Compound 2: acetonitrile, C2H3N, InChI=1S/C2H3N/c1-2-3/h1H3

System: acetonitrile; phases: Liquid, Gas
Property: Vapor or sublimation pressure, kPa (Liquid); method: Closed cell (Static) method
Temperature, K	Vapor or sublimation pressure, kPa	uncertainty
305.51	16.47	0.22
323.12	33.71	0.25
353.13	96.17	0.37

System: acetonitrile + oxygen; phases: Liquid, Gas
Fixed: Mole fraction of oxygen = 0
Property: Henry's Law constant (mole fraction scale), kPa of oxygen (Liquid); method: OTHER
Temperature, K	Henry's Law constant (mole fraction scale), kPa of oxygen	uncertainty
305.51	203800	4100
323.12	192100	3800
353.13	178000	3600

System: acetonitrile + oxygen; phases: Liquid, Gas
Property: Vapor or sublimation pressure, kPa (Liquid); method: Closed cell (Static) method
Temperature, K	Mole fraction of oxygen	Vapor or sublimation pressure, kPa	uncertainty
305.51	0	16.47	0.22
305.51	0.00021	58.66	20.59
305.51	0.00062	143.93	20.62
305.51	0.00102	225.67	20.42
305.51	0.00217	460.3	20.6
305.51	0.00329	692.24	20.78
305.51	0.00518	1082.5	21
305.51	0.00702	1464.7	21.4
305.51	0.01	2087.6	21.9
323.12	0	33.71	0.25
323.12	0.00022	75.92	18.43
323.12	0.00063	156.05	18.31
323.12	0.00104	235.55	19.42
323.12	0.00224	467.68	19.34
323.12	0.0034	692.89	19.46
323.12	0.0054	1082.9	19.7
323.12	0.0074	1474.5	20.1
323.12	0.0106	2106	21.3
353.13	0	96.17	0.37
353.13	0.00196	448.49	18.05
353.13	0.00345	717.2	18.21
353.13	0.00463	931.13	18.34
353.13	0.00623	1220.7	18.6
353.13	0.00733	1421.5	18.8
353.13	0.00922	1765.8	19.1
353.13	0.01111	2112.1	19.5
353.13	0.01399	2642.6	20.2
