Measured thermophysical data. Experimental and computational thermochemistry of 1,4-benzodioxan and its 2-R derivatives
Source: J. Chem. Thermodyn., 2008, 10.1016/j.jct.2008.06.003
Compound 1: carbon dioxide, CO2, InChI=1S/CO2/c2-1-3
Compound 2: water, H2O, InChI=1S/H2O/h1H2
Compound 3: oxygen, O2, InChI=1S/O2/c1-2
Compound 4: 1,4-benzodioxan-2-carboxylic acid, C9H8O4, InChI=1S/C9H8O4/c10-9(11)8-5-12-6-3-1-2-4-7(6)13-8/h1-4,8H,5H2,(H,10,11)
Compound 5: 1,4-benzodioxane-2-methanol, C9H10O3, InChI=1S/C9H10O3/c10-5-7-6-11-8-3-1-2-4-9(8)12-7/h1-4,7,10H,5-6H2

System: 1,4-benzodioxan-2-carboxylic acid; phases: Crystal, Gas
Property: Molar enthalpy of transition or fusion, kJ/mol (Crystal); method: Static calorimetry
Temperature, K	Molar enthalpy of transition or fusion, kJ/mol	uncertainty
298.15	117.8	4.2

System: 1,4-benzodioxane-2-methanol; phases: Crystal, Liquid, Air at 1 atmosphere
Property: Molar enthalpy of transition or fusion, kJ/mol (Crystal); method: DSC
Molar enthalpy of transition or fusion, kJ/mol	uncertainty
28.78	0.63

System: 1,4-benzodioxane-2-methanol; phases: Crystal, Liquid, Air at 1 atmosphere
Property: Normal melting temperature, K (Crystal); method: DTA
Normal melting temperature, K	uncertainty
362.4	0.53

System: 1,4-benzodioxane-2-methanol; phases: Crystal, Gas
Property: Molar enthalpy of transition or fusion, kJ/mol (Crystal); method: Static calorimetry
Temperature, K	Molar enthalpy of transition or fusion, kJ/mol	uncertainty
298.15	106.9	1.7

Reaction: -1 1,4-benzodioxan-2-carboxylic acid + 9 carbon dioxide + 4 water + -9 oxygen
Property: Specific internal energy of reaction at constant volume, J/g
-22310.3

Reaction: -1 1,4-benzodioxane-2-methanol + 9 carbon dioxide + 5 water + -10 oxygen
Property: Specific internal energy of reaction at constant volume, J/g
-27002.3
