Measured thermophysical data. Topological and thermodynamic investigations of mixtures containing o-chlorotoluene and lower amides
Source: J. Chem. Thermodyn., 2014, 10.1016/j.jct.2013.12.006
Compound 1: 2-chlorotoluene, C7H7Cl, InChI=1S/C7H7Cl/c1-6-4-2-3-5-7(6)8/h2-5H,1H3
Compound 2: formamide, CH3NO, InChI=1S/CH3NO/c2-1-3/h1H,(H2,2,3)
Compound 3: N-methylformamide, C2H5NO, InChI=1S/C2H5NO/c1-3-2-4/h2H,1H3,(H,3,4)
Compound 4: dimethylformamide, C3H7NO, InChI=1S/C3H7NO/c1-4(2)3-5/h3H,1-2H3

System: 2-chlorotoluene; phases: Liquid
Fixed: Pressure, kPa = 101.325
Property: Mass density, kg/m3 (Liquid); method: Vibrating tube method
Temperature, K	Mass density, kg/m3	uncertainty
298.15	1077.3	1
303.15	1072.5	1
308.15	1067.6	1

System: 2-chlorotoluene; phases: Liquid
Fixed: Pressure, kPa = 101.325
Property: Speed of sound, m/s (Liquid); method: Sing-around technique in a fixed-path interferometer
Temperature, K	Speed of sound, m/s	uncertainty
298.15	1298.7	1.5
303.15	1280.7	1.5
308.15	1262.7	1.5

System: 2-chlorotoluene; phases: Liquid
Fixed: Pressure, kPa = 101.325
Property: Molar heat capacity at constant pressure, J/K/mol (Liquid); method: Small sample (50 mg) DSC
Temperature, K	Molar heat capacity at constant pressure, J/K/mol	uncertainty
298.15	178.21	7.56
303.15	180.01	7.64
308.15	181.71	7.71

System: formamide; phases: Liquid
Fixed: Pressure, kPa = 101.325
Property: Mass density, kg/m3 (Liquid); method: Vibrating tube method
Temperature, K	Mass density, kg/m3	uncertainty
298.15	1129.5	1
303.15	1125.2	1
308.15	1121	1

System: formamide; phases: Liquid
Fixed: Pressure, kPa = 101.325
Property: Speed of sound, m/s (Liquid); method: Sing-around technique in a fixed-path interferometer
Temperature, K	Speed of sound, m/s	uncertainty
298.15	1597.8	1.3
303.15	1587.5	1.3
308.15	1577.1	1.3

System: formamide; phases: Liquid
Fixed: Pressure, kPa = 101.325
Property: Molar heat capacity at constant pressure, J/K/mol (Liquid); method: Small sample (50 mg) DSC
Temperature, K	Molar heat capacity at constant pressure, J/K/mol	uncertainty
298.15	107.82	4.57
303.15	108.56	4.61
308.15	109.56	4.65

System: N-methylformamide; phases: Liquid
Fixed: Pressure, kPa = 101.325
Property: Mass density, kg/m3 (Liquid); method: Vibrating tube method
Temperature, K	Mass density, kg/m3	uncertainty
298.15	999	1.02
303.15	994.65	1.02
308.15	990.3	1.02

System: N-methylformamide; phases: Liquid
Fixed: Pressure, kPa = 101.325
Property: Speed of sound, m/s (Liquid); method: Sing-around technique in a fixed-path interferometer
Temperature, K	Speed of sound, m/s	uncertainty
298.15	1431.6	1.6
303.15	1417.4	1.6
308.15	1402.2	1.6

System: N-methylformamide; phases: Liquid
Fixed: Pressure, kPa = 101.325
Property: Molar heat capacity at constant pressure, J/K/mol (Liquid); method: Small sample (50 mg) DSC
Temperature, K	Molar heat capacity at constant pressure, J/K/mol	uncertainty
298.15	123.92	5.26
303.15	124.95	5.3
308.15	126.05	5.35

System: dimethylformamide; phases: Liquid
Fixed: Pressure, kPa = 101.325
Property: Mass density, kg/m3 (Liquid); method: Vibrating tube method
Temperature, K	Mass density, kg/m3	uncertainty
298.15	944.6	1
303.15	939.83	1
308.15	935.05	1

System: dimethylformamide; phases: Liquid
Fixed: Pressure, kPa = 101.325
Property: Speed of sound, m/s (Liquid); method: Sing-around technique in a fixed-path interferometer
Temperature, K	Speed of sound, m/s	uncertainty
298.15	1458.5	1.2
303.15	1440.2	1.2
308.15	1420.8	1.2

System: dimethylformamide; phases: Liquid
Fixed: Pressure, kPa = 101.325
Property: Molar heat capacity at constant pressure, J/K/mol (Liquid); method: Small sample (50 mg) DSC
Temperature, K	Molar heat capacity at constant pressure, J/K/mol	uncertainty
298.15	148.54	6.3
303.15	150.41	6.38
308.15	152.65	6.48

System: formamide + 2-chlorotoluene; phases: Liquid
Fixed: Pressure, kPa = 100
Property: Mass density, kg/m3 (Liquid); method: Vibrating tube method
Temperature, K	Mole fraction of 2-chlorotoluene	Mass density, kg/m3	uncertainty
298.15	0.0783	1130.8	1
298.15	0.1532	1129.7	1
298.15	0.2369	1126.9	1
298.15	0.2954	1124.1	1
298.15	0.3207	1122.8	1
298.15	0.3793	1119.3	1
298.15	0.4262	1116.4	1
298.15	0.4731	1113.3	1
298.15	0.5012	1111.4	1
298.15	0.5573	1107.5	1
298.15	0.5993	1104.6	1
298.15	0.6363	1102	1
298.15	0.6967	1097.7	1
298.15	0.7267	1095.6	1
298.15	0.7425	1094.5	1
298.15	0.8167	1089.4	1
298.15	0.8735	1085.5	1
298.15	0.9148	1082.8	1
303.15	0.0783	1128.6	1
303.15	0.1532	1127.9	1
303.15	0.2369	1124.5	1
303.15	0.2954	1121.2	1
303.15	0.3207	1119.6	1
303.15	0.3793	1115.8	1
303.15	0.4262	1112.6	1
303.15	0.4731	1109.4	1
303.15	0.5012	1107.4	1
303.15	0.5573	1103.6	1
303.15	0.5993	1100.7	1
303.15	0.6363	1098.2	1
303.15	0.6967	1094.1	1
303.15	0.7267	1092.1	1
303.15	0.7425	1091	1
303.15	0.8167	1085.9	1
303.15	0.8735	1081.9	1
303.15	0.9148	1078.9	1
308.15	0.0783	1126.4	1
308.15	0.1532	1126	1
308.15	0.2369	1122.2	1
308.15	0.2954	1118.5	1
308.15	0.3207	1116.7	1
308.15	0.3793	1112.5	1
308.15	0.4262	1109	1
308.15	0.4731	1105.7	1
308.15	0.5012	1103.7	1
308.15	0.5573	1099.8	1
308.15	0.5993	1096.9	1
308.15	0.6363	1094.5	1
308.15	0.6967	1090.4	1
308.15	0.7267	1088.4	1
308.15	0.7425	1087.4	1
308.15	0.8167	1082.3	1
308.15	0.8735	1078.1	1
308.15	0.9148	1074.9	1

System: formamide + 2-chlorotoluene; phases: Liquid
Fixed: Pressure, kPa = 100
Property: Speed of sound, m/s (Liquid); method: Sing-around technique in a fixed-path interferometer
Temperature, K	Mole fraction of 2-chlorotoluene	Speed of sound, m/s	uncertainty
298.15	0.0783	1599.6	1.3
298.15	0.1532	1601.1	1.4
298.15	0.2369	1599.9	1.4
298.15	0.2954	1597.7	1.4
298.15	0.3207	1595.8	1.4
298.15	0.3793	1589.5	1.4
298.15	0.4262	1581.5	1.4
298.15	0.4731	1572.7	1.4
298.15	0.5012	1565.2	1.4
298.15	0.5573	1549.6	1.4
298.15	0.5993	1534.2	1.5
298.15	0.6363	1519.7	1.5
298.15	0.6967	1492.9	1.5
298.15	0.7267	1477.6	1.5
298.15	0.7425	1468.7	1.5
298.15	0.8167	1425.7	1.5
298.15	0.8735	1389.4	1.5
298.15	0.9148	1361	1.5
303.15	0.0783	1588.7	1.3
303.15	0.1532	1589.9	1.4
303.15	0.2369	1589.5	1.4
303.15	0.2954	1586.3	1.4
303.15	0.3207	1584.3	1.4
303.15	0.3793	1577.5	1.4
303.15	0.4262	1570.3	1.4
303.15	0.4731	1560.2	1.4
303.15	0.5012	1553	1.4
303.15	0.5573	1535.2	1.4
303.15	0.5993	1519.9	1.5
303.15	0.6363	1504.5	1.5
303.15	0.6967	1476.6	1.5
303.15	0.7267	1460.5	1.5
303.15	0.7425	1452.3	1.5
303.15	0.8167	1407.9	1.5
303.15	0.8735	1371.1	1.5
303.15	0.9148	1342.7	1.5
308.15	0.0783	1578.9	1.3
308.15	0.1532	1580.5	1.4
308.15	0.2369	1580.3	1.4
308.15	0.2954	1577.1	1.4
308.15	0.3207	1574.8	1.4
308.15	0.3793	1567.1	1.4
308.15	0.4262	1558.5	1.4
308.15	0.4731	1546.7	1.4
308.15	0.5012	1539.3	1.4
308.15	0.5573	1520.2	1.4
308.15	0.5993	1504.3	1.5
308.15	0.6363	1487.6	1.5
308.15	0.6967	1458.5	1.5
308.15	0.7267	1441.9	1.5
308.15	0.7425	1433	1.5
308.15	0.8167	1388.4	1.5
308.15	0.8735	1351.7	1.5
308.15	0.9148	1323.3	1.5

System: formamide + 2-chlorotoluene; phases: Liquid
Fixed: Pressure, kPa = 100
Fixed: Temperature, K = 308.15
Property: Excess molar enthalpy (molar enthalpy of mixing), kJ/mol (Liquid); method: Calvet calorimetry
Mole fraction of 2-chlorotoluene	Excess molar enthalpy (molar enthalpy of mixing), kJ/mol	uncertainty
0.0932	0.0044	0.0008
0.1432	0.0053	0.0008
0.1896	0.0052	0.0008
0.2254	0.0045	0.0008
0.2853	0.003	0.0008
0.3298	0.0012	0.0008
0.3786	-0.0008	0.0008
0.4287	-0.0032	0.0008
0.4978	-0.0065	0.0008
0.5432	-0.0085	0.0008
0.5987	-0.0108	0.0009
0.6219	-0.0113	0.0009
0.6832	-0.0128	0.0009
0.7382	-0.0135	0.0009
0.7942	-0.013	0.0009
0.8217	-0.0124	0.0009
0.8736	-0.0103	0.0009
0.9127	-0.0078	0.0008

System: formamide + 2-chlorotoluene; phases: Liquid
Fixed: Pressure, kPa = 100
Property: Molar heat capacity at constant pressure, J/K/mol (Liquid); method: Small sample (50 mg) DSC
Temperature, K	Mole fraction of 2-chlorotoluene	Molar heat capacity at constant pressure, J/K/mol	uncertainty
298.15	0.0852	113.92	4.83
298.15	0.1698	119.9	5.09
298.15	0.2003	122.04	5.18
298.15	0.2905	128.33	5.44
298.15	0.3268	130.85	5.55
298.15	0.3657	133.55	5.67
298.15	0.4007	135.97	5.77
298.15	0.4987	142.75	6.06
298.15	0.5218	144.35	6.12
298.15	0.5508	146.36	6.21
298.15	0.6245	151.48	6.43
298.15	0.6587	153.86	6.53
298.15	0.7209	158.22	6.71
298.15	0.7554	160.65	6.82
298.15	0.7934	163.34	6.93
298.15	0.8264	165.68	7.03
298.15	0.8915	170.34	7.23
298.15	0.9243	172.7	7.33
303.15	0.0852	114.77	4.87
303.15	0.1698	120.84	5.13
303.15	0.2003	123.01	5.22
303.15	0.2905	129.4	5.49
303.15	0.3268	131.95	5.6
303.15	0.3657	134.69	5.71
303.15	0.4007	137.15	5.82
303.15	0.4987	144.03	6.11
303.15	0.5218	145.66	6.18
303.15	0.5508	147.7	6.27
303.15	0.6245	152.9	6.49
303.15	0.6587	155.33	6.59
303.15	0.7209	159.75	6.78
303.15	0.7554	162.22	6.88
303.15	0.7934	164.95	7
303.15	0.8264	167.33	7.1
303.15	0.8915	172.05	7.3
303.15	0.9243	174.44	7.4
308.15	0.0852	115.84	4.91
308.15	0.1698	121.98	5.18
308.15	0.2003	124.17	5.27
308.15	0.2905	130.62	5.54
308.15	0.3268	133.2	5.65
308.15	0.3657	135.96	5.77
308.15	0.4007	138.45	5.87
308.15	0.4987	145.4	6.17
308.15	0.5218	147.04	6.24
308.15	0.5508	149.1	6.33
308.15	0.6245	154.36	6.55
308.15	0.6587	156.81	6.65
308.15	0.7209	161.29	6.84
308.15	0.7554	163.78	6.95
308.15	0.7934	166.53	7.07
308.15	0.8264	168.93	7.17
308.15	0.8915	173.7	7.37
308.15	0.9243	176.11	7.47

System: 2-chlorotoluene + N-methylformamide; phases: Liquid
Fixed: Pressure, kPa = 100
Property: Mass density, kg/m3 (Liquid); method: Vibrating tube method
Temperature, K	Mole fraction of 2-chlorotoluene	Mass density, kg/m3	uncertainty
298.15	0.0934	1011.9	1
298.15	0.1467	1018.3	1
298.15	0.2025	1024.5	1
298.15	0.2537	1029.7	1
298.15	0.3139	1035.3	1
298.15	0.3643	1039.7	1
298.15	0.4137	1043.7	1
298.15	0.4725	1048.2	1
298.15	0.5013	1050.2	1
298.15	0.5495	1053.5	1
298.15	0.5963	1056.6	1
298.15	0.6269	1058.5	1
298.15	0.6783	1061.6	1
298.15	0.713	1063.5	1
298.15	0.7605	1066.1	1
298.15	0.8019	1068.3	1
298.15	0.8539	1070.8	1
298.15	0.9218	1074	1
303.15	0.0934	1007.4	1
303.15	0.1467	1013.7	1
303.15	0.2025	1019.9	1
303.15	0.2537	1025	1
303.15	0.3139	1030.7	1
303.15	0.3643	1035	1
303.15	0.4137	1039	1
303.15	0.4725	1043.5	1
303.15	0.5013	1045.5	1
303.15	0.5495	1048.8	1
303.15	0.5963	1051.8	1
303.15	0.6269	1053.7	1
303.15	0.6783	1056.8	1
303.15	0.713	1058.7	1
303.15	0.7605	1061.3	1
303.15	0.8019	1063.4	1
303.15	0.8539	1066	1
303.15	0.9218	1069.1	1
308.15	0.0934	1002.9	1
308.15	0.1467	1009.2	1
308.15	0.2025	1015.3	1
308.15	0.2537	1020.4	1
308.15	0.3139	1026	1
308.15	0.3643	1030.3	1
308.15	0.4137	1034.3	1
308.15	0.4725	1038.7	1
308.15	0.5013	1040.8	1
308.15	0.5495	1044.1	1
308.15	0.5963	1047.1	1
308.15	0.6269	1049	1
308.15	0.6783	1052	1
308.15	0.713	1053.9	1
308.15	0.7605	1056.5	1
308.15	0.8019	1058.6	1
308.15	0.8539	1061.1	1
308.15	0.9218	1064.2	1

System: 2-chlorotoluene + N-methylformamide; phases: Liquid
Fixed: Pressure, kPa = 100
Property: Speed of sound, m/s (Liquid); method: Sing-around technique in a fixed-path interferometer
Temperature, K	Mole fraction of 2-chlorotoluene	Speed of sound, m/s	uncertainty
298.15	0.0934	1405.2	1.6
298.15	0.1467	1392.2	1.6
298.15	0.2025	1379.8	1.6
298.15	0.2537	1369.5	1.5
298.15	0.3139	1358.6	1.5
298.15	0.3643	1350.4	1.5
298.15	0.4137	1342.9	1.5
298.15	0.4725	1335.1	1.5
298.15	0.5013	1331.5	1.5
298.15	0.5495	1326.1	1.5
298.15	0.5963	1321.3	1.5
298.15	0.6269	1318.4	1.5
298.15	0.6783	1314	1.5
298.15	0.713	1311.3	1.5
298.15	0.7605	1308.1	1.5
298.15	0.8019	1305.8	1.5
298.15	0.8539	1303.2	1.5
298.15	0.9218	1300.6	1.5
303.15	0.0934	1389.8	1.6
303.15	0.1467	1376.4	1.6
303.15	0.2025	1364	1.5
303.15	0.2537	1353.6	1.5
303.15	0.3139	1342.7	1.5
303.15	0.3643	1334.6	1.5
303.15	0.4137	1327.1	1.5
303.15	0.4725	1319.2	1.5
303.15	0.5013	1315.4	1.5
303.15	0.5495	1309.8	1.5
303.15	0.5963	1304.7	1.5
303.15	0.6269	1301.5	1.5
303.15	0.6783	1296.7	1.5
303.15	0.713	1293.9	1.5
303.15	0.7605	1290.2	1.5
303.15	0.8019	1287.5	1.5
303.15	0.8539	1284.7	1.5
303.15	0.9218	1282.1	1.5
308.15	0.0934	1373.6	1.6
308.15	0.1467	1360	1.5
308.15	0.2025	1347.6	1.5
308.15	0.2537	1337.3	1.5
308.15	0.3139	1326.6	1.5
308.15	0.3643	1318.4	1.5
308.15	0.4137	1310.9	1.5
308.15	0.4725	1302.8	1.5
308.15	0.5013	1299	1.5
308.15	0.5495	1293	1.5
308.15	0.5963	1287.8	1.5
308.15	0.6269	1284.4	1.5
308.15	0.6783	1279.3	1.5
308.15	0.713	1276.1	1.5
308.15	0.7605	1272.1	1.5
308.15	0.8019	1269.2	1.5
308.15	0.8539	1266.1	1.5
308.15	0.9218	1263.5	1.5

System: 2-chlorotoluene + N-methylformamide; phases: Liquid
Fixed: Pressure, kPa = 100
Fixed: Temperature, K = 308.15
Property: Excess molar enthalpy (molar enthalpy of mixing), kJ/mol (Liquid); method: Calvet calorimetry
Mole fraction of 2-chlorotoluene	Excess molar enthalpy (molar enthalpy of mixing), kJ/mol	uncertainty
0.1006	0.181	0.004
0.1525	0.254	0.006
0.2014	0.316	0.007
0.2524	0.374	0.008
0.2915	0.406	0.009
0.3462	0.447	0.01
0.3871	0.464	0.01
0.4217	0.481	0.01
0.4853	0.49	0.011
0.5363	0.484	0.011
0.5802	0.473	0.01
0.6461	0.441	0.01
0.6864	0.415	0.009
0.7344	0.379	0.008
0.7856	0.327	0.007
0.8315	0.267	0.006
0.8811	0.202	0.005
0.9246	0.131	0.003

System: 2-chlorotoluene + N-methylformamide; phases: Liquid
Fixed: Pressure, kPa = 100
Property: Molar heat capacity at constant pressure, J/K/mol (Liquid); method: Small sample (50 mg) DSC
Temperature, K	Mole fraction of 2-chlorotoluene	Molar heat capacity at constant pressure, J/K/mol	uncertainty
298.15	0.0893	130.45	5.53
298.15	0.1654	135.85	5.76
298.15	0.2271	140.08	5.94
298.15	0.2658	142.65	6.05
298.15	0.3006	144.9	6.15
298.15	0.3418	147.48	6.26
298.15	0.3894	150.35	6.38
298.15	0.4606	154.42	6.55
298.15	0.4985	156.46	6.64
298.15	0.5317	158.19	6.71
298.15	0.6187	162.46	6.89
298.15	0.6903	165.7	7.03
298.15	0.7276	167.31	7.1
298.15	0.7584	168.6	7.15
298.15	0.7954	170.11	7.22
298.15	0.8216	171.17	7.26
298.15	0.8904	173.88	7.38
298.15	0.9216	175.11	7.43
303.15	0.0893	131.77	5.59
303.15	0.1654	137.35	5.83
303.15	0.2271	141.69	6.01
303.15	0.2658	144.31	6.12
303.15	0.3006	146.6	6.22
303.15	0.3418	149.23	6.33
303.15	0.3894	152.14	6.45
303.15	0.4606	156.26	6.63
303.15	0.4985	158.34	6.72
303.15	0.5317	160.09	6.79
303.15	0.6187	164.4	6.97
303.15	0.6903	167.68	7.11
303.15	0.7276	169.29	7.18
303.15	0.7584	170.59	7.24
303.15	0.7954	172.1	7.3
303.15	0.8216	173.15	7.35
303.15	0.8904	175.83	7.46
303.15	0.9216	177.03	7.51
308.15	0.0893	133.22	5.65
308.15	0.1654	138.98	5.9
308.15	0.2271	143.41	6.08
308.15	0.2658	146.07	6.2
308.15	0.3006	148.38	6.3
308.15	0.3418	151.03	6.41
308.15	0.3894	153.96	6.53
308.15	0.4606	158.1	6.71
308.15	0.4985	160.18	6.8
308.15	0.5317	161.94	6.87
308.15	0.6187	166.28	7.05
308.15	0.6903	169.57	7.19
308.15	0.7276	171.19	7.26
308.15	0.7584	172.49	7.32
308.15	0.7954	174	7.38
308.15	0.8216	175.05	7.43
308.15	0.8904	177.69	7.54
308.15	0.9216	178.86	7.59

System: dimethylformamide + 2-chlorotoluene; phases: Liquid
Fixed: Pressure, kPa = 100
Property: Mass density, kg/m3 (Liquid); method: Vibrating tube method
Temperature, K	Mole fraction of 2-chlorotoluene	Mass density, kg/m3	uncertainty
298.15	0.1084	965.94	1
298.15	0.1527	973.9	1
298.15	0.2039	982.62	1
298.15	0.2488	989.88	1
298.15	0.2939	996.85	1
298.15	0.3164	1000.2	1
298.15	0.3667	1007.5	1
298.15	0.4048	1012.7	1
298.15	0.4437	1017.9	1
298.15	0.4965	1024.7	1
298.15	0.5368	1029.7	1
298.15	0.5637	1033	1
298.15	0.6162	1039.1	1
298.15	0.6853	1046.8	1
298.15	0.7263	1051.2	1
298.15	0.7934	1058.1	1
298.15	0.8469	1063.4	1
298.15	0.9016	1068.5	1
303.15	0.1084	961.16	1
303.15	0.1527	969.11	1
303.15	0.2039	977.82	1
303.15	0.2488	985.07	1
303.15	0.2939	992.03	1
303.15	0.3164	995.39	1
303.15	0.3667	1002.6	1
303.15	0.4048	1007.9	1
303.15	0.4437	1013.1	1
303.15	0.4965	1019.9	1
303.15	0.5368	1024.9	1
303.15	0.5637	1028.1	1
303.15	0.6162	1034.2	1
303.15	0.6853	1041.9	1
303.15	0.7263	1046.3	1
303.15	0.7934	1053.2	1
303.15	0.8469	1058.5	1
303.15	0.9016	1063.7	1
308.15	0.1084	956.37	1
308.15	0.1527	964.31	1
308.15	0.2039	973.01	1
308.15	0.2488	980.26	1
308.15	0.2939	987.21	1
308.15	0.3164	990.56	1
308.15	0.3667	997.8	1
308.15	0.4048	1003.1	1
308.15	0.4437	1008.3	1
308.15	0.4965	1015	1
308.15	0.5368	1020	1
308.15	0.5637	1023.3	1
308.15	0.6162	1029.4	1
308.15	0.6853	1037.1	1
308.15	0.7263	1041.5	1
308.15	0.7934	1048.4	1
308.15	0.8469	1053.6	1
308.15	0.9016	1058.8	1

System: dimethylformamide + 2-chlorotoluene; phases: Liquid
Fixed: Pressure, kPa = 100
Property: Speed of sound, m/s (Liquid); method: Sing-around technique in a fixed-path interferometer
Temperature, K	Mole fraction of 2-chlorotoluene	Speed of sound, m/s	uncertainty
298.15	0.1084	1461.4	1.2
298.15	0.1527	1459.2	1.2
298.15	0.2039	1454.7	1.3
298.15	0.2488	1449.1	1.3
298.15	0.2939	1442.7	1.3
298.15	0.3164	1439	1.3
298.15	0.3667	1430.3	1.3
298.15	0.4048	1423.2	1.3
298.15	0.4437	1415.9	1.3
298.15	0.4965	1405.4	1.3
298.15	0.5368	1397.4	1.3
298.15	0.5637	1392	1.4
298.15	0.6162	1381.3	1.4
298.15	0.6853	1367.4	1.4
298.15	0.7263	1359	1.4
298.15	0.7934	1345.2	1.4
298.15	0.8469	1333.9	1.5
298.15	0.9016	1321.9	1.5
303.15	0.1084	1445.2	1.2
303.15	0.1527	1443	1.2
303.15	0.2039	1438.1	1.2
303.15	0.2488	1432.1	1.3
303.15	0.2939	1425	1.3
303.15	0.3164	1421	1.3
303.15	0.3667	1411.7	1.3
303.15	0.4048	1404.2	1.3
303.15	0.4437	1396.5	1.3
303.15	0.4965	1385.8	1.3
303.15	0.5368	1377.6	1.3
303.15	0.5637	1372.2	1.4
303.15	0.6162	1361.8	1.4
303.15	0.6853	1348.3	1.4
303.15	0.7263	1340.3	1.4
303.15	0.7934	1327.2	1.4
303.15	0.8469	1316.3	1.5
303.15	0.9016	1304.6	1.5
308.15	0.1084	1427.2	1.2
308.15	0.1527	1425.2	1.2
308.15	0.2039	1420.2	1.2
308.15	0.2488	1414.3	1.3
308.15	0.2939	1407	1.3
308.15	0.3164	1402.9	1.3
308.15	0.3667	1393.7	1.3
308.15	0.4048	1386.1	1.3
308.15	0.4437	1378.5	1.3
308.15	0.4965	1368	1.3
308.15	0.5368	1359.8	1.3
308.15	0.5637	1354.6	1.3
308.15	0.6162	1344.6	1.4
308.15	0.6853	1331.5	1.4
308.15	0.7263	1323.7	1.4
308.15	0.7934	1310.9	1.4
308.15	0.8469	1300	1.5
308.15	0.9016	1288	1.5

System: dimethylformamide + 2-chlorotoluene; phases: Liquid
Fixed: Pressure, kPa = 100
Fixed: Temperature, K = 308.15
Property: Excess molar enthalpy (molar enthalpy of mixing), kJ/mol (Liquid); method: Calvet calorimetry
Mole fraction of 2-chlorotoluene	Excess molar enthalpy (molar enthalpy of mixing), kJ/mol	uncertainty
0.0899	0.209	0.005
0.1365	0.297	0.007
0.1829	0.372	0.008
0.2321	0.436	0.01
0.2867	0.49	0.011
0.3354	0.523	0.011
0.3862	0.544	0.012
0.4301	0.551	0.012
0.4882	0.545	0.012
0.5325	0.53	0.012
0.5816	0.503	0.011
0.6235	0.473	0.01
0.6739	0.428	0.009
0.7257	0.373	0.008
0.7839	0.303	0.007
0.8254	0.249	0.006
0.8833	0.169	0.004
0.9109	0.129	0.003

System: dimethylformamide + 2-chlorotoluene; phases: Liquid
Fixed: Pressure, kPa = 100
Property: Molar heat capacity at constant pressure, J/K/mol (Liquid); method: Small sample (50 mg) DSC
Temperature, K	Mole fraction of 2-chlorotoluene	Molar heat capacity at constant pressure, J/K/mol	uncertainty
298.15	0.0923	152.25	6.46
298.15	0.1789	155.81	6.61
298.15	0.2105	157.1	6.67
298.15	0.2598	159.07	6.75
298.15	0.2905	160.26	6.8
298.15	0.3683	163.16	6.92
298.15	0.3901	163.94	6.96
298.15	0.4608	166.31	7.06
298.15	0.4916	167.28	7.1
298.15	0.5218	168.19	7.14
298.15	0.5983	170.3	7.23
298.15	0.6108	170.62	7.24
298.15	0.6495	171.57	7.28
298.15	0.6982	172.68	7.33
298.15	0.7518	173.8	7.37
298.15	0.7926	174.59	7.41
298.15	0.8719	176.02	7.47
298.15	0.9262	176.94	7.51
303.15	0.0923	154.24	6.54
303.15	0.1789	157.87	6.7
303.15	0.2105	159.17	6.75
303.15	0.2598	161.16	6.84
303.15	0.2905	162.37	6.89
303.15	0.3683	165.29	7.01
303.15	0.3901	166.07	7.05
303.15	0.4608	168.44	7.15
303.15	0.4916	169.41	7.19
303.15	0.5218	170.31	7.23
303.15	0.5983	172.41	7.31
303.15	0.6108	172.72	7.33
303.15	0.6495	173.66	7.37
303.15	0.6982	174.75	7.41
303.15	0.7518	175.84	7.46
303.15	0.7926	176.6	7.49
303.15	0.8719	177.96	7.55
303.15	0.9262	178.84	7.59
308.15	0.0923	156.54	6.64
308.15	0.1789	160.2	6.8
308.15	0.2105	161.51	6.85
308.15	0.2598	163.5	6.94
308.15	0.2905	164.71	6.99
308.15	0.3683	167.61	7.11
308.15	0.3901	168.38	7.14
308.15	0.4608	170.72	7.24
308.15	0.4916	171.67	7.28
308.15	0.5218	172.56	7.32
308.15	0.5983	174.6	7.41
308.15	0.6108	174.9	7.42
308.15	0.6495	175.81	7.46
308.15	0.6982	176.85	7.5
308.15	0.7518	177.88	7.55
308.15	0.7926	178.6	7.58
308.15	0.8719	179.86	7.63
308.15	0.9262	180.66	7.66
