Measured thermophysical data. Densities and viscosities of binary mixtures of {dimethylsulfoxide + aliphatic lower alkanols (C1 C3)} at temperatures from T = 303.15 K to T = 323.15 K
Source: J. Chem. Thermodyn., 2007, 10.1016/j.jct.2006.10.016
Compound 1: methanol, CH4O, InChI=1S/CH4O/c1-2/h2H,1H3
Compound 2: ethanol, C2H6O, InChI=1S/C2H6O/c1-2-3/h3H,2H2,1H3
Compound 3: propan-1-ol, C3H8O, InChI=1S/C3H8O/c1-2-3-4/h4H,2-3H2,1H3
Compound 4: propan-2-ol, C3H8O, InChI=1S/C3H8O/c1-3(2)4/h3-4H,1-2H3
Compound 5: dimethyl sulfoxide, C2H6OS, InChI=1S/C2H6OS/c1-4(2)3/h1-2H3

System: methanol; phases: Liquid
Fixed: Pressure, kPa = 101
Property: Viscosity, Pa*s (Liquid); method: CAPTUB::UFactor:6
Temperature, K	Viscosity, Pa*s	uncertainty
303.15	0.0005178	2.77e-05
308.15	0.0004843	2.63e-05
313.15	0.0004515	2.49e-05
318.15	0.0004233	2.37e-05
323.15	0.000395	2.26e-05

System: methanol; phases: Liquid
Fixed: Pressure, kPa = 101
Property: Mass density, kg/m3 (Liquid); method: PYCNOM::UFactor:8
Temperature, K	Mass density, kg/m3	uncertainty
303.15	781.3	1.9
308.15	778.2	2.1
313.15	772.4	2.2
318.15	767.8	2.3
323.15	762.7	2.4

System: ethanol; phases: Liquid
Fixed: Pressure, kPa = 101
Property: Viscosity, Pa*s (Liquid); method: CAPTUB::UFactor:6
Temperature, K	Viscosity, Pa*s	uncertainty
303.15	0.0010858	5.13e-05
308.15	0.0009732	4.67e-05
313.15	0.0008596	4.19e-05
318.15	0.0008284	4.06e-05
323.15	0.0007493	3.73e-05

System: ethanol; phases: Liquid
Fixed: Pressure, kPa = 101
Property: Mass density, kg/m3 (Liquid); method: PYCNOM::UFactor:8
Temperature, K	Mass density, kg/m3	uncertainty
303.15	783.4	2
308.15	779	2.1
313.15	774.6	2.2
318.15	769.8	2.3
323.15	766.1	2.4

System: propan-1-ol; phases: Liquid
Fixed: Pressure, kPa = 101
Property: Viscosity, Pa*s (Liquid); method: CAPTUB::UFactor:6
Temperature, K	Viscosity, Pa*s	uncertainty
303.15	0.0017325	7.81e-05
308.15	0.0015344	6.99e-05
313.15	0.0013672	6.3e-05
318.15	0.001234	5.75e-05
323.15	0.0011004	5.19e-05

System: propan-1-ol; phases: Liquid
Fixed: Pressure, kPa = 101
Property: Mass density, kg/m3 (Liquid); method: PYCNOM::UFactor:8
Temperature, K	Mass density, kg/m3	uncertainty
303.15	795.5	2
308.15	791.1	2.1
313.15	787	2.2
318.15	783.3	2.3
323.15	779.5	2.4

System: propan-2-ol; phases: Liquid
Fixed: Pressure, kPa = 101
Property: Viscosity, Pa*s (Liquid); method: CAPTUB::UFactor:6
Temperature, K	Viscosity, Pa*s	uncertainty
303.15	0.0017919	8.05e-05
308.15	0.0015529	7.07e-05
313.15	0.0013554	6.25e-05
318.15	0.0011822	5.53e-05
323.15	0.0010411	4.95e-05

System: propan-2-ol; phases: Liquid
Fixed: Pressure, kPa = 101
Property: Mass density, kg/m3 (Liquid); method: PYCNOM::UFactor:8
Temperature, K	Mass density, kg/m3	uncertainty
303.15	776.4	1.9
308.15	772.6	2
313.15	768.6	2.1
318.15	763.9	2.3
323.15	758.8	2.4

System: dimethyl sulfoxide; phases: Liquid
Fixed: Pressure, kPa = 101
Property: Viscosity, Pa*s (Liquid); method: CAPTUB:UFactor:6
Temperature, K	Viscosity, Pa*s	uncertainty
303.15	0.001832	8.21e-05
308.15	0.0016696	7.55e-05
313.15	0.0015373	7e-05
318.15	0.001408	6.47e-05
323.15	0.001289	5.97e-05

System: dimethyl sulfoxide; phases: Liquid
Fixed: Pressure, kPa = 101
Property: Mass density, kg/m3 (Liquid); method: PYCNOM:UFactor:8
Temperature, K	Mass density, kg/m3	uncertainty
303.15	1090.7	2.9
308.15	1084.7	3
313.15	1082.3	3.2
318.15	1075.1	3.2
323.15	1070.1	3.4
323.15	1070	3.4

System: methanol + dimethyl sulfoxide; phases: Liquid
Fixed: Pressure, kPa = 101
Property: Viscosity, Pa*s (Liquid); method: CAPTUB:UFactor:6
Temperature, K	Mole fraction of dimethyl sulfoxide	Viscosity, Pa*s	uncertainty
303.15	0	0.0005178	2.77e-05
303.15	0.0998	0.0005976	3.1e-05
303.15	0.2004	0.000678	3.44e-05
303.15	0.3007	0.0007684	3.81e-05
303.15	0.3998	0.0008719	4.24e-05
303.15	0.4996	0.0009887	4.73e-05
303.15	0.6008	0.0011231	5.29e-05
303.15	0.699	0.0012724	5.91e-05
303.15	0.8011	0.0014421	6.61e-05
303.15	0.8997	0.0016292	7.38e-05
303.15	1	0.001832	8.21e-05
308.15	0	0.0004843	2.63e-05
308.15	0.0998	0.0005587	2.94e-05
308.15	0.2004	0.0006322	3.25e-05
308.15	0.3007	0.0007147	3.59e-05
308.15	0.3998	0.0008091	3.98e-05
308.15	0.4996	0.0009164	4.43e-05
308.15	0.6008	0.0010372	4.93e-05
308.15	0.699	0.0011724	5.49e-05
308.15	0.8011	0.0013261	6.13e-05
308.15	0.8997	0.0014922	6.81e-05
308.15	1	0.0016696	7.55e-05
313.15	0	0.0004515	2.49e-05
313.15	0.0998	0.0005228	2.79e-05
313.15	0.2004	0.000591	3.07e-05
313.15	0.3007	0.0006694	3.4e-05
313.15	0.3998	0.0007576	3.77e-05
313.15	0.4996	0.0008549	4.17e-05
313.15	0.6008	0.0009676	4.64e-05
313.15	0.699	0.0010898	5.15e-05
313.15	0.8011	0.0012263	5.71e-05
313.15	0.8997	0.0013788	6.35e-05
313.15	1	0.0015373	7e-05
318.15	0	0.0004233	2.37e-05
318.15	0.0998	0.0004918	2.66e-05
318.15	0.2004	0.0005532	2.92e-05
318.15	0.3007	0.0006281	3.23e-05
318.15	0.3998	0.0007073	3.56e-05
318.15	0.4996	0.0007972	3.93e-05
318.15	0.6008	0.0009008	4.36e-05
318.15	0.699	0.0010124	4.83e-05
318.15	0.8011	0.0011308	5.32e-05
318.15	0.8997	0.0012688	5.89e-05
318.15	1	0.001408	6.47e-05
323.15	0	0.000395	2.26e-05
323.15	0.0998	0.0004582	2.52e-05
323.15	0.2004	0.0005163	2.76e-05
323.15	0.3007	0.0005857	3.05e-05
323.15	0.3998	0.0006605	3.36e-05
323.15	0.4996	0.0007426	3.71e-05
323.15	0.6008	0.0008357	4.09e-05
323.15	0.699	0.0009359	4.51e-05
323.15	0.8011	0.0010448	4.96e-05
323.15	0.8997	0.0011671	5.47e-05
323.15	1	0.001289	5.97e-05

System: methanol + dimethyl sulfoxide; phases: Liquid
Fixed: Pressure, kPa = 101
Property: Mass density, kg/m3 (Liquid); method: PYCNOM:UFactor:8
Temperature, K	Mole fraction of dimethyl sulfoxide	Mass density, kg/m3	uncertainty
303.15	0	781.3	1.9
303.15	0.0998	837.8	2.1
303.15	0.2004	886	2.3
303.15	0.3007	925	2.4
303.15	0.3998	959.3	2.5
303.15	0.4996	988.4	2.6
303.15	0.6008	1013.9	2.7
303.15	0.699	1035.3	2.8
303.15	0.8011	1055.5	2.8
303.15	0.8997	1073.7	2.9
303.15	1	1090.7	2.9
308.15	0	778.2	2.1
308.15	0.0998	834.7	2.2
308.15	0.2004	882.3	2.4
308.15	0.3007	921	2.5
308.15	0.3998	955	2.6
308.15	0.4996	983.6	2.7
308.15	0.6008	1009	2.8
308.15	0.699	1030.1	2.9
308.15	0.8011	1050.3	2.9
308.15	0.8997	1068.3	3
308.15	1	1084.7	3
313.15	0	772.4	2.2
313.15	0.0998	829.9	2.3
313.15	0.2004	877.3	2.5
313.15	0.3007	916.3	2.6
313.15	0.3998	950.7	2.7
313.15	0.4996	979.6	2.8
313.15	0.6008	1005.6	2.9
313.15	0.699	1026.9	3
313.15	0.8011	1047.7	3
313.15	0.8997	1065.8	3.1
313.15	1	1082.3	3.2
318.15	0	767.8	2.3
318.15	0.0998	825.2	2.4
318.15	0.2004	872.2	2.6
318.15	0.3007	910.8	2.7
318.15	0.3998	944.7	2.8
318.15	0.4996	973.3	2.9
318.15	0.6008	999.4	3
318.15	0.699	1020.9	3.1
318.15	0.8011	1040.9	3.1
318.15	0.8997	1059	3.2
318.15	1	1075.1	3.2
323.15	0	762.7	2.4
323.15	0.0998	820.4	2.6
323.15	0.2004	867.1	2.7
323.15	0.3007	905.7	2.8
323.15	0.3998	939.6	2.9
323.15	0.4996	968.4	3
323.15	0.6008	994.4	3.1
323.15	0.699	1016	3.2
323.15	0.8011	1036.3	3.2
323.15	0.8997	1054	3.3
323.15	1	1070.1	3.4

System: ethanol + dimethyl sulfoxide; phases: Liquid
Fixed: Pressure, kPa = 101
Property: Viscosity, Pa*s (Liquid); method: CAPTUB:UFactor:6
Temperature, K	Mole fraction of dimethyl sulfoxide	Viscosity, Pa*s	uncertainty
303.15	0	0.0010858	5.13e-05
303.15	0.1008	0.0012444	5.79e-05
303.15	0.2004	0.0012054	5.63e-05
303.15	0.2994	0.0012092	5.64e-05
303.15	0.4005	0.0012367	5.76e-05
303.15	0.4995	0.0012825	5.95e-05
303.15	0.6005	0.0013605	6.27e-05
303.15	0.7012	0.0014638	6.7e-05
303.15	0.8011	0.0015572	7.08e-05
303.15	0.8999	0.0016578	7.5e-05
303.15	1	0.001832	8.21e-05
308.15	0	0.0009732	4.67e-05
308.15	0.1008	0.0011224	5.28e-05
308.15	0.2004	0.0010958	5.17e-05
308.15	0.2994	0.0010982	5.18e-05
308.15	0.4005	0.0011434	5.37e-05
308.15	0.4995	0.001179	5.52e-05
308.15	0.6005	0.0012484	5.81e-05
308.15	0.7012	0.0013398	6.18e-05
308.15	0.8011	0.0014352	6.58e-05
308.15	0.8999	0.0015166	6.92e-05
308.15	1	0.0016696	7.55e-05
313.15	0	0.0008596	4.19e-05
313.15	0.1008	0.0010253	4.88e-05
313.15	0.2004	0.0009964	4.76e-05
313.15	0.2994	0.0010105	4.82e-05
313.15	0.4005	0.001038	4.93e-05
313.15	0.4995	0.0010863	5.13e-05
313.15	0.6005	0.0011541	5.42e-05
313.15	0.7012	0.0012344	5.75e-05
313.15	0.8011	0.001323	6.12e-05
313.15	0.8999	0.0013926	6.4e-05
313.15	1	0.0015373	7e-05
318.15	0	0.0008284	4.06e-05
318.15	0.1008	0.0009261	4.47e-05
318.15	0.2004	0.0009126	4.41e-05
318.15	0.2994	0.0009262	4.47e-05
318.15	0.4005	0.000961	4.61e-05
318.15	0.4995	0.001004	4.79e-05
318.15	0.6005	0.0010646	5.04e-05
318.15	0.7012	0.0011392	5.35e-05
318.15	0.8011	0.0012166	5.67e-05
318.15	0.8999	0.0012894	5.98e-05
318.15	1	0.001408	6.47e-05
323.15	0	0.0007493	3.73e-05
323.15	0.1008	0.0008551	4.17e-05
323.15	0.2004	0.0008356	4.09e-05
323.15	0.2994	0.0008544	4.17e-05
323.15	0.4005	0.0008876	4.31e-05
323.15	0.4995	0.0009264	4.47e-05
323.15	0.6005	0.0009847	4.71e-05
323.15	0.7012	0.0010498	4.98e-05
323.15	0.8011	0.0011255	5.3e-05
323.15	0.8999	0.0011833	5.54e-05
323.15	1	0.001289	5.97e-05

System: ethanol + dimethyl sulfoxide; phases: Liquid
Fixed: Pressure, kPa = 101
Property: Mass density, kg/m3 (Liquid); method: PYCNOM:UFactor:8
Temperature, K	Mole fraction of dimethyl sulfoxide	Mass density, kg/m3	uncertainty
303.15	0	783.4	2
303.15	0.1008	836	2.1
303.15	0.2004	870.1	2.2
303.15	0.2994	902.4	2.3
303.15	0.4005	933.9	2.4
303.15	0.4995	963.3	2.5
303.15	0.6005	991.6	2.6
303.15	0.7012	1018.4	2.7
303.15	0.8011	1043.6	2.8
303.15	0.8999	1067.5	2.9
303.15	1	1090.7	2.9
308.15	0	779	2.1
308.15	0.1008	831.6	2.2
308.15	0.2004	865.6	2.3
308.15	0.2994	897.7	2.4
308.15	0.4005	929	2.5
308.15	0.4995	958.2	2.6
308.15	0.6005	986.3	2.7
308.15	0.7012	1013	2.8
308.15	0.8011	1038.3	2.9
308.15	0.8999	1062.1	3
308.15	1	1084.7	3
313.15	0	774.6	2.2
313.15	0.1008	827.6	2.3
313.15	0.2004	861.7	2.4
313.15	0.2994	894	2.5
313.15	0.4005	925.6	2.6
313.15	0.4995	955	2.7
313.15	0.6005	983.4	2.8
313.15	0.7012	1010.3	2.9
313.15	0.8011	1035.9	3
313.15	0.8999	1059.8	3.1
313.15	1	1082.3	3.2
318.15	0	769.8	2.3
318.15	0.1008	822.8	2.4
318.15	0.2004	856.7	2.5
318.15	0.2994	888.8	2.7
318.15	0.4005	920.1	2.8
318.15	0.4995	949.2	2.8
318.15	0.6005	977.4	2.9
318.15	0.7012	1004.1	3
318.15	0.8011	1029.5	3.1
318.15	0.8999	1053.1	3.2
318.15	1	1075.1	3.2
323.15	0	766.1	2.4
323.15	0.1008	818.1	2.5
323.15	0.2004	852.1	2.7
323.15	0.2994	884	2.8
323.15	0.4005	915.3	2.9
323.15	0.4995	944.4	2.9
323.15	0.6005	972.4	3
323.15	0.7012	999.3	3.1
323.15	0.8011	1024.7	3.2
323.15	0.8999	1048.4	3.3
323.15	1	1070	3.4

System: dimethyl sulfoxide + propan-1-ol; phases: Liquid
Fixed: Pressure, kPa = 101
Property: Viscosity, Pa*s (Liquid); method: CAPTUB:UFactor:6
Temperature, K	Mole fraction of dimethyl sulfoxide	Viscosity, Pa*s	uncertainty
303.15	0	0.0017325	7.81e-05
303.15	0.1003	0.0015977	7.25e-05
303.15	0.1995	0.0014102	6.48e-05
303.15	0.2999	0.0014024	6.44e-05
303.15	0.3994	0.0013931	6.41e-05
303.15	0.5	0.0014247	6.54e-05
303.15	0.5995	0.0014917	6.81e-05
303.15	0.7002	0.0015315	6.98e-05
303.15	0.7998	0.0015931	7.23e-05
303.15	0.9004	0.0017278	7.79e-05
303.15	1	0.001832	8.21e-05
308.15	0	0.0015344	6.99e-05
308.15	0.1003	0.0014358	6.58e-05
308.15	0.1995	0.0012775	5.93e-05
308.15	0.2999	0.001277	5.92e-05
308.15	0.3994	0.0012734	5.91e-05
308.15	0.5	0.0013097	6.06e-05
308.15	0.5995	0.0013575	6.26e-05
308.15	0.7002	0.0014001	6.43e-05
308.15	0.7998	0.0014516	6.65e-05
308.15	0.9004	0.001629	7.38e-05
308.15	1	0.0016696	7.55e-05
313.15	0	0.0013672	6.3e-05
313.15	0.1003	0.001257	5.84e-05
313.15	0.1995	0.0011634	5.45e-05
313.15	0.2999	0.001173	5.49e-05
313.15	0.3994	0.0011704	5.48e-05
313.15	0.5	0.0012073	5.64e-05
313.15	0.5995	0.0012462	5.8e-05
313.15	0.7002	0.0012895	5.98e-05
313.15	0.7998	0.0013349	6.16e-05
313.15	0.9004	0.0014928	6.82e-05
313.15	1	0.0015373	7e-05
318.15	0	0.001234	5.75e-05
318.15	0.1003	0.0011419	5.37e-05
318.15	0.1995	0.0010657	5.05e-05
318.15	0.2999	0.0010779	5.1e-05
318.15	0.3994	0.0010836	5.12e-05
318.15	0.5	0.0011099	5.23e-05
318.15	0.5995	0.001148	5.39e-05
318.15	0.7002	0.0012013	5.61e-05
318.15	0.7998	0.0012473	5.8e-05
318.15	0.9004	0.0013613	6.27e-05
318.15	1	0.001408	6.47e-05
323.15	0	0.0011004	5.19e-05
323.15	0.1003	0.0010336	4.92e-05
323.15	0.1995	0.0009724	4.66e-05
323.15	0.2999	0.0009878	4.73e-05
323.15	0.3994	0.0009964	4.76e-05
323.15	0.5	0.0010167	4.85e-05
323.15	0.5995	0.0010699	5.07e-05
323.15	0.7002	0.0011002	5.19e-05
323.15	0.7998	0.00114	5.36e-05
323.15	0.9004	0.0012193	5.69e-05
323.15	1	0.001289	5.97e-05

System: dimethyl sulfoxide + propan-1-ol; phases: Liquid
Fixed: Pressure, kPa = 101
Property: Mass density, kg/m3 (Liquid); method: PYCNOM:UFactor:8
Temperature, K	Mole fraction of dimethyl sulfoxide	Mass density, kg/m3	uncertainty
303.15	0	795.5	2
303.15	0.1003	824.3	2.1
303.15	0.1995	853.1	2.2
303.15	0.2999	881.4	2.3
303.15	0.3994	910.1	2.4
303.15	0.5	938.7	2.5
303.15	0.5995	968.1	2.5
303.15	0.7002	998.2	2.6
303.15	0.7998	1027.6	2.7
303.15	0.9004	1059.4	2.8
303.15	1	1090.7	2.9
308.15	0	791.1	2.1
308.15	0.1003	820.3	2.2
308.15	0.1995	848.6	2.3
308.15	0.2999	876.6	2.4
308.15	0.3994	905.3	2.5
308.15	0.5	933.4	2.6
308.15	0.5995	962.5	2.6
308.15	0.7002	992.2	2.7
308.15	0.7998	1021.6	2.8
308.15	0.9004	1053	2.9
308.15	1	1084.7	3
313.15	0	787	2.2
313.15	0.1003	816.5	2.3
313.15	0.1995	844.8	2.4
313.15	0.2999	873.2	2.5
313.15	0.3994	901.7	2.6
313.15	0.5	929.7	2.7
313.15	0.5995	958.8	2.8
313.15	0.7002	988.8	2.9
313.15	0.7998	1017.5	2.9
313.15	0.9004	1050	3
313.15	1	1082.3	3.2
318.15	0	783.3	2.3
318.15	0.1003	812.7	2.4
318.15	0.1995	840.8	2.5
318.15	0.2999	868.7	2.6
318.15	0.3994	897.1	2.7
318.15	0.5	924.3	2.8
318.15	0.5995	953.2	2.9
318.15	0.7002	982.3	3
318.15	0.7998	1011	3
318.15	0.9004	1043	3.1
318.15	1	1075.1	3.2
323.15	0	779.5	2.4
323.15	0.1003	808.9	2.5
323.15	0.1995	836.8	2.6
323.15	0.2999	864.8	2.7
323.15	0.3994	892.9	2.8
323.15	0.5	919.7	2.9
323.15	0.5995	948.6	3
323.15	0.7002	977.6	3.1
323.15	0.7998	1006.1	3.1
323.15	0.9004	1037.6	3.2
323.15	1	1070	3.4

System: propan-2-ol + dimethyl sulfoxide; phases: Liquid
Fixed: Pressure, kPa = 101
Property: Viscosity, Pa*s (Liquid); method: CAPTUB:UFactor:6
Temperature, K	Mole fraction of dimethyl sulfoxide	Viscosity, Pa*s	uncertainty
303.15	0	0.0017919	8.05e-05
303.15	0.1001	0.0015249	6.95e-05
303.15	0.2011	0.0013915	6.4e-05
303.15	0.3005	0.0013056	6.04e-05
303.15	0.4007	0.0013347	6.16e-05
303.15	0.4994	0.0013414	6.19e-05
303.15	0.601	0.0013957	6.42e-05
303.15	0.701	0.0014744	6.74e-05
303.15	0.7994	0.0015502	7.05e-05
303.15	0.9005	0.0016711	7.55e-05
303.15	1	0.001832	8.21e-05
308.15	0	0.0015529	7.07e-05
308.15	0.1001	0.0013522	6.24e-05
308.15	0.2011	0.0012457	5.8e-05
308.15	0.3005	0.0011802	5.52e-05
308.15	0.4007	0.0012086	5.64e-05
308.15	0.4994	0.0012232	5.7e-05
308.15	0.601	0.0012738	5.91e-05
308.15	0.701	0.0013426	6.2e-05
308.15	0.7994	0.0014096	6.47e-05
308.15	0.9005	0.0015164	6.91e-05
308.15	1	0.0016696	7.55e-05
313.15	0	0.0013554	6.25e-05
313.15	0.1001	0.0011995	5.6e-05
313.15	0.2011	0.0011179	5.27e-05
313.15	0.3005	0.0010779	5.1e-05
313.15	0.4007	0.0011034	5.21e-05
313.15	0.4994	0.0011239	5.29e-05
313.15	0.601	0.0011728	5.49e-05
313.15	0.701	0.0012326	5.74e-05
313.15	0.7994	0.0013102	6.06e-05
313.15	0.9005	0.0014012	6.44e-05
313.15	1	0.0015373	7e-05
318.15	0	0.0011822	5.53e-05
318.15	0.1001	0.0010779	5.1e-05
318.15	0.2011	0.0010098	4.82e-05
318.15	0.3005	0.0009836	4.71e-05
318.15	0.4007	0.0010114	4.82e-05
318.15	0.4994	0.0010362	4.93e-05
318.15	0.601	0.0010796	5.11e-05
318.15	0.701	0.0011358	5.34e-05
318.15	0.7994	0.0011983	5.6e-05
318.15	0.9005	0.0012855	5.96e-05
318.15	1	0.001408	6.47e-05
323.15	0	0.0010411	4.95e-05
323.15	0.1001	0.0009656	4.63e-05
323.15	0.2011	0.0009102	4.4e-05
323.15	0.3005	0.0008887	4.31e-05
323.15	0.4007	0.0009133	4.42e-05
323.15	0.4994	0.0009383	4.52e-05
323.15	0.601	0.0009843	4.71e-05
323.15	0.701	0.0010411	4.95e-05
323.15	0.7994	0.0011082	5.23e-05
323.15	0.9005	0.0011705	5.48e-05
323.15	1	0.001289	5.97e-05

System: propan-2-ol + dimethyl sulfoxide; phases: Liquid
Fixed: Pressure, kPa = 101
Property: Mass density, kg/m3 (Liquid); method: PYCNOM:UFactor:8
Temperature, K	Mole fraction of dimethyl sulfoxide	Mass density, kg/m3	uncertainty
303.15	0	776.4	1.9
303.15	0.1001	806.4	2
303.15	0.2011	834.9	2.1
303.15	0.3005	865	2.2
303.15	0.4007	895.8	2.3
303.15	0.4994	926.6	2.4
303.15	0.601	958.9	2.5
303.15	0.701	991.1	2.6
303.15	0.7994	1023.3	2.7
303.15	0.9005	1056.9	2.8
303.15	1	1090.7	2.9
308.15	0	772.6	2
308.15	0.1001	802.2	2.1
308.15	0.2011	830.4	2.2
308.15	0.3005	860.4	2.3
308.15	0.4007	891	2.4
308.15	0.4994	921.6	2.5
308.15	0.601	953.7	2.6
308.15	0.701	985.6	2.7
308.15	0.7994	1017.6	2.8
308.15	0.9005	1051	2.9
308.15	1	1084.7	3
313.15	0	768.6	2.1
313.15	0.1001	798.2	2.2
313.15	0.2011	826	2.3
313.15	0.3005	856.3	2.4
313.15	0.4007	887.1	2.5
313.15	0.4994	917.9	2.6
313.15	0.601	950	2.7
313.15	0.701	982.2	2.8
313.15	0.7994	1014.5	2.9
313.15	0.9005	1048.2	3
313.15	1	1082.3	3.2
318.15	0	763.9	2.3
318.15	0.1001	793.2	2.3
318.15	0.2011	820.7	2.4
318.15	0.3005	850.6	2.5
318.15	0.4007	881.3	2.6
318.15	0.4994	911.9	2.7
318.15	0.601	943.8	2.8
318.15	0.701	975.7	2.9
318.15	0.7994	1007.6	3
318.15	0.9005	1041	3.1
318.15	1	1075.1	3.2
323.15	0	758.8	2.4
323.15	0.1001	787.9	2.4
323.15	0.2011	815.3	2.5
323.15	0.3005	845.2	2.6
323.15	0.4007	875.8	2.7
323.15	0.4994	906.5	2.8
323.15	0.601	938.5	2.9
323.15	0.701	970.4	3
323.15	0.7994	1002.3	3.1
323.15	0.9005	1035.8	3.2
323.15	1	1070	3.4
