Measured thermophysical data. The pqT behaviour of the lactate family
Source: J. Chem. Thermodyn., 2013, 10.1016/j.jct.2012.11.002
Compound 1: methyl 2-hydroxypropanoate, C4H8O3, InChI=1S/C4H8O3/c1-3(5)4(6)7-2/h3,5H,1-2H3, purity 98%
Compound 2: DL-ethyl lactate, C5H10O3, InChI=1S/C5H10O3/c1-3-8-5(7)4(2)6/h4,6H,3H2,1-2H3, purity 98%
Compound 3: butyl 2-hydroxypropanoate, C7H14O3, InChI=1S/C7H14O3/c1-3-4-5-10-7(9)6(2)8/h6,8H,3-5H2,1-2H3, purity 98%

System: methyl 2-hydroxypropanoate; phases: Liquid
Property: Mass density, kg/m3 (Liquid); method: Vibrating tube method
Temperature, K	Pressure, kPa	Mass density, kg/m3	uncertainty
283.15	100	1104.41	1.06
288.15	100	1098.86	1.04
293.15	100	1093.31	1.03
298.15	100	1087.76	1.02
303.15	100	1082.13	1.01
308.15	100	1076.53	1
313.15	100	1070.85	0.98
318.15	100	1065.11	0.97
323.15	100	1059.39	0.96
328.15	100	1053.63	0.95
333.15	100	1047.83	0.94
338.15	100	1042	0.92
283.15	2500	1106	1.07
288.15	2500	1100.48	1.06
293.15	2500	1094.99	1.04
298.15	2500	1089.42	1.03
303.15	2500	1083.92	1.02
308.15	2500	1078.32	1.01
313.15	2500	1072.76	0.99
318.15	2500	1067.04	0.98
323.15	2500	1061.4	0.97
328.15	2500	1055.7	0.96
333.15	2500	1049.97	0.94
338.15	2500	1044.15	0.93
283.15	5000	1107.57	1.08
288.15	5000	1102.13	1.07
293.15	5000	1096.72	1.06
298.15	5000	1091.21	1.04
303.15	5000	1085.75	1.03
308.15	5000	1080.19	1.02
313.15	5000	1074.65	1.01
318.15	5000	1068.97	0.99
323.15	5000	1063.43	0.98
328.15	5000	1057.77	0.97
333.15	5000	1052.16	0.95
338.15	5000	1046.35	0.94
283.15	7500	1109.14	1.1
288.15	7500	1103.77	1.08
293.15	7500	1098.35	1.07
298.15	7500	1092.88	1.06
303.15	7500	1087.5	1.04
308.15	7500	1082	1.03
313.15	7500	1076.52	1.02
318.15	7500	1070.94	1
323.15	7500	1065.44	0.99
328.15	7500	1059.74	0.98
333.15	7500	1054.23	0.96
338.15	7500	1048.52	0.95
283.15	10000	1110.68	1.11
288.15	10000	1105.31	1.1
293.15	10000	1099.92	1.08
298.15	10000	1094.57	1.07
303.15	10000	1089.23	1.06
308.15	10000	1083.79	1.04
313.15	10000	1078.39	1.03
318.15	10000	1072.77	1.02
323.15	10000	1067.34	1
328.15	10000	1061.8	0.99
333.15	10000	1056.23	0.97
338.15	10000	1050.63	0.96
283.15	20000	1116.59	1.17
288.15	20000	1111.55	1.16
293.15	20000	1106.2	1.14
298.15	20000	1101.03	1.13
303.15	20000	1095.82	1.11
308.15	20000	1090.68	1.1
313.15	20000	1085.28	1.08
318.15	20000	1080.09	1.07
323.15	20000	1074.67	1.05
328.15	20000	1069.41	1.03
333.15	20000	1064.05	1.02
338.15	20000	1058.63	1
283.15	30000	1122.23	1.24
288.15	30000	1117.27	1.22
293.15	30000	1112.08	1.2
298.15	30000	1107.23	1.19
303.15	30000	1101.97	1.17
308.15	30000	1097.03	1.15
313.15	30000	1091.84	1.13
318.15	30000	1086.77	1.12
323.15	30000	1081.41	1.1
328.15	30000	1076.5	1.08
333.15	30000	1071.33	1.07
338.15	30000	1066.13	1.05
283.15	40000	1127.45	1.3
288.15	40000	1122.78	1.29
293.15	40000	1117.65	1.27
298.15	40000	1112.83	1.25
303.15	40000	1107.9	1.23
308.15	40000	1102.99	1.21
313.15	40000	1097.99	1.19
318.15	40000	1093.08	1.18
323.15	40000	1088	1.16
328.15	40000	1083.15	1.14
333.15	40000	1078.01	1.12
338.15	40000	1073.12	1.1
283.15	50000	1132.48	1.37
288.15	50000	1127.98	1.35
293.15	50000	1122.93	1.33
298.15	50000	1118.24	1.31
303.15	50000	1113.44	1.29
308.15	50000	1108.63	1.27
313.15	50000	1103.74	1.25
318.15	50000	1098.93	1.24
323.15	50000	1094.04	1.22
328.15	50000	1089.4	1.2
333.15	50000	1084.39	1.18
338.15	50000	1079.74	1.16
283.15	60000	1137.4	1.45
288.15	60000	1132.78	1.43
293.15	60000	1128.01	1.4
298.15	60000	1123.43	1.38
303.15	60000	1118.66	1.36
308.15	60000	1114.02	1.34
313.15	60000	1109.24	1.32
318.15	60000	1104.49	1.3
323.15	60000	1099.76	1.28
328.15	60000	1095.07	1.26
333.15	60000	1090.37	1.24
338.15	60000	1085.76	1.21

System: DL-ethyl lactate; phases: Liquid
Property: Mass density, kg/m3 (Liquid); method: Vibrating tube method
Temperature, K	Pressure, kPa	Mass density, kg/m3	uncertainty
283.15	100	1045.06	0.93
288.15	100	1039.64	0.92
293.15	100	1034.25	0.91
298.15	100	1028.78	0.9
303.15	100	1023.32	0.89
308.15	100	1017.84	0.87
313.15	100	1012.33	0.86
318.15	100	1006.72	0.85
323.15	100	1001.23	0.84
328.15	100	995.54	0.83
333.15	100	989.91	0.83
338.15	100	984.3	0.82
283.15	2500	1046.77	0.94
288.15	2500	1041.39	0.93
293.15	2500	1036.05	0.91
298.15	2500	1030.66	0.9
303.15	2500	1025.21	0.89
308.15	2500	1019.82	0.88
313.15	2500	1014.31	0.87
318.15	2500	1008.86	0.86
323.15	2500	1003.36	0.84
328.15	2500	997.8	0.84
333.15	2500	992.19	0.83
338.15	2500	986.71	0.82
283.15	5000	1048.51	0.95
288.15	5000	1043.21	0.93
293.15	5000	1037.86	0.92
298.15	5000	1032.56	0.91
303.15	5000	1027.24	0.9
308.15	5000	1021.87	0.89
313.15	5000	1016.42	0.87
318.15	5000	1011.01	0.86
323.15	5000	1005.56	0.85
328.15	5000	1000.11	0.84
333.15	5000	994.55	0.83
338.15	5000	989.18	0.83
283.15	7500	1050.24	0.95
288.15	7500	1044.99	0.94
293.15	7500	1039.7	0.93
298.15	7500	1034.43	0.92
303.15	7500	1029.11	0.91
308.15	7500	1023.84	0.89
313.15	7500	1018.41	0.88
318.15	7500	1013.1	0.87
323.15	7500	1007.68	0.86
328.15	7500	1002.34	0.84
333.15	7500	996.87	0.83
338.15	7500	991.49	0.83
283.15	10000	1051.88	0.96
288.15	10000	1046.74	0.95
293.15	10000	1041.5	0.94
298.15	10000	1036.23	0.93
303.15	10000	1031	0.91
308.15	10000	1025.7	0.9
313.15	10000	1020.39	0.89
318.15	10000	1015.13	0.87
323.15	10000	1009.78	0.86
328.15	10000	1004.46	0.85
333.15	10000	999.06	0.84
338.15	10000	993.65	0.83
283.15	20000	1058.39	1
288.15	20000	1053.28	0.99
293.15	20000	1048.3	0.97
298.15	20000	1043.21	0.96
303.15	20000	1038.26	0.95
308.15	20000	1033.08	0.93
313.15	20000	1027.93	0.92
318.15	20000	1022.87	0.9
323.15	20000	1017.76	0.89
328.15	20000	1012.65	0.87
333.15	20000	1007.62	0.86
338.15	20000	1002.34	0.84
283.15	30000	1064.45	1.04
288.15	30000	1059.46	1.03
293.15	30000	1054.58	1.01
298.15	30000	1049.76	1
303.15	30000	1044.91	0.98
308.15	30000	1039.92	0.97
313.15	30000	1034.97	0.95
318.15	30000	1030.04	0.93
323.15	30000	1025.13	0.92
328.15	30000	1020.17	0.9
333.15	30000	1015.4	0.89
338.15	30000	1010.27	0.87
283.15	40000	1070.13	1.09
288.15	40000	1065.24	1.07
293.15	40000	1060.54	1.06
298.15	40000	1055.69	1.04
303.15	40000	1051.19	1.02
308.15	40000	1046.28	1
313.15	40000	1041.52	0.99
318.15	40000	1036.74	0.97
323.15	40000	1031.99	0.95
328.15	40000	1027.16	0.93
333.15	40000	1022.5	0.92
338.15	40000	1017.75	0.9
283.15	50000	1075.5	1.14
288.15	50000	1070.74	1.12
293.15	50000	1066.26	1.1
298.15	50000	1061.53	1.08
303.15	50000	1056.95	1.06
308.15	50000	1052.19	1.05
313.15	50000	1047.69	1.03
318.15	50000	1042.96	1.01
323.15	50000	1038.42	0.99
328.15	50000	1033.75	0.97
333.15	50000	1029.24	0.95
338.15	50000	1024.55	0.93
283.15	60000	1080.55	1.19
288.15	60000	1076.04	1.17
293.15	60000	1071.55	1.15
298.15	60000	1066.96	1.13
303.15	60000	1062.52	1.11
308.15	60000	1057.98	1.09
313.15	60000	1053.46	1.07
318.15	60000	1048.96	1.05
323.15	60000	1044.49	1.03
328.15	60000	1039.99	1.01
333.15	60000	1035.71	0.99
338.15	60000	1031.04	0.97

System: butyl 2-hydroxypropanoate; phases: Liquid
Property: Mass density, kg/m3 (Liquid); method: Vibrating tube method
Temperature, K	Pressure, kPa	Mass density, kg/m3	uncertainty
283.15	100	992.75	0.83
288.15	100	987.86	0.82
293.15	100	982.96	0.82
298.15	100	977.96	0.81
303.15	100	973.09	0.81
308.15	100	967.74	0.8
313.15	100	963.05	0.79
318.15	100	957.98	0.79
323.15	100	952.44	0.78
328.15	100	947.31	0.78
333.15	100	942.28	0.77
338.15	100	937.09	0.76
283.15	2500	994.4	0.83
288.15	2500	989.52	0.83
293.15	2500	984.69	0.82
298.15	2500	979.83	0.82
303.15	2500	974.98	0.81
308.15	2500	970.01	0.8
313.15	2500	965.11	0.8
318.15	2500	960.06	0.79
323.15	2500	954.61	0.79
328.15	2500	949.44	0.78
333.15	2500	944.52	0.78
338.15	2500	939.39	0.77
283.15	5000	996.14	0.83
288.15	5000	991.32	0.83
293.15	5000	986.5	0.82
298.15	5000	981.74	0.82
303.15	5000	976.81	0.81
308.15	5000	971.95	0.81
313.15	5000	967.03	0.8
318.15	5000	962.11	0.8
323.15	5000	956.73	0.79
328.15	5000	951.63	0.79
333.15	5000	946.72	0.79
338.15	5000	941.78	0.78
283.15	7500	997.77	0.84
288.15	7500	993.09	0.83
293.15	7500	988.29	0.83
298.15	7500	983.49	0.82
303.15	7500	978.72	0.82
308.15	7500	973.85	0.81
313.15	7500	969.06	0.81
318.15	7500	964.16	0.81
323.15	7500	958.74	0.8
328.15	7500	953.79	0.8
333.15	7500	948.91	0.79
338.15	7500	943.99	0.79
283.15	10000	999.41	0.84
288.15	10000	994.7	0.83
293.15	10000	990.02	0.83
298.15	10000	985.26	0.83
303.15	10000	980.54	0.82
308.15	10000	975.59	0.82
313.15	10000	970.96	0.81
318.15	10000	966.04	0.81
323.15	10000	960.79	0.81
328.15	10000	955.86	0.8
333.15	10000	951.02	0.8
338.15	10000	946.05	0.79
283.15	20000	1005.87	0.85
288.15	20000	1001.18	0.84
293.15	20000	996.69	0.84
298.15	20000	992.04	0.83
303.15	20000	987.67	0.83
308.15	20000	982.84	0.83
313.15	20000	978.27	0.83
318.15	20000	973.62	0.83
323.15	20000	968.64	0.82
328.15	20000	963.73	0.82
333.15	20000	959.28	0.82
338.15	20000	954.42	0.82
283.15	30000	1011.69	0.87
288.15	30000	1007.12	0.86
293.15	30000	1002.96	0.85
298.15	30000	998.37	0.84
303.15	30000	993.96	0.84
308.15	30000	989.43	0.84
313.15	30000	985.03	0.84
318.15	30000	980.42	0.84
323.15	30000	975.86	0.84
328.15	30000	971.08	0.84
333.15	30000	966.7	0.84
338.15	30000	962.07	0.84
283.15	40000	1017.42	0.9
288.15	40000	1012.83	0.88
293.15	40000	1008.73	0.87
298.15	40000	1004.29	0.85
303.15	40000	1000.06	0.84
308.15	40000	995.62	0.84
313.15	40000	991.43	0.84
318.15	40000	986.96	0.84
323.15	40000	982.37	0.84
328.15	40000	977.8	0.85
333.15	40000	973.8	0.85
338.15	40000	969.19	0.85
283.15	50000	1022.85	0.93
288.15	50000	1018.14	0.91
293.15	50000	1014.33	0.89
298.15	50000	1009.82	0.88
303.15	50000	1005.69	0.86
308.15	50000	1001.41	0.84
313.15	50000	997.35	0.84
318.15	50000	993.12	0.84
323.15	50000	988.47	0.85
328.15	50000	984.21	0.85
333.15	50000	980.2	0.85
338.15	50000	975.64	0.86
283.15	60000	1027.71	0.96
288.15	60000	1023.26	0.94
293.15	60000	1019.37	0.92
298.15	60000	1015.17	0.9
303.15	60000	1011.27	0.89
308.15	60000	1007.05	0.87
313.15	60000	1002.99	0.85
318.15	60000	998.83	0.84
323.15	60000	994.3	0.84
328.15	60000	990.17	0.85
333.15	60000	986.43	0.85
338.15	60000	982.05	0.86
