Measured thermophysical data. Measurement and correlation of isobaric vapour-liquid equilibrium for the (acetonitrile + water) system containing different ionic liquids at atmospheric pressure
Source: J. Chem. Thermodyn., 2019, 10.1016/j.jct.2019.07.006
Compound 1: water, H2O, InChI=1S/H2O/h1H2, purity 99.8%
Compound 2: acetonitrile, C2H3N, InChI=1S/C2H3N/c1-2-3/h1H3, purity 99.8%
Compound 3: 1-butyl-3-methylimidazolium chloride, C8H15ClN2, InChI=1S/C8H15N2.ClH/c1-3-4-5-10-7-6-9(2)8-10;/h6-8H,3-5H2,1-2H3;1H/q+1;/p-1, purity 99%
Compound 4: 1-hexyl-3-methylimidazolium chloride, C10H19ClN2, InChI=1S/C10H19N2.ClH/c1-3-4-5-6-7-12-9-8-11(2)10-12;/h8-10H,3-7H2,1-2H3;1H/q+1;/p-1, purity 99%
Compound 5: 1-allyl-3-methylimidazolium chloride, C7H11ClN2, InChI=1S/C7H11N2.ClH/c1-3-4-9-6-5-8(2)7-9;/h3,5-7H,1,4H2,2H3;1H/q+1;/p-1, purity 99%
Compound 6: 1-butyl-3-methylimidazolium acetate, C10H18N2O2, InChI=1S/C8H15N2.C2H4O2/c1-3-4-5-10-7-6-9(2)8-10;1-2(3)4/h6-8H,3-5H2,1-2H3;1H3,(H,3,4)/q+1;/p-1, purity 99%

System: water; phases: Liquid, Gas
Property: Normal boiling temperature, K (Liquid); method: Ebulliometric method (Recirculating still)
Normal boiling temperature, K	uncertainty
373.12	1.68

System: acetonitrile; phases: Liquid, Gas
Property: Normal boiling temperature, K (Liquid); method: Ebulliometric method (Recirculating still)
Normal boiling temperature, K	uncertainty
354.68	1.68

System: acetonitrile + water; phases: Liquid, Gas
Fixed: Pressure, kPa = 101.3
Property: Boiling temperature at pressure P, K (Liquid); method: Ebulliometric method (Recirculating still)
Mole fraction of acetonitrile	Boiling temperature at pressure P, K	uncertainty
0	373.12	1.69
0.0102	371.72	1.85
0.0433	359.96	1.78
0.0739	356.73	1.7
0.1228	353.49	1.69
0.2632	351.08	1.69
0.3754	350.37	1.69
0.4889	350.02	1.69
0.5935	349.79	1.69
0.6962	349.64	1.69
0.7792	349.8	1.69
0.8596	350.52	1.69
0.9549	352.79	1.69
1	354.68	1.69

System: acetonitrile + water; phases: Gas, Liquid
Fixed: Pressure, kPa = 101.3
Property: Mole fraction of acetonitrile (Gas); method: Chromatography
Mole fraction of acetonitrile	Mole fraction of acetonitrile	uncertainty
0	0	
0.0102	0.0628	0.0021
0.0433	0.4445	0.0043
0.0739	0.5218	0.0046
0.1228	0.5592	0.0043
0.2632	0.6282	0.0038
0.3754	0.6421	0.0037
0.4889	0.6535	0.0036
0.5935	0.6669	0.0035
0.6962	0.6939	0.0033
0.7792	0.7258	0.0031
0.8596	0.7741	0.0028
0.9549	0.9015	0.0022
1	1	

System: acetonitrile + water + 1-hexyl-3-methylimidazolium chloride; phases: Liquid, Gas
Fixed: Pressure, kPa = 101.3
Property: Mole fraction of water (Liquid); method: Chromatography
Property: Mole fraction of water (Gas); method: Chromatography
Property: Mole fraction of acetonitrile (Gas); method: Chromatography
Temperature, K	Mole fraction of acetonitrile	Mole fraction of water	uncertainty	Mole fraction of water	uncertainty	Mole fraction of acetonitrile	uncertainty
376.24	0	0.9489	0.0024	1		0	
372.41	0.0185	0.9307	0.0025	0.8764	0.0023	0.1236	
367.24	0.0382	0.9117	0.0025	0.7293	0.0031	0.2707	
363.4	0.0771	0.8717	0.0026	0.5494	0.0044	0.4506	
358.71	0.1199	0.8309	0.0027	0.4674	0.0045	0.5326	
356.95	0.1721	0.7781	0.0029	0.4121	0.0041	0.5879	
354.62	0.2198	0.7291	0.0031	0.3758	0.0038	0.6242	
354.12	0.2672	0.6832	0.0033	0.3655	0.0037	0.6345	
353.69	0.2714	0.6784	0.0033	0.3626	0.0037	0.6374	
353.26	0.3311	0.6179	0.0036	0.3413	0.0035	0.6587	
352.5	0.3754	0.5732	0.0039	0.3264	0.0034	0.6736	
352.56	0.3918	0.5598	0.004	0.3252	0.0034	0.6748	
352.35	0.4211	0.5287	0.0041	0.3114	0.0033	0.6886	
350.63	0.5033	0.4471	0.004	0.2822	0.0031	0.7178	
351.26	0.5305	0.4192	0.0038	0.2794	0.0031	0.7206	
351.17	0.585	0.3647	0.0035	0.2566	0.003	0.7434	
352.02	0.635	0.3132	0.0033	0.2331	0.0028	0.7669	
351.55	0.6822	0.2689	0.0031	0.2084	0.0027	0.7916	
352.97	0.743	0.2079	0.0028	0.1757	0.0025	0.8243	
352.69	0.7918	0.1582	0.0026	0.1325	0.0023	0.8675	
354.66	0.8314	0.1181	0.0025	0.0895	0.0021	0.9105	
354.67	0.8674	0.0824	0.0025	0.0659	0.0021	0.9341	
355.42	0.9054	0.0435	0.0024	0.0322	0.002	0.9678	
356.86	0.9506	0		0		1	
380.85	0	0.8995	0.0025	1		0	
375.8	0.0258	0.866	0.0026	0.8677	0.0023	0.1323	
371.88	0.0362	0.8578	0.0026	0.7552	0.0029	0.2448	
368.58	0.0743	0.8156	0.0027	0.595	0.004	0.405	
364.82	0.1176	0.7802	0.0029	0.4968	0.0047	0.5032	
361.92	0.1598	0.7382	0.0031	0.4157	0.0041	0.5843	
358.76	0.2113	0.6856	0.0033	0.3809	0.0038	0.6191	
357.14	0.2656	0.6318	0.0036	0.3382	0.0035	0.6618	
357.06	0.3001	0.5944	0.0038	0.3179	0.0034	0.6821	
355.32	0.402	0.4991	0.0043	0.2642	0.003	0.7358	
355.28	0.4124	0.4853	0.0042	0.2609	0.003	0.7391	
354.17	0.4644	0.4344	0.0039	0.2301	0.0028	0.7699	
354.35	0.5238	0.3759	0.0036	0.1997	0.0026	0.8003	
352.87	0.5902	0.3067	0.0032	0.1733	0.0025	0.8267	
353.18	0.6165	0.2827	0.0031	0.1551	0.0024	0.8449	
355.03	0.6733	0.2263	0.0029	0.1204	0.0022	0.8796	
355.92	0.7107	0.1877	0.0027	0.0917	0.0021	0.9083	
354.24	0.7787	0.121	0.0025	0.0572	0.0021	0.9428	
354.66	0.8158	0.0822	0.0025	0.0351	0.002	0.9649	
355.13	0.8636	0.0359	0.0024	0.0143	0.002	0.9857	
356.65	0.9061	0		0		1	

System: acetonitrile + water + 1-butyl-3-methylimidazolium chloride; phases: Liquid, Gas
Fixed: Pressure, kPa = 101.3
Property: Mole fraction of water (Liquid); method: Chromatography
Property: Mole fraction of water (Gas); method: Chromatography
Property: Mole fraction of acetonitrile (Gas); method: Chromatography
Temperature, K	Mole fraction of acetonitrile	Mole fraction of water	uncertainty	Mole fraction of water	uncertainty	Mole fraction of acetonitrile	uncertainty
378.43	0	0.9496	0.0024	1		0	
373.41	0.0163	0.9331	0.0024	0.8565	0.0024	0.1435	
361.32	0.0818	0.868	0.0026	0.5082	0.0047	0.4918	
357.83	0.1234	0.8264	0.0027	0.4384	0.0043	0.5616	
355.77	0.1694	0.7796	0.0029	0.3914	0.0039	0.6086	
354.03	0.2254	0.7241	0.0031	0.3612	0.0037	0.6388	
351.64	0.3225	0.6274	0.0036	0.3458	0.0036	0.6542	
350.86	0.3851	0.5647	0.0039	0.3268	0.0034	0.6732	
351.82	0.4803	0.4694	0.0041	0.2881	0.0032	0.7119	
351.53	0.5359	0.4133	0.0038	0.2708	0.0031	0.7292	
351.83	0.5849	0.3649	0.0035	0.2537	0.0029	0.7463	
351.98	0.6382	0.312	0.0033	0.2309	0.0028	0.7691	
353.4	0.7845	0.1652	0.0027	0.1432	0.0023	0.8568	
353.94	0.8458	0.104	0.0025	0.0927	0.0021	0.9073	
354.76	0.8639	0.0859	0.0025	0.0701	0.0021	0.9299	
355.34	0.9048	0.0447	0.0024	0.0352	0.002	0.9648	
356.02	0.9503	0		0		1	
382.2	0	0.8993	0.0025	1		0	
374.19	0.0324	0.8668	0.0026	0.7533	0.0029	0.2467	
363.42	0.102	0.7968	0.0028	0.4751	0.0045	0.5249	
357.98	0.1455	0.7535	0.003	0.407	0.004	0.593	
358.58	0.1624	0.7371	0.0031	0.3711	0.0038	0.6289	
355.07	0.24	0.6598	0.0034	0.34	0.0035	0.66	
355.47	0.2653	0.6354	0.0036	0.3073	0.0033	0.6927	
351.86	0.3733	0.5266	0.0041	0.2714	0.0031	0.7286	
350.26	0.4751	0.4247	0.0039	0.2209	0.0027	0.7791	
352.83	0.5799	0.3198	0.0033	0.1837	0.0025	0.8163	
353.31	0.6852	0.2143	0.0028	0.1147	0.0022	0.8853	
354.4	0.783	0.116	0.0025	0.0561	0.0021	0.9439	
355.18	0.8322	0.0676	0.0024	0.0328	0.002	0.9672	
357.34	0.8991	0		0		1	

System: acetonitrile + water + 1-allyl-3-methylimidazolium chloride; phases: Liquid, Gas
Fixed: Pressure, kPa = 101.3
Property: Mole fraction of water (Liquid); method: Chromatography
Property: Mole fraction of water (Gas); method: Chromatography
Property: Mole fraction of acetonitrile (Gas); method: Chromatography
Temperature, K	Mole fraction of acetonitrile	Mole fraction of water	uncertainty	Mole fraction of water	uncertainty	Mole fraction of acetonitrile	uncertainty
375.96	0	0.9492	0.0024	1		0	
370.01	0.0171	0.9327	0.0024	0.8337	0.0025	0.1663	
366.63	0.0361	0.9137	0.0025	0.6352	0.0037	0.3648	
357.08	0.0692	0.8797	0.0026	0.4789	0.0046	0.5211	
356.45	0.1197	0.8302	0.0027	0.4064	0.004	0.5936	
354.02	0.1712	0.7787	0.0029	0.3714	0.0038	0.6286	
352.96	0.2237	0.7254	0.0031	0.3432	0.0035	0.6568	
352.22	0.2731	0.6781	0.0033	0.331	0.0035	0.669	
351.16	0.4009	0.5486	0.004	0.3	0.0032	0.7	
350.78	0.4371	0.5127	0.0042	0.292	0.0032	0.708	
351.29	0.5408	0.4091	0.0038	0.2678	0.003	0.7322	
351.07	0.5915	0.3589	0.0035	0.2492	0.0029	0.7508	
351.7	0.6422	0.3068	0.0032	0.2265	0.0028	0.7735	
352.12	0.6883	0.2605	0.003	0.2143	0.0027	0.7857	
352.38	0.7431	0.2062	0.0028	0.1812	0.0025	0.8188	
353.25	0.7874	0.1622	0.0027	0.1375	0.0023	0.8625	
353.8	0.8318	0.1178	0.0025	0.0917	0.0021	0.9083	
354.29	0.8668	0.0824	0.0025	0.0672	0.0021	0.9328	
355.15	0.9059	0.0433	0.0024	0.0358	0.002	0.9642	
356.42	0.9488	0		0		1	

System: acetonitrile + water + 1-butyl-3-methylimidazolium acetate; phases: Liquid, Gas
Fixed: Pressure, kPa = 101.3
Property: Mole fraction of water (Liquid); method: Chromatography
Property: Mole fraction of water (Gas); method: Chromatography
Property: Mole fraction of acetonitrile (Gas); method: Chromatography
Temperature, K	Mole fraction of acetonitrile	Mole fraction of water	uncertainty	Mole fraction of water	uncertainty	Mole fraction of acetonitrile	uncertainty
377.63	0	0.9485	0.0024	1		0	
368.2	0.0331	0.9159	0.0025	0.6929	0.0033	0.3071	
362.03	0.0746	0.8753	0.0026	0.521	0.0046	0.479	
355.67	0.1529	0.7963	0.0028	0.3987	0.004	0.6013	
353.92	0.1987	0.7511	0.003	0.366	0.0037	0.634	
353.11	0.248	0.7009	0.0032	0.3565	0.0036	0.6435	
352.73	0.2847	0.6643	0.0034	0.3414	0.0035	0.6586	
352.78	0.3275	0.623	0.0036	0.3269	0.0034	0.6731	
351.19	0.512	0.4379	0.0039	0.2781	0.0031	0.7219	
352.36	0.6325	0.3172	0.0033	0.2076	0.0027	0.7924	
352.83	0.6918	0.2577	0.003	0.192	0.0026	0.808	
353.18	0.7327	0.2168	0.0028	0.1549	0.0024	0.8451	
353.99	0.7892	0.162	0.0027	0.1107	0.0022	0.8893	
354.89	0.8331	0.1167	0.0025	0.0761	0.0021	0.9239	
354.89	0.8699	0.0801	0.0025	0.0624	0.0021	0.9376	
356.81	0.9501	0		0		1	

System: water + 1-hexyl-3-methylimidazolium chloride; phases: Liquid, Gas
Fixed: Pressure, kPa = 101.3
Property: Boiling temperature at pressure P, K (Liquid); method: Ebulliometric method (Recirculating still)
Mole fraction of water	Boiling temperature at pressure P, K	uncertainty
0.9489	376.24	1.7
0.8995	380.85	1.7
1	373.12	1.69

System: acetonitrile + 1-hexyl-3-methylimidazolium chloride; phases: Liquid, Gas
Fixed: Pressure, kPa = 101.3
Property: Boiling temperature at pressure P, K (Liquid); method: Ebulliometric method (Recirculating still)
Mole fraction of acetonitrile	Boiling temperature at pressure P, K	uncertainty
0.9506	356.86	1.69
0.9061	356.65	1.69
1	354.68	1.69

System: water + 1-butyl-3-methylimidazolium chloride; phases: Liquid, Gas
Fixed: Pressure, kPa = 101.3
Property: Boiling temperature at pressure P, K (Liquid); method: Ebulliometric method (Recirculating still)
Mole fraction of water	Boiling temperature at pressure P, K	uncertainty
0.9496	378.43	1.7
0.8993	382.2	1.7
1	373.12	1.69

System: acetonitrile + 1-butyl-3-methylimidazolium chloride; phases: Liquid, Gas
Fixed: Pressure, kPa = 101.3
Property: Boiling temperature at pressure P, K (Liquid); method: Ebulliometric method (Recirculating still)
Mole fraction of acetonitrile	Boiling temperature at pressure P, K	uncertainty
0.9503	356.02	1.69
0.8991	357.34	1.69
1	354.68	1.69

System: water + 1-allyl-3-methylimidazolium chloride; phases: Liquid, Gas
Fixed: Pressure, kPa = 101.3
Property: Boiling temperature at pressure P, K (Liquid); method: Ebulliometric method (Recirculating still)
Mole fraction of water	Boiling temperature at pressure P, K	uncertainty
0.9492	375.96	1.69
1	373.12	1.69

System: acetonitrile + 1-allyl-3-methylimidazolium chloride; phases: Liquid, Gas
Fixed: Pressure, kPa = 101.3
Property: Boiling temperature at pressure P, K (Liquid); method: Ebulliometric method (Recirculating still)
Mole fraction of acetonitrile	Boiling temperature at pressure P, K	uncertainty
0.9488	356.42	1.69
1	354.68	1.69

System: water + 1-butyl-3-methylimidazolium acetate; phases: Liquid, Gas
Fixed: Pressure, kPa = 101.3
Property: Boiling temperature at pressure P, K (Liquid); method: Ebulliometric method (Recirculating still)
Mole fraction of water	Boiling temperature at pressure P, K	uncertainty
0.9485	377.63	1.69
1	373.12	1.69

System: acetonitrile + 1-butyl-3-methylimidazolium acetate; phases: Liquid, Gas
Fixed: Pressure, kPa = 101.3
Property: Boiling temperature at pressure P, K (Liquid); method: Ebulliometric method (Recirculating still)
Mole fraction of acetonitrile	Boiling temperature at pressure P, K	uncertainty
0.9501	356.81	1.69
1	354.68	1.69
