Measured thermophysical data. The viscosity of glycerol
Source: J. Chem. Thermodyn., 2017, 10.1016/j.jct.2017.05.042
Compound 1: glycerol, C3H8O3, InChI=1S/C3H8O3/c4-1-3(6)2-5/h3-6H,1-2H2, purity 99.5%

System: glycerol; phases: Liquid
Fixed: Pressure, kPa = 101.325
Property: Viscosity, Pa*s (Liquid); method: Concentric cylinders viscometry
Temperature, K	Viscosity, Pa*s	uncertainty
292.89	1.47	0.078
298.1	0.9706	0.049
302.59	0.6458	0.0294
312.81	0.3053	0.0124
323.88	0.1474	0.0053
333.15	0.08471	0.00279
343.8	0.04983	0.00159
353.67	0.0318	0.001
364.12	0.02105	0.00066
374.38	0.01474	0.00046
383.29	0.011	0.00034
394.08	0.00832	0.00026
