Measured thermophysical data. Low-temperature heat capacity and derived thermodynamic properties for 1-methyl-3-propylimidazolium bromide and 1-butyl-3- methylimidazolium iodide
Source: J. Chem. Thermodyn., 2014, 10.1016/j.jct.2014.07.018
Compound 1: 1-methyl-3-propylimidazolium bromide, C7H13BrN2, InChI=1S/C7H13N2.BrH/c1-3-4-9-6-5-8(2)7-9;/h5-7H,3-4H2,1-2H3;1H/q+1;/p-1
Compound 2: 1-butyl-3-methylimidazolium iodide, C8H15IN2, InChI=1S/C8H15N2.HI/c1-3-4-5-10-7-6-9(2)8-10;/h6-8H,3-5H2,1-2H3;1H/q+1;/p-1

System: 1-methyl-3-propylimidazolium bromide; phases: Crystal 2, Liquid, Gas
Property: Triple point temperature, K (Crystal 2); method: Adiabatic calorimetry
Triple point temperature, K	uncertainty
309.54	0.05

System: 1-methyl-3-propylimidazolium bromide; phases: Crystal 2, Liquid, Gas
Property: Molar enthalpy of transition or fusion, kJ/mol (Crystal 2); method: Adiabatic calorimetry
Molar enthalpy of transition or fusion, kJ/mol	uncertainty
19.11	0.14

System: 1-methyl-3-propylimidazolium bromide; phases: Glass, Liquid, Gas
Property: Triple point temperature, K (Glass); method: Adiabatic calorimetry
Triple point temperature, K	uncertainty
213	1

System: 1-methyl-3-propylimidazolium bromide; phases: Crystal 2
Fixed: Pressure, kPa = 101.325
Property: Molar heat capacity at constant pressure, J/K/mol (Crystal 2); method: Vacuum adiabatic calorimetry
Temperature, K	Molar heat capacity at constant pressure, J/K/mol	uncertainty
5	0.294	0.015
10	2.83	0.05
15	8.58	0.1
20	16.31	0.11
25	24.9	0.14
30	33.56	0.15
35	41.84	0.19
40	49.44	0.22
45	56.45	0.26
50	62.88	0.28
60	74.22	0.33
70	83.84	0.37
80	92.3	0.4
90	99.64	0.45
100	106.4	0.5
110	112.6	0.5
120	118.4	0.6
130	123.9	0.6
140	129.2	0.6
150	134.3	0.6
160	139.3	0.6
170	144.4	0.6
180	150.2	0.7
190	155.3	0.7
200	160.4	0.7
210	165.9	0.7
220	171.8	0.7
230	177.8	0.8
240	184.1	0.8
250	190.6	0.8
260	198.1	0.9
270	206.7	0.9
280	216.4	0.9
290	227.1	1
298.15	236.7	1
309.54	251.4	1.1

System: 1-methyl-3-propylimidazolium bromide; phases: Crystal 2
Fixed: Pressure, kPa = 101.325
Property: Molar entropy, J/K/mol (Crystal 2); method: Vacuum adiabatic calorimetry
Temperature, K	Molar entropy, J/K/mol	uncertainty
5	0.097	0.013
10	0.884	0.031
15	3.03	0.07
20	6.53	0.1
25	11.08	0.14
30	16.39	0.17
35	22.19	0.22
40	28.28	0.25
45	34.52	0.29
50	40.8	0.33
60	53.3	0.41
70	65.48	0.49
80	77.24	0.56
90	88.54	0.66
100	99.4	0.73
110	109.8	0.8
120	119.9	0.8
130	129.6	1
140	139	1
150	148	1
160	156.9	1.1
170	165.5	1.1
180	173.9	1.1
190	182.2	1.3
200	190.2	1.3
210	198.2	1.3
220	206.1	1.4
230	213.8	1.4
240	221.5	1.4
250	229.2	1.6
260	236.8	1.6
270	244.4	1.6
280	252.1	1.6
290	259.9	1.7
298.15	266.3	1.7
309.54	275.4	1.7

System: 1-methyl-3-propylimidazolium bromide; phases: Crystal 2
Fixed: Pressure, kPa = 101.325
Property: Molar enthalpy function {Hm(T)-Hm(0)}/T, J/K/mol (Crystal 2); method: Vacuum adiabatic calorimetry
Temperature, K	Molar enthalpy function {Hm(T)-Hm(0)}/T, J/K/mol	uncertainty
5	0.073	0.009
10	0.674	0.017
15	2.28	0.04
20	4.79	0.05
25	7.95	0.06
30	11.5	0.08
35	15.25	0.09
40	19.06	0.11
45	22.83	0.12
50	26.51	0.14
60	33.55	0.16
70	40.06	0.19
80	46.07	0.21
90	51.63	0.28
100	56.77	0.29
110	61.57	0.31
120	66.07	0.33
130	70.31	0.34
140	74.33	0.36
150	78.15	0.38
160	81.82	0.39
170	85.35	0.4
180	88.79	0.41
190	92.16	0.42
200	95.44	0.43
210	98.66	0.45
220	101.9	0.5
230	105	0.5
240	108.2	0.5
250	111.3	0.5
260	114.5	0.6
270	117.8	0.6
280	121.1	0.6
290	124.6	0.6
298.15	127.5	0.6
309.54	131.8	0.6

System: 1-methyl-3-propylimidazolium bromide; phases: Liquid
Fixed: Pressure, kPa = 101.325
Property: Molar heat capacity at constant pressure, J/K/mol (Liquid); method: Vacuum adiabatic calorimetry
Temperature, K	Molar heat capacity at constant pressure, J/K/mol	uncertainty
309.54	284.6	1.2
310	284.7	1.2
320	288.1	1.2
330	291.7	1.3
340	295.3	1.3
350	299.1	1.3
360	303	1.3
370	307	1.3
220	258.4	1.1
230	261.5	1.1
240	263.8	1.1
250	266.2	1.1
260	269.1	1.2
270	272	1.2
280	275.1	1.2
290	278.2	1.2
298.15	280.8	1.2
300	281.4	1.2

System: 1-methyl-3-propylimidazolium bromide; phases: Liquid
Fixed: Pressure, kPa = 101.325
Property: Molar entropy, J/K/mol (Liquid); method: Vacuum adiabatic calorimetry
Temperature, K	Molar entropy, J/K/mol	uncertainty
309.54	337.2	2.2
310	337.6	2.2
320	346.7	2.2
330	355.6	2.3
340	364.4	2.3
350	373	2.3
360	381.5	2.5
370	389.8	2.5
220	244.9	2.2
230	256.5	2.2
240	267.7	2.2
250	278.5	2.2
260	289	2.2
270	299.2	2.2
280	309.1	2.2
290	318.8	2.2
298.15	326.6	2.2
300	328.3	2.2

System: 1-methyl-3-propylimidazolium bromide; phases: Liquid
Fixed: Pressure, kPa = 101.325
Property: Molar enthalpy function {Hm(T)-Hm(0)}/T, J/K/mol (Liquid); method: Vacuum adiabatic calorimetry
Temperature, K	Molar enthalpy function {Hm(T)-Hm(0)}/T, J/K/mol	uncertainty
309.54	193.6	0.8
310	193.7	0.8
320	196.6	0.8
330	199.4	0.9
340	202.2	0.9
350	204.9	0.9
360	207.6	0.9
370	210.2	0.9
220	162.1	1.2
230	166.3	1.1
240	170.3	1
250	174.1	1
260	177.7	0.9
270	181.2	0.9
280	184.5	0.9
290	187.6	0.8
298.15	190.2	0.8
300	190.7	0.8

System: 1-methyl-3-propylimidazolium bromide; phases: Glass
Fixed: Pressure, kPa = 101.325
Property: Molar heat capacity at constant pressure, J/K/mol (Glass); method: Vacuum adiabatic calorimetry
Temperature, K	Molar heat capacity at constant pressure, J/K/mol	uncertainty
5	1	0.03
10	6.16	0.1
15	13.96	0.15
20	22.8	0.14
25	31.8	0.17
30	40.46	0.18
35	48.45	0.22
40	55.78	0.25
45	62.48	0.28
50	68.62	0.3
60	79.52	0.35
70	89.28	0.39
80	97.87	0.42
90	105.4	0.5
100	112.3	0.5
110	118.7	0.6
120	124.8	0.6
130	130.6	0.6
140	136.2	0.6
150	141.9	0.6
160	147.5	0.7
170	153.2	0.7
180	159.1	0.7
190	164.3	0.7
200	171.3	0.7
210	183.6	0.8

System: 1-methyl-3-propylimidazolium bromide; phases: Glass
Fixed: Pressure, kPa = 101.325
Property: Molar entropy, J/K/mol (Glass); method: Vacuum adiabatic calorimetry
Temperature, K	Molar entropy, J/K/mol	uncertainty
0	15.3	2.9
5	15.6	2.9
10	17.7	2.9
15	21.6	2.9
20	26.8	2.9
25	32.9	2.7
30	39.5	2.7
35	46.3	2.7
40	53.3	2.7
45	60.2	2.7
50	67.1	2.7
60	80.6	2.6
70	93.6	2.6
80	106.1	2.6
90	118.1	2.4
100	129.6	2.4
110	140.6	2.4
120	151.2	2.4
130	161.4	2.4
140	171.3	2.3
150	180.8	2.3
160	190.2	2.3
170	199.3	2.3
180	208.2	2.3
190	217	2.3
200	225.6	2.3
210	234.3	2.2

System: 1-methyl-3-propylimidazolium bromide; phases: Glass
Fixed: Pressure, kPa = 101.325
Property: Molar enthalpy function {Hm(T)-Hm(0)}/T, J/K/mol (Glass); method: Vacuum adiabatic calorimetry
Temperature, K	Molar enthalpy function {Hm(T)-Hm(0)}/T, J/K/mol	uncertainty
5	2237	64
10	1120	32
15	750	21
20	567	15
25	459	12
30	389	10
35	339.5	8.8
40	303.6	7.7
45	276.4	6.8
50	255.3	6.1
60	225.1	5.1
70	205	4.3
80	191.1	3.7
90	181.2	3.3
100	174	2.9
110	168.6	2.7
120	164.7	2.4
130	161.9	2.2
140	159.9	2
150	158.5	1.9
160	157.6	1.7
170	157.2	1.6
180	157.1	1.5
190	157.4	1.4
200	157.9	1.3
210	158.9	1.3

System: 1-methyl-3-propylimidazolium bromide; phases: Crystal 2
Fixed: Pressure, kPa = 101.325
Property: Molar heat capacity at constant pressure, J/K/mol (Crystal 2); method: Vacuum adiabatic calorimetry
Temperature, K	Molar heat capacity at constant pressure, J/K/mol	uncertainty
78.68	91.25	0.4
80.94	93.01	0.41
82.87	94.47	0.41
84.8	95.9	0.42
86.73	97.28	0.42
88.67	98.67	0.43
90.6	100	0.5
92.54	101.4	0.5
94.48	102.8	0.5
96.43	104.1	0.5
98.38	105.4	0.5
100.34	106.7	0.5
102.29	107.9	0.5
104.25	109.1	0.5
106.21	110.3	0.5
108.17	111.6	0.5
110.14	112.7	0.5
112.1	113.9	0.5
114.07	115	0.5
116.04	116.2	0.5
118.01	117.3	0.5
119.98	118.4	0.5
121.96	119.4	0.5
123.94	120.6	0.5
125.91	121.7	0.5
127.9	122.8	0.5
129.88	123.8	0.5
131.86	124.9	0.6
133.84	126	0.6
135.84	127	0.6
137.83	128	0.6
139.83	129.1	0.6
141.83	130.1	0.6
143.83	131.1	0.6
145.83	132.1	0.6
147.83	133.2	0.6
149.83	134.2	0.6
151.83	135.2	0.6
153.84	136.2	0.6
155.85	137.2	0.6
157.86	138.3	0.6
159.86	139.3	0.6
161.87	140.2	0.6
163.88	141.3	0.6
165.89	142.3	0.6
167.9	143.3	0.6
169.91	144.4	0.6
171.92	145.4	0.6
173.94	146.6	0.6
175.95	147.9	0.6
177.96	149.1	0.6
179.98	150.2	0.7
182	151.2	0.7
184.02	152.2	0.7
186.04	153.2	0.7
188.06	154.3	0.7
190.08	155.3	0.7
192.1	156.3	0.7
194.12	157.4	0.7
196.15	158.4	0.7
198.17	159.4	0.7
200.2	160.5	0.7
202.22	161.6	0.7
204.25	162.6	0.7
206.28	163.8	0.7
208.31	164.9	0.7
210.35	166	0.7
212.38	167.3	0.7
214.41	168.5	0.7
216.44	169.7	0.7
218.48	170.9	0.7
220.51	172.1	0.7
222.55	173.3	0.7
224.59	174.5	0.7
226.63	175.8	0.8
228.67	177	0.8
230.71	178.2	0.8
233.47	180	0.8
235.81	181.5	0.8
237.86	182.7	0.8
239.9	184.1	0.8
241.94	185.3	0.8
243.99	186.6	0.8
246.03	187.9	0.8
248.07	189.3	0.8
250.11	190.7	0.8
252.16	192.2	0.8
254.2	193.6	0.8
256.25	195.1	0.8
258.29	196.7	0.8
260.33	198.3	0.8
262.37	199.9	0.9
264.42	201.7	0.9
266.47	203.4	0.9
268.52	205.3	0.9
270.57	207.1	0.9
272.62	209.4	0.9
274.67	211.5	0.9
276.71	213.9	0.9
278.75	216.6	0.9
280.79	219.5	0.9
282.84	222.7	0.9
284.88	226.6	1
78.3	90.96	0.4
80.36	92.62	0.4
82.27	94.04	0.41
84.2	95.47	0.42
86.13	96.85	0.42
88.08	98.24	0.43
90.04	99.66	0.45
92.01	101.1	0.5
93.99	102.5	0.5
95.98	103.8	0.5
97.97	105.1	0.5
99.98	106.5	0.5
101.99	107.7	0.5
104.01	109	0.5
106.04	110.2	0.5
108.08	111.5	0.5
110.12	112.7	0.5
112.17	113.9	0.5
114.22	115.1	0.5
116.28	116.3	0.5
118.34	117.5	0.5
120.41	118.7	0.5
122.48	119.8	0.5
124.56	121	0.5
126.63	122.1	0.5
128.72	123.2	0.5
130.8	124.4	0.6
132.89	125.5	0.6
134.99	126.6	0.6
137.08	127.7	0.6
139.18	128.7	0.6
141.28	129.8	0.6
143.39	130.9	0.6
145.49	132	0.6
147.6	133	0.6
149.71	134.1	0.6
151.82	135.2	0.6
153.93	136.3	0.6
156.04	137.3	0.6
158.16	138.4	0.6
160.27	139.5	0.6
162.38	140.6	0.6
164.5	141.6	0.6
166.61	142.6	0.6
168.73	143.7	0.6
170.84	144.8	0.6
172.95	146.1	0.6
175.06	147.4	0.6
177.17	148.7	0.6
179.28	149.8	0.7
181.39	150.9	0.7
183.49	152	0.7
185.6	153	0.7
187.7	154.1	0.7
189.8	155.2	0.7
191.9	156.2	0.7
194	157.3	0.7
196.1	158.4	0.7
198.2	159.4	0.7
200.29	160.5	0.7
202.39	161.7	0.7
204.48	162.8	0.7
206.57	163.9	0.7
208.66	165.1	0.7
210.75	166.3	0.7
212.84	167.5	0.7
214.92	168.8	0.7
217	170.1	0.7
219.08	171.3	0.7
221.15	172.5	0.7
223.22	173.7	0.7
225.29	175	0.8
227.36	176.2	0.8
229.42	177.5	0.8
231.48	178.7	0.8
233.54	180	0.8
235.59	181.3	0.8
237.64	182.5	0.8
239.69	183.9	0.8
241.74	185.1	0.8
243.78	186.4	0.8
245.82	187.8	0.8
247.86	189.1	0.8
249.89	190.6	0.8
251.92	192	0.8
253.95	193.4	0.8
255.97	194.9	0.8
257.98	196.4	0.8
260	198	0.8
262	199.6	0.8
264.01	201.2	0.9
266.06	203.2	0.9
268.16	205.1	0.9
270.26	207.1	0.9
272.36	209.2	0.9
274.45	211.5	0.9
276.54	213.9	0.9
278.62	216.6	0.9
280.68	219.5	0.9
282.74	222.7	0.9
284.78	226.4	1
286.82	230.9	1
288.82	236.3	1
290.81	242.8	1
292.77	251.5	1.1
294.69	262.7	1.1
296.57	278.5	1.2
298.39	300.9	1.3
300.12	334.9	1.5
301.74	387.4	1.8
303.2	470.7	2.5
304.47	613.7	4.1
305.51	844.2	7.1
306.32	1193	13
306.93	1697	14
5.52	0.401	0.014
5.87	0.492	0.016
6.21	0.596	0.018
6.59	0.729	0.02
6.97	0.883	0.023
7.35	1.057	0.027
7.73	1.253	0.031
8.12	1.472	0.035
8.51	1.709	0.04
8.89	1.969	0.046
9.28	2.25	0.051
9.68	2.56	0.058
10.07	2.896	0.041
10.57	3.349	0.046
11.17	3.934	0.052
11.78	4.563	0.059
12.39	5.251	0.067
13	5.972	0.074
13.62	6.746	0.083
14.24	7.548	0.091
14.85	8.382	0.1
15.58	9.404	0.111
16.42	10.63	0.12
17.26	11.9	0.14
18.09	13.21	0.15
18.93	14.56	0.16
19.77	15.94	0.18
20.91	17.83	0.11
22.33	20.27	0.12
23.77	22.77	0.13
25.2	25.25	0.14
26.63	27.75	0.15
28.07	30.25	0.15
29.52	32.71	0.16
31.17	35.56	0.17
33.03	38.66	0.18
34.89	41.68	0.19
36.76	44.57	0.2
38.63	47.38	0.21
40.49	50.15	0.23
42.5	53	0.24
44.67	55.99	0.25
46.85	58.9	0.26
49.03	61.73	0.27
51.21	64.4	0.28
53.39	66.92	0.3
55.57	69.38	0.31
57.75	71.78	0.32
59.93	74.14	0.33
62.13	76.42	0.34
64.33	78.63	0.34
66.53	80.71	0.35
68.72	82.68	0.36
70.92	84.56	0.37
73.18	86.57	0.38
75.5	88.58	0.39
77.81	90.59	0.4
80.13	92.58	0.4
82.46	94.26	0.41
84.8	95.84	0.42

System: 1-methyl-3-propylimidazolium bromide; phases: Liquid
Fixed: Pressure, kPa = 101.325
Property: Molar heat capacity at constant pressure, J/K/mol (Liquid); method: Vacuum adiabatic calorimetry
Temperature, K	Molar heat capacity at constant pressure, J/K/mol	uncertainty
312.01	285.5	1.2
295.89	280.2	1.2
297.86	280.6	1.2
299.92	281.4	1.2
301.97	282	1.2
304.02	282.8	1.2
306.07	283.2	1.2
308.12	284.1	1.2
310.17	284.7	1.2
312.22	285.3	1.2
314.27	285.9	1.2
316.32	286.9	1.2
318.37	287.5	1.2
320.41	288.2	1.2
322.46	288.8	1.2
324.5	289.6	1.2
326.54	290.4	1.2
328.58	291	1.2
330.62	291.9	1.2
332.66	292.7	1.2
334.7	293.3	1.2
336.73	294.1	1.2
338.61	294.7	1.2
340.58	295.5	1.2
342.63	296.2	1.2
344.68	297	1.2
346.73	297.8	1.2
348.78	298.6	1.2
350.82	299.4	1.2
352.87	300.3	1.3
354.92	300.9	1.3
356.97	301.7	1.3
359.01	302.5	1.3
361.05	303.5	1.3
363.1	304.2	1.3
365.14	305	1.3
367.18	305.8	1.3
214.71	229.7	1
216.52	256.1	1.1
218.48	258.4	1.1
220.52	259.6	1.1

System: 1-methyl-3-propylimidazolium bromide; phases: Glass
Fixed: Pressure, kPa = 101.325
Property: Molar heat capacity at constant pressure, J/K/mol (Glass); method: Vacuum adiabatic calorimetry
Temperature, K	Molar heat capacity at constant pressure, J/K/mol	uncertainty
79.18	97.3	0.4
81.21	98.9	0.4
83.14	100.3	0.4
85.07	101.7	0.4
87.01	103.1	0.5
88.94	104.6	0.5
90.88	106	0.5
92.82	107.4	0.5
94.77	108.7	0.5
96.72	110.1	0.5
98.66	111.4	0.5
100.62	112.7	0.5
102.57	114	0.5
104.53	115.3	0.5
106.49	116.5	0.5
108.45	117.8	0.5
110.41	119	0.5
112.38	120.2	0.5
114.35	121.4	0.5
116.32	122.6	0.5
118.29	123.8	0.5
120.27	124.9	0.6
122.24	126.1	0.6
124.22	127.2	0.6
126.2	128.4	0.6
128.18	129.5	0.6
130.17	130.7	0.6
132.15	131.8	0.6
134.14	132.9	0.6
136.13	134	0.6
138.12	135.2	0.6
140.12	136.3	0.6
142.11	137.4	0.6
144.11	138.5	0.6
146.11	139.7	0.6
148.11	140.8	0.6
150.11	141.9	0.6
152.11	143.1	0.6
154.12	144.2	0.6
156.13	145.4	0.6
158.13	146.5	0.6
160.14	147.6	0.6
162.15	148.7	0.6
164.17	149.8	0.7
166.18	151	0.7
168.19	152.2	0.7
170.21	153.3	0.7
172.22	154.5	0.7
174.24	155.6	0.7
176.26	156.8	0.7
178.28	158	0.7
180.3	159.2	0.7
182.32	160.4	0.7
184.34	161.7	0.7
186.37	162.9	0.7
188.39	164.2	0.7
190.42	165.5	0.7
192.45	166.9	0.7
194.48	168.3	0.7
196.52	169.7	0.7
198.56	171.3	0.7
200.61	173	0.7
202.66	174.7	0.7
204.71	177.1	0.8
206.79	179.5	0.8
208.84	183.4	0.8
210.87	189.3	0.8
212.85	201.5	0.9
6.61	2.26	0.053
6.94	2.56	0.059
7.33	2.953	0.067
7.74	3.376	0.076
8.14	3.817	0.085
8.55	4.303	0.095
8.96	4.799	0.105
9.37	5.312	0.115
9.78	5.854	0.126
10.19	6.42	0.082
10.71	7.156	0.09
11.34	8.069	0.099
11.96	9.014	0.11
12.59	10.01	0.12
13.23	11.02	0.13
13.86	12.06	0.14
14.5	13.11	0.15
12.76	10.27	0.12
13.27	11.09	0.13
13.9	12.12	0.14
14.53	13.18	0.15
15.17	14.27	0.16
15.96	15.61	0.18
16.9	17.24	0.19
17.83	18.9	0.21
18.77	20.57	0.23
19.7	22.25	0.25
20.95	24.53	0.15
22.51	27.36	0.16
24.09	30.19	0.17
25.66	32.96	0.17
27.23	35.71	0.18
28.81	38.42	0.19
30.4	41.1	0.19
32.13	43.97	0.2
34.01	46.95	0.21
35.9	49.88	0.22
37.79	52.63	0.24
39.67	55.27	0.25
41.76	58.17	0.26
44.05	61.22	0.27
46.42	64.28	0.28
48.69	67.11	0.3
50.77	69.55	0.31
52.86	71.87	0.32
54.95	74.14	0.33
57.04	76.42	0.34
59.13	78.63	0.34
61.23	80.83	0.35
63.32	82.92	0.36
65.42	84.99	0.37
67.53	86.98	0.38
69.62	88.87	0.39
71.72	90.74	0.4
73.83	92.54	0.4
75.93	94.45	0.41
78.04	96.34	0.42
80.17	98.2	0.43
82.29	99.76	0.43
84.42	101.2	0.4

System: 1-methyl-3-propylimidazolium bromide; phases: Glass
Property: Molar enthalpy, kJ/mol (Glass); method: Vacuum adiabatic calorimetry
Temperature, K	Pressure, kPa	Molar enthalpy, kJ/mol	uncertainty
0	101.325	11.2	0.3

System: 1-butyl-3-methylimidazolium iodide; phases: Crystal, Liquid, Gas
Property: Triple point temperature, K (Crystal); method: Adiabatic calorimetry
Triple point temperature, K	uncertainty
291.92	0.04

System: 1-butyl-3-methylimidazolium iodide; phases: Crystal, Liquid, Gas
Property: Molar enthalpy of transition or fusion, kJ/mol (Crystal); method: Adiabatic calorimetry
Molar enthalpy of transition or fusion, kJ/mol	uncertainty
18.99	0.08

System: 1-butyl-3-methylimidazolium iodide; phases: Glass, Liquid, Gas
Property: Triple point temperature, K (Glass); method: Adiabatic calorimetry
Triple point temperature, K	uncertainty
207	1

System: 1-butyl-3-methylimidazolium iodide; phases: Crystal
Fixed: Pressure, kPa = 101.325
Property: Molar heat capacity at constant pressure, J/K/mol (Crystal); method: Vacuum adiabatic calorimetry
Temperature, K	Molar heat capacity at constant pressure, J/K/mol	uncertainty
5	0.845	0.031
10	6.39	0.1
15	15.25	0.17
20	24.83	0.15
25	34.2	0.19
30	42.93	0.19
35	50.8	0.23
40	58.01	0.26
45	64.77	0.29
50	71.06	0.31
60	82.26	0.36
70	92.11	0.4
80	101	0.4
90	109.2	0.5
100	116.6	0.6
110	123.5	0.6
120	130	0.6
130	136.1	0.6
140	142.1	0.6
150	147.9	0.7
160	153.7	0.7
170	159.4	0.7
180	165.3	0.7
190	172.3	0.7
200	178.3	0.8
210	184.3	0.8
220	191	0.8
230	198.5	0.9
240	206.3	0.9
250	214.6	0.9
260	223.4	1
270	232.6	1
280	242.3	1
290	252.5	1.1
291.92	254.5	1.1

System: 1-butyl-3-methylimidazolium iodide; phases: Crystal
Fixed: Pressure, kPa = 101.325
Property: Molar entropy, J/K/mol (Crystal); method: Vacuum adiabatic calorimetry
Temperature, K	Molar entropy, J/K/mol	uncertainty
5	0.279	0.018
10	2.27	0.07
15	6.48	0.15
20	12.19	0.21
25	18.74	0.25
30	25.76	0.29
35	32.98	0.34
40	40.24	0.38
45	47.47	0.43
50	54.62	0.48
60	68.59	0.56
70	82.02	0.65
80	94.91	0.73
90	107.3	0.8
100	119.2	1
110	130.6	1
120	141.7	1
130	152.3	1.1
140	162.6	1.1
150	172.6	1.3
160	182.3	1.3
170	191.8	1.3
180	201.1	1.4
190	210.2	1.4
200	219.2	1.6
210	228.1	1.6
220	236.8	1.6
230	245.5	1.7
240	254.1	1.7
250	262.7	1.7
260	271.2	1.9
270	279.8	1.9
280	288.5	1.9
290	297.2	2
291.92	298.8	2

System: 1-butyl-3-methylimidazolium iodide; phases: Crystal
Fixed: Pressure, kPa = 101.325
Property: Molar enthalpy function {Hm(T)-Hm(0)}/T, J/K/mol (Crystal); method: Vacuum adiabatic calorimetry
Temperature, K	Molar enthalpy function {Hm(T)-Hm(0)}/T, J/K/mol	uncertainty
5	0.21	0.011
10	1.7	0.04
15	4.69	0.07
20	8.54	0.09
25	12.74	0.1
30	17.05	0.11
35	21.32	0.13
40	25.46	0.14
45	29.46	0.16
50	33.31	0.17
60	40.56	0.2
70	47.23	0.22
80	53.41	0.25
90	59.16	0.31
100	64.54	0.33
110	69.59	0.35
120	74.35	0.37
130	78.87	0.38
140	83.17	0.39
150	87.3	0.41
160	91.27	0.42
170	95.11	0.44
180	98.84	0.45
190	102.5	0.5
200	106.2	0.5
210	109.7	0.5
220	113.3	0.5
230	116.8	0.6
240	120.4	0.6
250	124	0.6
260	127.6	0.6
270	131.4	0.6
280	135.1	0.6
290	139	0.6
291.92	139.8	0.6

System: 1-butyl-3-methylimidazolium iodide; phases: Liquid
Fixed: Pressure, kPa = 101.325
Property: Molar heat capacity at constant pressure, J/K/mol (Liquid); method: Vacuum adiabatic calorimetry
Temperature, K	Molar heat capacity at constant pressure, J/K/mol	uncertainty
291.92	307.8	1.3
298.15	309.9	1.3
300	310.5	1.3
310	314.1	1.4
320	317.6	1.4
330	321.3	1.4
340	325.1	1.4
350	328.9	1.4
360	332.9	1.4
370	336.9	1.4
210	287.6	1.2
220	287.3	1.2
230	289.4	1.3
240	291.7	1.3
250	294.4	1.3
260	297.4	1.3
270	300.6	1.3
280	303.8	1.3
290	307.1	1.3

System: 1-butyl-3-methylimidazolium iodide; phases: Liquid
Fixed: Pressure, kPa = 101.325
Property: Molar entropy, J/K/mol (Liquid); method: Vacuum adiabatic calorimetry
Temperature, K	Molar entropy, J/K/mol	uncertainty
291.92	363.9	2.3
298.15	370.4	2.5
300	372.3	2.5
310	382.6	2.5
320	392.6	2.6
330	402.4	2.6
340	412.1	2.6
350	421.5	2.8
360	430.9	2.8
370	440	2.8
210	266.8	2.5
220	280.1	2.5
230	292.9	2.5
240	305.3	2.5
250	317.3	2.3
260	328.9	2.3
270	340.1	2.3
280	351.1	2.3
290	361.9	2.3

System: 1-butyl-3-methylimidazolium iodide; phases: Liquid
Fixed: Pressure, kPa = 101.325
Property: Molar enthalpy function {Hm(T)-Hm(0)}/T, J/K/mol (Liquid); method: Vacuum adiabatic calorimetry
Temperature, K	Molar enthalpy function {Hm(T)-Hm(0)}/T, J/K/mol	uncertainty
291.92	204.8	0.9
298.15	207	0.9
300	207.6	0.9
310	211	0.9
320	214.3	0.9
330	217.5	0.9
340	220.6	0.9
350	223.6	1
360	226.6	1
370	229.5	1
210	169.5	1.2
220	174.8	1.2
230	179.7	1.1
240	184.4	1
250	188.7	1
260	192.8	0.9
270	196.8	0.9
280	200.5	0.9
290	204.1	0.9

System: 1-butyl-3-methylimidazolium iodide; phases: Glass
Fixed: Pressure, kPa = 101.325
Property: Molar heat capacity at constant pressure, J/K/mol (Glass); method: Vacuum adiabatic calorimetry
Temperature, K	Molar heat capacity at constant pressure, J/K/mol	uncertainty
5	1.57	0.04
10	8.62	0.15
15	18.31	0.2
20	28.59	0.17
25	38.6	0.2
30	47.93	0.22
35	56.37	0.26
40	64	0.29
45	71.05	0.31
50	77.66	0.34
60	89.36	0.39
70	99.8	0.43
80	109.4	0.4
90	117.9	0.6
100	125.7	0.6
110	132.9	0.6
120	139.8	0.6
130	146.4	0.7
140	152.8	0.7
150	159.3	0.7
160	165.7	0.7
170	172.3	0.8
180	179.1	0.8
190	186.7	0.8
200	197.5	0.8

System: 1-butyl-3-methylimidazolium iodide; phases: Glass
Fixed: Pressure, kPa = 101.325
Property: Molar entropy, J/K/mol (Glass); method: Vacuum adiabatic calorimetry
Temperature, K	Molar entropy, J/K/mol	uncertainty
0	15.2	3.2
5	15.7	3.2
10	18.7	3.2
15	24	3.2
20	30.7	3
25	38.1	3
30	46	3
35	54.1	3
40	62.1	3
45	70.1	2.9
50	77.9	2.9
60	93.1	2.9
70	107.7	2.7
80	121.6	2.7
90	135	2.7
100	147.9	2.7
110	160.2	2.6
120	172	2.6
130	183.5	2.6
140	194.6	2.6
150	205.3	2.6
160	215.8	2.4
170	226.1	2.4
180	236.1	2.4
190	246	2.4
200	255.8	2.4

System: 1-butyl-3-methylimidazolium iodide; phases: Glass
Fixed: Pressure, kPa = 101.325
Property: Molar enthalpy function {Hm(T)-Hm(0)}/T, J/K/mol (Glass); method: Vacuum adiabatic calorimetry
Temperature, K	Molar enthalpy function {Hm(T)-Hm(0)}/T, J/K/mol	uncertainty
5	2066	63
10	1035	32
15	695	21
20	527	16
25	428	12
30	364	10
35	319.5	8.8
40	287.1	7.7
45	262.7	6.8
50	243.9	6.1
60	217.2	5.1
70	199.7	4.3
80	187.8	3.7
90	179.6	3.3
100	173.8	2.9
110	169.8	2.6
120	167	2.4
130	165.1	2.2
140	164	2
150	163.5	1.9
160	163.4	1.7
170	163.8	1.6
180	164.4	1.5
190	165.4	1.4
200	166.7	1.3

System: 1-butyl-3-methylimidazolium iodide; phases: Crystal
Fixed: Pressure, kPa = 101.325
Property: Molar heat capacity at constant pressure, J/K/mol (Crystal); method: Vacuum adiabatic calorimetry
Temperature, K	Molar heat capacity at constant pressure, J/K/mol	uncertainty
80.99	102	0.4
82.87	103.5	0.5
84.75	105	0.5
86.65	106.5	0.5
88.56	108	0.5
90.48	109.5	0.5
92.41	110.9	0.5
94.34	112.5	0.5
96.29	113.9	0.5
98.25	115.3	0.5
100.21	116.7	0.5
102.18	118.2	0.5
104.16	119.5	0.5
106.14	120.9	0.5
108.13	122.3	0.5
110.13	123.6	0.5
112.13	124.9	0.6
114.14	126.3	0.6
116.16	127.5	0.6
118.17	128.8	0.6
120.2	130.1	0.6
122.22	131.4	0.6
124.25	132.7	0.6
126.29	133.9	0.6
128.33	135.1	0.6
130.37	136.4	0.6
132.41	137.6	0.6
134.46	138.8	0.6
136.51	140.1	0.6
138.56	141.3	0.6
140.62	142.5	0.6
142.68	143.7	0.6
144.74	144.9	0.6
146.8	146.1	0.6
148.86	147.3	0.6
150.92	148.5	0.6
152.98	149.7	0.7
155.05	150.8	0.7
157.11	152.1	0.7
159.18	153.2	0.7
161.24	154.4	0.7
163.31	155.6	0.7
165.38	156.8	0.7
167.44	158	0.7
169.51	159.1	0.7
171.57	160.3	0.7
173.64	161.5	0.7
175.71	162.7	0.7
177.77	163.9	0.7
179.83	165.2	0.7
181.89	166.6	0.7
183.95	168.1	0.7
186	169.6	0.7
188.05	171.1	0.7
190.1	172.4	0.7
192.15	173.7	0.7
194.2	174.9	0.8
196.24	176.1	0.8
198.29	177.3	0.8
200.33	178.5	0.8
202.37	179.8	0.8
204.41	180.9	0.8
206.45	182.2	0.8
208.48	183.4	0.8
210.52	184.6	0.8
212.55	185.9	0.8
214.58	187.2	0.8
216.61	188.6	0.8
218.63	190.1	0.8
220.66	191.6	0.8
222.67	193	0.8
224.69	194.5	0.8
226.7	196	0.8
228.71	197.5	0.8
230.71	198.9	0.8
232.71	200.6	0.9
234.71	202	0.9
236.7	203.6	0.9
238.69	205.3	0.9
240.67	206.7	0.9
242.65	208.4	0.9
244.63	210	0.9
246.6	211.6	0.9
248.56	213.4	0.9
250.52	215.1	0.9
252.54	217.2	0.9
254.59	219.4	0.9
256.64	221.7	0.9
258.69	224.2	0.9
260.73	227	1
262.75	230.3	1
264.77	234	1
266.78	238.1	1
268.77	243.1	1
270.74	249	1
272.7	256.2	1.1
274.63	266.1	1.1
276.52	280.2	1.2
278.36	295.7	1.3
280.15	317.2	1.4
281.86	349.7	1.5
283.46	398.1	1.8
284.92	473.4	2.4
286.2	587.3	3.5
287.29	773.4	5.6
288.17	1041	9
288.86	1421	15
289.4	1917	16
107.31	121.7	0.5
109.45	123.1	0.5
111.45	124.4	0.6
113.46	125.7	0.6
115.47	127.1	0.6
117.49	128.4	0.6
119.51	129.7	0.6
121.54	130.9	0.6
123.57	132.2	0.6
125.6	133.5	0.6
127.64	134.7	0.6
129.68	135.9	0.6
131.72	137.2	0.6
133.76	138.4	0.6
135.81	139.6	0.6
137.87	140.8	0.6
139.92	142.1	0.6
141.98	143.3	0.6
144.04	144.5	0.6
146.1	145.7	0.6
148.16	146.9	0.6
150.22	148.1	0.6
152.28	149.3	0.6
154.35	150.5	0.7
156.41	151.6	0.7
158.48	152.8	0.7
160.54	154	0.7
162.61	155.2	0.7
164.68	156.4	0.7
166.74	157.5	0.7
168.81	158.7	0.7
170.88	159.9	0.7
172.94	161.1	0.7
175.01	162.3	0.7
177.07	163.5	0.7
179.14	164.8	0.7
181.2	166.1	0.7
183.26	167.6	0.7
185.31	169.1	0.7
187.36	170.6	0.7
189.41	171.9	0.7
191.46	173.3	0.7
193.51	174.5	0.7
195.56	175.7	0.8
197.6	176.9	0.8
199.65	178.1	0.8
201.69	179.3	0.8
203.73	180.5	0.8
205.77	181.8	0.8
207.8	183	0.8
209.84	184.3	0.8
211.87	185.5	0.8
213.91	186.8	0.8
215.94	188.1	0.8
217.97	189.5	0.8
219.99	191	0.8
222.01	192.5	0.8
224.03	194	0.8
226.04	195.5	0.8
228.05	197.1	0.8
230.06	198.5	0.8
232.06	200	0.9
234.06	201.7	0.9
236.05	203.2	0.9
238.04	204.8	0.9
240.03	206.3	0.9
242.01	208	0.9
243.99	209.6	0.9
245.96	211.2	0.9
247.93	212.9	0.9
227.61	196.7	0.8
229.61	198.3	0.8
231.61	199.7	0.8
233.61	201.3	0.9
235.61	202.8	0.9
237.6	204.3	0.9
239.6	205.9	0.9
241.59	207.5	0.9
243.58	209.1	0.9
245.57	210.8	0.9
247.55	212.5	0.9
249.54	214.3	0.9
4.858	0.768	0.023
5.112	0.909	0.026
5.371	1.07	0.029
5.638	1.249	0.033
5.91	1.452	0.037
6.217	1.701	0.042
6.56	2.006	0.048
6.91	2.343	0.055
7.265	2.714	0.063
7.625	3.114	0.071
7.99	3.553	0.08
8.357	4.021	0.09
8.728	4.513	0.1
9.104	5.04	0.111
9.483	5.597	0.122
9.868	6.177	0.134
10.36	6.957	0.089
10.95	7.92	0.099
11.56	8.937	0.11
12.16	9.99	0.12
12.77	11.08	0.13
13.38	12.19	0.14
14	13.34	0.16
14.63	14.54	0.17
15.25	15.73	0.18
15.99	17.18	0.2
16.84	18.83	0.21
17.7	20.48	0.23
18.56	22.1	0.25
19.42	23.73	0.26
20.29	25.36	0.15
21.5	27.65	0.16
23.06	30.6	0.17
24.62	33.53	0.18
26.19	36.35	0.19
27.59	38.83	0.2
29.09	41.41	0.2
30.68	44.04	0.2
32.43	46.84	0.21
34.33	49.79	0.22
36.25	52.67	0.24
38.16	55.41	0.25
40.07	58.07	0.26
42.08	60.84	0.27
44.19	63.71	0.28
46.3	66.48	0.29
48.41	69.11	0.3
50.52	71.72	0.32
52.64	74.22	0.33
54.76	76.59	0.34
56.88	78.93	0.35
59.01	81.2	0.36
61.14	83.4	0.36
63.27	85.56	0.37
65.4	87.69	0.38
67.54	89.76	0.39
69.67	91.79	0.4
71.91	93.89	0.41
74.26	96.02	0.42
76.61	98.12	0.43
78.96	100.2	0.4
81.32	102.2	0.4
83.68	104.1	0.5

System: 1-butyl-3-methylimidazolium iodide; phases: Liquid
Fixed: Pressure, kPa = 101.325
Property: Molar heat capacity at constant pressure, J/K/mol (Liquid); method: Vacuum adiabatic calorimetry
Temperature, K	Molar heat capacity at constant pressure, J/K/mol	uncertainty
207.77	247.8	1.1
209.86	287.7	1.2
212.03	285.8	1.2
214.19	286.4	1.2
216.37	286.6	1.2
218.54	287.1	1.2
220.72	287.4	1.2
222.9	287.9	1.2
225.09	288.5	1.2
227.28	288.7	1.2
229.47	289.3	1.2
231.66	289.8	1.2
233.86	290.3	1.2
236.05	290.9	1.2
238.25	291.4	1.2
240.46	291.9	1.2
233.72	290.1	1.2
235.72	290.6	1.2
237.71	291.1	1.2
239.7	291.7	1.2
241.7	292.2	1.2
243.69	292.7	1.2
293.86	308.4	1.3
295.68	309	1.3
297.5	309.8	1.3
294.32	308.7	1.3
296.1	309.2	1.3
297.89	309.8	1.3
222.11	287.7	1.2
224.39	288.2	1.2
226.56	288.5	1.2
228.74	289	1.2
230.93	289.5	1.2
233.11	290.1	1.2
235.3	290.6	1.2
237.48	291.1	1.2
239.67	291.7	1.2
241.85	292.2	1.2
244.04	292.7	1.2
249.7	294.3	1.2
251.69	294.9	1.2
253.58	295.4	1.2
255.48	295.9	1.2
257.37	296.5	1.2
259.26	297.3	1.2
261.15	297.8	1.2
263.05	298.3	1.2
264.94	298.9	1.2
266.84	299.7	1.3
268.74	300.2	1.3
270.64	300.7	1.3
267.43	299.7	1.3
269.42	300.5	1.3
271.32	301	1.3
273.22	301.5	1.3
275.12	302.3	1.3
277.02	302.9	1.3
278.92	303.4	1.3
280.82	303.9	1.3
282.72	304.7	1.3
284.62	305.2	1.3
286.52	306	1.3
288.42	306.6	1.3
290.32	307.1	1.3
292.23	307.9	1.3
294.13	308.4	1.3
296.03	309.2	1.3
297.93	309.8	1.3
299.84	310.6	1.3
301.74	311.1	1.3
303.65	311.9	1.3
305.55	312.4	1.3
307.45	313.2	1.3
309.36	313.8	1.3
311.26	314.6	1.3
313.17	315.1	1.3
315.07	315.9	1.3
316.98	316.7	1.3
318.89	317.2	1.3
320.79	318	1.3
322.7	318.6	1.3
324.6	319.4	1.3
326.51	320.1	1.3
328.41	320.7	1.3
330.32	321.5	1.3
332.22	322	1.3
334.13	322.8	1.3
336.03	323.6	1.3
337.93	324.4	1.4
339.84	324.9	1.4
341.74	325.7	1.4
343.65	326.5	1.4
345.55	327.3	1.4
347.47	327.9	1.4
349.37	328.7	1.4
351.28	329.5	1.4
353.19	330.3	1.4
355.09	330.8	1.4
357	331.6	1.4
358.91	332.4	1.4
360.81	333.2	1.4
362.72	334	1.4
364.62	334.8	1.4
366.52	335.3	1.4
368.43	336.4	1.4
226.71	288.5	1.2
228.79	289	1.2
230.77	289.5	1.2
232.76	289.8	1.2
234.74	290.3	1.2
236.72	290.9	1.2
238.71	291.4	1.2
240.69	291.9	1.2
242.68	292.5	1.2
244.67	293	1.2

System: 1-butyl-3-methylimidazolium iodide; phases: Glass
Fixed: Pressure, kPa = 101.325
Property: Molar heat capacity at constant pressure, J/K/mol (Glass); method: Vacuum adiabatic calorimetry
Temperature, K	Molar heat capacity at constant pressure, J/K/mol	uncertainty
5.042	1.601	0.041
5.32	1.862	0.046
5.604	2.149	0.052
5.895	2.463	0.059
6.222	2.842	0.066
6.586	3.292	0.076
6.955	3.776	0.085
7.328	4.295	0.096
7.705	4.838	0.107
7.496	4.532	0.101
7.884	5.11	0.113
8.267	5.703	0.125
8.654	6.323	0.138
9.042	6.967	0.151
9.433	7.63	0.164
9.825	8.316	0.178
10.33	9.205	0.114
10.94	10.33	0.13
11.56	11.49	0.14
12.18	12.66	0.15
12.8	13.88	0.16
13.42	15.11	0.18
14.05	16.37	0.19
14.69	17.68	0.2
15.47	19.26	0.22
16.42	21.23	0.24
17.37	23.19	0.26
18.32	25.15	0.28
19.27	27.09	0.3
20.22	29.03	0.17
21.48	31.59	0.18
23.05	34.73	0.19
24.63	37.87	0.2
26.21	40.93	0.21
27.79	43.88	0.22
29.96	47.88	0.23
32.35	52.05	0.23
34.29	55.25	0.25
36.21	58.25	0.26
38.13	61.21	0.27
40.04	64.03	0.28
42.06	66.96	0.3
44.18	69.94	0.31
46.3	72.87	0.32
48.42	75.66	0.33
50.54	78.37	0.34
52.66	80.96	0.35
54.78	83.48	0.37
56.91	85.88	0.38
59.04	88.27	0.39
61.17	90.59	0.4
63.31	92.93	0.41
65.45	95.14	0.41
67.59	97.4	0.42
69.73	99.56	0.43
71.97	101.8	0.4
74.32	104.1	0.5
76.67	106.3	0.5
79.03	108.5	0.5
81.39	110.6	0.5
83.75	112.7	0.5
80.72	110.2	0.5
82.53	111.7	0.5
84.35	113.3	0.5
86.18	114.8	0.5
88.03	116.3	0.5
89.88	117.8	0.5
91.74	119.3	0.5
93.62	120.8	0.5
95.5	122.3	0.5
97.39	123.7	0.5
99.29	125.2	0.6
101.2	126.6	0.6
103.12	128	0.6
105.04	129.4	0.6
106.97	130.8	0.6
108.91	132.2	0.6
110.85	133.5	0.6
112.8	134.9	0.6
114.75	136.2	0.6
116.71	137.6	0.6
118.68	138.9	0.6
120.64	140.2	0.6
122.62	141.5	0.6
124.59	142.8	0.6
126.57	144.1	0.6
128.55	145.4	0.6
130.54	146.7	0.6
132.53	148	0.6
134.52	149.3	0.6
136.51	150.6	0.7
138.51	151.8	0.7
140.51	153.1	0.7
142.51	154.4	0.7
144.51	155.7	0.7
146.51	157	0.7
148.52	158.3	0.7
150.52	159.6	0.7
152.53	160.9	0.7
154.54	162.2	0.7
156.54	163.5	0.7
158.55	164.8	0.7
160.56	166.1	0.7
162.57	167.4	0.7
164.58	168.7	0.7
166.59	170	0.7
168.59	171.4	0.7
170.6	172.7	0.7
172.61	174	0.7
174.62	175.4	0.8
176.63	176.8	0.8
178.63	178.2	0.8
180.64	179.6	0.8
182.64	181	0.8
184.64	182.6	0.8
186.65	184.1	0.8
188.65	185.7	0.8
190.65	187.2	0.8
192.65	188.9	0.8
194.65	191	0.8
196.66	193	0.8
198.66	195.4	0.8
200.66	198.5	0.8
202.93	204.1	0.9
205.45	214.4	0.9

System: 1-butyl-3-methylimidazolium iodide; phases: Glass
Property: Molar enthalpy, kJ/mol (Glass); method: Vacuum adiabatic calorimetry
Temperature, K	Pressure, kPa	Molar enthalpy, kJ/mol	uncertainty
0	101.325	10.3	0.3
