Measured thermophysical data. Critical behaviour of binary mixture of {xC6H5CN + (1 - x)CH3(CH2)7CH3}: Measurements of coexistence curves, light scattering, and heat capacity
Source: J. Chem. Thermodyn., 2010, 10.1016/j.jct.2010.02.009
Compound 1: benzonitrile, C7H5N, InChI=1S/C7H5N/c8-6-7-4-2-1-3-5-7/h1-5H, purity 99%
Compound 2: nonane, C9H20, InChI=1S/C9H20/c1-3-5-7-9-8-6-4-2/h3-9H2,1-2H3, purity 99%

System: benzonitrile; phases: Liquid
Fixed: Pressure, kPa = 101
Fixed: Wavelength, nm = 632.8
Property: Refractive index (other wavelength) (Liquid); method: Standard Abbe refractometry
Temperature, K	Refractive index (other wavelength)	uncertainty
278.235	1.5324	0.0008
279.254	1.5319	0.0008
281.333	1.5308	0.0008
282.965	1.5301	0.0008
284.3	1.5294	0.0008
285.425	1.5288	0.0008

System: nonane; phases: Liquid
Fixed: Pressure, kPa = 101
Fixed: Wavelength, nm = 632.8
Property: Refractive index (other wavelength) (Liquid); method: Standard Abbe refractometry
Temperature, K	Refractive index (other wavelength)	uncertainty
284.907	1.4079	0.0008
283.648	1.4085	0.0008
282.59	1.409	0.0008
281.475	1.4095	0.0008
280.402	1.4101	0.0008
279.187	1.4106	0.0008
278.081	1.4111	0.0008

System: benzonitrile + nonane; phases: Liquid mixture 1, Liquid mixture 2, Air at 1 atmosphere
Property: Upper consolute temperature, K (Liquid mixture 1); method: VISOBS
Upper consolute temperature, K	uncertainty
284.625	0.534

System: benzonitrile + nonane; phases: Liquid mixture 1, Liquid mixture 2, Air at 1 atmosphere
Property: Upper consolute composition: mole fraction of benzonitrile (Liquid mixture 1); method: equal volume method
Upper consolute composition: mole fraction of benzonitrile	uncertainty
0.497	0.002

System: benzonitrile + nonane; phases: Liquid mixture 1, Liquid mixture 2
Fixed: Pressure, kPa = 101
Property: Mole fraction of benzonitrile (Liquid mixture 1); method: Index of refraction calibration data
Temperature, K	Mole fraction of benzonitrile	uncertainty
284.623	0.48	0.014
284.619	0.472	0.014
284.616	0.468	0.014
284.606	0.462	0.014
284.599	0.458	0.014
284.571	0.448	0.013
284.538	0.439	0.013
284.454	0.425	0.013
284.321	0.409	0.012
284.12	0.393	0.012
283.821	0.375	0.011
283.374	0.355	0.011
282.748	0.334	0.01
281.683	0.309	0.009
280.785	0.288	0.009
279.483	0.266	0.008
278.042	0.245	0.007

System: benzonitrile + nonane; phases: Liquid mixture 2, Liquid mixture 1
Fixed: Pressure, kPa = 101
Property: Mole fraction of benzonitrile (Liquid mixture 2); method: Index of refraction calibration data
Temperature, K	Mole fraction of benzonitrile	uncertainty
284.623	0.514	0.015
284.619	0.522	0.014
284.616	0.525	0.014
284.606	0.532	0.014
284.599	0.535	0.014
284.571	0.546	0.014
284.538	0.552	0.013
284.454	0.564	0.013
284.321	0.579	0.013
284.12	0.594	0.012
283.821	0.61	0.012
283.374	0.627	0.011
282.748	0.644	0.011
281.683	0.667	0.01
280.785	0.683	0.01
279.483	0.7	0.009
278.042	0.716	0.009

System: benzonitrile + nonane; phases: Liquid mixture 2, Liquid mixture 1
Fixed: Pressure, kPa = 101
Fixed: Wavelength, nm = 632.8
Property: Refractive index (other wavelength) (Liquid mixture 2); method: Standard Abbe refractometry
Temperature, K	Refractive index (other wavelength)	uncertainty
284.623	1.4544	0.0008
284.619	1.4554	0.0008
284.616	1.4558	0.0008
284.606	1.4565	0.0008
284.599	1.457	0.0008
284.571	1.4583	0.0008
284.538	1.4591	0.0008
284.454	1.4606	0.0008
284.321	1.4625	0.0008
284.12	1.4645	0.0008
283.821	1.4667	0.0008
283.374	1.4691	0.0008
282.748	1.4717	0.0008
281.683	1.4753	0.0008
280.785	1.478	0.0008
279.483	1.4811	0.0008
278.042	1.4841	0.0008

System: benzonitrile + nonane; phases: Liquid mixture 1, Liquid mixture 2
Fixed: Pressure, kPa = 101
Fixed: Wavelength, nm = 632.8
Property: Refractive index (other wavelength) (Liquid mixture 1); method: Standard Abbe refractometry
Temperature, K	Refractive index (other wavelength)	uncertainty
284.623	1.4506	0.0008
284.619	1.4497	0.0008
284.616	1.4493	0.0008
284.606	1.4486	0.0008
284.599	1.4481	0.0008
284.571	1.447	0.0008
284.538	1.4461	0.0008
284.454	1.4447	0.0008
284.321	1.443	0.0008
284.12	1.4414	0.0008
283.821	1.4398	0.0008
283.374	1.438	0.0008
282.748	1.4363	0.0008
281.683	1.4343	0.0008
280.785	1.4329	0.0008
279.483	1.4315	0.0008
278.042	1.4304	0.0008

System: benzonitrile + nonane; phases: Liquid
Fixed: Pressure, kPa = 101
Fixed: Wavelength, nm = 632.8
Property: Refractive index (other wavelength) (Liquid); method: Standard Abbe refractometry
Temperature, K	Mole fraction of benzonitrile	Refractive index (other wavelength)	uncertainty
284.907	0	1.4079	0.0008
283.648	0	1.4085	0.0008
282.59	0	1.409	0.0008
281.475	0	1.4095	0.0008
280.402	0	1.4101	0.0008
279.187	0	1.4106	0.0008
278.081	0	1.4111	0.0008
278.235	1	1.5324	0.0008
279.254	1	1.5319	0.0008
281.333	1	1.5308	0.0008
282.965	1	1.5301	0.0008
284.3	1	1.5294	0.0008
285.425	1	1.5288	0.0008
285.4	0.0945	1.4145	0.0008
285.4	0.2042	1.4234	0.0008
285.4	0.2947	1.4313	0.0008
285.4	0.3866	1.4402	0.0008
285.4	0.4969	1.452	0.0008
285.4	0.5967	1.4642	0.0008
285.4	0.6844	1.4759	0.0008
285.4	0.7992	1.4932	0.0008
285.4	0.865	1.504	0.0008

System: benzonitrile + nonane; phases: Liquid
Fixed: Pressure, kPa = 101
Fixed: Mole fraction of benzonitrile = 0.497
Property: Heat capacity at constant pressure per volume, J/K/m3 (Liquid); method: Large sample (1 g) DSC
Temperature, K	Heat capacity at constant pressure per volume, J/K/m3	uncertainty
314.12	1638500	32800
312.75	1637800	32800
311.364	1637200	32700
310.051	1636600	32700
308.793	1636100	32700
307.593	1635800	32700
306.451	1635600	32700
305.377	1635400	32700
304.343	1635200	32700
303.364	1635100	32700
302.43	1635000	32700
301.55	1634800	32700
300.705	1634900	32700
299.887	1634900	32700
299.14	1635100	32700
298.411	1635100	32700
297.725	1635500	32700
297.07	1635800	32700
296.45	1635800	32700
295.852	1636400	32700
295.284	1636500	32700
294.74	1636900	32700
294.236	1637400	32700
293.744	1637800	32800
293.283	1638100	32800
292.84	1638700	32800
292.422	1639400	32800
292.029	1639400	32800
291.289	1641000	32800
290.605	1641800	32800
290.007	1643400	32900
289.511	1644500	32900
288.974	1645800	32900
288.527	1647700	33000
288.121	1649500	33000
287.75	1650500	33000
287.422	1652700	33100
287.121	1655500	33100
286.849	1655600	33100
286.603	1659100	33200
286.38	1659800	33200
286.179	1662900	33300
285.997	1665000	33300
285.832	1666100	33300
285.682	1668100	33400
285.548	1671100	33400
285.426	1674300	33500
285.315	1676100	33500
285.215	1677900	33600
285.124	1680400	33600
284.969	1686600	33700
284.901	1688700	33800
284.785	1693000	33900
284.691	1698600	34000
284.613	1703600	34100
284.498	1715800	34500
284.421	1731200	35200
284.358	1750800	43800
284.328	1765400	47000
284.307	1776700	43900
284.293	1794400	42300
284.283	1815400	42500
284.277	1840700	42100
284.274	1864800	45100
284.271	1908000	45700
284.269	1937800	46100
284.267	1965500	46600
284.266	1978600	44900
284.265	2004600	45300
284.264	2018600	45600
284.263	2033100	45800
284.261	2047100	46200
284.259	2072500	46700
284.256	2079400	47000
284.25	2071500	45900
284.244	2060600	46000
284.234	2046300	45200
284.221	2037100	44200
284.208	2022500	43400
284.203	2015800	43200
284.187	2006000	43100
284.178	2005300	43300
284.163	1998500	40300
284.147	1985800	41500
284.134	1977600	41300
284.122	1970200	40900
284.106	1960300	40300
284.09	1950500	39900
284.03	1934300	39500
283.948	1908800	38400
283.878	1913600	38400
283.687	1880300	37700
283.56	1868300	37400
283.486	1873100	37500
283.404	1868700	37400
283.313	1869700	37400
283.213	1866700	37300
283.102	1862200	37200
282.979	1859600	37200
282.845	1856600	37100
282.696	1849700	37000
282.531	1847600	37000
282.349	1845300	36900
282.148	1841800	36800
281.925	1835700	36700
281.679	1829700	36600
281.407	1830500	36600
281.107	1829200	36600
280.774	1824500	36500
280.407	1816400	36300
280.001	1811600	36200
279.554	1808700	36200
279.058	1803600	36100
278.51	1795700	35900
