Measured thermophysical data. Solvent extraction of thiophene from n-alkanes (C7, C12, and C16)  using the ionic liquid [C8mim][BF4]
Source: J. Chem. Thermodyn., 2008, 10.1016/j.jct.2008.01.025
Compound 1: heptane, C7H16, InChI=1S/C7H16/c1-3-5-7-6-4-2/h3-7H2,1-2H3, purity 99.5%
Compound 2: dodecane, C12H26, InChI=1S/C12H26/c1-3-5-7-9-11-12-10-8-6-4-2/h3-12H2,1-2H3, purity 99%
Compound 3: hexadecane, C16H34, InChI=1S/C16H34/c1-3-5-7-9-11-13-15-16-14-12-10-8-6-4-2/h3-16H2,1-2H3, purity 99%
Compound 4: 1-methyl-3-octylimidazolium tetrafluoroborate, C12H23BF4N2, InChI=1S/C12H23N2.BF4/c1-3-4-5-6-7-8-9-14-11-10-13(2)12-14;2-1(3,4)5/h10-12H,3-9H2,1-2H3;/q+1;-1
Compound 5: thiophene, C4H4S, InChI=1S/C4H4S/c1-2-4-5-3-1/h1-4H, purity 99.5%

System: heptane; phases: Liquid
Property: Mass density, kg/m3 (Liquid); method: VIBTUB:UFactor:4
Temperature, K	Pressure, kPa	Mass density, kg/m3	uncertainty
298.15	101.325	679.466	0.659

System: heptane; phases: Liquid
Property: Refractive index (Na D-line) (Liquid); method: Standard Abbe refractometry
Temperature, K	Pressure, kPa	Refractive index (Na D-line)	uncertainty
298.15	101.325	1.38517	0.00036

System: dodecane; phases: Liquid
Property: Mass density, kg/m3 (Liquid); method: VIBTUB:UFactor:6
Temperature, K	Pressure, kPa	Mass density, kg/m3	uncertainty
298.15	101.325	745.32	0.91

System: dodecane; phases: Liquid
Property: Refractive index (Na D-line) (Liquid); method: Standard Abbe refractometry
Temperature, K	Pressure, kPa	Refractive index (Na D-line)	uncertainty
298.15	101.325	1.42011	0.0004

System: hexadecane; phases: Liquid
Property: Mass density, kg/m3 (Liquid); method: VIBTUB:UFactor:6
Temperature, K	Pressure, kPa	Mass density, kg/m3	uncertainty
298.15	101.325	771.15	0.85

System: hexadecane; phases: Liquid
Property: Refractive index (Na D-line) (Liquid); method: Standard Abbe refractometry
Temperature, K	Pressure, kPa	Refractive index (Na D-line)	uncertainty
298.15	101.325	1.43232	0.0004

System: 1-methyl-3-octylimidazolium tetrafluoroborate; phases: Liquid
Property: Mass density, kg/m3 (Liquid); method: Vibrating tube method
Temperature, K	Pressure, kPa	Mass density, kg/m3	uncertainty
298.15	101.325	1104.42	2.33

System: 1-methyl-3-octylimidazolium tetrafluoroborate; phases: Liquid
Property: Refractive index (Na D-line) (Liquid); method: Standard Abbe refractometry
Temperature, K	Pressure, kPa	Refractive index (Na D-line)	uncertainty
298.15	101.325	1.43329	0.00069

System: thiophene; phases: Liquid
Property: Mass density, kg/m3 (Liquid); method: VIBTUB:UFactor:4
Temperature, K	Pressure, kPa	Mass density, kg/m3	uncertainty
298.15	101.325	1058.5	0.28

System: thiophene; phases: Liquid
Property: Refractive index (Na D-line) (Liquid); method: Standard Abbe refractometry
Temperature, K	Pressure, kPa	Refractive index (Na D-line)	uncertainty
298.15	101.325	1.52581	0.00036

System: thiophene + heptane + 1-methyl-3-octylimidazolium tetrafluoroborate; phases: Liquid mixture 1, Liquid mixture 2
Fixed: Pressure, kPa = 101
Fixed: Temperature, K = 298.15
Property: Mole fraction of 1-methyl-3-octylimidazolium tetrafluoroborate (Liquid mixture 1); method: Chromatography
Property: Mole fraction of 1-methyl-3-octylimidazolium tetrafluoroborate (Liquid mixture 2); method: Chromatography
Property: Mole fraction of thiophene (Liquid mixture 2); method: Chromatography
Mole fraction of thiophene	Mole fraction of 1-methyl-3-octylimidazolium tetrafluoroborate	uncertainty	Mole fraction of 1-methyl-3-octylimidazolium tetrafluoroborate	uncertainty	Mole fraction of thiophene	uncertainty
0	0.862	0.014	0		0	
0.152	0.71	0.02	0.004	0.004	0.094	
0.306	0.558	0.02	0.004	0.004	0.226	
0.422	0.445	0.02	0.004	0.004	0.37	
0.508	0.362	0.019	0.003	0.003	0.51	
0.563	0.312	0.019	0		0.651	
0.627	0.26	0.018	0		0.771	
0.679	0.224	0.017	0		0.846	
0.836	0.122	0.016	0		0.954	
0.9	0.1	0.015	0		1	

System: thiophene + dodecane + 1-methyl-3-octylimidazolium tetrafluoroborate; phases: Liquid mixture 1, Liquid mixture 2
Fixed: Pressure, kPa = 101
Fixed: Temperature, K = 298.15
Property: Mole fraction of 1-methyl-3-octylimidazolium tetrafluoroborate (Liquid mixture 1); method: Chromatography
Property: Mole fraction of 1-methyl-3-octylimidazolium tetrafluoroborate (Liquid mixture 2); method: Chromatography
Property: Mole fraction of thiophene (Liquid mixture 2); method: Chromatography
Mole fraction of thiophene	Mole fraction of 1-methyl-3-octylimidazolium tetrafluoroborate	uncertainty	Mole fraction of 1-methyl-3-octylimidazolium tetrafluoroborate	uncertainty	Mole fraction of thiophene	uncertainty
0	0.956	0.014	0		0	
0.116	0.834	0.02	0		0.117	
0.254	0.691	0.02	0		0.273	
0.389	0.55	0.021	0		0.452	
0.494	0.437	0.021	0.005	0.005	0.631	
0.512	0.417	0.021	0.002	0.002	0.659	
0.58	0.344	0.021	0.005	0.005	0.769	
0.621	0.299	0.019	0.006	0.006	0.856	
0.675	0.255	0.018	0		0.902	
0.73	0.207	0.018	0		0.933	
0.811	0.152	0.017	0		0.963	
0.9	0.1	0.016	0		1	

System: thiophene + hexadecane + 1-methyl-3-octylimidazolium tetrafluoroborate; phases: Liquid mixture 1, Liquid mixture 2
Fixed: Pressure, kPa = 101
Fixed: Temperature, K = 298.15
Property: Mole fraction of thiophene (Liquid mixture 1); method: Chromatography
Property: Mole fraction of 1-methyl-3-octylimidazolium tetrafluoroborate (Liquid mixture 2); method: Chromatography
Property: Mole fraction of thiophene (Liquid mixture 2); method: Chromatography
Mole fraction of 1-methyl-3-octylimidazolium tetrafluoroborate	Mole fraction of thiophene	uncertainty	Mole fraction of 1-methyl-3-octylimidazolium tetrafluoroborate	uncertainty	Mole fraction of thiophene	uncertainty
0.979	0		0		0	
0.886	0.093	0.02	0		0.145	
0.773	0.202	0.019	0		0.317	
0.649	0.319	0.019	0		0.51	
0.521	0.431	0.019	0		0.686	
0.416	0.528	0.02	0		0.834	
0.358	0.585	0.02	0		0.902	
0.295	0.648	0.022	0		0.948	
0.225	0.748	0.025	0		0.987	
0.201	0.792	0.029	0		0.997	
0.1	0.9	0.021	0		1	

System: heptane + 1-methyl-3-octylimidazolium tetrafluoroborate; phases: Liquid mixture 1, Liquid mixture 2
Property: Mole fraction of 1-methyl-3-octylimidazolium tetrafluoroborate (Liquid mixture 1); method: Chromatography
Pressure, kPa	Temperature, K	Mole fraction of 1-methyl-3-octylimidazolium tetrafluoroborate	uncertainty
101	298.15	0.862	0.014

System: thiophene + 1-methyl-3-octylimidazolium tetrafluoroborate; phases: Liquid mixture 1, Liquid mixture 2
Property: Mole fraction of 1-methyl-3-octylimidazolium tetrafluoroborate (Liquid mixture 1); method: Chromatography
Pressure, kPa	Temperature, K	Mole fraction of 1-methyl-3-octylimidazolium tetrafluoroborate	uncertainty
101	298.15	0.1	0.014

System: thiophene + 1-methyl-3-octylimidazolium tetrafluoroborate; phases: Liquid mixture 1, Liquid mixture 2
Property: Mole fraction of thiophene (Liquid mixture 1); method: Chromatography
Pressure, kPa	Temperature, K	Mole fraction of thiophene	uncertainty
101	298.15	0.9	0.014

System: dodecane + 1-methyl-3-octylimidazolium tetrafluoroborate; phases: Liquid mixture 1, Liquid mixture 2
Property: Mole fraction of 1-methyl-3-octylimidazolium tetrafluoroborate (Liquid mixture 1); method: Chromatography
Pressure, kPa	Temperature, K	Mole fraction of 1-methyl-3-octylimidazolium tetrafluoroborate	uncertainty
101	298.15	0.956	0.014

System: hexadecane + 1-methyl-3-octylimidazolium tetrafluoroborate; phases: Liquid mixture 1, Liquid mixture 2
Property: Mole fraction of 1-methyl-3-octylimidazolium tetrafluoroborate (Liquid mixture 1); method: Chromatography
Pressure, kPa	Temperature, K	Mole fraction of 1-methyl-3-octylimidazolium tetrafluoroborate	uncertainty
101	298.15	0.979	0.014
