Measured thermophysical data. Phase equilibria of CsCl-polyethylene glycol (PEG)-H2O at 298.15 K: Effect of different polymer molar masses (PEG1000/4000/6000)
Source: J. Chem. Thermodyn., 2019, 10.1016/j.jct.2019.03.020
Compound 1: cesium chloride, ClCs, InChI=1S/ClH.Cs/h1H;/q;+1/p-1, purity 99.5%
Compound 2: water, H2O, InChI=1S/H2O/h1H2, purity 99.9%

System: cesium chloride + water; phases: Liquid
Fixed: Pressure, kPa = 100
Fixed: Temperature, K = 298.15
Property: Refractive index (Na D-line) (Liquid); method: Standard Abbe refractometry
Mass fraction of cesium chloride	Refractive index (Na D-line)	uncertainty
0	1.3325	0.001
0.02	1.3344	0.0012
0.04	1.3361	0.0012
0.06	1.3377	0.0012
0.08	1.3395	0.0012
0.6559	1.4196	0.0013

System: cesium chloride + water; phases: Liquid, Crystal
Property: Mass fraction of cesium chloride (Liquid); method: Titration method
Temperature, K	Pressure, kPa	Mass fraction of cesium chloride	uncertainty
298.15	100	0.6559	0.0062
