Measured thermophysical data. Synthesis and energetics of Na, K, Rb and Cs salts by reaction with 1,2-ethanediol and 1,4-butanediol
Source: J. Chem. Thermodyn., 2017, 10.1016/j.jct.2017.07.025
Compound 1: sodium, Na, InChI=1S/Na
Compound 2: hydrogen, H2, InChI=1S/H2/h1H
Compound 3: graphite, C
Compound 4: oxygen, O2, InChI=1S/O2/c1-2
Compound 5: potassium, K, InChI=1S/K
Compound 6: rubidium, Rb, InChI=1S/Rb
Compound 7: cesium, Cs, InChI=1S/Cs
Compound 8: monosodium ethyleneglycolate, C2H5NaO2, InChI=1S/C2H5O2.Na/c3-1-2-4;/h3H,1-2H2;/q-1;+1
Compound 9: monopotassium ethylene glycolate, C2H5KO2, InChI=1S/C2H5O2.K/c3-1-2-4;/h3H,1-2H2;/q-1;+1
Compound 10: monorubidium ethylene glycolate, C2H5O2Rb, InChI=1S/C2H5O2.Rb/c3-1-2-4;/h3H,1-2H2;/q-1;+1
Compound 11: adduct of cesium 2-hydroxyethan-1-olate and 1,2-ethanediol, C4H11CsO4, InChI=1S/C2H6O2.C2H5O2.Cs/c2*3-1-2-4;/h3-4H,1-2H2;3H,1-2H2;/q;-1;+1
Compound 12: monosodium 1,4-butylene glycolate, C4H9NaO2, InChI=1S/C4H9O2.Na/c5-3-1-2-4-6;/h5H,1-4H2;/q-1;+1
Compound 13: monopotassium 1,4-butylene glycolate, C4H9KO2, InChI=1S/C4H9O2.K/c5-3-1-2-4-6;/h5H,1-4H2;/q-1;+1

Reaction: 1 monosodium ethyleneglycolate + -1 sodium + -2.5 hydrogen + -2 graphite + -1 oxygen
Property: Molar enthalpy of reaction, kJ/mol
-588.8

Reaction: 1 monosodium ethyleneglycolate + -1 sodium + -2.5 hydrogen + -2 graphite + -1 oxygen
Property: Molar enthalpy of reaction, kJ/mol
-590

Reaction: -1 potassium + 1 monopotassium ethylene glycolate + -2.5 hydrogen + -2 graphite + -1 oxygen
Property: Molar enthalpy of reaction, kJ/mol
-615.4

Reaction: -1 potassium + 1 monopotassium ethylene glycolate + -2.5 hydrogen + -2 graphite + -1 oxygen
Property: Molar enthalpy of reaction, kJ/mol
-614.8

Reaction: 1 monorubidium ethylene glycolate + -1 rubidium + -2.5 hydrogen + -2 graphite + -1 oxygen
Property: Molar enthalpy of reaction, kJ/mol
-609.8

Reaction: 1 adduct of cesium 2-hydroxyethan-1-olate and 1,2-ethanediol + -1 cesium + -5.5 hydrogen + -4 graphite + -2 oxygen
Property: Molar enthalpy of reaction, kJ/mol
-1091.4

Reaction: -1 sodium + 1 monosodium 1,4-butylene glycolate + -4.5 hydrogen + -4 graphite + -1 oxygen
Property: Molar enthalpy of reaction, kJ/mol
-654.8

Reaction: -1 sodium + 1 monosodium 1,4-butylene glycolate + -4.5 hydrogen + -4 graphite + -1 oxygen
Property: Molar enthalpy of reaction, kJ/mol
-653.5

Reaction: 1 monopotassium 1,4-butylene glycolate + -1 potassium + -4.5 hydrogen + -4 graphite + -1 oxygen
Property: Molar enthalpy of reaction, kJ/mol
-681.3

Reaction: 1 monopotassium 1,4-butylene glycolate + -1 potassium + -4.5 hydrogen + -4 graphite + -1 oxygen
Property: Molar enthalpy of reaction, kJ/mol
-678.5
