Measured thermophysical data. Study on physicochemical properties of FeCl3/[C4mim][Cl] ionic liquids
Source: J. Chem. Thermodyn., 2016, 10.1016/j.jct.2016.01.002
Compound 1: ferric chloride, Cl3Fe, InChI=1S/3ClH.Fe/h3*1H;/q;;;+3/p-3, purity 98%
Compound 2: 1-butyl-3-methylimidazolium chloride, C8H15ClN2, InChI=1S/C8H15N2.ClH/c1-3-4-5-10-7-6-9(2)8-10;/h6-8H,3-5H2,1-2H3;1H/q+1;/p-1

System: ferric chloride + 1-butyl-3-methylimidazolium chloride; phases: Liquid
Fixed: Pressure, kPa = 100
Property: Mass density, kg/m3 (Liquid); method: Vibrating tube method
Temperature, K	Mole fraction of ferric chloride	Mass density, kg/m3	uncertainty
293.15	0.3704	1279.5	7.3
298.15	0.3704	1275.8	7.2
303.15	0.3704	1271.9	7.2
308.15	0.3704	1268.1	7.2
313.15	0.3704	1264.2	7.2
318.15	0.3704	1260.6	7.2
323.15	0.3704	1256.7	7.1
328.15	0.3704	1253	7.1
333.15	0.3704	1249.2	7.1
338.15	0.3704	1245.5	7.1
343.15	0.3704	1241	7
293.15	0.4	1299.3	7.4
298.15	0.4	1295.2	7.4
303.15	0.4	1291.2	7.3
308.15	0.4	1287.4	7.3
313.15	0.4	1283.3	7.3
318.15	0.4	1279.6	7.3
323.15	0.4	1275.7	7.3
328.15	0.4	1271.8	7.2
333.15	0.4	1267.8	7.2
338.15	0.4	1263.9	7.2
343.15	0.4	1260.3	7.2
293.15	0.4348	1322.8	7.5
298.15	0.4348	1318.7	7.5
303.15	0.4348	1314.4	7.5
308.15	0.4348	1310.2	7.5
313.15	0.4348	1306.5	7.4
318.15	0.4348	1302.4	7.4
323.15	0.4348	1298.5	7.4
328.15	0.4348	1294.6	7.4
333.15	0.4348	1290.7	7.3
338.15	0.4348	1286.8	7.3
343.15	0.4348	1282.6	7.3
293.15	0.4545	1337.1	7.6
298.15	0.4545	1332.9	7.6
303.15	0.4545	1328.8	7.6
308.15	0.4545	1324.8	7.5
313.15	0.4545	1320.6	7.5
318.15	0.4545	1316.7	7.5
323.15	0.4545	1312.6	7.5
328.15	0.4545	1308.7	7.4
333.15	0.4545	1304.6	7.4
338.15	0.4545	1300.6	7.4
343.15	0.4545	1296.7	7.4
293.15	0.4762	1352.4	7.7
298.15	0.4762	1348.3	7.7
303.15	0.4762	1343.8	7.7
308.15	0.4762	1339.7	7.6
313.15	0.4762	1335.6	7.6
318.15	0.4762	1331.6	7.6
323.15	0.4762	1327.5	7.6
328.15	0.4762	1323.3	7.5
333.15	0.4762	1319.5	7.5
338.15	0.4762	1315.5	7.5
343.15	0.4762	1311.3	7.5
293.15	0.5	1369.9	7.8
298.15	0.5	1365.7	7.8
303.15	0.5	1361.4	7.8
308.15	0.5	1357.3	7.7
313.15	0.5	1353.1	7.7
318.15	0.5	1349	7.7
323.15	0.5	1344.7	7.7
328.15	0.5	1340.7	7.6
333.15	0.5	1336.5	7.6
338.15	0.5	1332.3	7.6
343.15	0.5	1328.3	7.6
293.15	0.5238	1391.6	7.9
298.15	0.5238	1387.4	7.9
303.15	0.5238	1383.4	7.9
308.15	0.5238	1378.9	7.9
313.15	0.5238	1374.5	7.8
318.15	0.5238	1370.4	7.8
323.15	0.5238	1366.2	7.8
328.15	0.5238	1361.9	7.8
333.15	0.5238	1357.7	7.7
338.15	0.5238	1353.2	7.7
343.15	0.5238	1349.2	7.7
293.15	0.5652	1433.4	8.2
298.15	0.5652	1428.8	8.2
303.15	0.5652	1424.3	8.1
308.15	0.5652	1420	8.1
313.15	0.5652	1415.6	8.1
318.15	0.5652	1411.2	8.1
323.15	0.5652	1406.7	8
328.15	0.5652	1402.4	8
333.15	0.5652	1398	8
338.15	0.5652	1393.7	8
343.15	0.5652	1389.3	7.9
293.15	0.6	1468.1	8.4
298.15	0.6	1463.5	8.4
303.15	0.6	1458.4	8.3
308.15	0.6	1454.3	8.3
313.15	0.6	1449.7	8.3
318.15	0.6	1445.3	8.3
323.15	0.6	1440.7	8.2
328.15	0.6	1436.3	8.2
333.15	0.6	1431.8	8.2
338.15	0.6	1427.3	8.2
343.15	0.6	1422.9	8.1

System: ferric chloride + 1-butyl-3-methylimidazolium chloride; phases: Liquid
Fixed: Pressure, kPa = 100
Property: Electrical conductivity, S/m (Liquid); method: Direct current cell with electrodes
Temperature, K	Mole fraction of ferric chloride	Electrical conductivity, S/m	uncertainty
293.15	0.3704	0.1033	0.001
298.15	0.3704	0.1436	0.0014
303.15	0.3704	0.192	0.002
308.15	0.3704	0.25	0.003
313.15	0.3704	0.316	0.003
318.15	0.3704	0.394	0.004
323.15	0.3704	0.483	0.005
328.15	0.3704	0.581	0.006
333.15	0.3704	0.691	0.007
338.15	0.3704	0.814	0.008
343.15	0.3704	0.949	0.01
293.15	0.4	0.172	0.002
298.15	0.4	0.228	0.002
303.15	0.4	0.295	0.003
308.15	0.4	0.371	0.004
313.15	0.4	0.457	0.005
318.15	0.4	0.556	0.006
323.15	0.4	0.666	0.007
328.15	0.4	0.783	0.008
333.15	0.4	0.913	0.009
338.15	0.4	1.055	0.011
343.15	0.4	1.208	0.012
293.15	0.4348	0.306	0.003
298.15	0.4348	0.387	0.004
303.15	0.4348	0.478	0.005
308.15	0.4348	0.582	0.006
313.15	0.4348	0.696	0.007
318.15	0.4348	0.823	0.008
323.15	0.4348	0.961	0.01
328.15	0.4348	1.108	0.011
333.15	0.4348	1.268	0.013
338.15	0.4348	1.436	0.014
343.15	0.4348	1.614	0.016
293.15	0.4545	0.406	0.004
298.15	0.4545	0.502	0.005
303.15	0.4545	0.61	0.006
308.15	0.4545	0.728	0.007
313.15	0.4545	0.858	0.009
318.15	0.4545	0.998	0.01
323.15	0.4545	1.15	0.01
328.15	0.4545	1.311	0.013
333.15	0.4545	1.481	0.015
338.15	0.4545	1.661	0.017
343.15	0.4545	1.851	0.019
293.15	0.4762	0.541	0.005
298.15	0.4762	0.658	0.007
303.15	0.4762	0.786	0.008
308.15	0.4762	0.926	0.009
313.15	0.4762	1.075	0.011
318.15	0.4762	1.233	0.012
323.15	0.4762	1.4	0.014
328.15	0.4762	1.578	0.016
333.15	0.4762	1.765	0.018
338.15	0.4762	1.959	0.02
343.15	0.4762	2.16	0.022
293.15	0.5	0.722	0.007
298.15	0.5	0.864	0.009
303.15	0.5	1.011	0.01
308.15	0.5	1.176	0.012
313.15	0.5	1.351	0.014
318.15	0.5	1.535	0.015
323.15	0.5	1.726	0.017
328.15	0.5	1.929	0.019
333.15	0.5	2.14	0.021
338.15	0.5	2.355	0.024
343.15	0.5	2.58	0.03
293.15	0.5238	0.675	0.007
298.15	0.5238	0.809	0.008
303.15	0.5238	0.952	0.01
308.15	0.5238	1.105	0.011
313.15	0.5238	1.264	0.013
318.15	0.5238	1.44	0.014
323.15	0.5238	1.623	0.016
328.15	0.5238	1.812	0.018
333.15	0.5238	2.014	0.02
338.15	0.5238	2.219	0.022
343.15	0.5238	2.435	0.024
293.15	0.5652	0.626	0.006
298.15	0.5652	0.747	0.007
303.15	0.5652	0.878	0.009
308.15	0.5652	1.017	0.01
313.15	0.5652	1.164	0.012
318.15	0.5652	1.325	0.013
323.15	0.5652	1.495	0.015
328.15	0.5652	1.668	0.017
333.15	0.5652	1.852	0.019
338.15	0.5652	2.042	0.02
343.15	0.5652	2.24	0.02
293.15	0.6	0.604	0.006
298.15	0.6	0.719	0.007
303.15	0.6	0.84	0.008
308.15	0.6	0.973	0.01
313.15	0.6	1.114	0.011
318.15	0.6	1.264	0.013
323.15	0.6	1.423	0.014
328.15	0.6	1.586	0.016
333.15	0.6	1.758	0.018
338.15	0.6	1.936	0.019
343.15	0.6	2.12	0.02

System: ferric chloride + 1-butyl-3-methylimidazolium chloride; phases: Liquid
Fixed: Pressure, kPa = 100
Fixed: Temperature, K = 298.15
Property: Viscosity, Pa*s (Liquid); method: Concentric cylinders viscometry
Mole fraction of ferric chloride	Viscosity, Pa*s	uncertainty
0.3704	0.1956	0.0096
0.4	0.123	0.005
0.4348	0.0702	0.0023
0.4545	0.0511	0.0015
0.4762	0.0387	0.0011
0.5	0.0312	0.0008
0.5238	0.0301	0.0008
0.5652	0.0284	0.0008
0.6	0.0274	0.0007
