Measured thermophysical data. Effect of temperature on the dilution enthalpies of alpha,omega-amino acids in aqueous solutions
Source: J. Chem. Thermodyn., 2011, 10.1016/j.jct.2011.04.019
Compound 1: 3-aminopropanoic acid, C3H7NO2, InChI=1S/C3H7NO2/c4-2-1-3(5)6/h1-2,4H2,(H,5,6), purity 99%
Compound 2: 4-aminobutanoic acid, C4H9NO2, InChI=1S/C4H9NO2/c5-3-1-2-4(6)7/h1-3,5H2,(H,6,7), purity 98%
Compound 3: 5-aminovaleric acid, C5H11NO2, InChI=1S/C5H11NO2/c6-4-2-1-3-5(7)8/h1-4,6H2,(H,7,8), purity 97%
Compound 4: 6-aminohexanoic acid, C6H13NO2, InChI=1S/C6H13NO2/c7-5-3-1-2-4-6(8)9/h1-5,7H2,(H,8,9), purity 99%
Compound 5: water, H2O, InChI=1S/H2O/h1H2, purity 99.9%

System: 3-aminopropanoic acid + water; phases: Liquid
Fixed: Pressure, kPa = 101.325
Property: Molar enthalpy of dilution, kJ/mol (Liquid); method: Flow calorimetry
Temperature, K	Initial molality of solute, mol/kg	Final molality of solute, mol/kg	Molar enthalpy of dilution, kJ/mol	uncertainty
293.15	0.58253	0.08868	-0.0415	0.0042
293.15	0.72546	0.10968	-0.0543	0.0044
293.15	0.82259	0.12379	-0.0607	0.0045
293.15	0.86966	0.13058	-0.063	0.0045
293.15	0.96554	0.14431	-0.0729	0.0045
293.15	1.14971	0.17033	-0.0861	0.005
293.15	1.50053	0.21863	-0.1141	0.0054
293.15	1.78354	0.2564	-0.1391	0.0056
298.15	0.61087	0.08441	-0.0658	0.0044
298.15	0.65655	0.09052	-0.0726	0.0045
298.15	0.79708	0.10914	-0.09901	0.00467
298.15	0.91123	0.12407	-0.1061	0.0049
298.15	1.00974	0.13683	-0.1181	0.0053
298.15	1.19511	0.16049	-0.1554	0.0053
298.15	1.5375	0.20307	-0.2005	0.0057
298.15	1.80091	0.23486	-0.2276	0.0064
303.15	0.57641	0.08395	-0.0987	0.0046
303.15	0.6685	0.09693	-0.1128	0.0047
303.15	0.8094	0.11655	-0.1487	0.0047
303.15	0.88801	0.12738	-0.1731	0.005
303.15	0.984	0.14049	-0.1928	0.005
303.15	1.15146	0.16306	-0.2196	0.0053
303.15	1.45912	0.20355	-0.2797	0.0056
303.15	1.82365	0.24992	-0.3416	0.0066
308.15	0.61166	0.08572	-0.1585	0.0049
308.15	0.68051	0.09505	-0.1748	0.005
308.15	0.77026	0.10711	-0.2001	0.0052
308.15	0.88279	0.12208	-0.2175	0.0049
308.15	1.02497	0.14075	-0.236	0.0049
308.15	1.20757	0.16435	-0.2884	0.0053
308.15	1.5328	0.2053	-0.365	0.0058
308.15	1.81342	0.23955	-0.444	0.007

System: 4-aminobutanoic acid + water; phases: Liquid
Fixed: Pressure, kPa = 101.325
Property: Molar enthalpy of dilution, kJ/mol (Liquid); method: Flow calorimetry
Temperature, K	Initial molality of solute, mol/kg	Final molality of solute, mol/kg	Molar enthalpy of dilution, kJ/mol	uncertainty
293.15	0.38069286	0.05825	-0.1614	0.0045
293.15	0.50042177	0.07602	-0.2023	0.0046
293.15	0.57800125	0.08739	-0.2318	0.0047
293.15	0.7034832	0.10556	-0.2796	0.0052
293.15	0.75998589	0.11365	-0.2828	0.0056
293.15	0.98575833	0.14543	-0.3794	0.0058
293.15	1.1678951	0.17043	-0.4345	0.0064
293.15	1.4838098	0.21247	-0.5738	0.0068
298.15	0.39446	0.05482	-0.1908	0.0045
298.15	0.49752	0.06871	-0.2122	0.0049
298.15	0.58293	0.08008	-0.2528	0.0051
298.15	0.69856	0.09529	-0.3249	0.0052
298.15	0.78606	0.10665	-0.3572	0.0056
298.15	1.00965	0.13513	-0.4487	0.0059
298.15	1.17351	0.1555	-0.5181	0.0063
298.15	1.51738	0.19691	-0.6572	0.0071
303.15	0.3199	0.047	-0.1769	0.0045
303.15	0.41286	0.06031	-0.1979	0.0046
303.15	0.48436	0.07045	-0.2689	0.0048
303.15	0.55148	0.07988	-0.2976	0.005
303.15	0.64492	0.09288	-0.3356	0.0051
303.15	0.80361	0.11462	-0.4098	0.0055
303.15	0.96189	0.13588	-0.4787	0.0061
303.15	1.48321	0.203	-0.7054	0.0074
308.15	0.3778	0.05332	-0.1928	0.0046
308.15	0.49219	0.06897	-0.2621	0.0048
308.15	0.5885	0.08198	-0.3247	0.005
308.15	0.69529	0.09622	-0.3559	0.0053
308.15	0.76191	0.10501	-0.4288	0.0061
308.15	0.93009	0.12687	-0.4849	0.0058
308.15	1.14774	0.15447	-0.6056	0.0067
308.15	1.63214	0.21322	-0.8495	0.0083

System: 5-aminovaleric acid + water; phases: Liquid
Fixed: Pressure, kPa = 101.325
Property: Molar enthalpy of dilution, kJ/mol (Liquid); method: Flow calorimetry
Temperature, K	Initial molality of solute, mol/kg	Final molality of solute, mol/kg	Molar enthalpy of dilution, kJ/mol	uncertainty
293.15	0.41197	0.06259	-0.3258	0.0053
293.15	0.48979	0.074	-0.4026	0.0056
293.15	0.60523	0.09069	-0.4702	0.0062
293.15	0.68399	0.10191	-0.5149	0.0938
293.15	0.76151	0.11284	-0.5894	0.0066
293.15	0.99077	0.14444	-0.7288	0.0158
293.15	1.22855	0.17614	-0.9085	0.0394
293.15	1.46134	0.20613	-1.0239	0.0098
298.15	0.38749	0.05361	-0.3469	0.0051
298.15	0.47859	0.06577	-0.4303	0.0055
298.15	0.56273	0.07686	-0.485	0.0061
298.15	0.65653	0.08906	-0.5634	0.0064
298.15	0.78174	0.10509	-0.6566	0.007
298.15	0.99198	0.13135	-0.8087	0.0077
298.15	1.16413	0.15227	-0.9389	0.0085
298.15	1.44598	0.18542	-1.1163	0.0097
303.15	0.40738	0.05922	-0.379	0.0053
303.15	0.474	0.06857	-0.4172	0.0057
303.15	0.58656	0.08416	-0.5475	0.0064
303.15	0.68318	0.09734	-0.6029	0.0066
303.15	0.83974	0.11831	-0.7352	0.0145
303.15	0.99177	0.13822	-0.8363	0.0078
303.15	1.20038	0.16484	-0.9978	0.0092
303.15	1.45074	0.19576	-1.1703	0.0102
308.15	0.40872	0.05727	-0.38	0.0052
308.15	0.49835	0.06937	-0.5188	0.0065
308.15	0.61765	0.08522	-0.6114	0.0067
308.15	0.69193	0.09496	-0.6521	0.0069
308.15	0.81893	0.11136	-0.7826	0.0079
308.15	0.96673	0.13007	-0.862	0.008
308.15	1.18652	0.15716	-1.0553	0.0095
308.15	1.46203	0.18993	-1.2472	0.0108

System: 6-aminohexanoic acid + water; phases: Liquid
Fixed: Pressure, kPa = 101.325
Property: Molar enthalpy of dilution, kJ/mol (Liquid); method: Flow calorimetry
Temperature, K	Initial molality of solute, mol/kg	Final molality of solute, mol/kg	Molar enthalpy of dilution, kJ/mol	uncertainty
293.15	0.4109	0.06211	-0.496	0.0063
293.15	0.5108	0.07657	-0.5651	0.0072
293.15	0.58884	0.08769	-0.6671	0.0077
293.15	0.70827	0.10444	-0.7923	0.008
293.15	0.77906	0.11421	-0.8609	0.0083
293.15	0.99105	0.14281	-1.0482	0.0092
293.15	1.20948	0.17127	-1.2521	0.0111
293.15	1.5873	0.21822	-1.6115	0.0134
298.15	0.40889	0.05619	-0.5577	0.0061
298.15	0.48618	0.06637	-0.6166	0.0065
298.15	0.58311	0.07895	-0.7501	0.0073
298.15	0.70176	0.09406	-0.8552	0.0079
298.15	0.79098	0.10523	-0.9391	0.0084
298.15	0.99067	0.12962	-1.1445	0.0131
298.15	1.19398	0.15364	-1.3273	0.0111
298.15	1.4964	0.1879	-1.7073	0.0146
303.15	0.37542	0.05444	-0.5076	0.0059
303.15	0.52432	0.07508	-0.6612	0.0068
303.15	0.62861	0.08923	-0.7637	0.0075
303.15	0.68356	0.09658	-0.8341	0.0078
303.15	0.79868	0.11176	-0.9462	0.0085
303.15	1.00338	0.13805	-1.1583	0.0098
303.15	1.15567	0.15703	-1.2968	0.0108
303.15	1.55741	0.20488	-1.6831	0.0142
308.15	0.39361	0.05494	-0.5587	0.0062
308.15	0.53725	0.07407	-0.7367	0.0076
308.15	0.61927	0.08478	-0.7927	0.0076
308.15	0.72079	0.09784	-0.9297	0.0087
308.15	0.77378	0.10456	-0.9735	0.0088
308.15	0.93155	0.12423	-1.1501	0.0101
308.15	1.22906	0.15992	-1.4254	0.0118
308.15	1.47898	0.18856	-1.6749	0.014
