Measured thermophysical data. Densities, ultrasonic speeds, viscosities and excess properties of binary mixtures  of methyl methacrylate with N,N-dimethylformamide and N,N-dimethylacetamide  at different temperatures
Source: J. Chem. Thermodyn., 2013, 10.1016/j.jct.2013.01.013
Compound 1: methyl methacrylate, C5H8O2, InChI=1S/C5H8O2/c1-4(2)5(6)7-3/h1H2,2-3H3, purity 99%
Compound 2: dimethylformamide, C3H7NO, InChI=1S/C3H7NO/c1-4(2)3-5/h3H,1-2H3, purity 99%
Compound 3: N,N-dimethylethanamide, C4H9NO, InChI=1S/C4H9NO/c1-4(6)5(2)3/h1-3H3, purity 99%

System: methyl methacrylate; phases: Liquid
Fixed: Pressure, kPa = 101
Property: Mass density, kg/m3 (Liquid); method: Pycnometric method
Temperature, K	Mass density, kg/m3	uncertainty
288.15	949.1	0.26
293.15	943.37	0.25
298.15	937.63	0.25
303.15	931.89	0.26
308.15	926.15	0.27
313.15	920.41	0.28
318.15	914.66	0.29

System: methyl methacrylate; phases: Liquid
Fixed: Pressure, kPa = 101
Property: Speed of sound, m/s (Liquid); method: Linear variable-path acoustic interferometer
Temperature, K	Speed of sound, m/s	uncertainty
288.15	1216.8	1.4
293.15	1200.5	1.4
298.15	1183.6	1.4
303.15	1168.5	1.4
308.15	1152.6	1.3
313.15	1135.4	1.3
318.15	1118.3	1.3

System: methyl methacrylate; phases: Liquid
Fixed: Pressure, kPa = 101
Property: Viscosity, Pa*s (Liquid); method: Capillary tube (Ostwald; Ubbelohde) method
Temperature, K	Viscosity, Pa*s	uncertainty
288.15	0.000634	5.6e-06
293.15	0.0005903	5.3e-06
298.15	0.0005544	5e-06
303.15	0.0005251	4.8e-06
308.15	0.000496	4.6e-06
313.15	0.0004723	4.4e-06
318.15	0.0004499	4.2e-06

System: dimethylformamide; phases: Liquid
Fixed: Pressure, kPa = 101
Property: Mass density, kg/m3 (Liquid); method: Pycnometric method
Temperature, K	Mass density, kg/m3	uncertainty
288.15	953.61	0.29
293.15	949.1	0.28
298.15	944.6	0.29
303.15	940.1	0.3
308.15	935.6	0.31
313.15	931.1	0.32
318.15	926.6	0.33

System: dimethylformamide; phases: Liquid
Fixed: Pressure, kPa = 101
Property: Speed of sound, m/s (Liquid); method: Linear variable-path acoustic interferometer
Temperature, K	Speed of sound, m/s	uncertainty
288.15	1503.3	1.7
293.15	1485.8	1.7
298.15	1469.5	1.6
303.15	1448.8	1.6
308.15	1429.1	1.6
313.15	1411.5	1.6
318.15	1392.6	1.6

System: dimethylformamide; phases: Liquid
Fixed: Pressure, kPa = 101
Property: Viscosity, Pa*s (Liquid); method: Capillary tube (Ostwald; Ubbelohde) method
Temperature, K	Viscosity, Pa*s	uncertainty
288.15	0.0009452	8.1e-06
293.15	0.0008685	7.5e-06
298.15	0.0008123	7.1e-06
303.15	0.0007647	6.7e-06
308.15	0.0007189	6.4e-06
313.15	0.0006851	6.1e-06
318.15	0.0006642	6e-06

System: N,N-dimethylethanamide; phases: Liquid
Fixed: Pressure, kPa = 101
Property: Mass density, kg/m3 (Liquid); method: Pycnometric method
Temperature, K	Mass density, kg/m3	uncertainty
288.15	945.5	0.27
293.15	941	0.26
298.15	936.5	0.27
303.15	932	0.28
308.15	927.5	0.29
313.15	923	0.3
318.15	918.5	0.31

System: N,N-dimethylethanamide; phases: Liquid
Fixed: Pressure, kPa = 101
Property: Speed of sound, m/s (Liquid); method: Linear variable-path acoustic interferometer
Temperature, K	Speed of sound, m/s	uncertainty
288.15	1500.2	1.6
293.15	1482.6	1.6
298.15	1462.1	1.6
303.15	1441.8	1.6
308.15	1420.7	1.6
313.15	1402.6	1.6
318.15	1383.5	1.5

System: N,N-dimethylethanamide; phases: Liquid
Fixed: Pressure, kPa = 101
Property: Viscosity, Pa*s (Liquid); method: Capillary tube (Ostwald; Ubbelohde) method
Temperature, K	Viscosity, Pa*s	uncertainty
288.15	0.00115	9.5e-06
293.15	0.0010379	8.6e-06
298.15	0.0009443	7.9e-06
303.15	0.0008792	7.5e-06
308.15	0.0008179	7e-06
313.15	0.0007696	6.7e-06
318.15	0.0007346	6.4e-06

System: dimethylformamide + methyl methacrylate; phases: Liquid
Fixed: Pressure, kPa = 101
Property: Mass density, kg/m3 (Liquid); method: Pycnometric method
Temperature, K	Mole fraction of methyl methacrylate	Mass density, kg/m3	uncertainty
288.15	0	953.61	0.29
288.15	0.0696	953.35	0.29
288.15	0.1417	953.07	0.29
288.15	0.211	952.8	0.29
288.15	0.2855	952.5	0.28
288.15	0.3573	952.22	0.28
288.15	0.4308	951.91	0.28
288.15	0.5042	951.58	0.27
288.15	0.578	951.23	0.27
288.15	0.6552	950.86	0.27
288.15	0.7204	950.53	0.27
288.15	0.7873	950.19	0.26
288.15	0.8548	949.84	0.26
288.15	0.9268	949.47	0.26
288.15	1	949.1	0.26
293.15	0	949.1	0.28
293.15	0.0696	948.76	0.28
293.15	0.1417	948.39	0.28
293.15	0.211	948.03	0.27
293.15	0.2855	947.64	0.27
293.15	0.3573	947.25	0.27
293.15	0.4308	946.85	0.26
293.15	0.5042	946.43	0.26
293.15	0.578	946	0.26
293.15	0.6552	945.53	0.26
293.15	0.7204	945.13	0.25
293.15	0.7873	944.72	0.25
293.15	0.8548	944.29	0.25
293.15	0.9268	943.83	0.25
293.15	1	943.37	0.25
298.15	0	944.6	0.29
298.15	0.0696	944.17	0.29
298.15	0.1417	943.71	0.29
298.15	0.211	943.26	0.28
298.15	0.2855	942.77	0.28
298.15	0.3573	942.29	0.28
298.15	0.4308	941.79	0.27
298.15	0.5042	941.28	0.27
298.15	0.578	940.76	0.27
298.15	0.6552	940.21	0.27
298.15	0.7204	939.73	0.26
298.15	0.7873	939.24	0.26
298.15	0.8548	938.74	0.26
298.15	0.9268	938.19	0.26
298.15	1	937.63	0.25
303.15	0	940.1	0.3
303.15	0.0696	939.58	0.3
303.15	0.1417	939.03	0.29
303.15	0.211	938.49	0.29
303.15	0.2855	937.9	0.29
303.15	0.3573	937.33	0.29
303.15	0.4308	936.73	0.28
303.15	0.5042	936.13	0.28
303.15	0.578	935.52	0.28
303.15	0.6552	934.88	0.28
303.15	0.7204	934.33	0.27
303.15	0.7873	933.76	0.27
303.15	0.8548	933.19	0.27
303.15	0.9268	932.55	0.27
303.15	1	931.89	0.26
308.15	0	935.6	0.31
308.15	0.0696	934.99	0.31
308.15	0.1417	934.35	0.3
308.15	0.211	933.72	0.3
308.15	0.2855	933.03	0.3
308.15	0.3573	932.36	0.3
308.15	0.4308	931.67	0.29
308.15	0.5042	930.98	0.29
308.15	0.578	930.28	0.29
308.15	0.6552	929.55	0.28
308.15	0.7204	928.93	0.28
308.15	0.7873	928.28	0.28
308.15	0.8548	927.63	0.28
308.15	0.9268	926.91	0.28
308.15	1	926.15	0.27
313.15	0	931.1	0.32
313.15	0.0696	930.4	0.32
313.15	0.1417	929.67	0.31
313.15	0.211	928.95	0.31
313.15	0.2855	928.16	0.31
313.15	0.3573	927.4	0.31
313.15	0.4308	926.61	0.3
313.15	0.5042	925.83	0.3
313.15	0.578	925.04	0.3
313.15	0.6552	924.22	0.29
313.15	0.7204	923.53	0.29
313.15	0.7873	922.81	0.29
313.15	0.8548	922.07	0.29
313.15	0.9268	921.26	0.29
313.15	1	920.41	0.28
318.15	0	926.6	0.33
318.15	0.0696	925.81	0.33
318.15	0.1417	924.99	0.32
318.15	0.211	924.18	0.32
318.15	0.2855	923.29	0.32
318.15	0.3573	922.44	0.31
318.15	0.4308	921.55	0.31
318.15	0.5042	920.68	0.31
318.15	0.578	919.8	0.31
318.15	0.6552	918.89	0.3
318.15	0.7204	918.12	0.3
318.15	0.7873	917.33	0.3
318.15	0.8548	916.51	0.3
318.15	0.9268	915.61	0.29
318.15	1	914.66	0.29

System: dimethylformamide + methyl methacrylate; phases: Liquid
Fixed: Pressure, kPa = 101
Property: Speed of sound, m/s (Liquid); method: Linear variable-path acoustic interferometer
Temperature, K	Mole fraction of methyl methacrylate	Speed of sound, m/s	uncertainty
288.15	0	1503.3	1.7
288.15	0.0696	1484.1	1.6
288.15	0.1417	1464.4	1.6
288.15	0.211	1445.5	1.6
288.15	0.2855	1425.2	1.6
288.15	0.3573	1405.4	1.6
288.15	0.4308	1384.8	1.6
288.15	0.5042	1363.9	1.5
288.15	0.578	1342.6	1.5
288.15	0.6552	1320	1.5
288.15	0.7204	1300.7	1.5
288.15	0.7873	1280.7	1.5
288.15	0.8548	1260.4	1.4
288.15	0.9268	1238.7	1.4
288.15	1	1216.8	1.4
293.15	0	1485.8	1.7
293.15	0.0696	1466.8	1.6
293.15	0.1417	1447.2	1.6
293.15	0.211	1428.4	1.6
293.15	0.2855	1408.2	1.6
293.15	0.3573	1388.5	1.6
293.15	0.4308	1368	1.5
293.15	0.5042	1347.2	1.5
293.15	0.578	1326	1.5
293.15	0.6552	1303.5	1.5
293.15	0.7204	1284.3	1.5
293.15	0.7873	1264.4	1.4
293.15	0.8548	1244.1	1.4
293.15	0.9268	1222.5	1.4
293.15	1	1200.5	1.4
298.15	0	1469.5	1.6
298.15	0.0696	1450	1.6
298.15	0.1417	1430.6	1.6
298.15	0.211	1411.8	1.6
298.15	0.2855	1391.5	1.6
298.15	0.3573	1371.8	1.5
298.15	0.4308	1351.3	1.5
298.15	0.5042	1330.4	1.5
298.15	0.578	1309.2	1.5
298.15	0.6552	1286.7	1.5
298.15	0.7204	1267.4	1.4
298.15	0.7873	1247.4	1.4
298.15	0.8548	1227.1	1.4
298.15	0.9268	1205.3	1.4
298.15	1	1183.6	1.4
303.15	0	1448.8	1.6
303.15	0.0696	1430.3	1.6
303.15	0.1417	1411.3	1.6
303.15	0.211	1393	1.6
303.15	0.2855	1373.1	1.6
303.15	0.3573	1353.7	1.5
303.15	0.4308	1333.6	1.5
303.15	0.5042	1313.1	1.5
303.15	0.578	1292.3	1.5
303.15	0.6552	1270.3	1.5
303.15	0.7204	1251.4	1.4
303.15	0.7873	1231.8	1.4
303.15	0.8548	1211.8	1.4
303.15	0.9268	1190.4	1.4
303.15	1	1168.5	1.4
308.15	0	1429.1	1.6
308.15	0.0696	1411	1.6
308.15	0.1417	1392.3	1.6
308.15	0.211	1374.3	1.6
308.15	0.2855	1354.7	1.5
308.15	0.3573	1335.6	1.5
308.15	0.4308	1315.7	1.5
308.15	0.5042	1295.5	1.5
308.15	0.578	1275	1.5
308.15	0.6552	1253.3	1.4
308.15	0.7204	1234.7	1.4
308.15	0.7873	1215.4	1.4
308.15	0.8548	1195.7	1.4
308.15	0.9268	1174.4	1.4
308.15	1	1152.6	1.3
313.15	0	1411.5	1.6
313.15	0.0696	1393.7	1.6
313.15	0.1417	1375.1	1.6
313.15	0.211	1357.1	1.5
313.15	0.2855	1337.5	1.5
313.15	0.3573	1318.4	1.5
313.15	0.4308	1298.4	1.5
313.15	0.5042	1278.3	1.5
313.15	0.578	1257.9	1.4
313.15	0.6552	1236.2	1.4
313.15	0.7204	1217.7	1.4
313.15	0.7873	1198.4	1.4
313.15	0.8548	1178.7	1.4
313.15	0.9268	1157.4	1.4
313.15	1	1135.4	1.3
318.15	0	1392.6	1.6
318.15	0.0696	1375.2	1.6
318.15	0.1417	1356.8	1.6
318.15	0.211	1338.9	1.5
318.15	0.2855	1319.4	1.5
318.15	0.3573	1300.3	1.5
318.15	0.4308	1280.5	1.5
318.15	0.5042	1260.5	1.5
318.15	0.578	1240.2	1.4
318.15	0.6552	1218.7	1.4
318.15	0.7204	1200.3	1.4
318.15	0.7873	1181.2	1.4
318.15	0.8548	1161.6	1.4
318.15	0.9268	1140.4	1.3
318.15	1	1118.3	1.3

System: dimethylformamide + methyl methacrylate; phases: Liquid
Fixed: Pressure, kPa = 101
Property: Viscosity, Pa*s (Liquid); method: Capillary tube (Ostwald; Ubbelohde) method
Temperature, K	Mole fraction of methyl methacrylate	Viscosity, Pa*s	uncertainty
288.15	0	0.0009452	8.1e-06
288.15	0.0696	0.000905	7.8e-06
288.15	0.1417	0.000868	7.5e-06
288.15	0.211	0.0008355	7.2e-06
288.15	0.2855	0.0008041	7e-06
288.15	0.3573	0.0007765	6.7e-06
288.15	0.4308	0.0007513	6.5e-06
288.15	0.5042	0.000729	6.4e-06
288.15	0.578	0.0007083	6.2e-06
288.15	0.6552	0.0006885	6e-06
288.15	0.7204	0.0006742	5.9e-06
288.15	0.7873	0.0006612	5.8e-06
288.15	0.8548	0.0006505	5.7e-06
288.15	0.9268	0.0006417	5.6e-06
288.15	1	0.000634	5.6e-06
293.15	0	0.0008685	7.5e-06
293.15	0.0696	0.000834	7.2e-06
293.15	0.1417	0.0008009	7e-06
293.15	0.211	0.0007713	6.7e-06
293.15	0.2855	0.000742	6.5e-06
293.15	0.3573	0.000717	6.3e-06
293.15	0.4308	0.0006941	6.1e-06
293.15	0.5042	0.0006736	5.9e-06
293.15	0.578	0.0006552	5.8e-06
293.15	0.6552	0.0006382	5.7e-06
293.15	0.7204	0.0006261	5.6e-06
293.15	0.7873	0.0006149	5.5e-06
293.15	0.8548	0.0006055	5.4e-06
293.15	0.9268	0.000598	5.3e-06
293.15	1	0.0005903	5.3e-06
298.15	0	0.0008123	7.1e-06
298.15	0.0696	0.0007818	6.8e-06
298.15	0.1417	0.0007509	6.6e-06
298.15	0.211	0.0007233	6.4e-06
298.15	0.2855	0.0006958	6.2e-06
298.15	0.3573	0.000672	6e-06
298.15	0.4308	0.000651	5.8e-06
298.15	0.5042	0.000632	5.6e-06
298.15	0.578	0.0006151	5.5e-06
298.15	0.6552	0.0006	5.4e-06
298.15	0.7204	0.0005885	5.3e-06
298.15	0.7873	0.0005786	5.2e-06
298.15	0.8548	0.00057	5.1e-06
298.15	0.9268	0.0005625	5.1e-06
298.15	1	0.0005544	5e-06
303.15	0	0.0007647	6.7e-06
303.15	0.0696	0.000737	6.5e-06
303.15	0.1417	0.0007088	6.3e-06
303.15	0.211	0.000683	6.1e-06
303.15	0.2855	0.0006568	5.9e-06
303.15	0.3573	0.0006346	5.7e-06
303.15	0.4308	0.0006148	5.5e-06
303.15	0.5042	0.0005972	5.4e-06
303.15	0.578	0.0005817	5.3e-06
303.15	0.6552	0.0005675	5.1e-06
303.15	0.7204	0.0005575	5.1e-06
303.15	0.7873	0.0005486	5e-06
303.15	0.8548	0.0005408	4.9e-06
303.15	0.9268	0.0005331	4.8e-06
303.15	1	0.0005251	4.8e-06
308.15	0	0.0007189	6.4e-06
308.15	0.0696	0.000694	6.2e-06
308.15	0.1417	0.0006678	6e-06
308.15	0.211	0.0006435	5.8e-06
308.15	0.2855	0.0006191	5.6e-06
308.15	0.3573	0.0005978	5.4e-06
308.15	0.4308	0.0005793	5.3e-06
308.15	0.5042	0.000563	5.1e-06
308.15	0.578	0.0005488	5e-06
308.15	0.6552	0.0005358	4.9e-06
308.15	0.7204	0.0005268	4.8e-06
308.15	0.7873	0.0005188	4.8e-06
308.15	0.8548	0.0005113	4.7e-06
308.15	0.9268	0.0005038	4.6e-06
308.15	1	0.000496	4.6e-06
313.15	0	0.0006851	6.1e-06
313.15	0.0696	0.000662	5.9e-06
313.15	0.1417	0.0006373	5.7e-06
313.15	0.211	0.0006142	5.6e-06
313.15	0.2855	0.0005913	5.4e-06
313.15	0.3573	0.0005713	5.2e-06
313.15	0.4308	0.0005529	5.1e-06
313.15	0.5042	0.0005375	4.9e-06
313.15	0.578	0.0005237	4.8e-06
313.15	0.6552	0.0005115	4.7e-06
313.15	0.7204	0.000503	4.7e-06
313.15	0.7873	0.0004951	4.6e-06
313.15	0.8548	0.0004875	4.5e-06
313.15	0.9268	0.0004796	4.5e-06
313.15	1	0.0004723	4.4e-06
318.15	0	0.0006642	6e-06
318.15	0.0696	0.0006419	5.8e-06
318.15	0.1417	0.0006179	5.6e-06
318.15	0.211	0.0005953	5.4e-06
318.15	0.2855	0.0005728	5.2e-06
318.15	0.3573	0.000553	5.1e-06
318.15	0.4308	0.0005345	4.9e-06
318.15	0.5042	0.0005185	4.8e-06
318.15	0.578	0.0005045	4.7e-06
318.15	0.6552	0.0004925	4.6e-06
318.15	0.7204	0.0004837	4.5e-06
318.15	0.7873	0.000475	4.4e-06
318.15	0.8548	0.000467	4.4e-06
318.15	0.9268	0.0004583	4.3e-06
318.15	1	0.0004499	4.2e-06

System: methyl methacrylate + N,N-dimethylethanamide; phases: Liquid
Fixed: Pressure, kPa = 101
Property: Mass density, kg/m3 (Liquid); method: Pycnometric method
Temperature, K	Mole fraction of methyl methacrylate	Mass density, kg/m3	uncertainty
288.15	0	945.5	0.27
288.15	0.0714	946.01	0.27
288.15	0.144	946.49	0.27
288.15	0.2125	946.92	0.27
288.15	0.2823	947.31	0.27
288.15	0.3568	947.69	0.27
288.15	0.4318	948.02	0.27
288.15	0.5046	948.31	0.26
288.15	0.5769	948.54	0.26
288.15	0.6512	948.73	0.26
288.15	0.7205	948.88	0.26
288.15	0.7845	948.97	0.26
288.15	0.8558	949.03	0.26
288.15	0.9281	949.07	0.26
288.15	1	949.1	0.26
293.15	0	941	0.26
293.15	0.0714	941.45	0.26
293.15	0.144	941.87	0.26
293.15	0.2125	942.23	0.26
293.15	0.2823	942.55	0.26
293.15	0.3568	942.84	0.25
293.15	0.4318	943.08	0.25
293.15	0.5046	943.28	0.25
293.15	0.5769	943.43	0.25
293.15	0.6512	943.52	0.25
293.15	0.7205	943.58	0.25
293.15	0.7845	943.59	0.25
293.15	0.8558	943.54	0.25
293.15	0.9281	943.46	0.25
293.15	1	943.37	0.25
298.15	0	936.5	0.27
298.15	0.0714	936.89	0.27
298.15	0.144	937.25	0.27
298.15	0.2125	937.54	0.27
298.15	0.2823	937.79	0.26
298.15	0.3568	937.99	0.26
298.15	0.4318	938.14	0.26
298.15	0.5046	938.25	0.26
298.15	0.5769	938.31	0.26
298.15	0.6512	938.31	0.26
298.15	0.7205	938.28	0.26
298.15	0.7845	938.21	0.26
298.15	0.8558	938.05	0.26
298.15	0.9281	937.85	0.26
298.15	1	937.63	0.25
303.15	0	932	0.28
303.15	0.0714	932.33	0.28
303.15	0.144	932.63	0.28
303.15	0.2125	932.85	0.28
303.15	0.2823	933.03	0.27
303.15	0.3568	933.14	0.27
303.15	0.4318	933.2	0.27
303.15	0.5046	933.22	0.27
303.15	0.5769	933.19	0.27
303.15	0.6512	933.1	0.27
303.15	0.7205	932.98	0.27
303.15	0.7845	932.82	0.27
303.15	0.8558	932.56	0.27
303.15	0.9281	932.24	0.27
303.15	1	931.89	0.26
308.15	0	927.5	0.29
308.15	0.0714	927.77	0.29
308.15	0.144	928.01	0.29
308.15	0.2125	928.16	0.29
308.15	0.2823	928.26	0.28
308.15	0.3568	928.29	0.28
308.15	0.4318	928.26	0.28
308.15	0.5046	928.19	0.28
308.15	0.5769	928.07	0.28
308.15	0.6512	927.89	0.28
308.15	0.7205	927.68	0.28
308.15	0.7845	927.43	0.28
308.15	0.8558	927.07	0.28
308.15	0.9281	926.63	0.27
308.15	1	926.15	0.27
313.15	0	923	0.3
313.15	0.0714	923.21	0.3
313.15	0.144	923.38	0.3
313.15	0.2125	923.46	0.29
313.15	0.2823	923.49	0.29
313.15	0.3568	923.44	0.29
313.15	0.4318	923.32	0.29
313.15	0.5046	923.16	0.29
313.15	0.5769	922.95	0.29
313.15	0.6512	922.68	0.29
313.15	0.7205	922.38	0.29
313.15	0.7845	922.04	0.29
313.15	0.8558	921.57	0.29
313.15	0.9281	921.01	0.28
313.15	1	920.41	0.28
318.15	0	918.5	0.31
318.15	0.0714	918.65	0.31
318.15	0.144	918.75	0.31
318.15	0.2125	918.76	0.3
318.15	0.2823	918.72	0.3
318.15	0.3568	918.59	0.3
318.15	0.4318	918.38	0.3
318.15	0.5046	918.13	0.3
318.15	0.5769	917.83	0.3
318.15	0.6512	917.47	0.3
318.15	0.7205	917.08	0.3
318.15	0.7845	916.65	0.3
318.15	0.8558	916.07	0.29
318.15	0.9281	915.39	0.29
318.15	1	914.66	0.29

System: methyl methacrylate + N,N-dimethylethanamide; phases: Liquid
Fixed: Pressure, kPa = 101
Property: Speed of sound, m/s (Liquid); method: Linear variable-path acoustic interferometer
Temperature, K	Mole fraction of methyl methacrylate	Speed of sound, m/s	uncertainty
288.15	0	1500.2	1.6
288.15	0.0714	1484.2	1.6
288.15	0.144	1468.6	1.6
288.15	0.2125	1452.9	1.6
288.15	0.2823	1435.8	1.6
288.15	0.3568	1416.2	1.6
288.15	0.4318	1394.9	1.5
288.15	0.5046	1372.8	1.5
288.15	0.5769	1349.9	1.5
288.15	0.6512	1325.5	1.5
288.15	0.7205	1302.7	1.5
288.15	0.7845	1282.2	1.4
288.15	0.8558	1259.7	1.4
288.15	0.9281	1237.5	1.4
288.15	1	1216.8	1.4
293.15	0	1482.6	1.6
293.15	0.0714	1467.3	1.6
293.15	0.144	1452.1	1.6
293.15	0.2125	1436.6	1.6
293.15	0.2823	1419.2	1.6
293.15	0.3568	1399.5	1.5
293.15	0.4318	1378.3	1.5
293.15	0.5046	1356.3	1.5
293.15	0.5769	1333.1	1.5
293.15	0.6512	1308.9	1.5
293.15	0.7205	1286.3	1.5
293.15	0.7845	1266	1.4
293.15	0.8558	1243.5	1.4
293.15	0.9281	1221.3	1.4
293.15	1	1200.5	1.4
298.15	0	1462.1	1.6
298.15	0.0714	1448.2	1.6
298.15	0.144	1433.9	1.6
298.15	0.2125	1418.5	1.6
298.15	0.2823	1400.8	1.5
298.15	0.3568	1381	1.5
298.15	0.4318	1359.8	1.5
298.15	0.5046	1338	1.5
298.15	0.5769	1315.4	1.5
298.15	0.6512	1291.5	1.5
298.15	0.7205	1269.3	1.4
298.15	0.7845	1248.9	1.4
298.15	0.8558	1226.9	1.4
298.15	0.9281	1204.6	1.4
298.15	1	1183.6	1.4
303.15	0	1441.8	1.6
303.15	0.0714	1429.5	1.6
303.15	0.144	1415.5	1.6
303.15	0.2125	1400.7	1.6
303.15	0.2823	1383.5	1.5
303.15	0.3568	1363.9	1.5
303.15	0.4318	1342.9	1.5
303.15	0.5046	1321.2	1.5
303.15	0.5769	1298.9	1.5
303.15	0.6512	1275.4	1.4
303.15	0.7205	1253.7	1.4
303.15	0.7845	1233.8	1.4
303.15	0.8558	1211.8	1.4
303.15	0.9281	1189.9	1.4
303.15	1	1168.5	1.4
308.15	0	1420.7	1.6
308.15	0.0714	1409.8	1.6
308.15	0.144	1396.4	1.6
308.15	0.2125	1382.1	1.5
308.15	0.2823	1365.2	1.5
308.15	0.3568	1345.7	1.5
308.15	0.4318	1324.8	1.5
308.15	0.5046	1303.4	1.5
308.15	0.5769	1281.5	1.5
308.15	0.6512	1258.5	1.4
308.15	0.7205	1237.5	1.4
308.15	0.7845	1217.7	1.4
308.15	0.8558	1196.1	1.4
308.15	0.9281	1174.2	1.4
308.15	1	1152.6	1.3
313.15	0	1402.6	1.6
313.15	0.0714	1392.2	1.5
313.15	0.144	1379.6	1.5
313.15	0.2125	1365.5	1.5
313.15	0.2823	1348.6	1.5
313.15	0.3568	1328.3	1.5
313.15	0.4318	1306.9	1.5
313.15	0.5046	1285.6	1.5
313.15	0.5769	1263.9	1.4
313.15	0.6512	1241.1	1.4
313.15	0.7205	1220.1	1.4
313.15	0.7845	1200.9	1.4
313.15	0.8558	1179	1.4
313.15	0.9281	1157.2	1.4
313.15	1	1135.4	1.3
318.15	0	1383.5	1.5
318.15	0.0714	1374.5	1.5
318.15	0.144	1362.8	1.5
318.15	0.2125	1348.2	1.5
318.15	0.2823	1330.9	1.5
318.15	0.3568	1310.1	1.5
318.15	0.4318	1288.6	1.5
318.15	0.5046	1267.2	1.4
318.15	0.5769	1245.9	1.4
318.15	0.6512	1223.7	1.4
318.15	0.7205	1202.8	1.4
318.15	0.7845	1184	1.4
318.15	0.8558	1162.4	1.4
318.15	0.9281	1140.2	1.3
318.15	1	1118.3	1.3

System: methyl methacrylate + N,N-dimethylethanamide; phases: Liquid
Fixed: Pressure, kPa = 101
Property: Viscosity, Pa*s (Liquid); method: Capillary tube (Ostwald; Ubbelohde) method
Temperature, K	Mole fraction of methyl methacrylate	Viscosity, Pa*s	uncertainty
288.15	0	0.00115	9.5e-06
288.15	0.0714	0.001103	9.1e-06
288.15	0.144	0.001057	8.7e-06
288.15	0.2125	0.0010157	8.4e-06
288.15	0.2823	0.0009751	8.1e-06
288.15	0.3568	0.0009339	7.8e-06
288.15	0.4318	0.0008939	7.5e-06
288.15	0.5046	0.000856	7.2e-06
288.15	0.5769	0.0008196	7e-06
288.15	0.6512	0.0007835	6.7e-06
288.15	0.7205	0.0007513	6.4e-06
288.15	0.7845	0.0007228	6.2e-06
288.15	0.8558	0.0006927	6e-06
288.15	0.9281	0.0006628	5.8e-06
288.15	1	0.000634	5.6e-06
293.15	0	0.0010379	8.6e-06
293.15	0.0714	0.0009972	8.3e-06
293.15	0.144	0.000957	8e-06
293.15	0.2125	0.0009207	7.7e-06
293.15	0.2823	0.0008852	7.5e-06
293.15	0.3568	0.0008487	7.2e-06
293.15	0.4318	0.0008137	6.9e-06
293.15	0.5046	0.0007808	6.7e-06
293.15	0.5769	0.0007494	6.4e-06
293.15	0.6512	0.0007183	6.2e-06
293.15	0.7205	0.000691	6e-06
293.15	0.7845	0.0006666	5.8e-06
293.15	0.8558	0.0006409	5.6e-06
293.15	0.9281	0.0006153	5.4e-06
293.15	1	0.0005903	5.3e-06
298.15	0	0.0009443	7.9e-06
298.15	0.0714	0.0009087	7.7e-06
298.15	0.144	0.0008736	7.4e-06
298.15	0.2125	0.0008414	7.2e-06
298.15	0.2823	0.0008102	6.9e-06
298.15	0.3568	0.0007782	6.7e-06
298.15	0.4318	0.0007473	6.4e-06
298.15	0.5046	0.0007186	6.2e-06
298.15	0.5769	0.0006915	6e-06
298.15	0.6512	0.000665	5.8e-06
298.15	0.7205	0.0006416	5.6e-06
298.15	0.7845	0.0006207	5.5e-06
298.15	0.8558	0.0005983	5.3e-06
298.15	0.9281	0.0005763	5.2e-06
298.15	1	0.0005544	5e-06
303.15	0	0.0008792	7.5e-06
303.15	0.0714	0.0008475	7.2e-06
303.15	0.144	0.0008152	7e-06
303.15	0.2125	0.0007858	6.7e-06
303.15	0.2823	0.0007573	6.5e-06
303.15	0.3568	0.0007278	6.3e-06
303.15	0.4318	0.0006995	6.1e-06
303.15	0.5046	0.0006733	5.9e-06
303.15	0.5769	0.000649	5.7e-06
303.15	0.6512	0.0006253	5.5e-06
303.15	0.7205	0.0006042	5.4e-06
303.15	0.7845	0.0005853	5.2e-06
303.15	0.8558	0.000565	5.1e-06
303.15	0.9281	0.000545	4.9e-06
303.15	1	0.0005251	4.8e-06
308.15	0	0.0008179	7e-06
308.15	0.0714	0.000789	6.8e-06
308.15	0.144	0.0007601	6.6e-06
308.15	0.2125	0.0007332	6.4e-06
308.15	0.2823	0.0007071	6.2e-06
308.15	0.3568	0.00068	6e-06
308.15	0.4318	0.000654	5.8e-06
308.15	0.5046	0.0006305	5.6e-06
308.15	0.5769	0.0006082	5.4e-06
308.15	0.6512	0.0005867	5.3e-06
308.15	0.7205	0.0005678	5.1e-06
308.15	0.7845	0.0005507	5e-06
308.15	0.8558	0.0005325	4.8e-06
308.15	0.9281	0.000514	4.7e-06
308.15	1	0.000496	4.6e-06
313.15	0	0.0007696	6.7e-06
313.15	0.0714	0.000743	6.4e-06
313.15	0.144	0.0007165	6.2e-06
313.15	0.2125	0.0006916	6.1e-06
313.15	0.2823	0.0006671	5.9e-06
313.15	0.3568	0.0006422	5.7e-06
313.15	0.4318	0.0006183	5.5e-06
313.15	0.5046	0.0005963	5.3e-06
313.15	0.5769	0.0005759	5.2e-06
313.15	0.6512	0.0005562	5e-06
313.15	0.7205	0.0005387	4.9e-06
313.15	0.7845	0.000523	4.8e-06
313.15	0.8558	0.000506	4.7e-06
313.15	0.9281	0.0004891	4.5e-06
313.15	1	0.0004723	4.4e-06
318.15	0	0.0007346	6.4e-06
318.15	0.0714	0.0007095	6.2e-06
318.15	0.144	0.0006842	6e-06
318.15	0.2125	0.0006607	5.8e-06
318.15	0.2823	0.0006374	5.7e-06
318.15	0.3568	0.0006135	5.5e-06
318.15	0.4318	0.0005905	5.3e-06
318.15	0.5046	0.0005693	5.1e-06
318.15	0.5769	0.0005497	5e-06
318.15	0.6512	0.0005307	4.8e-06
318.15	0.7205	0.0005141	4.7e-06
318.15	0.7845	0.0004991	4.6e-06
318.15	0.8558	0.0004828	4.5e-06
318.15	0.9281	0.0004662	4.4e-06
318.15	1	0.0004499	4.2e-06
