Measured thermophysical data. Excess Gibbs free energies of the binary mixtures of acetonitrile with butanols at 94.83 kPa
Source: J. Chem. Thermodyn., 2007, 10.1016/j.jct.2006.07.014
Compound 1: acetonitrile, C2H3N, InChI=1S/C2H3N/c1-2-3/h1H3
Compound 2: butan-1-ol, C4H10O, InChI=1S/C4H10O/c1-2-3-4-5/h5H,2-4H2,1H3
Compound 3: 2-methyl-1-propanol, C4H10O, InChI=1S/C4H10O/c1-4(2)3-5/h4-5H,3H2,1-2H3
Compound 4: butan-2-ol, C4H10O, InChI=1S/C4H10O/c1-3-4(2)5/h4-5H,3H2,1-2H3
Compound 5: 2-methylpropan-2-ol, C4H10O, InChI=1S/C4H10O/c1-4(2,3)5/h5H,1-3H3

System: acetonitrile; phases: Liquid
Property: Refractive index (Na D-line) (Liquid); method: Standard Abbe refractometry
Temperature, K	Pressure, kPa	Refractive index (Na D-line)	uncertainty
298.15	101.325	1.3416	0.0012

System: acetonitrile; phases: Liquid
Property: Mass density, kg/m3 (Liquid); method: Vibrating tube method
Temperature, K	Pressure, kPa	Mass density, kg/m3	uncertainty
298.15	101.325	776.5	4.3

System: acetonitrile; phases: Liquid, Gas
Property: Vapor or sublimation pressure, kPa (Liquid); method: EBULLIO:UFactor:16
Temperature, K	Vapor or sublimation pressure, kPa	uncertainty
352.25	94.83	5

System: butan-1-ol; phases: Liquid
Property: Refractive index (Na D-line) (Liquid); method: Standard Abbe refractometry
Temperature, K	Pressure, kPa	Refractive index (Na D-line)	uncertainty
298.15	101.325	1.3974	0.0012

System: butan-1-ol; phases: Liquid
Property: Mass density, kg/m3 (Liquid); method: Vibrating tube method
Temperature, K	Pressure, kPa	Mass density, kg/m3	uncertainty
298.15	101.325	805.8	4.6

System: butan-1-ol; phases: Liquid, Gas
Property: Vapor or sublimation pressure, kPa (Liquid); method: EBULLIO:UFactor:16
Temperature, K	Vapor or sublimation pressure, kPa	uncertainty
389.15	94.83	5

System: 2-methyl-1-propanol; phases: Liquid
Property: Refractive index (Na D-line) (Liquid); method: Standard Abbe refractometry
Temperature, K	Pressure, kPa	Refractive index (Na D-line)	uncertainty
298.15	101.325	1.3939	0.0012

System: 2-methyl-1-propanol; phases: Liquid
Property: Mass density, kg/m3 (Liquid); method: Vibrating tube method
Temperature, K	Pressure, kPa	Mass density, kg/m3	uncertainty
298.15	101.325	797.8	4.6

System: 2-methyl-1-propanol; phases: Liquid, Gas
Property: Vapor or sublimation pressure, kPa (Liquid); method: EBULLIO:UFactor:16
Temperature, K	Vapor or sublimation pressure, kPa	uncertainty
379.45	94.83	5

System: butan-2-ol; phases: Liquid
Property: Refractive index (Na D-line) (Liquid); method: Standard Abbe refractometry
Temperature, K	Pressure, kPa	Refractive index (Na D-line)	uncertainty
298.15	101.325	1.3953	0.0012

System: butan-2-ol; phases: Liquid
Property: Mass density, kg/m3 (Liquid); method: Vibrating tube method
Temperature, K	Pressure, kPa	Mass density, kg/m3	uncertainty
298.15	101.325	802.4	4.6

System: butan-2-ol; phases: Liquid, Gas
Property: Vapor or sublimation pressure, kPa (Liquid); method: EBULLIO:UFactor:16
Temperature, K	Vapor or sublimation pressure, kPa	uncertainty
371.05	94.83	5

System: 2-methylpropan-2-ol; phases: Liquid
Property: Refractive index (Na D-line) (Liquid); method: Standard Abbe refractometry
Temperature, K	Pressure, kPa	Refractive index (Na D-line)	uncertainty
298.15	101.325	1.3852	0.0012

System: 2-methylpropan-2-ol; phases: Liquid
Property: Mass density, kg/m3 (Liquid); method: Vibrating tube method
Temperature, K	Pressure, kPa	Mass density, kg/m3	uncertainty
298.15	101.325	781.2	4.4

System: 2-methylpropan-2-ol; phases: Liquid, Gas
Property: Vapor or sublimation pressure, kPa (Liquid); method: EBULLIO:UFactor:16
Temperature, K	Vapor or sublimation pressure, kPa	uncertainty
353.85	94.83	5

System: butan-1-ol + acetonitrile; phases: Liquid, Gas
Fixed: Pressure, kPa = 94.83
Property: Boiling temperature at pressure P, K (Liquid); method: EBULLIO:UFactor:16
Mole fraction of acetonitrile	Boiling temperature at pressure P, K	uncertainty
0	389.15	1.38
0.1798	380.65	1.39
0.3048	375.15	1.39
0.3968	371.35	1.39
0.523	366.65	1.39
0.6369	362.65	1.38
0.7005	360.65	1.38
0.7782	358.25	1.38
0.8753	355.55	1.38
0.9335	353.85	1.38
1	352.25	1.38

System: acetonitrile + 2-methyl-1-propanol; phases: Liquid, Gas
Fixed: Pressure, kPa = 94.83
Property: Boiling temperature at pressure P, K (Liquid); method: EBULLIO:UFactor:16
Mole fraction of acetonitrile	Boiling temperature at pressure P, K	uncertainty
0	379.45	1.38
0.1813	369.25	1.39
0.3117	366.25	1.38
0.3992	365.25	1.38
0.5255	361.65	1.38
0.6079	359.95	1.38
0.7392	357.35	1.38
0.8253	355.65	1.38
0.9341	353.55	1.38
1	352.25	1.38

System: acetonitrile + butan-2-ol; phases: Liquid, Gas
Fixed: Pressure, kPa = 94.83
Property: Boiling temperature at pressure P, K (Liquid); method: EBULLIO:UFactor:16
Mole fraction of acetonitrile	Boiling temperature at pressure P, K	uncertainty
0	371.05	1.38
0.1803	359.95	1.39
0.3051	359.15	1.38
0.3971	358.05	1.38
0.5233	356.75	1.38
0.6058	355.95	1.38
0.7375	354.65	1.38
0.8241	353.95	1.38
0.9336	352.85	1.38
1	352.25	1.38

System: acetonitrile + 2-methylpropan-2-ol; phases: Liquid, Gas
Fixed: Pressure, kPa = 94.83
Property: Boiling temperature at pressure P, K (Liquid); method: EBULLIO:UFactor:16
Mole fraction of acetonitrile	Boiling temperature at pressure P, K	uncertainty
0	353.85	1.38
0.1853	349.85	1.38
0.3126	348.55	1.38
0.4056	348.05	1.38
0.5321	347.75	1.38
0.6142	347.75	1.38
0.7443	348.25	1.38
0.8291	348.95	1.38
0.9357	350.65	1.38
1	352.25	1.38
