Measured thermophysical data. Temperature dependence of the surface tension and 0.1 MPa density for 1-Cn-3-methylimidazolium tris(pentafluoroethyl)trifluorophosphate with n = 2, 4, and 6
Source: J. Chem. Thermodyn., 2012, 10.1016/j.jct.2011.12.033
Compound 1: 1-hexyl-3-methylimidazolium tris(pentafluoroethyl)trifluorophosphate, C16H19F18N2P, InChI=1S/C10H19N2.C6F18P/c1-3-4-5-6-7-12-9-8-11(2)10-12;7-1(8,9)4(16,17)25(22,23,24,5(18,19)2(10,11)12)6(20,21)3(13,14)15/h8-10H,3-7H2,1-2H3;/q+1;-1
Compound 2: 1-ethyl-3-methylimidazolium tris(pentafluoroethyl)trifluorophosphate, C12H11F18N2P, InChI=1S/C6F18P.C6H11N2/c7-1(8,9)4(16,17)25(22,23,24,5(18,19)2(10,11)12)6(20,21)3(13,14)15;1-3-8-5-4-7(2)6-8/h;4-6H,3H2,1-2H3/q-1;+1
Compound 3: 1-butyl-3-methylimidazolium tris(pentafluoroethyl)trifluorophosphate, C14H15F18N2P, InChI=1S/C8H15N2.C6F18P/c1-3-4-5-10-7-6-9(2)8-10;7-1(8,9)4(16,17)25(22,23,24,5(18,19)2(10,11)12)6(20,21)3(13,14)15/h6-8H,3-5H2,1-2H3;/q+1;-1

System: 1-hexyl-3-methylimidazolium tris(pentafluoroethyl)trifluorophosphate; phases: Liquid, Air at 1 atmosphere
Property: Surface tension liquid-gas, N/m (Liquid); method: Wilhelmy plate method
Temperature, K	Surface tension liquid-gas, N/m	uncertainty
267.14	0.03344	0.00026
268.67	0.03337	0.00026
272.93	0.0331	0.00026
278.37	0.03279	0.00026
283.13	0.03254	0.00026
288.45	0.0323	0.00026
293.04	0.03201	0.00026
298.24	0.03181	0.00026
302.96	0.0315	0.00025
307.84	0.03128	0.00025
312.96	0.03105	0.00025
318.33	0.0307	0.00025
322.78	0.03035	0.00025
327.51	0.03007	0.00025
333.67	0.02969	0.00025
337.76	0.02947	0.00025
342.86	0.02914	0.00025
348.31	0.02884	0.00025
352.64	0.02857	0.00025
357.97	0.02821	0.00025
359.89	0.02807	0.00024

System: 1-hexyl-3-methylimidazolium tris(pentafluoroethyl)trifluorophosphate; phases: Liquid, Air at 1 atmosphere
Property: Surface tension liquid-gas, N/m (Liquid); method: Ring tensiometer
Temperature, K	Surface tension liquid-gas, N/m	uncertainty
267.03	0.03331	0.0005
268.69	0.03323	0.0005
272.86	0.03309	0.0005
278.32	0.03278	0.00049
283.22	0.03247	0.00049
288.54	0.03214	0.00049
293.13	0.03191	0.00048
298.35	0.0316	0.00048
303.01	0.03139	0.00048
307.9	0.03111	0.00047
312.99	0.03073	0.00047
318.55	0.0304	0.00047
323.16	0.02988	0.00046
327.67	0.02984	0.00046
333.66	0.02943	0.00046
337.8	0.02919	0.00045
342.94	0.02886	0.00045
348.3	0.02857	0.00045
352.89	0.02827	0.00044
358.07	0.02787	0.00044
360.23	0.02762	0.00044

System: 1-hexyl-3-methylimidazolium tris(pentafluoroethyl)trifluorophosphate; phases: Liquid
Fixed: Pressure, kPa = 101
Property: Mass density, kg/m3 (Liquid); method: Buoyancy - hydrostatic balance
Temperature, K	Mass density, kg/m3	uncertainty
267.25	1588.27	1
268.87	1585.1	0.96
273.13	1580.32	0.95
278.51	1573.79	0.95
283.29	1568.23	0.95
288.62	1561.69	0.94
293.96	1555.24	0.94
298.36	1550.06	0.94
303.01	1544.28	0.94
307.9	1538.57	0.93
313.05	1533.1	0.93
318.38	1527.4	0.93
322.78	1522.6	0.93
327.53	1517.29	0.93
333.62	1511.18	0.93
337.7	1506.11	0.93
342.78	1500.94	0.92
348.14	1495.07	0.92
352.54	1490.21	0.92
357.63	1484.8	0.92
359.73	1483.05	0.91

System: 1-ethyl-3-methylimidazolium tris(pentafluoroethyl)trifluorophosphate; phases: Liquid, Air at 1 atmosphere
Property: Surface tension liquid-gas, N/m (Liquid); method: Wilhelmy plate method
Temperature, K	Surface tension liquid-gas, N/m	uncertainty
272.63	0.03638	0.00027
279.65	0.03602	0.00027
283.24	0.03585	0.00027
288.24	0.03553	0.00027
293.11	0.0353	0.00027
298.17	0.03507	0.00027
303.04	0.0348	0.00027
307.95	0.03454	0.00026
313.07	0.03427	0.00026
318.06	0.03396	0.00026
323.03	0.03367	0.00026
328.47	0.03344	0.00026
332.2	0.03323	0.00026
337.63	0.03298	0.00026
342.92	0.03272	0.00026
347.61	0.03244	0.00026
353.94	0.03207	0.00026

System: 1-ethyl-3-methylimidazolium tris(pentafluoroethyl)trifluorophosphate; phases: Liquid, Air at 1 atmosphere
Property: Surface tension liquid-gas, N/m (Liquid); method: Ring tensiometer
Temperature, K	Surface tension liquid-gas, N/m	uncertainty
272.61	0.03649	0.00053
279.7	0.0361	0.00053
283.21	0.0359	0.00053
288.3	0.03561	0.00052
293.17	0.03537	0.00052
298.3	0.03511	0.00052
303.04	0.03484	0.00051
307.97	0.03452	0.00051
313.09	0.03423	0.00051
318.06	0.03386	0.0005
322.99	0.03342	0.0005
328.51	0.03329	0.0005
332.3	0.03304	0.00049
337.84	0.03272	0.00049
343.07	0.03243	0.00049
347.77	0.03189	0.00048
354.27	0.03174	0.00048

System: 1-ethyl-3-methylimidazolium tris(pentafluoroethyl)trifluorophosphate; phases: Liquid
Fixed: Pressure, kPa = 101
Property: Mass density, kg/m3 (Liquid); method: Buoyancy - hydrostatic balance
Temperature, K	Mass density, kg/m3	uncertainty
272.74	1741.45	1
279.66	1732.79	1
283.27	1728.25	1
288.24	1721.73	1
293.09	1715.67	0.99
298.16	1709.32	0.99
303	1702.84	0.98
307.97	1697.69	0.98
313.09	1691.45	0.98
318.01	1685.46	0.98
322.91	1679.6	0.98
328.34	1673.09	0.98
333.07	1667.22	0.97
337.37	1662.34	0.97
342.64	1656.07	0.97
347.29	1650.3	0.97
353.64	1643.05	0.96

System: 1-butyl-3-methylimidazolium tris(pentafluoroethyl)trifluorophosphate; phases: Liquid, Air at 1 atmosphere
Property: Surface tension liquid-gas, N/m (Liquid); method: Wilhelmy plate method
Temperature, K	Surface tension liquid-gas, N/m	uncertainty
279.09	0.03355	0.00026
283.18	0.03331	0.00026
288.28	0.0331	0.00026
293.16	0.03283	0.00026
298.15	0.03258	0.00026
302.75	0.03237	0.00026
307.96	0.03218	0.00026
313.27	0.03197	0.00026
318.01	0.03153	0.00026
322.7	0.03132	0.00025
327.98	0.03102	0.00025
333.41	0.03083	0.00025
338.33	0.03061	0.00025
343.27	0.03019	0.00025
348.22	0.03009	0.00025
354.56	0.0295	0.00025

System: 1-butyl-3-methylimidazolium tris(pentafluoroethyl)trifluorophosphate; phases: Liquid, Air at 1 atmosphere
Property: Surface tension liquid-gas, N/m (Liquid); method: Ring tensiometer
Temperature, K	Surface tension liquid-gas, N/m	uncertainty
279.12	0.03346	0.0005
283.33	0.03302	0.00049
288.35	0.03296	0.00049
293.26	0.03273	0.00049
298.33	0.03249	0.00049
302.98	0.03225	0.00049
308.07	0.03193	0.00048
313.37	0.03161	0.00048
318.18	0.03135	0.00048
322.84	0.03105	0.00047
327.99	0.03075	0.00047
333.42	0.03047	0.00047
338.35	0.03015	0.00046
343.35	0.02993	0.00046
348.45	0.02952	0.00046
354.54	0.02919	0.00045

System: 1-butyl-3-methylimidazolium tris(pentafluoroethyl)trifluorophosphate; phases: Liquid
Fixed: Pressure, kPa = 101
Property: Mass density, kg/m3 (Liquid); method: Buoyancy - hydrostatic balance
Temperature, K	Mass density, kg/m3	uncertainty
279.54	1648.66	0.98
283.39	1643.33	0.97
288.41	1637.27	0.97
293.3	1631.29	0.96
298.29	1625.89	0.97
302.94	1618.99	0.96
308.03	1613.78	0.95
313.32	1607.91	0.96
318.2	1601.66	0.95
322.75	1596.95	0.95
327.95	1591.03	0.95
333.34	1584.94	0.95
338.26	1579.76	0.94
343.26	1573.94	0.94
348.1	1568.93	0.94
354.33	1561.97	0.94
