Measured thermophysical data. Effect of temperature on the partial molar volumes, partial molar compressibility and viscosity B-coefficients of DL-4-aminobutyric acid in water and in aqueous sodium chloride solutions
Source: J. Chem. Thermodyn., 2017, 10.1016/j.jct.2017.07.037
Compound 1: 4-aminobutanoic acid, C4H9NO2, InChI=1S/C4H9NO2/c5-3-1-2-4(6)7/h1-3,5H2,(H,6,7), purity 99%
Compound 2: sodium chloride, ClNa, InChI=1S/ClH.Na/h1H;/q;+1/p-1, purity 99.5%
Compound 3: water, H2O, InChI=1S/H2O/h1H2, purity 99.8%

System: 4-aminobutanoic acid + sodium chloride + water; phases: Liquid
Fixed: Pressure, kPa = 75
Property: Mass density, kg/m3 (Liquid); method: Vibrating tube method
Temperature, K	Solvent: Molality, mol/kg of sodium chloride	Molality, mol/kg of 4-aminobutanoic acid	Mass density, kg/m3	uncertainty
293.15	0	0	998.204	0.313
293.15	0	0.10014	1001.249	0.313
293.15	0	0.30002	1007	0.314
293.15	0	0.50001	1012.45	0.315
293.15	0	0.7	1017.634	0.315
293.15	0	0.90112	1022.573	0.316
293.15	0	1	1024.9	0.316
298.15	0	0	997.051	0.313
298.15	0	0.10014	1000.068	0.313
298.15	0	0.30002	1005.77	0.314
298.15	0	0.50001	1011.105	0.314
298.15	0	0.7	1016.21	0.315
298.15	0	0.90112	1021.102	0.316
298.15	0	1	1023.401	0.316
303.15	0	0	995.651	0.313
303.15	0	0.10014	998.651	0.313
303.15	0	0.30002	1004.345	0.313
303.15	0	0.50001	1009.7	0.314
303.15	0	0.7	1014.783	0.315
303.15	0	0.90112	1019.622	0.316
303.15	0	1	1021.9	0.316
308.15	0	0	994.043	0.313
308.15	0	0.10014	997.026	0.313
308.15	0	0.30002	1002.5	0.313
308.15	0	0.50001	1008.001	0.314
308.15	0	0.7	1013.113	0.315
308.15	0	0.90112	1017.932	0.315
308.15	0	1	1020.2	0.316
313.15	0	0	992.227	0.313
313.15	0	0.10014	995.178	0.313
313.15	0	0.30002	1000.816	0.313
313.15	0	0.50001	1006.125	0.314
313.15	0	0.7	1011.149	0.314
313.15	0	0.90112	1016.048	0.315
313.15	0	1	1018.4	0.315
293.15	0.1502	0	1004.433	0.314
293.15	0.1502	0.10017	1007.43	0.314
293.15	0.1502	0.3	1013.09	0.315
293.15	0.1502	0.50009	1018.439	0.315
293.15	0.1502	0.70007	1023.618	0.316
293.15	0.1502	0.90011	1028.607	0.317
293.15	0.1502	1.00003	1031.021	0.317
298.15	0.1502	0	1003.21	0.31
298.15	0.1502	0.10017	1006.185	0.314
298.15	0.1502	0.3	1011.785	0.315
298.15	0.1502	0.50009	1017.108	0.315
298.15	0.1502	0.70007	1022.193	0.316
298.15	0.1502	0.90011	1027.142	0.317
298.15	0.1502	1.00003	1029.536	0.317
303.15	0.1502	0	1001.734	0.313
303.15	0.1502	0.10017	1004.68	0.314
303.15	0.1502	0.3	1010.28	0.314
303.15	0.1502	0.50009	1015.478	0.315
303.15	0.1502	0.70007	1020.547	0.316
303.15	0.1502	0.90011	1025.488	0.316
303.15	0.1502	1.00003	1027.881	0.317
308.15	0.1502	0	1000.105	0.313
308.15	0.1502	0.10017	1003.02	0.313
308.15	0.1502	0.3	1008.54	0.314
308.15	0.1502	0.50009	1013.788	0.315
308.15	0.1502	0.70007	1018.837	0.316
308.15	0.1502	0.90011	1023.758	0.316
308.15	0.1502	1.00003	1026.141	0.317
313.15	0.1502	0	998.236	0.313
313.15	0.1502	0.10017	1001.15	0.313
313.15	0.1502	0.3	1006.65	0.314
313.15	0.1502	0.50009	1011.947	0.315
313.15	0.1502	0.70007	1016.977	0.315
313.15	0.1502	0.90011	1021.878	0.316
313.15	0.1502	1.00003	1024.251	0.316
293.15	0.3004	0	1010.412	0.314
293.15	0.3004	0.10008	1013.36	0.315
293.15	0.3004	0.30007	1019.078	0.316
293.15	0.3004	0.50005	1024.452	0.316
293.15	0.3004	0.70018	1029.337	0.317
293.15	0.3004	0.89996	1033.865	0.318
293.15	0.3004	1.00001	1036.005	0.318
298.15	0.3004	0	1008.89	0.31
298.15	0.3004	0.10008	1011.815	0.315
298.15	0.3004	0.30007	1017.439	0.315
298.15	0.3004	0.50005	1022.748	0.316
298.15	0.3004	0.70018	1027.801	0.317
298.15	0.3004	0.89996	1032.498	0.318
298.15	0.3004	1.00001	1034.794	0.318
303.15	0.3004	0	1007.399	0.314
303.15	0.3004	0.10008	1010.293	0.314
303.15	0.3004	0.30007	1015.86	0.315
303.15	0.3004	0.50005	1021.096	0.316
303.15	0.3004	0.70018	1026	0.317
303.15	0.3004	0.89996	1030.704	0.317
303.15	0.3004	1.00001	1032.888	0.318
308.15	0.3004	0	1005.863	0.314
308.15	0.3004	0.10008	1008.726	0.314
308.15	0.3004	0.30007	1014.232	0.315
308.15	0.3004	0.50005	1019.438	0.316
308.15	0.3004	0.70018	1024.39	0.316
308.15	0.3004	0.89996	1029.044	0.317
308.15	0.3004	1.00001	1031.3	0.317
313.15	0.3004	0	1004.14	0.31
313.15	0.3004	0.10008	1006.987	0.314
313.15	0.3004	0.30007	1012.456	0.315
313.15	0.3004	0.50005	1017.615	0.315
313.15	0.3004	0.70018	1022.5	0.316
313.15	0.3004	0.89996	1027.184	0.317
313.15	0.3004	1.00001	1029.3	0.317
293.15	0.5002	0	1018.1	0.315
293.15	0.5002	0.09998	1020.966	0.316
293.15	0.5002	0.29997	1026.5	0.317
293.15	0.5002	0.50017	1031.754	0.317
293.15	0.5002	0.7	1036.576	0.318
293.15	0.5002	0.904	1040.58	0.319
293.15	0.5002	1.00008	1042.5	0.319
298.15	0.5002	0	1016.986	0.315
298.15	0.5002	0.09998	1019.821	0.316
298.15	0.5002	0.29997	1025.253	0.316
298.15	0.5002	0.50017	1030.21	0.317
298.15	0.5002	0.70002	1034.934	0.318
298.15	0.5002	0.90394	1039.301	0.319
298.15	0.5002	1.00005	1041.101	0.319
303.15	0.5002	0	1015.571	0.315
303.15	0.5002	0.09998	1018.392	0.315
303.15	0.5002	0.29997	1023.751	0.316
303.15	0.5002	0.50017	1028.674	0.317
303.15	0.5002	0.70002	1033.302	0.318
303.15	0.5002	0.90394	1037.497	0.318
303.15	0.5002	1.00008	1039.504	0.319
308.15	0.5002	0	1013.862	0.315
308.15	0.5002	0.09998	1016.642	0.315
308.15	0.5002	0.29997	1021.961	0.316
308.15	0.5002	0.50017	1026.884	0.317
308.15	0.5002	0.70002	1031.432	0.317
308.15	0.5002	0.90394	1035.88	0.318
308.15	0.5002	1.00005	1037.751	0.318
313.15	0.5002	0	1011.759	0.315
313.15	0.5002	0.09998	1014.531	0.315
313.15	0.5002	0.29997	1019.861	0.316
313.15	0.5002	0.50017	1024.854	0.316
313.15	0.5002	0.70002	1029.562	0.317
313.15	0.5002	0.90394	1034.103	0.318
313.15	0.5002	1.00005	1036.001	0.318
293.15	0.7	0	1026.192	0.317
293.15	0.7	0.10011	1028.963	0.317
293.15	0.7	0.30003	1034.211	0.318
293.15	0.7	0.50005	1039.051	0.319
293.15	0.7	0.7002	1043.615	0.319
293.15	0.7	0.90053	1047.603	0.32
293.15	0.7	0.99999	1049.19	0.32
298.15	0.7	0	1024.854	0.316
298.15	0.7	0.10011	1027.602	0.317
298.15	0.7	0.30003	1032.851	0.318
298.15	0.7	0.50005	1037.761	0.318
298.15	0.7	0.7002	1042.375	0.319
298.15	0.7	0.90053	1046.623	0.32
298.15	0.7	0.99999	1048.5	0.32
303.15	0.7	0	1023.127	0.316
303.15	0.7	0.10011	1025.863	0.317
303.15	0.7	0.30003	1031.121	0.317
303.15	0.7	0.50005	1036.101	0.318
303.15	0.7	0.7002	1040.815	0.319
303.15	0.7	0.90053	1045.133	0.32
303.15	0.7	0.99999	1047.09	0.32
308.15	0.7	0	1021.533	0.316
308.15	0.7	0.10011	1024.233	0.316
308.15	0.7	0.30003	1029.401	0.317
308.15	0.7	0.50005	1034.301	0.318
308.15	0.7	0.7002	1038.935	0.319
308.15	0.7	0.90053	1043.253	0.319
308.15	0.7	0.99999	1045.2	0.32
313.15	0.7	0	1019.736	0.316
313.15	0.7	0.10011	1022.419	0.316
313.15	0.7	0.30003	1027.55	0.317
313.15	0.7	0.50005	1032.36	0.318
313.15	0.7	0.7002	1036.914	0.318
313.15	0.7	0.90053	1041.184	0.319
313.15	0.7	0.99999	1043.109	0.319

System: 4-aminobutanoic acid + sodium chloride + water; phases: Liquid
Fixed: Pressure, kPa = 75
Fixed: Frequency, MHz = 3
Property: Speed of sound, m/s (Liquid); method: Single path-length method
Temperature, K	Solvent: Molality, mol/kg of sodium chloride	Molality, mol/kg of 4-aminobutanoic acid	Speed of sound, m/s	uncertainty
293.15	0	0	1482.54	4.04
293.15	0	0.10014	1490.58	4.04
293.15	0	0.30002	1506.55	4.04
293.15	0	0.50001	1522.44	4.04
293.15	0	0.7	1538.26	4.04
293.15	0	0.90112	1553.5	4.04
293.15	0	1	1561.1	4.04
298.15	0	0	1496.96	4.04
298.15	0	0.10014	1504.58	4.04
298.15	0	0.30002	1519.78	4.04
298.15	0	0.50001	1535.02	4.04
298.15	0	0.7	1550.01	4.04
298.15	0	0.90112	1564.7	4.04
298.15	0	1	1572.01	4.04
303.15	0	0	1509.37	4.04
303.15	0	0.10014	1516.82	4.04
303.15	0	0.30002	1531.63	4.04
303.15	0	0.50001	1546.37	4.04
303.15	0	0.7	1560.92	4.04
303.15	0	0.90112	1574.89	4.04
303.15	0	1	1582.17	4.04
308.15	0	0	1519.9	4.04
308.15	0	0.10014	1527.27	4.04
308.15	0	0.30002	1542.14	4.04
308.15	0	0.50001	1556.33	4.04
308.15	0	0.7	1570.24	4.04
308.15	0	0.90112	1583.4	4.04
308.15	0	1	1590.45	4.04
313.15	0	0	1528.98	4.04
313.15	0	0.10014	1536.13	4.04
313.15	0	0.30002	1550.14	4.04
313.15	0	0.50001	1564.12	4.04
313.15	0	0.7	1577.79	4.04
313.15	0	0.90112	1590.55	4.04
313.15	0	1	1597.37	4.04
293.15	0.1502	0	1492.53	4.04
293.15	0.1502	0.10017	1500.64	4.04
293.15	0.1502	0.3	1516.79	4.04
293.15	0.1502	0.50009	1532.77	4.04
293.15	0.1502	0.70007	1548.05	4.04
293.15	0.1502	0.90011	1562.94	4.04
293.15	0.1502	1.00003	1570	4.04
298.15	0.1502	0	1506.24	4.04
298.15	0.1502	0.10017	1513.96	4.04
298.15	0.1502	0.3	1529.45	4.04
298.15	0.1502	0.50009	1544.86	4.04
298.15	0.1502	0.70007	1559.7	4.04
298.15	0.1502	0.90011	1574.01	4.04
298.15	0.1502	1.00003	1581.34	4.04
303.15	0.1502	0	1518.04	4.04
303.15	0.1502	0.10017	1525.59	4.04
303.15	0.1502	0.3	1540.49	4.04
303.15	0.1502	0.50009	1555.49	4.04
303.15	0.1502	0.70007	1569.88	4.04
303.15	0.1502	0.90011	1583.67	4.04
303.15	0.1502	1.00003	1590.8	4.04
308.15	0.1502	0	1528.46	4.04
308.15	0.1502	0.10017	1535.88	4.04
308.15	0.1502	0.3	1550.42	4.04
308.15	0.1502	0.50009	1564.78	4.04
308.15	0.1502	0.70007	1578.56	4.04
308.15	0.1502	0.90011	1592.27	4.04
308.15	0.1502	1.00003	1599.37	4.04
313.15	0.1502	0	1537.61	4.04
313.15	0.1502	0.10017	1544.78	4.04
313.15	0.1502	0.3	1558.77	4.04
313.15	0.1502	0.50009	1572.49	4.04
313.15	0.1502	0.70007	1585.85	4.04
313.15	0.1502	0.90011	1598.76	4.04
313.15	0.1502	1.00003	1605.9	4.04
293.15	0.3004	0	1502.05	4.04
293.15	0.3004	0.10008	1510.11	4.04
293.15	0.3004	0.30007	1525.97	4.04
293.15	0.3004	0.50005	1541.42	4.04
293.15	0.3004	0.70018	1556.75	4.04
293.15	0.3004	0.89996	1571.79	4.04
293.15	0.3004	1.00001	1579.1	4.04
298.15	0.3004	0	1515.3	4
298.15	0.3004	0.10008	1522.92	4.04
298.15	0.3004	0.30007	1538.02	4.04
298.15	0.3004	0.50005	1552.98	4.04
298.15	0.3004	0.70018	1567.84	4.04
298.15	0.3004	0.89996	1582.32	4.04
298.15	0.3004	1.00001	1589.38	4.04
303.15	0.3004	0	1527.03	4.04
303.15	0.3004	0.10008	1534.47	4.04
303.15	0.3004	0.30007	1549.06	4.04
303.15	0.3004	0.50005	1563.53	4.04
303.15	0.3004	0.70018	1577.98	4.04
303.15	0.3004	0.89996	1591.76	4.04
303.15	0.3004	1.00001	1598.56	4.04
308.15	0.3004	0	1537.14	4.04
308.15	0.3004	0.10008	1544.47	4.04
308.15	0.3004	0.30007	1558.75	4.04
308.15	0.3004	0.50005	1572.85	4.04
308.15	0.3004	0.70018	1586.52	4.04
308.15	0.3004	0.89996	1599.86	4.04
308.15	0.3004	1.00001	1606.43	4.04
313.15	0.3004	0	1545.72	4.04
313.15	0.3004	0.10008	1552.81	4.04
313.15	0.3004	0.30007	1566.88	4.04
313.15	0.3004	0.50005	1580.33	4.04
313.15	0.3004	0.70018	1593.67	4.04
313.15	0.3004	0.89996	1606.51	4.04
313.15	0.3004	1.00001	1612.88	4.04
293.15	0.5002	0	1514.41	4.04
293.15	0.5002	0.09998	1522.61	4.04
293.15	0.5002	0.29997	1538.4	4.04
293.15	0.5002	0.50017	1554.16	4.04
293.15	0.5002	0.7	1568.91	4.04
293.15	0.5002	0.904	1584.14	4.04
293.15	0.5002	1.00008	1591.18	4.04
298.15	0.5002	0	1527.34	4.04
298.15	0.5002	0.09998	1535.08	4.04
298.15	0.5002	0.29997	1550.27	4.04
298.15	0.5002	0.50017	1565.48	4.04
298.15	0.5002	0.70002	1579.64	4.04
298.15	0.5002	0.90394	1594.43	4.04
298.15	0.5002	1.00005	1601.2	4.04
303.15	0.5002	0	1538.54	4.04
303.15	0.5002	0.09998	1546.05	4.04
303.15	0.5002	0.29997	1560.72	4.04
303.15	0.5002	0.50017	1575.4	4.04
303.15	0.5002	0.70002	1589.06	4.04
303.15	0.5002	0.90394	1603.38	4.04
303.15	0.5002	1.00008	1609.9	4.04
308.15	0.5002	0	1548.29	4.04
308.15	0.5002	0.09998	1555.67	4.04
308.15	0.5002	0.29997	1569.87	4.04
308.15	0.5002	0.50017	1584.06	4.04
308.15	0.5002	0.70002	1597.24	4.04
308.15	0.5002	0.90394	1611.15	4.04
308.15	0.5002	1.00005	1617.43	4.04
313.15	0.5002	0	1556.52	4.04
313.15	0.5002	0.09998	1563.64	4.04
313.15	0.5002	0.29997	1577.4	4.04
313.15	0.5002	0.50017	1590.84	4.04
313.15	0.5002	0.70002	1603.93	4.04
313.15	0.5002	0.90394	1617.43	4.04
313.15	0.5002	1.00005	1623.48	4.04
293.15	0.7	0	1526.94	4.04
293.15	0.7	0.10011	1534.98	4.04
293.15	0.7	0.30003	1550.66	4.04
293.15	0.7	0.50005	1565.6	4.04
293.15	0.7	0.7002	1580.52	4.04
293.15	0.7	0.90053	1595.23	4.04
293.15	0.7	0.99999	1603.22	4.04
298.15	0.7	0	1539.29	4.04
298.15	0.7	0.10011	1546.86	4.04
298.15	0.7	0.30003	1561.88	4.04
298.15	0.7	0.50005	1576.48	4.04
298.15	0.7	0.7002	1591.06	4.04
298.15	0.7	0.90053	1605.33	4.04
298.15	0.7	0.99999	1612.68	4.04
303.15	0.7	0	1550.23	4.04
303.15	0.7	0.10011	1557.55	4.04
303.15	0.7	0.30003	1572.01	4.04
303.15	0.7	0.50005	1585.99	4.04
303.15	0.7	0.7002	1600.08	4.04
303.15	0.7	0.90053	1613.56	4.04
303.15	0.7	0.99999	1620.96	4.04
308.15	0.7	0	1559.49	4.04
308.15	0.7	0.10011	1566.69	4.04
308.15	0.7	0.30003	1580.68	4.04
308.15	0.7	0.50005	1594.11	4.04
308.15	0.7	0.7002	1607.65	4.04
308.15	0.7	0.90053	1620.78	4.04
308.15	0.7	0.99999	1627.95	4.04
313.15	0.7	0	1567.36	4.04
313.15	0.7	0.10011	1574.28	4.04
313.15	0.7	0.30003	1587.88	4.04
313.15	0.7	0.50005	1600.89	4.04
313.15	0.7	0.7002	1614.12	4.04
313.15	0.7	0.90053	1626.74	4.04
313.15	0.7	0.99999	1633.65	4.04

System: 4-aminobutanoic acid + sodium chloride + water; phases: Liquid
Fixed: Pressure, kPa = 75
Property: Viscosity, Pa*s (Liquid); method: Capillary tube (Ostwald; Ubbelohde) method
Temperature, K	Solvent: Molality, mol/kg of sodium chloride	Molality, mol/kg of 4-aminobutanoic acid	Viscosity, Pa*s	uncertainty
293.15	0	0	0.001002	1.2e-05
293.15	0	0.10014	0.001023	1.2e-05
293.15	0	0.30002	0.001093	1.2e-05
293.15	0	0.50001	0.00117	1.2e-05
293.15	0	0.7	0.001247	1.3e-05
293.15	0	0.90112	0.001321	1.3e-05
293.15	0	1	0.001355	1.3e-05
298.15	0	0	0.000888	1.2e-05
298.15	0	0.10014	0.000912	1.2e-05
298.15	0	0.30002	0.000968	1.2e-05
298.15	0	0.50001	0.001034	1.2e-05
298.15	0	0.7	0.001104	1.2e-05
298.15	0	0.90112	0.001173	1.2e-05
298.15	0	1	0.001205	1.2e-05
303.15	0	0	0.000791	1.1e-05
303.15	0	0.10014	0.00081	1.1e-05
303.15	0	0.30002	0.000861	1.1e-05
303.15	0	0.50001	0.000914	1.2e-05
303.15	0	0.7	0.000981	1.2e-05
303.15	0	0.90112	0.001049	1.2e-05
303.15	0	1	0.001074	1.2e-05
308.15	0	0	0.000712	1.1e-05
308.15	0	0.10014	0.000732	1.1e-05
308.15	0	0.30002	0.000773	1.1e-05
308.15	0	0.50001	0.00082	1.1e-05
308.15	0	0.7	0.00088	1.1e-05
308.15	0	0.90112	0.000943	1.2e-05
308.15	0	1	0.000965	1.2e-05
313.15	0	0	0.000645	1.1e-05
313.15	0	0.10014	0.000661	1.1e-05
313.15	0	0.30002	0.000695	1.1e-05
313.15	0	0.50001	0.000743	1.1e-05
313.15	0	0.7	0.000792	1.1e-05
313.15	0	0.90112	0.000846	1.1e-05
313.15	0	1	0.000868	1.1e-05
293.15	0.1502	0	0.001011	1.2e-05
293.15	0.1502	0.10017	0.001046	1.2e-05
293.15	0.1502	0.3	0.001114	1.2e-05
293.15	0.1502	0.50009	0.00119	1.2e-05
293.15	0.1502	0.70007	0.001268	1.3e-05
293.15	0.1502	0.90011	0.00135	1.3e-05
293.15	0.1502	1.00003	0.001384	1.3e-05
298.15	0.1502	0	0.000891	1.2e-05
298.15	0.1502	0.10017	0.000922	1.2e-05
298.15	0.1502	0.3	0.000978	1.2e-05
298.15	0.1502	0.50009	0.001047	1.2e-05
298.15	0.1502	0.70007	0.001117	1.2e-05
298.15	0.1502	0.90011	0.001188	1.2e-05
298.15	0.1502	1.00003	0.00122	1.3e-05
303.15	0.1502	0	0.000796	1.1e-05
303.15	0.1502	0.10017	0.000821	1.1e-05
303.15	0.1502	0.3	0.00087	1.1e-05
303.15	0.1502	0.50009	0.000929	1.2e-05
303.15	0.1502	0.70007	0.000993	1.2e-05
303.15	0.1502	0.90011	0.001056	1.2e-05
303.15	0.1502	1.00003	0.001088	1.2e-05
308.15	0.1502	0	0.000717	1.1e-05
308.15	0.1502	0.10017	0.000739	1.1e-05
308.15	0.1502	0.3	0.000783	1.1e-05
308.15	0.1502	0.50009	0.000835	1.1e-05
308.15	0.1502	0.70007	0.000894	1.2e-05
308.15	0.1502	0.90011	0.000956	1.2e-05
308.15	0.1502	1.00003	0.000982	1.2e-05
313.15	0.1502	0	0.000651	1.1e-05
313.15	0.1502	0.10017	0.000667	1.1e-05
313.15	0.1502	0.3	0.000709	1.1e-05
313.15	0.1502	0.50009	0.000755	1.1e-05
313.15	0.1502	0.70007	0.000801	1.1e-05
313.15	0.1502	0.90011	0.000855	1.1e-05
313.15	0.1502	1.00003	0.000877	1.1e-05
293.15	0.3004	0	0.001018	1.2e-05
293.15	0.3004	0.10008	0.00106	1.2e-05
293.15	0.3004	0.30007	0.001136	1.2e-05
293.15	0.3004	0.50005	0.001211	1.3e-05
293.15	0.3004	0.70018	0.001293	1.3e-05
293.15	0.3004	0.89996	0.001385	1.3e-05
293.15	0.3004	1.00001	0.001423	1.3e-05
298.15	0.3004	0	0.000908	1.2e-05
298.15	0.3004	0.10008	0.000944	1.2e-05
298.15	0.3004	0.30007	0.00101	1.2e-05
298.15	0.3004	0.50005	0.001081	1.2e-05
298.15	0.3004	0.70018	0.00115	1.2e-05
298.15	0.3004	0.89996	0.001228	1.3e-05
298.15	0.3004	1.00001	0.001268	1.3e-05
303.15	0.3004	0	0.000814	1.1e-05
303.15	0.3004	0.10008	0.000845	1.1e-05
303.15	0.3004	0.30007	0.000899	1.2e-05
303.15	0.3004	0.50005	0.00096	1.2e-05
303.15	0.3004	0.70018	0.001022	1.2e-05
303.15	0.3004	0.89996	0.001093	1.2e-05
303.15	0.3004	1.00001	0.001125	1.2e-05
308.15	0.3004	0	0.000738	1.1e-05
308.15	0.3004	0.10008	0.00076	1.1e-05
308.15	0.3004	0.30007	0.00081	1.1e-05
308.15	0.3004	0.50005	0.000867	1.1e-05
308.15	0.3004	0.70018	0.00092	1.2e-05
308.15	0.3004	0.89996	0.000979	1.2e-05
308.15	0.3004	1.00001	0.00101	1.2e-05
313.15	0.3004	0	0.000663	1.1e-05
313.15	0.3004	0.10008	0.000679	1.1e-05
313.15	0.3004	0.30007	0.000728	1.1e-05
313.15	0.3004	0.50005	0.000777	1.1e-05
313.15	0.3004	0.70018	0.000821	1.1e-05
313.15	0.3004	0.89996	0.000876	1.1e-05
313.15	0.3004	1.00001	0.000903	1.2e-05
293.15	0.5002	0	0.001027	1.2e-05
293.15	0.5002	0.09998	0.001078	1.2e-05
293.15	0.5002	0.29997	0.00115	1.2e-05
293.15	0.5002	0.50017	0.001236	1.3e-05
293.15	0.5002	0.7	0.001316	1.3e-05
293.15	0.5002	0.904	0.001415	1.3e-05
293.15	0.5002	1.00008	0.001447	1.3e-05
298.15	0.5002	0	0.000928	1.2e-05
298.15	0.5002	0.09998	0.000973	1.2e-05
298.15	0.5002	0.29997	0.001041	1.2e-05
298.15	0.5002	0.50017	0.00111	1.2e-05
298.15	0.5002	0.70002	0.001177	1.2e-05
298.15	0.5002	0.90394	0.001256	1.3e-05
298.15	0.5002	1.00005	0.001295	1.3e-05
303.15	0.5002	0	0.00083	1.1e-05
303.15	0.5002	0.09998	0.000869	1.1e-05
303.15	0.5002	0.29997	0.000921	1.2e-05
303.15	0.5002	0.50017	0.000983	1.2e-05
303.15	0.5002	0.70002	0.001045	1.2e-05
303.15	0.5002	0.90394	0.001116	1.2e-05
303.15	0.5002	1.00008	0.001148	1.2e-05
308.15	0.5002	0	0.000753	1.1e-05
308.15	0.5002	0.09998	0.000786	1.1e-05
308.15	0.5002	0.29997	0.000831	1.1e-05
308.15	0.5002	0.50017	0.000889	1.2e-05
308.15	0.5002	0.70002	0.000942	1.2e-05
308.15	0.5002	0.90394	0.001	1.2e-05
308.15	0.5002	1.00005	0.001032	1.2e-05
313.15	0.5002	0	0.00068	1.1e-05
313.15	0.5002	0.09998	0.000708	1.1e-05
313.15	0.5002	0.29997	0.000751	1.1e-05
313.15	0.5002	0.50017	0.000799	1.1e-05
313.15	0.5002	0.70002	0.000848	1.1e-05
313.15	0.5002	0.90394	0.000905	1.2e-05
313.15	0.5002	1.00005	0.00094	1.2e-05
293.15	0.7	0	0.001053	1.2e-05
293.15	0.7	0.10011	0.001116	1.2e-05
293.15	0.7	0.30003	0.001195	1.2e-05
293.15	0.7	0.50005	0.001276	1.3e-05
293.15	0.7	0.7002	0.001368	1.3e-05
293.15	0.7	0.90053	0.00147	1.3e-05
293.15	0.7	0.99999	0.001515	1.4e-05
298.15	0.7	0	0.000951	1.2e-05
298.15	0.7	0.10011	0.001001	1.2e-05
298.15	0.7	0.30003	0.001076	1.2e-05
298.15	0.7	0.50005	0.001147	1.2e-05
298.15	0.7	0.7002	0.00122	1.3e-05
298.15	0.7	0.90053	0.001304	1.3e-05
298.15	0.7	0.99999	0.001349	1.3e-05
303.15	0.7	0	0.000853	1.1e-05
303.15	0.7	0.10011	0.000889	1.2e-05
303.15	0.7	0.30003	0.000954	1.2e-05
303.15	0.7	0.50005	0.001021	1.2e-05
303.15	0.7	0.7002	0.001086	1.2e-05
303.15	0.7	0.90053	0.001154	1.2e-05
303.15	0.7	0.99999	0.001187	1.2e-05
308.15	0.7	0	0.000772	1.1e-05
308.15	0.7	0.10011	0.000803	1.1e-05
308.15	0.7	0.30003	0.000859	1.1e-05
308.15	0.7	0.50005	0.000921	1.2e-05
308.15	0.7	0.7002	0.000979	1.2e-05
308.15	0.7	0.90053	0.001043	1.2e-05
308.15	0.7	0.99999	0.001071	1.2e-05
313.15	0.7	0	0.000701	1.1e-05
313.15	0.7	0.10011	0.000734	1.1e-05
313.15	0.7	0.30003	0.000785	1.1e-05
313.15	0.7	0.50005	0.000833	1.1e-05
313.15	0.7	0.7002	0.000889	1.2e-05
313.15	0.7	0.90053	0.000956	1.2e-05
313.15	0.7	0.99999	0.000994	1.2e-05

System: 4-aminobutanoic acid + water; phases: Liquid
Fixed: Pressure, kPa = 75
Property: Mass density, kg/m3 (Liquid); method: Vibrating tube method
Temperature, K	Molality, mol/kg of 4-aminobutanoic acid	Mass density, kg/m3	uncertainty
293.15	0.10014	1001.249	0.313
293.15	0.30002	1007	0.314
293.15	0.50001	1012.45	0.315
293.15	0.7	1017.634	0.315
293.15	0.90112	1022.573	0.316
293.15	1	1024.9	0.316
298.15	0.10014	1000.068	0.313
298.15	0.30002	1005.77	0.314
298.15	0.50001	1011.105	0.314
298.15	0.7	1016.21	0.315
298.15	0.90112	1021.102	0.316
298.15	1	1023.401	0.316
303.15	0.10014	998.651	0.313
303.15	0.30002	1004.345	0.313
303.15	0.50001	1009.7	0.314
303.15	0.7	1014.783	0.315
303.15	0.90112	1019.622	0.316
303.15	1	1021.9	0.316
308.15	0.10014	997.026	0.313
308.15	0.30002	1002.5	0.313
308.15	0.50001	1008.001	0.314
308.15	0.7	1013.113	0.315
308.15	0.90112	1017.932	0.315
308.15	1	1020.2	0.316
313.15	0.10014	995.178	0.313
313.15	0.30002	1000.816	0.313
313.15	0.50001	1006.125	0.314
313.15	0.7	1011.149	0.314
313.15	0.90112	1016.048	0.315
313.15	1	1018.4	0.315
293.15	0	998.204	0.313
298.15	0	997.051	0.313
303.15	0	995.651	0.313
308.15	0	994.043	0.313
313.15	0	992.227	0.313

System: 4-aminobutanoic acid + water; phases: Liquid
Fixed: Pressure, kPa = 75
Fixed: Frequency, MHz = 3
Property: Speed of sound, m/s (Liquid); method: Single path-length method
Temperature, K	Molality, mol/kg of 4-aminobutanoic acid	Speed of sound, m/s	uncertainty
293.15	0.10014	1490.58	4.01
293.15	0.30002	1506.55	4.01
293.15	0.50001	1522.44	4.01
293.15	0.7	1538.26	4.01
293.15	0.90112	1553.5	4.01
293.15	1	1561.1	4.01
298.15	0.10014	1504.58	4.01
298.15	0.30002	1519.78	4.01
298.15	0.50001	1535.02	4.01
298.15	0.7	1550.01	4.01
298.15	0.90112	1564.7	4.01
298.15	1	1572.01	4.01
303.15	0.10014	1516.82	4.01
303.15	0.30002	1531.63	4.01
303.15	0.50001	1546.37	4.01
303.15	0.7	1560.92	4.01
303.15	0.90112	1574.89	4.01
303.15	1	1582.17	4.01
308.15	0.10014	1527.27	4.01
308.15	0.30002	1542.14	4.01
308.15	0.50001	1556.33	4.01
308.15	0.7	1570.24	4.01
308.15	0.90112	1583.4	4.01
308.15	1	1590.45	4.01
313.15	0.10014	1536.13	4.01
313.15	0.30002	1550.14	4.01
313.15	0.50001	1564.12	4.01
313.15	0.7	1577.79	4.01
313.15	0.90112	1590.55	4.01
313.15	1	1597.37	4.01
293.15	0	1482.54	4.01
298.15	0	1496.96	4.01
303.15	0	1509.37	4.01
308.15	0	1519.9	4.01
313.15	0	1528.98	4.01

System: 4-aminobutanoic acid + water; phases: Liquid
Fixed: Pressure, kPa = 75
Property: Viscosity, Pa*s (Liquid); method: Capillary tube (Ostwald; Ubbelohde) method
Temperature, K	Molality, mol/kg of 4-aminobutanoic acid	Viscosity, Pa*s	uncertainty
293.15	0.10014	0.001023	1.2e-05
293.15	0.30002	0.001093	1.2e-05
293.15	0.50001	0.00117	1.2e-05
293.15	0.7	0.001247	1.3e-05
293.15	0.90112	0.001321	1.3e-05
293.15	1	0.001355	1.3e-05
298.15	0.10014	0.000912	1.2e-05
298.15	0.30002	0.000968	1.2e-05
298.15	0.50001	0.001034	1.2e-05
298.15	0.7	0.001104	1.2e-05
298.15	0.90112	0.001173	1.2e-05
298.15	1	0.001205	1.2e-05
303.15	0.10014	0.00081	1.1e-05
303.15	0.30002	0.000861	1.1e-05
303.15	0.50001	0.000914	1.2e-05
303.15	0.7	0.000981	1.2e-05
303.15	0.90112	0.001049	1.2e-05
303.15	1	0.001074	1.2e-05
308.15	0.10014	0.000732	1.1e-05
308.15	0.30002	0.000773	1.1e-05
308.15	0.50001	0.00082	1.1e-05
308.15	0.7	0.00088	1.1e-05
308.15	0.90112	0.000943	1.2e-05
308.15	1	0.000965	1.2e-05
313.15	0.10014	0.000661	1.1e-05
313.15	0.30002	0.000695	1.1e-05
313.15	0.50001	0.000743	1.1e-05
313.15	0.7	0.000792	1.1e-05
313.15	0.90112	0.000846	1.1e-05
313.15	1	0.000868	1.1e-05
293.15	0	0.001002	1.2e-05
298.15	0	0.000888	1.2e-05
303.15	0	0.000791	1.1e-05
308.15	0	0.000712	1.1e-05
313.15	0	0.000645	1.1e-05

System: sodium chloride + water; phases: Liquid
Fixed: Pressure, kPa = 75
Property: Mass density, kg/m3 (Liquid); method: Vibrating tube method
Temperature, K	Molality, mol/kg of sodium chloride	Mass density, kg/m3	uncertainty
293.15	0.1502	1004.433	0.314
298.15	0.1502	1003.21	0.31
303.15	0.1502	1001.734	0.313
308.15	0.1502	1000.105	0.313
313.15	0.1502	998.236	0.313
293.15	0.3004	1010.412	0.314
298.15	0.3004	1008.89	0.31
303.15	0.3004	1007.399	0.314
308.15	0.3004	1005.863	0.314
313.15	0.3004	1004.14	0.31
293.15	0.5002	1018.1	0.315
298.15	0.5002	1016.986	0.315
303.15	0.5002	1015.571	0.315
308.15	0.5002	1013.862	0.315
313.15	0.5002	1011.759	0.315
293.15	0.7	1026.192	0.317
298.15	0.7	1024.854	0.316
303.15	0.7	1023.127	0.316
308.15	0.7	1021.533	0.316
313.15	0.7	1019.736	0.316
293.15	0	998.204	0.313
298.15	0	997.051	0.313
303.15	0	995.651	0.313
308.15	0	994.043	0.313
313.15	0	992.227	0.313

System: sodium chloride + water; phases: Liquid
Fixed: Pressure, kPa = 75
Fixed: Frequency, MHz = 3
Property: Speed of sound, m/s (Liquid); method: Single path-length method
Temperature, K	Molality, mol/kg of sodium chloride	Speed of sound, m/s	uncertainty
293.15	0.1502	1492.53	4.01
298.15	0.1502	1506.24	4.01
303.15	0.1502	1518.04	4.01
308.15	0.1502	1528.46	4.01
313.15	0.1502	1537.61	4.01
293.15	0.3004	1502.05	4.01
298.15	0.3004	1515.3	4
303.15	0.3004	1527.03	4.01
308.15	0.3004	1537.14	4.01
313.15	0.3004	1545.72	4.01
293.15	0.5002	1514.41	4.01
298.15	0.5002	1527.34	4.01
303.15	0.5002	1538.54	4.01
308.15	0.5002	1548.29	4.01
313.15	0.5002	1556.52	4.01
293.15	0.7	1526.94	4.01
298.15	0.7	1539.29	4.01
303.15	0.7	1550.23	4.01
308.15	0.7	1559.49	4.01
313.15	0.7	1567.36	4.01
293.15	0	1482.54	4.01
298.15	0	1496.96	4.01
303.15	0	1509.37	4.01
308.15	0	1519.9	4.01
313.15	0	1528.98	4.01

System: sodium chloride + water; phases: Liquid
Fixed: Pressure, kPa = 75
Property: Viscosity, Pa*s (Liquid); method: Capillary tube (Ostwald; Ubbelohde) method
Temperature, K	Molality, mol/kg of sodium chloride	Viscosity, Pa*s	uncertainty
293.15	0.1502	0.001011	1.2e-05
298.15	0.1502	0.000891	1.2e-05
303.15	0.1502	0.000796	1.1e-05
308.15	0.1502	0.000717	1.1e-05
313.15	0.1502	0.000651	1.1e-05
293.15	0.3004	0.001018	1.2e-05
298.15	0.3004	0.000908	1.2e-05
303.15	0.3004	0.000814	1.1e-05
308.15	0.3004	0.000738	1.1e-05
313.15	0.3004	0.000663	1.1e-05
293.15	0.5002	0.001027	1.2e-05
298.15	0.5002	0.000928	1.2e-05
303.15	0.5002	0.00083	1.1e-05
308.15	0.5002	0.000753	1.1e-05
313.15	0.5002	0.00068	1.1e-05
293.15	0.7	0.001053	1.2e-05
298.15	0.7	0.000951	1.2e-05
303.15	0.7	0.000853	1.1e-05
308.15	0.7	0.000772	1.1e-05
313.15	0.7	0.000701	1.1e-05
293.15	0	0.001002	1.2e-05
298.15	0	0.000888	1.2e-05
303.15	0	0.000791	1.1e-05
308.15	0	0.000712	1.1e-05
313.15	0	0.000645	1.1e-05
