Measured thermophysical data. Comparative study of density, sound velocity and refractive index for  (water + alkali metal) phosphates aqueous systems at T = (298.15, 303.15,  and 308.15) K
Source: J. Chem. Thermodyn., 2013, 10.1016/j.jct.2013.01.012
Compound 1: phosphoric acid, H3O4P, InChI=1S/H3O4P/c1-5(2,3)4/h(H3,1,2,3,4), purity 99.99%
Compound 2: tripotassium phosphate, K3O4P, InChI=1S/3K.H3O4P/c;;;1-5(2,3)4/h;;;(H3,1,2,3,4)/q3*+1;/p-3, purity 98%
Compound 3: dipotassium hydrogen phosphate, HK2O4P, InChI=1S/2K.H3O4P/c;;1-5(2,3)4/h;;(H3,1,2,3,4)/q2*+1;/p-2, purity 99.99%
Compound 4: monopotassium phosphate, H2KO4P, InChI=1S/K.H3O4P/c;1-5(2,3)4/h;(H3,1,2,3,4)/q+1;/p-1, purity 96%
Compound 5: trisodium phosphate, Na3O4P, InChI=1S/3Na.H3O4P/c;;;1-5(2,3)4/h;;;(H3,1,2,3,4)/q3*+1;/p-3, purity 99%
Compound 6: disodium hydrogen phosphate, HNa2O4P, InChI=1S/2Na.H3O4P/c;;1-5(2,3)4/h;;(H3,1,2,3,4)/q2*+1;/p-2, purity 99%
Compound 7: sodium dihydrogen phosphate, H2NaO4P, InChI=1S/Na.H3O4P/c;1-5(2,3)4/h;(H3,1,2,3,4)/q+1;/p-1, purity 99%
Compound 8: lithium dihydrogen phosphate, H2LiO4P, InChI=1S/Li.H3O4P/c;1-5(2,3)4/h;(H3,1,2,3,4)/q+1;/p-1, purity 99%
Compound 9: water, H2O, InChI=1S/H2O/h1H2, purity 99.8%

System: phosphoric acid + water; phases: Liquid
Fixed: Pressure, kPa = 101
Property: Mass density, kg/m3 (Liquid); method: Vibrating tube method
Temperature, K	Molality, mol/kg of phosphoric acid	Mass density, kg/m3	uncertainty
298.15	0.1	1002.053	0.069
298.15	0.3	1011.369	0.073
298.15	0.5	1021.089	0.077
298.15	0.7	1030.49	0.081
298.15	0.9	1040.625	0.086
303.15	0.1	1000.625	0.069
303.15	0.3	1009.934	0.073
303.15	0.5	1019.938	0.077
303.15	0.7	1029.494	0.08
303.15	0.9	1039.053	0.084
308.15	0.1	998.962	0.069
308.15	0.3	1008.27	0.072
308.15	0.5	1018.07	0.077
308.15	0.7	1028.124	0.081
308.15	0.9	1037.802	0.084

System: phosphoric acid + water; phases: Liquid
Fixed: Pressure, kPa = 101
Property: Speed of sound, m/s (Liquid); method: Sing-around technique in a fixed-path interferometer
Temperature, K	Molality, mol/kg of phosphoric acid	Speed of sound, m/s	uncertainty
298.15	0.1	1497.1	0.97
298.15	0.3	1498.33	0.97
298.15	0.5	1500.04	0.97
298.15	0.7	1501.98	0.97
298.15	0.9	1504.15	0.97
303.15	0.1	1509.19	0.98
303.15	0.3	1510.16	0.98
303.15	0.5	1511.6	0.98
303.15	0.7	1513.25	0.98
303.15	0.9	1515.07	0.98
308.15	0.1	1519.66	0.98
308.15	0.3	1520.42	0.98
308.15	0.5	1521.58	0.98
308.15	0.7	1523	0.98
308.15	0.9	1524.56	0.98

System: phosphoric acid + water; phases: Liquid
Fixed: Pressure, kPa = 101
Property: Refractive index (Na D-line) (Liquid); method: Standard Abbe refractometry
Temperature, K	Molality, mol/kg of phosphoric acid	Refractive index (Na D-line)	uncertainty
298.15	0.1	1.3334	0.0004
298.15	0.3	1.335	0.0004
298.15	0.5	1.3366	0.0004
298.15	0.7	1.3381	0.0004
298.15	0.9	1.3397	0.0004
308.15	0.1	1.3323	0.0004
308.15	0.3	1.3339	0.0004
308.15	0.5	1.3356	0.0004
308.15	0.7	1.3371	0.0004
308.15	0.9	1.3388	0.0004
303.15	0.1	1.3329	0.0004
303.15	0.3	1.3345	0.0004
303.15	0.5	1.336	0.0004
303.15	0.7	1.3376	0.0004
303.15	0.9	1.3393	0.0004

System: water + tripotassium phosphate; phases: Liquid
Fixed: Pressure, kPa = 101
Property: Mass density, kg/m3 (Liquid); method: Vibrating tube method
Temperature, K	Molality, mol/kg of tripotassium phosphate	Mass density, kg/m3	uncertainty
298.15	0.1	1017.141	0.213
298.15	0.3	1057.815	0.231
298.15	0.5	1101.229	0.258
298.15	0.7	1145.912	0.286
298.15	0.9	1191.529	0.319
303.15	0.1	1015.625	0.216
303.15	0.3	1056.829	0.233
303.15	0.5	1100.464	0.259
303.15	0.7	1145.568	0.288
303.15	0.9	1191.619	0.318
308.15	0.1	1013.921	0.214
308.15	0.3	1054.866	0.232
308.15	0.5	1098.721	0.26
308.15	0.7	1144.258	0.288
308.15	0.9	1190.094	0.319

System: water + tripotassium phosphate; phases: Liquid
Fixed: Pressure, kPa = 101
Property: Speed of sound, m/s (Liquid); method: Sing-around technique in a fixed-path interferometer
Temperature, K	Molality, mol/kg of tripotassium phosphate	Speed of sound, m/s	uncertainty
298.15	0.1	1518.16	0.99
298.15	0.3	1559.72	1.03
298.15	0.5	1602.98	1.08
298.15	0.7	1658.8	1.12
298.15	0.9	1716.63	1.17
303.15	0.1	1529.77	0.99
303.15	0.3	1570.2	1.03
303.15	0.5	1616.07	1.08
303.15	0.7	1666.69	1.12
303.15	0.9	1723.66	1.17
308.15	0.1	1539.67	1
308.15	0.3	1578.93	1.04
308.15	0.5	1622.81	1.08
308.15	0.7	1671.93	1.13
308.15	0.9	1725.1	1.17

System: water + tripotassium phosphate; phases: Liquid
Fixed: Pressure, kPa = 101
Property: Refractive index (Na D-line) (Liquid); method: Standard Abbe refractometry
Temperature, K	Molality, mol/kg of tripotassium phosphate	Refractive index (Na D-line)	uncertainty
298.15	0.1	1.3365	0.0004
298.15	0.3	1.344	0.0004
298.15	0.5	1.3517	0.0004
298.15	0.7	1.3595	0.0004
298.15	0.9	1.3671	0.0004
308.15	0.1	1.3351	0.0004
308.15	0.3	1.3426	0.0004
308.15	0.5	1.3502	0.0004
308.15	0.7	1.3581	0.0004
308.15	0.9	1.3659	0.0004
303.15	0.1	1.3357	0.0004
303.15	0.3	1.3435	0.0004
303.15	0.5	1.351	0.0004
303.15	0.7	1.3588	0.0004
303.15	0.9	1.3667	0.0004

System: water + dipotassium hydrogen phosphate; phases: Liquid
Fixed: Pressure, kPa = 101
Property: Mass density, kg/m3 (Liquid); method: Vibrating tube method
Temperature, K	Molality, mol/kg of dipotassium hydrogen phosphate	Mass density, kg/m3	uncertainty
298.15	0.1	1016.326	0.139
298.15	0.3	1041.482	0.158
298.15	0.5	1072.353	0.178
298.15	0.7	1103.77	0.188
298.15	0.9	1135.647	0.199
303.15	0.1	1015.381	0.137
303.15	0.3	1040.033	0.156
303.15	0.5	1071.14	0.179
303.15	0.7	1103.008	0.192
303.15	0.9	1136.161	0.201
308.15	0.1	1014.179	0.134
308.15	0.3	1038.394	0.154
308.15	0.5	1069.064	0.182
308.15	0.7	1103.013	0.193
308.15	0.9	1134.438	0.196

System: water + dipotassium hydrogen phosphate; phases: Liquid
Fixed: Pressure, kPa = 101
Property: Speed of sound, m/s (Liquid); method: Sing-around technique in a fixed-path interferometer
Temperature, K	Molality, mol/kg of dipotassium hydrogen phosphate	Speed of sound, m/s	uncertainty
298.15	0.1	1512.83	0.98
298.15	0.3	1542.93	0.99
298.15	0.5	1574.63	1.01
298.15	0.7	1607.27	1.02
298.15	0.9	1641.58	1.04
303.15	0.1	1525.06	0.98
303.15	0.3	1553.83	1
303.15	0.5	1584.58	1.01
303.15	0.7	1616.8	1.03
303.15	0.9	1651.13	1.04
308.15	0.1	1535.6	0.99
308.15	0.3	1563.41	1
308.15	0.5	1593.33	1.02
308.15	0.7	1626.04	1.03
308.15	0.9	1657.81	1.04

System: water + dipotassium hydrogen phosphate; phases: Liquid
Fixed: Pressure, kPa = 101
Property: Refractive index (Na D-line) (Liquid); method: Standard Abbe refractometry
Temperature, K	Molality, mol/kg of dipotassium hydrogen phosphate	Refractive index (Na D-line)	uncertainty
298.15	0.1	1.3354	0.0004
298.15	0.3	1.3404	0.0004
298.15	0.5	1.3456	0.0004
298.15	0.7	1.3506	0.0004
298.15	0.9	1.3557	0.0004
308.15	0.1	1.334	0.0004
308.15	0.3	1.3392	0.0004
308.15	0.5	1.3445	0.0004
308.15	0.7	1.3495	0.0004
308.15	0.9	1.3547	0.0004
303.15	0.1	1.3346	0.0004
303.15	0.3	1.3397	0.0004
303.15	0.5	1.3453	0.0004
303.15	0.7	1.35	0.0004
303.15	0.9	1.3554	0.0004

System: water + monopotassium phosphate; phases: Liquid
Fixed: Pressure, kPa = 101
Property: Mass density, kg/m3 (Liquid); method: Vibrating tube method
Temperature, K	Molality, mol/kg of monopotassium phosphate	Mass density, kg/m3	uncertainty
298.15	0.1	1007.006	0.114
298.15	0.3	1026.439	0.131
298.15	0.5	1046.68	0.155
298.15	0.7	1066.583	0.186
298.15	0.9	1088.278	0.226
303.15	0.1	1005.578	0.114
303.15	0.3	1025.151	0.131
303.15	0.5	1045.289	0.155
303.15	0.7	1065.646	0.187
303.15	0.9	1087.419	0.225
308.15	0.1	1004.157	0.113
308.15	0.3	1023.577	0.131
308.15	0.5	1044.55	0.156
308.15	0.7	1065.084	0.186
308.15	0.9	1086.504	0.224

System: water + monopotassium phosphate; phases: Liquid
Fixed: Pressure, kPa = 101
Property: Speed of sound, m/s (Liquid); method: Sing-around technique in a fixed-path interferometer
Temperature, K	Molality, mol/kg of monopotassium phosphate	Speed of sound, m/s	uncertainty
298.15	0.1	1506.45	0.99
298.15	0.3	1524.54	1.03
298.15	0.5	1542.09	1.07
298.15	0.7	1539.34	20
298.15	0.9	1577.56	1.17
303.15	0.1	1518.39	0.99
303.15	0.3	1535.97	1.03
303.15	0.5	1553.21	1.07
303.15	0.7	1570.08	1.12
303.15	0.9	1587.87	1.17
308.15	0.1	1528.8	1
308.15	0.3	1545.77	1.03
308.15	0.5	1563.09	1.08
308.15	0.7	1580.03	1.12
308.15	0.9	1596.62	1.17

System: water + monopotassium phosphate; phases: Liquid
Fixed: Pressure, kPa = 101
Property: Refractive index (Na D-line) (Liquid); method: Standard Abbe refractometry
Temperature, K	Molality, mol/kg of monopotassium phosphate	Refractive index (Na D-line)	uncertainty
298.15	0.1	1.3343	0.0004
298.15	0.3	1.3374	0.0004
298.15	0.5	1.3401	0.0004
298.15	0.7	1.3435	0.0004
298.15	0.9	1.3466	0.0004
303.15	0.1	1.3336	0.0004
303.15	0.3	1.3368	0.0004
303.15	0.5	1.3397	0.0004
303.15	0.7	1.3427	0.0004
303.15	0.9	1.3463	0.0004
308.15	0.1	1.333	0.0004
308.15	0.3	1.3361	0.0004
308.15	0.5	1.3392	0.0004
308.15	0.7	1.3423	0.0004
308.15	0.9	1.3455	0.0004

System: trisodium phosphate + water; phases: Liquid
Fixed: Pressure, kPa = 101
Property: Mass density, kg/m3 (Liquid); method: Vibrating tube method
Temperature, K	Molality, mol/kg of trisodium phosphate	Mass density, kg/m3	uncertainty
298.15	0.1	1015.179	0.195
298.15	0.3	1052.406	0.207
298.15	0.5	1091.064	0.221
298.15	0.7	1130.083	0.245
298.15	0.9	1173.675	0.27
303.15	0.1	1013.87	0.196
303.15	0.3	1051.088	0.209
303.15	0.5	1090.815	0.223
303.15	0.7	1129.512	0.237
303.15	0.9	1169.993	0.258
308.15	0.1	1012.262	0.195
308.15	0.3	1049.479	0.209
308.15	0.5	1089.208	0.23
308.15	0.7	1131.081	0.236
308.15	0.9	1167.452	0.24

System: trisodium phosphate + water; phases: Liquid
Fixed: Pressure, kPa = 101
Property: Speed of sound, m/s (Liquid); method: Sing-around technique in a fixed-path interferometer
Temperature, K	Molality, mol/kg of trisodium phosphate	Speed of sound, m/s	uncertainty
298.15	0.1	1519.71	0.98
298.15	0.3	1563.09	1.01
298.15	0.5	1608.91	1.05
298.15	0.7	1658.1	1.07
298.15	0.9	1716.89	1.1
303.15	0.1	1531.53	0.99
303.15	0.3	1573.93	1.02
303.15	0.5	1619.9	1.05
303.15	0.7	1667.31	1.08
303.15	0.9	1722.58	1.1
308.15	0.1	1541.79	1
308.15	0.3	1583.46	1.02
308.15	0.5	1628.33	1.05
308.15	0.7	1677.65	1.08
308.15	0.9	1727.56	1.11

System: trisodium phosphate + water; phases: Liquid
Fixed: Pressure, kPa = 101
Property: Refractive index (Na D-line) (Liquid); method: Standard Abbe refractometry
Temperature, K	Molality, mol/kg of trisodium phosphate	Refractive index (Na D-line)	uncertainty
298.15	0.1	1.3365	0.0004
298.15	0.3	1.3439	0.0004
298.15	0.5	1.3515	0.0004
298.15	0.7	1.3588	0.0004
298.15	0.9	1.3664	0.0004
303.15	0.1	1.3358	0.0004
303.15	0.3	1.3431	0.0004
303.15	0.5	1.3506	0.0004
303.15	0.7	1.3581	0.0004
303.15	0.9	1.3671	0.0004
308.15	0.1	1.3353	0.0004
308.15	0.3	1.3425	0.0004
308.15	0.5	1.35	0.0004
308.15	0.7	1.3574	0.0004
308.15	0.9	1.3653	0.0004

System: disodium hydrogen phosphate + water; phases: Liquid
Fixed: Pressure, kPa = 101
Property: Mass density, kg/m3 (Liquid); method: Vibrating tube method
Temperature, K	Molality, mol/kg of disodium hydrogen phosphate	Mass density, kg/m3	uncertainty
298.15	0.1	1010.86	0.15
298.15	0.3	1038.694	0.158
298.15	0.5	1066.755	0.172
298.15	0.7	1096.952	0.193
298.15	0.9	1129.62	0.21
303.15	0.1	1009.508	0.149
303.15	0.3	1036.999	0.166
303.15	0.5	1069.089	0.176
303.15	0.7	1095.373	0.185
303.15	0.9	1128.518	0.268
308.15	0.1	1008.189	0.148
308.15	0.3	1035.613	0.132
308.15	0.5	1051.412	10
308.15	0.7	1099.819	0.301
308.15	0.9	1162.208	40

System: disodium hydrogen phosphate + water; phases: Liquid
Fixed: Pressure, kPa = 101
Property: Speed of sound, m/s (Liquid); method: Sing-around technique in a fixed-path interferometer
Temperature, K	Molality, mol/kg of disodium hydrogen phosphate	Speed of sound, m/s	uncertainty
298.15	0.1	1514.56	0.98
298.15	0.3	1549.47	1
298.15	0.5	1583.54	1.03
298.15	0.7	1621.33	1.05
298.15	0.9	1663.23	1.07
303.15	0.1	1526.53	0.99
303.15	0.3	1560.09	1.01
303.15	0.5	1598.6	1.03
303.15	0.7	1630.03	1.05
303.15	0.9	1672.35	1.08
308.15	0.1	1537.05	0.99
308.15	0.3	1569.81	1.01
308.15	0.5	1588.68	20
308.15	0.7	1646.2	1.06
308.15	0.9	1685.81	1.08

System: disodium hydrogen phosphate + water; phases: Liquid
Fixed: Pressure, kPa = 101
Property: Refractive index (Na D-line) (Liquid); method: Standard Abbe refractometry
Temperature, K	Molality, mol/kg of disodium hydrogen phosphate	Refractive index (Na D-line)	uncertainty
298.15	0.1	1.3354	0.0004
298.15	0.3	1.3408	0.0004
298.15	0.5	1.3457	0.0004
298.15	0.7	1.3512	0.0004
298.15	0.9	1.3562	0.0004
303.15	0.1	1.3347	0.0004
303.15	0.3	1.3404	0.0004
303.15	0.5	1.3456	0.0004
303.15	0.7	1.3507	0.0004
303.15	0.9	1.3557	0.0004
308.15	0.1	1.3344	0.0004
308.15	0.3	1.3398	0.0004
308.15	0.5	1.3448	0.0004
308.15	0.7	1.3499	0.0004
308.15	0.9	1.3552	0.0004

System: sodium dihydrogen phosphate + water; phases: Liquid
Fixed: Pressure, kPa = 101
Property: Mass density, kg/m3 (Liquid); method: Vibrating tube method
Temperature, K	Molality, mol/kg of sodium dihydrogen phosphate	Mass density, kg/m3	uncertainty
298.15	0.1	1006.227	0.105
298.15	0.3	1024.262	0.113
298.15	0.5	1043.025	0.123
298.15	0.7	1062.082	0.132
298.15	0.9	1081.279	0.142
303.15	0.1	1005.166	0.104
303.15	0.3	1022.915	0.112
303.15	0.5	1041.667	0.123
303.15	0.7	1060.858	0.131
303.15	0.9	1079.476	0.142
308.15	0.1	1004.196	0.1
308.15	0.3	1021.128	0.11
308.15	0.5	1039.97	0.124
308.15	0.7	1060.085	0.135
308.15	0.9	1080.277	0.144

System: sodium dihydrogen phosphate + water; phases: Liquid
Fixed: Pressure, kPa = 101
Property: Speed of sound, m/s (Liquid); method: Sing-around technique in a fixed-path interferometer
Temperature, K	Molality, mol/kg of sodium dihydrogen phosphate	Speed of sound, m/s	uncertainty
298.15	0.1	1507.06	0.98
298.15	0.3	1527.15	0.99
298.15	0.5	1547.31	1.01
298.15	0.7	1567.66	1.02
298.15	0.9	1587.83	1.03
303.15	0.1	1519.22	0.98
303.15	0.3	1538.54	1
303.15	0.5	1558.16	1.01
303.15	0.7	1577.8	1.02
303.15	0.9	1579.25	20
308.15	0.1	1529.79	0.99
308.15	0.3	1548.14	1
308.15	0.5	1567.29	1.02
308.15	0.7	1587.91	1.03
308.15	0.9	1608.12	1.05

System: sodium dihydrogen phosphate + water; phases: Liquid
Fixed: Pressure, kPa = 101
Property: Refractive index (Na D-line) (Liquid); method: Standard Abbe refractometry
Temperature, K	Molality, mol/kg of sodium dihydrogen phosphate	Refractive index (Na D-line)	uncertainty
298.15	0.1	1.3346	0.0004
298.15	0.3	1.3381	0.0004
298.15	0.5	1.3408	0.0004
298.15	0.7	1.344	0.0004
298.15	0.9	1.3492	0.002
303.15	0.1	1.334	0.0004
303.15	0.3	1.3376	0.0004
303.15	0.5	1.3412	0.001
303.15	0.7	1.3435	0.0004
303.15	0.9	1.3473	0.0004
308.15	0.1	1.3335	0.0004
308.15	0.3	1.3371	0.0004
308.15	0.5	1.3398	0.0004
308.15	0.7	1.3428	0.0004
308.15	0.9	1.3466	0.0004

System: water + lithium dihydrogen phosphate; phases: Liquid
Fixed: Pressure, kPa = 101
Property: Mass density, kg/m3 (Liquid); method: Vibrating tube method
Temperature, K	Molality, mol/kg of lithium dihydrogen phosphate	Mass density, kg/m3	uncertainty
298.15	0.1	1004.554	0.09
298.15	0.3	1018.973	0.096
298.15	0.5	1033.804	0.104
298.15	0.7	1048.963	0.114
298.15	0.9	1064.914	0.123
303.15	0.1	1003.209	0.09
303.15	0.3	1017.71	0.096
303.15	0.5	1032.57	0.105
303.15	0.7	1048.098	0.113
303.15	0.9	1063.794	0.116
308.15	0.1	1001.591	0.089
308.15	0.3	1016.055	0.096
308.15	0.5	1031.294	0.104
308.15	0.7	1046.577	0.102
308.15	0.9	1055.485	10

System: water + lithium dihydrogen phosphate; phases: Liquid
Fixed: Pressure, kPa = 101
Property: Speed of sound, m/s (Liquid); method: Sing-around technique in a fixed-path interferometer
Temperature, K	Molality, mol/kg of lithium dihydrogen phosphate	Speed of sound, m/s	uncertainty
298.15	0.1	1506.48	0.98
298.15	0.3	1525.48	0.99
298.15	0.5	1544.07	1
298.15	0.7	1569.19	5
298.15	0.9	1582.64	1.03
303.15	0.1	1518.46	0.98
303.15	0.3	1536.76	1
303.15	0.5	1554.96	1.01
303.15	0.7	1573.68	1.02
303.15	0.9	1592.96	1.03
308.15	0.1	1528.81	0.99
308.15	0.3	1546.53	1
308.15	0.5	1564.45	1.01
308.15	0.7	1582.62	1.02
308.15	0.9	1593.12	5

System: water + lithium dihydrogen phosphate; phases: Liquid
Fixed: Pressure, kPa = 101
Property: Refractive index (Na D-line) (Liquid); method: Standard Abbe refractometry
Temperature, K	Molality, mol/kg of lithium dihydrogen phosphate	Refractive index (Na D-line)	uncertainty
298.15	0.1	1.3342	0.0004
298.15	0.3	1.3365	0.0004
298.15	0.5	1.3394	0.0004
298.15	0.7	1.3421	0.0004
298.15	0.9	1.3452	0.0004
303.15	0.1	1.3332	0.0004
303.15	0.3	1.3363	0.0004
303.15	0.5	1.339	0.0004
303.15	0.7	1.3418	0.0004
303.15	0.9	1.3448	0.0004
308.15	0.1	1.3327	0.0004
308.15	0.3	1.3355	0.0004
308.15	0.5	1.3387	0.0004
308.15	0.7	1.3414	0.0004
308.15	0.9	1.3444	0.0004
