Measured thermophysical data. Redesigning the rotating-bomb combustion calorimeter
Source: J. Chem. Thermodyn., 2006, 10.1016/j.jct.2005.08.008
Compound 1: sulfuric acid, H2O4S, InChI=1S/H2O4S/c1-5(2,3)4/h(H2,1,2,3,4)
Compound 2: carbon dioxide, CO2, InChI=1S/CO2/c2-1-3
Compound 3: water, H2O, InChI=1S/H2O/h1H2
Compound 4: oxygen, O2, InChI=1S/O2/c1-2
Compound 5: thianthrene, C12H8S2, InChI=1S/C12H8S2/c1-2-6-10-9(5-1)13-11-7-3-4-8-12(11)14-10/h1-8H

Reaction: -1 thianthrene + 2 sulfuric acid + 12 carbon dioxide + 2 water + -17 oxygen
Property: Specific internal energy of reaction at constant volume, J/g
-33462.9
