Measured thermophysical data. Volumetric properties of the nucleosides adenosine, cytidine, and uridine in aqueous solution at T=298.15K and P=(10 to120)MPa
Source: J. Chem. Thermodyn., 2013, 10.1016/j.jct.2012.12.028
Compound 1: .beta.-adenosine, C10H13N5O4, InChI=1S/C10H13N5O4/c11-8-5-9(13-2-12-8)15(3-14-5)10-7(18)6(17)4(1-16)19-10/h2-4,6-7,10,16-18H,1H2,(H2,11,12,13)/t4-,6-,7-,10-/m1/s1
Compound 2: cytidine, C9H13N3O5, InChI=1S/C9H13N3O5/c10-5-1-2-12(9(16)11-5)8-7(15)6(14)4(3-13)17-8/h1-2,4,6-8,13-15H,3H2,(H2,10,11,16)/t4-,6?,7?,8-/m1/s1, purity 99%
Compound 3: uridine, C9H12N2O6, InChI=1S/C9H12N2O6/c12-3-4-6(14)7(15)8(17-4)11-2-1-5(13)10-9(11)16/h1-2,4,6-8,12,14-15H,3H2,(H,10,13,16)/t4-,6?,7?,8-/m1/s1, purity 99%
Compound 4: water, H2O, InChI=1S/H2O/h1H2

System: .beta.-adenosine + water; phases: Liquid
Fixed: Temperature, K = 298.15
Property: Speed of sound, m/s (Liquid); method: Sing-around technique in a fixed-path interferometer
Pressure, kPa	Molality, mol/kg of .beta.-adenosine	Speed of sound, m/s	uncertainty
10000	0.02012	1514.61	1.1
10000	0.01958	1514.58	1.1
10000	0.01931	1514.6	1.1
10000	0.01908	1514.54	1.1
10000	0.01885	1514.54	1.1
10000	0.0184	1514.53	1.1
10000	0.01783	1514.45	1.1
20000	0.02012	1531.39	1.11
20000	0.01958	1531.38	1.11
20000	0.01931	1531.36	1.11
20000	0.01908	1531.34	1.11
20000	0.01885	1531.31	1.11
20000	0.0184	1531.29	1.11
20000	0.01783	1531.26	1.11
40000	0.02012	1564.96	1.12
40000	0.01958	1564.96	1.12
40000	0.01931	1564.97	1.12
40000	0.01908	1564.9	1.12
40000	0.01885	1564.91	1.12
40000	0.0184	1564.89	1.12
40000	0.01783	1564.83	1.12
60000	0.02012	1598.46	1.14
60000	0.01958	1598.46	1.14
60000	0.01931	1598.42	1.14
60000	0.01908	1598.42	1.14
60000	0.01885	1598.41	1.14
60000	0.0184	1598.39	1.14
60000	0.01783	1598.33	1.14
80000	0.02012	1631.79	1.16
80000	0.01958	1631.83	1.16
80000	0.01931	1631.79	1.16
80000	0.01908	1631.78	1.16
80000	0.01885	1631.75	1.16
80000	0.0184	1631.72	1.16
80000	0.01783	1631.66	1.16
100000	0.02012	1664.99	1.18
100000	0.01958	1664.98	1.18
100000	0.01931	1664.95	1.18
100000	0.01908	1664.94	1.18
100000	0.01885	1664.93	1.18
100000	0.0184	1664.92	1.18
100000	0.01783	1664.85	1.18
120000	0.02012	1697.82	1.2
120000	0.01958	1697.81	1.2
120000	0.01931	1697.77	1.2
120000	0.01908	1697.76	1.2
120000	0.01885	1697.74	1.2
120000	0.0184	1697.72	1.2
120000	0.01783	1697.67	1.2

System: cytidine + water; phases: Liquid
Fixed: Temperature, K = 298.15
Property: Speed of sound, m/s (Liquid); method: Sing-around technique in a fixed-path interferometer
Pressure, kPa	Molality, mol/kg of cytidine	Speed of sound, m/s	uncertainty
10000	0.09958	1520.66	1.1
10000	0.08004	1519.23	1.1
10000	0.07003	1518.5	1.1
10000	0.06033	1517.8	1.1
10000	0.05001	1517.04	1.1
10000	0.04195	1516.43	1.1
10000	0.03405	1515.84	1.1
10000	0.0261	1515.26	1.1
20000	0.09958	1537.43	1.11
20000	0.08004	1536.02	1.11
20000	0.07003	1535.3	1.11
20000	0.06033	1534.59	1.11
20000	0.05001	1533.8	1.11
20000	0.04195	1533.22	1.11
20000	0.03405	1532.61	1.11
20000	0.0261	1532.01	1.11
40000	0.09958	1571.05	1.13
40000	0.08004	1569.66	1.13
40000	0.07003	1568.95	1.13
40000	0.06033	1568.2	1.13
40000	0.05001	1567.4	1.12
40000	0.04195	1566.82	1.12
40000	0.03405	1566.2	1.12
40000	0.0261	1565.62	1.12
60000	0.09958	1604.56	1.14
60000	0.08004	1603.14	1.14
60000	0.07003	1602.37	1.14
60000	0.06033	1601.69	1.14
60000	0.05001	1600.87	1.14
60000	0.04195	1600.3	1.14
60000	0.03405	1599.68	1.14
60000	0.0261	1599.08	1.14
80000	0.09958	1637.86	1.16
80000	0.08004	1636.47	1.16
80000	0.07003	1635.75	1.16
80000	0.06033	1635.01	1.16
80000	0.05001	1634.24	1.16
80000	0.04195	1633.63	1.16
80000	0.03405	1633.04	1.16
80000	0.0261	1632.42	1.16
100000	0.09958	1670.94	1.18
100000	0.08004	1669.52	1.18
100000	0.07003	1668.8	1.18
100000	0.06033	1668.09	1.18
100000	0.05001	1667.39	1.18
100000	0.04195	1666.77	1.18
100000	0.03405	1666.21	1.18
100000	0.0261	1665.62	1.18
120000	0.09958	1703.65	1.2
120000	0.08004	1702.33	1.2
120000	0.07003	1701.61	1.2
120000	0.06033	1700.93	1.2
120000	0.05001	1700.15	1.2
120000	0.04195	1699.55	1.2
120000	0.03405	1699	1.2
120000	0.0261	1698.4	1.2

System: uridine + water; phases: Liquid
Fixed: Temperature, K = 298.15
Property: Speed of sound, m/s (Liquid); method: Sing-around technique in a fixed-path interferometer
Pressure, kPa	Molality, mol/kg of uridine	Speed of sound, m/s	uncertainty
10000	0.0993	1519.78	1.1
10000	0.08652	1518.98	1.1
10000	0.07621	1518.3	1.1
10000	0.06552	1517.63	1.1
10000	0.05399	1516.87	1.1
10000	0.05013	1516.59	1.1
10000	0.04342	1516.21	1.1
10000	0.03508	1515.66	1.1
10000	0.02699	1515.1	1.1
20000	0.0993	1536.6	1.11
20000	0.08652	1535.8	1.11
20000	0.07621	1535.12	1.11
20000	0.06552	1534.43	1.11
20000	0.05399	1533.63	1.11
20000	0.05013	1533.45	1.11
20000	0.04342	1532.96	1.11
20000	0.03508	1532.41	1.11
20000	0.02699	1531.88	1.11
40000	0.0993	1570.3	1.13
40000	0.08652	1569.47	1.13
40000	0.07621	1568.81	1.13
40000	0.06552	1568.11	1.13
40000	0.05399	1567.32	1.13
40000	0.05013	1567.02	1.13
40000	0.04342	1566.61	1.12
40000	0.03508	1566.02	1.12
40000	0.02699	1565.47	1.12
60000	0.0993	1603.82	1.15
60000	0.08652	1602.98	1.14
60000	0.07621	1602.27	1.14
60000	0.06552	1601.61	1.14
60000	0.05399	1600.78	1.14
60000	0.05013	1600.5	1.14
60000	0.04342	1600.09	1.14
60000	0.03508	1599.5	1.14
60000	0.02699	1598.97	1.14
80000	0.0993	1637.11	1.16
80000	0.08652	1636.29	1.16
80000	0.07621	1635.63	1.16
80000	0.06552	1634.94	1.16
80000	0.05399	1634.14	1.16
80000	0.05013	1633.88	1.16
80000	0.04342	1633.45	1.16
80000	0.03508	1632.85	1.16
80000	0.02699	1632.3	1.16
100000	0.0993	1670.19	1.18
100000	0.08652	1669.38	1.18
100000	0.07621	1668.69	1.18
100000	0.06552	1668.03	1.18
100000	0.05399	1667.3	1.18
100000	0.05013	1666.99	1.18
100000	0.04342	1666.6	1.18
100000	0.03508	1666.01	1.18
100000	0.02699	1665.5	1.18
120000	0.0993	1703.01	1.2
120000	0.08652	1702.16	1.2
120000	0.07621	1701.51	1.2
120000	0.06552	1700.81	1.2
120000	0.05399	1700.06	1.2
120000	0.05013	1699.77	1.2
120000	0.04342	1699.35	1.2
120000	0.03508	1698.84	1.2
120000	0.02699	1698.27	1.2
