Measured thermophysical data. Volumetric, conductometric and fluorescence probe studies of interactions between glycyl  dipeptides and sodium caprylate in aqueous media
Source: J. Chem. Thermodyn., 2012, 10.1016/j.jct.2012.01.024
Compound 1: glycylglycine, C4H8N2O3, InChI=1S/C4H8N2O3/c5-1-3(7)6-2-4(8)9/h1-2,5H2,(H,6,7)(H,8,9), purity 99%
Compound 2: glycyl-L-valine, C7H14N2O3, InChI=1S/C7H14N2O3/c1-4(2)6(7(11)12)9-5(10)3-8/h4,6H,3,8H2,1-2H3,(H,9,10)(H,11,12)/t6-/m0/s1, purity 99%
Compound 3: glycyl-L-leucine, C8H16N2O3, InChI=1S/C8H16N2O3/c1-5(2)3-6(8(12)13)10-7(11)4-9/h5-6H,3-4,9H2,1-2H3,(H,10,11)(H,12,13)/t6-/m0/s1, purity 99%
Compound 4: sodium octanoate, C8H15NaO2, InChI=1S/C8H16O2.Na/c1-2-3-4-5-6-7-8(9)10;/h2-7H2,1H3,(H,9,10);/q;+1/p-1, purity 99%
Compound 5: water, H2O, InChI=1S/H2O/h1H2

System: sodium octanoate + water; phases: Liquid
Fixed: Pressure, kPa = 101
Fixed: Temperature, K = 298.15
Property: Molar conductivity, S*m2/mol (Liquid); method: Direct current cell with electrodes
Molality, mol/kg of sodium octanoate	Molar conductivity, S*m2/mol	uncertainty
0.0046416	0.006835	2e-06
0.0062968	0.006761	2e-06
0.0080534	0.006702	2e-06
0.0095987	0.00665	2e-06
0.011183	0.006599	2e-06
0.012743	0.006566	1e-06
0.014091	0.006529	2e-06
0.01558	0.006489	2e-06
0.017003	0.006455	1e-06
0.018497	0.006426	1e-06
0.019984	0.006408	1e-06
0.021836	0.006377	1e-06
0.023212	0.006349	1e-06
0.024326	0.006328	1e-06

System: sodium octanoate + water; phases: Liquid
Fixed: Pressure, kPa = 101
Fixed: Temperature, K = 298.15
Property: Mass density, kg/m3 (Liquid); method: Vibrating tube method
Molality, mol/kg of sodium octanoate	Mass density, kg/m3	uncertainty
0.4	1009.108	0.395
0.6	1013.576	0.4
0.8	1017.528	0.405
1	1020.943	0.408

System: glycylglycine + sodium octanoate + water; phases: Liquid
Fixed: Pressure, kPa = 101
Fixed: Temperature, K = 298.15
Property: Molar conductivity, S*m2/mol (Liquid); method: Direct current cell with electrodes
Solvent: Molality, mol/kg of glycylglycine	Molality, mol/kg of sodium octanoate	Molar conductivity, S*m2/mol	uncertainty
0.05	0.0037215	0.006777	2e-06
0.05	0.0051853	0.006719	2e-06
0.05	0.0070409	0.006664	2e-06
0.05	0.0084475	0.006627	1e-06
0.05	0.0098085	0.006597	1e-06
0.05	0.011111	0.006569	2e-06
0.05	0.012553	0.006528	2e-06
0.05	0.014071	0.006492	1e-06
0.05	0.015547	0.006459	1e-06
0.05	0.016984	0.006434	1e-06
0.05	0.018369	0.006399	1e-06
0.05	0.019976	0.006383	1e-06
0.05	0.021195	0.00636	1e-06
0.05	0.022583	0.006336	1e-06
0.05	0.023961	0.006313	1e-06
0.05	0.025221	0.006291	1e-06
0.1	0.0067338	0.006506	2e-06
0.1	0.0083488	0.006464	2e-06
0.1	0.0099636	0.006424	1e-06
0.1	0.011433	0.006399	1e-06
0.1	0.012958	0.006369	2e-06
0.1	0.014601	0.006333	2e-06
0.1	0.016083	0.006305	2e-06
0.1	0.017521	0.006278	2e-06
0.1	0.018884	0.006251	1e-06
0.1	0.02044	0.006234	1e-06
0.1	0.02195	0.006207	1e-06
0.1	0.023328	0.006181	1e-06
0.1	0.024712	0.00616	1e-06
0.15	0.0066937	0.006405	1e-06
0.15	0.0081939	0.006387	1e-06
0.15	0.0096063	0.006353	1e-06
0.15	0.011253	0.006331	1e-06
0.15	0.012723	0.006309	1e-06
0.15	0.014036	0.006284	1e-06
0.15	0.015594	0.006256	1e-06
0.15	0.017157	0.006237	1e-06
0.15	0.018352	0.006222	1e-06
0.15	0.019932	0.006209	1e-06
0.15	0.021289	0.006191	1e-06
0.15	0.022453	0.006175	1e-06
0.15	0.023739	0.006157	1e-06
0.15	0.025002	0.006141	2e-06
0.2	0.0078604	0.006287	1e-06
0.2	0.0093007	0.006257	1e-06
0.2	0.010767	0.006241	1e-06
0.2	0.012252	0.00621	1e-06
0.2	0.013702	0.006186	1e-06
0.2	0.015302	0.006162	1e-06
0.2	0.016733	0.006141	1e-06
0.2	0.018142	0.006118	1e-06
0.2	0.019697	0.006114	1e-06
0.2	0.021002	0.00609	1e-06
0.2	0.022425	0.006071	1e-06
0.2	0.02385	0.006049	1e-06
0.2	0.025299	0.006033	1e-06

System: glycylglycine + sodium octanoate + water; phases: Liquid
Fixed: Pressure, kPa = 101
Fixed: Temperature, K = 298.15
Property: Mass density, kg/m3 (Liquid); method: Vibrating tube method
Solvent: Molality, mol/kg of sodium octanoate	Molality, mol/kg of glycylglycine	Mass density, kg/m3	uncertainty
0.4	0	1009.108	0.395
0.4	0.02049	1010.112	0.396
0.4	0.04535	1011.333	0.398
0.4	0.06198	1012.146	0.399
0.4	0.08601	1013.338	0.4
0.4	0.1015	1014.097	0.401
0.4	0.1519	1016.6	0.404
0.4	0.2015	1019.031	0.406
0.4	0.2497	1021.391	0.409
0.4	0.2859	1023.262	0.411
0.4	0.3318	1025.386	0.413
0.6	0	1013.576	0.4
0.6	0.04063	1015.414	0.402
0.6	0.06476	1016.529	0.403
0.6	0.08365	1017.412	0.404
0.6	0.1039	1018.37	0.406
0.6	0.1537	1020.739	0.408
0.6	0.2054	1023.195	0.411
0.6	0.2517	1025.393	0.413
0.6	0.2938	1027.382	0.416
0.6	0.3308	1029.139	0.418
0.8	0	1017.528	0.405
0.8	0.04341	1019.428	0.407
0.8	0.06327	1020.32	0.408
0.8	0.08658	1021.386	0.409
0.8	0.1053	1022.236	0.41
0.8	0.1523	1024.435	0.412
0.8	0.1992	1026.622	0.415
0.8	0.2359	1028.331	0.417
0.8	0.2792	1030.351	0.419
0.8	0.3263	1032.548	0.421
1	0	1020.943	0.408
1	0.02577	1022.05	0.41
1	0.04389	1022.836	0.41
1	0.06406	1023.734	0.411
1	0.08708	1024.772	0.413
1	0.1042	1025.549	0.414
1	0.153	1027.789	0.416
1	0.2008	1029.975	0.418
1	0.2486	1032.167	0.421
1	0.3188	1035.382	0.425

System: glycyl-L-valine + sodium octanoate + water; phases: Liquid
Fixed: Pressure, kPa = 101
Fixed: Temperature, K = 298.15
Property: Molar conductivity, S*m2/mol (Liquid); method: Direct current cell with electrodes
Solvent: Molality, mol/kg of glycyl-L-valine	Molality, mol/kg of sodium octanoate	Molar conductivity, S*m2/mol	uncertainty
0.05	0.0031709	0.006755	2e-06
0.05	0.004407	0.006694	2e-06
0.05	0.005734	0.006652	2e-06
0.05	0.0073063	0.006603	2e-06
0.05	0.008807	0.006562	1e-06
0.05	0.010237	0.006534	1e-06
0.05	0.011695	0.006497	2e-06
0.05	0.013059	0.006464	2e-06
0.05	0.014442	0.006428	1e-06
0.05	0.016039	0.006397	1e-06
0.05	0.017354	0.006372	1e-06
0.05	0.018724	0.006344	1e-06
0.05	0.019971	0.006337	1e-06
0.05	0.02134	0.006309	1e-06
0.05	0.022843	0.006283	1e-06
0.05	0.024216	0.006257	1e-06
0.05	0.025273	0.006244	1e-06
0.1	0.0039372	0.006454	3e-06
0.1	0.0056098	0.006393	2e-06
0.1	0.0073412	0.006339	2e-06
0.1	0.0088641	0.006292	2e-06
0.1	0.010481	0.006264	2e-06
0.1	0.012039	0.006223	2e-06
0.1	0.013598	0.006192	2e-06
0.1	0.015135	0.006161	2e-06
0.1	0.016517	0.006127	2e-06
0.1	0.01794	0.006103	1e-06
0.1	0.019324	0.006089	1e-06
0.1	0.020768	0.006065	1e-06
0.1	0.022218	0.006043	1e-06
0.1	0.02358	0.006022	1e-06
0.1	0.024856	0.006002	1e-06
0.15	0.0033017	0.006319	1e-06
0.15	0.0049397	0.006271	1e-06
0.15	0.0066349	0.006242	2e-06
0.15	0.0082575	0.006201	2e-06
0.15	0.0097228	0.00615	2e-06
0.15	0.011347	0.006113	2e-06
0.15	0.012921	0.006067	2e-06
0.15	0.014496	0.006038	2e-06
0.15	0.015954	0.006011	1e-06
0.15	0.017337	0.00599	2e-06
0.15	0.018796	0.005959	1e-06
0.15	0.020299	0.005952	1e-06
0.15	0.021646	0.005928	1e-06
0.15	0.022945	0.005906	1e-06
0.15	0.024189	0.00589	1e-06
0.15	0.025206	0.005868	2e-06
0.2	0.0027212	0.006078	1e-06
0.2	0.0042098	0.006042	2e-06
0.2	0.0057916	0.005984	2e-06
0.2	0.0073705	0.005938	2e-06
0.2	0.0088609	0.005894	1e-06
0.2	0.010378	0.005869	1e-06
0.2	0.011839	0.005832	1e-06
0.2	0.013294	0.005806	1e-06
0.2	0.014658	0.005784	1e-06
0.2	0.016067	0.005763	1e-06
0.2	0.01753	0.005734	1e-06
0.2	0.018904	0.005713	1e-06
0.2	0.020327	0.005703	1e-06
0.2	0.021693	0.005684	1e-06
0.2	0.023103	0.005666	1e-06
0.2	0.024141	0.005652	1e-06
0.2	0.025199	0.005643	1e-06

System: glycyl-L-valine + sodium octanoate + water; phases: Liquid
Fixed: Pressure, kPa = 101
Fixed: Temperature, K = 298.15
Property: Mass density, kg/m3 (Liquid); method: Vibrating tube method
Solvent: Molality, mol/kg of sodium octanoate	Molality, mol/kg of glycyl-L-valine	Mass density, kg/m3	uncertainty
0.4	0	1009.108	0.343
0.4	0.02461	1010.223	0.344
0.4	0.04498	1011.144	0.345
0.4	0.0635	1011.985	0.346
0.4	0.08375	1012.894	0.347
0.4	0.1072	1013.949	0.348
0.4	0.155	1016.087	0.35
0.4	0.1751	1016.982	0.351
0.4	0.2186	1018.908	0.353
0.6	0	1013.576	0.347
0.6	0.02844	1014.736	0.348
0.6	0.04518	1015.43	0.349
0.6	0.0627	1016.172	0.35
0.6	0.08518	1017.116	0.351
0.6	0.1075	1018.067	0.352
0.6	0.1319	1019.099	0.353
0.6	0.1512	1019.919	0.354
0.6	0.2021	1022.099	0.356
0.8	0	1017.528	0.351
0.8	0.04284	1019.215	0.353
0.8	0.06448	1020.078	0.354
0.8	0.08444	1020.896	0.354
0.8	0.1113	1021.994	0.356
0.8	0.1625	1024.104	0.358
0.8	0.1894	1025.208	0.359
0.8	0.2313	1026.941	0.361
1	0	1020.943	0.354
1	0.02419	1021.877	0.355
1	0.04065	1022.517	0.356
1	0.06351	1023.417	0.357
1	0.07976	1024.055	0.358
1	0.09883	1024.828	0.358
1	0.1507	1026.917	0.361
1	0.1969	1028.769	0.362
1	0.2473	1030.794	0.364

System: glycyl-L-leucine + sodium octanoate + water; phases: Liquid
Fixed: Pressure, kPa = 101
Fixed: Temperature, K = 298.15
Property: Molar conductivity, S*m2/mol (Liquid); method: Direct current cell with electrodes
Solvent: Molality, mol/kg of glycyl-L-leucine	Molality, mol/kg of sodium octanoate	Molar conductivity, S*m2/mol	uncertainty
0.05	0.0066105	0.006437	2e-06
0.05	0.0083747	0.006387	2e-06
0.05	0.009915	0.006342	2e-06
0.05	0.011382	0.006312	1e-06
0.05	0.012673	0.006282	1e-06
0.05	0.014085	0.00625	1e-06
0.05	0.015255	0.006229	1e-06
0.05	0.016661	0.006189	1e-06
0.05	0.017996	0.006174	1e-06
0.05	0.01945	0.006145	1e-06
0.05	0.020685	0.006138	1e-06
0.05	0.021865	0.006122	1e-06
0.05	0.023056	0.006099	1e-06
0.05	0.024122	0.006084	1e-06
0.05	0.02539	0.006064	1e-06
0.05	0.025969	0.006056	1e-06
0.1	0.0043407	0.006294	1e-06
0.1	0.0056591	0.006273	1e-06
0.1	0.0071814	0.006249	1e-06
0.1	0.0085508	0.006218	1e-06
0.1	0.0099612	0.00618	2e-06
0.1	0.011518	0.006141	2e-06
0.1	0.012943	0.006105	1e-06
0.1	0.014286	0.00608	1e-06
0.1	0.015606	0.006048	1e-06
0.1	0.016936	0.006024	1e-06
0.1	0.018201	0.006001	1e-06
0.1	0.019436	0.005979	1e-06
0.1	0.020725	0.005986	1e-06
0.1	0.022012	0.005963	1e-06
0.1	0.023093	0.005944	1e-06
0.1	0.024381	0.005921	1e-06
0.1	0.025295	0.005909	2e-06
0.15	0.0038185	0.006124	2e-06
0.15	0.0053462	0.006063	1e-06
0.15	0.0068462	0.006038	1e-06
0.15	0.008281	0.006003	1e-06
0.15	0.0097878	0.005979	1e-06
0.15	0.01119	0.00595	1e-06
0.15	0.012727	0.005915	1e-06
0.15	0.014167	0.005889	1e-06
0.15	0.015459	0.005862	1e-06
0.15	0.016742	0.005835	1e-06
0.15	0.018042	0.005813	1e-06
0.15	0.019348	0.005787	1e-06
0.15	0.020588	0.005776	1e-06
0.15	0.021878	0.005759	1e-06
0.15	0.023148	0.005739	1e-06
0.15	0.024379	0.005717	1e-06
0.15	0.025234	0.005705	1e-06
0.2	0.0042196	0.006	1e-06
0.2	0.0057935	0.005962	2e-06
0.2	0.0073612	0.005916	2e-06
0.2	0.0087801	0.005888	1e-06
0.2	0.010202	0.005854	1e-06
0.2	0.011749	0.005822	1e-06
0.2	0.013212	0.005795	1e-06
0.2	0.014616	0.005773	1e-06
0.2	0.016013	0.005751	1e-06
0.2	0.017393	0.005718	1e-06
0.2	0.018776	0.005691	1e-06
0.2	0.020029	0.005676	1e-06
0.2	0.021442	0.005662	1e-06
0.2	0.022769	0.005642	1e-06
0.2	0.024028	0.005626	1e-06
0.2	0.024921	0.005612	1e-06

System: glycyl-L-leucine + sodium octanoate + water; phases: Liquid
Fixed: Pressure, kPa = 101
Fixed: Temperature, K = 298.15
Property: Mass density, kg/m3 (Liquid); method: Vibrating tube method
Solvent: Molality, mol/kg of sodium octanoate	Molality, mol/kg of glycyl-L-leucine	Mass density, kg/m3	uncertainty
0.4	0	1009.108	0.377
0.4	0.02085	1009.967	0.378
0.4	0.04246	1010.853	0.379
0.4	0.06374	1011.723	0.38
0.4	0.08399	1012.549	0.381
0.4	0.1033	1013.331	0.382
0.4	0.1258	1014.236	0.383
0.4	0.1499	1015.198	0.384
0.6	0	1013.576	0.382
0.6	0.0209	1014.338	0.383
0.6	0.04266	1015.132	0.384
0.6	0.064	1015.926	0.384
0.6	0.08375	1016.666	0.385
0.6	0.1071	1017.544	0.386
0.6	0.1289	1018.364	0.387
0.6	0.1499	1019.156	0.388
0.8	0	1017.528	0.386
0.8	0.02147	1018.263	0.387
0.8	0.04257	1018.999	0.388
0.8	0.06249	1019.705	0.388
0.8	0.08368	1020.468	0.389
0.8	0.1017	1021.119	0.39
0.8	0.1228	1021.882	0.391
0.8	0.1479	1022.792	0.392
1	0	1020.943	0.39
1	0.0218	1021.672	0.391
1	0.03996	1022.29	0.391
1	0.06103	1023.014	0.392
1	0.08057	1023.691	0.393
1	0.09985	1024.373	0.393
1	0.1194	1025.059	0.394
1	0.1419	1025.841	0.395
