Measured thermophysical data. Excess molar volumes of (propiophenone + toluene) and estimated density of liquid propiophenone below its melting temperature
Source: J. Chem. Thermodyn., 2006, 10.1016/j.jct.2005.12.008
Compound 1: toluene, C7H8, InChI=1S/C7H8/c1-7-5-3-2-4-6-7/h2-6H,1H3, purity 99.9%
Compound 2: ethyl phenyl ketone, C9H10O, InChI=1S/C9H10O/c1-2-9(10)8-6-4-3-5-7-8/h3-7H,2H2,1H3, purity 99%

System: toluene; phases: Liquid
Property: Refractive index (Na D-line) (Liquid); method: Standard Abbe refractometry
Temperature, K	Pressure, kPa	Refractive index (Na D-line)	uncertainty
298.15	101.325	1.4941	0.0007

System: toluene; phases: Liquid
Fixed: Pressure, kPa = 101
Property: Mass density, kg/m3 (Liquid); method: VIBTUB:UFactor:8
Temperature, K	Mass density, kg/m3	uncertainty
283.15	876.21	0.64
288.15	871.55	0.65
308.15	852.89	0.71
318.15	843.59	0.74

System: ethyl phenyl ketone; phases: Liquid
Property: Refractive index (Na D-line) (Liquid); method: Standard Abbe refractometry
Temperature, K	Pressure, kPa	Refractive index (Na D-line)	uncertainty
298.15	101.325	1.5245	0.0008

System: ethyl phenyl ketone; phases: Liquid
Fixed: Pressure, kPa = 101
Property: Mass density, kg/m3 (Liquid); method: VIBTUB:UFactor:8
Temperature, K	Mass density, kg/m3	uncertainty
283.15	1018.11	0.6
288.15	1013.88	0.59
308.15	996.72	0.57
318.15	988.12	0.58

System: ethyl phenyl ketone + toluene; phases: Liquid
Fixed: Pressure, kPa = 101
Property: Mass density, kg/m3 (Liquid); method: VIBTUB:UFactor:8
Temperature, K	Mole fraction of toluene	Mass density, kg/m3	uncertainty
283.15	0	1018.11	0.6
283.15	0.08673	1008.58	0.55
283.15	0.18445	997.38	0.49
283.15	0.27317	986.7	0.48
283.15	0.36164	975.58	0.47
283.15	0.45056	963.83	0.46
283.15	0.54683	950.48	0.47
283.15	0.62899	938.47	0.49
283.15	0.72097	924.31	0.51
283.15	0.82098	908.02	0.55
283.15	0.90606	893.36	0.59
283.15	1	876.21	0.64
288.15	0	1013.88	0.59
288.15	0.08673	1004.3	0.54
288.15	0.18445	993.05	0.5
288.15	0.27317	982.36	0.48
288.15	0.36164	971.2	0.47
288.15	0.45056	959.43	0.47
288.15	0.54683	946.03	0.48
288.15	0.62899	934	0.5
288.15	0.72097	919.77	0.53
288.15	0.82098	903.44	0.56
288.15	0.90606	888.73	0.6
288.15	1	871.55	0.65
308.15	0	996.72	0.57
308.15	0.09627	986	0.54
308.15	0.1951	974.5	0.52
308.15	0.27279	965.02	0.51
308.15	0.36794	952.88	0.51
308.15	0.45531	941.15	0.52
308.15	0.55196	927.5	0.53
308.15	0.6391	914.53	0.55
308.15	0.72788	900.61	0.58
308.15	0.81567	886.08	0.62
308.15	0.90229	870.96	0.66
308.15	1	852.89	0.71
318.15	0	988.12	0.58
318.15	0.09627	977.38	0.55
318.15	0.1951	965.84	0.54
318.15	0.27279	956.32	0.53
318.15	0.36794	944.15	0.53
318.15	0.45531	932.38	0.54
318.15	0.55196	918.67	0.56
318.15	0.6391	905.63	0.58
318.15	0.72788	891.63	0.61
318.15	0.81567	877.01	0.65
318.15	0.90229	861.77	0.69
318.15	1	843.59	0.74
