Measured thermophysical data. High-pressure phase equilibrium data for systems containing carbon dioxide, omega-pentadecalactone, chloroform and water
Source: J. Chem. Thermodyn., 2018, 10.1016/j.jct.2018.03.008
Compound 1: oxacyclohexadecan-2-one, C15H28O2, InChI=1S/C15H28O2/c16-15-13-11-9-7-5-3-1-2-4-6-8-10-12-14-17-15/h1-14H2, purity 98%
Compound 2: carbon dioxide, CO2, InChI=1S/CO2/c2-1-3, purity 99.9%
Compound 3: water, H2O, InChI=1S/H2O/h1H2, purity 99.8%

System: oxacyclohexadecan-2-one + carbon dioxide + water; phases: Liquid, Gas
Property: Vapor or sublimation pressure, kPa (Liquid); method: Closed cell (Static) method
Temperature, K	Mass fraction of carbon dioxide	Solvent: Mass fraction of water	Vapor or sublimation pressure, kPa	uncertainty
313	0.1829	0.021	6770	520
323	0.1829	0.021	7730	520
333	0.1829	0.021	8660	520
343	0.1829	0.021	9940	530
313	0.2532	0.021	8300	530
323	0.2532	0.021	9570	540
333	0.2532	0.021	11130	550
343	0.2532	0.021	12860	560
313	0.3542	0.021	10140	560
323	0.3542	0.021	12460	580
333	0.3542	0.021	15050	580
343	0.3542	0.021	17470	590
313	0.4226	0.021	11880	580
323	0.4226	0.021	14720	610
333	0.4226	0.021	17440	600
343	0.4226	0.021	19910	610
313	0.4647	0.021	13760	600
323	0.4647	0.021	16580	600
333	0.4647	0.021	19540	600
343	0.4647	0.021	22090	570
313	0.5091	0.021	15030	600
323	0.5091	0.021	18260	610
333	0.5091	0.021	20900	590
343	0.5091	0.021	23690	590
313	0.5614	0.021	17080	620
323	0.5614	0.021	20210	580
333	0.5614	0.021	22420	570
343	0.5614	0.021	25050	570
313	0.6221	0.021	18100	590
323	0.6221	0.021	20980	590
333	0.6221	0.021	23950	570
343	0.6221	0.021	26100	560
313	0.1851	0.0056	5400	510
323	0.1851	0.0056	6270	510
333	0.1851	0.0056	7180	510
343	0.1851	0.0056	8160	520
313	0.254	0.0056	6780	520
323	0.254	0.0056	7690	520
333	0.254	0.0056	8970	520
343	0.254	0.0056	10320	530
313	0.3538	0.0056	8170	530
323	0.3538	0.0056	10270	550
333	0.3538	0.0056	12390	550
343	0.3538	0.0056	13980	550
313	0.4229	0.0056	10000	530
323	0.4229	0.0056	11800	550
333	0.4229	0.0056	14230	570
343	0.4229	0.0056	16950	600
313	0.461	0.0056	11430	560
323	0.461	0.0056	13860	570
333	0.461	0.0056	16650	590
343	0.461	0.0056	19500	570
313	0.5058	0.0056	13090	560
323	0.5058	0.0056	15360	570
333	0.5058	0.0056	18260	580
343	0.5058	0.0056	20750	590
313	0.5616	0.0056	14910	610
323	0.5616	0.0056	18000	590
333	0.5616	0.0056	20760	580
343	0.5616	0.0056	23560	560
313	0.6221	0.0056	16150	610
323	0.6221	0.0056	19210	590
333	0.6221	0.0056	22060	580
343	0.6221	0.0056	24820	570
313	0.6933	0.0056	16650	590
323	0.6933	0.0056	19600	590
333	0.6933	0.0056	22630	590
343	0.6933	0.0056	25430	580

System: oxacyclohexadecan-2-one + carbon dioxide + water; phases: Gas, Liquid
Property: Vapor or sublimation pressure, kPa (Gas); method: Closed cell (Static) method
Temperature, K	Mass fraction of carbon dioxide	Solvent: Mass fraction of water	Vapor or sublimation pressure, kPa	uncertainty
313	0.6937	0.021	19330	580
323	0.6937	0.021	22100	570
333	0.6937	0.021	24730	570
313	0.7756	0.021	17800	560
323	0.7756	0.021	19860	560
333	0.7756	0.021	22540	570
343	0.7756	0.021	25050	560
313	0.8241	0.021	16300	560
323	0.8241	0.021	18600	560
333	0.8241	0.021	21450	570
343	0.8241	0.021	23810	550
313	0.8769	0.021	14490	570
323	0.8769	0.021	16820	560
333	0.8769	0.021	19480	570
343	0.8769	0.021	22110	550
313	0.9477	0.021	10580	570
323	0.9477	0.021	13330	570
333	0.9477	0.021	15990	570
343	0.9477	0.021	18550	550
313	0.9731	0.021	9100	560
323	0.9731	0.021	11580	560
333	0.9731	0.021	13880	560
343	0.9731	0.021	16220	560
313	0.7765	0.0056	16380	580
323	0.7765	0.0056	19250	580
333	0.7765	0.0056	22100	580
343	0.7765	0.0056	24970	580
313	0.8243	0.0056	15420	600
323	0.8243	0.0056	18520	580
333	0.8243	0.0056	21450	560
343	0.8243	0.0056	23490	550
313	0.8767	0.0056	13960	600
323	0.8767	0.0056	16910	580
333	0.8767	0.0056	19730	570
343	0.8767	0.0056	22110	540
313	0.9474	0.0056	10700	580
323	0.9474	0.0056	13390	560
333	0.9474	0.0056	15860	560
343	0.9474	0.0056	18500	550
313	0.973	0.0056	9100	560
323	0.973	0.0056	11580	560
333	0.973	0.0056	13880	560
343	0.973	0.0056	16320	560
