Measured thermophysical data. Study on thermodynamic properties of a new air and water stable ionic liquid based on metal rhenium
Source: J. Chem. Thermodyn., 2010, 10.1016/j.jct.2010.02.010
Compound 1: 1-butylpyridinium perrhenate, C9H14NO4Re, InChI=1S/C9H14N.4O.Re/c1-2-3-7-10-8-5-4-6-9-10;;;;;/h4-6,8-9H,2-3,7H2,1H3;;;;;/q+1;;;;-1;

System: 1-butylpyridinium perrhenate; phases: Glass, Liquid, Air at 1 atmosphere
Property: Triple point temperature, K (Glass); method: DTA
Triple point temperature, K	uncertainty
207	1

System: 1-butylpyridinium perrhenate; phases: Liquid
Fixed: Pressure, kPa = 101.325
Property: Mass density, kg/m3 (Liquid); method: Buoyancy - hydrostatic balance
Temperature, K	Mass density, kg/m3	uncertainty
293.15	1910.1	8.1
298.15	1902.5	8.1
303.15	1894.9	8
308.15	1886.9	8
313.15	1881.8	8
318.15	1877.6	7.9
323.15	1869.2	7.9
328.15	1862.7	7.9
333.15	1856.9	7.9
338.15	1853.2	7.8
343.15	1846.8	7.8

System: 1-butylpyridinium perrhenate; phases: Liquid, Air at 1 atmosphere
Property: Surface tension liquid-gas, N/m (Liquid); method: Maximal bubble pressure
Temperature, K	Surface tension liquid-gas, N/m	uncertainty
293.15	0.0416	0.0006
298.15	0.0412	0.0006
303.15	0.0407	0.0006
308.15	0.0405	0.0006
313.15	0.04	0.0006
318.15	0.0397	0.0006
323.15	0.0394	0.0006
328.15	0.039	0.0006
333.15	0.0386	0.0006
338.15	0.0383	0.0006
343.15	0.0382	0.0006
