Measured thermophysical data. Vaporization enthalpies of imidazolium based ionic liquids. A thermogravimetric study of the alkyl chain length dependence
Source: J. Chem. Thermodyn., 2012, 10.1016/j.jct.2012.05.029
Compound 1: 1-butyl-3-methylimidazolium bis(trifluoromethylsulfonyl)imide, C10H15F6N3O4S2, InChI=1S/C8H15N2.C2F6NO4S2/c1-3-4-5-10-7-6-9(2)8-10;3-1(4,5)14(10,11)9-15(12,13)2(6,7)8/h6-8H,3-5H2,1-2H3;/q+1;-1, purity 99%
Compound 2: 1-hexyl-3-methylimidazolium bis[(trifluoromethyl)sulfonyl]imide, C12H19F6N3O4S2, InChI=1S/C10H19N2.C2F6NO4S2/c1-3-4-5-6-7-12-9-8-11(2)10-12;3-1(4,5)14(10,11)9-15(12,13)2(6,7)8/h8-10H,3-7H2,1-2H3;/q+1;-1, purity 99%
Compound 3: 1-octyl-3-methylimidazolium bis[(trifluoromethyl)sulfonyl]imide, C14H23F6N3O4S2, InChI=1S/C12H23N2.C2F6NO4S2/c1-3-4-5-6-7-8-9-14-11-10-13(2)12-14;3-1(4,5)14(10,11)9-15(12,13)2(6,7)8/h10-12H,3-9H2,1-2H3;/q+1;-1, purity 99%
Compound 4: 1-decyl-3-methylimidazolium bis(trifluoromethylsulfonyl)amide, C16H27F6N3O4S2, InChI=1S/C14H27N2.C2F6NO4S2/c1-3-4-5-6-7-8-9-10-11-16-13-12-15(2)14-16;3-1(4,5)14(10,11)9-15(12,13)2(6,7)8/h12-14H,3-11H2,1-2H3;/q+1;-1, purity 99%
Compound 5: 1-dodecyl-3-methyl-1H-imidazolium bis(trifluoromethylsulfonyl)amide, C18H31F6N3O4S2, InChI=1S/C16H31N2.C2F6NO4S2/c1-3-4-5-6-7-8-9-10-11-12-13-18-15-14-17(2)16-18;3-1(4,5)14(10,11)9-15(12,13)2(6,7)8/h14-16H,3-13H2,1-2H3;/q+1;-1, purity 99%
Compound 6: 1-tetradecyl-3-methylimidazolium bis(trifluoromethylsulfonyl)imide, C20H35F6N3O4S2, InChI=1S/C18H35N2.C2F6NO4S2/c1-3-4-5-6-7-8-9-10-11-12-13-14-15-20-17-16-19(2)18-20;3-1(4,5)14(10,11)9-15(12,13)2(6,7)8/h16-18H,3-15H2,1-2H3;/q+1;-1, purity 99%
Compound 7: 3-hexadecyl-1-methyl-1H-imidazolium bis((trifluoromethyl)sulfonyl)amide, C22H39F6N3O4S2, InChI=1S/C20H39N2.C2F6NO4S2/c1-3-4-5-6-7-8-9-10-11-12-13-14-15-16-17-22-19-18-21(2)20-22;3-1(4,5)14(10,11)9-15(12,13)2(6,7)8/h18-20H,3-17H2,1-2H3;/q+1;-1, purity 99%
Compound 8: 3-methyl-1-octadecyl-1H-imidazolium bis((trifluoromethyl)sulfonyl)amide, C24H43F6N3O4S2, InChI=1S/C22H43N2.C2F6NO4S2/c1-3-4-5-6-7-8-9-10-11-12-13-14-15-16-17-18-19-24-21-20-23(2)22-24;3-1(4,5)14(10,11)9-15(12,13)2(6,7)8/h20-22H,3-19H2,1-2H3;/q+1;-1, purity 99%

System: 1-butyl-3-methylimidazolium bis(trifluoromethylsulfonyl)imide; phases: Liquid, Gas
Property: Molar enthalpy of vaporization or sublimation, kJ/mol (Liquid); method: Thermogravimetric Analysis
Temperature, K	Molar enthalpy of vaporization or sublimation, kJ/mol	uncertainty
541.8	113.5	3

System: 1-hexyl-3-methylimidazolium bis[(trifluoromethyl)sulfonyl]imide; phases: Liquid, Gas
Property: Molar enthalpy of vaporization or sublimation, kJ/mol (Liquid); method: Thermogravimetric Analysis
Temperature, K	Molar enthalpy of vaporization or sublimation, kJ/mol	uncertainty
541.8	118	3

System: 1-octyl-3-methylimidazolium bis[(trifluoromethyl)sulfonyl]imide; phases: Liquid, Gas
Property: Molar enthalpy of vaporization or sublimation, kJ/mol (Liquid); method: Thermogravimetric Analysis
Temperature, K	Molar enthalpy of vaporization or sublimation, kJ/mol	uncertainty
541.8	122.6	3

System: 1-decyl-3-methylimidazolium bis(trifluoromethylsulfonyl)amide; phases: Liquid, Gas
Property: Molar enthalpy of vaporization or sublimation, kJ/mol (Liquid); method: Thermogravimetric Analysis
Temperature, K	Molar enthalpy of vaporization or sublimation, kJ/mol	uncertainty
522	125.2	3

System: 1-dodecyl-3-methyl-1H-imidazolium bis(trifluoromethylsulfonyl)amide; phases: Liquid, Gas
Property: Molar enthalpy of vaporization or sublimation, kJ/mol (Liquid); method: Thermogravimetric Analysis
Temperature, K	Molar enthalpy of vaporization or sublimation, kJ/mol	uncertainty
533.5	126	3

System: 1-tetradecyl-3-methylimidazolium bis(trifluoromethylsulfonyl)imide; phases: Liquid, Gas
Property: Molar enthalpy of vaporization or sublimation, kJ/mol (Liquid); method: Thermogravimetric Analysis
Temperature, K	Molar enthalpy of vaporization or sublimation, kJ/mol	uncertainty
541.8	132.7	3

System: 3-hexadecyl-1-methyl-1H-imidazolium bis((trifluoromethyl)sulfonyl)amide; phases: Liquid, Gas
Property: Molar enthalpy of vaporization or sublimation, kJ/mol (Liquid); method: Thermogravimetric Analysis
Temperature, K	Molar enthalpy of vaporization or sublimation, kJ/mol	uncertainty
541.8	136.4	3

System: 3-methyl-1-octadecyl-1H-imidazolium bis((trifluoromethyl)sulfonyl)amide; phases: Liquid, Gas
Property: Molar enthalpy of vaporization or sublimation, kJ/mol (Liquid); method: Thermogravimetric Analysis
Temperature, K	Molar enthalpy of vaporization or sublimation, kJ/mol	uncertainty
582.5	138.5	3
