Measured thermophysical data. Physicochemical study of (solute + solute) and (solute + solvent) interactions of L-asparagine and L-glutamine in aqueous-D-mannose solutions at temperatures from (293.15 to 318.15) K
Source: J. Chem. Thermodyn., 2016, 10.1016/j.jct.2015.11.014
Compound 1: L-asparagine, C4H8N2O3, InChI=1S/C4H8N2O3/c5-2(4(8)9)1-3(6)7/h2H,1,5H2,(H2,6,7)(H,8,9)/t2-/m0/s1, purity 99%
Compound 2: L-glutamine, C5H10N2O3, InChI=1S/C5H10N2O3/c6-3(5(9)10)1-2-4(7)8/h3H,1-2,6H2,(H2,7,8)(H,9,10)/t3-/m0/s1, purity 99%
Compound 3: D-mannose, C6H12O6, InChI=1S/C6H12O6/c7-1-3(9)5(11)6(12)4(10)2-8/h1,3-6,8-12H,2H2/t3-,4-,5-,6-/m1/s1, purity 99%
Compound 4: water, H2O, InChI=1S/H2O/h1H2

System: L-asparagine + D-mannose + water; phases: Liquid
Fixed: Pressure, kPa = 101
Property: Mass density, kg/m3 (Liquid); method: Pycnometric method
Solvent: Mass fraction of D-mannose	Temperature, K	Molality, mol/kg of L-asparagine	Mass density, kg/m3	uncertainty
0	293.15	0	998.24	1.68
0	293.15	0.025	999.6	1.68
0	293.15	0.05	1000.96	1.68
0	293.15	0.075	1002.32	1.68
0	293.15	0.1	1003.68	1.68
0	293.15	0.125	1005.03	1.68
0	293.15	0.15	1006.39	1.68
0	298.15	0	997.07	1.68
0	298.15	0.025	998.43	1.68
0	298.15	0.05	999.79	1.68
0	298.15	0.075	1001.15	1.68
0	298.15	0.1	1002.51	1.68
0	298.15	0.125	1003.87	1.69
0	298.15	0.15	1005.23	1.69
0	303.15	0	995.68	1.69
0	303.15	0.025	997.04	1.69
0	303.15	0.05	998.4	1.69
0	303.15	0.075	999.76	1.69
0	303.15	0.1	1001.12	1.69
0	303.15	0.125	1002.48	1.69
0	303.15	0.15	1003.85	1.69
0	308.15	0	994.07	1.69
0	308.15	0.025	995.43	1.69
0	308.15	0.05	996.79	1.69
0	308.15	0.075	998.15	1.69
0	308.15	0.1	999.51	1.69
0	308.15	0.125	1000.87	1.69
0	308.15	0.15	1002.23	1.69
0	313.15	0	992.25	1.69
0	313.15	0.025	993.61	1.69
0	313.15	0.05	994.97	1.69
0	313.15	0.075	996.33	1.69
0	313.15	0.1	997.69	1.69
0	313.15	0.125	999.04	1.69
0	313.15	0.15	1000.4	1.69
0	318.15	0	990.24	1.69
0	318.15	0.025	991.6	1.69
0	318.15	0.05	992.96	1.69
0	318.15	0.075	994.32	1.69
0	318.15	0.1	995.68	1.69
0	318.15	0.125	997.04	1.69
0	318.15	0.15	998.4	1.69
0.025	293.15	0	1007.37	1.68
0.025	293.15	0.025	1008.66	1.69
0.025	293.15	0.05	1009.95	1.69
0.025	293.15	0.075	1011.25	1.69
0.025	293.15	0.1	1012.54	1.69
0.025	293.15	0.125	1013.83	1.69
0.025	293.15	0.15	1015.12	1.69
0.025	298.15	0	1006.22	1.69
0.025	298.15	0.025	1007.51	1.69
0.025	298.15	0.05	1008.8	1.69
0.025	298.15	0.075	1010.09	1.69
0.025	298.15	0.1	1011.39	1.69
0.025	298.15	0.125	1012.68	1.69
0.025	298.15	0.15	1013.97	1.69
0.025	303.15	0	1004.85	1.69
0.025	303.15	0.025	1006.14	1.69
0.025	303.15	0.05	1007.43	1.69
0.025	303.15	0.075	1008.73	1.69
0.025	303.15	0.1	1010.02	1.69
0.025	303.15	0.125	1011.32	1.69
0.025	303.15	0.15	1012.61	1.69
0.025	308.15	0	1003.27	1.69
0.025	308.15	0.025	1004.56	1.69
0.025	308.15	0.05	1005.86	1.69
0.025	308.15	0.075	1007.15	1.69
0.025	308.15	0.1	1008.44	1.69
0.025	308.15	0.125	1009.74	1.69
0.025	308.15	0.15	1011.03	1.69
0.025	313.15	0	1001.49	1.69
0.025	313.15	0.025	1002.78	1.69
0.025	313.15	0.05	1004.08	1.69
0.025	313.15	0.075	1005.38	1.69
0.025	313.15	0.1	1006.67	1.69
0.025	313.15	0.125	1007.97	1.69
0.025	313.15	0.15	1009.27	1.69
0.025	318.15	0	999.51	1.69
0.025	318.15	0.025	1000.81	1.69
0.025	318.15	0.05	1002.1	1.69
0.025	318.15	0.075	1003.4	1.69
0.025	318.15	0.1	1004.71	1.69
0.025	318.15	0.125	1006.01	1.69
0.025	318.15	0.15	1007.32	1.69
0.05	293.15	0	1015.89	1.69
0.05	293.15	0.025	1017.12	1.69
0.05	293.15	0.05	1018.35	1.69
0.05	293.15	0.075	1019.58	1.69
0.05	293.15	0.1	1020.8	1.69
0.05	293.15	0.125	1022.02	1.69
0.05	293.15	0.15	1023.25	1.69
0.05	298.15	0	1014.78	1.69
0.05	298.15	0.025	1016.01	1.69
0.05	298.15	0.05	1017.24	1.69
0.05	298.15	0.075	1018.47	1.69
0.05	298.15	0.1	1019.7	1.69
0.05	298.15	0.125	1020.92	1.69
0.05	298.15	0.15	1022.15	1.69
0.05	303.15	0	1013.47	1.69
0.05	303.15	0.025	1014.7	1.69
0.05	303.15	0.05	1015.93	1.69
0.05	303.15	0.075	1017.16	1.69
0.05	303.15	0.1	1018.39	1.69
0.05	303.15	0.125	1019.62	1.69
0.05	303.15	0.15	1020.85	1.69
0.05	308.15	0	1011.95	1.69
0.05	308.15	0.025	1013.18	1.69
0.05	308.15	0.05	1014.41	1.69
0.05	308.15	0.075	1015.64	1.69
0.05	308.15	0.1	1016.87	1.69
0.05	308.15	0.125	1018.1	1.69
0.05	308.15	0.15	1019.33	1.69
0.05	313.15	0	1010.24	1.69
0.05	313.15	0.025	1011.47	1.69
0.05	313.15	0.05	1012.7	1.69
0.05	313.15	0.075	1013.94	1.69
0.05	313.15	0.1	1015.17	1.69
0.05	313.15	0.125	1016.4	1.69
0.05	313.15	0.15	1017.64	1.69
0.05	318.15	0	1008.32	1.69
0.05	318.15	0.025	1009.55	1.69
0.05	318.15	0.05	1010.78	1.69
0.05	318.15	0.075	1012.02	1.69
0.05	318.15	0.1	1013.25	1.69
0.05	318.15	0.125	1014.49	1.7
0.05	318.15	0.15	1015.72	1.7

System: L-asparagine + D-mannose + water; phases: Liquid
Fixed: Pressure, kPa = 101
Fixed: Frequency, MHz = 3
Property: Speed of sound, m/s (Liquid); method: Linear variable-path acoustic interferometer
Solvent: Mass fraction of D-mannose	Temperature, K	Molality, mol/kg of L-asparagine	Speed of sound, m/s	uncertainty
0	293.15	0	1483.6	3.7
0	293.15	0.025	1485.8	3.7
0	293.15	0.05	1487.7	3.7
0	293.15	0.075	1489.1	3.7
0	293.15	0.1	1490.3	3.7
0	293.15	0.125	1491.1	3.7
0	293.15	0.15	1491.5	3.7
0	298.15	0	1496.9	3.7
0	298.15	0.025	1499.1	3.7
0	298.15	0.05	1500.9	3.7
0	298.15	0.075	1502.4	3.7
0	298.15	0.1	1503.5	3.7
0	298.15	0.125	1504.2	3.7
0	298.15	0.15	1504.5	3.7
0	303.15	0	1508.4	3.7
0	303.15	0.025	1510.5	3.7
0	303.15	0.05	1512.3	3.7
0	303.15	0.075	1513.7	3.7
0	303.15	0.1	1514.7	3.7
0	303.15	0.125	1515.3	3.7
0	303.15	0.15	1515.5	3.7
0	308.15	0	1519.8	3.7
0	308.15	0.025	1521.9	3.7
0	308.15	0.05	1523.6	3.7
0	308.15	0.075	1524.9	3.7
0	308.15	0.1	1525.8	3.7
0	308.15	0.125	1526.3	3.7
0	308.15	0.15	1526.4	3.7
0	313.15	0	1526.8	3.7
0	313.15	0.025	1528.8	3.7
0	313.15	0.05	1530.4	3.7
0	313.15	0.075	1531.5	3.7
0	313.15	0.1	1532.3	3.7
0	313.15	0.125	1532.7	3.7
0	313.15	0.15	1532.7	3.7
0	318.15	0	1533	3.7
0	318.15	0.025	1534.8	3.7
0	318.15	0.05	1536.3	3.7
0	318.15	0.075	1537.4	3.7
0	318.15	0.1	1538	3.7
0	318.15	0.125	1538.3	3.7
0	318.15	0.15	1538.2	3.7
0.025	293.15	0	1500.2	3.7
0.025	293.15	0.025	1502.1	3.7
0.025	293.15	0.05	1503.7	3.7
0.025	293.15	0.075	1504.9	3.7
0.025	293.15	0.1	1505.8	3.7
0.025	293.15	0.125	1506.4	3.7
0.025	293.15	0.15	1506.6	3.7
0.025	298.15	0	1508.3	3.7
0.025	298.15	0.025	1510.2	3.7
0.025	298.15	0.05	1511.7	3.7
0.025	298.15	0.075	1512.9	3.7
0.025	298.15	0.1	1513.8	3.7
0.025	298.15	0.125	1514.3	3.7
0.025	298.15	0.15	1514.5	3.7
0.025	303.15	0	1517.8	3.7
0.025	303.15	0.025	1519.6	3.7
0.025	303.15	0.05	1521.1	3.7
0.025	303.15	0.075	1522.3	3.7
0.025	303.15	0.1	1523.1	3.7
0.025	303.15	0.125	1523.5	3.7
0.025	303.15	0.15	1523.6	3.7
0.025	308.15	0	1527.4	3.7
0.025	308.15	0.025	1529.2	3.7
0.025	308.15	0.05	1530.6	3.7
0.025	308.15	0.075	1531.7	3.7
0.025	308.15	0.1	1532.5	3.7
0.025	308.15	0.125	1532.9	3.7
0.025	308.15	0.15	1532.9	3.7
0.025	313.15	0	1537	3.7
0.025	313.15	0.025	1538.7	3.7
0.025	313.15	0.05	1540.1	3.7
0.025	313.15	0.075	1541.1	3.7
0.025	313.15	0.1	1541.8	3.7
0.025	313.15	0.125	1542.2	3.7
0.025	313.15	0.15	1542.1	3.7
0.025	318.15	0	1546.6	3.7
0.025	318.15	0.025	1548.2	3.7
0.025	318.15	0.05	1549.5	3.7
0.025	318.15	0.075	1550.5	3.7
0.025	318.15	0.1	1551.1	3.7
0.025	318.15	0.125	1551.3	3.7
0.025	318.15	0.15	1551.2	3.7
0.05	293.15	0	1508.3	3.7
0.05	293.15	0.025	1509.9	3.7
0.05	293.15	0.05	1511.3	3.7
0.05	293.15	0.075	1512.3	3.7
0.05	293.15	0.1	1512.9	3.7
0.05	293.15	0.125	1513.3	3.7
0.05	293.15	0.15	1513.3	3.7
0.05	298.15	0	1516.6	3.7
0.05	298.15	0.025	1518.2	3.7
0.05	298.15	0.05	1519.5	3.7
0.05	298.15	0.075	1520.5	3.7
0.05	298.15	0.1	1521.1	3.7
0.05	298.15	0.125	1521.4	3.7
0.05	298.15	0.15	1521.3	3.7
0.05	303.15	0	1525.2	3.7
0.05	303.15	0.025	1526.8	3.7
0.05	303.15	0.05	1528	3.7
0.05	303.15	0.075	1528.9	3.7
0.05	303.15	0.1	1529.5	3.7
0.05	303.15	0.125	1529.7	3.7
0.05	303.15	0.15	1529.6	3.7
0.05	308.15	0	1534.1	3.7
0.05	308.15	0.025	1535.6	3.7
0.05	308.15	0.05	1536.8	3.7
0.05	308.15	0.075	1537.7	3.7
0.05	308.15	0.1	1538.2	3.7
0.05	308.15	0.125	1538.3	3.7
0.05	308.15	0.15	1538.2	3.7
0.05	313.15	0	1542.2	3.7
0.05	313.15	0.025	1543.7	3.7
0.05	313.15	0.05	1544.8	3.7
0.05	313.15	0.075	1545.6	3.7
0.05	313.15	0.1	1546	3.7
0.05	313.15	0.125	1546.1	3.7
0.05	313.15	0.15	1545.8	3.7
0.05	318.15	0	1551.3	3.7
0.05	318.15	0.025	1552.7	3.7
0.05	318.15	0.05	1553.7	3.7
0.05	318.15	0.075	1554.4	3.7
0.05	318.15	0.1	1554.8	3.7
0.05	318.15	0.125	1554.9	3.7
0.05	318.15	0.15	1554.5	3.7

System: L-asparagine + D-mannose + water; phases: Liquid
Fixed: Pressure, kPa = 101
Property: Viscosity, Pa*s (Liquid); method: Capillary tube (Ostwald; Ubbelohde) method
Solvent: Mass fraction of D-mannose	Temperature, K	Molality, mol/kg of L-asparagine	Viscosity, Pa*s	uncertainty
0	293.15	0	0.0010019	2.3e-05
0	293.15	0.025	0.0010099	2.31e-05
0	293.15	0.05	0.0010176	2.33e-05
0	293.15	0.075	0.0010254	2.35e-05
0	293.15	0.1	0.0010332	2.37e-05
0	293.15	0.125	0.0010409	2.38e-05
0	293.15	0.15	0.0010487	2.4e-05
0	298.15	0	0.0008903	2.04e-05
0	298.15	0.025	0.0008972	2.06e-05
0	298.15	0.05	0.0009037	2.07e-05
0	298.15	0.075	0.0009104	2.09e-05
0	298.15	0.1	0.000917	2.1e-05
0	298.15	0.125	0.0009236	2.12e-05
0	298.15	0.15	0.0009301	2.13e-05
0	303.15	0	0.0007973	1.83e-05
0	303.15	0.025	0.0008033	1.84e-05
0	303.15	0.05	0.0008089	1.86e-05
0	303.15	0.075	0.0008146	1.87e-05
0	303.15	0.1	0.0008202	1.88e-05
0	303.15	0.125	0.0008258	1.9e-05
0	303.15	0.15	0.0008314	1.91e-05
0	308.15	0	0.000719	1.65e-05
0	308.15	0.025	0.0007243	1.66e-05
0	308.15	0.05	0.0007292	1.68e-05
0	308.15	0.075	0.000734	1.69e-05
0	308.15	0.1	0.0007388	1.7e-05
0	308.15	0.125	0.0007436	1.71e-05
0	308.15	0.15	0.0007484	1.72e-05
0	313.15	0	0.0006526	1.5e-05
0	313.15	0.025	0.0006573	1.51e-05
0	313.15	0.05	0.0006615	1.52e-05
0	313.15	0.075	0.0006657	1.53e-05
0	313.15	0.1	0.0006699	1.54e-05
0	313.15	0.125	0.000674	1.55e-05
0	313.15	0.15	0.0006782	1.56e-05
0	318.15	0	0.0005972	1.38e-05
0	318.15	0.025	0.0006013	1.38e-05
0	318.15	0.05	0.000605	1.39e-05
0	318.15	0.075	0.0006087	1.4e-05
0	318.15	0.1	0.0006123	1.41e-05
0	318.15	0.125	0.0006159	1.42e-05
0	318.15	0.15	0.0006195	1.43e-05
0.025	293.15	0	0.0010517	2.41e-05
0.025	293.15	0.025	0.0010617	2.43e-05
0.025	293.15	0.05	0.0010725	2.46e-05
0.025	293.15	0.075	0.0010829	2.48e-05
0.025	293.15	0.1	0.0010935	2.5e-05
0.025	293.15	0.125	0.0011043	2.53e-05
0.025	293.15	0.15	0.001115	2.55e-05
0.025	298.15	0	0.0009294	2.13e-05
0.025	298.15	0.025	0.0009379	2.15e-05
0.025	298.15	0.05	0.0009468	2.17e-05
0.025	298.15	0.075	0.0009556	2.19e-05
0.025	298.15	0.1	0.0009646	2.21e-05
0.025	298.15	0.125	0.0009736	2.23e-05
0.025	298.15	0.15	0.0009827	2.25e-05
0.025	303.15	0	0.0008259	1.9e-05
0.025	303.15	0.025	0.0008332	1.91e-05
0.025	303.15	0.05	0.0008406	1.93e-05
0.025	303.15	0.075	0.0008479	1.95e-05
0.025	303.15	0.1	0.0008553	1.96e-05
0.025	303.15	0.125	0.000863	1.98e-05
0.025	303.15	0.15	0.000871	2e-05
0.025	308.15	0	0.0007416	1.7e-05
0.025	308.15	0.025	0.0007479	1.72e-05
0.025	308.15	0.05	0.0007542	1.73e-05
0.025	308.15	0.075	0.0007605	1.75e-05
0.025	308.15	0.1	0.0007668	1.76e-05
0.025	308.15	0.125	0.0007734	1.78e-05
0.025	308.15	0.15	0.00078	1.79e-05
0.025	313.15	0	0.0006702	1.54e-05
0.025	313.15	0.025	0.0006757	1.55e-05
0.025	313.15	0.05	0.0006811	1.57e-05
0.025	313.15	0.075	0.0006865	1.58e-05
0.025	313.15	0.1	0.0006919	1.59e-05
0.025	313.15	0.125	0.0006975	1.6e-05
0.025	313.15	0.15	0.0007032	1.62e-05
0.025	318.15	0	0.0006127	1.41e-05
0.025	318.15	0.025	0.0006176	1.42e-05
0.025	318.15	0.05	0.0006223	1.43e-05
0.025	318.15	0.075	0.000627	1.44e-05
0.025	318.15	0.1	0.0006317	1.45e-05
0.025	318.15	0.125	0.0006365	1.47e-05
0.025	318.15	0.15	0.0006414	1.48e-05
0.05	293.15	0	0.0011157	2.55e-05
0.05	293.15	0.025	0.0011297	2.59e-05
0.05	293.15	0.05	0.0011438	2.62e-05
0.05	293.15	0.075	0.001158	2.65e-05
0.05	293.15	0.1	0.0011723	2.68e-05
0.05	293.15	0.125	0.0011871	2.72e-05
0.05	293.15	0.15	0.0012021	2.75e-05
0.05	298.15	0	0.0009767	2.24e-05
0.05	298.15	0.025	0.0009886	2.27e-05
0.05	298.15	0.05	0.0010002	2.29e-05
0.05	298.15	0.075	0.0010121	2.32e-05
0.05	298.15	0.1	0.001024	2.35e-05
0.05	298.15	0.125	0.0010364	2.37e-05
0.05	298.15	0.15	0.0010488	2.4e-05
0.05	303.15	0	0.0008625	1.98e-05
0.05	303.15	0.025	0.0008727	2e-05
0.05	303.15	0.05	0.0008826	2.02e-05
0.05	303.15	0.075	0.0008924	2.05e-05
0.05	303.15	0.1	0.0009025	2.07e-05
0.05	303.15	0.125	0.0009128	2.09e-05
0.05	303.15	0.15	0.0009232	2.12e-05
0.05	308.15	0	0.0007717	1.77e-05
0.05	308.15	0.025	0.0007805	1.79e-05
0.05	308.15	0.05	0.000789	1.81e-05
0.05	308.15	0.075	0.0007975	1.83e-05
0.05	308.15	0.1	0.000806	1.85e-05
0.05	308.15	0.125	0.0008146	1.87e-05
0.05	308.15	0.15	0.0008233	1.89e-05
0.05	313.15	0	0.0006965	1.6e-05
0.05	313.15	0.025	0.0007042	1.62e-05
0.05	313.15	0.05	0.0007114	1.64e-05
0.05	313.15	0.075	0.0007185	1.65e-05
0.05	313.15	0.1	0.0007258	1.67e-05
0.05	313.15	0.125	0.0007334	1.69e-05
0.05	313.15	0.15	0.0007408	1.7e-05
0.05	318.15	0	0.0006354	1.46e-05
0.05	318.15	0.025	0.0006422	1.48e-05
0.05	318.15	0.05	0.0006484	1.49e-05
0.05	318.15	0.075	0.0006546	1.51e-05
0.05	318.15	0.1	0.000661	1.52e-05
0.05	318.15	0.125	0.0006675	1.54e-05
0.05	318.15	0.15	0.000674	1.55e-05

System: L-glutamine + D-mannose + water; phases: Liquid
Fixed: Pressure, kPa = 101
Property: Mass density, kg/m3 (Liquid); method: Pycnometric method
Solvent: Mass fraction of D-mannose	Temperature, K	Molality, mol/kg of L-glutamine	Mass density, kg/m3	uncertainty
0	293.15	0	998.24	1.68
0	293.15	0.025	999.57	1.68
0	293.15	0.05	1000.9	1.68
0	293.15	0.075	1002.23	1.68
0	293.15	0.1	1003.56	1.68
0	293.15	0.125	1004.89	1.68
0	293.15	0.15	1006.22	1.68
0	298.15	0	997.07	1.68
0	298.15	0.025	998.4	1.68
0	298.15	0.05	999.73	1.68
0	298.15	0.075	1001.06	1.68
0	298.15	0.1	1002.39	1.68
0	298.15	0.125	1003.72	1.69
0	298.15	0.15	1005.05	1.69
0	303.15	0	995.68	1.69
0	303.15	0.025	997.01	1.69
0	303.15	0.05	998.34	1.69
0	303.15	0.075	999.67	1.69
0	303.15	0.1	1001	1.69
0	303.15	0.125	1002.33	1.69
0	303.15	0.15	1003.66	1.69
0	308.15	0	994.07	1.69
0	308.15	0.025	995.4	1.69
0	308.15	0.05	996.73	1.69
0	308.15	0.075	998.06	1.69
0	308.15	0.1	999.39	1.69
0	308.15	0.125	1000.72	1.69
0	308.15	0.15	1002.05	1.69
0	313.15	0	992.25	1.69
0	313.15	0.025	993.58	1.69
0	313.15	0.05	994.91	1.69
0	313.15	0.075	996.25	1.69
0	313.15	0.1	997.58	1.69
0	313.15	0.125	998.91	1.69
0	313.15	0.15	1000.24	1.69
0	318.15	0	990.24	1.69
0	318.15	0.025	991.58	1.69
0	318.15	0.05	992.91	1.69
0	318.15	0.075	994.25	1.69
0	318.15	0.1	995.58	1.69
0	318.15	0.125	996.91	1.69
0	318.15	0.15	998.24	1.69
0.025	293.15	0	1007.37	1.68
0.025	293.15	0.025	1008.63	1.69
0.025	293.15	0.05	1009.89	1.69
0.025	293.15	0.075	1011.15	1.69
0.025	293.15	0.1	1012.4	1.69
0.025	293.15	0.125	1013.65	1.69
0.025	293.15	0.15	1014.9	1.69
0.025	298.15	0	1006.22	1.69
0.025	298.15	0.025	1007.48	1.69
0.025	298.15	0.05	1008.74	1.69
0.025	298.15	0.075	1010	1.69
0.025	298.15	0.1	1011.25	1.69
0.025	298.15	0.125	1012.5	1.69
0.025	298.15	0.15	1013.75	1.69
0.025	303.15	0	1004.85	1.69
0.025	303.15	0.025	1006.11	1.69
0.025	303.15	0.05	1007.37	1.69
0.025	303.15	0.075	1008.63	1.69
0.025	303.15	0.1	1009.89	1.69
0.025	303.15	0.125	1011.14	1.69
0.025	303.15	0.15	1012.39	1.69
0.025	308.15	0	1003.27	1.69
0.025	308.15	0.025	1004.53	1.69
0.025	308.15	0.05	1005.8	1.69
0.025	308.15	0.075	1007.06	1.69
0.025	308.15	0.1	1008.32	1.69
0.025	308.15	0.125	1009.57	1.69
0.025	308.15	0.15	1010.83	1.69
0.025	313.15	0	1001.49	1.69
0.025	313.15	0.025	1002.76	1.69
0.025	313.15	0.05	1004.02	1.69
0.025	313.15	0.075	1005.29	1.69
0.025	313.15	0.1	1006.55	1.69
0.025	313.15	0.125	1007.81	1.69
0.025	313.15	0.15	1009.07	1.69
0.025	318.15	0	999.51	1.69
0.025	318.15	0.025	1000.78	1.69
0.025	318.15	0.05	1002.05	1.69
0.025	318.15	0.075	1003.32	1.69
0.025	318.15	0.1	1004.59	1.69
0.025	318.15	0.125	1005.85	1.69
0.025	318.15	0.15	1007.11	1.69
0.05	293.15	0	1015.89	1.69
0.05	293.15	0.025	1017.09	1.69
0.05	293.15	0.05	1018.29	1.69
0.05	293.15	0.075	1019.48	1.69
0.05	293.15	0.1	1020.67	1.69
0.05	293.15	0.125	1021.86	1.69
0.05	293.15	0.15	1023.04	1.69
0.05	298.15	0	1014.78	1.69
0.05	298.15	0.025	1015.98	1.69
0.05	298.15	0.05	1017.18	1.69
0.05	298.15	0.075	1018.37	1.69
0.05	298.15	0.1	1019.56	1.69
0.05	298.15	0.125	1020.74	1.69
0.05	298.15	0.15	1021.93	1.69
0.05	303.15	0	1013.47	1.69
0.05	303.15	0.025	1014.67	1.69
0.05	303.15	0.05	1015.87	1.69
0.05	303.15	0.075	1017.06	1.69
0.05	303.15	0.1	1018.25	1.69
0.05	303.15	0.125	1019.44	1.69
0.05	303.15	0.15	1020.62	1.69
0.05	308.15	0	1011.95	1.69
0.05	308.15	0.025	1013.15	1.69
0.05	308.15	0.05	1014.35	1.69
0.05	308.15	0.075	1015.55	1.69
0.05	308.15	0.1	1016.74	1.69
0.05	308.15	0.125	1017.92	1.69
0.05	308.15	0.15	1019.11	1.69
0.05	313.15	0	1010.24	1.69
0.05	313.15	0.025	1011.44	1.69
0.05	313.15	0.05	1012.65	1.69
0.05	313.15	0.075	1013.84	1.69
0.05	313.15	0.1	1015.03	1.69
0.05	313.15	0.125	1016.22	1.69
0.05	313.15	0.15	1017.41	1.69
0.05	318.15	0	1008.32	1.69
0.05	318.15	0.025	1009.53	1.69
0.05	318.15	0.05	1010.73	1.69
0.05	318.15	0.075	1011.93	1.69
0.05	318.15	0.1	1013.13	1.69
0.05	318.15	0.125	1014.32	1.7
0.05	318.15	0.15	1015.51	1.7

System: L-glutamine + D-mannose + water; phases: Liquid
Fixed: Pressure, kPa = 101
Fixed: Frequency, MHz = 3
Property: Speed of sound, m/s (Liquid); method: Linear variable-path acoustic interferometer
Solvent: Mass fraction of D-mannose	Temperature, K	Molality, mol/kg of L-glutamine	Speed of sound, m/s	uncertainty
0	293.15	0	1483.6	3.7
0	293.15	0.025	1485.6	3.7
0	293.15	0.05	1487.3	3.7
0	293.15	0.075	1488.7	3.7
0	293.15	0.1	1489.7	3.7
0	293.15	0.125	1490.4	3.7
0	293.15	0.15	1490.8	3.7
0	298.15	0	1496.9	3.7
0	298.15	0.025	1498.9	3.7
0	298.15	0.05	1500.6	3.7
0	298.15	0.075	1501.9	3.7
0	298.15	0.1	1502.9	3.7
0	298.15	0.125	1503.6	3.7
0	298.15	0.15	1503.9	3.7
0	303.15	0	1508.4	3.7
0	303.15	0.025	1510.4	3.7
0	303.15	0.05	1512	3.7
0	303.15	0.075	1513.3	3.7
0	303.15	0.1	1514.3	3.7
0	303.15	0.125	1514.9	3.7
0	303.15	0.15	1515.1	3.7
0	308.15	0	1519.8	3.7
0	308.15	0.025	1521.7	3.7
0	308.15	0.05	1523.3	3.7
0	308.15	0.075	1524.6	3.7
0	308.15	0.1	1525.5	3.7
0	308.15	0.125	1526	3.7
0	308.15	0.15	1526.1	3.7
0	313.15	0	1526.8	3.7
0	313.15	0.025	1528.6	3.7
0	313.15	0.05	1530.1	3.7
0	313.15	0.075	1531.3	3.7
0	313.15	0.1	1532	3.7
0	313.15	0.125	1532.5	3.7
0	313.15	0.15	1532.5	3.7
0	318.15	0	1533	3.7
0	318.15	0.025	1534.7	3.7
0	318.15	0.05	1536.1	3.7
0	318.15	0.075	1537.2	3.7
0	318.15	0.1	1537.9	3.7
0	318.15	0.125	1538.2	3.7
0	318.15	0.15	1538.2	3.7
0.025	293.15	0	1500.2	3.7
0.025	293.15	0.025	1502	3.7
0.025	293.15	0.05	1503.6	3.7
0.025	293.15	0.075	1504.9	3.7
0.025	293.15	0.1	1505.9	3.7
0.025	293.15	0.125	1506.7	3.7
0.025	293.15	0.15	1507.2	3.7
0.025	298.15	0	1508.3	3.7
0.025	298.15	0.025	1510.1	3.7
0.025	298.15	0.05	1511.6	3.7
0.025	298.15	0.075	1512.9	3.7
0.025	298.15	0.1	1513.9	3.7
0.025	298.15	0.125	1514.6	3.7
0.025	298.15	0.15	1515	3.7
0.025	303.15	0	1517.8	3.7
0.025	303.15	0.025	1519.5	3.7
0.025	303.15	0.05	1521	3.7
0.025	303.15	0.075	1522.2	3.7
0.025	303.15	0.1	1523.1	3.7
0.025	303.15	0.125	1523.7	3.7
0.025	303.15	0.15	1524.1	3.7
0.025	308.15	0	1527.4	3.7
0.025	308.15	0.025	1529.1	3.7
0.025	308.15	0.05	1530.5	3.7
0.025	308.15	0.075	1531.7	3.7
0.025	308.15	0.1	1532.5	3.7
0.025	308.15	0.125	1533.1	3.7
0.025	308.15	0.15	1533.4	3.7
0.025	313.15	0	1537	3.7
0.025	313.15	0.025	1538.6	3.7
0.025	313.15	0.05	1540	3.7
0.025	313.15	0.075	1541.1	3.7
0.025	313.15	0.1	1541.9	3.7
0.025	313.15	0.125	1542.4	3.7
0.025	313.15	0.15	1542.6	3.7
0.025	318.15	0	1546.6	3.7
0.025	318.15	0.025	1548.2	3.7
0.025	318.15	0.05	1549.5	3.7
0.025	318.15	0.075	1550.5	3.7
0.025	318.15	0.1	1551.2	3.7
0.025	318.15	0.125	1551.7	3.7
0.025	318.15	0.15	1551.8	3.7
0.05	293.15	0	1508.3	3.7
0.05	293.15	0.025	1509.9	3.7
0.05	293.15	0.05	1511.4	3.7
0.05	293.15	0.075	1512.6	3.7
0.05	293.15	0.1	1513.6	3.7
0.05	293.15	0.125	1514.4	3.7
0.05	293.15	0.15	1515	3.7
0.05	298.15	0	1516.6	3.7
0.05	298.15	0.025	1518.2	3.7
0.05	298.15	0.05	1519.6	3.7
0.05	298.15	0.075	1520.9	3.7
0.05	298.15	0.1	1521.9	3.7
0.05	298.15	0.125	1522.7	3.7
0.05	298.15	0.15	1523.3	3.7
0.05	303.15	0	1525.2	3.7
0.05	303.15	0.025	1526.8	3.7
0.05	303.15	0.05	1528.2	3.7
0.05	303.15	0.075	1529.4	3.7
0.05	303.15	0.1	1530.4	3.7
0.05	303.15	0.125	1531.2	3.7
0.05	303.15	0.15	1531.8	3.7
0.05	308.15	0	1534.1	3.7
0.05	308.15	0.025	1535.7	3.7
0.05	308.15	0.05	1537.1	3.7
0.05	308.15	0.075	1538.2	3.7
0.05	308.15	0.1	1539.2	3.7
0.05	308.15	0.125	1540	3.7
0.05	308.15	0.15	1540.6	3.7
0.05	313.15	0	1542.2	3.7
0.05	313.15	0.025	1543.7	3.7
0.05	313.15	0.05	1545.1	3.7
0.05	313.15	0.075	1546.3	3.7
0.05	313.15	0.1	1547.2	3.7
0.05	313.15	0.125	1548	3.7
0.05	313.15	0.15	1548.6	3.7
0.05	318.15	0	1551.3	3.7
0.05	318.15	0.025	1552.8	3.7
0.05	318.15	0.05	1554.1	3.7
0.05	318.15	0.075	1555.3	3.7
0.05	318.15	0.1	1556.2	3.7
0.05	318.15	0.125	1557	3.7
0.05	318.15	0.15	1557.6	3.7

System: L-glutamine + D-mannose + water; phases: Liquid
Fixed: Pressure, kPa = 101
Property: Viscosity, Pa*s (Liquid); method: Capillary tube (Ostwald; Ubbelohde) method
Solvent: Mass fraction of D-mannose	Temperature, K	Molality, mol/kg of L-glutamine	Viscosity, Pa*s	uncertainty
0	293.15	0	0.0010019	2.3e-05
0	293.15	0.025	0.0010097	2.31e-05
0	293.15	0.05	0.0010168	2.33e-05
0	293.15	0.075	0.0010239	2.35e-05
0	293.15	0.1	0.0010309	2.36e-05
0	293.15	0.125	0.0010379	2.38e-05
0	293.15	0.15	0.0010451	2.39e-05
0	298.15	0	0.0008903	2.04e-05
0	298.15	0.025	0.000897	2.06e-05
0	298.15	0.05	0.0009031	2.07e-05
0	298.15	0.075	0.000909	2.08e-05
0	298.15	0.1	0.000915	2.1e-05
0	298.15	0.125	0.0009209	2.11e-05
0	298.15	0.15	0.0009269	2.12e-05
0	303.15	0	0.0007973	1.83e-05
0	303.15	0.025	0.0008032	1.84e-05
0	303.15	0.05	0.0008084	1.86e-05
0	303.15	0.075	0.0008135	1.87e-05
0	303.15	0.1	0.0008186	1.88e-05
0	303.15	0.125	0.0008237	1.89e-05
0	303.15	0.15	0.0008288	1.9e-05
0	308.15	0	0.000719	1.65e-05
0	308.15	0.025	0.0007243	1.66e-05
0	308.15	0.05	0.0007288	1.67e-05
0	308.15	0.075	0.0007332	1.68e-05
0	308.15	0.1	0.0007376	1.69e-05
0	308.15	0.125	0.000742	1.7e-05
0	308.15	0.15	0.0007464	1.71e-05
0	313.15	0	0.0006526	1.5e-05
0	313.15	0.025	0.0006573	1.51e-05
0	313.15	0.05	0.0006613	1.52e-05
0	313.15	0.075	0.0006651	1.53e-05
0	313.15	0.1	0.0006689	1.54e-05
0	313.15	0.125	0.0006727	1.55e-05
0	313.15	0.15	0.0006765	1.56e-05
0	318.15	0	0.0005972	1.38e-05
0	318.15	0.025	0.0006013	1.38e-05
0	318.15	0.05	0.0006048	1.39e-05
0	318.15	0.075	0.0006082	1.4e-05
0	318.15	0.1	0.0006115	1.41e-05
0	318.15	0.125	0.0006148	1.42e-05
0	318.15	0.15	0.0006181	1.42e-05
0.025	293.15	0	0.0010517	2.41e-05
0.025	293.15	0.025	0.0010618	2.43e-05
0.025	293.15	0.05	0.0010717	2.45e-05
0.025	293.15	0.075	0.0010817	2.48e-05
0.025	293.15	0.1	0.0010918	2.5e-05
0.025	293.15	0.125	0.001102	2.52e-05
0.025	293.15	0.15	0.0011123	2.55e-05
0.025	298.15	0	0.0009294	2.13e-05
0.025	298.15	0.025	0.000938	2.15e-05
0.025	298.15	0.05	0.0009464	2.17e-05
0.025	298.15	0.075	0.000955	2.19e-05
0.025	298.15	0.1	0.0009636	2.21e-05
0.025	298.15	0.125	0.000972	2.23e-05
0.025	298.15	0.15	0.0009804	2.25e-05
0.025	303.15	0	0.0008259	1.9e-05
0.025	303.15	0.025	0.0008333	1.91e-05
0.025	303.15	0.05	0.0008404	1.93e-05
0.025	303.15	0.075	0.0008477	1.95e-05
0.025	303.15	0.1	0.000855	1.96e-05
0.025	303.15	0.125	0.0008621	1.98e-05
0.025	303.15	0.15	0.0008693	1.99e-05
0.025	308.15	0	0.0007416	1.7e-05
0.025	308.15	0.025	0.000748	1.72e-05
0.025	308.15	0.05	0.0007542	1.73e-05
0.025	308.15	0.075	0.0007604	1.75e-05
0.025	308.15	0.1	0.0007666	1.76e-05
0.025	308.15	0.125	0.0007728	1.77e-05
0.025	308.15	0.15	0.0007789	1.79e-05
0.025	313.15	0	0.0006702	1.54e-05
0.025	313.15	0.025	0.0006758	1.55e-05
0.025	313.15	0.05	0.0006811	1.57e-05
0.025	313.15	0.075	0.0006865	1.58e-05
0.025	313.15	0.1	0.0006918	1.59e-05
0.025	313.15	0.125	0.0006972	1.6e-05
0.025	313.15	0.15	0.0007025	1.62e-05
0.025	318.15	0	0.0006127	1.41e-05
0.025	318.15	0.025	0.0006176	1.42e-05
0.025	318.15	0.05	0.0006223	1.43e-05
0.025	318.15	0.075	0.000627	1.44e-05
0.025	318.15	0.1	0.0006317	1.45e-05
0.025	318.15	0.125	0.0006363	1.46e-05
0.025	318.15	0.15	0.000641	1.48e-05
0.05	293.15	0	0.0011157	2.55e-05
0.05	293.15	0.025	0.0011296	2.59e-05
0.05	293.15	0.05	0.0011431	2.62e-05
0.05	293.15	0.075	0.0011567	2.65e-05
0.05	293.15	0.1	0.0011703	2.68e-05
0.05	293.15	0.125	0.001184	2.71e-05
0.05	293.15	0.15	0.0011977	2.74e-05
0.05	298.15	0	0.0009767	2.24e-05
0.05	298.15	0.025	0.0009885	2.27e-05
0.05	298.15	0.05	0.001	2.29e-05
0.05	298.15	0.075	0.0010114	2.32e-05
0.05	298.15	0.1	0.0010227	2.34e-05
0.05	298.15	0.125	0.0010341	2.37e-05
0.05	298.15	0.15	0.0010458	2.4e-05
0.05	303.15	0	0.0008625	1.98e-05
0.05	303.15	0.025	0.0008727	2e-05
0.05	303.15	0.05	0.0008825	2.02e-05
0.05	303.15	0.075	0.0008922	2.05e-05
0.05	303.15	0.1	0.0009018	2.07e-05
0.05	303.15	0.125	0.0009116	2.09e-05
0.05	303.15	0.15	0.0009211	2.11e-05
0.05	308.15	0	0.0007717	1.77e-05
0.05	308.15	0.025	0.0007806	1.79e-05
0.05	308.15	0.05	0.0007891	1.81e-05
0.05	308.15	0.075	0.0007974	1.83e-05
0.05	308.15	0.1	0.0008057	1.85e-05
0.05	308.15	0.125	0.000814	1.87e-05
0.05	308.15	0.15	0.0008223	1.89e-05
0.05	313.15	0	0.0006965	1.6e-05
0.05	313.15	0.025	0.0007044	1.62e-05
0.05	313.15	0.05	0.0007117	1.64e-05
0.05	313.15	0.075	0.000719	1.65e-05
0.05	313.15	0.1	0.0007262	1.67e-05
0.05	313.15	0.125	0.0007334	1.69e-05
0.05	313.15	0.15	0.0007406	1.7e-05
0.05	318.15	0	0.0006354	1.46e-05
0.05	318.15	0.025	0.0006424	1.48e-05
0.05	318.15	0.05	0.0006488	1.49e-05
0.05	318.15	0.075	0.0006552	1.51e-05
0.05	318.15	0.1	0.0006616	1.52e-05
0.05	318.15	0.125	0.0006678	1.54e-05
0.05	318.15	0.15	0.0006741	1.55e-05

System: L-asparagine + water; phases: Liquid
Fixed: Pressure, kPa = 101
Property: Mass density, kg/m3 (Liquid); method: Pycnometric method
Temperature, K	Molality, mol/kg of L-asparagine	Mass density, kg/m3	uncertainty
293.15	0.025	999.6	1.68
293.15	0.05	1000.96	1.68
293.15	0.075	1002.32	1.68
293.15	0.1	1003.68	1.68
293.15	0.125	1005.03	1.68
293.15	0.15	1006.39	1.68
298.15	0.025	998.43	1.68
298.15	0.05	999.79	1.68
298.15	0.075	1001.15	1.68
298.15	0.1	1002.51	1.68
298.15	0.125	1003.87	1.69
298.15	0.15	1005.23	1.69
303.15	0.025	997.04	1.69
303.15	0.05	998.4	1.69
303.15	0.075	999.76	1.69
303.15	0.1	1001.12	1.69
303.15	0.125	1002.48	1.69
303.15	0.15	1003.85	1.69
308.15	0.025	995.43	1.69
308.15	0.05	996.79	1.69
308.15	0.075	998.15	1.69
308.15	0.1	999.51	1.69
308.15	0.125	1000.87	1.69
308.15	0.15	1002.23	1.69
313.15	0.025	993.61	1.69
313.15	0.05	994.97	1.69
313.15	0.075	996.33	1.69
313.15	0.1	997.69	1.69
313.15	0.125	999.04	1.69
313.15	0.15	1000.4	1.69
318.15	0.025	991.6	1.69
318.15	0.05	992.96	1.69
318.15	0.075	994.32	1.69
318.15	0.1	995.68	1.69
318.15	0.125	997.04	1.69
318.15	0.15	998.4	1.69

System: L-asparagine + water; phases: Liquid
Fixed: Pressure, kPa = 101
Fixed: Frequency, MHz = 3
Property: Speed of sound, m/s (Liquid); method: Linear variable-path acoustic interferometer
Temperature, K	Molality, mol/kg of L-asparagine	Speed of sound, m/s	uncertainty
293.15	0.025	1485.8	3.7
293.15	0.05	1487.7	3.7
293.15	0.075	1489.1	3.7
293.15	0.1	1490.3	3.7
293.15	0.125	1491.1	3.7
293.15	0.15	1491.5	3.7
298.15	0.025	1499.1	3.7
298.15	0.05	1500.9	3.7
298.15	0.075	1502.4	3.7
298.15	0.1	1503.5	3.7
298.15	0.125	1504.2	3.7
298.15	0.15	1504.5	3.7
303.15	0.025	1510.5	3.7
303.15	0.05	1512.3	3.7
303.15	0.075	1513.7	3.7
303.15	0.1	1514.7	3.7
303.15	0.125	1515.3	3.7
303.15	0.15	1515.5	3.7
308.15	0.025	1521.9	3.7
308.15	0.05	1523.6	3.7
308.15	0.075	1524.9	3.7
308.15	0.1	1525.8	3.7
308.15	0.125	1526.3	3.7
308.15	0.15	1526.4	3.7
313.15	0.025	1528.8	3.7
313.15	0.05	1530.4	3.7
313.15	0.075	1531.5	3.7
313.15	0.1	1532.3	3.7
313.15	0.125	1532.7	3.7
313.15	0.15	1532.7	3.7
318.15	0.025	1534.8	3.7
318.15	0.05	1536.3	3.7
318.15	0.075	1537.4	3.7
318.15	0.1	1538	3.7
318.15	0.125	1538.3	3.7
318.15	0.15	1538.2	3.7

System: L-asparagine + water; phases: Liquid
Fixed: Pressure, kPa = 101
Property: Viscosity, Pa*s (Liquid); method: Capillary tube (Ostwald; Ubbelohde) method
Temperature, K	Molality, mol/kg of L-asparagine	Viscosity, Pa*s	uncertainty
293.15	0.025	0.0010099	2.31e-05
293.15	0.05	0.0010176	2.33e-05
293.15	0.075	0.0010254	2.35e-05
293.15	0.1	0.0010332	2.37e-05
293.15	0.125	0.0010409	2.38e-05
293.15	0.15	0.0010487	2.4e-05
298.15	0.025	0.0008972	2.06e-05
298.15	0.05	0.0009037	2.07e-05
298.15	0.075	0.0009104	2.09e-05
298.15	0.1	0.000917	2.1e-05
298.15	0.125	0.0009236	2.12e-05
298.15	0.15	0.0009301	2.13e-05
303.15	0.025	0.0008033	1.84e-05
303.15	0.05	0.0008089	1.86e-05
303.15	0.075	0.0008146	1.87e-05
303.15	0.1	0.0008202	1.88e-05
303.15	0.125	0.0008258	1.9e-05
303.15	0.15	0.0008314	1.91e-05
308.15	0.025	0.0007243	1.66e-05
308.15	0.05	0.0007292	1.68e-05
308.15	0.075	0.000734	1.69e-05
308.15	0.1	0.0007388	1.7e-05
308.15	0.125	0.0007436	1.71e-05
308.15	0.15	0.0007484	1.72e-05
313.15	0.025	0.0006573	1.51e-05
313.15	0.05	0.0006615	1.52e-05
313.15	0.075	0.0006657	1.53e-05
313.15	0.1	0.0006699	1.54e-05
313.15	0.125	0.000674	1.55e-05
313.15	0.15	0.0006782	1.56e-05
318.15	0.025	0.0006013	1.38e-05
318.15	0.05	0.000605	1.39e-05
318.15	0.075	0.0006087	1.4e-05
318.15	0.1	0.0006123	1.41e-05
318.15	0.125	0.0006159	1.42e-05
318.15	0.15	0.0006195	1.43e-05

System: D-mannose + water; phases: Liquid
Fixed: Pressure, kPa = 101
Property: Mass density, kg/m3 (Liquid); method: Pycnometric method
Mass fraction of D-mannose	Temperature, K	Mass density, kg/m3	uncertainty
0.025	293.15	1007.37	1.68
0.025	298.15	1006.22	1.69
0.025	303.15	1004.85	1.69
0.025	308.15	1003.27	1.69
0.025	313.15	1001.49	1.69
0.025	318.15	999.51	1.69
0.05	293.15	1015.89	1.69
0.05	298.15	1014.78	1.69
0.05	303.15	1013.47	1.69
0.05	308.15	1011.95	1.69
0.05	313.15	1010.24	1.69
0.05	318.15	1008.32	1.69

System: D-mannose + water; phases: Liquid
Fixed: Pressure, kPa = 101
Fixed: Frequency, MHz = 3
Property: Speed of sound, m/s (Liquid); method: Linear variable-path acoustic interferometer
Mass fraction of D-mannose	Temperature, K	Speed of sound, m/s	uncertainty
0.025	293.15	1500.2	3.7
0.025	298.15	1508.3	3.7
0.025	303.15	1517.8	3.7
0.025	308.15	1527.4	3.7
0.025	313.15	1537	3.7
0.025	318.15	1546.6	3.7
0.05	293.15	1508.3	3.7
0.05	298.15	1516.6	3.7
0.05	303.15	1525.2	3.7
0.05	308.15	1534.1	3.7
0.05	313.15	1542.2	3.7
0.05	318.15	1551.3	3.7

System: D-mannose + water; phases: Liquid
Fixed: Pressure, kPa = 101
Property: Viscosity, Pa*s (Liquid); method: Capillary tube (Ostwald; Ubbelohde) method
Mass fraction of D-mannose	Temperature, K	Viscosity, Pa*s	uncertainty
0.025	293.15	0.0010517	2.41e-05
0.025	298.15	0.0009294	2.13e-05
0.025	303.15	0.0008259	1.9e-05
0.025	308.15	0.0007416	1.7e-05
0.025	313.15	0.0006702	1.54e-05
0.025	318.15	0.0006127	1.41e-05
0.05	293.15	0.0011157	2.55e-05
0.05	298.15	0.0009767	2.24e-05
0.05	303.15	0.0008625	1.98e-05
0.05	308.15	0.0007717	1.77e-05
0.05	313.15	0.0006965	1.6e-05
0.05	318.15	0.0006354	1.46e-05

System: L-glutamine + water; phases: Liquid
Fixed: Pressure, kPa = 101
Property: Mass density, kg/m3 (Liquid); method: Pycnometric method
Temperature, K	Molality, mol/kg of L-glutamine	Mass density, kg/m3	uncertainty
293.15	0.025	999.57	1.68
293.15	0.05	1000.9	1.68
293.15	0.075	1002.23	1.68
293.15	0.1	1003.56	1.68
293.15	0.125	1004.89	1.68
293.15	0.15	1006.22	1.68
298.15	0.025	998.4	1.68
298.15	0.05	999.73	1.68
298.15	0.075	1001.06	1.68
298.15	0.1	1002.39	1.68
298.15	0.125	1003.72	1.69
298.15	0.15	1005.05	1.69
303.15	0.025	997.01	1.69
303.15	0.05	998.34	1.69
303.15	0.075	999.67	1.69
303.15	0.1	1001	1.69
303.15	0.125	1002.33	1.69
303.15	0.15	1003.66	1.69
308.15	0.025	995.4	1.69
308.15	0.05	996.73	1.69
308.15	0.075	998.06	1.69
308.15	0.1	999.39	1.69
308.15	0.125	1000.72	1.69
308.15	0.15	1002.05	1.69
313.15	0.025	993.58	1.69
313.15	0.05	994.91	1.69
313.15	0.075	996.25	1.69
313.15	0.1	997.58	1.69
313.15	0.125	998.91	1.69
313.15	0.15	1000.24	1.69
318.15	0.025	991.58	1.69
318.15	0.05	992.91	1.69
318.15	0.075	994.25	1.69
318.15	0.1	995.58	1.69
318.15	0.125	996.91	1.69
318.15	0.15	998.24	1.69

System: L-glutamine + water; phases: Liquid
Fixed: Pressure, kPa = 101
Fixed: Frequency, MHz = 3
Property: Speed of sound, m/s (Liquid); method: Linear variable-path acoustic interferometer
Temperature, K	Molality, mol/kg of L-glutamine	Speed of sound, m/s	uncertainty
293.15	0.025	1485.6	3.7
293.15	0.05	1487.3	3.7
293.15	0.075	1488.7	3.7
293.15	0.1	1489.7	3.7
293.15	0.125	1490.4	3.7
293.15	0.15	1490.8	3.7
298.15	0.025	1498.9	3.7
298.15	0.05	1500.6	3.7
298.15	0.075	1501.9	3.7
298.15	0.1	1502.9	3.7
298.15	0.125	1503.6	3.7
298.15	0.15	1503.9	3.7
303.15	0.025	1510.4	3.7
303.15	0.05	1512	3.7
303.15	0.075	1513.3	3.7
303.15	0.1	1514.3	3.7
303.15	0.125	1514.9	3.7
303.15	0.15	1515.1	3.7
308.15	0.025	1521.7	3.7
308.15	0.05	1523.3	3.7
308.15	0.075	1524.6	3.7
308.15	0.1	1525.5	3.7
308.15	0.125	1526	3.7
308.15	0.15	1526.1	3.7
313.15	0.025	1528.6	3.7
313.15	0.05	1530.1	3.7
313.15	0.075	1531.3	3.7
313.15	0.1	1532	3.7
313.15	0.125	1532.5	3.7
313.15	0.15	1532.5	3.7
318.15	0.025	1534.7	3.7
318.15	0.05	1536.1	3.7
318.15	0.075	1537.2	3.7
318.15	0.1	1537.9	3.7
318.15	0.125	1538.2	3.7
318.15	0.15	1538.2	3.7

System: L-glutamine + water; phases: Liquid
Fixed: Pressure, kPa = 101
Property: Viscosity, Pa*s (Liquid); method: Capillary tube (Ostwald; Ubbelohde) method
Temperature, K	Molality, mol/kg of L-glutamine	Viscosity, Pa*s	uncertainty
293.15	0.025	0.0010097	2.31e-05
293.15	0.05	0.0010168	2.33e-05
293.15	0.075	0.0010239	2.35e-05
293.15	0.1	0.0010309	2.36e-05
293.15	0.125	0.0010379	2.38e-05
293.15	0.15	0.0010451	2.39e-05
298.15	0.025	0.000897	2.06e-05
298.15	0.05	0.0009031	2.07e-05
298.15	0.075	0.000909	2.08e-05
298.15	0.1	0.000915	2.1e-05
298.15	0.125	0.0009209	2.11e-05
298.15	0.15	0.0009269	2.12e-05
303.15	0.025	0.0008032	1.84e-05
303.15	0.05	0.0008084	1.86e-05
303.15	0.075	0.0008135	1.87e-05
303.15	0.1	0.0008186	1.88e-05
303.15	0.125	0.0008237	1.89e-05
303.15	0.15	0.0008288	1.9e-05
308.15	0.025	0.0007243	1.66e-05
308.15	0.05	0.0007288	1.67e-05
308.15	0.075	0.0007332	1.68e-05
308.15	0.1	0.0007376	1.69e-05
308.15	0.125	0.000742	1.7e-05
308.15	0.15	0.0007464	1.71e-05
313.15	0.025	0.0006573	1.51e-05
313.15	0.05	0.0006613	1.52e-05
313.15	0.075	0.0006651	1.53e-05
313.15	0.1	0.0006689	1.54e-05
313.15	0.125	0.0006727	1.55e-05
313.15	0.15	0.0006765	1.56e-05
318.15	0.025	0.0006013	1.38e-05
318.15	0.05	0.0006048	1.39e-05
318.15	0.075	0.0006082	1.4e-05
318.15	0.1	0.0006115	1.41e-05
318.15	0.125	0.0006148	1.42e-05
318.15	0.15	0.0006181	1.42e-05
