Measured thermophysical data. Molar heat capacity and thermodynamic properties of 1-cyclohexene-1,2-dicarboxylic anhydride [C8H8O3]
Source: J. Chem. Thermodyn., 2004, 10.1016/j.jct.2004.05.008
Compound 1: 3,4,5,6-tetrahydrophthalic anhydride, C8H8O3, InChI=1S/C8H8O3/c9-7-5-3-1-2-4-6(5)8(10)11-7/h1-4H2

System: 3,4,5,6-tetrahydrophthalic anhydride; phases: Crystal, Liquid, Gas
Property: Molar enthalpy of transition or fusion, kJ/mol (Crystal); method: ADIACA:UFactor:4
Molar enthalpy of transition or fusion, kJ/mol	uncertainty
11.88	0.06

System: 3,4,5,6-tetrahydrophthalic anhydride; phases: Crystal, Liquid, Gas
Property: Triple point temperature, K (Crystal); method: ADIACA:UFactor:2
Triple point temperature, K	uncertainty
343.46	0.25

System: 3,4,5,6-tetrahydrophthalic anhydride; phases: Crystal
Fixed: Pressure, kPa = 101.325
Property: Molar heat capacity at constant pressure, J/K/mol (Crystal); method: SMALLAD:UFactor:2
Temperature, K	Molar heat capacity at constant pressure, J/K/mol	uncertainty
80.338	56.23	0.632
83.466	56.18	0.632
86.528	56.31	0.64
89.585	56.4	0.64
92.476	56.87	0.69
95.299	57.18	0.698
98.081	57.46	0.698
100.822	57.84	0.698
103.562	57.96	0.707
106.095	58.31	0.707
108.628	58.53	0.707
111.119	58.74	0.707
113.61	59.12	0.715
116.018	59.31	0.715
118.427	59.66	0.715
120.752	60.05	0.723
123.077	60.42	0.723
125.349	60.99	0.723
127.644	61.14	0.732
129.845	61.87	0.732
132.121	62.27	0.74
134.329	62.87	0.74
136.529	63.57	0.748
138.647	64.15	0.748
140.806	64.74	0.757
142.924	65.78	0.765
145.083	66.49	0.773
147.118	67.22	0.773
149.152	68.03	0.782
151.27	69	0.79
153.304	69.87	0.798
155.297	70.76	0.806
157.373	71.32	0.806
159.366	72.03	0.815
161.359	72.91	0.823
163.269	73.95	0.8314
165.221	74.97	0.8398
167.131	76.01	0.8481
169.124	76.73	0.8481
171.048	77.91	0.8647
172.944	78.5	0.8647
174.853	79.78	0.873
176.722	80.51	0.8813
178.632	81.53	0.8896
180.459	82.71	0.898
182.282	83.602	0.9063
184.113	84.608	0.9146
185.95	85.447	0.9229
187.767	86.62	0.9312
189.635	87.809	0.9395
191.379	88.823	0.9478
193.21	89.854	0.9562
194.95	91.176	0.9645
196.735	92.523	0.9811
198.559	93.837	0.9894
200.317	95.117	0.9977
202.045	95.998	1.006
203.794	97.453	1.0227
205.496	99.083	1.031
207.281	100.34	1.0393
208.942	101.59	1.0559
210.645	102.87	1.0642
212.306	103.87	1.0726
214.008	105.32	1.0809
215.669	106.26	1.0892
217.288	107.56	1.0975
218.949	108.78	1.1141
220.527	109.96	1.1224
222.27	111.19	1.1308
223.724	112.09	1.1391
225.459	113.46	1.1474
227.045	114.91	1.164
228.582	116.07	1.1723
230.243	117.61	1.1806
231.742	119.05	1.1973
233.191	120.59	1.2056
234.697	122.14	1.2222
236.222	123.06	1.2222
237.675	124.72	1.2388
239.17	126.14	1.2555
240.664	127.28	1.2638
242.118	128.82	1.2721
243.561	131.28	1.2971
244.917	131.95	1.2971
246.397	132.94	1.3054
247.803	133.95	1.3137
249.309	135.13	1.322
250.752	136.4	1.3386
252.205	137.63	1.3469
253.658	138.64	1.3553
255.101	140.01	1.3636
256.477	141.43	1.3719
257.937	143.17	1.3885
259.384	144.54	1.4051
260.76	146.26	1.4135
262.216	147.86	1.4301
263.558	149.6	1.4467
264.978	151.29	1.455
266.442	153.66	1.4717
267.797	155.02	1.4883
269.17	156.54	1.4966
270.616	158.31	1.5132
271.993	160.29	1.5299
273.829	162.61	1.5465
276.058	165.27	1.5714
278.265	168.2	1.5964
280.472	170.86	1.613
282.767	174.18	1.6463
284.996	177.2	1.6712
287.129	180	1.6878
289.235	183.15	1.7128
291.399	185.52	1.7377
293.54	188.07	1.7543
295.616	190.23	1.771
297.758	193.49	1.8042
299.899	196.12	1.8209
302.041	198.91	1.8458
304.161	201.6	1.8707
306.281	204.33	1.8874
308.444	208.09	1.9206
310.586	210.93	1.9456
312.727	214.84	1.9788
314.773	218	2.0038
316.97	220.39	2.0204
318.996	224.36	2.0537
321.059	227.34	2.0786
323.122	231.9	2.1202
325.109	237.01	2.1618
327.121	241.19	2.195
329.091	246.67	2.2366
330.993	261.9	2.3696

System: 3,4,5,6-tetrahydrophthalic anhydride; phases: Liquid
Fixed: Pressure, kPa = 101.325
Property: Molar heat capacity at constant pressure, J/K/mol (Liquid); method: SMALLAD:UFactor:2
Temperature, K	Molar heat capacity at constant pressure, J/K/mol	uncertainty
346.464	275.09	2.6024
348.182	275.94	2.6107
350	277.07	2.619
351.67	278.18	2.6274
353.409	279.59	2.6357
355.079	280.65	2.644
356.667	281.82	2.6523
360.303	284.63	2.6772
