Measured thermophysical data. Excess molar enthalpies and volumes of binary mixtures of nonafluorobutylmethylether with ethylene glycol ethers at T = 298.15 K
Source: J. Chem. Thermodyn., 2005, 10.1016/j.jct.2005.02.011
Compound 1: 1-methoxy-nonafluorobutane, C5H3F9O, InChI=1S/C5H3F9O/c1-15-5(13,14)3(8,9)2(6,7)4(10,11)12/h1H3
Compound 2: 2-methoxyethan-1-ol, C3H8O2, InChI=1S/C3H8O2/c1-5-3-2-4/h4H,2-3H2,1H3
Compound 3: 2-ethoxyethan-1-ol, C4H10O2, InChI=1S/C4H10O2/c1-2-6-4-3-5/h5H,2-4H2,1H3
Compound 4: 2-butoxyethan-1-ol, C6H14O2, InChI=1S/C6H14O2/c1-2-3-5-8-6-4-7/h7H,2-6H2,1H3
Compound 5: 2-(2-methoxyethoxy)ethanol, C5H12O3, InChI=1S/C5H12O3/c1-7-4-5-8-3-2-6/h6H,2-5H2,1H3
Compound 6: 2,5,8-trioxanonane, C6H14O3, InChI=1S/C6H14O3/c1-7-3-5-9-6-4-8-2/h3-6H2,1-2H3

System: 1-methoxy-nonafluorobutane; phases: Liquid
Property: Mass density, kg/m3 (Liquid); method: VIBTUB:UFactor:4
Temperature, K	Pressure, kPa	Mass density, kg/m3	uncertainty
298.15	101.325	1516.5	1.21

System: 2-methoxyethan-1-ol; phases: Liquid
Property: Mass density, kg/m3 (Liquid); method: VIBTUB:UFactor:4
Temperature, K	Pressure, kPa	Mass density, kg/m3	uncertainty
298.15	101.325	960.01	0.25

System: 2-ethoxyethan-1-ol; phases: Liquid
Property: Mass density, kg/m3 (Liquid); method: VIBTUB::UFactor:4
Temperature, K	Pressure, kPa	Mass density, kg/m3	uncertainty
298.15	101.325	924.92	0.32

System: 2-butoxyethan-1-ol; phases: Liquid
Property: Mass density, kg/m3 (Liquid); method: VIBTUB::UFactor:4
Temperature, K	Pressure, kPa	Mass density, kg/m3	uncertainty
298.15	101.325	896.25	0.37

System: 2-(2-methoxyethoxy)ethanol; phases: Liquid
Property: Mass density, kg/m3 (Liquid); method: VIBTUB::UFactor:4
Temperature, K	Pressure, kPa	Mass density, kg/m3	uncertainty
298.15	101.325	1015.6	0.22

System: 2,5,8-trioxanonane; phases: Liquid
Property: Mass density, kg/m3 (Liquid); method: VIBTUB:UFactor:4
Temperature, K	Pressure, kPa	Mass density, kg/m3	uncertainty
298.15	101.325	938.62	0.29

System: 2-methoxyethan-1-ol + 1-methoxy-nonafluorobutane; phases: Liquid
Fixed: Pressure, kPa = 101.325
Fixed: Temperature, K = 298.15
Property: Excess molar enthalpy (molar enthalpy of mixing), kJ/mol (Liquid); method: FLOW:UFactor:2
Mole fraction of 1-methoxy-nonafluorobutane	Excess molar enthalpy (molar enthalpy of mixing), kJ/mol	uncertainty
0.05	0.2039	0.0047
0.10002	0.304	0.0063
0.20004	0.4189	0.008
0.30005	0.4969	0.0092
0.40009	0.5571	0.0102
0.50004	0.6038	0.0109
0.55008	0.622	0.0112
0.6001	0.6425	0.0115
0.65008	0.6413	0.0115
0.70009	0.6422	0.0115
0.75	0.6335	0.0114
0.80007	0.6116	0.011
0.85003	0.5717	0.0104
0.89997	0.5078	0.0094
0.95003	0.3649	0.0072
0.97496	0.2437	0.0053

System: 2-methoxyethan-1-ol + 1-methoxy-nonafluorobutane; phases: Liquid
Fixed: Temperature, K = 298.15
Fixed: Pressure, kPa = 101.325
Property: Mass density, kg/m3 (Liquid); method: VIBTUB:UFactor:4
Mole fraction of 1-methoxy-nonafluorobutane	Mass density, kg/m3	uncertainty
0	960.01	0.25
0.00553	965.99	0.23
0.01007	970.85	0.23
0.02663	988.18	0.19
0.02992	991.62	0.19
0.03967	1001.54	0.18
0.04976	1011.78	0.2
0.05995	1021.9	0.22
0.06979	1031.53	0.24
0.07991	1041.28	0.26
0.08992	1050.63	0.28
0.09992	1059.88	0.3
0.19987	1144.03	0.48
0.29993	1215.05	0.63
0.39995	1275.68	0.75
0.50014	1328.23	0.86
0.59965	1373.83	0.93
0.70009	1414.55	1.01
0.80053	1451	1.08
0.89966	1483.83	1.14
0.91064	1487.37	1.15
0.92041	1490.55	1.15
0.93042	1493.65	1.16
0.94031	1496.79	1.17
0.95076	1500.13	1.17
0.96037	1503.16	1.18
0.97096	1506.5	1.19
0.97996	1509.57	1.19
0.98997	1512.86	1.2
0.99479	1514.59	1.2
1	1516.5	1.21

System: 2-ethoxyethan-1-ol + 1-methoxy-nonafluorobutane; phases: Liquid
Fixed: Pressure, kPa = 101.325
Fixed: Temperature, K = 298.15
Property: Excess molar enthalpy (molar enthalpy of mixing), kJ/mol (Liquid); method: FLOW:UFactor:2
Mole fraction of 1-methoxy-nonafluorobutane	Excess molar enthalpy (molar enthalpy of mixing), kJ/mol	uncertainty
0.05001	0.1575	0.004
0.10002	0.2575	0.0055
0.20004	0.392	0.0076
0.30005	0.4892	0.0091
0.40006	0.5639	0.0103
0.50006	0.6228	0.0112
0.55006	0.642	0.0115
0.60006	0.659	0.0118
0.65005	0.6661	0.0119
0.70005	0.665	0.0119
0.75005	0.6566	0.0117
0.80004	0.6323	0.0113
0.85003	0.5893	0.0107
0.90002	0.5073	0.0094
0.95001	0.3625	0.0072
0.95075	0.3628	0.0072
0.97501	0.2345	0.0052

System: 2-ethoxyethan-1-ol + 1-methoxy-nonafluorobutane; phases: Liquid
Fixed: Temperature, K = 298.15
Fixed: Pressure, kPa = 101.325
Property: Mass density, kg/m3 (Liquid); method: VIBTUB:UFactor:4
Mole fraction of 1-methoxy-nonafluorobutane	Mass density, kg/m3	uncertainty
0	924.92	0.32
0.00503	929.7	0.31
0.01079	934.97	0.3
0.02102	944.32	0.28
0.02987	952.74	0.26
0.04002	961.9	0.25
0.04998	970.86	0.23
0.05985	979.66	0.21
0.07003	988.6	0.2
0.07976	997.21	0.19
0.09179	1007.4	0.2
0.09978	1014.34	0.21
0.19978	1094.44	0.39
0.2999	1166.16	0.54
0.39985	1230.34	0.67
0.49975	1288.32	0.8
0.59989	1340.92	0.88
0.69985	1389.17	0.96
0.79957	1433.24	1.04
0.90029	1475.39	1.12
0.90982	1479.22	1.13
0.91979	1482.97	1.14
0.93045	1487.24	1.15
0.93988	1491.41	1.16
0.95021	1495.54	1.16
0.95865	1499	1.17
0.96901	1503.23	1.18
0.98021	1507.87	1.19
0.99012	1512.09	1.2
0.99491	1514.04	1.2
1	1516.5	1.21

System: 2-butoxyethan-1-ol + 1-methoxy-nonafluorobutane; phases: Liquid
Fixed: Pressure, kPa = 101.325
Fixed: Temperature, K = 298.15
Property: Excess molar enthalpy (molar enthalpy of mixing), kJ/mol (Liquid); method: FLOW:UFactor:2
Mole fraction of 1-methoxy-nonafluorobutane	Excess molar enthalpy (molar enthalpy of mixing), kJ/mol	uncertainty
0.05001	0.1675	0.0041
0.10002	0.3037	0.0063
0.20004	0.5096	0.0094
0.30005	0.655	0.0117
0.40006	0.7513	0.0132
0.50006	0.8146	0.0142
0.55006	0.8353	0.0145
0.60006	0.8447	0.0146
0.65005	0.8473	0.0147
0.70005	0.8375	0.0145
0.75005	0.8134	0.0142
0.80004	0.7715	0.0135
0.85003	0.703	0.0124
0.90002	0.5952	0.0108
0.95001	0.4187	0.008
0.97501	0.2633	0.0056

System: 2-butoxyethan-1-ol + 1-methoxy-nonafluorobutane; phases: Liquid
Fixed: Temperature, K = 298.15
Fixed: Pressure, kPa = 101.325
Property: Mass density, kg/m3 (Liquid); method: VIBTUB:UFactor:4
Mole fraction of 1-methoxy-nonafluorobutane	Mass density, kg/m3	uncertainty
0	896.25	0.37
0.02507	915.04	0.34
0.05002	932.88	0.3
0.1001	969.14	0.24
0.14985	1004.19	0.21
0.19976	1038.73	0.28
0.24971	1072.68	0.35
0.29954	1105.83	0.43
0.34992	1138.71	0.5
0.40997	1176.96	0.58
0.44985	1201.93	0.64
0.51554	1242.24	0.72
0.54986	1262.86	0.74
0.59995	1292.53	0.79
0.65001	1321.64	0.84
0.69993	1350.17	0.89
0.74986	1378.23	0.94
0.80002	1405.94	0.99
0.85016	1433.58	1.04
0.90023	1461.09	1.1
0.94996	1488.03	1.15
0.97491	1501.9	1.18
1	1516.5	1.21

System: 2-(2-methoxyethoxy)ethanol + 1-methoxy-nonafluorobutane; phases: Liquid
Fixed: Pressure, kPa = 101.325
Fixed: Temperature, K = 298.15
Property: Excess molar enthalpy (molar enthalpy of mixing), kJ/mol (Liquid); method: FLOW:UFactor:2
Mole fraction of 1-methoxy-nonafluorobutane	Excess molar enthalpy (molar enthalpy of mixing), kJ/mol	uncertainty
0.05006	0.2172	0.0049
0.10012	0.2985	0.0062
0.20021	0.3652	0.0072
0.30028	0.4046	0.0078
0.40032	0.4251	0.0081
0.45033	0.43	0.0082
0.50033	0.4309	0.0082
0.55033	0.4329	0.0083
0.60032	0.4312	0.0082
0.65028	0.4274	0.0082
0.70028	0.4206	0.0081
0.80021	0.3987	0.0077
0.90012	0.3235	0.0066
0.95006	0.23	0.0051

System: 2-(2-methoxyethoxy)ethanol + 1-methoxy-nonafluorobutane; phases: Liquid
Fixed: Temperature, K = 298.15
Fixed: Pressure, kPa = 101.325
Property: Mass density, kg/m3 (Liquid); method: VIBTUB:UFactor:4
Mole fraction of 1-methoxy-nonafluorobutane	Mass density, kg/m3	uncertainty
0	1015.6	0.22
0.02479	1031.94	0.25
0.04975	1048.37	0.28
0.09963	1080.8	0.35
0.14982	1112.38	0.41
0.19989	1142.86	0.48
0.24949	1172.17	0.54
0.29958	1200.75	0.6
0.39955	1254.72	0.71
0.49937	1304.76	0.82
0.59838	1351.61	0.89
0.69901	1396.09	0.97
0.74985	1417.68	1.01
0.79984	1438.09	1.05
0.85005	1458.09	1.09
0.8999	1477.55	1.13
0.95009	1496.84	1.17
0.97494	1506.46	1.19
1	1516.5	1.21

System: 2,5,8-trioxanonane + 1-methoxy-nonafluorobutane; phases: Liquid
Fixed: Pressure, kPa = 101.325
Fixed: Temperature, K = 298.15
Property: Excess molar enthalpy (molar enthalpy of mixing), kJ/mol (Liquid); method: FLOW:UFactor:2
Mole fraction of 1-methoxy-nonafluorobutane	Excess molar enthalpy (molar enthalpy of mixing), kJ/mol	uncertainty
0.05001	0.1669	0.0041
0.10002	0.2762	0.0058
0.15003	0.3389	0.0068
0.20004	0.3696	0.0073
0.25005	0.3844	0.0075
0.30005	0.3827	0.0075
0.35005	0.3693	0.0073
0.40006	0.3509	0.007
0.50006	0.2951	0.0061
0.60006	0.2285	0.0051
0.70005	0.1588	0.004
0.80004	0.0922	0.003
0.90002	0.0353	0.0021
0.95001	0.0111	0.0017

System: 2,5,8-trioxanonane + 1-methoxy-nonafluorobutane; phases: Liquid
Fixed: Temperature, K = 298.15
Fixed: Pressure, kPa = 101.325
Property: Mass density, kg/m3 (Liquid); method: VIBTUB:UFactor:4
Mole fraction of 1-methoxy-nonafluorobutane	Mass density, kg/m3	uncertainty
0	938.62	0.29
0.02464	954.08	0.26
0.0497	969.75	0.23
0.10008	1001.04	0.18
0.14978	1031.72	0.25
0.19977	1062.36	0.32
0.24956	1092.61	0.38
0.29936	1122.54	0.45
0.34925	1152.22	0.51
0.39978	1181.93	0.58
0.44961	1210.92	0.64
0.49977	1239.78	0.71
0.54953	1268.27	0.75
0.59995	1296.83	0.8
0.6499	1324.79	0.84
0.69928	1352.36	0.89
0.7495	1380.12	0.94
0.79956	1407.65	0.99
0.84982	1435.09	1.05
0.89968	1462.11	1.1
0.94985	1489.22	1.15
0.97491	1502.87	1.18
1	1516.5	1.21
