Measured thermophysical data. The contour of excess molar enthalpy at a mole fraction of benzene x = 0.548 on the p-T plane in liquid state and near the critical points for the (benzene + cyclohexane) mixture
Source: J. Chem. Thermodyn., 2018, 10.1016/j.jct.2018.01.001
Compound 1: benzene, C6H6, InChI=1S/C6H6/c1-2-4-6-5-3-1/h1-6H, purity 99.9%
Compound 2: cyclohexane, C6H12, InChI=1S/C6H12/c1-2-4-6-5-3-1/h1-6H2, purity 99.9%

System: benzene + cyclohexane; phases: Liquid
Fixed: Mole fraction of benzene = 0.548
Property: Excess molar enthalpy (molar enthalpy of mixing), kJ/mol (Liquid); method: Flow calorimetry
Temperature, K	Pressure, kPa	Excess molar enthalpy (molar enthalpy of mixing), kJ/mol	uncertainty
478.2	1510	0.494	0.016
478.2	1760	0.492	0.016
478.2	2060	0.491	0.016
478.2	2580	0.486	0.016
478.2	3130	0.478	0.016
478.2	4140	0.476	0.016
478.2	5050	0.467	0.016
478.2	6010	0.465	0.016
478.2	7070	0.462	0.016
478.2	8130	0.456	0.016
478.2	9070	0.452	0.016
478.2	10090	0.45	0.016
478.2	11040	0.448	0.016
478.2	12600	0.446	0.015
478.2	14180	0.441	0.015
478.2	15660	0.441	0.015
498.2	2350	0.494	0.016
498.2	2530	0.488	0.016
498.2	2670	0.486	0.016
498.2	2820	0.484	0.016
498.2	3000	0.48	0.016
498.2	3480	0.475	0.016
498.2	3970	0.47	0.016
498.2	4520	0.465	0.016
498.2	5070	0.462	0.016
498.2	6080	0.453	0.016
498.2	7050	0.448	0.016
498.2	7960	0.444	0.015
498.2	9050	0.441	0.015
498.2	10240	0.433	0.015
498.2	12040	0.429	0.015
498.2	14090	0.426	0.015
498.2	15330	0.419	0.015
518.2	2790	0.532	0.016
518.2	2920	0.526	0.016
518.2	3110	0.515	0.016
518.2	3290	0.512	0.016
518.2	3430	0.505	0.016
518.2	3650	0.497	0.016
518.2	3890	0.492	0.016
518.2	4160	0.485	0.016
518.2	4400	0.48	0.016
518.2	5090	0.465	0.016
518.2	5530	0.459	0.016
518.2	5990	0.452	0.016
518.2	6510	0.446	0.015
518.2	6960	0.441	0.015
518.2	7480	0.436	0.015
518.2	8120	0.43	0.015
518.2	9080	0.423	0.015
518.2	10130	0.416	0.015
518.2	11380	0.413	0.015
518.2	12900	0.409	0.015
518.2	14190	0.405	0.015
518.2	15840	0.401	0.015
538.2	3610	0.658	0.016
538.2	3810	0.614	0.016
538.2	4020	0.588	0.016
538.2	4250	0.559	0.016
538.2	4500	0.535	0.016
538.2	4690	0.523	0.016
538.2	4860	0.512	0.016
538.2	5060	0.5	0.016
538.2	5420	0.486	0.016
538.2	5730	0.473	0.016
538.2	6060	0.464	0.016
538.2	6410	0.456	0.016
538.2	7030	0.441	0.015
538.2	7460	0.436	0.015
538.2	7960	0.428	0.015
538.2	8460	0.423	0.015
538.2	9050	0.415	0.015
538.2	10010	0.408	0.015
538.2	11060	0.402	0.015
538.2	12590	0.398	0.015
538.2	14140	0.393	0.015
538.2	15300	0.388	0.015
548.2	4180	0.805	0.016
548.2	4350	0.71	0.016
548.2	4640	0.634	0.016
548.2	4880	0.59	0.016
548.2	5160	0.554	0.016
548.2	5440	0.528	0.016
548.2	5700	0.511	0.016
548.2	5970	0.497	0.016
548.2	6300	0.482	0.016
548.2	6870	0.465	0.016
548.2	7380	0.45	0.016
548.2	7880	0.442	0.015
548.2	8300	0.438	0.015
548.2	9060	0.428	0.015
548.2	10040	0.414	0.015
548.2	11200	0.405	0.015
548.2	13130	0.393	0.015
548.2	15510	0.384	0.015

System: benzene + cyclohexane; phases: Fluid (supercritical or subcritical phases)
Fixed: Temperature, K = 568.2
Fixed: Mole fraction of benzene = 0.548
Property: Excess molar enthalpy (molar enthalpy of mixing), kJ/mol (Fluid (supercritical or subcritical phases)); method: Flow calorimetry
Pressure, kPa	Excess molar enthalpy (molar enthalpy of mixing), kJ/mol	uncertainty
3600	0.172	0.015
3870	0.211	0.015
4090	0.304	0.015
4340	0.455	0.016
4430	0.527	0.016
4740	1.17	0.017
4750	1.212	0.018
4820	1.301	0.018
5000	1.014	0.017
5150	0.781	0.033
5240	1.226	0.033
5320	1.175	0.018
5410	1.062	0.017
5650	0.84	0.016
5790	0.772	0.016
5970	0.698	0.016
6130	0.657	0.016
6400	0.598	0.016
6660	0.556	0.016
6830	0.537	0.016
7110	0.508	0.016
7660	0.479	0.016
8130	0.459	0.016
8620	0.441	0.015
9080	0.428	0.015
9690	0.414	0.015
10320	0.404	0.015
11270	0.389	0.015
12480	0.371	0.015
14000	0.363	0.015
15180	0.354	0.015
