Measured thermophysical data. Thermodynamic study of the sublimation of eight 4-n-alkylbenzoic acids
Source: J. Chem. Thermodyn., 2004, 10.1016/j.jct.2004.02.001
Compound 1: 4-methylbenzoic acid, C8H8O2, InChI=1S/C8H8O2/c1-6-2-4-7(5-3-6)8(9)10/h2-5H,1H3,(H,9,10)
Compound 2: 4-ethylbenzoic acid, C9H10O2, InChI=1S/C9H10O2/c1-2-7-3-5-8(6-4-7)9(10)11/h3-6H,2H2,1H3,(H,10,11)
Compound 3: 4-propylbenzoic acid, C10H12O2, InChI=1S/C10H12O2/c1-2-3-8-4-6-9(7-5-8)10(11)12/h4-7H,2-3H2,1H3,(H,11,12)
Compound 4: 4-butylbenzoic acid, C11H14O2, InChI=1S/C11H14O2/c1-2-3-4-9-5-7-10(8-6-9)11(12)13/h5-8H,2-4H2,1H3,(H,12,13)
Compound 5: 4-pentylbenzoic acid, C12H16O2, InChI=1S/C12H16O2/c1-2-3-4-5-10-6-8-11(9-7-10)12(13)14/h6-9H,2-5H2,1H3,(H,13,14)
Compound 6: 4-hexylbenzoic acid, C13H18O2, InChI=1S/C13H18O2/c1-2-3-4-5-6-11-7-9-12(10-8-11)13(14)15/h7-10H,2-6H2,1H3,(H,14,15)
Compound 7: 4-heptylbenzoic acid, C14H20O2, InChI=1S/C14H20O2/c1-2-3-4-5-6-7-12-8-10-13(11-9-12)14(15)16/h8-11H,2-7H2,1H3,(H,15,16)
Compound 8: 4-octylbenzoic acid, C15H22O2, InChI=1S/C15H22O2/c1-2-3-4-5-6-7-8-13-9-11-14(12-10-13)15(16)17/h9-12H,2-8H2,1H3,(H,16,17)

System: 4-methylbenzoic acid; phases: Crystal, Liquid, Air at 1 atmosphere
Property: Molar enthalpy of transition or fusion, kJ/mol (Crystal); method: DSC
Molar enthalpy of transition or fusion, kJ/mol	uncertainty
22.48	0.52

System: 4-methylbenzoic acid; phases: Crystal, Liquid, Air at 1 atmosphere
Property: Triple point temperature, K (Crystal); method: DTA
Triple point temperature, K	uncertainty
452.34	0.5

System: 4-methylbenzoic acid; phases: Crystal, Gas
Property: Vapor or sublimation pressure, kPa (Crystal); method: Calculated from knudsen effusion weight loss
Temperature, K	Vapor or sublimation pressure, kPa	uncertainty
319.68	0.000137	7e-06
319.68	0.000137	7e-06
319.68	0.000133	7e-06
322.14	0.000182	9e-06
322.14	0.000179	9e-06
322.14	0.000174	9e-06
324.62	0.000235	1.2e-05
324.62	0.000235	1.2e-05
324.62	0.00023	1.2e-05
327.08	0.000312	1.6e-05
327.08	0.000309	1.5e-05
327.08	0.000307	1.5e-05
329.73	0.000421	2.1e-05
329.73	0.000415	2.1e-05
329.73	0.000408	2e-05
332.11	0.000536	2.7e-05
332.11	0.000529	2.6e-05
332.11	0.000515	2.6e-05
334.63	0.00071	3.6e-05
334.63	0.000689	3.4e-05
334.63	0.000685	3.4e-05
337.33	0.00092	4.6e-05
337.33	0.000891	4.5e-05

System: 4-ethylbenzoic acid; phases: Crystal, Liquid, Air at 1 atmosphere
Property: Molar enthalpy of transition or fusion, kJ/mol (Crystal); method: DSC
Molar enthalpy of transition or fusion, kJ/mol	uncertainty
12.79	0.33

System: 4-ethylbenzoic acid; phases: Crystal, Liquid, Air at 1 atmosphere
Property: Triple point temperature, K (Crystal); method: DTA
Triple point temperature, K	uncertainty
385.2	0.5

System: 4-ethylbenzoic acid; phases: Crystal, Gas
Property: Vapor or sublimation pressure, kPa (Crystal); method: Calculated from knudsen effusion weight loss
Temperature, K	Vapor or sublimation pressure, kPa	uncertainty
321.17	0.000214	1.1e-05
321.17	0.000214	1.1e-05
321.17	0.000211	1.1e-05
323.16	0.000272	1.4e-05
323.16	0.000265	1.3e-05
323.16	0.000263	1.3e-05
325.22	0.000347	1.7e-05
325.22	0.000335	1.7e-05
325.22	0.000335	1.7e-05
327.17	0.000436	2.2e-05
327.17	0.000419	2.1e-05
327.17	0.000418	2.1e-05
329.34	0.00055	2.8e-05
329.34	0.000542	2.7e-05
329.34	0.000527	2.6e-05
331.2	0.000666	3.3e-05
331.2	0.000651	3.3e-05
331.2	0.000637	3.2e-05
333.14	0.000826	4.1e-05
333.14	0.000818	4.1e-05
333.14	0.000803	4e-05
335.25	0.00103	0.0001
335.25	0.00101	0.0001
335.25	0.001	5e-05

System: 4-propylbenzoic acid; phases: Crystal 1, Liquid, Air at 1 atmosphere
Property: Molar enthalpy of transition or fusion, kJ/mol (Crystal 1); method: DSC
Molar enthalpy of transition or fusion, kJ/mol	uncertainty
19.67	0.58

System: 4-propylbenzoic acid; phases: Crystal 2, Crystal 1, Air at 1 atmosphere
Property: Molar enthalpy of transition or fusion, kJ/mol (Crystal 2); method: DSC
Molar enthalpy of transition or fusion, kJ/mol	uncertainty
3.39	0.36

System: 4-propylbenzoic acid; phases: Crystal 1, Liquid, Air at 1 atmosphere
Property: Triple point temperature, K (Crystal 1); method: DTA
Triple point temperature, K	uncertainty
415.41	0.5

System: 4-propylbenzoic acid; phases: Crystal 2, Crystal 1, Air at 1 atmosphere
Property: Triple point temperature, K (Crystal 2); method: DTA
Triple point temperature, K	uncertainty
298.48	0.5

System: 4-propylbenzoic acid; phases: Crystal 1, Gas
Property: Vapor or sublimation pressure, kPa (Crystal 1); method: Calculated from knudsen effusion weight loss
Temperature, K	Vapor or sublimation pressure, kPa	uncertainty
331.16	0.000166	8e-06
331.16	0.000162	8e-06
331.16	0.000159	8e-06
333.14	0.000207	1e-05
335.17	0.000259	1.3e-05
335.17	0.000252	1.3e-05
335.17	0.000246	1.2e-05
337.17	0.000321	1.6e-05
337.17	0.000318	1.6e-05
339.15	0.000397	2e-05
341.16	0.000501	2.5e-05
341.16	0.000485	2.4e-05
343.16	0.00062	3.1e-05
345.14	0.000772	3.9e-05
345.14	0.000774	3.9e-05
345.14	0.000768	3.8e-05
347.16	0.000968	4.8e-05
347.16	0.000968	4.8e-05
347.16	0.000944	4.7e-05

System: 4-butylbenzoic acid; phases: Nematic liquid crystal, Liquid, Air at 1 atmosphere
Property: Molar enthalpy of transition or fusion, kJ/mol (Nematic liquid crystal); method: DSC
Molar enthalpy of transition or fusion, kJ/mol	uncertainty
0.76	0.16

System: 4-butylbenzoic acid; phases: Crystal 1, Nematic liquid crystal, Air at 1 atmosphere
Property: Molar enthalpy of transition or fusion, kJ/mol (Crystal 1); method: DSC
Molar enthalpy of transition or fusion, kJ/mol	uncertainty
11.58	0.31

System: 4-butylbenzoic acid; phases: Crystal 2, Crystal 1, Air at 1 atmosphere
Property: Molar enthalpy of transition or fusion, kJ/mol (Crystal 2); method: DSC
Molar enthalpy of transition or fusion, kJ/mol	uncertainty
4.7	0.23

System: 4-butylbenzoic acid; phases: Nematic liquid crystal, Liquid, Air at 1 atmosphere
Property: Triple point temperature, K (Nematic liquid crystal); method: DTA
Triple point temperature, K	uncertainty
387.98	0.5

System: 4-butylbenzoic acid; phases: Crystal 1, Nematic liquid crystal, Air at 1 atmosphere
Property: Triple point temperature, K (Crystal 1); method: DTA
Triple point temperature, K	uncertainty
374.6	0.5

System: 4-butylbenzoic acid; phases: Crystal 2, Crystal 1, Air at 1 atmosphere
Property: Triple point temperature, K (Crystal 2); method: DTA
Triple point temperature, K	uncertainty
309.64	0.5

System: 4-butylbenzoic acid; phases: Crystal 1, Gas
Property: Vapor or sublimation pressure, kPa (Crystal 1); method: Calculated from knudsen effusion weight loss
Temperature, K	Vapor or sublimation pressure, kPa	uncertainty
333.16	0.000164	8e-06
333.16	0.000162	8e-06
335.16	0.000211	1.1e-05
335.16	0.000212	1.1e-05
335.16	0.000212	1.1e-05
337.14	0.000263	1.3e-05
337.14	0.000262	1.3e-05
337.14	0.000261	1.3e-05
339.17	0.000328	1.6e-05
339.17	0.00033	1.7e-05
339.17	0.000323	1.6e-05
341.17	0.000422	2.1e-05
341.17	0.00042	2.1e-05
341.17	0.000408	2e-05
343.16	0.00052	2.6e-05
343.16	0.00052	2.6e-05
343.16	0.000522	2.6e-05
345.15	0.000645	3.2e-05
345.15	0.000629	3.2e-05
345.15	0.000622	3.1e-05
347.13	0.000804	4e-05
347.13	0.000786	3.9e-05
347.13	0.00078	3.9e-05
349.15	0.000994	5e-05
349.15	0.000968	4.8e-05
349.15	0.000978	4.9e-05

System: 4-pentylbenzoic acid; phases: Nematic liquid crystal, Liquid, Air at 1 atmosphere
Property: Molar enthalpy of transition or fusion, kJ/mol (Nematic liquid crystal); method: DSC
Molar enthalpy of transition or fusion, kJ/mol	uncertainty
1.1	0.45

System: 4-pentylbenzoic acid; phases: Crystal 1, Nematic liquid crystal, Air at 1 atmosphere
Property: Molar enthalpy of transition or fusion, kJ/mol (Crystal 1); method: DSC
Molar enthalpy of transition or fusion, kJ/mol	uncertainty
11.38	0.34

System: 4-pentylbenzoic acid; phases: Nematic liquid crystal, Liquid, Air at 1 atmosphere
Property: Triple point temperature, K (Nematic liquid crystal); method: DTA
Triple point temperature, K	uncertainty
399.3	0.5

System: 4-pentylbenzoic acid; phases: Crystal 1, Nematic liquid crystal, Air at 1 atmosphere
Property: Triple point temperature, K (Crystal 1); method: DTA
Triple point temperature, K	uncertainty
362.45	0.5

System: 4-pentylbenzoic acid; phases: Crystal 1, Gas
Property: Vapor or sublimation pressure, kPa (Crystal 1); method: Calculated from knudsen effusion weight loss
Temperature, K	Vapor or sublimation pressure, kPa	uncertainty
341.16	0.000174	9e-06
341.16	0.000177	9e-06
341.16	0.000169	8e-06
343.16	0.000223	1.1e-05
343.16	0.000214	1.1e-05
345.16	0.000279	1.4e-05
345.16	0.000271	1.4e-05
347.18	0.000358	1.8e-05
347.18	0.000355	1.8e-05
347.18	0.000345	1.7e-05
349.18	0.000454	2.3e-05
349.18	0.000455	2.3e-05
349.18	0.000439	2.2e-05
351.17	0.000553	2.8e-05
351.17	0.000544	2.7e-05
351.17	0.000533	2.7e-05
353.16	0.000694	3.5e-05
353.16	0.000692	3.5e-05
353.16	0.000682	3.4e-05
355.16	0.000852	4.3e-05
355.16	0.000854	4.3e-05
355.16	0.000828	4.1e-05
357.16	0.00109	0.00011
357.16	0.00106	0.00011
357.16	0.00106	0.00011

System: 4-hexylbenzoic acid; phases: Crystal 1, Liquid, Air at 1 atmosphere
Property: Molar enthalpy of transition or fusion, kJ/mol (Crystal 1); method: DSC
Molar enthalpy of transition or fusion, kJ/mol	uncertainty
0.95	0.14

System: 4-hexylbenzoic acid; phases: Crystal 3, Crystal 1, Air at 1 atmosphere
Property: Molar enthalpy of transition or fusion, kJ/mol (Crystal 3); method: DSC
Molar enthalpy of transition or fusion, kJ/mol	uncertainty
12.88	0.34

System: 4-hexylbenzoic acid; phases: Nematic liquid crystal, Liquid, Air at 1 atmosphere
Property: Triple point temperature, K (Nematic liquid crystal); method: DTA
Triple point temperature, K	uncertainty
385.87	0.5

System: 4-hexylbenzoic acid; phases: Crystal 1, Nematic liquid crystal, Air at 1 atmosphere
Property: Triple point temperature, K (Crystal 1); method: DTA
Triple point temperature, K	uncertainty
370.64	0.5

System: 4-hexylbenzoic acid; phases: Crystal 1, Gas
Property: Vapor or sublimation pressure, kPa (Crystal 1); method: Calculated from knudsen effusion weight loss
Temperature, K	Vapor or sublimation pressure, kPa	uncertainty
347.08	0.00015	8e-06
347.08	0.000151	8e-06
347.08	0.000146	7e-06
349.19	0.000193	1e-05
349.19	0.000191	1e-05
349.19	0.000189	9e-06
351.19	0.000245	1.2e-05
351.19	0.000243	1.2e-05
351.19	0.000232	1.2e-05
353.14	0.000304	1.5e-05
353.14	0.000298	1.5e-05
353.14	0.000293	1.5e-05
355.25	0.000391	2e-05
355.25	0.000388	1.9e-05
355.25	0.000381	1.9e-05
357.16	0.000485	2.4e-05
357.16	0.00047	2.4e-05
357.16	0.000468	2.3e-05
359.27	0.000619	3.1e-05
359.27	0.000614	3.1e-05
359.27	0.000605	3e-05
361.35	0.000768	3.8e-05
361.35	0.000764	3.8e-05
361.35	0.000736	3.7e-05
363.14	0.000951	4.8e-05
363.14	0.000946	4.7e-05
363.14	0.000919	4.6e-05

System: 4-heptylbenzoic acid; phases: Nematic liquid crystal, Liquid, Air at 1 atmosphere
Property: Molar enthalpy of transition or fusion, kJ/mol (Nematic liquid crystal); method: DSC
Molar enthalpy of transition or fusion, kJ/mol	uncertainty
1	0.12

System: 4-heptylbenzoic acid; phases: Crystal 1, Nematic liquid crystal, Air at 1 atmosphere
Property: Molar enthalpy of transition or fusion, kJ/mol (Crystal 1); method: DSC
Molar enthalpy of transition or fusion, kJ/mol	uncertainty
14.33	0.47

System: 4-heptylbenzoic acid; phases: Crystal 2, Crystal 1, Air at 1 atmosphere
Property: Molar enthalpy of transition or fusion, kJ/mol (Crystal 2); method: DSC
Molar enthalpy of transition or fusion, kJ/mol	uncertainty
7.4	0.24

System: 4-heptylbenzoic acid; phases: Nematic liquid crystal, Liquid, Air at 1 atmosphere
Property: Triple point temperature, K (Nematic liquid crystal); method: DTA
Triple point temperature, K	uncertainty
393.11	0.5

System: 4-heptylbenzoic acid; phases: Crystal 1, Nematic liquid crystal, Air at 1 atmosphere
Property: Triple point temperature, K (Crystal 1); method: DTA
Triple point temperature, K	uncertainty
374.52	0.5

System: 4-heptylbenzoic acid; phases: Crystal 2, Crystal 1, Air at 1 atmosphere
Property: Triple point temperature, K (Crystal 2); method: DTA
Triple point temperature, K	uncertainty
320.17	0.5

System: 4-heptylbenzoic acid; phases: Crystal 1, Gas
Property: Vapor or sublimation pressure, kPa (Crystal 1); method: Calculated from knudsen effusion weight loss
Temperature, K	Vapor or sublimation pressure, kPa	uncertainty
353.16	0.000119	6e-06
353.16	0.000121	6e-06
353.16	0.000116	6e-06
355.19	0.000149	7e-06
355.19	0.000151	8e-06
355.19	0.000149	7e-06
357.19	0.000191	1e-05
357.19	0.000193	1e-05
357.19	0.000189	9e-06
359.18	0.00024	1.2e-05
359.18	0.000239	1.2e-05
359.18	0.000239	1.2e-05
361.17	0.000312	1.6e-05
361.17	0.0003	1.5e-05
361.17	0.000304	1.5e-05
363.2	0.000392	2e-05
363.2	0.000381	1.9e-05
365.18	0.000484	2.4e-05
365.18	0.000482	2.4e-05
365.18	0.000475	2.4e-05
367.14	0.000608	3e-05
367.14	0.000602	3e-05
367.14	0.000595	3e-05
369.2	0.000771	3.9e-05
369.2	0.000764	3.8e-05
369.2	0.000751	3.8e-05

System: 4-octylbenzoic acid; phases: Nematic liquid crystal, Liquid, Air at 1 atmosphere
Property: Molar enthalpy of transition or fusion, kJ/mol (Nematic liquid crystal); method: DSC
Molar enthalpy of transition or fusion, kJ/mol	uncertainty
1.2	0.26

System: 4-octylbenzoic acid; phases: Crystal 1, Nematic liquid crystal, Air at 1 atmosphere
Property: Molar enthalpy of transition or fusion, kJ/mol (Crystal 1); method: DSC
Molar enthalpy of transition or fusion, kJ/mol	uncertainty
14.32	0.47

System: 4-octylbenzoic acid; phases: Crystal 2, Crystal 1, Air at 1 atmosphere
Property: Molar enthalpy of transition or fusion, kJ/mol (Crystal 2); method: DSC
Molar enthalpy of transition or fusion, kJ/mol	uncertainty
0.47	0.11

System: 4-octylbenzoic acid; phases: Crystal 3, Crystal 2, Air at 1 atmosphere
Property: Molar enthalpy of transition or fusion, kJ/mol (Crystal 3); method: DSC
Molar enthalpy of transition or fusion, kJ/mol	uncertainty
5.4	0.25

System: 4-octylbenzoic acid; phases: Nematic liquid crystal, Liquid, Air at 1 atmosphere
Property: Triple point temperature, K (Nematic liquid crystal); method: DTA
Triple point temperature, K	uncertainty
385.54	0.5

System: 4-octylbenzoic acid; phases: Crystal 1, Nematic liquid crystal, Air at 1 atmosphere
Property: Triple point temperature, K (Crystal 1); method: DTA
Triple point temperature, K	uncertainty
373.25	0.5

System: 4-octylbenzoic acid; phases: Crystal 2, Crystal 1, Air at 1 atmosphere
Property: Triple point temperature, K (Crystal 2); method: DTA
Triple point temperature, K	uncertainty
366.56	0.5

System: 4-octylbenzoic acid; phases: Crystal 3, Crystal 2, Air at 1 atmosphere
Property: Triple point temperature, K (Crystal 3); method: DTA
Triple point temperature, K	uncertainty
305.46	0.5

System: 4-octylbenzoic acid; phases: Crystal 2, Gas
Property: Vapor or sublimation pressure, kPa (Crystal 2); method: Calculated from knudsen effusion weight loss
Temperature, K	Vapor or sublimation pressure, kPa	uncertainty
356.67	8.5e-05	4e-06
356.67	8.6e-05	4e-06
358.22	0.000102	5e-06
358.22	0.000103	5e-06
359.66	0.000127	6e-06
359.66	0.000126	6e-06
361.16	0.00015	8e-06
361.16	0.000148	7e-06
362.71	0.000182	9e-06
362.71	0.000181	9e-06
364.25	0.000213	1.1e-05
364.25	0.000211	1.1e-05
365.68	0.000255	1.3e-05
365.68	0.000253	1.3e-05

System: 4-octylbenzoic acid; phases: Crystal 1, Gas
Property: Vapor or sublimation pressure, kPa (Crystal 1); method: Calculated from knudsen effusion weight loss
Temperature, K	Vapor or sublimation pressure, kPa	uncertainty
367.46	0.000302	1.5e-05
367.46	0.000305	1.5e-05
368.85	0.000356	1.8e-05
368.85	0.000355	1.8e-05
370.35	0.000426	2.1e-05
370.35	0.000424	2.1e-05
371.86	0.000504	2.5e-05
371.86	0.000502	2.5e-05
