Measured thermophysical data. Excess enthalpy, density, and heat capacity for binary systems of alkylimidazolium-based ionic liquids + water
Source: J. Chem. Thermodyn., 2009, 10.1016/j.jct.2008.10.002
Compound 1: water, H2O, InChI=1S/H2O/h1H2, purity 99%
Compound 2: 1-butyl-3-methylpyridinium tetrafluoroborate, C10H16BF4N, InChI=1S/C10H16N.BF4/c1-3-4-7-11-8-5-6-10(2)9-11;2-1(3,4)5/h5-6,8-9H,3-4,7H2,1-2H3;/q+1;-1, purity 99%
Compound 3: 1-ethyl-3-methylimidazolium ethyl sulfate, C8H16N2O4S, InChI=1S/C6H11N2.C2H6O4S/c1-3-8-5-4-7(2)6-8;1-2-6-7(3,4)5/h4-6H,3H2,1-2H3;2H2,1H3,(H,3,4,5)/q+1;/p-1, purity 99%
Compound 4: 1-butyl-3-methylimidazolium methyl sulfate, C9H18N2O4S, InChI=1S/C8H15N2.CH4O4S/c1-3-4-5-10-7-6-9(2)8-10;1-5-6(2,3)4/h6-8H,3-5H2,1-2H3;1H3,(H,2,3,4)/q+1;/p-1, purity 99%
Compound 5: 1-butyl-3-methylimidazolium trifluoromethanesulfonate, C9H15F3N2O3S, InChI=1S/C8H15N2.CHF3O3S/c1-3-4-5-10-7-6-9(2)8-10;2-1(3,4)8(5,6)7/h6-8H,3-5H2,1-2H3;(H,5,6,7)/q+1;/p-1, purity 99%
Compound 6: 1-ethyl-3-methylimidazolium trifluoromethanesulfonate, C7H11F3N2O3S, InChI=1S/C6H11N2.CHF3O3S/c1-3-8-5-4-7(2)6-8;2-1(3,4)8(5,6)7/h4-6H,3H2,1-2H3;(H,5,6,7)/q+1;/p-1, purity 99%

System: water; phases: Liquid
Fixed: Pressure, kPa = 101.325
Property: Molar heat capacity at constant pressure, J/K/mol (Liquid); method: Small sample (50 mg) DSC
Temperature, K	Molar heat capacity at constant pressure, J/K/mol	uncertainty
293.15	75.4	1.2
298.15	75.3	1.2
303.15	75.3	1.2
308.15	75.2	1.2
313.15	75.2	1.2
318.15	75.3	1.2

System: water; phases: Liquid
Fixed: Pressure, kPa = 101.325
Property: Mass density, kg/m3 (Liquid); method: Vibrating tube method
Temperature, K	Mass density, kg/m3	uncertainty
293.15	998.2	0.3
298.15	997.1	0.3
303.15	995.7	0.3
308.15	994.1	0.3
313.15	992.2	0.3
318.15	990.2	0.3

System: 1-ethyl-3-methylimidazolium ethyl sulfate; phases: Liquid
Fixed: Pressure, kPa = 101.325
Property: Molar heat capacity at constant pressure, J/K/mol (Liquid); method: Small sample (50 mg) DSC
Temperature, K	Molar heat capacity at constant pressure, J/K/mol	uncertainty
293.15	392.2	6.1
298.15	394.4	6.1
303.15	396.8	6.1
308.15	399.3	6.2
313.15	402	6.2
318.15	404.9	6.3

System: 1-ethyl-3-methylimidazolium ethyl sulfate; phases: Liquid
Fixed: Pressure, kPa = 101.325
Property: Mass density, kg/m3 (Liquid); method: Vibrating tube method
Temperature, K	Mass density, kg/m3	uncertainty
293.15	1240.6	0.4
298.15	1237.2	0.4
303.15	1233.8	0.4
308.15	1230.4	0.4
313.15	1227	0.4
318.15	1223.7	0.4

System: 1-butyl-3-methylimidazolium methyl sulfate; phases: Liquid
Fixed: Pressure, kPa = 101.325
Property: Molar heat capacity at constant pressure, J/K/mol (Liquid); method: Small sample (50 mg) DSC
Temperature, K	Molar heat capacity at constant pressure, J/K/mol	uncertainty
293.15	413.7	6.4
298.15	416.2	6.4
303.15	418.5	6.5
308.15	420.9	6.5
313.15	423.3	6.6
318.15	425.6	6.6

System: 1-butyl-3-methylimidazolium methyl sulfate; phases: Liquid
Fixed: Pressure, kPa = 101.325
Property: Mass density, kg/m3 (Liquid); method: Vibrating tube method
Temperature, K	Mass density, kg/m3	uncertainty
293.15	1210.7	0.4
298.15	1207.4	0.4
303.15	1204.1	0.4
308.15	1200.8	0.4
313.15	1197.5	0.4
318.15	1194.2	0.4

System: 1-butyl-3-methylimidazolium trifluoromethanesulfonate; phases: Liquid
Fixed: Pressure, kPa = 101.325
Property: Molar heat capacity at constant pressure, J/K/mol (Liquid); method: Small sample (50 mg) DSC
Temperature, K	Molar heat capacity at constant pressure, J/K/mol	uncertainty
293.15	421.6	6.5
298.15	424.1	6.6
303.15	426.7	6.6
308.15	429.5	6.7
313.15	432.4	6.7
318.15	435.5	6.7

System: 1-butyl-3-methylimidazolium trifluoromethanesulfonate; phases: Liquid
Fixed: Pressure, kPa = 101.325
Property: Mass density, kg/m3 (Liquid); method: Vibrating tube method
Temperature, K	Mass density, kg/m3	uncertainty
293.15	1301.6	0.5
298.15	1297.6	0.5
303.15	1293.7	0.5
308.15	1289.7	0.5
313.15	1285.8	0.5
318.15	1281.9	0.5

System: 1-ethyl-3-methylimidazolium trifluoromethanesulfonate; phases: Liquid
Fixed: Pressure, kPa = 101.325
Property: Molar heat capacity at constant pressure, J/K/mol (Liquid); method: Small sample (50 mg) DSC
Temperature, K	Molar heat capacity at constant pressure, J/K/mol	uncertainty
293.15	361.1	5.6
298.15	363.2	5.6
303.15	365.3	5.7
308.15	367.4	5.7
313.15	369.6	5.7
318.15	371.8	5.8

System: 1-ethyl-3-methylimidazolium trifluoromethanesulfonate; phases: Liquid
Fixed: Pressure, kPa = 101.325
Property: Mass density, kg/m3 (Liquid); method: Vibrating tube method
Temperature, K	Mass density, kg/m3	uncertainty
293.15	1389.5	0.6
298.15	1385.3	0.6
303.15	1381.1	0.6
308.15	1376.9	0.6
313.15	1372.7	0.6
318.15	1368.6	0.6

System: water + 1-ethyl-3-methylimidazolium ethyl sulfate; phases: Liquid
Fixed: Pressure, kPa = 101.3
Fixed: Temperature, K = 303.15
Property: Excess molar enthalpy (molar enthalpy of mixing), kJ/mol (Liquid); method: CALVET:UFactor:2
Mole fraction of 1-ethyl-3-methylimidazolium ethyl sulfate	Excess molar enthalpy (molar enthalpy of mixing), kJ/mol	uncertainty
0.0504	-0.482	0.012
0.0997	-0.767	0.017
0.1468	-0.915	0.02
0.2004	-0.986	0.022
0.2921	-0.968	0.021
0.3935	-0.853	0.019
0.4806	-0.794	0.018
0.5727	-0.655	0.015
0.6687	-0.52	0.012
0.8212	-0.285	0.008

System: water + 1-ethyl-3-methylimidazolium ethyl sulfate; phases: Liquid
Fixed: Pressure, kPa = 101.3
Property: Molar heat capacity at constant pressure, J/K/mol (Liquid); method: Small sample (50 mg) DSC
Temperature, K	Mole fraction of 1-ethyl-3-methylimidazolium ethyl sulfate	Molar heat capacity at constant pressure, J/K/mol	uncertainty
293.15	0.0477	92.6	1.4
293.15	0.1033	109.8	1.7
293.15	0.2048	140.4	2.2
293.15	0.2943	167.1	2.6
293.15	0.3847	194.3	3
293.15	0.4774	222.7	3.5
293.15	0.5797	254.6	3.9
293.15	0.6632	281.3	4.4
293.15	0.8092	328.9	5.1
293.15	0.907	360.9	5.6
298.15	0.0477	92.9	1.4
298.15	0.1033	110.5	1.7
298.15	0.2048	141.4	2.2
298.15	0.2943	168.3	2.6
298.15	0.3847	195.7	3
298.15	0.4774	224.2	3.5
298.15	0.5797	256.2	4
298.15	0.6632	283.1	4.4
298.15	0.8092	330.9	5.1
298.15	0.907	363.1	5.6
303.15	0.0477	93.3	1.4
303.15	0.1033	111.2	1.7
303.15	0.2048	142.6	2.2
303.15	0.2943	169.7	2.6
303.15	0.3847	197.1	3.1
303.15	0.4774	225.8	3.5
303.15	0.5797	258	4
303.15	0.6632	285	4.4
303.15	0.8092	333	5.2
303.15	0.907	365.3	5.7
308.15	0.0477	93.6	1.5
308.15	0.1033	111.9	1.7
308.15	0.2048	143.7	2.2
308.15	0.2943	171	2.7
308.15	0.3847	198.6	3.1
308.15	0.4774	227.5	3.5
308.15	0.5797	259.9	4
308.15	0.6632	287.1	4.4
308.15	0.8092	335.3	5.2
308.15	0.907	367.7	5.7
313.15	0.0477	93.9	1.5
313.15	0.1033	112.7	1.7
313.15	0.2048	144.9	2.2
313.15	0.2943	172.4	2.7
313.15	0.3847	200.3	3.1
313.15	0.4774	229.3	3.6
313.15	0.5797	261.8	4.1
313.15	0.6632	289.2	4.5
313.15	0.8092	337.7	5.2
313.15	0.907	370.3	5.7
318.15	0.0477	94.4	1.5
318.15	0.1033	113.6	1.8
318.15	0.2048	146.2	2.3
318.15	0.2943	173.9	2.7
318.15	0.3847	202	3.1
318.15	0.4774	231.2	3.6
318.15	0.5797	263.9	4.1
318.15	0.6632	291.6	4.5
318.15	0.8092	340.3	5.3
318.15	0.907	373	5.8

System: water + 1-ethyl-3-methylimidazolium ethyl sulfate; phases: Liquid
Fixed: Pressure, kPa = 101.3
Property: Mass density, kg/m3 (Liquid); method: Vibrating tube method
Temperature, K	Mole fraction of 1-ethyl-3-methylimidazolium ethyl sulfate	Mass density, kg/m3	uncertainty
293.15	0.0477	1084.8	0.4
293.15	0.1033	1138.7	0.4
293.15	0.2048	1184.3	0.4
293.15	0.2943	1203.3	0.4
293.15	0.3847	1214.7	0.4
293.15	0.4774	1222.5	0.4
293.15	0.5797	1228.5	0.4
293.15	0.6632	1232	0.4
293.15	0.8092	1236.6	0.4
293.15	0.907	1238.9	0.4
298.15	0.0477	1082.3	0.4
298.15	0.1033	1135.4	0.4
298.15	0.2048	1180.8	0.4
298.15	0.2943	1199.8	0.4
298.15	0.3847	1211.3	0.4
298.15	0.4774	1219.1	0.4
298.15	0.5797	1225	0.4
298.15	0.6632	1228.6	0.4
298.15	0.8092	1233.2	0.4
298.15	0.907	1235.5	0.4
303.15	0.0477	1079.6	0.4
303.15	0.1033	1132.1	0.4
303.15	0.2048	1177.2	0.4
303.15	0.2943	1196.3	0.4
303.15	0.3847	1207.8	0.4
303.15	0.4774	1215.6	0.4
303.15	0.5797	1221.6	0.4
303.15	0.6632	1225.2	0.4
303.15	0.8092	1229.8	0.4
303.15	0.907	1232.1	0.4
308.15	0.0477	1076.9	0.4
308.15	0.1033	1128.7	0.4
308.15	0.2048	1173.6	0.4
308.15	0.2943	1192.7	0.4
308.15	0.3847	1204.3	0.4
308.15	0.4774	1212.2	0.4
308.15	0.5797	1218.2	0.4
308.15	0.6632	1221.8	0.4
308.15	0.8092	1226.4	0.4
308.15	0.907	1228.7	0.4
313.15	0.0477	1073.9	0.4
313.15	0.1033	1125.3	0.4
313.15	0.2048	1170	0.4
313.15	0.2943	1189.2	0.4
313.15	0.3847	1200.8	0.4
313.15	0.4774	1208.7	0.4
313.15	0.5797	1214.8	0.4
313.15	0.6632	1218.4	0.4
313.15	0.8092	1223	0.4
313.15	0.907	1225.3	0.4
318.15	0.0477	1071	0.4
318.15	0.1033	1121.8	0.4
318.15	0.2048	1166.4	0.4
318.15	0.2943	1185.6	0.4
318.15	0.3847	1197.3	0.4
318.15	0.4774	1205.3	0.4
318.15	0.5797	1211.3	0.4
318.15	0.6632	1215	0.4
318.15	0.8092	1219.6	0.4
318.15	0.907	1221.9	0.4

System: water + 1-butyl-3-methylimidazolium methyl sulfate; phases: Liquid
Fixed: Pressure, kPa = 101.3
Fixed: Temperature, K = 303.15
Property: Excess molar enthalpy (molar enthalpy of mixing), kJ/mol (Liquid); method: CALVET:UFactor:2
Mole fraction of 1-butyl-3-methylimidazolium methyl sulfate	Excess molar enthalpy (molar enthalpy of mixing), kJ/mol	uncertainty
0.0506	-0.283	0.008
0.1003	-0.404	0.01
0.1461	-0.482	0.012
0.2018	-0.522	0.012
0.299	-0.537	0.013
0.4021	-0.491	0.012
0.5447	-0.413	0.01
0.6795	-0.316	0.008
0.8434	-0.173	0.005

System: water + 1-butyl-3-methylimidazolium methyl sulfate; phases: Liquid
Fixed: Pressure, kPa = 101.3
Property: Molar heat capacity at constant pressure, J/K/mol (Liquid); method: Small sample (50 mg) DSC
Temperature, K	Mole fraction of 1-butyl-3-methylimidazolium methyl sulfate	Molar heat capacity at constant pressure, J/K/mol	uncertainty
293.15	0.0213	84.8	1.3
293.15	0.0489	95.3	1.5
293.15	0.0996	112	1.7
293.15	0.1975	143.8	2.2
293.15	0.2938	175.2	2.7
293.15	0.3948	207.8	3.2
293.15	0.4809	235.7	3.7
293.15	0.5724	265.9	4.1
293.15	0.6552	293.4	4.5
293.15	0.8002	343.5	5.3
293.15	0.9554	397.9	6.2
298.15	0.0213	84.8	1.3
298.15	0.0489	95.6	1.5
298.15	0.0996	112.6	1.7
298.15	0.1975	144.9	2.2
298.15	0.2938	176.5	2.7
298.15	0.3948	209.3	3.2
298.15	0.4809	237.3	3.7
298.15	0.5724	267.7	4.1
298.15	0.6552	295.3	4.6
298.15	0.8002	345.5	5.4
298.15	0.9554	400.1	6.2
303.15	0.0213	84.9	1.3
303.15	0.0489	96	1.5
303.15	0.0996	113.3	1.8
303.15	0.1975	146.1	2.3
303.15	0.2938	177.8	2.8
303.15	0.3948	210.8	3.3
303.15	0.4809	239	3.7
303.15	0.5724	269.5	4.2
303.15	0.6552	297.3	4.6
303.15	0.8002	347.6	5.4
303.15	0.9554	402.3	6.2
308.15	0.0213	84.9	1.3
308.15	0.0489	96.2	1.5
308.15	0.0996	113.9	1.8
308.15	0.1975	147.1	2.3
308.15	0.2938	179	2.8
308.15	0.3948	212.2	3.3
308.15	0.4809	240.5	3.7
308.15	0.5724	271.2	4.2
308.15	0.6552	299.2	4.6
308.15	0.8002	349.7	5.4
308.15	0.9554	404.5	6.3
313.15	0.0213	84.9	1.3
313.15	0.0489	96.5	1.5
313.15	0.0996	114.5	1.8
313.15	0.1975	148.1	2.3
313.15	0.2938	180.3	2.8
313.15	0.3948	213.6	3.3
313.15	0.4809	242.1	3.8
313.15	0.5724	272.9	4.2
313.15	0.6552	301.2	4.7
313.15	0.8002	351.7	5.4
313.15	0.9554	406.7	6.3
318.15	0.0213	85.1	1.3
318.15	0.0489	96.8	1.5
318.15	0.0996	115.2	1.8
318.15	0.1975	149.1	2.3
318.15	0.2938	181.6	2.8
318.15	0.3948	215	3.3
318.15	0.4809	243.7	3.8
318.15	0.5724	274.6	4.3
318.15	0.6552	303.1	4.7
318.15	0.8002	353.8	5.5
318.15	0.9554	408.9	6.3

System: water + 1-butyl-3-methylimidazolium methyl sulfate; phases: Liquid
Fixed: Pressure, kPa = 101.3
Property: Mass density, kg/m3 (Liquid); method: Vibrating tube method
Temperature, K	Mole fraction of 1-butyl-3-methylimidazolium methyl sulfate	Mass density, kg/m3	uncertainty
293.15	0.0213	1041.7	0.4
293.15	0.0489	1081	0.4
293.15	0.0996	1123.8	0.4
293.15	0.1975	1162.3	0.4
293.15	0.2938	1180	0.4
293.15	0.3948	1190.5	0.4
293.15	0.4809	1196.3	0.4
293.15	0.5724	1200.7	0.4
293.15	0.6552	1203.6	0.4
293.15	0.8002	1207.3	0.4
293.15	0.8199	1207.7	0.4
293.15	0.9554	1210	0.4
298.15	0.0213	1039.7	0.4
298.15	0.0489	1078.3	0.4
298.15	0.0996	1120.5	0.4
298.15	0.1975	1158.8	0.4
298.15	0.2938	1176.5	0.4
298.15	0.3948	1187	0.4
298.15	0.4809	1192.9	0.4
298.15	0.5724	1197.3	0.4
298.15	0.6552	1200.3	0.4
298.15	0.8002	1204	0.4
298.15	0.8199	1204.3	0.4
298.15	0.9554	1206.7	0.4
303.15	0.0213	1037.5	0.4
303.15	0.0489	1075.4	0.4
303.15	0.0996	1117.1	0.4
303.15	0.1975	1155.2	0.4
303.15	0.2938	1173	0.4
303.15	0.3948	1183.6	0.4
303.15	0.4809	1189.5	0.4
303.15	0.5724	1193.9	0.4
303.15	0.6552	1196.9	0.4
303.15	0.8002	1200.7	0.4
303.15	0.8199	1201	0.4
303.15	0.9554	1203.4	0.4
308.15	0.0213	1035.2	0.4
308.15	0.0489	1072.4	0.4
308.15	0.0996	1113.6	0.4
308.15	0.1975	1151.7	0.4
308.15	0.2938	1169.5	0.4
308.15	0.3948	1180.2	0.4
308.15	0.4809	1186.1	0.4
308.15	0.5724	1190.6	0.4
308.15	0.6552	1193.6	0.4
308.15	0.8002	1197.4	0.4
308.15	0.8199	1197.7	0.4
308.15	0.9554	1200.1	0.4
313.15	0.0213	1032.7	0.4
313.15	0.0489	1069.3	0.4
313.15	0.0996	1110.1	0.4
313.15	0.1975	1148	0.4
313.15	0.2938	1166	0.4
313.15	0.3948	1176.7	0.4
313.15	0.4809	1182.7	0.4
313.15	0.5724	1187.2	0.4
313.15	0.6552	1190.3	0.4
313.15	0.8002	1194.1	0.4
313.15	0.8199	1194.4	0.4
313.15	0.9554	1196.8	0.4
318.15	0.0213	1030.1	0.4
318.15	0.0489	1066.2	0.4
318.15	0.0996	1106.6	0.4
318.15	0.1975	1144.4	0.4
318.15	0.2938	1162.5	0.4
318.15	0.3948	1173.3	0.4
318.15	0.4809	1179.3	0.4
318.15	0.5724	1183.9	0.4
318.15	0.6552	1186.9	0.4
318.15	0.8002	1190.8	0.4
318.15	0.8199	1191.1	0.4
318.15	0.9554	1193.6	0.4

System: water + 1-ethyl-3-methylimidazolium trifluoromethanesulfonate; phases: Liquid
Fixed: Pressure, kPa = 101.3
Fixed: Temperature, K = 303.15
Property: Excess molar enthalpy (molar enthalpy of mixing), kJ/mol (Liquid); method: CALVET:UFactor:2
Mole fraction of 1-ethyl-3-methylimidazolium trifluoromethanesulfonate	Excess molar enthalpy (molar enthalpy of mixing), kJ/mol	uncertainty
0.1012	0.487	0.012
0.1943	0.794	0.018
0.2959	0.991	0.022
0.4031	1.071	0.023
0.4921	1.059	0.023
0.5929	0.964	0.021
0.6997	0.763	0.017
0.7805	0.601	0.014
0.844	0.448	0.011

System: water + 1-ethyl-3-methylimidazolium trifluoromethanesulfonate; phases: Liquid
Fixed: Pressure, kPa = 101.3
Property: Molar heat capacity at constant pressure, J/K/mol (Liquid); method: Small sample (50 mg) DSC
Temperature, K	Mole fraction of 1-ethyl-3-methylimidazolium trifluoromethanesulfonate	Molar heat capacity at constant pressure, J/K/mol	uncertainty
293.15	0.0186	83.2	1.3
293.15	0.0522	94.2	1.5
293.15	0.0995	108.1	1.7
293.15	0.2037	138	2.1
293.15	0.2952	163.5	2.5
293.15	0.3868	188.5	2.9
293.15	0.4761	213.2	3.3
293.15	0.5771	240.9	3.7
293.15	0.6617	264	4.1
293.15	0.8398	314.4	4.9
293.15	0.8646	321.6	5
298.15	0.0186	83.1	1.3
298.15	0.0522	94.3	1.5
298.15	0.0995	108.6	1.7
298.15	0.2037	138.9	2.2
298.15	0.2952	164.5	2.5
298.15	0.3868	189.7	2.9
298.15	0.4761	214.5	3.3
298.15	0.5771	242.3	3.8
298.15	0.6617	265.6	4.1
298.15	0.8398	316.3	4.9
298.15	0.8646	323.5	5
303.15	0.0186	83.2	1.3
303.15	0.0522	94.6	1.5
303.15	0.0995	109.2	1.7
303.15	0.2037	139.9	2.2
303.15	0.2952	165.6	2.6
303.15	0.3868	190.9	3
303.15	0.4761	215.8	3.3
303.15	0.5771	243.8	3.8
303.15	0.6617	267.3	4.1
303.15	0.8398	318.2	4.9
303.15	0.8646	325.5	5
308.15	0.0186	83.1	1.3
308.15	0.0522	94.7	1.5
308.15	0.0995	109.6	1.7
308.15	0.2037	140.7	2.2
308.15	0.2952	166.6	2.6
308.15	0.3868	192.1	3
308.15	0.4761	217.1	3.4
308.15	0.5771	245.3	3.8
308.15	0.6617	269	4.2
308.15	0.8398	320.2	5
308.15	0.8646	327.5	5.1
313.15	0.0186	83.2	1.3
313.15	0.0522	95	1.5
313.15	0.0995	110.1	1.7
313.15	0.2037	141.5	2.2
313.15	0.2952	167.7	2.6
313.15	0.3868	193.3	3
313.15	0.4761	218.5	3.4
313.15	0.5771	246.9	3.8
313.15	0.6617	270.8	4.2
313.15	0.8398	322.1	5
313.15	0.8646	329.6	5.1
318.15	0.0186	83.4	1.3
318.15	0.0522	95.4	1.5
318.15	0.0995	110.6	1.7
318.15	0.2037	142.4	2.2
318.15	0.2952	168.8	2.6
318.15	0.3868	194.6	3
318.15	0.4761	220	3.4
318.15	0.5771	248.5	3.9
318.15	0.6617	272.6	4.2
318.15	0.8398	324.2	5
318.15	0.8646	331.7	5.1

System: water + 1-ethyl-3-methylimidazolium trifluoromethanesulfonate; phases: Liquid
Fixed: Pressure, kPa = 101.3
Property: Mass density, kg/m3 (Liquid); method: Vibrating tube method
Temperature, K	Mole fraction of 1-ethyl-3-methylimidazolium trifluoromethanesulfonate	Mass density, kg/m3	uncertainty
293.15	0.0186	1063.6	0.6
293.15	0.0522	1142.6	0.5
293.15	0.0995	1208.9	0.5
293.15	0.2037	1282.4	0.5
293.15	0.2952	1315.7	0.5
293.15	0.3868	1336.6	0.5
293.15	0.4761	1350.7	0.5
293.15	0.5771	1362.4	0.5
293.15	0.6617	1370	0.5
293.15	0.8398	1381.8	0.6
293.15	0.8646	1383.1	0.6
298.15	0.0186	1061.7	0.6
298.15	0.0522	1139.6	0.5
298.15	0.0995	1205.3	0.5
298.15	0.2037	1278.3	0.5
298.15	0.2952	1311.5	0.5
298.15	0.3868	1332.4	0.5
298.15	0.4761	1346.4	0.5
298.15	0.5771	1358.1	0.5
298.15	0.6617	1365.7	0.5
298.15	0.8398	1377.5	0.6
298.15	0.8646	1378.8	0.6
303.15	0.0186	1059.5	0.6
303.15	0.0522	1136.5	0.5
303.15	0.0995	1201.6	0.4
303.15	0.2037	1274.2	0.5
303.15	0.2952	1307.2	0.5
303.15	0.3868	1328.1	0.5
303.15	0.4761	1342.2	0.5
303.15	0.5771	1353.9	0.5
303.15	0.6617	1361.5	0.5
303.15	0.8398	1373.3	0.6
303.15	0.8646	1374.6	0.6
308.15	0.0186	1057.2	0.6
308.15	0.0522	1133.3	0.5
308.15	0.0995	1197.8	0.4
308.15	0.2037	1270	0.5
308.15	0.2952	1303	0.5
308.15	0.3868	1323.9	0.5
308.15	0.4761	1337.9	0.5
308.15	0.5771	1349.7	0.5
308.15	0.6617	1357.3	0.5
308.15	0.8398	1369.1	0.5
308.15	0.8646	1370.4	0.6
313.15	0.0186	1054.7	0.6
313.15	0.0522	1130	0.5
313.15	0.0995	1193.9	0.4
313.15	0.2037	1265.8	0.5
313.15	0.2952	1298.7	0.5
313.15	0.3868	1319.6	0.5
313.15	0.4761	1333.7	0.5
313.15	0.5771	1345.4	0.5
313.15	0.6617	1353.1	0.5
313.15	0.8398	1364.9	0.5
313.15	0.8646	1366.3	0.5
318.15	0.0186	1052.1	0.5
318.15	0.0522	1126.7	0.5
318.15	0.0995	1190.1	0.4
318.15	0.2037	1261.6	0.5
318.15	0.2952	1294.4	0.5
318.15	0.3868	1315.3	0.5
318.15	0.4761	1329.4	0.5
318.15	0.5771	1341.2	0.5
318.15	0.6617	1348.9	0.5
318.15	0.8398	1360.8	0.5
318.15	0.8646	1362.1	0.5

System: water + 1-butyl-3-methylimidazolium trifluoromethanesulfonate; phases: Liquid
Fixed: Pressure, kPa = 101.3
Fixed: Temperature, K = 303.15
Property: Excess molar enthalpy (molar enthalpy of mixing), kJ/mol (Liquid); method: CALVET:UFactor:2
Mole fraction of 1-butyl-3-methylimidazolium trifluoromethanesulfonate	Excess molar enthalpy (molar enthalpy of mixing), kJ/mol	uncertainty
0.1007	0.656	0.015
0.1989	1.074	0.023
0.2954	1.304	0.028
0.3944	1.389	0.03
0.4985	1.327	0.029
0.5757	1.224	0.026
0.6624	1.023	0.022
0.8201	0.569	0.013

System: water + 1-butyl-3-methylimidazolium trifluoromethanesulfonate; phases: Liquid
Fixed: Pressure, kPa = 101.3
Property: Molar heat capacity at constant pressure, J/K/mol (Liquid); method: Small sample (50 mg) DSC
Temperature, K	Mole fraction of 1-butyl-3-methylimidazolium trifluoromethanesulfonate	Molar heat capacity at constant pressure, J/K/mol	uncertainty
293.15	0.0496	98.5	1.5
293.15	0.1415	131.9	2
293.15	0.3369	200.1	3.1
293.15	0.4868	250	3.9
293.15	0.5637	274.4	4.3
293.15	0.6636	307.4	4.8
293.15	0.7124	322.5	5
293.15	0.796	350.7	5.4
293.15	0.9017	387.2	6
298.15	0.0496	98.7	1.5
298.15	0.1415	132.6	2.1
298.15	0.3369	201.3	3.1
298.15	0.4868	251.5	3.9
298.15	0.5637	276.1	4.3
298.15	0.6636	309.4	4.8
298.15	0.7124	324.4	5
298.15	0.796	352.9	5.5
298.15	0.9017	389.4	6
303.15	0.0496	98.9	1.5
303.15	0.1415	133.3	2.1
303.15	0.3369	202.7	3.1
303.15	0.4868	253.2	3.9
303.15	0.5637	277.8	4.3
303.15	0.6636	311.5	4.8
303.15	0.7124	326.4	5.1
303.15	0.796	355.2	5.5
303.15	0.9017	391.8	6.1
308.15	0.0496	99.1	1.5
308.15	0.1415	134	2.1
308.15	0.3369	204.1	3.2
308.15	0.4868	254.9	3.9
308.15	0.5637	279.7	4.3
308.15	0.6636	313.7	4.9
308.15	0.7124	328.5	5.1
308.15	0.796	357.6	5.5
308.15	0.9017	394.4	6.1
313.15	0.0496	99.4	1.5
313.15	0.1415	134.8	2.1
313.15	0.3369	205.5	3.2
313.15	0.4868	256.7	4
313.15	0.5637	281.7	4.4
313.15	0.6636	316.1	4.9
313.15	0.7124	330.7	5.1
313.15	0.796	360.2	5.6
313.15	0.9017	397	6.2
318.15	0.0496	99.7	1.5
318.15	0.1415	135.7	2.1
318.15	0.3369	207.1	3.2
318.15	0.4868	258.7	4
318.15	0.5637	283.7	4.4
318.15	0.6636	318.6	4.9
318.15	0.7124	333.1	5.2
318.15	0.796	362.9	5.6
318.15	0.9017	399.9	6.2

System: water + 1-butyl-3-methylimidazolium trifluoromethanesulfonate; phases: Liquid
Fixed: Pressure, kPa = 101.3
Property: Mass density, kg/m3 (Liquid); method: Vibrating tube method
Temperature, K	Mole fraction of 1-butyl-3-methylimidazolium trifluoromethanesulfonate	Mass density, kg/m3	uncertainty
293.15	0.0496	1119.8	0.4
293.15	0.1012	1176.7	0.4
293.15	0.1415	1202.8	0.4
293.15	0.197	1227.4	0.4
293.15	0.2965	1252.5	0.5
293.15	0.3369	1259.7	0.5
293.15	0.3873	1266.8	0.5
293.15	0.4868	1277.3	0.5
293.15	0.5637	1283.2	0.5
293.15	0.6636	1289.1	0.5
293.15	0.7124	1291.6	0.5
293.15	0.796	1295.2	0.5
293.15	0.9017	1298.8	0.5
293.15	0.9456	1300.1	0.5
298.15	0.0496	1116.9	0.4
298.15	0.1012	1173.2	0.4
298.15	0.1415	1199	0.4
298.15	0.197	1223.4	0.4
298.15	0.2965	1248.4	0.5
298.15	0.3369	1255.6	0.5
298.15	0.3873	1262.7	0.5
298.15	0.4868	1273.2	0.5
298.15	0.5637	1279.1	0.5
298.15	0.6636	1285.1	0.5
298.15	0.7124	1287.6	0.5
298.15	0.796	1291.2	0.5
298.15	0.9017	1294.8	0.5
298.15	0.9456	1296.1	0.5
303.15	0.0496	1113.8	0.4
303.15	0.1012	1169.5	0.4
303.15	0.1415	1195.1	0.4
303.15	0.197	1219.3	0.4
303.15	0.2965	1244.3	0.4
303.15	0.3369	1251.5	0.5
303.15	0.3873	1258.6	0.5
303.15	0.4868	1269.1	0.5
303.15	0.5637	1275.1	0.5
303.15	0.6636	1281.1	0.5
303.15	0.7124	1283.6	0.5
303.15	0.796	1287.2	0.5
303.15	0.9017	1290.9	0.5
303.15	0.9456	1292.2	0.5
308.15	0.0496	1110.6	0.4
308.15	0.1012	1165.7	0.4
308.15	0.1415	1191.2	0.4
308.15	0.197	1215.3	0.4
308.15	0.2965	1240.2	0.4
308.15	0.3369	1247.4	0.4
308.15	0.3873	1254.5	0.5
308.15	0.4868	1265.1	0.5
308.15	0.5637	1271	0.5
308.15	0.6636	1277.1	0.5
308.15	0.7124	1279.6	0.5
308.15	0.796	1283.2	0.5
308.15	0.9017	1286.9	0.5
308.15	0.9456	1288.2	0.5
313.15	0.0496	1107.3	0.4
313.15	0.1012	1161.9	0.4
313.15	0.1415	1187.1	0.4
313.15	0.197	1211.2	0.4
313.15	0.2965	1236	0.4
313.15	0.3369	1243.3	0.4
313.15	0.3873	1250.4	0.5
313.15	0.4868	1261	0.5
313.15	0.5637	1267	0.5
313.15	0.6636	1273.1	0.5
313.15	0.7124	1275.6	0.5
313.15	0.796	1279.2	0.5
313.15	0.9017	1283	0.5
313.15	0.9456	1284.3	0.5
318.15	0.0496	1103.9	0.4
318.15	0.1012	1158	0.4
318.15	0.1415	1183.1	0.4
318.15	0.197	1207	0.4
318.15	0.2965	1231.9	0.4
318.15	0.3369	1239.1	0.4
318.15	0.3873	1246.3	0.4
318.15	0.4868	1256.9	0.5
318.15	0.5637	1263	0.5
318.15	0.6636	1269.1	0.5
318.15	0.7124	1271.6	0.5
318.15	0.796	1275.3	0.5
318.15	0.9017	1279	0.5
318.15	0.9456	1280.3	0.5

System: water + 1-butyl-3-methylpyridinium tetrafluoroborate; phases: Liquid
Fixed: Pressure, kPa = 101.3
Fixed: Temperature, K = 303.15
Property: Excess molar enthalpy (molar enthalpy of mixing), kJ/mol (Liquid); method: CALVET:UFactor:2
Mole fraction of 1-butyl-3-methylpyridinium tetrafluoroborate	Excess molar enthalpy (molar enthalpy of mixing), kJ/mol	uncertainty
0.1023	1.091	0.024
0.2013	1.76	0.037
0.3036	2.15	0.045
0.4004	2.319	0.048
0.4891	2.273	0.047
0.5761	2.081	0.044
0.6659	1.79	0.038
0.8154	1.073	0.023
