Measured thermophysical data. Liquid-liquid extraction of methanol from its mixtures with hexane using three imidazolium-based ionic liquids
Source: J. Chem. Thermodyn., 2019, 10.1016/j.jct.2019.06.024
Compound 1: methanol, CH4O, InChI=1S/CH4O/c1-2/h2H,1H3, purity 99.5%
Compound 2: hexane, C6H14, InChI=1S/C6H14/c1-3-5-6-4-2/h3-6H2,1-2H3, purity 99.5%
Compound 3: 1-butyl-3-methylimidazolium bis(trifluoromethylsulfonyl)imide, C10H15F6N3O4S2, InChI=1S/C8H15N2.C2F6NO4S2/c1-3-4-5-10-7-6-9(2)8-10;3-1(4,5)14(10,11)9-15(12,13)2(6,7)8/h6-8H,3-5H2,1-2H3;/q+1;-1, purity 98%
Compound 4: 1-decyl-3-methylimidazolium bis(trifluoromethylsulfonyl)amide, C16H27F6N3O4S2, InChI=1S/C14H27N2.C2F6NO4S2/c1-3-4-5-6-7-8-9-10-11-16-13-12-15(2)14-16;3-1(4,5)14(10,11)9-15(12,13)2(6,7)8/h12-14H,3-11H2,1-2H3;/q+1;-1, purity 98%
Compound 5: 1-butyl-3-methylimidazolium hexafluorophosphate, C8H15F6N2P, InChI=1S/C8H15N2.F6P/c1-3-4-5-10-7-6-9(2)8-10;1-7(2,3,4,5)6/h6-8H,3-5H2,1-2H3;/q+1;-1, purity 98%

System: methanol + hexane + 1-butyl-3-methylimidazolium bis(trifluoromethylsulfonyl)imide; phases: Liquid mixture 2, Liquid mixture 1
Fixed: Temperature, K = 298.15
Fixed: Pressure, kPa = 101.325
Property: Mass fraction of hexane (Liquid mixture 2); method: Chromatography
Property: Mass fraction of methanol (Liquid mixture 1); method: Chromatography
Property: Mass fraction of hexane (Liquid mixture 1); method: Chromatography
Mass fraction of methanol	Mass fraction of hexane	uncertainty	Mass fraction of methanol	uncertainty	Mass fraction of hexane	uncertainty
0.604	0.396	0.305	0.113	0.113	0.887	
0	0.02	0.02	0		0.997	
0.04	0.011	0.011	0.023	0.023	0.976	
0.081	0.016	0.016	0.026	0.026	0.973	
0.176	0.028	0.028	0.032	0.032	0.967	
0.248	0.037	0.037	0.035	0.035	0.964	
0.295	0.044	0.044	0.04	0.04	0.959	
0.347	0.051	0.051	0.046	0.046	0.953	
0.376	0.055	0.055	0.048	0.048	0.951	
0.412	0.061	0.061	0.051	0.051	0.948	
0.431	0.064	0.064	0.052	0.052	0.946	
0.464	0.069	0.069	0.055	0.055	0.942	
0.567	0.098	0.098	0.072	0.072	0.927	

System: methanol + hexane + 1-decyl-3-methylimidazolium bis(trifluoromethylsulfonyl)amide; phases: Liquid mixture 2, Liquid mixture 1
Fixed: Temperature, K = 298.15
Fixed: Pressure, kPa = 101.325
Property: Mass fraction of hexane (Liquid mixture 2); method: Chromatography
Property: Mass fraction of methanol (Liquid mixture 1); method: Chromatography
Property: Mass fraction of hexane (Liquid mixture 1); method: Chromatography
Mass fraction of methanol	Mass fraction of hexane	uncertainty	Mass fraction of methanol	uncertainty	Mass fraction of hexane	uncertainty
0.604	0.396	0.216	0.113	0.113	0.887	
0	0.083	0.083	0		0.997	
0.056	0.074	0.074	0.026	0.026	0.974	
0.167	0.096	0.096	0.03	0.03	0.969	
0.272	0.115	0.115	0.041	0.041	0.958	
0.301	0.127	0.122	0.043	0.043	0.955	
0.321	0.124	0.122	0.046	0.046	0.953	
0.357	0.133	0.122	0.05	0.05	0.948	
0.404	0.139	0.122	0.056	0.056	0.94	
0.424	0.144	0.124	0.058	0.058	0.94	
0.438	0.147	0.124	0.059	0.059	0.939	
0.539	0.166	0.122	0.072	0.072	0.927	
0.592	0.202	0.127	0.087	0.087	0.913	

System: methanol + hexane + 1-butyl-3-methylimidazolium hexafluorophosphate; phases: Liquid mixture 2, Liquid mixture 1
Fixed: Temperature, K = 298.15
Fixed: Pressure, kPa = 101.325
Property: Mass fraction of hexane (Liquid mixture 2); method: Chromatography
Property: Mass fraction of methanol (Liquid mixture 1); method: Chromatography
Property: Mass fraction of hexane (Liquid mixture 1); method: Chromatography
Mass fraction of methanol	Mass fraction of hexane	uncertainty	Mass fraction of methanol	uncertainty	Mass fraction of hexane	uncertainty
0.604	0.396	0.268	0.113	0.113	0.887	
0.426	0.041	0.041	0.105	0.105	0.892	
0.558	0.09	0.09	0.108	0.108	0.888	
0.656	0.133	0.129	0.114	0.114	0.885	
0	0.023	0.023	0		0.997	
0.031	0.014	0.014	0.027	0.027	0.971	
0.111	0.022	0.022	0.043	0.043	0.954	
0.185	0.026	0.026	0.059	0.059	0.938	
0.234	0.029	0.029	0.07	0.07	0.927	
0.315	0.035	0.035	0.081	0.081	0.917	
0.366	0.037	0.037	0.092	0.092	0.905	
0.397	0.039	0.039	0.099	0.099	0.898	

System: hexane + 1-butyl-3-methylimidazolium bis(trifluoromethylsulfonyl)imide; phases: Liquid mixture 2, Liquid mixture 1
Property: Mass fraction of hexane (Liquid mixture 2); method: Chromatography
Temperature, K	Pressure, kPa	Mass fraction of hexane	uncertainty
298.15	101.325	0.02	0.02

System: hexane + 1-butyl-3-methylimidazolium bis(trifluoromethylsulfonyl)imide; phases: Liquid mixture 1, Liquid mixture 2
Property: Mass fraction of hexane (Liquid mixture 1); method: Chromatography
Temperature, K	Pressure, kPa	Mass fraction of hexane	uncertainty
298.15	101.325	0.997	0.003

System: hexane + 1-decyl-3-methylimidazolium bis(trifluoromethylsulfonyl)amide; phases: Liquid mixture 2, Liquid mixture 1
Property: Mass fraction of hexane (Liquid mixture 2); method: Chromatography
Temperature, K	Pressure, kPa	Mass fraction of hexane	uncertainty
298.15	101.325	0.083	0.083

System: hexane + 1-decyl-3-methylimidazolium bis(trifluoromethylsulfonyl)amide; phases: Liquid mixture 1, Liquid mixture 2
Property: Mass fraction of hexane (Liquid mixture 1); method: Chromatography
Temperature, K	Pressure, kPa	Mass fraction of hexane	uncertainty
298.15	101.325	0.997	0.003

System: hexane + 1-butyl-3-methylimidazolium hexafluorophosphate; phases: Liquid mixture 2, Liquid mixture 1
Fixed: Pressure, kPa = 101.325
Property: Mass fraction of hexane (Liquid mixture 2); method: Chromatography
Temperature, K	Mass fraction of hexane	uncertainty
298.15	0.023	0.023
288.15	0.02	0.02
308.15	0.024	0.024

System: hexane + 1-butyl-3-methylimidazolium hexafluorophosphate; phases: Liquid mixture 1, Liquid mixture 2
Property: Mass fraction of hexane (Liquid mixture 1); method: Chromatography
Temperature, K	Pressure, kPa	Mass fraction of hexane	uncertainty
298.15	101.325	0.997	0.003

System: methanol + hexane; phases: Liquid mixture 2, Liquid mixture 1
Property: Mass fraction of hexane (Liquid mixture 2); method: Chromatography
Temperature, K	Pressure, kPa	Mass fraction of hexane	uncertainty
298.15	101.325	0.396	0.12

System: methanol + hexane; phases: Liquid mixture 1, Liquid mixture 2
Property: Mass fraction of methanol (Liquid mixture 1); method: Chromatography
Temperature, K	Pressure, kPa	Mass fraction of methanol	uncertainty
298.15	101.325	0.113	0.113
