Measured thermophysical data. Physicochemical and friccohesity study of glycine, L-alanine and L-phenylalanine with aqueous methyltrioctylammonium and cetylpyridinium chloride from T = (293.15 to 308.15) K
Source: J. Chem. Thermodyn., 2013, 10.1016/j.jct.2013.05.037
Compound 1: 2-aminoacetic acid, C2H5NO2, InChI=1S/C2H5NO2/c3-1-2(4)5/h1,3H2,(H,4,5), purity 98%
Compound 2: (S)-2-aminopropanoic acid, C3H7NO2, InChI=1S/C3H7NO2/c1-2(4)3(5)6/h2H,4H2,1H3,(H,5,6)/t2-/m0/s1, purity 98%
Compound 3: L-phenylalanine, C9H11NO2, InChI=1S/C9H11NO2/c10-8(9(11)12)6-7-4-2-1-3-5-7/h1-5,8H,6,10H2,(H,11,12)/t8-/m0/s1, purity 98%
Compound 4: N-methyl-N,N-dioctyl-1-octanaminium chloride, C25H54ClN, InChI=1S/C25H54N.ClH/c1-5-8-11-14-17-20-23-26(4,24-21-18-15-12-9-6-2)25-22-19-16-13-10-7-3;/h5-25H2,1-4H3;1H/q+1;/p-1, purity 97%
Compound 5: cetylpyridinium chloride, C21H38ClN, InChI=1S/C21H38N.ClH/c1-2-3-4-5-6-7-8-9-10-11-12-13-14-16-19-22-20-17-15-18-21-22;/h15,17-18,20-21H,2-14,16,19H2,1H3;1H/q+1;/p-1, purity 97%
Compound 6: water, H2O, InChI=1S/H2O/h1H2, purity 99.8%

System: water; phases: Liquid
Fixed: Pressure, kPa = 101.325
Property: Mass density, kg/m3 (Liquid); method: Vibrating tube method
Temperature, K	Mass density, kg/m3	uncertainty
293.15	998.587	0.088
298.15	997.425	0.088
303.15	996.04	0.088
308.15	994.425	0.089

System: water; phases: Liquid
Fixed: Pressure, kPa = 101.325
Property: Viscosity, Pa*s (Liquid); method: Capillary tube (Ostwald; Ubbelohde) method
Temperature, K	Viscosity, Pa*s	uncertainty
293.15	0.001002	2.08e-05
298.15	0.0008937	1.86e-05
303.15	0.0008001	1.67e-05
308.15	0.0007225	1.51e-05

System: water; phases: Liquid
Fixed: Pressure, kPa = 101.325
Property: Speed of sound, m/s (Liquid); method: Sing-around technique in a fixed-path interferometer
Temperature, K	Speed of sound, m/s	uncertainty
293.15	1482.57	0.8
298.15	1496.58	0.81
303.15	1509.01	0.81
308.15	1519.54	0.81

System: water; phases: Liquid, Air at 1 atmosphere
Property: Surface tension liquid-gas, N/m (Liquid); method: Pendant drop shape
Temperature, K	Surface tension liquid-gas, N/m	uncertainty
293.15	0.07275	0.00065
298.15	0.07197	0.00064
303.15	0.07118	0.00063
308.15	0.07038	0.00063

System: N-methyl-N,N-dioctyl-1-octanaminium chloride + water; phases: Liquid
Fixed: Pressure, kPa = 101
Fixed: Molality, mol/kg of N-methyl-N,N-dioctyl-1-octanaminium chloride = 0.002
Property: Mass density, kg/m3 (Liquid); method: Vibrating tube method
Temperature, K	Mass density, kg/m3	uncertainty
293.15	998.54	0.088
298.15	997.375	0.088
303.15	995.978	0.088
308.15	994.348	0.089

System: N-methyl-N,N-dioctyl-1-octanaminium chloride + water; phases: Liquid
Fixed: Pressure, kPa = 101
Fixed: Molality, mol/kg of N-methyl-N,N-dioctyl-1-octanaminium chloride = 0.002
Property: Viscosity, Pa*s (Liquid); method: Capillary tube (Ostwald; Ubbelohde) method
Temperature, K	Viscosity, Pa*s	uncertainty
293.15	0.001043	2.17e-05
298.15	0.0009291	1.93e-05
303.15	0.0008195	1.71e-05
308.15	0.0007465	1.56e-05

System: N-methyl-N,N-dioctyl-1-octanaminium chloride + water; phases: Liquid
Fixed: Pressure, kPa = 101
Fixed: Molality, mol/kg of N-methyl-N,N-dioctyl-1-octanaminium chloride = 0.002
Property: Speed of sound, m/s (Liquid); method: Sing-around technique in a fixed-path interferometer
Temperature, K	Speed of sound, m/s	uncertainty
293.15	1483.37	0.8
298.15	1497.31	0.81
303.15	1510.67	0.81
308.15	1520.15	0.81

System: N-methyl-N,N-dioctyl-1-octanaminium chloride + water; phases: Liquid, Air at 1 atmosphere
Fixed: Molality, mol/kg of N-methyl-N,N-dioctyl-1-octanaminium chloride = 0.002
Property: Surface tension liquid-gas, N/m (Liquid); method: Pendant drop shape
Temperature, K	Surface tension liquid-gas, N/m	uncertainty
293.15	0.02998	0.0004
298.15	0.02917	0.00039
303.15	0.02893	0.00039
308.15	0.02819	0.00038

System: cetylpyridinium chloride + water; phases: Liquid
Fixed: Pressure, kPa = 101
Fixed: Molality, mol/kg of cetylpyridinium chloride = 0.002
Property: Mass density, kg/m3 (Liquid); method: Vibrating tube method
Temperature, K	Mass density, kg/m3	uncertainty
293.15	998.567	0.088
298.15	997.407	0.088
303.15	996.012	0.088
308.15	994.387	0.089

System: cetylpyridinium chloride + water; phases: Liquid
Fixed: Pressure, kPa = 101
Fixed: Molality, mol/kg of cetylpyridinium chloride = 0.002
Property: Viscosity, Pa*s (Liquid); method: Capillary tube (Ostwald; Ubbelohde) method
Temperature, K	Viscosity, Pa*s	uncertainty
293.15	0.0010039	2.09e-05
298.15	0.0009033	1.88e-05
303.15	0.0008137	1.7e-05
308.15	0.0007557	1.58e-05

System: cetylpyridinium chloride + water; phases: Liquid
Fixed: Pressure, kPa = 101
Fixed: Molality, mol/kg of cetylpyridinium chloride = 0.002
Property: Speed of sound, m/s (Liquid); method: Sing-around technique in a fixed-path interferometer
Temperature, K	Speed of sound, m/s	uncertainty
293.15	1483.1	0.8
298.15	1497.19	0.81
303.15	1509.41	0.81
308.15	1519.79	0.81

System: cetylpyridinium chloride + water; phases: Liquid, Air at 1 atmosphere
Fixed: Molality, mol/kg of cetylpyridinium chloride = 0.002
Property: Surface tension liquid-gas, N/m (Liquid); method: Pendant drop shape
Temperature, K	Surface tension liquid-gas, N/m	uncertainty
293.15	0.04175	0.00054
298.15	0.0416	0.00054
303.15	0.04157	0.00054
308.15	0.04135	0.00054

System: 2-aminoacetic acid + water; phases: Liquid
Fixed: Pressure, kPa = 101
Property: Viscosity, Pa*s (Liquid); method: Capillary tube (Ostwald; Ubbelohde) method
Temperature, K	Molality, mol/kg of 2-aminoacetic acid	Viscosity, Pa*s	uncertainty
293.15	0.0502	1.0067	0.0205
293.15	0.0755	1.0103	0.0205
293.15	0.1007	1.0136	0.0206
293.15	0.1261	1.0173	0.0207
293.15	0.1514	1.0208	0.0208
298.15	0.0502	1.0064	0.0205
298.15	0.0755	1.0095	0.0205
298.15	0.1007	1.0135	0.0206
298.15	0.1261	1.0168	0.0207
298.15	0.1514	1.0213	0.0208
303.15	0.0502	1.0071	0.0205
303.15	0.0755	1.0104	0.0205
303.15	0.1007	1.0142	0.0206
303.15	0.1261	1.0181	0.0207
303.15	0.1514	1.0211	0.0208
308.15	0.0502	1.0076	0.0205
308.15	0.0755	1.0116	0.0206
308.15	0.1007	1.0147	0.0206
308.15	0.1261	1.0191	0.0207
308.15	0.1514	1.0223	0.0208

System: 2-aminoacetic acid + water; phases: Liquid, Air at 1 atmosphere
Property: Surface tension liquid-gas, N/m (Liquid); method: Pendant drop shape
Molality, mol/kg of 2-aminoacetic acid	Temperature, K	Surface tension liquid-gas, N/m	uncertainty
0	293.15	0.07275	0.00065
0.0502	293.15	0.07283	0.00065
0.0755	293.15	0.07289	0.00065
0.1007	293.15	0.07277	0.00065
0.1261	293.15	0.07266	0.00065
0.1514	293.15	0.07254	0.00064
0	298.15	0.07197	0.00064
0.0502	298.15	0.07209	0.00064
0.0755	298.15	0.07214	0.00064
0.1007	298.15	0.07203	0.00064
0.1261	298.15	0.07188	0.00064
0.1514	298.15	0.07179	0.00064
0	303.15	0.07118	0.00063
0.0502	303.15	0.07129	0.00063
0.0755	303.15	0.07135	0.00063
0.1007	303.15	0.07124	0.00063
0.1261	303.15	0.07095	0.00063
0.1514	303.15	0.07084	0.00063
0	308.15	0.07038	0.00063
0.0502	308.15	0.07049	0.00063
0.0755	308.15	0.07055	0.00063
0.1007	308.15	0.0706	0.00063
0.1261	308.15	0.07066	0.00063
0.1514	308.15	0.07071	0.00063

System: (S)-2-aminopropanoic acid + water; phases: Liquid
Fixed: Pressure, kPa = 101
Property: Viscosity, Pa*s (Liquid); method: Capillary tube (Ostwald; Ubbelohde) method
Temperature, K	Molality, mol/kg of (S)-2-aminopropanoic acid	Viscosity, Pa*s	uncertainty
293.15	0.0503	1.0109	0.0206
293.15	0.0755	1.0163	0.0207
293.15	0.1009	1.0218	0.0208
293.15	0.1263	1.0267	0.0209
293.15	0.1518	1.0327	0.021
298.15	0.0503	1.017	0.021
298.15	0.0755	1.0254	0.0209
298.15	0.1009	1.0375	0.0211
298.15	0.1263	1.0386	0.0211
298.15	0.1518	1.0418	0.0212
303.15	0.0503	1.012	0.021
303.15	0.0755	1.0121	0.0206
303.15	0.1009	1.0211	0.0208
303.15	0.1263	1.0314	0.021
303.15	0.1518	1.0392	0.0211
308.15	0.0503	1.0191	0.0207
308.15	0.0755	1.0233	0.0208
308.15	0.1009	1.0307	0.021
308.15	0.1263	1.037	0.021
308.15	0.1518	1.0421	0.0212

System: (S)-2-aminopropanoic acid + water; phases: Liquid, Air at 1 atmosphere
Property: Surface tension liquid-gas, N/m (Liquid); method: Pendant drop shape
Molality, mol/kg of (S)-2-aminopropanoic acid	Temperature, K	Surface tension liquid-gas, N/m	uncertainty
0	293.15	0.07275	0.00065
0.0503	293.15	0.07286	0.00065
0.0755	293.15	0.07291	0.00065
0.1009	293.15	0.07278	0.00065
0.1263	293.15	0.07266	0.00065
0.1518	293.15	0.07253	0.00064
0	298.15	0.07197	0.00064
0.0503	298.15	0.07207	0.00064
0.0755	298.15	0.07212	0.00064
0.1009	298.15	0.072	0.00064
0.1263	298.15	0.07188	0.00064
0.1518	298.15	0.07176	0.00064
0	303.15	0.07118	0.00063
0.0503	303.15	0.07128	0.00063
0.0755	303.15	0.07133	0.00063
0.1009	303.15	0.07138	0.00064
0.1263	303.15	0.07143	0.00064
0.1518	303.15	0.07148	0.00064
0	308.15	0.07038	0.00063
0.0503	308.15	0.07046	0.00063
0.0755	308.15	0.07053	0.00063
0.1009	308.15	0.07058	0.00063
0.1263	308.15	0.07063	0.00063
0.1518	308.15	0.07068	0.00063

System: L-phenylalanine + water; phases: Liquid
Fixed: Pressure, kPa = 101
Property: Viscosity, Pa*s (Liquid); method: Capillary tube (Ostwald; Ubbelohde) method
Temperature, K	Molality, mol/kg of L-phenylalanine	Viscosity, Pa*s	uncertainty
293.15	0.0505	1.021	0.021
293.15	0.0759	1.0352	0.0211
293.15	0.1015	1.0527	0.0214
293.15	0.1273	1.0677	0.0217
293.15	0.1532	1.0782	0.0219
298.15	0.0505	1.03	0.02
298.15	0.0759	1.049	0.021
298.15	0.1015	1.06	0.02
298.15	0.1273	1.0763	0.0219
298.15	0.1532	1.0924	0.0222
303.15	0.0505	1.032	0.021
303.15	0.0759	1.0459	0.0213
303.15	0.1015	1.0584	0.0215
303.15	0.1273	1.0735	0.0218
303.15	0.1532	1.0896	0.0222
308.15	0.0505	1.0251	0.0208
308.15	0.0759	1.0439	0.0212
308.15	0.1015	1.0527	0.0214
308.15	0.1273	1.0608	0.0216
308.15	0.1532	1.0858	0.0221

System: L-phenylalanine + water; phases: Liquid, Air at 1 atmosphere
Property: Surface tension liquid-gas, N/m (Liquid); method: Pendant drop shape
Molality, mol/kg of L-phenylalanine	Temperature, K	Surface tension liquid-gas, N/m	uncertainty
0	293.15	0.07275	0.00065
0.0505	293.15	0.07238	0.00064
0.0759	293.15	0.07194	0.00064
0.1015	293.15	0.07099	0.00063
0.1273	293.15	0.07056	0.00063
0.1532	293.15	0.07014	0.00063
0	298.15	0.07197	0.00064
0.0505	298.15	0.07109	0.00063
0.0759	298.15	0.07066	0.00063
0.1015	298.15	0.06974	0.00062
0.1273	298.15	0.06837	0.00061
0.1532	298.15	0.06691	0.0006
0	303.15	0.07118	0.00063
0.0505	303.15	0.07083	0.00063
0.0759	303.15	0.06991	0.00062
0.1015	303.15	0.06853	0.00061
0.1273	303.15	0.06661	0.0006
0.1532	303.15	0.06453	0.00058
0	308.15	0.07038	0.00063
0.0505	308.15	0.07003	0.00062
0.0759	308.15	0.06898	0.00062
0.1015	308.15	0.06659	0.0006
0.1273	308.15	0.06522	0.00059
0.1532	308.15	0.06335	0.00057

System: 2-aminoacetic acid + N-methyl-N,N-dioctyl-1-octanaminium chloride + water; phases: Liquid
Fixed: Pressure, kPa = 101
Fixed: Solvent: Molality, mol/kg of N-methyl-N,N-dioctyl-1-octanaminium chloride = 0.002
Property: Viscosity, Pa*s (Liquid); method: Capillary tube (Ostwald; Ubbelohde) method
Temperature, K	Molality, mol/kg of 2-aminoacetic acid	Viscosity, Pa*s	uncertainty
293.15	0.0502	1.004	0.022
293.15	0.0755	1.0174	0.0225
293.15	0.1007	1.0259	0.0227
293.15	0.1261	1.0346	0.0228
293.15	0.1514	1.0457	0.0231
298.15	0.0502	1.0028	0.0221
298.15	0.0755	1.0112	0.0223
298.15	0.1007	1.0143	0.0224
298.15	0.1261	1.0217	0.0226
298.15	0.1514	1.0251	0.0226
303.15	0.0502	1.0095	0.0223
303.15	0.0755	1.0131	0.0224
303.15	0.1007	1.0156	0.0224
303.15	0.1261	1.0259	0.0227
303.15	0.1514	1.027	0.023
308.15	0.0502	1.0059	0.0222
308.15	0.0755	1.0126	0.0224
308.15	0.1007	1.0166	0.0224
308.15	0.1261	1.0184	0.0225
308.15	0.1514	1.0259	0.0227

System: 2-aminoacetic acid + N-methyl-N,N-dioctyl-1-octanaminium chloride + water; phases: Liquid, Air at 1 atmosphere
Fixed: Solvent: Molality, mol/kg of N-methyl-N,N-dioctyl-1-octanaminium chloride = 0.002
Property: Surface tension liquid-gas, N/m (Liquid); method: Pendant drop shape
Temperature, K	Molality, mol/kg of 2-aminoacetic acid	Surface tension liquid-gas, N/m	uncertainty
293.15	0	0.02998	0.0004
293.15	0.0502	0.02973	0.0004
293.15	0.0755	0.02969	0.0004
293.15	0.1007	0.02966	0.0004
293.15	0.1261	0.02948	0.0004
293.15	0.1514	0.02947	0.0004
298.15	0	0.02917	0.00039
298.15	0.0502	0.02904	0.00039
298.15	0.0755	0.02897	0.00039
298.15	0.1007	0.02892	0.00039
298.15	0.1261	0.02882	0.00039
298.15	0.1514	0.02876	0.00039
303.15	0	0.02893	0.00039
303.15	0.0502	0.0287	0.00039
303.15	0.0755	0.02864	0.00039
303.15	0.1007	0.02861	0.00039
303.15	0.1261	0.02857	0.00039
303.15	0.1514	0.02846	0.00039
308.15	0	0.02819	0.00038
308.15	0.0502	0.02794	0.00038
308.15	0.0755	0.02794	0.00038
308.15	0.1007	0.02791	0.00038
308.15	0.1261	0.02785	0.00038
308.15	0.1514	0.02775	0.00038

System: (S)-2-aminopropanoic acid + N-methyl-N,N-dioctyl-1-octanaminium chloride + water; phases: Liquid
Fixed: Pressure, kPa = 101
Fixed: Solvent: Molality, mol/kg of N-methyl-N,N-dioctyl-1-octanaminium chloride = 0.002
Property: Viscosity, Pa*s (Liquid); method: Capillary tube (Ostwald; Ubbelohde) method
Temperature, K	Molality, mol/kg of (S)-2-aminopropanoic acid	Viscosity, Pa*s	uncertainty
293.15	0.0503	1.0103	0.0223
293.15	0.0756	1.0352	0.0229
293.15	0.1009	1.0394	0.023
293.15	0.1263	1.0469	0.0231
293.15	0.1519	1.0601	0.0234
298.15	0.0503	1.0178	0.0225
298.15	0.0756	1.0221	0.0226
298.15	0.1009	1.0307	0.0228
298.15	0.1263	1.0327	0.0228
298.15	0.1519	1.0441	0.0231
303.15	0.0503	1.0033	0.0222
303.15	0.0756	1.0127	0.0224
303.15	0.1009	1.0149	0.0224
303.15	0.1263	1.0257	0.0226
303.15	0.1519	1.0292	0.0227
308.15	0.0503	1.0119	0.0223
308.15	0.0756	1.0189	0.0225
308.15	0.1009	1.0218	0.0226
308.15	0.1263	1.0319	0.0228
308.15	0.1519	1.0423	0.023

System: (S)-2-aminopropanoic acid + N-methyl-N,N-dioctyl-1-octanaminium chloride + water; phases: Liquid, Air at 1 atmosphere
Fixed: Solvent: Molality, mol/kg of N-methyl-N,N-dioctyl-1-octanaminium chloride = 0.002
Property: Surface tension liquid-gas, N/m (Liquid); method: Pendant drop shape
Temperature, K	Molality, mol/kg of (S)-2-aminopropanoic acid	Surface tension liquid-gas, N/m	uncertainty
293.15	0	0.02998	0.0004
293.15	0.0503	0.02966	0.0004
293.15	0.0756	0.02939	0.0004
293.15	0.1009	0.02935	0.0004
293.15	0.1263	0.02932	0.0004
293.15	0.1519	0.0292	0.0004
298.15	0	0.02917	0.00039
298.15	0.0503	0.02904	0.00039
298.15	0.0756	0.029	0.00039
298.15	0.1009	0.02894	0.00039
298.15	0.1263	0.02882	0.00039
298.15	0.1519	0.02873	0.00039
303.15	0	0.02893	0.00039
303.15	0.0503	0.02864	0.00039
303.15	0.0756	0.02855	0.00039
303.15	0.1009	0.02852	0.00039
303.15	0.1263	0.02848	0.00039
303.15	0.1519	0.02839	0.00039
308.15	0	0.02819	0.00038
308.15	0.0503	0.02788	0.00038
308.15	0.0756	0.02778	0.00038
308.15	0.1009	0.02764	0.00038
308.15	0.1263	0.02756	0.00038
308.15	0.1519	0.02753	0.00038

System: L-phenylalanine + N-methyl-N,N-dioctyl-1-octanaminium chloride + water; phases: Liquid
Fixed: Pressure, kPa = 101
Fixed: Solvent: Molality, mol/kg of N-methyl-N,N-dioctyl-1-octanaminium chloride = 0.002
Property: Viscosity, Pa*s (Liquid); method: Capillary tube (Ostwald; Ubbelohde) method
Temperature, K	Molality, mol/kg of L-phenylalanine	Viscosity, Pa*s	uncertainty
293.15	0.0505	1.0215	0.0226
293.15	0.0759	1.0405	0.023
293.15	0.1015	1.0533	0.0233
293.15	0.1273	1.0621	0.0235
293.15	0.1532	1.0761	0.0238
298.15	0.0505	1.0259	0.0227
298.15	0.0759	1.0381	0.0229
298.15	0.1015	1.049	0.023
298.15	0.1273	1.0595	0.0234
298.15	0.1532	1.0713	0.0237
303.15	0.0505	1.0226	0.0226
303.15	0.0759	1.0333	0.0228
303.15	0.1015	1.0411	0.023
303.15	0.1273	1.0606	0.0234
303.15	0.1532	1.0683	0.0236
308.15	0.0505	1.0174	0.0225
308.15	0.0759	1.0244	0.0226
308.15	0.1015	1.0348	0.0229
308.15	0.1273	1.0451	0.0231
308.15	0.1532	1.0584	0.0234

System: L-phenylalanine + N-methyl-N,N-dioctyl-1-octanaminium chloride + water; phases: Liquid, Air at 1 atmosphere
Fixed: Solvent: Molality, mol/kg of N-methyl-N,N-dioctyl-1-octanaminium chloride = 0.002
Property: Surface tension liquid-gas, N/m (Liquid); method: Pendant drop shape
Temperature, K	Molality, mol/kg of L-phenylalanine	Surface tension liquid-gas, N/m	uncertainty
293.15	0	0.02998	0.0004
293.15	0.0505	0.02849	0.00039
293.15	0.0759	0.02836	0.00039
293.15	0.1015	0.02847	0.00039
293.15	0.1273	0.02851	0.00039
293.15	0.1532	0.02862	0.00039
298.15	0	0.02917	0.00039
298.15	0.0505	0.0276	0.00038
298.15	0.0759	0.02733	0.00037
298.15	0.1015	0.02748	0.00038
298.15	0.1273	0.02762	0.00038
298.15	0.1532	0.0277	0.00038
303.15	0	0.02893	0.00039
303.15	0.0505	0.02709	0.00037
303.15	0.0759	0.0269	0.00037
303.15	0.1015	0.027	0.00037
303.15	0.1273	0.02711	0.00037
303.15	0.1532	0.02714	0.00037
308.15	0	0.02819	0.00038
308.15	0.0505	0.02645	0.00036
308.15	0.0759	0.02631	0.00036
308.15	0.1015	0.02651	0.00036
308.15	0.1273	0.02661	0.00037
308.15	0.1532	0.02664	0.00037

System: 2-aminoacetic acid + cetylpyridinium chloride + water; phases: Liquid
Fixed: Pressure, kPa = 101
Fixed: Solvent: Molality, mol/kg of cetylpyridinium chloride = 0.002
Property: Viscosity, Pa*s (Liquid); method: Capillary tube (Ostwald; Ubbelohde) method
Temperature, K	Molality, mol/kg of 2-aminoacetic acid	Viscosity, Pa*s	uncertainty
293.15	0.0502	1.008	0.022
293.15	0.0755	1.011	0.022
293.15	0.1007	1.0139	0.0224
293.15	0.1261	1.0197	0.0225
293.15	0.1515	1.0309	0.0228
298.15	0.0502	1.006	0.022
298.15	0.0755	1.0147	0.0224
298.15	0.1007	1.0237	0.0226
298.15	0.1261	1.0281	0.0227
298.15	0.1515	1.0401	0.023
303.15	0.0502	1.0004	0.0221
303.15	0.0755	1.0016	0.0221
303.15	0.1007	1.0098	0.0223
303.15	0.1261	1.0246	0.0226
303.15	0.1515	1.0297	0.0227
308.15	0.0502	1.0045	0.0222
308.15	0.0755	1.0054	0.0222
308.15	0.1007	1.0066	0.0222
308.15	0.1261	1.0196	0.0225
308.15	0.1515	1.0249	0.0226

System: 2-aminoacetic acid + cetylpyridinium chloride + water; phases: Liquid, Air at 1 atmosphere
Fixed: Solvent: Molality, mol/kg of cetylpyridinium chloride = 0.002
Property: Surface tension liquid-gas, N/m (Liquid); method: Pendant drop shape
Temperature, K	Molality, mol/kg of 2-aminoacetic acid	Surface tension liquid-gas, N/m	uncertainty
293.15	0	0.04175	0.00054
293.15	0.0502	0.04164	0.00054
293.15	0.0755	0.04162	0.00054
293.15	0.1007	0.04171	0.00054
293.15	0.1261	0.04174	0.00054
293.15	0.1515	0.04177	0.00054
298.15	0	0.0416	0.00054
298.15	0.0502	0.04149	0.00054
298.15	0.0755	0.04147	0.00054
298.15	0.1007	0.04156	0.00054
298.15	0.1261	0.04159	0.00054
298.15	0.1515	0.04162	0.00054
303.15	0	0.04157	0.00054
303.15	0.0502	0.04146	0.00054
303.15	0.0755	0.04144	0.00054
303.15	0.1007	0.04153	0.00054
303.15	0.1261	0.04156	0.00054
303.15	0.1515	0.04159	0.00054
308.15	0	0.04135	0.00054
308.15	0.0502	0.04107	0.00053
308.15	0.0755	0.04105	0.00053
308.15	0.1007	0.04114	0.00053
308.15	0.1261	0.04117	0.00053
308.15	0.1515	0.0412	0.00053

System: (S)-2-aminopropanoic acid + cetylpyridinium chloride + water; phases: Liquid
Fixed: Pressure, kPa = 101
Fixed: Solvent: Molality, mol/kg of cetylpyridinium chloride = 0.002
Property: Viscosity, Pa*s (Liquid); method: Capillary tube (Ostwald; Ubbelohde) method
Temperature, K	Molality, mol/kg of (S)-2-aminopropanoic acid	Viscosity, Pa*s	uncertainty
293.15	0.0504	1.0157	0.0224
293.15	0.0756	1.0273	0.0227
293.15	0.1008	1.0308	0.0228
293.15	0.1264	1.0571	0.0233
293.15	0.1518	1.0642	0.0235
298.15	0.0504	1.0218	0.0226
298.15	0.0756	1.0235	0.0226
298.15	0.1008	1.0265	0.0227
298.15	0.1264	1.0306	0.0228
298.15	0.1518	1.0486	0.0232
303.15	0.0504	1.024	0.023
303.15	0.0756	1.0274	0.0227
303.15	0.1008	1.0363	0.0229
303.15	0.1264	1.0431	0.023
303.15	0.1518	1.0451	0.0231
308.15	0.0504	1.0232	0.0226
308.15	0.0756	1.0339	0.0228
308.15	0.1008	1.032	0.023
308.15	0.1264	1.024	0.023
308.15	0.1518	1.0249	0.0226

System: (S)-2-aminopropanoic acid + cetylpyridinium chloride + water; phases: Liquid, Air at 1 atmosphere
Fixed: Solvent: Molality, mol/kg of cetylpyridinium chloride = 0.002
Property: Surface tension liquid-gas, N/m (Liquid); method: Pendant drop shape
Temperature, K	Molality, mol/kg of (S)-2-aminopropanoic acid	Surface tension liquid-gas, N/m	uncertainty
293.15	0	0.04175	0.00054
293.15	0.0504	0.04181	0.00054
293.15	0.0756	0.04219	0.00055
293.15	0.1008	0.04205	0.00054
293.15	0.1264	0.04153	0.00054
293.15	0.1518	0.04246	0.00055
298.15	0	0.0416	0.00054
298.15	0.0504	0.04172	0.00054
298.15	0.0756	0.04211	0.00054
298.15	0.1008	0.04196	0.00054
298.15	0.1264	0.04144	0.00054
298.15	0.1518	0.04232	0.00055
303.15	0	0.04157	0.00054
303.15	0.0504	0.04163	0.00054
303.15	0.0756	0.04201	0.00054
303.15	0.1008	0.04192	0.00054
303.15	0.1264	0.04137	0.00054
303.15	0.1518	0.04246	0.00055
308.15	0	0.04135	0.00054
308.15	0.0504	0.04158	0.00054
308.15	0.0756	0.04196	0.00054
308.15	0.1008	0.04181	0.00054
308.15	0.1264	0.0412	0.00053
308.15	0.1518	0.04229	0.00055

System: L-phenylalanine + cetylpyridinium chloride + water; phases: Liquid
Fixed: Pressure, kPa = 101
Fixed: Solvent: Molality, mol/kg of cetylpyridinium chloride = 0.002
Property: Viscosity, Pa*s (Liquid); method: Capillary tube (Ostwald; Ubbelohde) method
Temperature, K	Molality, mol/kg of L-phenylalanine	Viscosity, Pa*s	uncertainty
293.15	0.0505	1.01	0.02
293.15	0.0759	1.0174	0.0225
293.15	0.1015	1.0412	0.023
293.15	0.1273	1.0409	0.023
293.15	0.1532	1.0427	0.023
298.15	0.0505	1.0386	0.0229
298.15	0.0759	1.0373	0.0229
298.15	0.1015	1.0557	0.0233
298.15	0.1273	1.0758	0.0238
298.15	0.1532	1.068	0.024
303.15	0.0505	1.0258	0.0227
303.15	0.0759	1.0457	0.0231
303.15	0.1015	1.0551	0.0233
303.15	0.1273	1.066	0.024
303.15	0.1532	1.0761	0.0238
308.15	0.0505	1.0003	0.0221
308.15	0.0759	1.0114	0.0223
308.15	0.1015	1.0312	0.0228
308.15	0.1273	1.0365	0.0229
308.15	0.1532	1.0434	0.023

System: L-phenylalanine + cetylpyridinium chloride + water; phases: Liquid, Air at 1 atmosphere
Fixed: Solvent: Molality, mol/kg of cetylpyridinium chloride = 0.002
Property: Surface tension liquid-gas, N/m (Liquid); method: Pendant drop shape
Temperature, K	Molality, mol/kg of L-phenylalanine	Surface tension liquid-gas, N/m	uncertainty
293.15	0	0.04175	0.00054
293.15	0.0505	0.04115	0.00053
293.15	0.0759	0.04052	0.00053
293.15	0.1015	0.04062	0.00053
293.15	0.1273	0.04061	0.00053
293.15	0.1532	0.04055	0.00053
298.15	0	0.0416	0.00054
298.15	0.0505	0.04066	0.00053
298.15	0.0759	0.04005	0.00052
298.15	0.1015	0.04026	0.00052
298.15	0.1273	0.03998	0.00052
298.15	0.1532	0.03992	0.00052
303.15	0	0.04157	0.00054
303.15	0.0505	0.04047	0.00053
303.15	0.0759	0.03907	0.00051
303.15	0.1015	0.03991	0.00052
303.15	0.1273	0.03974	0.00052
303.15	0.1532	0.03968	0.00052
308.15	0	0.04135	0.00054
308.15	0.0505	0.04026	0.00052
308.15	0.0759	0.03889	0.00051
308.15	0.1015	0.03944	0.00051
308.15	0.1273	0.03928	0.00051
308.15	0.1532	0.03917	0.00051
