Measured thermophysical data. Physical properties of systems of interest to the edible oil industry: Viscosities and densities of model systems formed by (triacylglycerol + fatty acid + solvent)
Source: J. Chem. Thermodyn., 2017, 10.1016/j.jct.2017.06.012
Compound 1: 1,2,3-propanetriol trioctanoate, C27H50O6, InChI=1S/C27H50O6/c1-4-7-10-13-16-19-25(28)31-22-24(33-27(30)21-18-15-12-9-6-3)23-32-26(29)20-17-14-11-8-5-2/h24H,4-23H2,1-3H3, purity 99%
Compound 2: 1,2,3-propanetriyl tridecanoate, C33H62O6, InChI=1S/C33H62O6/c1-4-7-10-13-16-19-22-25-31(34)37-28-30(39-33(36)27-24-21-18-15-12-9-6-3)29-38-32(35)26-23-20-17-14-11-8-5-2/h30H,4-29H2,1-3H3, purity 99%
Compound 3: 1,2,3-propanetriyl tridodecanoate, C39H74O6, InChI=1S/C39H74O6/c1-4-7-10-13-16-19-22-25-28-31-37(40)43-34-36(45-39(42)33-30-27-24-21-18-15-12-9-6-3)35-44-38(41)32-29-26-23-20-17-14-11-8-5-2/h36H,4-35H2,1-3H3, purity 99%
Compound 4: 1,2,3-propanetriyl tri(tetradecanoate), C45H86O6, InChI=1S/C45H86O6/c1-4-7-10-13-16-19-22-25-28-31-34-37-43(46)49-40-42(51-45(48)39-36-33-30-27-24-21-18-15-12-9-6-3)41-50-44(47)38-35-32-29-26-23-20-17-14-11-8-5-2/h42H,4-41H2,1-3H3, purity 99%
Compound 5: 1,2,3-propanetriyl tri(hexadecanoate), C51H98O6, InChI=1S/C51H98O6/c1-4-7-10-13-16-19-22-25-28-31-34-37-40-43-49(52)55-46-48(57-51(54)45-42-39-36-33-30-27-24-21-18-15-12-9-6-3)47-56-50(53)44-41-38-35-32-29-26-23-20-17-14-11-8-5-2/h48H,4-47H2,1-3H3, purity 99%
Compound 6: 1,2,3-tri(cis-9-octadecenoyl)glycerol, C57H104O6, InChI=1S/C57H104O6/c1-4-7-10-13-16-19-22-25-28-31-34-37-40-43-46-49-55(58)61-52-54(63-57(60)51-48-45-42-39-36-33-30-27-24-21-18-15-12-9-6-3)53-62-56(59)50-47-44-41-38-35-32-29-26-23-20-17-14-11-8-5-2/h25-30,54H,4-24,31-53H2,1-3H3/b28-25-,29-26-,30-27-, purity 99%
Compound 7: trilinolein, C57H98O6, InChI=1S/C57H98O6/c1-4-7-10-13-16-19-22-25-28-31-34-37-40-43-46-49-55(58)61-52-54(63-57(60)51-48-45-42-39-36-33-30-27-24-21-18-15-12-9-6-3)53-62-56(59)50-47-44-41-38-35-32-29-26-23-20-17-14-11-8-5-2/h16-21,25-30,54H,4-15,22-24,31-53H2,1-3H3/b19-16-,20-17-,21-18-,28-25-,29-26-,30-27-, purity 99%
Compound 8: trilinolenin, C57H92O6, InChI=1S/C57H92O6/c1-4-7-10-13-16-19-22-25-28-31-34-37-40-43-46-49-55(58)61-52-54(63-57(60)51-48-45-42-39-36-33-30-27-24-21-18-15-12-9-6-3)53-62-56(59)50-47-44-41-38-35-32-29-26-23-20-17-14-11-8-5-2/h7-12,16-21,25-30,54H,4-6,13-15,22-24,31-53H2,1-3H3/b10-7-,11-8-,12-9-,19-16-,20-17-,21-18-,28-25-,29-26-,30-27-, purity 99%
Compound 9: octanoic acid, C8H16O2, InChI=1S/C8H16O2/c1-2-3-4-5-6-7-8(9)10/h2-7H2,1H3,(H,9,10), purity 99%
Compound 10: decanoic acid, C10H20O2, InChI=1S/C10H20O2/c1-2-3-4-5-6-7-8-9-10(11)12/h2-9H2,1H3,(H,11,12), purity 99%
Compound 11: dodecanoic acid, C12H24O2, InChI=1S/C12H24O2/c1-2-3-4-5-6-7-8-9-10-11-12(13)14/h2-11H2,1H3,(H,13,14), purity 99%
Compound 12: tetradecanoic acid, C14H28O2, InChI=1S/C14H28O2/c1-2-3-4-5-6-7-8-9-10-11-12-13-14(15)16/h2-13H2,1H3,(H,15,16), purity 99%
Compound 13: hexadecanoic acid, C16H32O2, InChI=1S/C16H32O2/c1-2-3-4-5-6-7-8-9-10-11-12-13-14-15-16(17)18/h2-15H2,1H3,(H,17,18), purity 99%
Compound 14: octadecanoic acid, C18H36O2, InChI=1S/C18H36O2/c1-2-3-4-5-6-7-8-9-10-11-12-13-14-15-16-17-18(19)20/h2-17H2,1H3,(H,19,20), purity 99%
Compound 15: docosanoic acid, C22H44O2, InChI=1S/C22H44O2/c1-2-3-4-5-6-7-8-9-10-11-12-13-14-15-16-17-18-19-20-21-22(23)24/h2-21H2,1H3,(H,23,24), purity 99%
Compound 16: (Z)-9-octadecenoic acid, C18H34O2, InChI=1S/C18H34O2/c1-2-3-4-5-6-7-8-9-10-11-12-13-14-15-16-17-18(19)20/h9-10H,2-8,11-17H2,1H3,(H,19,20)/b10-9-, purity 99%
Compound 17: (Z,Z)-9,12-octadecadienoic acid, C18H32O2, InChI=1S/C18H32O2/c1-2-3-4-5-6-7-8-9-10-11-12-13-14-15-16-17-18(19)20/h6-7,9-10H,2-5,8,11-17H2,1H3,(H,19,20)/b7-6-,10-9-, purity 99%
Compound 18: hexane, C6H14, InChI=1S/C6H14/c1-3-5-6-4-2/h3-6H2,1-2H3, purity 96%
Compound 19: hexan-1-ol, C6H14O, InChI=1S/C6H14O/c1-2-3-4-5-6-7/h7H,2-6H2,1H3, purity 98%
Compound 20: pentan-1-ol, C5H12O, InChI=1S/C5H12O/c1-2-3-4-5-6/h6H,2-5H2,1H3, purity 98%
Compound 21: butan-1-ol, C4H10O, InChI=1S/C4H10O/c1-2-3-4-5/h5H,2-4H2,1H3, purity 99.5%
Compound 22: propan-1-ol, C3H8O, InChI=1S/C3H8O/c1-2-3-4/h4H,2-3H2,1H3, purity 99.5%
Compound 23: propan-2-ol, C3H8O, InChI=1S/C3H8O/c1-3(2)4/h3-4H,1-2H3, purity 99.8%
Compound 24: ethanol, C2H6O, InChI=1S/C2H6O/c1-2-3/h3H,2H2,1H3, purity 99.8%

System: hexadecanoic acid + hexane + 1,2,3-propanetriol trioctanoate; phases: Liquid
Fixed: Pressure, kPa = 101.8
Property: Mass density, kg/m3 (Liquid); method: Vibrating tube method
Temperature, K	Mass fraction of 1,2,3-propanetriol trioctanoate	Mass fraction of hexadecanoic acid	Mass density, kg/m3	uncertainty
333.15	0.3408	0.1122	736.69	5.97
328.15	0.3408	0.1122	741.02	6
323.15	0.3408	0.1122	745.31	6.04
318.15	0.3408	0.1122	749.58	6.07
313.15	0.3408	0.1122	753.83	6.11
308.15	0.3408	0.1122	758.05	6.14
333.15	0.2486	0.0819	727.96	5.93
328.15	0.2486	0.0819	732.33	5.96
323.15	0.2486	0.0819	736.66	6
318.15	0.2486	0.0819	740.96	6.04
313.15	0.2486	0.0819	745.23	6.07
308.15	0.2486	0.0819	749.47	6.11

System: hexadecanoic acid + hexane + 1,2,3-propanetriol trioctanoate; phases: Liquid
Fixed: Pressure, kPa = 101.8
Property: Viscosity, Pa*s (Liquid); method: Falling or rolling sphere viscometry
Temperature, K	Mass fraction of 1,2,3-propanetriol trioctanoate	Mass fraction of hexadecanoic acid	Viscosity, Pa*s	uncertainty
333.15	0.3408	0.1122	0.0006773	2.27e-05
328.15	0.3408	0.1122	0.0007157	2.4e-05
323.15	0.3408	0.1122	0.0007659	2.57e-05
318.15	0.3408	0.1122	0.0008176	2.74e-05
313.15	0.3408	0.1122	0.0008756	2.94e-05
308.15	0.3408	0.1122	0.0009426	3.16e-05
333.15	0.2486	0.0819	0.0006368	2.19e-05
328.15	0.2486	0.0819	0.0006866	2.36e-05
323.15	0.2486	0.0819	0.0007321	2.51e-05
318.15	0.2486	0.0819	0.0007744	2.66e-05
313.15	0.2486	0.0819	0.0008254	2.83e-05
308.15	0.2486	0.0819	0.0008776	3.01e-05

System: hexane + dodecanoic acid + 1,2,3-propanetriyl tridecanoate; phases: Liquid
Fixed: Pressure, kPa = 101.8
Property: Mass density, kg/m3 (Liquid); method: Vibrating tube method
Temperature, K	Mass fraction of 1,2,3-propanetriyl tridecanoate	Mass fraction of dodecanoic acid	Mass density, kg/m3	uncertainty
333.15	0.3815	0.1078	742.59	6.01
323.15	0.3815	0.1078	749.91	6.07
313.15	0.3815	0.1078	758.33	6.13
303.15	0.3815	0.1078	766.69	6.2
293.15	0.3815	0.1078	774.96	6.27
333.15	0.2498	0.0706	719	5.86
323.15	0.2498	0.0706	727.7	5.93
313.15	0.2498	0.0706	736.32	6
303.15	0.2498	0.0706	744.84	6.07
293.15	0.2498	0.0706	753.26	6.14
333.15	0.1039	0.0294	680.29	5.6
323.15	0.1039	0.0294	689.38	5.68
313.15	0.1039	0.0294	698.3	5.76
303.15	0.1039	0.0294	707.1	5.83
293.15	0.1039	0.0294	715.76	5.91
323.15	0.0596	0.0168	668.21	5.53
313.15	0.0596	0.0168	677.33	5.61
303.15	0.0596	0.0168	686.31	5.68
293.15	0.0596	0.0168	695.11	5.76

System: hexane + dodecanoic acid + 1,2,3-propanetriyl tridecanoate; phases: Liquid
Fixed: Pressure, kPa = 101.8
Property: Viscosity, Pa*s (Liquid); method: Falling or rolling sphere viscometry
Temperature, K	Mass fraction of 1,2,3-propanetriyl tridecanoate	Mass fraction of dodecanoic acid	Viscosity, Pa*s	uncertainty
333.15	0.3815	0.1078	0.0008655	2.89e-05
323.15	0.3815	0.1078	0.000995	3.32e-05
313.15	0.3815	0.1078	0.0011495	3.83e-05
303.15	0.3815	0.1078	0.001345	4.48e-05
293.15	0.3815	0.1078	0.0015937	5.31e-05
333.15	0.2498	0.0706	0.0006577	2.26e-05
323.15	0.2498	0.0706	0.0007511	2.58e-05
313.15	0.2498	0.0706	0.000853	2.93e-05
303.15	0.2498	0.0706	0.0009775	3.36e-05
293.15	0.2498	0.0706	0.0011361	3.91e-05
333.15	0.1039	0.0294	0.0004151	1.48e-05
323.15	0.1039	0.0294	0.00046	1.64e-05
313.15	0.1039	0.0294	0.0005047	1.8e-05
303.15	0.1039	0.0294	0.0005592	2e-05
293.15	0.1039	0.0294	0.0006272	2.24e-05
323.15	0.0596	0.0168	0.0003769	1.36e-05
313.15	0.0596	0.0168	0.0004058	1.47e-05
303.15	0.0596	0.0168	0.0004407	1.59e-05
293.15	0.0596	0.0168	0.0004833	1.75e-05

System: hexane + (Z)-9-octadecenoic acid + 1,2,3-propanetriyl tri(tetradecanoate); phases: Liquid
Fixed: Pressure, kPa = 101.8
Property: Mass density, kg/m3 (Liquid); method: Vibrating tube method
Temperature, K	Mass fraction of 1,2,3-propanetriyl tri(tetradecanoate)	Mass fraction of (Z)-9-octadecenoic acid	Mass density, kg/m3	uncertainty
333.15	0.2149	0.1338	703.79	5.72
328.15	0.2149	0.1338	708.09	5.76
323.15	0.2149	0.1338	712.36	5.79
318.15	0.2149	0.1338	716.6	5.83
333.15	0.0268	0.0167	643.2	5.33
328.15	0.0268	0.0167	647.83	5.37
323.15	0.0268	0.0167	652.49	5.41
318.15	0.0268	0.0167	657.11	5.45
313.15	0.0268	0.0167	661.67	5.49

System: hexane + (Z)-9-octadecenoic acid + 1,2,3-propanetriyl tri(tetradecanoate); phases: Liquid
Fixed: Pressure, kPa = 101.8
Property: Viscosity, Pa*s (Liquid); method: Falling or rolling sphere viscometry
Temperature, K	Mass fraction of 1,2,3-propanetriyl tri(tetradecanoate)	Mass fraction of (Z)-9-octadecenoic acid	Viscosity, Pa*s	uncertainty
333.15	0.2149	0.1338	0.0010286	3.52e-05
328.15	0.2149	0.1338	0.0010389	3.55e-05
323.15	0.2149	0.1338	0.0011119	3.8e-05
318.15	0.2149	0.1338	0.0011915	4.07e-05
333.15	0.0268	0.0167	0.0003363	1.23e-05
328.15	0.0268	0.0167	0.0003426	1.25e-05
323.15	0.0268	0.0167	0.0003558	1.3e-05
318.15	0.0268	0.0167	0.0003702	1.35e-05
313.15	0.0268	0.0167	0.0003828	1.39e-05

System: hexane + decanoic acid + 1,2,3-propanetriyl tridodecanoate; phases: Liquid
Fixed: Pressure, kPa = 101.8
Property: Mass density, kg/m3 (Liquid); method: Vibrating tube method
Temperature, K	Mass fraction of 1,2,3-propanetriyl tridodecanoate	Mass fraction of decanoic acid	Mass density, kg/m3	uncertainty
333.15	0.1696	0.1008	680.03	5.55
323.15	0.1696	0.1008	689.04	5.62
313.15	0.1696	0.1008	697.91	5.7
303.15	0.1696	0.1008	706.66	5.77
293.15	0.1696	0.1008	715.28	5.84
333.15	0.0982	0.0584	666.45	5.48
323.15	0.0982	0.0584	675.61	5.56
313.15	0.0982	0.0584	684.62	5.63
303.15	0.0982	0.0584	693.49	5.71
293.15	0.0982	0.0584	702.22	5.78
333.15	0.0605	0.036	653.97	5.4
323.15	0.0605	0.036	663.26	5.48
313.15	0.0605	0.036	672.39	5.55
303.15	0.0605	0.036	681.37	5.63
293.15	0.0605	0.036	690.21	5.71

System: hexane + decanoic acid + 1,2,3-propanetriyl tridodecanoate; phases: Liquid
Fixed: Pressure, kPa = 101.8
Property: Viscosity, Pa*s (Liquid); method: Falling or rolling sphere viscometry
Temperature, K	Mass fraction of 1,2,3-propanetriyl tridodecanoate	Mass fraction of decanoic acid	Viscosity, Pa*s	uncertainty
333.15	0.1696	0.1008	0.000439	1.52e-05
323.15	0.1696	0.1008	0.000479	1.66e-05
313.15	0.1696	0.1008	0.0005255	1.83e-05
303.15	0.1696	0.1008	0.0005821	2.02e-05
293.15	0.1696	0.1008	0.0006508	2.26e-05
333.15	0.0982	0.0584	0.0003821	1.36e-05
323.15	0.0982	0.0584	0.0004119	1.46e-05
313.15	0.0982	0.0584	0.0004462	1.59e-05
303.15	0.0982	0.0584	0.0004874	1.73e-05
293.15	0.0982	0.0584	0.0005374	1.91e-05
333.15	0.0605	0.036	0.0003436	1.24e-05
323.15	0.0605	0.036	0.0003649	1.31e-05
313.15	0.0605	0.036	0.0003912	1.41e-05
303.15	0.0605	0.036	0.0004226	1.52e-05
293.15	0.0605	0.036	0.0004606	1.66e-05

System: octadecanoic acid + hexane + trilinolein; phases: Liquid
Fixed: Pressure, kPa = 101.8
Property: Mass density, kg/m3 (Liquid); method: Vibrating tube method
Temperature, K	Mass fraction of trilinolein	Mass fraction of octadecanoic acid	Mass density, kg/m3	uncertainty
333.15	0.3084	0.0749	715.71	5.81
328.15	0.3084	0.0749	719.93	5.85
323.15	0.3084	0.0749	724.1	5.88
318.15	0.3084	0.0749	728.27	5.91
333.15	0.1001	0.0246	676.28	5.57
328.15	0.1001	0.0246	678.14	5.59
323.15	0.1001	0.0246	682.6	5.63
318.15	0.1001	0.0246	686.92	5.67

System: octadecanoic acid + hexane + trilinolein; phases: Liquid
Fixed: Pressure, kPa = 101.8
Property: Viscosity, Pa*s (Liquid); method: Falling or rolling sphere viscometry
Temperature, K	Mass fraction of trilinolein	Mass fraction of octadecanoic acid	Viscosity, Pa*s	uncertainty
333.15	0.3084	0.0749	0.0024402	8.29e-05
328.15	0.3084	0.0749	0.0026892	9.13e-05
323.15	0.3084	0.0749	0.0029317	9.96e-05
318.15	0.3084	0.0749	0.0032155	0.0001092
333.15	0.1001	0.0246	0.0004794	1.72e-05
328.15	0.1001	0.0246	0.0005203	1.86e-05
323.15	0.1001	0.0246	0.000557	1.99e-05
318.15	0.1001	0.0246	0.0005895	2.11e-05

System: hexane + docosanoic acid + trilinolenin; phases: Liquid
Fixed: Mass fraction of trilinolenin = 0.124
Fixed: Mass fraction of docosanoic acid = 0.0308
Fixed: Pressure, kPa = 101.8
Property: Mass density, kg/m3 (Liquid); method: Vibrating tube method
Temperature, K	Mass density, kg/m3	uncertainty
333.15	666.13	5.48
328.15	670.68	5.51
323.15	675.16	5.55

System: hexane + docosanoic acid + trilinolenin; phases: Liquid
Fixed: Mass fraction of trilinolenin = 0.124
Fixed: Mass fraction of docosanoic acid = 0.0308
Fixed: Pressure, kPa = 101.8
Property: Viscosity, Pa*s (Liquid); method: Falling or rolling sphere viscometry
Temperature, K	Viscosity, Pa*s	uncertainty
333.15	0.0003984	1.42e-05
328.15	0.0004138	1.47e-05
323.15	0.0004302	1.53e-05

System: hexan-1-ol + 1,2,3-tri(cis-9-octadecenoyl)glycerol + tetradecanoic acid; phases: Liquid
Fixed: Pressure, kPa = 101.8
Property: Mass density, kg/m3 (Liquid); method: Vibrating tube method
Temperature, K	Mass fraction of 1,2,3-tri(cis-9-octadecenoyl)glycerol	Mass fraction of tetradecanoic acid	Mass density, kg/m3	uncertainty
343.15	0.5123	0.1371	839.76	4.25
338.15	0.5123	0.1371	841.58	4.26
333.15	0.5123	0.1371	845.21	4.28
328.15	0.5123	0.1371	848.82	4.29
323.15	0.5123	0.1371	852.4	4.31
313.15	0.5123	0.1371	859.53	4.35
343.15	0.3047	0.0815	813.94	4.12
333.15	0.3047	0.0815	821.51	4.16
323.15	0.3047	0.0815	828.9	4.2
313.15	0.3047	0.0815	836.13	4.23
303.15	0.3047	0.0815	843.34	4.27
343.15	0.1899	0.0508	802	4.07
333.15	0.1899	0.0508	809.67	4.11
323.15	0.1899	0.0508	817.18	4.14
313.15	0.1899	0.0508	824.59	4.18
303.15	0.1899	0.0508	831.87	4.22
343.15	0.1258	0.0337	795.54	4.04
333.15	0.1258	0.0337	803.27	4.08
323.15	0.1258	0.0337	810.83	4.12
313.15	0.1258	0.0337	818.26	4.16
303.15	0.1258	0.0337	825.57	4.19
343.15	0.0664	0.0178	789.25	4.02
333.15	0.0664	0.0178	797.01	4.06
323.15	0.0664	0.0178	804.59	4.09
313.15	0.0664	0.0178	812.02	4.13
303.15	0.0664	0.0178	819.28	4.17

System: hexan-1-ol + 1,2,3-tri(cis-9-octadecenoyl)glycerol + tetradecanoic acid; phases: Liquid
Fixed: Pressure, kPa = 101.8
Property: Viscosity, Pa*s (Liquid); method: Falling or rolling sphere viscometry
Temperature, K	Mass fraction of 1,2,3-tri(cis-9-octadecenoyl)glycerol	Mass fraction of tetradecanoic acid	Viscosity, Pa*s	uncertainty
343.15	0.5123	0.1371	0.0043768	0.0001267
338.15	0.5123	0.1371	0.004916	0.000141
333.15	0.5123	0.1371	0.0055469	0.000161
328.15	0.5123	0.1371	0.0062906	0.0001806
323.15	0.5123	0.1371	0.0072166	0.0002102
313.15	0.5123	0.1371	0.0096363	0.0002802
343.15	0.3047	0.0815	0.0025394	7.44e-05
333.15	0.3047	0.0815	0.0031673	9.38e-05
323.15	0.3047	0.0815	0.0040655	0.0001208
313.15	0.3047	0.0815	0.0053432	0.0001583
303.15	0.3047	0.0815	0.0072607	0.0002128
343.15	0.1899	0.0508	0.0019477	5.68e-05
333.15	0.1899	0.0508	0.0024205	7.14e-05
323.15	0.1899	0.0508	0.0030799	9.2e-05
313.15	0.1899	0.0508	0.0041298	0.0001248
303.15	0.1899	0.0508	0.0055449	0.0001654
343.15	0.1258	0.0337	0.0017348	5.1e-05
333.15	0.1258	0.0337	0.0021648	6.45e-05
323.15	0.1258	0.0337	0.0027452	8.2e-05
313.15	0.1258	0.0337	0.0035579	0.0001064
303.15	0.1258	0.0337	0.0047232	0.0001384
343.15	0.0664	0.0178	0.0015502	4.61e-05
333.15	0.0664	0.0178	0.0019354	5.67e-05
323.15	0.0664	0.0178	0.0024583	7.18e-05
313.15	0.0664	0.0178	0.0031947	9.31e-05
303.15	0.0664	0.0178	0.0042392	0.0001256

System: octadecanoic acid + hexan-1-ol + trilinolein; phases: Liquid
Fixed: Pressure, kPa = 101.8
Property: Mass density, kg/m3 (Liquid); method: Vibrating tube method
Temperature, K	Mass fraction of trilinolein	Mass fraction of octadecanoic acid	Mass density, kg/m3	uncertainty
343.15	0.3039	0.0858	817.6	4.13
338.15	0.3039	0.0858	821.39	4.15
333.15	0.3039	0.0858	825.15	4.17
328.15	0.3039	0.0858	828.87	4.19
323.15	0.3039	0.0858	832.56	4.21
318.15	0.3039	0.0858	836.24	4.23
343.15	0.1871	0.0528	803.21	4.07
338.15	0.1871	0.0528	807.33	4.09
333.15	0.1871	0.0528	811.16	4.11
328.15	0.1871	0.0528	814.93	4.13
323.15	0.1871	0.0528	818.67	4.15
318.15	0.1871	0.0528	822.37	4.17
313.15	0.1871	0.0528	826.05	4.18
343.15	0.126	0.0356	796.3	4.04
338.15	0.126	0.0356	800.18	4.06
333.15	0.126	0.0356	807.78	4.1
328.15	0.126	0.0356	807.78	4.1
323.15	0.126	0.0356	811.54	4.11
318.15	0.126	0.0356	815.25	4.13
313.15	0.126	0.0356	818.94	4.15
343.15	0.0675	0.0191	789.44	4.01
333.15	0.0675	0.0191	797.2	4.05
323.15	0.0675	0.0191	804.76	4.08
313.15	0.0675	0.0191	812.18	4.12
303.15	0.0675	0.0191	819.45	4.16

System: octadecanoic acid + hexan-1-ol + trilinolein; phases: Liquid
Fixed: Pressure, kPa = 101.8
Property: Viscosity, Pa*s (Liquid); method: Falling or rolling sphere viscometry
Temperature, K	Mass fraction of trilinolein	Mass fraction of octadecanoic acid	Viscosity, Pa*s	uncertainty
343.15	0.3039	0.0858	0.0024941	7.02e-05
338.15	0.3039	0.0858	0.0027646	7.78e-05
333.15	0.3039	0.0858	0.003101	8.72e-05
328.15	0.3039	0.0858	0.003476	9.78e-05
323.15	0.3039	0.0858	0.0039267	0.0001105
318.15	0.3039	0.0858	0.0044697	0.0001257
343.15	0.1871	0.0528	0.0019491	5.53e-05
338.15	0.1871	0.0528	0.0021716	6.16e-05
333.15	0.1871	0.0528	0.0024304	6.89e-05
328.15	0.1871	0.0528	0.0027314	7.74e-05
323.15	0.1871	0.0528	0.0030836	8.74e-05
318.15	0.1871	0.0528	0.0035069	9.94e-05
313.15	0.1871	0.0528	0.0040022	0.0001135
343.15	0.126	0.0356	0.0016915	4.82e-05
338.15	0.126	0.0356	0.0018822	5.36e-05
333.15	0.126	0.0356	0.0021005	5.98e-05
328.15	0.126	0.0356	0.0023562	6.71e-05
323.15	0.126	0.0356	0.0026521	7.55e-05
318.15	0.126	0.0356	0.0030103	8.57e-05
313.15	0.126	0.0356	0.0035495	0.0001011
343.15	0.0675	0.0191	0.0015401	4.41e-05
333.15	0.0675	0.0191	0.0019204	5.49e-05
323.15	0.0675	0.0191	0.002437	6.97e-05
313.15	0.0675	0.0191	0.0031572	9.03e-05
303.15	0.0675	0.0191	0.0041816	0.0001196

System: hexadecanoic acid + hexan-1-ol + 1,2,3-propanetriol trioctanoate; phases: Liquid
Fixed: Pressure, kPa = 101.8
Property: Mass density, kg/m3 (Liquid); method: Vibrating tube method
Temperature, K	Mass fraction of 1,2,3-propanetriol trioctanoate	Mass fraction of hexadecanoic acid	Mass density, kg/m3	uncertainty
343.15	0.5125	0.1363	852.97	4.3
338.15	0.5125	0.1363	857.04	4.32
333.15	0.5125	0.1363	860.91	4.34
328.15	0.5125	0.1363	864.75	4.36
323.15	0.5125	0.1363	868.57	4.38
343.15	0.2968	0.0789	822.41	4.16
333.15	0.2968	0.0789	830.25	4.2
323.15	0.2968	0.0789	838	4.24
313.15	0.2968	0.0789	845.64	4.28
303.15	0.2968	0.0789	853.19	4.31

System: hexadecanoic acid + hexan-1-ol + 1,2,3-propanetriol trioctanoate; phases: Liquid
Fixed: Pressure, kPa = 101.8
Property: Viscosity, Pa*s (Liquid); method: Falling or rolling sphere viscometry
Temperature, K	Mass fraction of 1,2,3-propanetriol trioctanoate	Mass fraction of hexadecanoic acid	Viscosity, Pa*s	uncertainty
343.15	0.5125	0.1363	0.0027642	7.68e-05
338.15	0.5125	0.1363	0.0030425	8.45e-05
333.15	0.5125	0.1363	0.0033851	9.41e-05
328.15	0.5125	0.1363	0.0037998	0.0001056
323.15	0.5125	0.1363	0.0043056	0.0001196
343.15	0.2968	0.0789	0.0018309	5.15e-05
333.15	0.2968	0.0789	0.002281	6.42e-05
323.15	0.2968	0.0789	0.002904	8.18e-05
313.15	0.2968	0.0789	0.003776	0.0001063
303.15	0.2968	0.0789	0.0050957	0.0001434

System: hexan-1-ol + dodecanoic acid + 1,2,3-propanetriyl tridecanoate; phases: Liquid
Fixed: Pressure, kPa = 101.8
Property: Mass density, kg/m3 (Liquid); method: Vibrating tube method
Temperature, K	Mass fraction of 1,2,3-propanetriyl tridecanoate	Mass fraction of dodecanoic acid	Mass density, kg/m3	uncertainty
343.15	0.5203	0.1361	848.67	4.28
333.15	0.5203	0.1361	856.25	4.32
323.15	0.5203	0.1361	863.8	4.36
313.15	0.5203	0.1361	871.29	4.4
303.15	0.5203	0.1361	878.74	4.43
343.15	0.3162	0.0827	819.55	4.14
333.15	0.3162	0.0827	827.28	4.18
323.15	0.3162	0.0827	834.94	4.22
313.15	0.3162	0.0827	842.47	4.26
303.15	0.3162	0.0827	849.93	4.3
343.15	0.1372	0.0347	796.89	4.04
333.15	0.1372	0.0347	804.67	4.08
323.15	0.1372	0.0347	812.31	4.12
313.15	0.1372	0.0347	819.8	4.16
303.15	0.1372	0.0347	827.18	4.19
293.15	0.1372	0.0347	834.47	4.23
343.15	0.0998	0.0253	793.26	4.02
333.15	0.0998	0.0253	801.08	4.06
323.15	0.0998	0.0253	808.74	4.1
313.15	0.0998	0.0253	816.25	4.14
303.15	0.0998	0.0253	823.64	4.18
293.15	0.0998	0.0253	830.47	4.21
343.15	0.0822	0.0208	792.4	4.02
333.15	0.0822	0.0208	800.24	4.06
323.15	0.0822	0.0208	807.93	4.1
313.15	0.0822	0.0208	815.47	4.14
303.15	0.0822	0.0208	822.87	4.18
293.15	0.0822	0.0208	830.2	4.21

System: hexan-1-ol + dodecanoic acid + 1,2,3-propanetriyl tridecanoate; phases: Liquid
Fixed: Pressure, kPa = 101.8
Property: Viscosity, Pa*s (Liquid); method: Falling or rolling sphere viscometry
Temperature, K	Mass fraction of 1,2,3-propanetriyl tridecanoate	Mass fraction of dodecanoic acid	Viscosity, Pa*s	uncertainty
343.15	0.5203	0.1361	0.0029234	8.12e-05
333.15	0.5203	0.1361	0.0036137	0.0001004
323.15	0.5203	0.1361	0.0046286	0.0001286
313.15	0.5203	0.1361	0.0061162	0.0001699
303.15	0.5203	0.1361	0.0083388	0.0002317
343.15	0.3162	0.0827	0.0019068	5.36e-05
333.15	0.3162	0.0827	0.0023666	6.65e-05
323.15	0.3162	0.0827	0.0029961	8.42e-05
313.15	0.3162	0.0827	0.0038835	0.0001092
303.15	0.3162	0.0827	0.0051757	0.0001455
343.15	0.1372	0.0347	0.0015501	4.41e-05
333.15	0.1372	0.0347	0.0019225	5.47e-05
323.15	0.1372	0.0347	0.0024253	6.9e-05
313.15	0.1372	0.0347	0.0031276	8.9e-05
303.15	0.1372	0.0347	0.0041262	0.0001174
293.15	0.1372	0.0347	0.0056104	0.0001597
343.15	0.0998	0.0253	0.0014852	4.24e-05
333.15	0.0998	0.0253	0.001846	5.27e-05
323.15	0.0998	0.0253	0.0023356	6.67e-05
313.15	0.0998	0.0253	0.0030215	8.62e-05
303.15	0.0998	0.0253	0.0039962	0.000114
293.15	0.0998	0.0253	0.0054432	0.0001554
343.15	0.0822	0.0208	0.0014636	4.18e-05
333.15	0.0822	0.0208	0.0018184	5.2e-05
323.15	0.0822	0.0208	0.0022987	6.57e-05
313.15	0.0822	0.0208	0.0029725	8.49e-05
303.15	0.0822	0.0208	0.0039354	0.0001125
293.15	0.0822	0.0208	0.0053551	0.000153

System: hexan-1-ol + decanoic acid + 1,2,3-propanetriyl tridodecanoate; phases: Liquid
Fixed: Pressure, kPa = 101.8
Property: Mass density, kg/m3 (Liquid); method: Vibrating tube method
Temperature, K	Mass fraction of 1,2,3-propanetriyl tridodecanoate	Mass fraction of decanoic acid	Mass density, kg/m3	uncertainty
343.15	0.5127	0.1358	843.47	4.26
338.15	0.5127	0.1358	847.23	4.28
333.15	0.5127	0.1358	850.98	4.29
328.15	0.5127	0.1358	854.72	4.31
323.15	0.5127	0.1358	858.44	4.33
343.15	0.187	0.0498	801.99	4.07
338.15	0.187	0.0498	805.89	4.09
328.15	0.187	0.0498	813.55	4.13
323.15	0.187	0.0498	817.11	4.14
343.15	0.1252	0.0335	796.05	4.04
338.15	0.1252	0.0335	799.94	4.06
333.15	0.1252	0.0335	803.78	4.08
328.15	0.1252	0.0335	807.57	4.1
323.15	0.1252	0.0335	811.19	4.12

System: hexan-1-ol + decanoic acid + 1,2,3-propanetriyl tridodecanoate; phases: Liquid
Fixed: Pressure, kPa = 101.8
Property: Viscosity, Pa*s (Liquid); method: Falling or rolling sphere viscometry
Temperature, K	Mass fraction of 1,2,3-propanetriyl tridodecanoate	Mass fraction of decanoic acid	Viscosity, Pa*s	uncertainty
343.15	0.5127	0.1358	0.0033741	9.38e-05
338.15	0.5127	0.1358	0.0037681	0.0001047
333.15	0.5127	0.1358	0.0042162	0.0001172
328.15	0.5127	0.1358	0.0047583	0.0001322
323.15	0.5127	0.1358	0.005447	0.0001513
343.15	0.187	0.0498	0.0024893	7.14e-05
338.15	0.187	0.0498	0.0027732	7.98e-05
328.15	0.187	0.0498	0.0034816	0.0001004
323.15	0.187	0.0498	0.0039325	0.000113
343.15	0.1252	0.0335	0.0023262	6.71e-05
338.15	0.1252	0.0335	0.0025944	7.47e-05
333.15	0.1252	0.0335	0.0028875	8.22e-05
328.15	0.1252	0.0335	0.0032388	9.34e-05
323.15	0.1252	0.0335	0.0036537	0.0001056

System: hexan-1-ol + octanoic acid + 1,2,3-propanetriyl tri(hexadecanoate); phases: Liquid
Fixed: Pressure, kPa = 101.8
Property: Mass density, kg/m3 (Liquid); method: Vibrating tube method
Temperature, K	Mass fraction of 1,2,3-propanetriyl tri(hexadecanoate)	Mass fraction of octanoic acid	Mass density, kg/m3	uncertainty
343.15	0.1912	0.0511	800.83	4.11
338.15	0.1912	0.0511	803.63	4.12
333.15	0.1912	0.0511	807.38	4.13
343.15	0.1259	0.0336	788.78	3.99
338.15	0.1259	0.0336	792.76	4.01
333.15	0.1259	0.0336	796.53	4.03
343.15	0.068	0.0182	788.48	3.99
338.15	0.068	0.0182	792.58	4.01
333.15	0.068	0.0182	795.86	4.03

System: hexan-1-ol + octanoic acid + 1,2,3-propanetriyl tri(hexadecanoate); phases: Liquid
Fixed: Pressure, kPa = 101.8
Property: Viscosity, Pa*s (Liquid); method: Falling or rolling sphere viscometry
Temperature, K	Mass fraction of 1,2,3-propanetriyl tri(hexadecanoate)	Mass fraction of octanoic acid	Viscosity, Pa*s	uncertainty
343.15	0.1912	0.0511	0.0018907	5.67e-05
338.15	0.1912	0.0511	0.0021008	6.33e-05
333.15	0.1912	0.0511	0.0023594	7.08e-05
343.15	0.1259	0.0336	0.0015904	4.55e-05
338.15	0.1259	0.0336	0.0017668	5.06e-05
333.15	0.1259	0.0336	0.0019802	5.66e-05
343.15	0.068	0.0182	0.0015336	4.4e-05
338.15	0.068	0.0182	0.0017076	4.9e-05
333.15	0.068	0.0182	0.0019085	5.48e-05

System: hexan-1-ol + (Z)-9-octadecenoic acid + 1,2,3-propanetriyl tri(tetradecanoate); phases: Liquid
Fixed: Pressure, kPa = 101.8
Property: Mass density, kg/m3 (Liquid); method: Vibrating tube method
Temperature, K	Mass fraction of 1,2,3-propanetriyl tri(tetradecanoate)	Mass fraction of (Z)-9-octadecenoic acid	Mass density, kg/m3	uncertainty
343.15	0.1885	0.0504	802.78	4.07
338.15	0.1885	0.0504	806.66	4.09
333.15	0.1885	0.0504	810.48	4.11
343.15	0.1247	0.0333	794.15	4.03
338.15	0.1247	0.0333	798.06	4.05
333.15	0.1247	0.0333	801.91	4.07
343.15	0.0647	0.0173	788.8	4
338.15	0.0647	0.0173	792.71	4.02
333.15	0.0647	0.0173	796.57	4.04

System: hexan-1-ol + (Z)-9-octadecenoic acid + 1,2,3-propanetriyl tri(tetradecanoate); phases: Liquid
Fixed: Pressure, kPa = 101.8
Property: Viscosity, Pa*s (Liquid); method: Falling or rolling sphere viscometry
Temperature, K	Mass fraction of 1,2,3-propanetriyl tri(tetradecanoate)	Mass fraction of (Z)-9-octadecenoic acid	Viscosity, Pa*s	uncertainty
343.15	0.1885	0.0504	0.0028899	8.19e-05
338.15	0.1885	0.0504	0.0031987	9.07e-05
333.15	0.1885	0.0504	0.0035991	0.0001021
343.15	0.1247	0.0333	0.0025186	7.17e-05
338.15	0.1247	0.0333	0.0028076	8e-05
333.15	0.1247	0.0333	0.0031432	8.95e-05
343.15	0.0647	0.0173	0.0022192	6.35e-05
338.15	0.0647	0.0173	0.00248	7.1e-05
333.15	0.0647	0.0173	0.0027818	7.96e-05

System: hexan-1-ol + docosanoic acid + trilinolenin; phases: Liquid
Fixed: Pressure, kPa = 101.8
Property: Mass density, kg/m3 (Liquid); method: Vibrating tube method
Temperature, K	Mass fraction of trilinolenin	Mass fraction of docosanoic acid	Mass density, kg/m3	uncertainty
343.15	0.126	0.035	794.93	4.03
338.15	0.126	0.035	798.91	4.05
333.15	0.126	0.035	802.77	4.07
328.15	0.126	0.035	806.57	4.09
323.15	0.126	0.035	810.32	4.11
343.15	0.0683	0.0189	790.09	4.01
338.15	0.0683	0.0189	793.99	4.03
333.15	0.0683	0.0189	797.84	4.05
328.15	0.0683	0.0189	801.64	4.07
323.15	0.0683	0.0189	805.41	4.09
318.15	0.0683	0.0189	809.14	4.11
313.15	0.0683	0.0189	812.83	4.13

System: hexan-1-ol + docosanoic acid + trilinolenin; phases: Liquid
Fixed: Pressure, kPa = 101.8
Property: Viscosity, Pa*s (Liquid); method: Falling or rolling sphere viscometry
Temperature, K	Mass fraction of trilinolenin	Mass fraction of docosanoic acid	Viscosity, Pa*s	uncertainty
343.15	0.126	0.035	0.001674	4.77e-05
338.15	0.126	0.035	0.0018607	5.3e-05
333.15	0.126	0.035	0.0020772	5.92e-05
328.15	0.126	0.035	0.0023293	6.63e-05
323.15	0.126	0.035	0.0026191	7.46e-05
343.15	0.0683	0.0189	0.0015402	4.41e-05
338.15	0.0683	0.0189	0.0017202	4.92e-05
333.15	0.0683	0.0189	0.0019186	5.49e-05
328.15	0.0683	0.0189	0.0021528	6.16e-05
323.15	0.0683	0.0189	0.0024304	6.95e-05
318.15	0.0683	0.0189	0.0027537	7.88e-05
313.15	0.0683	0.0189	0.0031509	9.01e-05

System: hexadecanoic acid + pentan-1-ol + 1,2,3-propanetriol trioctanoate; phases: Liquid
Fixed: Pressure, kPa = 101.8
Property: Mass density, kg/m3 (Liquid); method: Vibrating tube method
Temperature, K	Mass fraction of 1,2,3-propanetriol trioctanoate	Mass fraction of hexadecanoic acid	Mass density, kg/m3	uncertainty
343.15	0.2186	0.1535	813.46	4.11
338.15	0.2186	0.1535	817.46	4.13
333.15	0.2186	0.1535	821.41	4.15
328.15	0.2186	0.1535	825.3	4.17
323.15	0.2186	0.1535	829.06	4.19
318.15	0.2186	0.1535	832.9	4.21
343.15	0.1658	0.1164	808.18	4.09
338.15	0.1658	0.1164	812.19	4.11
333.15	0.1658	0.1164	816.16	4.13
328.15	0.1658	0.1164	820.04	4.15
323.15	0.1658	0.1164	823.54	4.17
318.15	0.1658	0.1164	827.39	4.19
343.15	0.0963	0.0676	796.36	4.04
338.15	0.0963	0.0676	800.4	4.06
333.15	0.0963	0.0676	804.39	4.08
328.15	0.0963	0.0676	808.34	4.1
323.15	0.0963	0.0676	812.24	4.12
318.15	0.0963	0.0676	816.2	4.14
343.15	0.063	0.0443	792.96	4.02
338.15	0.063	0.0443	797.01	4.04
333.15	0.063	0.0443	801.02	4.06
328.15	0.063	0.0443	804.98	4.08
323.15	0.063	0.0443	808.87	4.1
318.15	0.063	0.0443	812.76	4.12
343.15	0.0329	0.0232	785.64	3.99
338.15	0.0329	0.0232	789.7	4.01
333.15	0.0329	0.0232	793.7	4.03
328.15	0.0329	0.0232	797.65	4.05
323.15	0.0329	0.0232	801.56	4.07
318.15	0.0329	0.0232	805.43	4.09

System: hexadecanoic acid + pentan-1-ol + 1,2,3-propanetriol trioctanoate; phases: Liquid
Fixed: Pressure, kPa = 101.8
Property: Viscosity, Pa*s (Liquid); method: Falling or rolling sphere viscometry
Temperature, K	Mass fraction of 1,2,3-propanetriol trioctanoate	Mass fraction of hexadecanoic acid	Viscosity, Pa*s	uncertainty
343.15	0.2186	0.1535	0.0017081	4.81e-05
338.15	0.2186	0.1535	0.0018927	5.33e-05
333.15	0.2186	0.1535	0.0021057	5.93e-05
328.15	0.2186	0.1535	0.0023529	6.63e-05
323.15	0.2186	0.1535	0.0026416	7.44e-05
318.15	0.2186	0.1535	0.0029812	8.39e-05
343.15	0.1658	0.1164	0.0015678	4.44e-05
338.15	0.1658	0.1164	0.0017374	4.92e-05
333.15	0.1658	0.1164	0.0019311	5.46e-05
328.15	0.1658	0.1164	0.0021548	6.1e-05
323.15	0.1658	0.1164	0.0024172	6.84e-05
318.15	0.1658	0.1164	0.0027265	7.71e-05
343.15	0.0963	0.0676	0.0013656	3.89e-05
338.15	0.0963	0.0676	0.0015211	4.33e-05
333.15	0.0963	0.0676	0.0016961	4.83e-05
328.15	0.0963	0.0676	0.001896	5.4e-05
323.15	0.0963	0.0676	0.0021262	6.05e-05
318.15	0.0963	0.0676	0.0024008	6.84e-05
343.15	0.063	0.0443	0.0013151	3.76e-05
338.15	0.063	0.0443	0.0014503	4.14e-05
333.15	0.063	0.0443	0.0016138	4.61e-05
328.15	0.063	0.0443	0.0018025	5.15e-05
323.15	0.063	0.0443	0.002023	5.78e-05
318.15	0.063	0.0443	0.0022755	6.5e-05
343.15	0.0329	0.0232	0.0012129	3.48e-05
338.15	0.0329	0.0232	0.0013448	3.85e-05
333.15	0.0329	0.0232	0.0014971	4.29e-05
328.15	0.0329	0.0232	0.0016732	4.79e-05
323.15	0.0329	0.0232	0.0018786	5.38e-05
318.15	0.0329	0.0232	0.0021153	6.06e-05

System: pentan-1-ol + dodecanoic acid + 1,2,3-propanetriyl tridecanoate; phases: Liquid
Fixed: Pressure, kPa = 101.8
Property: Mass density, kg/m3 (Liquid); method: Vibrating tube method
Temperature, K	Mass fraction of 1,2,3-propanetriyl tridecanoate	Mass fraction of dodecanoic acid	Mass density, kg/m3	uncertainty
343.15	0.2205	0.1546	812.61	4.11
333.15	0.2205	0.1546	820.52	4.15
323.15	0.2205	0.1546	828.3	4.19
313.15	0.2205	0.1546	835.94	4.23
303.15	0.2205	0.1546	843.5	4.27
343.15	0.1625	0.114	803.86	4.07
333.15	0.1625	0.114	811.83	4.11
323.15	0.1625	0.114	819.64	4.15
313.15	0.1625	0.114	827.32	4.19
303.15	0.1625	0.114	834.87	4.23
343.15	0.097	0.068	793.27	4.02
333.15	0.097	0.068	801.29	4.06
323.15	0.097	0.068	809.12	4.1
313.15	0.097	0.068	816.79	4.14
303.15	0.097	0.068	824.32	4.18
343.15	0.0658	0.0462	788.24	4
333.15	0.0658	0.0462	796.28	4.04
323.15	0.0658	0.0462	804.13	4.08
313.15	0.0658	0.0462	811.79	4.12
303.15	0.0658	0.0462	819.34	4.16
293.15	0.0658	0.0462	826.76	4.19
343.15	0.034	0.0238	782.81	3.97
333.15	0.034	0.0238	790.85	4.02
323.15	0.034	0.0238	798.7	4.06
313.15	0.034	0.0238	806.37	4.09
303.15	0.034	0.0238	813.88	4.13
293.15	0.034	0.0238	821.29	4.17

System: pentan-1-ol + dodecanoic acid + 1,2,3-propanetriyl tridecanoate; phases: Liquid
Fixed: Pressure, kPa = 101.8
Property: Viscosity, Pa*s (Liquid); method: Falling or rolling sphere viscometry
Temperature, K	Mass fraction of 1,2,3-propanetriyl tridecanoate	Mass fraction of dodecanoic acid	Viscosity, Pa*s	uncertainty
343.15	0.2205	0.1546	0.0017208	4.84e-05
333.15	0.2205	0.1546	0.0021218	5.97e-05
323.15	0.2205	0.1546	0.0026663	7.51e-05
313.15	0.2205	0.1546	0.0034609	9.74e-05
303.15	0.2205	0.1546	0.004594	0.0001293
343.15	0.1625	0.114	0.0015227	4.31e-05
333.15	0.1625	0.114	0.0018769	5.31e-05
323.15	0.1625	0.114	0.0023558	6.67e-05
313.15	0.1625	0.114	0.0030147	8.53e-05
303.15	0.1625	0.114	0.0039451	0.0001116
343.15	0.097	0.068	0.0013612	3.88e-05
333.15	0.097	0.068	0.0016772	4.78e-05
323.15	0.097	0.068	0.0020885	5.95e-05
313.15	0.097	0.068	0.0026578	7.57e-05
303.15	0.097	0.068	0.003447	9.82e-05
343.15	0.0658	0.0462	0.0012693	3.63e-05
333.15	0.0658	0.0462	0.001566	4.47e-05
323.15	0.0658	0.0462	0.0019652	5.61e-05
313.15	0.0658	0.0462	0.0025125	7.18e-05
303.15	0.0658	0.0462	0.003273	9.35e-05
293.15	0.0658	0.0462	0.0043734	0.0001249
343.15	0.034	0.0238	0.0011936	3.42e-05
333.15	0.034	0.0238	0.0014724	4.22e-05
323.15	0.034	0.0238	0.0018444	5.28e-05
313.15	0.034	0.0238	0.0023515	6.74e-05
303.15	0.034	0.0238	0.0030146	8.64e-05
293.15	0.034	0.0238	0.0040542	0.0001162

System: pentan-1-ol + decanoic acid + 1,2,3-propanetriyl tridodecanoate; phases: Liquid
Fixed: Pressure, kPa = 101.8
Property: Mass density, kg/m3 (Liquid); method: Vibrating tube method
Temperature, K	Mass fraction of 1,2,3-propanetriyl tridodecanoate	Mass fraction of decanoic acid	Mass density, kg/m3	uncertainty
343.15	0.1621	0.0573	791.76	4.01
338.15	0.1621	0.0573	795.79	4.03
333.15	0.1621	0.0573	799.78	4.05
328.15	0.1621	0.0573	803.72	4.07
323.15	0.1621	0.0573	807.6	4.09
318.15	0.1621	0.0573	811.45	4.11
343.15	0.0964	0.0341	786.36	3.99
338.15	0.0964	0.0341	790.41	4.01
333.15	0.0964	0.0341	794.41	4.03
328.15	0.0964	0.0341	798.35	4.05
323.15	0.0964	0.0341	802.25	4.07
318.15	0.0964	0.0341	806.1	4.09
313.15	0.0964	0.0341	809.9	4.11

System: pentan-1-ol + decanoic acid + 1,2,3-propanetriyl tridodecanoate; phases: Liquid
Fixed: Pressure, kPa = 101.8
Property: Viscosity, Pa*s (Liquid); method: Falling or rolling sphere viscometry
Temperature, K	Mass fraction of 1,2,3-propanetriyl tridodecanoate	Mass fraction of decanoic acid	Viscosity, Pa*s	uncertainty
343.15	0.1621	0.0573	0.0013436	3.81e-05
338.15	0.1621	0.0573	0.0014887	4.23e-05
333.15	0.1621	0.0573	0.0016561	4.7e-05
328.15	0.1621	0.0573	0.0018503	5.25e-05
323.15	0.1621	0.0573	0.0020788	5.9e-05
318.15	0.1621	0.0573	0.0023448	6.66e-05
343.15	0.0964	0.0341	0.0012504	3.57e-05
338.15	0.0964	0.0341	0.0013861	3.96e-05
333.15	0.0964	0.0341	0.0015438	4.41e-05
328.15	0.0964	0.0341	0.0017277	4.93e-05
323.15	0.0964	0.0341	0.0019415	5.54e-05
318.15	0.0964	0.0341	0.002192	6.25e-05
313.15	0.0964	0.0341	0.0024873	7.1e-05

System: hexadecanoic acid + butan-1-ol + 1,2,3-propanetriol trioctanoate; phases: Liquid
Fixed: Pressure, kPa = 101.8
Property: Mass density, kg/m3 (Liquid); method: Vibrating tube method
Temperature, K	Mass fraction of 1,2,3-propanetriol trioctanoate	Mass fraction of hexadecanoic acid	Mass density, kg/m3	uncertainty
343.15	0.2238	0.1271	807.6	2.47
338.15	0.2238	0.1271	811.76	2.48
333.15	0.2238	0.1271	815.87	2.5
328.15	0.2238	0.1271	819.94	2.51
323.15	0.2238	0.1271	823.96	2.52
318.15	0.2238	0.1271	827.92	2.53
343.15	0.16	0.0909	797.92	2.44
338.15	0.16	0.0909	802.12	2.45
333.15	0.16	0.0909	806.27	2.47
328.15	0.16	0.0909	810.36	2.48
323.15	0.16	0.0909	814.41	2.49
318.15	0.16	0.0909	818.4	2.5
343.15	0.1075	0.0611	790.01	2.42
338.15	0.1075	0.0611	794.23	2.43
333.15	0.1075	0.0611	798.4	2.44
328.15	0.1075	0.0611	802.52	2.45
323.15	0.1075	0.0611	806.6	2.47
318.15	0.1075	0.0611	810.62	2.48
343.15	0.0654	0.0372	782.71	2.39
338.15	0.0654	0.0372	786.96	2.41
333.15	0.0654	0.0372	791.13	2.42
328.15	0.0654	0.0372	795.28	2.43
323.15	0.0654	0.0372	799.33	2.44
318.15	0.0654	0.0372	803.36	2.46

System: hexadecanoic acid + butan-1-ol + 1,2,3-propanetriol trioctanoate; phases: Liquid
Fixed: Pressure, kPa = 101.8
Property: Viscosity, Pa*s (Liquid); method: Falling or rolling sphere viscometry
Temperature, K	Mass fraction of 1,2,3-propanetriol trioctanoate	Mass fraction of hexadecanoic acid	Viscosity, Pa*s	uncertainty
343.15	0.2238	0.1271	0.0013881	3.24e-05
338.15	0.2238	0.1271	0.0015293	3.57e-05
333.15	0.2238	0.1271	0.0016893	3.95e-05
328.15	0.2238	0.1271	0.0018817	4.4e-05
323.15	0.2238	0.1271	0.0021025	4.91e-05
318.15	0.2238	0.1271	0.0023526	5.5e-05
343.15	0.16	0.0909	0.0012271	2.86e-05
338.15	0.16	0.0909	0.0013538	3.16e-05
333.15	0.16	0.0909	0.0015277	3.57e-05
328.15	0.16	0.0909	0.0016604	3.87e-05
323.15	0.16	0.0909	0.0018504	4.32e-05
318.15	0.16	0.0909	0.0020712	4.83e-05
343.15	0.1075	0.0611	0.0011121	2.59e-05
338.15	0.1075	0.0611	0.0012252	2.86e-05
333.15	0.1075	0.0611	0.0013539	3.16e-05
328.15	0.1075	0.0611	0.0015041	3.51e-05
323.15	0.1075	0.0611	0.0016746	3.9e-05
318.15	0.1075	0.0611	0.0018683	4.35e-05
343.15	0.0654	0.0372	0.0010392	2.42e-05
338.15	0.0654	0.0372	0.0011393	2.65e-05
333.15	0.0654	0.0372	0.001266	2.95e-05
328.15	0.0654	0.0372	0.0013897	3.24e-05
323.15	0.0654	0.0372	0.0015515	3.61e-05
318.15	0.0654	0.0372	0.0017268	4.02e-05

System: butan-1-ol + dodecanoic acid + 1,2,3-propanetriyl tridecanoate; phases: Liquid
Fixed: Pressure, kPa = 101.8
Property: Mass density, kg/m3 (Liquid); method: Vibrating tube method
Temperature, K	Mass fraction of 1,2,3-propanetriyl tridecanoate	Mass fraction of dodecanoic acid	Mass density, kg/m3	uncertainty
343.15	0.2241	0.1288	806.47	2.47
333.15	0.2241	0.1288	814.72	2.49
323.15	0.2241	0.1288	822.78	2.52
313.15	0.2241	0.1288	830.72	2.54
303.15	0.2241	0.1288	838.38	2.56
293.15	0.2241	0.1288	846.12	2.59
343.15	0.1598	0.0919	797.12	2.44
333.15	0.1598	0.0919	805.45	2.46
323.15	0.1598	0.0919	813.6	2.49
313.15	0.1598	0.0919	821.57	2.51
303.15	0.1598	0.0919	829.41	2.54
293.15	0.1598	0.0919	837.13	2.56
343.15	0.1096	0.063	789.23	2.41
333.15	0.1096	0.063	797.62	2.44
323.15	0.1096	0.063	805.79	2.46
313.15	0.1096	0.063	813.77	2.49
303.15	0.1096	0.063	821.62	2.51
293.15	0.1096	0.063	829.32	2.54
343.15	0.066	0.0379	782.23	2.39
333.15	0.066	0.0379	790.63	2.42
323.15	0.066	0.0379	798.84	2.44
313.15	0.066	0.0379	806.85	2.47
303.15	0.066	0.0379	814.7	2.49
293.15	0.066	0.0379	822.41	2.51

System: butan-1-ol + dodecanoic acid + 1,2,3-propanetriyl tridecanoate; phases: Liquid
Fixed: Pressure, kPa = 101.8
Property: Viscosity, Pa*s (Liquid); method: Falling or rolling sphere viscometry
Temperature, K	Mass fraction of 1,2,3-propanetriyl tridecanoate	Mass fraction of dodecanoic acid	Viscosity, Pa*s	uncertainty
343.15	0.2241	0.1288	0.0014302	3.34e-05
333.15	0.2241	0.1288	0.0017459	4.08e-05
323.15	0.2241	0.1288	0.0021644	5.06e-05
313.15	0.2241	0.1288	0.0027344	6.39e-05
303.15	0.2241	0.1288	0.0034816	8.14e-05
293.15	0.2241	0.1288	0.0046386	0.0001084
343.15	0.1598	0.0919	0.0012278	2.87e-05
333.15	0.1598	0.0919	0.0014974	3.49e-05
323.15	0.1598	0.0919	0.0018565	4.33e-05
313.15	0.1598	0.0919	0.0023376	5.45e-05
303.15	0.1598	0.0919	0.0029959	6.99e-05
293.15	0.1598	0.0919	0.0039375	9.19e-05
343.15	0.1096	0.063	0.0011297	2.63e-05
333.15	0.1096	0.063	0.0013738	3.2e-05
323.15	0.1096	0.063	0.0016951	3.95e-05
313.15	0.1096	0.063	0.0021292	4.96e-05
303.15	0.1096	0.063	0.0027236	6.35e-05
293.15	0.1096	0.063	0.0035537	8.28e-05
343.15	0.066	0.0379	0.0010469	2.44e-05
333.15	0.066	0.0379	0.0012741	2.97e-05
323.15	0.066	0.0379	0.0015679	3.65e-05
313.15	0.066	0.0379	0.0019622	4.57e-05
303.15	0.066	0.0379	0.0025012	5.82e-05
293.15	0.066	0.0379	0.0032486	7.56e-05

System: butan-1-ol + decanoic acid + 1,2,3-propanetriyl tridodecanoate; phases: Liquid
Fixed: Pressure, kPa = 101.8
Property: Mass density, kg/m3 (Liquid); method: Vibrating tube method
Temperature, K	Mass fraction of 1,2,3-propanetriyl tridodecanoate	Mass fraction of decanoic acid	Mass density, kg/m3	uncertainty
343.15	0.0328	0.0249	771.98	2.36
338.15	0.0328	0.0249	776.24	2.37
333.15	0.0328	0.0249	780.42	2.39
328.15	0.0328	0.0249	784.55	2.4
323.15	0.0328	0.0249	788.62	2.41
318.15	0.0328	0.0249	792.64	2.42
313.15	0.0328	0.0249	796.61	2.44
343.15	0.0181	0.0137	772.18	2.36
338.15	0.0181	0.0137	776.45	2.37
333.15	0.0181	0.0137	780.66	2.39
328.15	0.0181	0.0137	784.8	2.4
323.15	0.0181	0.0137	788.89	2.41
318.15	0.0181	0.0137	792.93	2.42
313.15	0.0181	0.0137	796.92	2.44

System: butan-1-ol + decanoic acid + 1,2,3-propanetriyl tridodecanoate; phases: Liquid
Fixed: Pressure, kPa = 101.8
Property: Viscosity, Pa*s (Liquid); method: Falling or rolling sphere viscometry
Temperature, K	Mass fraction of 1,2,3-propanetriyl tridodecanoate	Mass fraction of decanoic acid	Viscosity, Pa*s	uncertainty
343.15	0.0328	0.0249	0.0009184	2.14e-05
338.15	0.0328	0.0249	0.0010131	2.36e-05
333.15	0.0328	0.0249	0.00112	2.61e-05
328.15	0.0328	0.0249	0.0012442	2.9e-05
323.15	0.0328	0.0249	0.0013864	3.23e-05
318.15	0.0328	0.0249	0.0015525	3.61e-05
313.15	0.0328	0.0249	0.001745	4.06e-05
343.15	0.0181	0.0137	0.0009075	2.11e-05
338.15	0.0181	0.0137	0.0010002	2.33e-05
333.15	0.0181	0.0137	0.0011061	2.57e-05
328.15	0.0181	0.0137	0.0012277	2.86e-05
323.15	0.0181	0.0137	0.0013678	3.18e-05
318.15	0.0181	0.0137	0.0015292	3.56e-05
313.15	0.0181	0.0137	0.0017157	3.99e-05

System: butan-1-ol + 1,2,3-tri(cis-9-octadecenoyl)glycerol + tetradecanoic acid; phases: Liquid
Fixed: Pressure, kPa = 101.8
Property: Mass density, kg/m3 (Liquid); method: Vibrating tube method
Temperature, K	Mass fraction of 1,2,3-tri(cis-9-octadecenoyl)glycerol	Mass fraction of tetradecanoic acid	Mass density, kg/m3	uncertainty
343.15	0.2264	0.1329	802.55	2.45
333.15	0.2264	0.1329	810.61	2.48
323.15	0.2264	0.1329	818.5	2.5
313.15	0.2264	0.1329	826.24	2.53
303.11	0.2264	0.1329	833.85	2.55
343.15	0.1591	0.0934	795.93	2.43
333.15	0.1591	0.0934	804.14	2.46
323.15	0.1591	0.0934	812.15	2.48
313.15	0.1591	0.0934	820	2.51
303.15	0.1591	0.0934	827.7	2.53
343.15	0.1099	0.0645	789.17	2.41
333.15	0.1099	0.0645	797.46	2.44
323.15	0.1099	0.0645	805.55	2.46
313.15	0.1099	0.0645	813.45	2.49
303.15	0.1099	0.0645	821.21	2.51
343.15	0.0658	0.0386	782.17	2.39
333.15	0.0658	0.0386	790.55	2.42
323.15	0.0658	0.0386	798.69	2.44
313.15	0.0658	0.0386	806.63	2.47
303.15	0.0658	0.0386	814.42	2.49

System: butan-1-ol + 1,2,3-tri(cis-9-octadecenoyl)glycerol + tetradecanoic acid; phases: Liquid
Fixed: Pressure, kPa = 101.8
Property: Viscosity, Pa*s (Liquid); method: Falling or rolling sphere viscometry
Temperature, K	Mass fraction of 1,2,3-tri(cis-9-octadecenoyl)glycerol	Mass fraction of tetradecanoic acid	Viscosity, Pa*s	uncertainty
343.15	0.2264	0.1329	0.0017602	4.11e-05
333.15	0.2264	0.1329	0.0021671	5.06e-05
323.15	0.2264	0.1329	0.0027101	6.33e-05
313.15	0.2264	0.1329	0.0034607	8.09e-05
303.11	0.2264	0.1329	0.0045456	0.0001062
343.15	0.1591	0.0934	0.0014602	3.41e-05
333.15	0.1591	0.0934	0.0017879	4.17e-05
323.15	0.1591	0.0934	0.002223	5.19e-05
313.15	0.1591	0.0934	0.0028128	6.56e-05
303.15	0.1591	0.0934	0.0036314	8.47e-05
343.15	0.1099	0.0645	0.0012717	2.96e-05
333.15	0.1099	0.0645	0.0015575	3.63e-05
323.15	0.1099	0.0645	0.0019438	4.53e-05
313.15	0.1099	0.0645	0.0024631	5.74e-05
303.15	0.1099	0.0645	0.0031744	7.4e-05
343.15	0.0658	0.0386	0.0011263	2.62e-05
333.15	0.0658	0.0386	0.0013749	3.2e-05
323.15	0.0658	0.0386	0.0017062	3.97e-05
313.15	0.0658	0.0386	0.0021449	4.99e-05
303.15	0.0658	0.0386	0.0027495	6.4e-05

System: butan-1-ol + (Z)-9-octadecenoic acid + 1,2,3-propanetriyl tri(tetradecanoate); phases: Liquid
Fixed: Mass fraction of 1,2,3-propanetriyl tri(tetradecanoate) = 0.229
Fixed: Mass fraction of (Z)-9-octadecenoic acid = 0.1296
Fixed: Pressure, kPa = 101.8
Property: Mass density, kg/m3 (Liquid); method: Vibrating tube method
Temperature, K	Mass density, kg/m3	uncertainty
343.15	788.69	3.97
338.15	792.85	3.99
333.15	796.94	4.01
328.15	800.93	4.03
323.15	804.91	4.05
318.15	808.91	4.07

System: butan-1-ol + (Z)-9-octadecenoic acid + 1,2,3-propanetriyl tri(tetradecanoate); phases: Liquid
Fixed: Mass fraction of 1,2,3-propanetriyl tri(tetradecanoate) = 0.229
Fixed: Mass fraction of (Z)-9-octadecenoic acid = 0.1296
Fixed: Pressure, kPa = 101.9
Property: Viscosity, Pa*s (Liquid); method: Falling or rolling sphere viscometry
Temperature, K	Viscosity, Pa*s	uncertainty
343.15	0.0012698	2.97e-05
338.15	0.0014077	3.29e-05
333.15	0.0015614	3.65e-05
328.15	0.001736	4.06e-05
323.15	0.0019372	4.53e-05
318.15	0.0021754	5.08e-05

System: hexadecanoic acid + propan-1-ol + 1,2,3-propanetriol trioctanoate; phases: Liquid
Fixed: Pressure, kPa = 101.8
Property: Mass density, kg/m3 (Liquid); method: Vibrating tube method
Temperature, K	Mass fraction of 1,2,3-propanetriol trioctanoate	Mass fraction of hexadecanoic acid	Mass density, kg/m3	uncertainty
343.15	0.2193	0.1589	805.03	2.5
338.15	0.2193	0.1589	809.36	2.51
333.15	0.2193	0.1589	813.63	2.52
328.15	0.2193	0.1589	817.85	2.53
323.15	0.2193	0.1589	822.03	2.54
318.15	0.2193	0.1589	826.14	2.56
313.15	0.2193	0.1589	830.24	2.57
343.15	0.1583	0.1147	797.02	2.52
338.15	0.1583	0.1147	801.4	2.53
333.15	0.1583	0.1147	805.72	2.54
328.15	0.1583	0.1147	809.99	2.55
323.15	0.1583	0.1147	814.21	2.56
318.15	0.1583	0.1147	818.38	2.57
313.15	0.1583	0.1147	822.43	2.58
343.15	0.1086	0.0787	788.36	2.5
338.15	0.1086	0.0787	792.79	2.51
333.15	0.1086	0.0787	797.18	2.52
328.15	0.1086	0.0787	801.5	2.53
323.15	0.1086	0.0787	805.77	2.54
318.15	0.1086	0.0787	809.97	2.55
313.15	0.1086	0.0787	814.02	2.56
343.15	0.0649	0.047	780.54	2.47
338.15	0.0649	0.047	785.02	2.48
333.15	0.0649	0.047	789.43	2.5
328.15	0.0649	0.047	793.78	2.51
323.15	0.0649	0.047	798.06	2.52
318.15	0.0649	0.047	802.3	2.53
313.15	0.0649	0.047	806.48	2.54
343.15	0.0185	0.0134	768.09	2.56
338.15	0.0185	0.0134	772.62	2.58
333.15	0.0185	0.0134	777.08	2.59
328.15	0.0185	0.0134	781.46	2.6
323.15	0.0185	0.0134	785.78	2.61
318.15	0.0185	0.0134	790.04	2.62
313.15	0.0185	0.0134	794.24	2.63

System: hexadecanoic acid + propan-1-ol + 1,2,3-propanetriol trioctanoate; phases: Liquid
Fixed: Pressure, kPa = 101.8
Property: Viscosity, Pa*s (Liquid); method: Falling or rolling sphere viscometry
Temperature, K	Mass fraction of 1,2,3-propanetriol trioctanoate	Mass fraction of hexadecanoic acid	Viscosity, Pa*s	uncertainty
343.15	0.2193	0.1589	0.0013158	3.4e-05
338.15	0.2193	0.1589	0.0014455	3.75e-05
333.15	0.2193	0.1589	0.0015965	4.15e-05
328.15	0.2193	0.1589	0.001766	4.61e-05
323.15	0.2193	0.1589	0.001972	5.17e-05
318.15	0.2193	0.1589	0.0022142	5.85e-05
313.15	0.2193	0.1589	0.0025063	6.64e-05
343.15	0.1583	0.1147	0.0010937	2.61e-05
338.15	0.1583	0.1147	0.0012048	2.88e-05
333.15	0.1583	0.1147	0.0013267	3.18e-05
328.15	0.1583	0.1147	0.0014669	3.51e-05
323.15	0.1583	0.1147	0.0016279	3.89e-05
318.15	0.1583	0.1147	0.0018151	4.34e-05
313.15	0.1583	0.1147	0.0020315	4.83e-05
343.15	0.1086	0.0787	0.001029	2.65e-05
338.15	0.1086	0.0787	0.0011292	2.93e-05
333.15	0.1086	0.0787	0.0012453	3.24e-05
328.15	0.1086	0.0787	0.0013783	3.59e-05
323.15	0.1086	0.0787	0.0015316	4.01e-05
318.15	0.1086	0.0787	0.0017107	4.51e-05
313.15	0.1086	0.0787	0.001916	5.02e-05
343.15	0.0649	0.047	0.0009053	2.39e-05
338.15	0.0649	0.047	0.0009941	2.61e-05
333.15	0.0649	0.047	0.0010952	2.88e-05
328.15	0.0649	0.047	0.0012104	3.19e-05
323.15	0.0649	0.047	0.0013401	3.55e-05
318.15	0.0649	0.047	0.0014903	3.98e-05
313.15	0.0649	0.047	0.0016666	4.5e-05
343.15	0.0185	0.0134	0.0007967	2.08e-05
338.15	0.0185	0.0134	0.0008684	2.27e-05
333.15	0.0185	0.0134	0.0009572	2.51e-05
328.15	0.0185	0.0134	0.0010569	2.77e-05
323.15	0.0185	0.0134	0.0011747	3.07e-05
318.15	0.0185	0.0134	0.0013062	3.4e-05
313.15	0.0185	0.0134	0.0014572	3.84e-05

System: propan-1-ol + decanoic acid + 1,2,3-propanetriyl tridodecanoate; phases: Liquid
Fixed: Pressure, kPa = 101.8
Property: Mass density, kg/m3 (Liquid); method: Vibrating tube method
Temperature, K	Mass fraction of 1,2,3-propanetriyl tridodecanoate	Mass fraction of decanoic acid	Mass density, kg/m3	uncertainty
343.15	0.1592	0.093	788.48	2.44
338.15	0.1592	0.093	792.9	2.45
333.15	0.1592	0.093	797.24	2.46
328.15	0.1592	0.093	801.52	2.47
323.15	0.1592	0.093	805.76	2.48
318.15	0.1592	0.093	809.94	2.5
313.15	0.1592	0.093	814.06	2.51
343.15	0.1088	0.0636	782.64	2.55
338.15	0.1088	0.0636	787.09	2.56
333.15	0.1088	0.0636	791.45	2.57
328.15	0.1088	0.0636	795.78	2.58
323.15	0.1088	0.0636	800.03	2.59
318.15	0.1088	0.0636	804.24	2.6
313.15	0.1088	0.0636	808.37	2.61
343.15	0.066	0.0386	772.73	2.42
338.15	0.066	0.0386	777.2	2.43
333.15	0.066	0.0386	781.61	2.45
328.15	0.066	0.0386	785.96	2.46
323.15	0.066	0.0386	790.24	2.47
318.15	0.066	0.0386	794.46	2.48
313.15	0.066	0.0386	798.64	2.5
343.15	0.0329	0.0192	767.63	2.41
338.15	0.0329	0.0192	772.13	2.42
333.15	0.0329	0.0192	776.56	2.43
328.15	0.0329	0.0192	780.91	2.45
323.15	0.0329	0.0192	785.19	2.46
318.15	0.0329	0.0192	789.42	2.47
313.15	0.0329	0.0192	793.59	2.48
308.15	0.0329	0.0192	797.69	2.49

System: propan-1-ol + decanoic acid + 1,2,3-propanetriyl tridodecanoate; phases: Liquid
Fixed: Pressure, kPa = 101.8
Property: Viscosity, Pa*s (Liquid); method: Falling or rolling sphere viscometry
Temperature, K	Mass fraction of 1,2,3-propanetriyl tridodecanoate	Mass fraction of decanoic acid	Viscosity, Pa*s	uncertainty
343.15	0.1592	0.093	0.0010499	2.56e-05
338.15	0.1592	0.093	0.0011858	2.93e-05
333.15	0.1592	0.093	0.0012741	3.16e-05
328.15	0.1592	0.093	0.0014099	3.47e-05
323.15	0.1592	0.093	0.001567	3.87e-05
318.15	0.1592	0.093	0.001749	4.33e-05
313.15	0.1592	0.093	0.0019583	4.83e-05
343.15	0.1088	0.0636	0.0009564	2.52e-05
338.15	0.1088	0.0636	0.0010501	2.79e-05
333.15	0.1088	0.0636	0.0011554	3.08e-05
328.15	0.1088	0.0636	0.0012776	3.41e-05
323.15	0.1088	0.0636	0.0014158	3.79e-05
318.15	0.1088	0.0636	0.0015777	4.23e-05
313.15	0.1088	0.0636	0.0017602	4.69e-05
343.15	0.066	0.0386	0.0008304	2.02e-05
338.15	0.066	0.0386	0.0009105	2.22e-05
333.15	0.066	0.0386	0.0010011	2.44e-05
328.15	0.066	0.0386	0.0011056	2.7e-05
323.15	0.066	0.0386	0.0012238	2.99e-05
318.15	0.066	0.0386	0.0013601	3.32e-05
313.15	0.066	0.0386	0.0015171	3.68e-05
343.15	0.0329	0.0192	0.0007835	1.91e-05
338.15	0.0329	0.0192	0.0008591	2.08e-05
333.15	0.0329	0.0192	0.0009451	2.29e-05
328.15	0.0329	0.0192	0.0010432	2.53e-05
323.15	0.0329	0.0192	0.0011554	2.79e-05
318.15	0.0329	0.0192	0.0012849	3.11e-05
313.15	0.0329	0.0192	0.0014323	3.46e-05
308.15	0.0329	0.0192	0.001603	3.87e-05

System: propan-1-ol + dodecanoic acid + 1,2,3-propanetriyl tridecanoate; phases: Liquid
Fixed: Pressure, kPa = 101.8
Property: Mass density, kg/m3 (Liquid); method: Vibrating tube method
Temperature, K	Mass fraction of 1,2,3-propanetriyl tridecanoate	Mass fraction of dodecanoic acid	Mass density, kg/m3	uncertainty
343.15	0.2239	0.1352	799.37	2.47
333.15	0.2239	0.1352	807.97	2.5
323.15	0.2239	0.1352	816.35	2.52
313.15	0.2239	0.1352	824.55	2.54
303.15	0.2239	0.1352	832.61	2.57
293.15	0.2239	0.1352	840.52	2.59
343.15	0.1592	0.0961	791.38	2.48
333.15	0.1592	0.0961	800.14	2.5
323.15	0.1592	0.0961	808.65	2.52
313.15	0.1592	0.0961	816.96	2.55
303.15	0.1592	0.0961	825.13	2.57
293.15	0.1592	0.0961	833.12	2.6
343.15	0.106	0.064	783.19	2.48
333.15	0.106	0.064	792.02	2.5
323.15	0.106	0.064	800.59	2.53
313.15	0.106	0.064	808.94	2.55
303.15	0.106	0.064	817.13	2.58
293.15	0.106	0.064	825.16	2.6
343.15	0.0634	0.0383	775.45	2.44
333.15	0.0634	0.0383	784.34	2.46
323.15	0.0634	0.0383	792.94	2.48
313.15	0.0634	0.0383	801.34	2.51
303.15	0.0634	0.0383	809.55	2.53
293.15	0.0634	0.0383	817.59	2.55
343.15	0.033	0.0199	770.6	2.42
333.15	0.033	0.0199	779.55	2.45
323.15	0.033	0.0199	788.2	2.47
313.15	0.033	0.0199	796.62	2.49
303.15	0.033	0.0199	804.92	2.52
293.15	0.033	0.0199	812.99	2.54

System: propan-1-ol + dodecanoic acid + 1,2,3-propanetriyl tridecanoate; phases: Liquid
Fixed: Pressure, kPa = 101.8
Property: Viscosity, Pa*s (Liquid); method: Falling or rolling sphere viscometry
Temperature, K	Mass fraction of 1,2,3-propanetriyl tridecanoate	Mass fraction of dodecanoic acid	Viscosity, Pa*s	uncertainty
343.15	0.2239	0.1352	0.0013429	3.64e-05
333.15	0.2239	0.1352	0.0015658	4.21e-05
323.15	0.2239	0.1352	0.0019041	5.21e-05
313.15	0.2239	0.1352	0.0025205	6.79e-05
303.15	0.2239	0.1352	0.0030476	8.04e-05
293.15	0.2239	0.1352	0.0037156	9.19e-05
343.15	0.1592	0.0961	0.0010464	2.58e-05
333.15	0.1592	0.0961	0.0012674	3.19e-05
323.15	0.1592	0.0961	0.0015579	3.96e-05
313.15	0.1592	0.0961	0.0019429	5.01e-05
303.15	0.1592	0.0961	0.0024922	6.47e-05
293.15	0.1592	0.0961	0.0032298	8.04e-05
343.15	0.106	0.064	0.0009364	2.29e-05
333.15	0.106	0.064	0.0011313	2.83e-05
323.15	0.106	0.064	0.001381	3.47e-05
313.15	0.106	0.064	0.0017127	4.35e-05
303.15	0.106	0.064	0.0021774	5.57e-05
293.15	0.106	0.064	0.0028569	7.03e-05
343.15	0.0634	0.0383	0.000862	2.13e-05
333.15	0.0634	0.0383	0.0010415	2.69e-05
323.15	0.0634	0.0383	0.0012714	3.31e-05
313.15	0.0634	0.0383	0.0015731	4.18e-05
303.15	0.0634	0.0383	0.0020047	5.41e-05
293.15	0.0634	0.0383	0.0026177	6.89e-05
343.15	0.033	0.0199	0.0008072	2.01e-05
333.15	0.033	0.0199	0.0009701	2.37e-05
323.15	0.033	0.0199	0.0011822	2.89e-05
313.15	0.033	0.0199	0.0014642	3.54e-05
303.15	0.033	0.0199	0.0018568	4.54e-05
293.15	0.033	0.0199	0.0023731	6.39e-05

System: octadecanoic acid + propan-1-ol + trilinolein; phases: Liquid
Fixed: Pressure, kPa = 101.8
Property: Mass density, kg/m3 (Liquid); method: Vibrating tube method
Temperature, K	Mass fraction of trilinolein	Mass fraction of octadecanoic acid	Mass density, kg/m3	uncertainty
343.15	0.2403	0.063	797.05	2.44
338.15	0.2403	0.063	801.32	2.45
333.15	0.2403	0.063	805.54	2.46
328.15	0.2403	0.063	809.69	2.48
323.15	0.2403	0.063	813.76	2.49
343.15	0.1597	0.0418	785.33	2.4
338.15	0.1597	0.0418	789.67	2.42
333.15	0.1597	0.0418	793.93	2.43
328.15	0.1597	0.0418	798.18	2.44
323.15	0.1597	0.0418	802.33	2.45
343.15	0.06	0.0157	771.19	2.36
338.15	0.06	0.0157	775.64	2.37
333.15	0.06	0.0157	780.02	2.39
328.15	0.06	0.0157	784.32	2.4
323.15	0.06	0.0157	788.57	2.41
318.15	0.06	0.0157	792.76	2.42

System: octadecanoic acid + propan-1-ol + trilinolein; phases: Liquid
Fixed: Pressure, kPa = 101.8
Property: Viscosity, Pa*s (Liquid); method: Falling or rolling sphere viscometry
Temperature, K	Mass fraction of trilinolein	Mass fraction of octadecanoic acid	Viscosity, Pa*s	uncertainty
343.15	0.2403	0.063	0.0013997	3.27e-05
338.15	0.2403	0.063	0.0015395	3.6e-05
333.15	0.2403	0.063	0.0017027	3.98e-05
328.15	0.2403	0.063	0.0018897	4.41e-05
323.15	0.2403	0.063	0.0021035	4.91e-05
343.15	0.1597	0.0418	0.0011424	2.66e-05
338.15	0.1597	0.0418	0.0012912	3.01e-05
333.15	0.1597	0.0418	0.0014293	3.33e-05
328.15	0.1597	0.0418	0.0015796	3.68e-05
323.15	0.1597	0.0418	0.0017497	4.08e-05
343.15	0.06	0.0157	0.0008726	2.03e-05
338.15	0.06	0.0157	0.0009507	2.21e-05
333.15	0.06	0.0157	0.0010462	2.44e-05
328.15	0.06	0.0157	0.0011574	2.7e-05
323.15	0.06	0.0157	0.0012813	2.98e-05
318.15	0.06	0.0157	0.0014233	3.31e-05

System: propan-1-ol + octanoic acid + 1,2,3-propanetriyl tri(hexadecanoate); phases: Liquid
Fixed: Pressure, kPa = 101.8
Property: Mass density, kg/m3 (Liquid); method: Vibrating tube method
Temperature, K	Mass fraction of 1,2,3-propanetriyl tri(hexadecanoate)	Mass fraction of octanoic acid	Mass density, kg/m3	uncertainty
343.15	0.0396	0.0235	772.12	2.36
338.15	0.0396	0.0235	776.59	2.37
333.15	0.0396	0.0235	780.98	2.39
328.15	0.0396	0.0235	785.28	2.4
343.15	0.0205	0.0122	767.22	2.35
338.15	0.0205	0.0122	771.72	2.36
333.15	0.0205	0.0122	776.12	2.37
328.15	0.0205	0.0122	780.47	2.39

System: propan-1-ol + octanoic acid + 1,2,3-propanetriyl tri(hexadecanoate); phases: Liquid
Fixed: Pressure, kPa = 101.8
Property: Viscosity, Pa*s (Liquid); method: Falling or rolling sphere viscometry
Temperature, K	Mass fraction of 1,2,3-propanetriyl tri(hexadecanoate)	Mass fraction of octanoic acid	Viscosity, Pa*s	uncertainty
343.15	0.0396	0.0235	0.0008586	2e-05
338.15	0.0396	0.0235	0.0009447	2.2e-05
333.15	0.0396	0.0235	0.0010415	2.42e-05
328.15	0.0396	0.0235	0.0011448	2.67e-05
343.15	0.0205	0.0122	0.0008008	1.86e-05
338.15	0.0205	0.0122	0.0008752	2.04e-05
333.15	0.0205	0.0122	0.0009506	2.21e-05
328.15	0.0205	0.0122	0.0010585	2.46e-05

System: propan-1-ol + 1,2,3-tri(cis-9-octadecenoyl)glycerol + tetradecanoic acid; phases: Liquid
Fixed: Pressure, kPa = 101.8
Property: Mass density, kg/m3 (Liquid); method: Vibrating tube method
Temperature, K	Mass fraction of 1,2,3-tri(cis-9-octadecenoyl)glycerol	Mass fraction of tetradecanoic acid	Mass density, kg/m3	uncertainty
343.15	0.2185	0.1526	797.87	2.46
333.15	0.2185	0.1526	806.27	2.48
323.15	0.2185	0.1526	814.46	2.5
313.15	0.2185	0.1526	822.45	2.53
303.15	0.2185	0.1526	830.31	2.55
343.15	0.1553	0.1085	791.01	2.45
333.15	0.1553	0.1085	799.59	2.48
323.15	0.1553	0.1085	807.94	2.5
313.15	0.1553	0.1085	816.09	2.53
303.15	0.1553	0.1085	824.09	2.55
343.15	0.1049	0.0733	784.54	2.53
333.15	0.1049	0.0733	793.24	2.54
323.15	0.1049	0.0733	801.68	2.56
313.15	0.1049	0.0733	809.43	2.57
303.15	0.1049	0.0733	817.5	2.59
343.15	0.0643	0.0449	775.93	2.49
333.15	0.0643	0.0449	784.74	2.51
323.15	0.0643	0.0449	793.28	2.54
313.15	0.0643	0.0449	801.61	2.56
303.15	0.0643	0.0449	809.76	2.58
293.15	0.0643	0.0449	817.75	2.6
343.15	0.0321	0.0224	769.3	2.47
333.15	0.0321	0.0224	778.17	2.5
323.15	0.0321	0.0224	786.75	2.52
313.15	0.0321	0.0224	795.11	2.54
303.15	0.0321	0.0224	803.3	2.57
293.15	0.0321	0.0224	811.33	2.59

System: propan-1-ol + 1,2,3-tri(cis-9-octadecenoyl)glycerol + tetradecanoic acid; phases: Liquid
Fixed: Pressure, kPa = 101.8
Property: Viscosity, Pa*s (Liquid); method: Falling or rolling sphere viscometry
Temperature, K	Mass fraction of 1,2,3-tri(cis-9-octadecenoyl)glycerol	Mass fraction of tetradecanoic acid	Viscosity, Pa*s	uncertainty
343.15	0.2185	0.1526	0.0015006	3.85e-05
333.15	0.2185	0.1526	0.001959	5.36e-05
323.15	0.2185	0.1526	0.0024243	6.89e-05
313.15	0.2185	0.1526	0.0031085	9.02e-05
303.15	0.2185	0.1526	0.0040569	0.0001159
343.15	0.1553	0.1085	0.0012501	3.24e-05
333.15	0.1553	0.1085	0.0015204	4.07e-05
323.15	0.1553	0.1085	0.0018778	5.07e-05
313.15	0.1553	0.1085	0.0023534	6.43e-05
303.15	0.1553	0.1085	0.0030046	7.94e-05
343.15	0.1049	0.0733	0.0010729	2.9e-05
333.15	0.1049	0.0733	0.0012977	3.63e-05
323.15	0.1049	0.0733	0.0015959	4.51e-05
313.15	0.1049	0.0733	0.0019909	5.72e-05
303.15	0.1049	0.0733	0.0025349	7.05e-05
343.15	0.0643	0.0449	0.0009246	2.42e-05
333.15	0.0643	0.0449	0.0011187	3.06e-05
323.15	0.0643	0.0449	0.0013699	3.79e-05
313.15	0.0643	0.0449	0.0017012	4.75e-05
303.15	0.0643	0.0449	0.0021443	6.05e-05
293.15	0.0643	0.0449	0.0027488	7.34e-05
343.15	0.0321	0.0224	0.0008359	2.24e-05
333.15	0.0321	0.0224	0.0010082	2.62e-05
323.15	0.0321	0.0224	0.0012326	3.2e-05
313.15	0.0321	0.0224	0.0015282	3.96e-05
303.15	0.0321	0.0224	0.001923	4.97e-05
293.15	0.0321	0.0224	0.0024604	6.75e-05

System: propan-1-ol + (Z)-9-octadecenoic acid + 1,2,3-propanetriyl tri(tetradecanoate); phases: Liquid
Fixed: Pressure, kPa = 101.8
Property: Mass density, kg/m3 (Liquid); method: Vibrating tube method
Temperature, K	Mass fraction of 1,2,3-propanetriyl tri(tetradecanoate)	Mass fraction of (Z)-9-octadecenoic acid	Mass density, kg/m3	uncertainty
343.15	0.0976	0.058	779.95	2.39
333.15	0.0976	0.058	788.66	2.41
323.15	0.0976	0.058	797.13	2.44
313.15	0.0976	0.058	805.39	2.46
343.15	0.0599	0.0356	774.26	2.37
333.15	0.0599	0.0356	783.08	2.39
323.15	0.0599	0.0356	791.62	2.42
313.15	0.0599	0.0356	799.94	2.45

System: propan-1-ol + (Z)-9-octadecenoic acid + 1,2,3-propanetriyl tri(tetradecanoate); phases: Liquid
Fixed: Pressure, kPa = 101.8
Property: Viscosity, Pa*s (Liquid); method: Falling or rolling sphere viscometry
Temperature, K	Mass fraction of 1,2,3-propanetriyl tri(tetradecanoate)	Mass fraction of (Z)-9-octadecenoic acid	Viscosity, Pa*s	uncertainty
343.15	0.0976	0.058	0.0009939	2.32e-05
333.15	0.0976	0.058	0.001205	2.81e-05
323.15	0.0976	0.058	0.001482	3.45e-05
313.15	0.0976	0.058	0.0018474	4.3e-05
343.15	0.0599	0.0356	0.000895	2.09e-05
333.15	0.0599	0.0356	0.0010836	2.52e-05
323.15	0.0599	0.0356	0.0013287	3.09e-05
313.15	0.0599	0.0356	0.0016478	3.84e-05

System: propan-2-ol + dodecanoic acid + 1,2,3-propanetriyl tridecanoate; phases: Liquid
Fixed: Pressure, kPa = 101.8
Property: Mass density, kg/m3 (Liquid); method: Vibrating tube method
Temperature, K	Mass fraction of 1,2,3-propanetriyl tridecanoate	Mass fraction of dodecanoic acid	Mass density, kg/m3	uncertainty
333.15	0.1704	0.1514	789.31	2.41
328.15	0.1704	0.1514	793.91	2.43
323.15	0.1704	0.1514	798.43	2.44
318.15	0.1704	0.1514	802.88	2.45
313.15	0.1704	0.1514	807.26	2.47
308.15	0.1704	0.1514	811.57	2.48
303.15	0.1704	0.1514	815.82	2.49
333.15	0.0947	0.0841	785.12	2.4
328.15	0.0947	0.0841	789.78	2.41
323.15	0.0947	0.0841	794.36	2.43
318.15	0.0947	0.0841	798.85	2.44
313.15	0.0947	0.0841	803.28	2.45
308.15	0.0947	0.0841	807.64	2.47
303.15	0.0947	0.0841	811.9	2.48

System: propan-2-ol + dodecanoic acid + 1,2,3-propanetriyl tridecanoate; phases: Liquid
Fixed: Pressure, kPa = 101.8
Property: Viscosity, Pa*s (Liquid); method: Falling or rolling sphere viscometry
Temperature, K	Mass fraction of 1,2,3-propanetriyl tridecanoate	Mass fraction of dodecanoic acid	Viscosity, Pa*s	uncertainty
333.15	0.1704	0.1514	0.0013507	3.14e-05
328.15	0.1704	0.1514	0.0015086	3.51e-05
323.15	0.1704	0.1514	0.0016938	3.94e-05
318.15	0.1704	0.1514	0.0019141	4.45e-05
313.15	0.1704	0.1514	0.0021768	5.06e-05
308.15	0.1704	0.1514	0.0024866	5.78e-05
303.15	0.1704	0.1514	0.0028576	6.64e-05
333.15	0.0947	0.0841	0.0011858	2.75e-05
328.15	0.0947	0.0841	0.0013246	3.07e-05
323.15	0.0947	0.0841	0.0014882	3.45e-05
318.15	0.0947	0.0841	0.0016798	3.9e-05
313.15	0.0947	0.0841	0.0019065	4.42e-05
308.15	0.0947	0.0841	0.0021748	5.04e-05
303.15	0.0947	0.0841	0.002491	5.78e-05

System: hexadecanoic acid + propan-2-ol + 1,2,3-propanetriol trioctanoate; phases: Liquid
Fixed: Pressure, kPa = 101.8
Property: Mass density, kg/m3 (Liquid); method: Vibrating tube method
Temperature, K	Mass fraction of 1,2,3-propanetriol trioctanoate	Mass fraction of hexadecanoic acid	Mass density, kg/m3	uncertainty
333.15	0.3165	0.2259	821.76	2.51
328.15	0.3165	0.2259	826.12	2.53
323.15	0.3165	0.2259	830.44	2.54
318.15	0.3165	0.2259	834.71	2.55
313.15	0.3165	0.2259	838.94	2.56
308.15	0.3165	0.2259	843.14	2.58
333.15	0.1621	0.1158	798.43	2.44
328.15	0.1621	0.1158	803.01	2.45
323.15	0.1621	0.1158	807.51	2.47
318.15	0.1621	0.1158	811.95	2.48
313.15	0.1621	0.1158	816.32	2.49
308.15	0.1621	0.1158	820.63	2.51
303.15	0.1621	0.1158	824.86	2.52
333.15	0.0807	0.0576	778.83	2.38
323.15	0.0807	0.0576	788.18	2.41
313.15	0.0807	0.0576	797.18	2.44
303.15	0.0807	0.0576	805.88	2.46
293.15	0.0807	0.0576	814.34	2.49
333.15	0.0414	0.0295	770.16	2.35
323.15	0.0414	0.0295	779.62	2.38
313.15	0.0414	0.0295	788.72	2.41
303.15	0.0414	0.0295	797.49	2.44
293.15	0.0414	0.0295	805.97	2.46
333.15	0.01829	0.013	757.8	2.32
323.15	0.01829	0.013	767.43	2.35
313.15	0.01829	0.013	776.64	2.37
303.15	0.01829	0.013	785.49	2.4
293.15	0.01829	0.013	794.04	2.43

System: hexadecanoic acid + propan-2-ol + 1,2,3-propanetriol trioctanoate; phases: Liquid
Fixed: Pressure, kPa = 101.8
Property: Viscosity, Pa*s (Liquid); method: Falling or rolling sphere viscometry
Temperature, K	Mass fraction of 1,2,3-propanetriol trioctanoate	Mass fraction of hexadecanoic acid	Viscosity, Pa*s	uncertainty
333.15	0.3165	0.2259	0.0020942	4.89e-05
328.15	0.3165	0.2259	0.0023429	5.47e-05
323.15	0.3165	0.2259	0.002639	6.16e-05
318.15	0.3165	0.2259	0.0029897	6.98e-05
313.15	0.3165	0.2259	0.0031861	7.44e-05
308.15	0.3165	0.2259	0.0036336	8.48e-05
333.15	0.1621	0.1158	0.0014867	3.45e-05
328.15	0.1621	0.1158	0.0016589	3.85e-05
323.15	0.1621	0.1158	0.00186	4.32e-05
318.15	0.1621	0.1158	0.0021053	4.89e-05
313.15	0.1621	0.1158	0.0023961	5.56e-05
308.15	0.1621	0.1158	0.002734	6.35e-05
303.15	0.1621	0.1158	0.0031456	7.3e-05
333.15	0.0807	0.0576	0.0011461	2.66e-05
323.15	0.0807	0.0576	0.0014381	3.33e-05
313.15	0.0807	0.0576	0.0018396	4.26e-05
303.15	0.0807	0.0576	0.0024056	5.57e-05
293.15	0.0807	0.0576	0.0032283	7.48e-05
333.15	0.0414	0.0295	0.0009778	2.27e-05
323.15	0.0414	0.0295	0.0012279	2.84e-05
313.15	0.0414	0.0295	0.0015747	3.65e-05
303.15	0.0414	0.0295	0.0020608	4.77e-05
293.15	0.0414	0.0295	0.0027569	6.38e-05
333.15	0.01829	0.013	0.000873	2.02e-05
323.15	0.01829	0.013	0.0011023	2.55e-05
313.15	0.01829	0.013	0.0014481	3.35e-05
303.15	0.01829	0.013	0.0018773	4.35e-05
293.15	0.01829	0.013	0.0025357	5.87e-05

System: propan-2-ol + decanoic acid + 1,2,3-propanetriyl tridodecanoate; phases: Liquid
Fixed: Pressure, kPa = 101.8
Property: Mass density, kg/m3 (Liquid); method: Vibrating tube method
Temperature, K	Mass fraction of 1,2,3-propanetriyl tridodecanoate	Mass fraction of decanoic acid	Mass density, kg/m3	uncertainty
338.15	0.0848	0.0559	753.4	2.32
333.15	0.0848	0.0559	758.35	2.34
328.15	0.0848	0.0559	763.19	2.35
323.15	0.0848	0.0559	767.91	2.36
318.15	0.0848	0.0559	772.54	2.38
313.15	0.0848	0.0559	777.07	2.39
343.15	0.061	0.0397	745.69	2.28
338.15	0.061	0.0397	750.81	2.32
333.15	0.061	0.0397	755.81	2.33
328.15	0.061	0.0397	760.68	2.34
323.15	0.061	0.0397	765.45	2.36
318.15	0.061	0.0397	770.11	2.37
313.15	0.061	0.0397	774.67	2.38
308.15	0.061	0.0397	779.14	2.4
343.15	0.0233	0.0152	741.6	2.29
333.15	0.0233	0.0152	751.75	2.32
323.15	0.0233	0.0152	761.39	2.35
313.15	0.0233	0.0152	770.59	2.38
303.15	0.0233	0.0152	779.41	2.4

System: propan-2-ol + decanoic acid + 1,2,3-propanetriyl tridodecanoate; phases: Liquid
Fixed: Pressure, kPa = 101.8
Property: Viscosity, Pa*s (Liquid); method: Falling or rolling sphere viscometry
Temperature, K	Mass fraction of 1,2,3-propanetriyl tridodecanoate	Mass fraction of decanoic acid	Viscosity, Pa*s	uncertainty
338.15	0.0848	0.0559	0.0007746	1.8e-05
333.15	0.0848	0.0559	0.0008618	2e-05
328.15	0.0848	0.0559	0.0009634	2.23e-05
323.15	0.0848	0.0559	0.0010856	2.52e-05
318.15	0.0848	0.0559	0.0012263	2.84e-05
313.15	0.0848	0.0559	0.0013865	3.21e-05
343.15	0.061	0.0397	0.0007003	1.62e-05
338.15	0.061	0.0397	0.0007762	1.8e-05
333.15	0.061	0.0397	0.0008642	2e-05
328.15	0.061	0.0397	0.0009664	2.24e-05
323.15	0.061	0.0397	0.0010845	2.51e-05
318.15	0.061	0.0397	0.0012266	2.84e-05
313.15	0.061	0.0397	0.0013937	3.23e-05
308.15	0.061	0.0397	0.0015927	3.69e-05
343.15	0.0233	0.0152	0.0006563	1.52e-05
333.15	0.0233	0.0152	0.0008122	1.88e-05
323.15	0.0233	0.0152	0.0010258	2.38e-05
313.15	0.0233	0.0152	0.0013228	3.06e-05
303.15	0.0233	0.0152	0.001739	4.03e-05

System: propan-2-ol + 1,2,3-tri(cis-9-octadecenoyl)glycerol + tetradecanoic acid; phases: Liquid
Fixed: Pressure, kPa = 101.8
Property: Mass density, kg/m3 (Liquid); method: Vibrating tube method
Temperature, K	Mass fraction of 1,2,3-tri(cis-9-octadecenoyl)glycerol	Mass fraction of tetradecanoic acid	Mass density, kg/m3	uncertainty
323.15	0.3185	0.2268	821.49	2.51
318.15	0.3185	0.2268	825.62	2.52
313.15	0.3185	0.2268	829.72	2.54
308.15	0.3185	0.2268	833.77	2.55
303.15	0.3185	0.2268	837.78	2.56
298.15	0.3185	0.2268	841.76	2.57
333.15	0.2182	0.1554	796.48	2.44
323.15	0.2182	0.1554	805.28	2.46
313.15	0.2182	0.1554	813.83	2.49
303.15	0.2182	0.1554	822.14	2.51
293.15	0.2182	0.1554	830.26	2.54
343.15	0.1656	0.1179	779.03	2.38
333.15	0.1656	0.1179	788.26	2.41
323.15	0.1656	0.1179	797.25	2.44
313.15	0.1656	0.1179	805.8	2.46
303.15	0.1656	0.1179	814.19	2.49
293.15	0.1656	0.1179	822.4	2.51
343.15	0.0968	0.069	764.57	2.34
333.15	0.0968	0.069	774.22	2.37
323.15	0.0968	0.069	783.49	2.39
313.15	0.0968	0.069	792.42	2.42
303.15	0.0968	0.069	801.05	2.45
293.15	0.0968	0.069	809.4	2.47
343.15	0.0327	0.0233	749.84	2.29
333.15	0.0327	0.0233	759.82	2.32
323.15	0.0327	0.0233	769.34	2.35
313.15	0.0327	0.0233	778.46	2.38
303.15	0.0327	0.0233	787.24	2.41
293.15	0.0327	0.0233	795.7	2.43

System: propan-2-ol + 1,2,3-tri(cis-9-octadecenoyl)glycerol + tetradecanoic acid; phases: Liquid
Fixed: Pressure, kPa = 101.8
Property: Viscosity, Pa*s (Liquid); method: Falling or rolling sphere viscometry
Temperature, K	Mass fraction of 1,2,3-tri(cis-9-octadecenoyl)glycerol	Mass fraction of tetradecanoic acid	Viscosity, Pa*s	uncertainty
323.15	0.3185	0.2268	0.0033761	7.88e-05
318.15	0.3185	0.2268	0.0038476	8.98e-05
313.15	0.3185	0.2268	0.0044247	0.0001033
308.15	0.3185	0.2268	0.0051181	0.0001195
303.15	0.3185	0.2268	0.0059526	0.0001389
298.15	0.3185	0.2268	0.0069941	0.0001633
333.15	0.2182	0.1554	0.001827	4.25e-05
323.15	0.2182	0.1554	0.0023125	5.38e-05
313.15	0.2182	0.1554	0.0029983	6.97e-05
303.15	0.2182	0.1554	0.0039824	9.26e-05
293.15	0.2182	0.1554	0.0054688	0.0001272
343.15	0.1656	0.1179	0.0013119	3.05e-05
333.15	0.1656	0.1179	0.0016259	3.78e-05
323.15	0.1656	0.1179	0.0020542	4.77e-05
313.15	0.1656	0.1179	0.0026538	6.16e-05
303.15	0.1656	0.1179	0.0035182	8.17e-05
293.15	0.1656	0.1179	0.0048043	0.0001116
343.15	0.0968	0.069	0.0009614	2.23e-05
333.15	0.0968	0.069	0.0011915	2.76e-05
323.15	0.0968	0.069	0.0014944	3.46e-05
313.15	0.0968	0.069	0.0019203	4.45e-05
303.15	0.0968	0.069	0.0025203	5.84e-05
293.15	0.0968	0.069	0.0033925	7.86e-05
343.15	0.0327	0.0233	0.0007473	1.73e-05
333.15	0.0327	0.0233	0.0009199	2.13e-05
323.15	0.0327	0.0233	0.0011559	2.68e-05
313.15	0.0327	0.0233	0.0014819	3.43e-05
303.15	0.0327	0.0233	0.001941	4.49e-05
293.15	0.0327	0.0233	0.0026032	6.03e-05

System: propan-2-ol + (Z)-9-octadecenoic acid + 1,2,3-propanetriyl tri(tetradecanoate); phases: Liquid
Fixed: Pressure, kPa = 101.8
Property: Mass density, kg/m3 (Liquid); method: Vibrating tube method
Temperature, K	Mass fraction of 1,2,3-propanetriyl tri(tetradecanoate)	Mass fraction of (Z)-9-octadecenoic acid	Mass density, kg/m3	uncertainty
343.15	0.1341	0.0938	771.92	2.36
338.15	0.1341	0.0938	776.71	2.37
333.15	0.1341	0.0938	781.38	2.39
328.15	0.1341	0.0938	785.97	2.4
323.15	0.1341	0.0938	790.47	2.42
343.15	0.0627	0.0438	761.24	2.33
338.15	0.0627	0.0438	766.16	2.34
333.15	0.0627	0.0438	770.97	2.36
328.15	0.0627	0.0438	775.67	2.37
323.15	0.0627	0.0438	780.25	2.38
343.15	0.0286	0.02	751.27	2.3
338.15	0.0286	0.02	756.33	2.31
333.15	0.0286	0.02	761.25	2.33
328.15	0.0286	0.02	766.06	2.34
323.15	0.0286	0.02	770.76	2.36
318.15	0.0286	0.02	775.35	2.37

System: propan-2-ol + (Z)-9-octadecenoic acid + 1,2,3-propanetriyl tri(tetradecanoate); phases: Liquid
Fixed: Pressure, kPa = 101.8
Property: Viscosity, Pa*s (Liquid); method: Falling or rolling sphere viscometry
Temperature, K	Mass fraction of 1,2,3-propanetriyl tri(tetradecanoate)	Mass fraction of (Z)-9-octadecenoic acid	Viscosity, Pa*s	uncertainty
343.15	0.1341	0.0938	0.0014244	3.31e-05
338.15	0.1341	0.0938	0.0015922	3.69e-05
333.15	0.1341	0.0938	0.0017673	4.1e-05
328.15	0.1341	0.0938	0.001982	4.6e-05
323.15	0.1341	0.0938	0.0022282	5.17e-05
343.15	0.0627	0.0438	0.0009302	2.16e-05
338.15	0.0627	0.0438	0.001034	2.4e-05
333.15	0.0627	0.0438	0.0011522	2.67e-05
328.15	0.0627	0.0438	0.0012917	2.99e-05
323.15	0.0627	0.0438	0.0014492	3.36e-05
343.15	0.0286	0.02	0.0007809	1.81e-05
338.15	0.0286	0.02	0.0008677	2.01e-05
333.15	0.0286	0.02	0.0009679	2.24e-05
328.15	0.0286	0.02	0.0010852	2.51e-05
323.15	0.0286	0.02	0.0012225	2.83e-05
318.15	0.0286	0.02	0.0013766	3.19e-05

System: propan-2-ol + octanoic acid + 1,2,3-propanetriyl tri(hexadecanoate); phases: Liquid
Fixed: Pressure, kPa = 101.8
Property: Mass density, kg/m3 (Liquid); method: Vibrating tube method
Temperature, K	Mass fraction of 1,2,3-propanetriyl tri(hexadecanoate)	Mass fraction of octanoic acid	Mass density, kg/m3	uncertainty
343.15	0.0853	0.0614	756.17	2.31
338.15	0.0853	0.0614	761.16	2.33
333.15	0.0853	0.0614	766.04	2.34
328.15	0.0853	0.0614	770.77	2.36
343.15	0.033	0.0237	749.34	2.29
338.15	0.033	0.0237	754.41	2.31
333.15	0.033	0.0237	759.35	2.32
328.15	0.033	0.0237	764.16	2.34

System: propan-2-ol + octanoic acid + 1,2,3-propanetriyl tri(hexadecanoate); phases: Liquid
Fixed: Pressure, kPa = 101.8
Property: Viscosity, Pa*s (Liquid); method: Falling or rolling sphere viscometry
Temperature, K	Mass fraction of 1,2,3-propanetriyl tri(hexadecanoate)	Mass fraction of octanoic acid	Viscosity, Pa*s	uncertainty
343.15	0.0853	0.0614	0.0008179	1.9e-05
338.15	0.0853	0.0614	0.0009083	2.11e-05
333.15	0.0853	0.0614	0.0010132	2.35e-05
328.15	0.0853	0.0614	0.0011504	2.67e-05
343.15	0.033	0.0237	0.0007698	1.78e-05
338.15	0.033	0.0237	0.0008568	1.99e-05
333.15	0.033	0.0237	0.0009474	2.19e-05
328.15	0.033	0.0237	0.0010717	2.48e-05

System: (Z,Z)-9,12-octadecadienoic acid + ethanol + 1,2,3-propanetriol trioctanoate; phases: Liquid
Fixed: Pressure, kPa = 101.8
Property: Mass density, kg/m3 (Liquid); method: Vibrating tube method
Temperature, K	Mass fraction of 1,2,3-propanetriol trioctanoate	Mass fraction of (Z,Z)-9,12-octadecadienoic acid	Mass density, kg/m3	uncertainty
343.15	0.2563	0.2555	815.25	2.49
333.15	0.2563	0.2555	823.91	2.52
323.15	0.2563	0.2555	832.38	2.54
313.15	0.2563	0.2555	840.69	2.57
303.15	0.2563	0.2555	848.91	2.59
293.15	0.2563	0.2555	857.02	2.62
333.15	0.1569	0.1889	805.01	2.46
323.15	0.1569	0.1889	813.73	2.49
313.15	0.1569	0.1889	822.25	2.51
303.15	0.1569	0.1889	830.64	2.54
293.15	0.1569	0.1889	838.9	2.56
333.15	0.0386	0.0465	772.95	2.36
323.15	0.0386	0.0465	781.97	2.39
313.15	0.0386	0.0465	790.78	2.42
303.15	0.0386	0.0465	799.39	2.44
293.15	0.0386	0.0465	807.89	2.47

System: (Z,Z)-9,12-octadecadienoic acid + ethanol + 1,2,3-propanetriol trioctanoate; phases: Liquid
Fixed: Pressure, kPa = 101.8
Property: Viscosity, Pa*s (Liquid); method: Falling or rolling sphere viscometry
Temperature, K	Mass fraction of 1,2,3-propanetriol trioctanoate	Mass fraction of (Z,Z)-9,12-octadecadienoic acid	Viscosity, Pa*s	uncertainty
343.15	0.2563	0.2555	0.001264	2.95e-05
333.15	0.2563	0.2555	0.001495	3.49e-05
323.15	0.2563	0.2555	0.0017987	4.2e-05
313.15	0.2563	0.2555	0.0021855	5.1e-05
303.15	0.2563	0.2555	0.0027009	6.3e-05
293.15	0.2563	0.2555	0.0034249	7.99e-05
333.15	0.1569	0.1889	0.0013719	3.19e-05
323.15	0.1569	0.1889	0.0016556	3.85e-05
313.15	0.1569	0.1889	0.0020268	4.71e-05
303.15	0.1569	0.1889	0.0025174	5.85e-05
293.15	0.1569	0.1889	0.0031861	7.41e-05
333.15	0.0386	0.0465	0.0007441	1.72e-05
323.15	0.0386	0.0465	0.0008735	2.02e-05
313.15	0.0386	0.0465	0.0010393	2.41e-05
303.15	0.0386	0.0465	0.0012458	2.89e-05
293.15	0.0386	0.0465	0.0015025	3.48e-05

System: ethanol + (Z)-9-octadecenoic acid + 1,2,3-tri(cis-9-octadecenoyl)glycerol; phases: Liquid
Fixed: Mass fraction of 1,2,3-tri(cis-9-octadecenoyl)glycerol = 0.3674
Fixed: Mass fraction of (Z)-9-octadecenoic acid = 0.2275
Fixed: Pressure, kPa = 101.8
Property: Mass density, kg/m3 (Liquid); method: Vibrating tube method
Temperature, K	Mass density, kg/m3	uncertainty
333.15	809.52	2.48
323.15	817.89	2.5
313.15	826.1	2.53
303.15	834.18	2.55

System: ethanol + (Z)-9-octadecenoic acid + 1,2,3-tri(cis-9-octadecenoyl)glycerol; phases: Liquid
Fixed: Mass fraction of 1,2,3-tri(cis-9-octadecenoyl)glycerol = 0.3674
Fixed: Mass fraction of (Z)-9-octadecenoic acid = 0.2275
Fixed: Pressure, kPa = 101.8
Property: Viscosity, Pa*s (Liquid); method: Falling or rolling sphere viscometry
Temperature, K	Viscosity, Pa*s	uncertainty
333.15	0.001763	4.12e-05
323.15	0.0021526	5.03e-05
313.15	0.0026792	6.26e-05
303.15	0.0033927	7.93e-05
