Measured thermophysical data. Thermo-physical properties of l-Alanine/l-Valine in aqueous solutions of non steroid anti inflammatory drug dolonex at different temperatures: Volumetric and acoustic approach
Source: J. Chem. Thermodyn., 2018, 10.1016/j.jct.2018.03.022
Compound 1: water, H2O, InChI=1S/H2O/h1H2, purity 99.8%
Compound 2: (S)-2-aminopropanoic acid, C3H7NO2, InChI=1S/C3H7NO2/c1-2(4)3(5)6/h2H,4H2,1H3,(H,5,6)/t2-/m0/s1, purity 99%
Compound 3: L-valine, C5H11NO2, InChI=1S/C5H11NO2/c1-3(2)4(6)5(7)8/h3-4H,6H2,1-2H3,(H,7,8)/t4-/m0/s1, purity 99%
Compound 4: 4-hydroxy-2-methyl-N-2-pyridinyl-2H-1,2-benzothiazine-3-carboxamide 1,1-dioxide, C15H13N3O4S, InChI=1S/C15H13N3O4S/c1-18-13(15(20)17-12-8-4-5-9-16-12)14(19)10-6-2-3-7-11(10)23(18,21)22/h2-9,19H,1H3,(H,16,17,20), purity 99%

System: (S)-2-aminopropanoic acid + water + 4-hydroxy-2-methyl-N-2-pyridinyl-2H-1,2-benzothiazine-3-carboxamide 1,1-dioxide; phases: Liquid
Fixed: Pressure, kPa = 101
Property: Mass density, kg/m3 (Liquid); method: Vibrating tube method
Temperature, K	Solvent: Molality, mol/kg of 4-hydroxy-2-methyl-N-2-pyridinyl-2H-1,2-benzothiazine-3-carboxamide 1,1-dioxide	Molality, mol/kg of (S)-2-aminopropanoic acid	Mass density, kg/m3	uncertainty
293.15	0	0	998.222	0.331
293.15	0	0.01	998.522	0.331
293.15	0	0.03	999.118	0.331
293.15	0	0.05	999.708	0.331
293.15	0	0.07	1000.291	0.331
293.15	0	0.09	1000.869	0.331
293.15	0	0.11	1001.44	0.332
293.15	0	0.13	1002.006	0.332
298.15	0	0	997.065	0.331
298.15	0	0.01	997.359	0.331
298.15	0	0.03	997.943	0.331
298.15	0	0.05	998.521	0.331
298.15	0	0.07	999.094	0.331
298.15	0	0.09	999.661	0.331
298.15	0	0.11	1000.221	0.331
298.15	0	0.13	1000.776	0.331
303.15	0	0	995.674	0.331
303.15	0	0.01	995.961	0.331
303.15	0	0.03	996.53	0.331
303.15	0	0.05	997.093	0.331
303.15	0	0.07	997.65	0.331
303.15	0	0.09	998.2	0.331
303.15	0	0.11	998.743	0.331
303.15	0	0.13	999.283	0.331
308.15	0	0	994.063	0.332
308.15	0	0.01	994.343	0.332
308.15	0	0.03	994.899	0.332
308.15	0	0.05	995.449	0.331
308.15	0	0.07	995.994	0.331
308.15	0	0.09	996.531	0.331
308.15	0	0.11	997.064	0.331
308.15	0	0.13	997.591	0.331
313.15	0	0	992.25	0.332
313.15	0	0.01	992.525	0.332
313.15	0	0.03	993.069	0.332
313.15	0	0.05	993.607	0.332
313.15	0	0.07	994.14	0.332
313.15	0	0.09	994.668	0.332
313.15	0	0.11	995.191	0.332
313.15	0	0.13	995.709	0.331
293.15	0.02	0	998.619	0.331
293.15	0.02	0.01	998.916	0.331
293.15	0.02	0.03	999.506	0.331
293.15	0.02	0.05	1000.09	0.331
293.15	0.02	0.07	1000.669	0.331
293.15	0.02	0.09	1001.24	0.332
293.15	0.02	0.11	1001.808	0.332
293.15	0.02	0.13	1002.369	0.332
298.15	0.02	0	997.471	0.331
298.15	0.02	0.01	997.762	0.331
298.15	0.02	0.03	998.34	0.331
298.15	0.02	0.05	998.911	0.331
298.15	0.02	0.07	999.475	0.331
298.15	0.02	0.09	1000.033	0.331
298.15	0.02	0.11	1000.586	0.331
298.15	0.02	0.13	1001.13	0.332
303.15	0.02	0	996.076	0.331
303.15	0.02	0.01	996.36	0.331
303.15	0.02	0.03	996.924	0.331
303.15	0.02	0.05	997.483	0.331
303.15	0.02	0.07	998.036	0.331
303.15	0.02	0.09	998.582	0.331
303.15	0.02	0.11	999.123	0.331
303.15	0.02	0.13	999.66	0.331
308.15	0.02	0	994.463	0.332
308.15	0.02	0.01	994.74	0.332
308.15	0.02	0.03	995.289	0.332
308.15	0.02	0.05	995.832	0.331
308.15	0.02	0.07	996.369	0.331
308.15	0.02	0.09	996.9	0.331
308.15	0.02	0.11	997.429	0.331
308.15	0.02	0.13	997.95	0.331
313.15	0.02	0	992.645	0.332
313.15	0.02	0.01	992.917	0.332
313.15	0.02	0.03	993.456	0.332
313.15	0.02	0.05	993.988	0.332
313.15	0.02	0.07	994.515	0.332
313.15	0.02	0.09	995.037	0.332
313.15	0.02	0.11	995.551	0.331
313.15	0.02	0.13	996.061	0.331
293.15	0.04	0	998.765	0.331
293.15	0.04	0.01	999.058	0.331
293.15	0.04	0.03	999.639	0.331
293.15	0.04	0.05	1000.213	0.331
293.15	0.04	0.07	1000.781	0.331
293.15	0.04	0.09	1001.342	0.332
293.15	0.04	0.11	1001.898	0.332
293.15	0.04	0.13	1002.45	0.332
298.15	0.04	0	997.61	0.331
298.15	0.04	0.01	997.897	0.331
298.15	0.04	0.03	998.466	0.331
298.15	0.04	0.05	999.029	0.331
298.15	0.04	0.07	999.585	0.331
298.15	0.04	0.09	1000.135	0.331
298.15	0.04	0.11	1000.679	0.331
298.15	0.04	0.13	1001.219	0.332
303.15	0.04	0	996.208	0.331
303.15	0.04	0.01	996.489	0.331
303.15	0.04	0.03	997.046	0.331
303.15	0.04	0.05	997.596	0.331
303.15	0.04	0.07	998.14	0.331
303.15	0.04	0.09	998.678	0.331
303.15	0.04	0.11	999.21	0.331
303.15	0.04	0.13	999.736	0.331
308.15	0.04	0	994.586	0.332
308.15	0.04	0.01	994.861	0.332
308.15	0.04	0.03	995.405	0.332
308.15	0.04	0.05	995.941	0.331
308.15	0.04	0.07	996.471	0.331
308.15	0.04	0.09	996.993	0.331
308.15	0.04	0.11	997.511	0.331
308.15	0.04	0.13	998.022	0.331
313.15	0.04	0	992.763	0.332
313.15	0.04	0.01	993.033	0.332
313.15	0.04	0.03	993.568	0.332
313.15	0.04	0.05	994.096	0.332
313.15	0.04	0.07	994.615	0.332
313.15	0.04	0.09	995.13	0.332
313.15	0.04	0.11	995.64	0.331
313.15	0.04	0.13	996.14	0.331
293.15	0.06	0	998.911	0.331
293.15	0.06	0.01	999.201	0.331
293.15	0.06	0.03	999.776	0.331
293.15	0.06	0.05	1000.346	0.331
293.15	0.06	0.07	1000.91	0.331
293.15	0.06	0.09	1001.468	0.332
293.15	0.06	0.11	1002.02	0.332
293.15	0.06	0.13	1002.57	0.332
298.15	0.06	0	997.749	0.331
298.15	0.06	0.01	998.033	0.331
298.15	0.06	0.03	998.597	0.331
298.15	0.06	0.05	999.156	0.331
298.15	0.06	0.07	999.708	0.331
298.15	0.06	0.09	1000.255	0.331
298.15	0.06	0.11	1000.796	0.331
298.15	0.06	0.13	1001.33	0.332
303.15	0.06	0	996.34	0.331
303.15	0.06	0.01	996.618	0.331
303.15	0.06	0.03	997.17	0.331
303.15	0.06	0.05	997.717	0.331
303.15	0.06	0.07	998.259	0.331
303.15	0.06	0.09	998.795	0.331
303.15	0.06	0.11	999.326	0.331
303.15	0.06	0.13	999.848	0.331
308.15	0.06	0	994.716	0.332
308.15	0.06	0.01	994.988	0.332
308.15	0.06	0.03	995.527	0.331
308.15	0.06	0.05	996.06	0.331
308.15	0.06	0.07	996.588	0.331
308.15	0.06	0.09	997.11	0.331
308.15	0.06	0.11	997.627	0.331
308.15	0.06	0.13	998.137	0.331
313.15	0.06	0	992.892	0.332
313.15	0.06	0.01	993.159	0.332
313.15	0.06	0.03	993.688	0.332
313.15	0.06	0.05	994.211	0.332
313.15	0.06	0.07	994.729	0.332
313.15	0.06	0.09	995.24	0.332
313.15	0.06	0.11	995.746	0.331
313.15	0.06	0.13	996.248	0.331

System: (S)-2-aminopropanoic acid + water + 4-hydroxy-2-methyl-N-2-pyridinyl-2H-1,2-benzothiazine-3-carboxamide 1,1-dioxide; phases: Liquid
Fixed: Pressure, kPa = 101
Fixed: Frequency, MHz = 6
Property: Speed of sound, m/s (Liquid); method: Linear variable-path acoustic interferometer
Temperature, K	Solvent: Molality, mol/kg of 4-hydroxy-2-methyl-N-2-pyridinyl-2H-1,2-benzothiazine-3-carboxamide 1,1-dioxide	Molality, mol/kg of (S)-2-aminopropanoic acid	Speed of sound, m/s	uncertainty
293.15	0	0	1483	1.87
293.15	0	0.01	1484.08	1.88
293.15	0	0.03	1486.06	1.88
293.15	0	0.05	1487.79	1.88
293.15	0	0.07	1489.34	1.88
293.15	0	0.09	1490.64	1.88
293.15	0	0.11	1491.78	1.88
293.15	0	0.13	1492.72	1.88
298.15	0	0	1497.12	1.88
298.15	0	0.01	1498.2	1.88
298.15	0	0.03	1500.17	1.88
298.15	0	0.05	1501.93	1.88
298.15	0	0.07	1503.46	1.89
298.15	0	0.09	1504.74	1.89
298.15	0	0.11	1505.82	1.89
298.15	0	0.13	1506.85	1.89
303.15	0	0	1509.51	1.89
303.15	0	0.01	1510.6	1.89
303.15	0	0.03	1512.57	1.89
303.15	0	0.05	1514.31	1.89
303.15	0	0.07	1515.82	1.89
303.15	0	0.09	1517.09	1.89
303.15	0	0.11	1518.18	1.89
303.15	0	0.13	1519.24	1.89
308.15	0	0	1520.19	1.89
308.15	0	0.01	1521.27	1.89
308.15	0	0.03	1523.25	1.9
308.15	0	0.05	1524.98	1.9
308.15	0	0.07	1526.43	1.9
308.15	0	0.09	1527.73	1.9
308.15	0	0.11	1528.78	1.9
308.15	0	0.13	1529.73	1.9
313.15	0	0	1529.31	1.9
313.15	0	0.01	1530.38	1.9
313.15	0	0.03	1532.33	1.9
313.15	0	0.05	1534.04	1.9
313.15	0	0.07	1535.48	1.9
313.15	0	0.09	1536.73	1.9
313.15	0	0.11	1537.7	1.9
313.15	0	0.13	1538.57	1.9
293.15	0.02	0	1489.3	1.88
293.15	0.02	0.01	1490.36	1.88
293.15	0.02	0.03	1492.32	1.88
293.15	0.02	0.05	1494.09	1.88
293.15	0.02	0.07	1495.59	1.88
293.15	0.02	0.09	1496.94	1.88
293.15	0.02	0.11	1498.05	1.88
293.15	0.02	0.13	1499.01	1.88
298.15	0.02	0	1502.12	1.88
298.15	0.02	0.01	1503.2	1.89
298.15	0.02	0.03	1505.14	1.89
298.15	0.02	0.05	1506.84	1.89
298.15	0.02	0.07	1508.3	1.89
298.15	0.02	0.09	1509.8	1.89
298.15	0.02	0.11	1510.9	1.89
298.15	0.02	0.13	1511.4	1.89
303.15	0.02	0	1513.76	1.89
303.15	0.02	0.01	1514.82	1.89
303.15	0.02	0.03	1516.76	1.89
303.15	0.02	0.05	1518.49	1.89
303.15	0.02	0.07	1519.98	1.89
303.15	0.02	0.09	1521.3	1.89
303.15	0.02	0.11	1522.3	1.9
303.15	0.02	0.13	1523.24	1.9
308.15	0.02	0	1525	1.9
308.15	0.02	0.01	1526.05	1.9
308.15	0.02	0.03	1527.99	1.9
308.15	0.02	0.05	1529.69	1.9
308.15	0.02	0.07	1531.15	1.9
308.15	0.02	0.09	1532.35	1.9
308.15	0.02	0.11	1533.35	1.9
308.15	0.02	0.13	1534.17	1.9
313.15	0.02	0	1535.51	1.9
313.15	0.02	0.01	1536.56	1.9
313.15	0.02	0.03	1538.47	1.9
313.15	0.02	0.05	1540.12	1.9
313.15	0.02	0.07	1541.53	1.91
313.15	0.02	0.09	1542.7	1.91
313.15	0.02	0.11	1543.65	1.91
313.15	0.02	0.13	1544.41	1.91
293.15	0.04	0	1493.96	1.88
293.15	0.04	0.01	1495.02	1.88
293.15	0.04	0.03	1496.96	1.88
293.15	0.04	0.05	1498.65	1.88
293.15	0.04	0.07	1500.08	1.88
293.15	0.04	0.09	1501.28	1.88
293.15	0.04	0.11	1502.22	1.88
293.15	0.04	0.13	1502.83	1.89
298.15	0.04	0	1506.32	1.89
298.15	0.04	0.01	1507.38	1.89
298.15	0.04	0.03	1509.3	1.89
298.15	0.04	0.05	1510.95	1.89
298.15	0.04	0.07	1512.4	1.89
298.15	0.04	0.09	1513.49	1.89
298.15	0.04	0.11	1514.43	1.89
298.15	0.04	0.13	1515.05	1.89
303.15	0.04	0	1518.04	1.89
303.15	0.04	0.01	1520.18	1.89
303.15	0.04	0.03	1522.07	1.9
303.15	0.04	0.05	1523.67	1.9
303.15	0.04	0.07	1525.02	1.9
303.15	0.04	0.09	1526.14	1.9
303.15	0.04	0.11	1526.89	1.9
303.15	0.04	0.13	1527.39	1.9
308.15	0.04	0	1529.19	1.9
308.15	0.04	0.01	1530.24	1.9
308.15	0.04	0.03	1532.12	1.9
308.15	0.04	0.05	1533.7	1.9
308.15	0.04	0.07	1535.07	1.9
308.15	0.04	0.09	1536.19	1.9
308.15	0.04	0.11	1536.91	1.9
308.15	0.04	0.13	1537.37	1.9
313.15	0.04	0	1539.69	1.9
313.15	0.04	0.01	1540.73	1.91
313.15	0.04	0.03	1542.59	1.91
313.15	0.04	0.05	1544.17	1.91
313.15	0.04	0.07	1545.53	1.91
313.15	0.04	0.09	1546.57	1.91
313.15	0.04	0.11	1547.29	1.91
313.15	0.04	0.13	1547.68	1.91
293.15	0.06	0	1498.09	1.88
293.15	0.06	0.01	1499.16	1.88
293.15	0.06	0.03	1501.1	1.88
293.15	0.06	0.05	1502.81	1.89
293.15	0.06	0.07	1504.24	1.89
293.15	0.06	0.09	1505.39	1.89
293.15	0.06	0.11	1506.33	1.89
293.15	0.06	0.13	1506.96	1.89
298.15	0.06	0	1510.53	1.89
298.15	0.06	0.01	1511.59	1.89
298.15	0.06	0.03	1513.53	1.89
298.15	0.06	0.05	1515.2	1.89
298.15	0.06	0.07	1516.64	1.89
298.15	0.06	0.09	1517.77	1.89
298.15	0.06	0.11	1518.69	1.89
298.15	0.06	0.13	1519.28	1.89
303.15	0.06	0	1522.62	1.9
303.15	0.06	0.01	1523.68	1.9
303.15	0.06	0.03	1525.59	1.9
303.15	0.06	0.05	1527.23	1.9
303.15	0.06	0.07	1528.61	1.9
303.15	0.06	0.09	1529.77	1.9
303.15	0.06	0.11	1530.58	1.9
303.15	0.06	0.13	1531.08	1.9
308.15	0.06	0	1533.39	1.9
308.15	0.06	0.01	1534.43	1.9
308.15	0.06	0.03	1536.32	1.9
308.15	0.06	0.05	1537.94	1.9
308.15	0.06	0.07	1539.31	1.9
308.15	0.06	0.09	1540.42	1.91
308.15	0.06	0.11	1541.15	1.91
308.15	0.06	0.13	1541.63	1.91
313.15	0.06	0	1544.17	1.91
313.15	0.06	0.01	1545.21	1.91
313.15	0.06	0.03	1547.08	1.91
313.15	0.06	0.05	1548.66	1.91
313.15	0.06	0.07	1549.98	1.91
313.15	0.06	0.09	1551.04	1.91
313.15	0.06	0.11	1551.8	1.91
313.15	0.06	0.13	1552.19	1.91

System: L-valine + water + 4-hydroxy-2-methyl-N-2-pyridinyl-2H-1,2-benzothiazine-3-carboxamide 1,1-dioxide; phases: Liquid
Fixed: Pressure, kPa = 101
Property: Mass density, kg/m3 (Liquid); method: Vibrating tube method
Temperature, K	Solvent: Molality, mol/kg of 4-hydroxy-2-methyl-N-2-pyridinyl-2H-1,2-benzothiazine-3-carboxamide 1,1-dioxide	Molality, mol/kg of L-valine	Mass density, kg/m3	uncertainty
293.15	0	0	998.222	0.331
293.15	0	0.01	998.492	0.331
293.15	0	0.03	999.024	0.331
293.15	0	0.05	999.543	0.331
293.15	0	0.07	1000.045	0.331
293.15	0	0.09	1000.535	0.331
293.15	0	0.11	1001.017	0.331
293.15	0	0.13	1001.487	0.332
298.15	0	0	997.065	0.331
298.15	0	0.01	997.335	0.331
298.15	0	0.03	997.866	0.331
298.15	0	0.05	998.381	0.331
298.15	0	0.07	998.885	0.331
298.15	0	0.09	999.374	0.331
298.15	0	0.11	999.854	0.331
298.15	0	0.13	1000.323	0.331
303.15	0	0	995.674	0.331
303.15	0	0.01	995.944	0.331
303.15	0	0.03	996.474	0.331
303.15	0	0.05	996.99	0.33
303.15	0	0.07	997.492	0.331
303.15	0	0.09	997.982	0.331
303.15	0	0.11	998.46	0.331
303.15	0	0.13	998.93	0.331
308.15	0	0	994.063	0.332
308.15	0	0.01	994.333	0.332
308.15	0	0.03	994.863	0.332
308.15	0	0.05	995.378	0.332
308.15	0	0.07	995.882	0.331
308.15	0	0.09	996.372	0.331
308.15	0	0.11	996.851	0.331
308.15	0	0.13	997.32	0.33
313.15	0	0	992.25	0.332
313.15	0	0.01	992.52	0.332
313.15	0	0.03	993.05	0.332
313.15	0	0.05	993.567	0.332
313.15	0	0.07	994.072	0.332
313.15	0	0.09	994.563	0.332
313.15	0	0.11	995.04	0.332
313.15	0	0.13	995.51	0.331
293.15	0.02	0	998.619	0.331
293.15	0.02	0.01	998.886	0.331
293.15	0.02	0.03	999.412	0.331
293.15	0.02	0.05	999.927	0.331
293.15	0.02	0.07	1000.429	0.331
293.15	0.02	0.09	1000.92	0.33
293.15	0.02	0.11	1001.397	0.332
293.15	0.02	0.13	1001.871	0.332
298.15	0.02	0	997.471	0.331
298.15	0.02	0.01	997.738	0.331
298.15	0.02	0.03	998.264	0.331
298.15	0.02	0.05	998.777	0.331
298.15	0.02	0.07	999.278	0.331
298.15	0.02	0.09	999.768	0.331
298.15	0.02	0.11	1000.248	0.331
298.15	0.02	0.13	1000.719	0.331
303.15	0.02	0	996.076	0.331
303.15	0.02	0.01	996.343	0.331
303.15	0.02	0.03	996.869	0.331
303.15	0.02	0.05	997.381	0.331
303.15	0.02	0.07	997.88	0.331
303.15	0.02	0.09	998.37	0.331
303.15	0.02	0.11	998.851	0.331
303.15	0.02	0.13	999.32	0.331
308.15	0.02	0	994.463	0.332
308.15	0.02	0.01	994.73	0.332
308.15	0.02	0.03	995.256	0.332
308.15	0.02	0.05	995.769	0.331
308.15	0.02	0.07	996.269	0.331
308.15	0.02	0.09	996.76	0.331
308.15	0.02	0.11	997.24	0.331
308.15	0.02	0.13	997.71	0.331
313.15	0.02	0	992.645	0.332
313.15	0.02	0.01	992.912	0.332
313.15	0.02	0.03	993.439	0.332
313.15	0.02	0.05	993.952	0.332
313.15	0.02	0.07	994.454	0.332
313.15	0.02	0.09	994.944	0.332
313.15	0.02	0.11	995.421	0.331
313.15	0.02	0.13	995.888	0.331
293.15	0.04	0	998.765	0.331
293.15	0.04	0.01	999.029	0.331
293.15	0.04	0.03	999.549	0.331
293.15	0.04	0.05	1000.055	0.331
293.15	0.04	0.07	1000.547	0.331
293.15	0.04	0.09	1001.03	0.331
293.15	0.04	0.11	1001.5	0.332
293.15	0.04	0.13	1001.964	0.332
298.15	0.04	0	997.61	0.331
298.15	0.04	0.01	997.874	0.331
298.15	0.04	0.03	998.393	0.331
298.15	0.04	0.05	998.899	0.331
298.15	0.04	0.07	999.39	0.33
298.15	0.04	0.09	999.872	0.331
298.15	0.04	0.11	1000.341	0.331
298.15	0.04	0.13	1000.809	0.331
303.15	0.04	0	996.208	0.331
303.15	0.04	0.01	996.472	0.331
303.15	0.04	0.03	996.989	0.331
303.15	0.04	0.05	997.494	0.331
303.15	0.04	0.07	997.988	0.331
303.15	0.04	0.09	998.47	0.331
303.15	0.04	0.11	998.94	0.331
303.15	0.04	0.13	999.404	0.331
308.15	0.04	0	994.586	0.332
308.15	0.04	0.01	994.85	0.332
308.15	0.04	0.03	995.368	0.332
308.15	0.04	0.05	995.872	0.331
308.15	0.04	0.07	996.366	0.331
308.15	0.04	0.09	996.848	0.331
308.15	0.04	0.11	997.316	0.331
308.15	0.04	0.13	997.778	0.331
313.15	0.04	0	992.763	0.332
313.15	0.04	0.01	993.027	0.332
313.15	0.04	0.03	993.545	0.332
313.15	0.04	0.05	994.05	0.332
313.15	0.04	0.07	994.544	0.332
313.15	0.04	0.09	995.028	0.332
313.15	0.04	0.11	995.498	0.331
313.15	0.04	0.13	995.955	0.331
293.15	0.06	0	998.911	0.331
293.15	0.06	0.01	999.171	0.331
293.15	0.06	0.03	999.683	0.331
293.15	0.06	0.05	1000.183	0.331
293.15	0.06	0.07	1000.671	0.331
293.15	0.06	0.09	1001.148	0.332
293.15	0.06	0.11	1001.614	0.332
293.15	0.06	0.13	1002.07	0.332
298.15	0.06	0	997.749	0.331
298.15	0.06	0.01	998.009	0.331
298.15	0.06	0.03	998.52	0.33
298.15	0.06	0.05	999.019	0.331
298.15	0.06	0.07	999.508	0.331
298.15	0.06	0.09	999.983	0.331
298.15	0.06	0.11	1000.45	0.33
298.15	0.06	0.13	1000.902	0.331
303.15	0.06	0	996.34	0.331
303.15	0.06	0.01	996.6	0.331
303.15	0.06	0.03	997.11	0.33
303.15	0.06	0.05	997.609	0.331
303.15	0.06	0.07	998.099	0.331
303.15	0.06	0.09	998.574	0.331
303.15	0.06	0.11	999.04	0.33
303.15	0.06	0.13	999.492	0.331
308.15	0.06	0	994.716	0.332
308.15	0.06	0.01	994.976	0.332
308.15	0.06	0.03	995.486	0.331
308.15	0.06	0.05	995.985	0.331
308.15	0.06	0.07	996.475	0.331
308.15	0.06	0.09	996.95	0.331
308.15	0.06	0.11	997.416	0.331
308.15	0.06	0.13	997.866	0.331
313.15	0.06	0	992.892	0.332
313.15	0.06	0.01	993.152	0.332
313.15	0.06	0.03	993.664	0.332
313.15	0.06	0.05	994.163	0.332
313.15	0.06	0.07	994.652	0.332
313.15	0.06	0.09	995.128	0.332
313.15	0.06	0.11	995.595	0.331
313.15	0.06	0.13	996.044	0.331

System: L-valine + water + 4-hydroxy-2-methyl-N-2-pyridinyl-2H-1,2-benzothiazine-3-carboxamide 1,1-dioxide; phases: Liquid
Fixed: Pressure, kPa = 101
Fixed: Frequency, MHz = 6
Property: Speed of sound, m/s (Liquid); method: Linear variable-path acoustic interferometer
Temperature, K	Solvent: Molality, mol/kg of 4-hydroxy-2-methyl-N-2-pyridinyl-2H-1,2-benzothiazine-3-carboxamide 1,1-dioxide	Molality, mol/kg of L-valine	Speed of sound, m/s	uncertainty
293.15	0	0	1483	1.87
293.15	0	0.01	1484.07	1.88
293.15	0	0.03	1486.05	1.88
293.15	0	0.05	1487.73	1.88
293.15	0	0.07	1489.09	1.88
293.15	0	0.09	1490.2	1.88
293.15	0	0.11	1491.15	1.88
293.15	0	0.13	1491.69	1.88
298.15	0	0	1497.12	1.88
298.15	0	0.01	1498.19	1.88
298.15	0	0.03	1500.16	1.88
298.15	0	0.05	1501.83	1.88
298.15	0	0.07	1503.2	1.89
298.15	0	0.09	1504.32	1.89
298.15	0	0.11	1505.19	1.89
298.15	0	0.13	1505.72	1.89
303.15	0	0	1509.51	1.89
303.15	0	0.01	1510.57	1.89
303.15	0	0.03	1512.54	1.89
303.15	0	0.05	1514.21	1.89
303.15	0	0.07	1515.53	1.89
303.15	0	0.09	1516.67	1.89
303.15	0	0.11	1517.54	1.89
303.15	0	0.13	1518.02	1.89
308.15	0	0	1520.19	1.89
308.15	0	0.01	1521.25	1.89
308.15	0	0.03	1523.21	1.9
308.15	0	0.05	1524.87	1.9
308.15	0	0.07	1526.17	1.9
308.15	0	0.09	1527.3	1.9
308.15	0	0.11	1528.12	1.9
308.15	0	0.13	1528.51	1.9
313.15	0	0	1529.31	1.9
313.15	0	0.01	1530.35	1.9
313.15	0	0.03	1532.27	1.9
313.15	0	0.05	1533.92	1.9
313.15	0	0.07	1535.18	1.9
313.15	0	0.09	1536.33	1.9
313.15	0	0.11	1537.08	1.9
313.15	0	0.13	1537.48	1.9
293.15	0.02	0	1489.3	1.88
293.15	0.02	0.01	1490.35	1.88
293.15	0.02	0.03	1492.29	1.88
293.15	0.02	0.05	1493.97	1.88
293.15	0.02	0.07	1495.34	1.88
293.15	0.02	0.09	1496.48	1.88
293.15	0.02	0.11	1497.34	1.88
293.15	0.02	0.13	1497.95	1.88
298.15	0.02	0	1502.12	1.88
298.15	0.02	0.01	1503.18	1.89
298.15	0.02	0.03	1505.11	1.89
298.15	0.02	0.05	1506.77	1.89
298.15	0.02	0.07	1508.14	1.89
298.15	0.02	0.09	1509.29	1.89
298.15	0.02	0.11	1510.15	1.89
298.15	0.02	0.13	1510.69	1.89
303.15	0.02	0	1513.76	1.89
303.15	0.02	0.01	1514.8	1.9
303.15	0.02	0.03	1516.73	1.89
303.15	0.02	0.05	1518.36	1.89
303.15	0.02	0.07	1519.69	1.89
303.15	0.02	0.09	1520.78	1.89
303.15	0.02	0.11	1521.64	1.9
303.15	0.02	0.13	1522.02	1.9
308.15	0.02	0	1525	1.9
308.15	0.02	0.01	1526.02	1.9
308.15	0.02	0.03	1527.92	1.9
308.15	0.02	0.05	1529.52	1.9
308.15	0.02	0.07	1530.83	1.9
308.15	0.02	0.09	1531.92	1.9
308.15	0.02	0.11	1532.74	1.9
308.15	0.02	0.13	1533.08	1.9
313.15	0.02	0	1535.51	1.9
313.15	0.02	0.01	1536.52	1.9
313.15	0.02	0.03	1538.39	1.9
313.15	0.02	0.05	1540	1.9
313.15	0.02	0.07	1541.29	1.91
313.15	0.02	0.09	1542.37	1.91
313.15	0.02	0.11	1543.15	1.91
313.15	0.02	0.13	1543.48	1.91
293.15	0.04	0	1493.96	1.88
293.15	0.04	0.01	1495.01	1.88
293.15	0.04	0.03	1496.95	1.88
293.15	0.04	0.05	1498.63	1.88
293.15	0.04	0.07	1500.04	1.88
293.15	0.04	0.09	1501.21	1.88
293.15	0.04	0.11	1502.11	1.88
293.15	0.04	0.13	1502.72	1.89
298.15	0.04	0	1506.32	1.89
298.15	0.04	0.01	1507.36	1.89
298.15	0.04	0.03	1509.28	1.89
298.15	0.04	0.05	1510.93	1.89
298.15	0.04	0.07	1512.35	1.89
298.15	0.04	0.09	1513.48	1.89
298.15	0.04	0.11	1514.41	1.89
298.15	0.04	0.13	1514.97	1.89
303.15	0.04	0	1518.04	1.89
303.15	0.04	0.01	1519.07	1.89
303.15	0.04	0.03	1520.97	1.89
303.15	0.04	0.05	1522.59	1.9
303.15	0.04	0.07	1523.95	1.9
303.15	0.04	0.09	1525.09	1.9
303.15	0.04	0.11	1525.95	1.9
303.15	0.04	0.13	1526.4	1.9
308.15	0.04	0	1529.19	1.9
308.15	0.04	0.01	1530.21	1.9
308.15	0.04	0.03	1532.08	1.9
308.15	0.04	0.05	1533.66	1.9
308.15	0.04	0.07	1535.03	1.9
308.15	0.04	0.09	1536.12	1.9
308.15	0.04	0.11	1536.88	1.9
308.15	0.04	0.13	1537.3	1.9
313.15	0.04	0	1539.69	1.9
313.15	0.04	0.01	1540.7	1.91
313.15	0.04	0.03	1542.56	1.91
313.15	0.04	0.05	1544.08	1.91
313.15	0.04	0.07	1545.42	1.91
313.15	0.04	0.09	1546.5	1.91
313.15	0.04	0.11	1547.18	1.91
313.15	0.04	0.13	1547.64	1.91
293.15	0.06	0	1498.09	1.88
293.15	0.06	0.01	1499.15	1.88
293.15	0.06	0.03	1501.09	1.88
293.15	0.06	0.05	1502.76	1.89
293.15	0.06	0.07	1504.22	1.89
293.15	0.06	0.09	1505.38	1.89
293.15	0.06	0.11	1506.32	1.89
293.15	0.06	0.13	1506.94	1.89
298.15	0.06	0	1510.53	1.89
298.15	0.06	0.01	1511.57	1.89
298.15	0.06	0.03	1513.5	1.89
298.15	0.06	0.05	1515.15	1.89
298.15	0.06	0.07	1516.6	1.89
298.15	0.06	0.09	1517.74	1.89
298.15	0.06	0.11	1518.67	1.89
298.15	0.06	0.13	1519.25	1.89
303.15	0.06	0	1522.62	1.9
303.15	0.06	0.01	1523.66	1.9
303.15	0.06	0.03	1525.56	1.9
303.15	0.06	0.05	1527.18	1.9
303.15	0.06	0.07	1528.57	1.9
303.15	0.06	0.09	1529.71	1.9
303.15	0.06	0.11	1530.57	1.9
303.15	0.06	0.13	1531.06	1.9
308.15	0.06	0	1533.39	1.9
308.15	0.06	0.01	1534.41	1.9
308.15	0.06	0.03	1536.28	1.9
308.15	0.06	0.05	1537.89	1.9
308.15	0.06	0.07	1539.23	1.9
308.15	0.06	0.09	1540.32	1.91
308.15	0.06	0.11	1541.07	1.91
308.15	0.06	0.13	1541.56	1.91
313.15	0.06	0	1544.17	1.91
313.15	0.06	0.01	1545.18	1.91
313.15	0.06	0.03	1547.02	1.91
313.15	0.06	0.05	1548.59	1.91
313.15	0.06	0.07	1549.93	1.91
313.15	0.06	0.09	1550.98	1.91
313.15	0.06	0.11	1551.7	1.91
313.15	0.06	0.13	1552.15	1.91

System: (S)-2-aminopropanoic acid + water; phases: Liquid
Fixed: Pressure, kPa = 101
Property: Mass density, kg/m3 (Liquid); method: Vibrating tube method
Temperature, K	Molality, mol/kg of (S)-2-aminopropanoic acid	Mass density, kg/m3	uncertainty
293.15	0.01	998.522	0.331
293.15	0.03	999.118	0.331
293.15	0.05	999.708	0.331
293.15	0.07	1000.291	0.331
293.15	0.09	1000.869	0.331
293.15	0.11	1001.44	0.332
293.15	0.13	1002.006	0.332
298.15	0.01	997.359	0.331
298.15	0.03	997.943	0.331
298.15	0.05	998.521	0.331
298.15	0.07	999.094	0.331
298.15	0.09	999.661	0.331
298.15	0.11	1000.221	0.331
298.15	0.13	1000.776	0.331
303.15	0.01	995.961	0.331
303.15	0.03	996.53	0.331
303.15	0.05	997.093	0.331
303.15	0.07	997.65	0.331
303.15	0.09	998.2	0.331
303.15	0.11	998.743	0.331
303.15	0.13	999.283	0.331
308.15	0.01	994.343	0.332
308.15	0.03	994.899	0.332
308.15	0.05	995.449	0.331
308.15	0.07	995.994	0.331
308.15	0.09	996.531	0.331
308.15	0.11	997.064	0.331
308.15	0.13	997.591	0.331
313.15	0.01	992.525	0.332
313.15	0.03	993.069	0.332
313.15	0.05	993.607	0.332
313.15	0.07	994.14	0.332
313.15	0.09	994.668	0.332
313.15	0.11	995.191	0.332
313.15	0.13	995.709	0.331
293.15	0	998.222	0.331
298.15	0	997.065	0.331
303.15	0	995.674	0.331
308.15	0	994.063	0.332
313.15	0	992.25	0.332

System: (S)-2-aminopropanoic acid + water; phases: Liquid
Fixed: Pressure, kPa = 101
Fixed: Frequency, MHz = 6
Property: Speed of sound, m/s (Liquid); method: Linear variable-path acoustic interferometer
Temperature, K	Molality, mol/kg of (S)-2-aminopropanoic acid	Speed of sound, m/s	uncertainty
293.15	0.01	1484.08	1.88
293.15	0.03	1486.06	1.88
293.15	0.05	1487.79	1.88
293.15	0.07	1489.34	1.88
293.15	0.09	1490.64	1.88
293.15	0.11	1491.78	1.88
293.15	0.13	1492.72	1.88
298.16	0.01	1498.2	1.88
298.16	0.03	1500.17	1.88
298.16	0.05	1501.93	1.88
298.16	0.07	1503.46	1.89
298.16	0.09	1504.74	1.89
298.16	0.11	1505.82	1.89
298.16	0.13	1506.85	1.89
303.15	0.01	1510.6	1.89
303.15	0.03	1512.57	1.89
303.15	0.05	1514.31	1.89
303.15	0.07	1515.82	1.89
303.15	0.09	1517.09	1.89
303.15	0.11	1518.18	1.89
303.15	0.13	1519.24	1.89
308.15	0.01	1521.27	1.89
308.15	0.03	1523.25	1.9
308.15	0.05	1524.98	1.9
308.15	0.07	1526.43	1.9
308.15	0.09	1527.73	1.9
308.15	0.11	1528.78	1.9
308.15	0.13	1529.73	1.9
313.15	0.01	1530.38	1.9
313.15	0.03	1532.33	1.9
313.15	0.05	1534.04	1.9
313.15	0.07	1535.48	1.9
313.15	0.09	1536.73	1.9
313.15	0.11	1537.7	1.9
313.15	0.13	1538.57	1.9
293.15	0	1483	1.87
298.15	0	1497.12	1.88
303.15	0	1509.51	1.89
308.15	0	1520.19	1.89
313.15	0	1529.31	1.9

System: water + 4-hydroxy-2-methyl-N-2-pyridinyl-2H-1,2-benzothiazine-3-carboxamide 1,1-dioxide; phases: Liquid
Fixed: Pressure, kPa = 101
Property: Mass density, kg/m3 (Liquid); method: Vibrating tube method
Temperature, K	Molality, mol/kg of 4-hydroxy-2-methyl-N-2-pyridinyl-2H-1,2-benzothiazine-3-carboxamide 1,1-dioxide	Mass density, kg/m3	uncertainty
293.15	0.02	998.619	0.331
298.15	0.02	997.471	0.331
303.15	0.02	996.076	0.331
308.15	0.02	994.463	0.332
313.15	0.02	992.645	0.332
293.15	0.04	998.765	0.331
298.15	0.04	997.61	0.331
303.15	0.04	996.208	0.331
308.15	0.04	994.586	0.332
313.15	0.04	992.763	0.332
293.15	0.06	998.911	0.331
298.15	0.06	997.749	0.331
303.15	0.06	996.34	0.331
308.15	0.06	994.716	0.332
313.15	0.06	992.892	0.332
293.15	0	998.222	0.331
298.15	0	997.065	0.331
303.15	0	995.674	0.331
308.15	0	994.063	0.332
313.15	0	992.25	0.332

System: water + 4-hydroxy-2-methyl-N-2-pyridinyl-2H-1,2-benzothiazine-3-carboxamide 1,1-dioxide; phases: Liquid
Fixed: Pressure, kPa = 101
Fixed: Frequency, MHz = 6
Property: Speed of sound, m/s (Liquid); method: Linear variable-path acoustic interferometer
Temperature, K	Molality, mol/kg of 4-hydroxy-2-methyl-N-2-pyridinyl-2H-1,2-benzothiazine-3-carboxamide 1,1-dioxide	Speed of sound, m/s	uncertainty
293.15	0.02	1489.3	1.88
298.16	0.02	1502.12	1.88
303.15	0.02	1513.76	1.89
308.15	0.02	1525	1.9
313.15	0.02	1535.51	1.9
293.15	0.04	1493.96	1.88
298.16	0.04	1506.32	1.89
303.15	0.04	1518.04	1.89
308.15	0.04	1529.19	1.9
313.15	0.04	1539.69	1.9
293.15	0.06	1498.09	1.88
298.16	0.06	1510.53	1.89
303.15	0.06	1522.62	1.9
308.15	0.06	1533.39	1.9
313.15	0.06	1544.17	1.91
298.15	0.02	1502.12	1.88
298.15	0.04	1506.32	1.89
298.15	0.06	1510.53	1.89
293.15	0	1483	1.87
298.15	0	1497.12	1.88
303.15	0	1509.51	1.89
308.15	0	1520.19	1.89
313.15	0	1529.31	1.9

System: L-valine + water; phases: Liquid
Fixed: Pressure, kPa = 101
Property: Mass density, kg/m3 (Liquid); method: Vibrating tube method
Temperature, K	Molality, mol/kg of L-valine	Mass density, kg/m3	uncertainty
293.15	0.01	998.492	0.331
293.15	0.03	999.024	0.331
293.15	0.05	999.543	0.331
293.15	0.07	1000.045	0.331
293.15	0.09	1000.535	0.331
293.15	0.11	1001.017	0.331
293.15	0.13	1001.487	0.332
298.15	0.01	997.335	0.331
298.15	0.03	997.866	0.331
298.15	0.05	998.381	0.331
298.15	0.07	998.885	0.331
298.15	0.09	999.374	0.331
298.15	0.11	999.854	0.331
298.15	0.13	1000.323	0.331
303.15	0.01	995.944	0.331
303.15	0.03	996.474	0.331
303.15	0.05	996.99	0.33
303.15	0.07	997.492	0.331
303.15	0.09	997.982	0.331
303.15	0.11	998.46	0.331
303.15	0.13	998.93	0.331
308.15	0.01	994.333	0.332
308.15	0.03	994.863	0.332
308.15	0.05	995.378	0.332
308.15	0.07	995.882	0.331
308.15	0.09	996.372	0.331
308.15	0.11	996.851	0.331
308.15	0.13	997.32	0.33
313.15	0.01	992.52	0.332
313.15	0.03	993.05	0.332
313.15	0.05	993.567	0.332
313.15	0.07	994.072	0.332
313.15	0.09	994.563	0.332
313.15	0.11	995.04	0.332
313.15	0.13	995.51	0.331
293.15	0	998.222	0.331
298.15	0	997.065	0.331
303.15	0	995.674	0.331
308.15	0	994.063	0.332
313.15	0	992.25	0.332

System: L-valine + water; phases: Liquid
Fixed: Pressure, kPa = 101
Fixed: Frequency, MHz = 6
Property: Speed of sound, m/s (Liquid); method: Linear variable-path acoustic interferometer
Temperature, K	Molality, mol/kg of L-valine	Speed of sound, m/s	uncertainty
293.15	0.01	1484.07	1.88
293.15	0.03	1486.05	1.88
293.15	0.05	1487.73	1.88
293.15	0.07	1489.09	1.88
293.15	0.09	1490.2	1.88
293.15	0.11	1491.15	1.88
293.15	0.13	1491.69	1.88
298.15	0.01	1498.19	1.88
298.15	0.03	1500.16	1.88
298.15	0.05	1501.83	1.88
298.15	0.07	1503.2	1.89
298.15	0.09	1504.32	1.89
298.15	0.11	1505.19	1.89
298.15	0.13	1505.72	1.89
303.15	0.01	1510.57	1.89
303.15	0.03	1512.54	1.89
303.15	0.05	1514.21	1.89
303.15	0.07	1515.53	1.89
303.15	0.09	1516.67	1.89
303.15	0.11	1517.54	1.89
303.15	0.13	1518.02	1.89
308.15	0.01	1521.25	1.89
308.15	0.03	1523.21	1.9
308.15	0.05	1524.87	1.9
308.15	0.07	1526.17	1.9
308.15	0.09	1527.3	1.9
308.15	0.11	1528.12	1.9
308.15	0.13	1528.51	1.9
313.15	0.01	1530.35	1.9
313.15	0.03	1532.27	1.9
313.15	0.05	1533.92	1.9
313.15	0.07	1535.18	1.9
313.15	0.09	1536.33	1.9
313.15	0.11	1537.08	1.9
313.15	0.13	1537.48	1.9
293.15	0	1483	1.87
298.15	0	1497.12	1.88
303.15	0	1509.51	1.89
308.15	0	1520.19	1.89
313.15	0	1529.31	1.9
