Measured thermophysical data. Effect of the relative humidity and isomeric structure on the physical properties of pyridinium based-ionic liquids
Source: J. Chem. Thermodyn., 2015, 10.1016/j.jct.2015.02.020
Compound 1: 1-ethylpyridinium bis[(trifluoromethyl)sulfonyl]imide, C9H10F6N2O4S2, InChI=1S/C7H10N.C2F6NO4S2/c1-2-8-6-4-3-5-7-8;3-1(4,5)14(10,11)9-15(12,13)2(6,7)8/h3-7H,2H2,1H3;/q+1;-1, purity 99%
Compound 2: 1-ethyl-2-methylpyridinium bis((trifluoromethyl)sulfonyl)amide, C10H12F6N2O4S2, InChI=1S/C8H12N.C2F6NO4S2/c1-3-9-7-5-4-6-8(9)2;3-1(4,5)14(10,11)9-15(12,13)2(6,7)8/h4-7H,3H2,1-2H3;/q+1;-1, purity 99%
Compound 3: 1-ethyl-3-methylpyridinium bis((trifluoromethyl)sulfonyl)amide, C10H12F6N2O4S2, InChI=1S/C8H12N.C2F6NO4S2/c1-3-9-6-4-5-8(2)7-9;3-1(4,5)14(10,11)9-15(12,13)2(6,7)8/h4-7H,3H2,1-2H3;/q+1;-1, purity 99%
Compound 4: 1-ethyl-4-methylpyridinium bis((trifluoromethyl)sulfonyl)amide, C10H12F6N2O4S2, InChI=1S/C8H12N.C2F6NO4S2/c1-3-9-6-4-8(2)5-7-9;3-1(4,5)14(10,11)9-15(12,13)2(6,7)8/h4-7H,3H2,1-2H3;/q+1;-1, purity 99%
Compound 5: water, H2O, InChI=1S/H2O/h1H2, purity 99.8%

System: 1-ethylpyridinium bis[(trifluoromethyl)sulfonyl]imide; phases: Liquid
Fixed: Pressure, kPa = 101.325
Property: Mass density, kg/m3 (Liquid); method: Vibrating tube method
Temperature, K	Mass density, kg/m3	uncertainty
293.15	1540.83	0.72
298.15	1535.84	0.71
303.15	1530.87	0.71
308.15	1525.92	0.7
313.15	1520.99	0.7
318.15	1516.08	0.69
323.15	1511.2	0.69
328.15	1506.34	0.68
333.15	1501.5	0.68
338.15	1496.67	0.67
343.15	1491.87	0.67

System: 1-ethylpyridinium bis[(trifluoromethyl)sulfonyl]imide; phases: Liquid
Fixed: Pressure, kPa = 101.325
Property: Speed of sound, m/s (Liquid); method: Sing-around technique in a fixed-path interferometer
Temperature, K	Speed of sound, m/s	uncertainty
293.15	1279.1	1.5
298.15	1268.1	1.5
303.15	1257.1	1.5
308.15	1246.3	1.5
313.15	1235.6	1.5
318.15	1225	1.5
323.15	1214.5	1.5
328.15	1204.2	1.5
333.15	1193.9	1.5
338.15	1183.8	1.5
343.15	1173.8	1.5

System: 1-ethylpyridinium bis[(trifluoromethyl)sulfonyl]imide; phases: Liquid
Fixed: Pressure, kPa = 101.325
Property: Refractive index (Na D-line) (Liquid); method: Standard Abbe refractometry
Temperature, K	Refractive index (Na D-line)	uncertainty
293.15	1.44227	0.00037
298.15	1.44091	0.00037
303.15	1.43939	0.00037
308.15	1.43788	0.00037
313.15	1.43637	0.00037
318.15	1.4349	0.00037
323.15	1.43339	0.00037
328.15	1.43193	0.00037
333.15	1.43048	0.00037
338.15	1.42905	0.00037
343.15	1.42762	0.00037

System: 1-ethylpyridinium bis[(trifluoromethyl)sulfonyl]imide; phases: Liquid
Fixed: Pressure, kPa = 101.325
Property: Viscosity, Pa*s (Liquid); method: Falling or rolling sphere viscometry
Temperature, K	Viscosity, Pa*s	uncertainty
293.15	0.05027	0.00104
298.15	0.04108	0.0009
303.15	0.03417	0.00075
308.15	0.02879	0.00063
313.15	0.02458	0.00054
318.15	0.02118	0.00046
323.15	0.01848	0.0004
328.15	0.01626	0.00035
333.15	0.01435	0.00031
338.15	0.01279	0.00028
343.15	0.01148	0.00025

System: 1-ethyl-2-methylpyridinium bis((trifluoromethyl)sulfonyl)amide; phases: Liquid
Fixed: Pressure, kPa = 101.325
Property: Mass density, kg/m3 (Liquid); method: Vibrating tube method
Temperature, K	Mass density, kg/m3	uncertainty
293.15	1510.22	0.69
298.15	1505.35	0.68
303.15	1500.5	0.68
308.15	1495.66	0.67
313.15	1490.85	0.67
318.15	1486.06	0.66
323.15	1481.29	0.66
328.15	1476.54	0.65
333.15	1471.81	0.65
338.15	1467.11	0.64
343.15	1462.42	0.64

System: 1-ethyl-2-methylpyridinium bis((trifluoromethyl)sulfonyl)amide; phases: Liquid
Fixed: Pressure, kPa = 101.325
Property: Speed of sound, m/s (Liquid); method: Sing-around technique in a fixed-path interferometer
Temperature, K	Speed of sound, m/s	uncertainty
293.15	1310.9	1.5
298.15	1299.5	1.5
303.15	1288.5	1.5
308.15	1277.3	1.5
313.15	1266.3	1.5
318.15	1255.4	1.5
323.15	1244.6	1.5
328.15	1234	1.5
333.15	1223.4	1.5
338.15	1213	1.5
343.15	1202.7	1.5

System: 1-ethyl-2-methylpyridinium bis((trifluoromethyl)sulfonyl)amide; phases: Liquid
Fixed: Pressure, kPa = 101.325
Property: Refractive index (Na D-line) (Liquid); method: Standard Abbe refractometry
Temperature, K	Refractive index (Na D-line)	uncertainty
293.15	1.44938	0.00037
298.15	1.44789	0.00037
303.15	1.4464	0.00037
308.15	1.44493	0.00037
313.15	1.44343	0.00037
318.15	1.44181	0.00037
323.15	1.44037	0.00037
328.15	1.4388	0.00037
333.15	1.43744	0.00037
338.15	1.43599	0.00037
343.15	1.43454	0.00037

System: 1-ethyl-2-methylpyridinium bis((trifluoromethyl)sulfonyl)amide; phases: Liquid
Fixed: Pressure, kPa = 101.325
Property: Viscosity, Pa*s (Liquid); method: Falling or rolling sphere viscometry
Temperature, K	Viscosity, Pa*s	uncertainty
293.15	0.09702	0.00282
298.15	0.07584	0.00185
303.15	0.06069	0.00131
308.15	0.04976	0.00109
313.15	0.04104	0.0009
318.15	0.0343	0.00075
323.15	0.02905	0.00063
328.15	0.02486	0.00054
333.15	0.02151	0.00047
338.15	0.01871	0.00041
343.15	0.01654	0.00036

System: 1-ethyl-3-methylpyridinium bis((trifluoromethyl)sulfonyl)amide; phases: Liquid
Fixed: Pressure, kPa = 101.325
Property: Mass density, kg/m3 (Liquid); method: Vibrating tube method
Temperature, K	Mass density, kg/m3	uncertainty
293.15	1493.4	0.67
298.15	1488.54	0.66
303.15	1483.69	0.66
308.15	1478.86	0.65
313.15	1474.05	0.65
318.15	1469.26	0.65
323.15	1464.49	0.64
328.15	1459.74	0.64
333.15	1455.01	0.63
338.15	1450.3	0.63
343.15	1445.6	0.62

System: 1-ethyl-3-methylpyridinium bis((trifluoromethyl)sulfonyl)amide; phases: Liquid
Fixed: Pressure, kPa = 101.325
Property: Speed of sound, m/s (Liquid); method: Sing-around technique in a fixed-path interferometer
Temperature, K	Speed of sound, m/s	uncertainty
293.15	1270.6	1.5
298.15	1259.6	1.5
303.15	1248.5	1.5
308.15	1237.5	1.5
313.15	1226.7	1.5
318.15	1216	1.5
323.15	1205.4	1.5
328.15	1194.9	1.5
333.15	1184.6	1.5
338.15	1174.3	1.5
343.15	1164.2	1.5

System: 1-ethyl-3-methylpyridinium bis((trifluoromethyl)sulfonyl)amide; phases: Liquid
Fixed: Pressure, kPa = 101.325
Property: Refractive index (Na D-line) (Liquid); method: Standard Abbe refractometry
Temperature, K	Refractive index (Na D-line)	uncertainty
293.15	1.44503	0.00037
298.15	1.44355	0.00037
303.15	1.44204	0.00037
308.15	1.44056	0.00037
313.15	1.43904	0.00037
318.15	1.43751	0.00037
323.15	1.43599	0.00037
328.15	1.43451	0.00037
333.15	1.43304	0.00037
338.15	1.4316	0.00037
343.15	1.43014	0.00037

System: 1-ethyl-3-methylpyridinium bis((trifluoromethyl)sulfonyl)amide; phases: Liquid
Fixed: Pressure, kPa = 101.325
Property: Viscosity, Pa*s (Liquid); method: Falling or rolling sphere viscometry
Temperature, K	Viscosity, Pa*s	uncertainty
293.15	0.04785	0.00105
298.15	0.03908	0.00085
303.15	0.03233	0.00071
308.15	0.02712	0.00059
313.15	0.02306	0.0005
318.15	0.01981	0.00043
323.15	0.01732	0.00038
328.15	0.01515	0.00033
333.15	0.01339	0.00029
338.15	0.01192	0.00026
343.15	0.01067	0.00023

System: 1-ethyl-4-methylpyridinium bis((trifluoromethyl)sulfonyl)amide; phases: Liquid
Fixed: Pressure, kPa = 101.325
Property: Mass density, kg/m3 (Liquid); method: Vibrating tube method
Temperature, K	Mass density, kg/m3	uncertainty
293.15	1491.6	0.67
298.15	1486.67	0.66
303.15	1481.76	0.66
308.15	1476.87	0.65
313.15	1472	0.65
318.15	1467.15	0.64
323.15	1462.32	0.64
328.15	1457.52	0.63
333.15	1452.73	0.63
338.15	1447.96	0.62
343.15	1443.21	0.62

System: 1-ethyl-4-methylpyridinium bis((trifluoromethyl)sulfonyl)amide; phases: Liquid
Fixed: Pressure, kPa = 101.325
Property: Speed of sound, m/s (Liquid); method: Sing-around technique in a fixed-path interferometer
Temperature, K	Speed of sound, m/s	uncertainty
293.15	1275.3	1.5
298.15	1263.8	1.5
303.15	1252.4	1.5
308.15	1241.2	1.5
313.15	1230.1	1.5
318.15	1219.2	1.5
323.15	1208.3	1.5
328.15	1197.3	1.5
333.15	1187	1.5
338.15	1176.5	1.5
343.15	1166.1	1.5

System: 1-ethyl-4-methylpyridinium bis((trifluoromethyl)sulfonyl)amide; phases: Liquid
Fixed: Pressure, kPa = 101.325
Property: Refractive index (Na D-line) (Liquid); method: Standard Abbe refractometry
Temperature, K	Refractive index (Na D-line)	uncertainty
293.15	1.44562	0.00037
298.15	1.44412	0.00037
303.15	1.4426	0.00037
308.15	1.44108	0.00037
313.15	1.43954	0.00037
318.15	1.43794	0.00037
323.15	1.43641	0.00037
328.15	1.43493	0.00037
333.15	1.43344	0.00037
338.15	1.43195	0.00037
343.15	1.43047	0.00037

System: 1-ethyl-4-methylpyridinium bis((trifluoromethyl)sulfonyl)amide; phases: Liquid
Fixed: Pressure, kPa = 101.325
Property: Viscosity, Pa*s (Liquid); method: Falling or rolling sphere viscometry
Temperature, K	Viscosity, Pa*s	uncertainty
293.15	0.04001	0.00087
298.15	0.03283	0.00072
303.15	0.02739	0.0006
308.15	0.02317	0.00051
313.15	0.0198	0.00043
318.15	0.01717	0.00037
323.15	0.015	0.00033
328.15	0.01326	0.00029
333.15	0.01182	0.00026
338.15	0.01057	0.00023
343.15	0.00951	0.000207

System: water + 1-ethylpyridinium bis[(trifluoromethyl)sulfonyl]imide; phases: Liquid
Fixed: Pressure, kPa = 101.3
Property: Mass density, kg/m3 (Liquid); method: Vibrating tube method
Mole fraction of water	Temperature, K	Mass density, kg/m3	uncertainty
0.16	298.15	1526.97	1.05
0.16	303.15	1521.95	1.05
0.16	308.15	1516.97	1.05
0.16	313.15	1512	1.06
0.16	318.15	1507.04	1.06
0.16	323.15	1502.11	1.06
0.16	328.15	1497.2	1.06
0.16	333.15	1492.3	1.07
0.16	338.15	1487.43	1.07
0.16	343.15	1482.56	1.07
0.213	298.15	1523.14	1.08
0.213	303.15	1518.1	1.08
0.213	308.15	1513.09	1.09
0.213	313.15	1508.09	1.09
0.213	318.15	1503.11	1.09
0.213	323.15	1498.16	1.1
0.213	328.15	1493.22	1.1
0.213	333.15	1488.3	1.11
0.213	338.15	1483.4	1.11
0.213	343.15	1478.5	1.11
0.311	298.15	1515.34	1.07
0.311	303.15	1510.26	1.07
0.311	308.15	1505.19	1.08
0.311	313.15	1500.14	1.08
0.311	318.15	1495.11	1.09
0.311	323.15	1490.1	1.09
0.311	328.15	1485.1	1.1
0.311	333.15	1480.12	1.1
0.311	338.15	1475.16	1.11
0.311	343.15	1470.22	1.11

System: water + 1-ethylpyridinium bis[(trifluoromethyl)sulfonyl]imide; phases: Liquid
Fixed: Pressure, kPa = 101.3
Property: Speed of sound, m/s (Liquid); method: Sing-around technique in a fixed-path interferometer
Mole fraction of water	Temperature, K	Speed of sound, m/s	uncertainty
0.16	298.15	1270.7	1.5
0.16	303.15	1259.7	1.5
0.16	308.15	1248.8	1.5
0.16	313.15	1238	1.5
0.16	318.15	1227.4	1.5
0.16	323.15	1216.9	1.5
0.16	328.15	1206.4	1.5
0.16	333.15	1196.1	1.5
0.16	338.15	1185.9	1.5
0.16	343.15	1175.7	1.5
0.213	298.15	1272.3	1.5
0.213	303.15	1261.3	1.5
0.213	308.15	1250.4	1.5
0.213	313.15	1239.6	1.5
0.213	318.15	1228.9	1.5
0.213	323.15	1218.3	1.5
0.213	328.15	1207.8	1.5
0.213	333.15	1197.4	1.5
0.213	338.15	1187.1	1.5
0.213	343.15	1176.9	1.5
0.311	298.15	1276	1.5
0.311	303.15	1265	1.5
0.311	308.15	1254	1.5
0.311	313.15	1243.2	1.4
0.311	318.15	1232.4	1.4
0.311	323.15	1221.8	1.4
0.311	328.15	1211.2	1.4
0.311	333.15	1200.7	1.4
0.311	338.15	1190.3	1.4
0.311	343.15	1180	1.4

System: water + 1-ethylpyridinium bis[(trifluoromethyl)sulfonyl]imide; phases: Liquid
Fixed: Pressure, kPa = 101.3
Property: Refractive index (Na D-line) (Liquid); method: Standard Abbe refractometry
Mole fraction of water	Temperature, K	Refractive index (Na D-line)	uncertainty
0.16	298.15	1.43876	0.00038
0.16	303.15	1.4374	0.00037
0.16	308.15	1.43587	0.00037
0.16	313.15	1.4344	0.00036
0.16	318.15	1.43296	0.00036
0.16	323.15	1.43144	0.00036
0.16	328.15	1.43003	0.00036
0.16	333.15	1.42859	0.00036
0.16	338.15	1.42719	0.00036
0.16	343.15	1.42569	0.00036
0.213	298.15	1.43815	0.00038
0.213	303.15	1.43684	0.00038
0.213	308.15	1.43539	0.00037
0.213	313.15	1.43415	0.00037
0.213	318.15	1.43277	0.00036
0.213	323.15	1.43144	0.00036
0.213	328.15	1.42994	0.00035
0.213	333.15	1.42857	0.00035
0.213	338.15	1.42725	0.00035
0.213	343.15	1.42589	0.00035
0.311	298.15	1.43705	0.00037
0.311	303.15	1.43552	0.00037
0.311	308.15	1.43461	0.00036
0.311	313.15	1.43318	0.00036
0.311	318.15	1.43193	0.00036
0.311	323.15	1.43082	0.00035
0.311	328.15	1.42955	0.00035
0.311	333.15	1.42824	0.00035
0.311	338.15	1.42694	0.00035
0.311	343.15	1.42551	0.00035

System: water + 1-ethylpyridinium bis[(trifluoromethyl)sulfonyl]imide; phases: Liquid
Fixed: Pressure, kPa = 101.3
Property: Viscosity, Pa*s (Liquid); method: Falling or rolling sphere viscometry
Mole fraction of water	Temperature, K	Viscosity, Pa*s	uncertainty
0.16	298.15	0.02914	0.00096
0.16	303.15	0.02471	0.00086
0.16	308.15	0.0213	0.00074
0.16	313.15	0.01853	0.00065
0.16	318.15	0.01621	0.00057
0.16	323.15	0.01416	0.00047
0.16	328.15	0.0125	0.00039
0.16	333.15	0.01114	0.00034
0.16	338.15	0.009991	0.000295
0.16	343.15	0.009019	0.000257
0.213	298.15	0.02597	0.00077
0.213	303.15	0.02207	0.00067
0.213	308.15	0.01895	0.00058
0.213	313.15	0.0164	0.00051
0.213	318.15	0.01434	0.00045
0.213	323.15	0.01271	0.00039
0.213	328.15	0.01135	0.00034
0.213	333.15	0.01018	0.0003
0.213	338.15	0.009164	0.000269
0.213	343.15	0.008282	0.000242
0.311	298.15	0.02245	0.00065
0.311	303.15	0.01874	0.00055
0.311	308.15	0.01602	0.00048
0.311	313.15	0.0138	0.00042
0.311	318.15	0.0121	0.00037
0.311	323.15	0.01071	0.00033
0.311	328.15	0.009547	0.000297
0.311	333.15	0.008555	0.000267
0.311	338.15	0.007709	0.00024
0.311	343.15	0.006971	0.00022

System: water + 1-ethylpyridinium bis[(trifluoromethyl)sulfonyl]imide; phases: Liquid
Fixed: Temperature, K = 298.2
Fixed: Pressure, kPa = 101.3
Property: (Relative) activity of water (Liquid); method: Sanyo Environmental Test Chamber
Mole fraction of water	(Relative) activity of water	uncertainty
0.16	0.6	0.04
0.213	0.8	0.04

System: water + 1-ethylpyridinium bis[(trifluoromethyl)sulfonyl]imide; phases: Liquid mixture 1, Liquid mixture 2
Property: Mole fraction of water (Liquid mixture 1); method: Titration method
Temperature, K	Pressure, kPa	Mole fraction of water	uncertainty
298.2	101.3	0.311	0.013

System: water + 1-ethyl-2-methylpyridinium bis((trifluoromethyl)sulfonyl)amide; phases: Liquid
Fixed: Pressure, kPa = 101.3
Property: Mass density, kg/m3 (Liquid); method: Vibrating tube method
Mole fraction of water	Temperature, K	Mass density, kg/m3	uncertainty
0.124	298.15	1498.88	0.85
0.124	303.15	1493.99	0.85
0.124	308.15	1489.12	0.85
0.124	313.15	1484.26	0.85
0.124	318.15	1479.43	0.85
0.124	323.15	1474.61	0.85
0.124	328.15	1469.81	0.85
0.124	333.15	1465.03	0.85
0.124	338.15	1460.28	0.85
0.124	343.15	1455.53	0.85
0.172	298.15	1496.43	0.92
0.172	303.15	1491.53	0.92
0.172	308.15	1486.64	0.92
0.172	313.15	1481.77	0.93
0.172	318.15	1476.91	0.93
0.172	323.15	1472.08	0.93
0.172	328.15	1467.26	0.93
0.172	333.15	1462.46	0.94
0.172	338.15	1457.68	0.94
0.172	343.15	1452.91	0.94
0.256	298.15	1490.94	0.93
0.256	303.15	1485.99	0.93
0.256	308.15	1481.06	0.94
0.256	313.15	1476.14	0.94
0.256	318.15	1471.25	0.94
0.256	323.15	1466.37	0.95
0.256	328.15	1461.5	0.95
0.256	333.15	1456.65	0.96
0.256	338.15	1451.82	0.96
0.256	343.15	1447.01	0.96

System: water + 1-ethyl-2-methylpyridinium bis((trifluoromethyl)sulfonyl)amide; phases: Liquid
Fixed: Pressure, kPa = 101.3
Property: Speed of sound, m/s (Liquid); method: Sing-around technique in a fixed-path interferometer
Mole fraction of water	Temperature, K	Speed of sound, m/s	uncertainty
0.124	298.15	1301.6	1.5
0.124	303.15	1290.2	1.5
0.124	308.15	1279	1.5
0.124	313.15	1267.9	1.5
0.124	318.15	1256.9	1.5
0.124	323.15	1246	1.5
0.124	328.15	1235.3	1.5
0.124	333.15	1224.6	1.5
0.124	338.15	1214	1.5
0.124	343.15	1203.5	1.5
0.172	298.15	1302.6	1.5
0.172	303.15	1291.2	1.5
0.172	308.15	1279.9	1.5
0.172	313.15	1268.8	1.5
0.172	318.15	1257.8	1.5
0.172	323.15	1246.8	1.5
0.172	328.15	1236	1.5
0.172	333.15	1225.3	1.5
0.172	338.15	1214.6	1.5
0.172	343.15	1204.1	1.5
0.256	298.15	1304.6	1.4
0.256	303.15	1293.2	1.4
0.256	308.15	1282.2	1.4
0.256	313.15	1271	1.4
0.256	318.15	1259.9	1.4
0.256	323.15	1248.8	1.4
0.256	328.15	1237.9	1.4
0.256	333.15	1227.1	1.4
0.256	338.15	1216.3	1.4
0.256	343.15	1205.6	1.4

System: water + 1-ethyl-2-methylpyridinium bis((trifluoromethyl)sulfonyl)amide; phases: Liquid
Fixed: Pressure, kPa = 101.3
Property: Refractive index (Na D-line) (Liquid); method: Standard Abbe refractometry
Mole fraction of water	Temperature, K	Refractive index (Na D-line)	uncertainty
0.124	298.15	1.44635	0.00039
0.124	303.15	1.44489	0.00038
0.124	308.15	1.44343	0.00038
0.124	313.15	1.44195	0.00039
0.124	318.15	1.4405	0.00039
0.124	323.15	1.43906	0.00039
0.124	328.15	1.43777	0.00038
0.124	333.15	1.43633	0.00038
0.124	338.15	1.43494	0.00038
0.124	343.15	1.43355	0.00037
0.172	298.15	1.44579	0.00038
0.172	303.15	1.44442	0.00039
0.172	308.15	1.44289	0.00039
0.172	313.15	1.44136	0.00038
0.172	318.15	1.43988	0.00038
0.172	323.15	1.43853	0.00037
0.172	328.15	1.4372	0.00037
0.172	333.15	1.43586	0.00037
0.172	338.15	1.43447	0.00036
0.172	343.15	1.43315	0.00036
0.256	298.15	1.44479	0.00038
0.256	303.15	1.44323	0.00039
0.256	308.15	1.44178	0.00038
0.256	313.15	1.44044	0.00037
0.256	318.15	1.43914	0.00036
0.256	323.15	1.43787	0.00036
0.256	328.15	1.43662	0.00036
0.256	333.15	1.43532	0.00036
0.256	338.15	1.43398	0.00035
0.256	343.15	1.43279	0.00035

System: water + 1-ethyl-2-methylpyridinium bis((trifluoromethyl)sulfonyl)amide; phases: Liquid
Fixed: Pressure, kPa = 101.3
Property: Viscosity, Pa*s (Liquid); method: Falling or rolling sphere viscometry
Mole fraction of water	Temperature, K	Viscosity, Pa*s	uncertainty
0.124	298.15	0.05452	0.0018
0.124	303.15	0.0443	0.00161
0.124	308.15	0.03658	0.00129
0.124	313.15	0.03063	0.00104
0.124	318.15	0.02597	0.00086
0.124	323.15	0.02227	0.00072
0.124	328.15	0.01927	0.0006
0.124	333.15	0.01683	0.00053
0.124	338.15	0.01477	0.00045
0.124	343.15	0.01313	0.00037
0.172	298.15	0.04893	0.00165
0.172	303.15	0.03995	0.00136
0.172	308.15	0.03311	0.00111
0.172	313.15	0.02784	0.00091
0.172	318.15	0.02368	0.00076
0.172	323.15	0.02038	0.00064
0.172	328.15	0.01772	0.00055
0.172	333.15	0.01544	0.00047
0.172	338.15	0.01367	0.00041
0.172	343.15	0.01218	0.00036
0.256	298.15	0.0405	0.00149
0.256	303.15	0.03289	0.00115
0.256	308.15	0.02738	0.00096
0.256	313.15	0.02319	0.0008
0.256	318.15	0.01985	0.00067
0.256	323.15	0.01719	0.00057
0.256	328.15	0.01495	0.00049
0.256	333.15	0.01317	0.00042
0.256	338.15	0.01171	0.00037
0.256	343.15	0.01047	0.00033

System: water + 1-ethyl-2-methylpyridinium bis((trifluoromethyl)sulfonyl)amide; phases: Liquid mixture 1, Liquid mixture 2
Property: Mole fraction of water (Liquid mixture 1); method: Titration method
Temperature, K	Pressure, kPa	Mole fraction of water	uncertainty
298.2	101.3	0.256	0.013

System: water + 1-ethyl-2-methylpyridinium bis((trifluoromethyl)sulfonyl)amide; phases: Liquid
Fixed: Temperature, K = 298.2
Fixed: Pressure, kPa = 101.3
Property: (Relative) activity of water (Liquid); method: Sanyo Environmental Test Chamber
Mole fraction of water	(Relative) activity of water	uncertainty
0.124	0.6	0.04
0.172	0.8	0.04

System: water + 1-ethyl-3-methylpyridinium bis((trifluoromethyl)sulfonyl)amide; phases: Liquid
Fixed: Pressure, kPa = 101.3
Property: Mass density, kg/m3 (Liquid); method: Vibrating tube method
Mole fraction of water	Temperature, K	Mass density, kg/m3	uncertainty
0.131	298.15	1481.91	0.77
0.131	303.15	1477.02	0.77
0.131	308.15	1472.16	0.77
0.131	313.15	1467.31	0.77
0.131	318.15	1462.48	0.77
0.131	323.15	1457.66	0.77
0.131	328.15	1452.87	0.77
0.131	333.15	1448.09	0.77
0.131	338.15	1443.32	0.77
0.131	343.15	1438.57	0.77
0.189	298.15	1479.39	0.89
0.189	303.15	1474.49	0.9
0.189	308.15	1469.6	0.9
0.189	313.15	1464.73	0.9
0.189	318.15	1459.88	0.91
0.189	323.15	1455.04	0.91
0.189	328.15	1450.22	0.91
0.189	333.15	1445.42	0.92
0.189	338.15	1440.63	0.92
0.189	343.15	1435.85	0.92
0.266	298.15	1473.92	0.98
0.266	303.15	1468.97	0.98
0.266	308.15	1464.04	0.99
0.266	313.15	1459.12	0.99
0.266	318.15	1454.22	1
0.266	323.15	1449.34	1
0.266	328.15	1444.47	1.01
0.266	333.15	1439.61	1.01
0.266	338.15	1434.78	1.02
0.266	343.15	1429.95	1.02

System: water + 1-ethyl-3-methylpyridinium bis((trifluoromethyl)sulfonyl)amide; phases: Liquid
Fixed: Pressure, kPa = 101.3
Property: Speed of sound, m/s (Liquid); method: Sing-around technique in a fixed-path interferometer
Mole fraction of water	Temperature, K	Speed of sound, m/s	uncertainty
0.131	298.15	1262.7	1.5
0.131	303.15	1251.8	1.5
0.131	308.15	1240.8	1.5
0.131	313.15	1229.9	1.5
0.131	318.15	1219.1	1.5
0.131	323.15	1208.4	1.5
0.131	328.15	1197.8	1.5
0.131	333.15	1187.3	1.5
0.131	338.15	1176.9	1.5
0.131	343.15	1166.6	1.5
0.189	298.15	1264.6	1.5
0.189	303.15	1253.4	1.5
0.189	308.15	1242.3	1.5
0.189	313.15	1231.4	1.5
0.189	318.15	1220.5	1.5
0.189	323.15	1209.5	1.5
0.189	328.15	1199.2	1.5
0.189	333.15	1188.6	1.5
0.189	338.15	1178.2	1.5
0.189	343.15	1167.8	1.5
0.266	298.15	1268.3	1.5
0.266	303.15	1257.1	1.5
0.266	308.15	1246	1.5
0.266	313.15	1234.9	1.5
0.266	318.15	1224	1.5
0.266	323.15	1213.2	1.5
0.266	328.15	1202.4	1.5
0.266	333.15	1191.8	1.5
0.266	338.15	1181.2	1.5
0.266	343.15	1170.8	1.5

System: water + 1-ethyl-3-methylpyridinium bis((trifluoromethyl)sulfonyl)amide; phases: Liquid
Fixed: Pressure, kPa = 101.3
Property: Refractive index (Na D-line) (Liquid); method: Standard Abbe refractometry
Mole fraction of water	Temperature, K	Refractive index (Na D-line)	uncertainty
0.131	298.15	1.44197	0.00037
0.131	303.15	1.44057	0.00037
0.131	308.15	1.4391	0.00038
0.131	313.15	1.43766	0.00037
0.131	318.15	1.43623	0.00037
0.131	323.15	1.4348	0.00038
0.131	328.15	1.43338	0.00038
0.131	333.15	1.43195	0.00037
0.131	338.15	1.43052	0.00038
0.131	343.15	1.42911	0.00038
0.189	298.15	1.44144	0.00039
0.189	303.15	1.44005	0.00038
0.189	308.15	1.43852	0.00038
0.189	313.15	1.43716	0.00038
0.189	318.15	1.43573	0.00036
0.189	323.15	1.43425	0.00036
0.189	328.15	1.43281	0.00036
0.189	333.15	1.43142	0.00036
0.189	338.15	1.42999	0.00036
0.189	343.15	1.42853	0.00036
0.266	298.15	1.44013	0.0004
0.266	303.15	1.43917	0.00038
0.266	308.15	1.43769	0.00037
0.266	313.15	1.43624	0.00037
0.266	318.15	1.43533	0.00036
0.266	323.15	1.43385	0.00035
0.266	328.15	1.43261	0.00035
0.266	333.15	1.43119	0.00035
0.266	338.15	1.42974	0.00035
0.266	343.15	1.42835	0.00035

System: water + 1-ethyl-3-methylpyridinium bis((trifluoromethyl)sulfonyl)amide; phases: Liquid
Fixed: Pressure, kPa = 101.3
Property: Viscosity, Pa*s (Liquid); method: Falling or rolling sphere viscometry
Mole fraction of water	Temperature, K	Viscosity, Pa*s	uncertainty
0.131	298.15	0.02975	0.00083
0.131	303.15	0.02496	0.00073
0.131	308.15	0.02121	0.00061
0.131	313.15	0.01824	0.00051
0.131	318.15	0.01579	0.00044
0.131	323.15	0.01384	0.00038
0.131	328.15	0.01227	0.00033
0.131	333.15	0.01095	0.00029
0.131	338.15	0.009815	0.000259
0.131	343.15	0.008833	0.000228
0.189	298.15	0.0272	0.00079
0.189	303.15	0.02292	0.00067
0.189	308.15	0.01952	0.00056
0.189	313.15	0.01684	0.00049
0.189	318.15	0.01461	0.00042
0.189	323.15	0.01288	0.00037
0.189	328.15	0.01144	0.00032
0.189	333.15	0.01021	0.00029
0.189	338.15	0.009153	0.000259
0.189	343.15	0.008239	0.000232
0.266	298.15	0.02389	0.00073
0.266	303.15	0.02003	0.00059
0.266	308.15	0.01709	0.00051
0.266	313.15	0.01462	0.00045
0.266	318.15	0.01274	0.00039
0.266	323.15	0.01123	0.00034
0.266	328.15	0.009965	0.000308
0.266	333.15	0.008892	0.000275
0.266	338.15	0.007977	0.000247
0.266	343.15	0.007182	0.000226

System: water + 1-ethyl-3-methylpyridinium bis((trifluoromethyl)sulfonyl)amide; phases: Liquid mixture 1, Liquid mixture 2
Property: Mole fraction of water (Liquid mixture 1); method: Titration method
Temperature, K	Pressure, kPa	Mole fraction of water	uncertainty
298.2	101.3	0.266	0.013

System: water + 1-ethyl-3-methylpyridinium bis((trifluoromethyl)sulfonyl)amide; phases: Liquid
Fixed: Temperature, K = 298.2
Fixed: Pressure, kPa = 101.3
Property: (Relative) activity of water (Liquid); method: Sanyo Environmental Test Chamber
Mole fraction of water	(Relative) activity of water	uncertainty
0.131	0.6	0.04
0.189	0.8	0.04

System: water + 1-ethyl-4-methylpyridinium bis((trifluoromethyl)sulfonyl)amide; phases: Liquid
Fixed: Pressure, kPa = 101.3
Property: Mass density, kg/m3 (Liquid); method: Vibrating tube method
Mole fraction of water	Temperature, K	Mass density, kg/m3	uncertainty
0.144	298.15	1479.48	0.82
0.144	303.15	1474.53	0.82
0.144	308.15	1469.61	0.83
0.144	313.15	1464.69	0.83
0.144	318.15	1459.79	0.83
0.144	323.15	1454.91	0.83
0.144	328.15	1450.05	0.83
0.144	333.15	1445.21	0.83
0.144	338.15	1440.39	0.83
0.144	343.15	1435.58	0.83
0.201	298.15	1476.6	0.88
0.201	303.15	1471.63	0.89
0.201	308.15	1466.68	0.96
0.201	313.15	1461.75	0.89
0.201	318.15	1456.83	0.9
0.201	323.15	1451.92	0.9
0.201	328.15	1447.04	0.9
0.201	333.15	1442.18	0.91
0.201	338.15	1437.33	0.91
0.201	343.15	1432.49	0.91
0.306	298.15	1469.91	0.89
0.306	303.15	1464.89	0.92
0.306	308.15	1459	0.93
0.306	313.15	1454.92	0.93
0.306	318.15	1449.95	0.9
0.306	323.15	1444.99	0.91
0.306	328.15	1440.05	0.91
0.306	333.15	1435.13	0.91
0.306	338.15	1430.22	0.92
0.306	343.15	1425.33	0.92

System: water + 1-ethyl-4-methylpyridinium bis((trifluoromethyl)sulfonyl)amide; phases: Liquid
Fixed: Pressure, kPa = 101.3
Property: Speed of sound, m/s (Liquid); method: Sing-around technique in a fixed-path interferometer
Mole fraction of water	Temperature, K	Speed of sound, m/s	uncertainty
0.144	298.15	1266.8	1.5
0.144	303.15	1255.4	1.5
0.144	308.15	1244.1	1.5
0.144	313.15	1232.9	1.5
0.144	318.15	1221.8	1.5
0.144	323.15	1210.9	1.5
0.144	328.15	1200.1	1.5
0.144	333.15	1189.4	1.5
0.144	338.15	1178.7	1.5
0.144	343.15	1168.2	1.5
0.201	298.15	1268.3	1.5
0.201	303.15	1256.8	1.5
0.201	308.15	1245.5	1.5
0.201	313.15	1234.3	1.5
0.201	318.15	1223.2	1.5
0.201	323.15	1212.2	1.5
0.201	328.15	1201.3	1.5
0.201	333.15	1190.6	1.5
0.201	338.15	1179.9	1.5
0.201	343.15	1169.3	1.5
0.306	298.15	1271.7	1.4
0.306	303.15	1260.3	1.4
0.306	308.15	1249.2	1.4
0.306	313.15	1238	1.4
0.306	318.15	1226.8	1.4
0.306	323.15	1215.7	1.4
0.306	328.15	1204.7	1.4
0.306	333.15	1193.9	1.4
0.306	338.15	1183	1.4
0.306	343.15	1172.2	1.4

System: water + 1-ethyl-4-methylpyridinium bis((trifluoromethyl)sulfonyl)amide; phases: Liquid
Fixed: Pressure, kPa = 101.3
Property: Refractive index (Na D-line) (Liquid); method: Standard Abbe refractometry
Mole fraction of water	Temperature, K	Refractive index (Na D-line)	uncertainty
0.144	298.15	1.44235	0.00039
0.144	303.15	1.44089	0.00039
0.144	308.15	1.4394	0.00038
0.144	313.15	1.43785	0.00039
0.144	318.15	1.43674	0.00039
0.144	323.15	1.43532	0.00041
0.144	328.15	1.43396	0.00041
0.144	333.15	1.43253	0.00041
0.144	338.15	1.43108	0.00041
0.144	343.15	1.42964	0.0004
0.201	298.15	1.44165	0.00039
0.201	303.15	1.44016	0.00039
0.201	308.15	1.43875	0.00039
0.201	313.15	1.43727	0.0004
0.201	318.15	1.4359	0.00039
0.201	323.15	1.43441	0.00037
0.201	328.15	1.43298	0.00037
0.201	333.15	1.43159	0.00037
0.201	338.15	1.43016	0.00037
0.201	343.15	1.42874	0.00037
0.306	298.15	1.44005	0.00039
0.306	303.15	1.43866	0.00039
0.306	308.15	1.43719	0.00039
0.306	313.15	1.4355	0.00039
0.306	318.15	1.4346	0.00038
0.306	323.15	1.43373	0.00036
0.306	328.15	1.4324	0.00035
0.306	333.15	1.43102	0.00035
0.306	338.15	1.42965	0.00035
0.306	343.15	1.42828	0.00035

System: water + 1-ethyl-4-methylpyridinium bis((trifluoromethyl)sulfonyl)amide; phases: Liquid
Fixed: Pressure, kPa = 101.3
Property: Viscosity, Pa*s (Liquid); method: Falling or rolling sphere viscometry
Mole fraction of water	Temperature, K	Viscosity, Pa*s	uncertainty
0.144	298.15	0.02489	0.00071
0.144	303.15	0.02105	0.00063
0.144	308.15	0.01804	0.00053
0.144	313.15	0.01553	0.00045
0.144	318.15	0.01359	0.00038
0.144	323.15	0.01203	0.00033
0.144	328.15	0.0107	0.00029
0.144	333.15	0.009576	0.000257
0.144	338.15	0.008598	0.000231
0.144	343.15	0.00776	0.000203
0.201	298.15	0.02272	0.00064
0.201	303.15	0.01929	0.00055
0.201	308.15	0.01653	0.00047
0.201	313.15	0.01431	0.0004
0.201	318.15	0.01258	0.00035
0.201	323.15	0.01115	0.00031
0.201	328.15	0.009939	0.000272
0.201	333.15	0.008902	0.000244
0.201	338.15	0.007999	0.000218
0.201	343.15	0.007221	0.000193
0.306	298.15	0.01935	0.00057
0.306	303.15	0.01623	0.00047
0.306	308.15	0.01395	0.00041
0.306	313.15	0.01219	0.00035
0.306	318.15	0.01074	0.00031
0.306	323.15	0.00952	0.000273
0.306	328.15	0.008473	0.000244
0.306	333.15	0.007583	0.000219
0.306	338.15	0.00683	0.000199

System: water + 1-ethyl-4-methylpyridinium bis((trifluoromethyl)sulfonyl)amide; phases: Liquid mixture 1, Liquid mixture 2
Property: Mole fraction of water (Liquid mixture 1); method: Titration method
Temperature, K	Pressure, kPa	Mole fraction of water	uncertainty
298.2	101.3	0.306	0.013

System: water + 1-ethyl-4-methylpyridinium bis((trifluoromethyl)sulfonyl)amide; phases: Liquid
Fixed: Temperature, K = 298.2
Fixed: Pressure, kPa = 101.3
Property: (Relative) activity of water (Liquid); method: Sanyo Environmental Test Chamber
Mole fraction of water	(Relative) activity of water	uncertainty
0.144	0.6	0.04
0.201	0.8	0.04
