Measured thermophysical data. Measurements and modeling of high-temperature, high-pressure density for binary mixtures of propane with n-decane and propane with n-eicosane
Source: J. Chem. Thermodyn., 2015, 10.1016/j.jct.2014.12.015
Compound 1: propane, C3H8, InChI=1S/C3H8/c1-3-2/h3H2,1-2H3, purity 99.97%
Compound 2: decane, C10H22, InChI=1S/C10H22/c1-3-5-7-9-10-8-6-4-2/h3-10H2,1-2H3, purity 99%
Compound 3: eicosane, C20H42, InChI=1S/C20H42/c1-3-5-7-9-11-13-15-17-19-20-18-16-14-12-10-8-6-4-2/h3-20H2,1-2H3, purity 99%

System: propane + decane; phases: Liquid
Property: Mass density, kg/m3 (Liquid); method: ISOCHOR
Pressure, kPa	Temperature, K	Mole fraction of propane	Mass density, kg/m3	uncertainty
8400	344.2	0.3041	665	6
8600	344.2	0.3041	666	6
32100	344.2	0.3041	689	6
32400	344.2	0.3041	689	6
52200	344.2	0.3041	705	6
52200	344.2	0.3041	705	6
74100	344.2	0.3041	720	7
74100	344.2	0.3041	720	7
98200	344.2	0.3041	734	7
98200	344.2	0.3041	734	7
124300	344.2	0.3041	747	7
124500	344.2	0.3041	747	7
146700	344.2	0.3041	758	7
147000	344.2	0.3041	758	7
169600	344.2	0.3041	769	7
170300	344.2	0.3041	769	7
192700	344.2	0.3041	780	7
219900	344.2	0.3041	793	7
258500	344.2	0.3041	807	7
14800	444.3	0.1597	617	6
14800	444.3	0.1597	617	6
28400	444.3	0.1597	636	6
28600	444.3	0.1597	636	6
48000	444.3	0.1597	656	6
48000	444.3	0.1597	656	6
66300	444.3	0.1597	671	6
66400	444.3	0.1597	671	6
86600	444.3	0.1597	686	6
86800	444.3	0.1597	686	6
109100	444.3	0.1597	700	6
108800	444.3	0.1597	700	6
128700	444.3	0.1597	711	6
128800	444.3	0.1597	711	6
155400	444.3	0.1597	724	7
155500	444.3	0.1597	724	7
184100	444.3	0.1597	739	7
184300	444.3	0.1597	739	7
209200	444.3	0.1597	747	7
242600	444.3	0.1597	759	7
243400	444.3	0.1597	759	7
24600	510.5	0.1597	597	5
38500	510.5	0.1597	619	6
38600	510.5	0.1597	619	6
45000	510.5	0.1597	627	6
45200	510.5	0.1597	627	6
63400	510.5	0.1597	647	6
63700	510.5	0.1597	647	6
81900	510.5	0.1597	664	6
82100	510.5	0.1597	664	6
102700	510.5	0.1597	679	7
103000	510.5	0.1597	680	7
126200	510.5	0.1597	695	6
126500	510.5	0.1597	695	6
152100	510.5	0.1597	710	6
152200	510.5	0.1597	710	6
175600	510.5	0.1597	722	7
175600	510.5	0.1597	722	7
202500	510.5	0.1597	731	7
229900	510.5	0.1597	744	7
260900	510.5	0.1597	754	7
3500	344.2	0.421	641	6
3600	344.2	0.421	641	6
8100	344.2	0.421	645	6
11500	344.2	0.421	651	6
22700	344.2	0.421	663	6
32000	344.2	0.421	672	6
37800	344.2	0.421	677	6
51300	344.2	0.421	688	6
51500	344.2	0.421	688	6
73200	344.2	0.421	703	6
73200	344.2	0.421	703	6
97400	344.2	0.421	718	6
97700	344.2	0.421	718	6
123600	344.2	0.421	732	7
123800	344.2	0.421	732	7
146200	344.2	0.421	743	7
146800	344.2	0.421	743	7
167100	344.2	0.421	755	7
167500	344.2	0.421	755	7
193400	344.2	0.421	769	7
194000	344.2	0.421	769	7
217300	344.2	0.421	778	7
248600	344.2	0.421	789	7
248900	344.2	0.421	788	7
11600	444.4	0.421	569	5
17600	444.4	0.421	583	5
27000	444.4	0.421	600	5
34900	444.4	0.421	613	6
49300	444.4	0.421	631	6
53100	444.4	0.421	636	6
70700	444.4	0.421	653	6
71000	444.4	0.421	653	6
90600	444.4	0.421	669	6
90600	444.4	0.421	669	6
112200	444.4	0.421	684	6
112600	444.4	0.421	684	6
136700	444.4	0.421	699	7
137400	444.4	0.421	699	7
161700	444.4	0.421	713	6
189700	444.4	0.421	728	7
221000	444.4	0.421	740	7
251500	444.4	0.421	755	7
17900	511	0.421	523	5
18300	511	0.421	523	5
33900	511	0.421	565	5
34400	511	0.421	565	5
51200	511	0.421	595	5
51800	511	0.421	595	5
67500	511	0.421	615	6
67900	511	0.421	615	6
86300	511	0.421	635	6
86800	511	0.421	635	6
107100	511	0.421	653	6
107800	511	0.421	653	6
130000	511	0.421	671	6
130300	511	0.421	670	6
151900	511	0.421	685	6
152600	511	0.421	685	6
177000	511	0.421	699	6
202000	511	0.421	710	7
202300	511	0.421	710	7
232100	511	0.421	724	7
232800	511	0.421	724	7
260200	511	0.421	736	7
260200	511	0.421	735	7
19700	344.3	0.6052	631	6
20000	344.3	0.6052	632	6
30800	344.3	0.6052	644	7
31200	344.3	0.6052	644	7
48700	344.3	0.6052	661	6
48900	344.3	0.6052	661	6
63800	344.3	0.6052	673	7
65300	344.3	0.6052	673	7
86900	344.3	0.6052	689	6
87800	344.3	0.6052	689	6
113700	344.3	0.6052	704	6
141400	344.3	0.6052	719	7
160200	344.3	0.6052	729	7
161500	344.3	0.6052	729	7
185100	344.3	0.6052	743	7
185300	344.3	0.6052	743	7
220100	344.3	0.6052	759	7
220100	344.3	0.6052	759	7
248200	344.3	0.6052	770	7
249600	344.3	0.6052	770	7
14600	444.3	0.6052	537	5
25900	444.3	0.6052	566	5
26100	444.3	0.6052	566	5
40400	444.3	0.6052	591	5
40500	444.3	0.6052	591	5
58000	444.3	0.6052	613	6
58000	444.3	0.6052	613	6
74900	444.3	0.6052	631	6
75000	444.3	0.6052	631	6
97800	444.3	0.6052	650	8
98200	444.3	0.6052	650	8
119100	444.3	0.6052	666	6
119800	444.3	0.6052	666	6
143200	444.3	0.6052	681	7
143800	444.3	0.6052	682	7
169100	444.3	0.6052	696	7
170200	444.3	0.6052	697	7
198700	444.3	0.6052	711	6
198700	444.3	0.6052	712	6
231600	444.3	0.6052	727	7
259100	444.3	0.6052	737	7
259800	444.3	0.6052	738	7
29900	513.2	0.6052	520	5
30300	513.2	0.6052	521	5
44900	513.2	0.6052	555	5
44900	513.2	0.6052	554	5
61300	513.2	0.6052	581	5
61800	513.2	0.6052	581	5
84100	513.2	0.6052	608	6
84600	513.2	0.6052	608	6
104200	513.2	0.6052	627	6
104700	513.2	0.6052	627	6
131200	513.2	0.6052	649	6
131500	513.2	0.6052	649	6
152400	513.2	0.6052	664	6
153100	513.2	0.6052	664	6
176200	513.2	0.6052	679	6
176400	513.2	0.6052	679	6
196900	513.2	0.6052	689	6
198700	513.2	0.6052	689	6
224000	513.2	0.6052	701	7
224300	513.2	0.6052	700	7
254000	513.2	0.6052	713	6
18400	344.2	0.8156	556	5
23700	344.2	0.8156	564	5
23700	344.2	0.8156	564	5
31500	344.2	0.8156	575	5
31800	344.2	0.8156	575	5
44700	344.2	0.8156	590	5
44900	344.2	0.8156	590	5
59400	344.2	0.8156	604	5
59500	344.2	0.8156	604	6
59700	344.2	0.8156	604	5
79200	344.2	0.8156	620	6
79600	344.2	0.8156	620	6
89700	344.2	0.8156	628	6
107500	344.2	0.8156	639	6
127000	344.2	0.8156	651	6
153500	344.2	0.8156	665	6
176200	344.2	0.8156	675	6
206700	344.2	0.8156	688	6
233000	344.2	0.8156	700	6
261400	344.2	0.8156	713	6
9900	444.3	0.8156	411	4
10700	444.3	0.8156	416	4
17200	444.3	0.8156	462	4
17700	444.3	0.8156	462	4
24400	444.3	0.8156	488	4
24900	444.3	0.8156	488	4
34900	444.3	0.8156	511	5
52400	444.3	0.8156	540	5
52900	444.3	0.8156	540	5
68900	444.3	0.8156	561	5
69900	444.3	0.8156	561	5
82800	444.3	0.8156	574	5
101000	444.3	0.8156	592	5
101800	444.3	0.8156	592	5
117600	444.3	0.8156	605	5
118300	444.3	0.8156	605	5
144300	444.3	0.8156	623	6
168600	444.3	0.8156	638	6
168800	444.3	0.8156	639	6
190000	444.3	0.8156	650	6
190000	444.3	0.8156	650	6
212100	444.3	0.8156	662	6
212800	444.3	0.8156	662	6
236800	444.3	0.8156	672	6
262500	444.3	0.8156	685	6

System: propane + eicosane; phases: Liquid
Property: Mass density, kg/m3 (Liquid); method: ISOCHOR
Pressure, kPa	Temperature, K	Mole fraction of propane	Mass density, kg/m3	uncertainty
6600	324.7	0.3025	724	7
18600	324.7	0.3025	737	7
31100	324.7	0.3025	748	7
51300	324.7	0.3025	761	7
84200	324.7	0.3025	778	7
6800	422.9	0.3025	663	6
18300	422.9	0.3025	680	6
32800	422.9	0.3025	694	6
51100	422.9	0.3025	709	6
73400	422.9	0.3025	724	7
73600	422.9	0.3025	724	7
96200	422.9	0.3025	737	7
125100	422.9	0.3025	752	7
125800	422.9	0.3025	752	7
156600	422.9	0.3025	767	7
188900	422.9	0.3025	780	7
188900	422.9	0.3025	780	7
221000	422.9	0.3025	793	7
236800	422.9	0.3025	798	7
236900	422.9	0.3025	798	7
264400	422.9	0.3025	808	7
17800	516.2	0.3025	626	6
34700	516.2	0.3025	648	6
59600	516.2	0.3025	671	6
82000	516.2	0.3025	687	6
108900	516.2	0.3025	702	6
135800	516.2	0.3025	718	7
6600	325.1	0.6483	687	6
19000	325.1	0.6483	698	6
33600	325.1	0.6483	709	6
52900	325.1	0.6483	721	7
53300	325.1	0.6483	721	7
77800	325.1	0.6483	735	7
91200	325.1	0.6483	742	7
105300	325.1	0.6483	749	7
119800	325.1	0.6483	755	7
10600	420.4	0.6483	620	6
10700	420.4	0.6483	620	6
13800	420.4	0.6483	623	6
23700	420.4	0.6483	640	6
23800	420.4	0.6483	640	6
31500	420.4	0.6483	647	6
41200	420.4	0.6483	660	6
48200	420.4	0.6483	664	6
59600	420.4	0.6483	677	7
60000	420.4	0.6483	678	7
72300	420.4	0.6483	684	6
87100	420.4	0.6483	698	6
98600	420.4	0.6483	701	6
98700	420.4	0.6483	701	6
115100	420.4	0.6483	715	6
129200	420.4	0.6483	719	7
159500	420.4	0.6483	734	7
159700	420.4	0.6483	734	7
191700	420.4	0.6483	748	7
214300	420.4	0.6483	757	8
23700	520.7	0.6483	566	5
48000	520.7	0.6483	609	6
70700	520.7	0.6483	635	6
98600	520.7	0.6483	660	6
125600	520.7	0.6483	679	6
152200	520.7	0.6483	695	6
180200	520.7	0.6483	710	6
203400	520.7	0.6483	721	7
214900	520.7	0.6483	726	7
14600	319.1	0.7375	676	6
22500	319.1	0.7375	681	6
37300	319.1	0.7375	695	6
38400	319.1	0.7375	695	6
50600	319.1	0.7375	706	6
59300	319.1	0.7375	710	6
65300	319.1	0.7375	715	6
76900	319.1	0.7375	721	7
91600	319.1	0.7375	731	7
94000	319.1	0.7375	731	7
102500	319.1	0.7375	737	7
110900	319.1	0.7375	739	7
117600	319.1	0.7375	745	7
126800	319.1	0.7375	747	7
17500	424.5	0.7375	593	5
25500	424.5	0.7375	608	6
30200	424.5	0.7375	616	6
37600	424.5	0.7375	627	6
48000	424.5	0.7375	640	6
59200	424.5	0.7375	651	6
69900	424.5	0.7375	661	6
80800	424.5	0.7375	670	6
91500	424.5	0.7375	678	6
103100	424.5	0.7375	685	6
115600	424.5	0.7375	693	6
136700	424.5	0.7375	704	6
29300	521.5	0.7375	533	5
38000	521.5	0.7375	553	5
48500	521.5	0.7375	572	5
57800	521.5	0.7375	588	6
59300	521.5	0.7375	588	6
69900	521.5	0.7375	600	5
85200	521.5	0.7375	616	6
105400	521.5	0.7375	633	6
121100	521.5	0.7375	643	6
136400	521.5	0.7375	652	6
163700	521.5	0.7375	666	6
196400	521.5	0.7375	680	6
162800	521.5	0.7375	666	6
196400	521.5	0.7375	680	6
222800	521.5	0.7375	690	6
6100	324.6	0.8367	632	6
15700	324.6	0.8367	645	6
15900	324.6	0.8367	645	6
33300	324.6	0.8367	663	6
53500	324.6	0.8367	680	6
54200	324.6	0.8367	680	6
54700	324.6	0.8367	681	6
79000	324.6	0.8367	698	6
83400	324.6	0.8367	699	6
103900	324.6	0.8367	713	6
104600	324.6	0.8367	713	6
112700	324.6	0.8367	718	6
113100	324.6	0.8367	718	6
146300	324.6	0.8367	733	7
172400	324.6	0.8367	747	7
10800	421	0.8367	539	5
10800	421	0.8367	539	5
22600	421	0.8367	568	5
23000	421	0.8367	568	5
43300	421	0.8367	600	5
59200	421	0.8367	622	6
68300	421	0.8367	629	6
90700	421	0.8367	649	6
90900	421	0.8367	649	6
92700	421	0.8367	652	6
93000	421	0.8367	652	6
116000	421	0.8367	669	6
119400	421	0.8367	670	6
145900	421	0.8367	689	6
146700	421	0.8367	687	6
177500	421	0.8367	704	6
177800	421	0.8367	704	6
214100	421	0.8367	721	7
258000	421	0.8367	740	7
5000	322.9	0.931	547	5
13000	322.9	0.931	562	5
23000	322.9	0.931	577	5
36800	322.9	0.931	592	5
51500	322.9	0.931	605	6
70100	322.9	0.931	618	6
95700	322.9	0.931	634	6
120900	322.9	0.931	647	6
142800	322.9	0.931	657	6
168600	322.9	0.931	668	6
203400	322.9	0.931	680	6
11800	422.2	0.931	412	4
18300	422.2	0.931	457	4
24600	422.2	0.931	482	4
36000	422.2	0.931	513	5
50900	422.2	0.931	540	5
64900	422.2	0.931	557	5
84300	422.2	0.931	576	5
104200	422.2	0.931	592	5
131100	422.2	0.931	607	6
151800	422.2	0.931	621	6
172100	422.2	0.931	630	6
208800	422.2	0.931	646	6
35300	524.5	0.931	420	4
49400	524.5	0.931	464	4
68900	524.5	0.931	500	5
86100	524.5	0.931	521	5
111600	524.5	0.931	544	5
132000	524.5	0.931	558	5
165400	524.5	0.931	575	5
188900	524.5	0.931	586	5
218700	524.5	0.931	598	5
241400	524.5	0.931	607	6
247300	524.5	0.931	610	6
104100	521.5	0.7375	632	6
132100	325.1	0.6483	761	7
214600	420.4	0.6483	757	8

System: propane + eicosane; phases: Liquid, Crystal
Property: Vapor or sublimation pressure, kPa (Liquid); method: Closed cell (Static) method
Mole fraction of propane	Temperature, K	Vapor or sublimation pressure, kPa	uncertainty
0.3025	324.7	85500	1400
0.6483	325.1	134700	2800
0.7375	319.2	129000	3700
0.8367	324.6	199300	2700
