Measured thermophysical data. Volumetric and calorimetric investigations of molecular interactions in some amino acids and peptides in the combined presence of surfactants and glycine betaine
Source: J. Chem. Thermodyn., 2012, 10.1016/j.jct.2012.05.031
Compound 1: N,N,N-trimethyl-1-hexadecanaminium bromide, C19H42BrN, InChI=1S/C19H42N.BrH/c1-5-6-7-8-9-10-11-12-13-14-15-16-17-18-19-20(2,3)4;/h5-19H2,1-4H3;1H/q+1;/p-1, purity 99%
Compound 2: (trimethylammonio)acetate, C5H11NO2, InChI=1S/C5H11NO2/c1-6(2,3)4-5(7)8/h4H2,1-3H3, purity 99%
Compound 3: sodium dodecyl sulfate, C12H25NaO4S, InChI=1S/C12H26O4S.Na/c1-2-3-4-5-6-7-8-9-10-11-12-16-17(13,14)15;/h2-12H2,1H3,(H,13,14,15);/q;+1/p-1, purity 99%
Compound 4: water, H2O, InChI=1S/H2O/h1H2

System: N,N,N-trimethyl-1-hexadecanaminium bromide + (trimethylammonio)acetate + water; phases: Liquid
Property: Mass density, kg/m3 (Liquid); method: Vibrating tube method
Molality, mol/kg of (trimethylammonio)acetate	Pressure, kPa	Temperature, K	Molality, mol/kg of N,N,N-trimethyl-1-hexadecanaminium bromide	Mass density, kg/m3	uncertainty
1	101	298.15	0.002	1016.141	0.335

System: N,N,N-trimethyl-1-hexadecanaminium bromide + (trimethylammonio)acetate + water; phases: Liquid
Property: Speed of sound, m/s (Liquid); method: Sing-around technique in a fixed-path interferometer
Molality, mol/kg of (trimethylammonio)acetate	Pressure, kPa	Temperature, K	Molality, mol/kg of N,N,N-trimethyl-1-hexadecanaminium bromide	Speed of sound, m/s	uncertainty
1	101	298.15	0.002	1578.79	1.61

System: (trimethylammonio)acetate + sodium dodecyl sulfate + water; phases: Liquid
Property: Mass density, kg/m3 (Liquid); method: Vibrating tube method
Molality, mol/kg of (trimethylammonio)acetate	Pressure, kPa	Temperature, K	Molality, mol/kg of sodium dodecyl sulfate	Mass density, kg/m3	uncertainty
1	101	298.15	0.01	1016.895	0.157

System: (trimethylammonio)acetate + sodium dodecyl sulfate + water; phases: Liquid
Property: Speed of sound, m/s (Liquid); method: Sing-around technique in a fixed-path interferometer
Molality, mol/kg of (trimethylammonio)acetate	Pressure, kPa	Temperature, K	Molality, mol/kg of sodium dodecyl sulfate	Speed of sound, m/s	uncertainty
1	101	298.15	0.01	1581.34	1.26
