Measured thermophysical data. Vapour pressures of n-pentane determined by comparative ebulliometry
Source: J. Chem. Thermodyn., 2006, 10.1016/j.jct.2005.05.015
Compound 1: pentane, C5H12, InChI=1S/C5H12/c1-3-5-4-2/h3-5H2,1-2H3

System: pentane; phases: Liquid, Gas
Property: Vapor or sublimation pressure, kPa (Liquid); method: Twin ebulliometer
Temperature, K	Vapor or sublimation pressure, kPa	uncertainty
309.323	101.728	0.076
313.848	118.392	0.083
320.2	145.301	0.093
325.218	169.714	0.107
330.836	200.667	0.119
335.216	227.664	0.133
339.514	256.779	0.145
343.316	284.812	0.157
346.781	312.346	0.169
349.919	338.975	0.181
353.482	371.247	0.193
356.788	403.218	0.206
360.011	436.343	0.219
363.242	471.568	0.232
366.374	507.704	0.246
369.924	551.112	0.27
377.192	648.586	0.295
384.193	754.176	0.335
392.523	895.851	0.368
397.801	995.289	0.407
402.588	1092.403	0.437
406.871	1185.12	0.472
412.571	1317.452	0.499
416.132	1405.534	0.525
417.867	1450.019	0.547
420.094	1508.64	0.568
423.755	1608.885	0.593
424.619	1633.209	0.604
427.089	1704.407	0.621
430.444	1804.832	0.647
430.678	1812.002	0.647
433.614	1903.734	0.678
437.574	2033.22	0.706
440.807	2143.723	0.737
443.59	2242.61	0.768
446.647	2355.204	0.795
449.179	2451.91	0.826
451.901	2559.301	0.853
451.989	2562.845	0.853
454.335	2658.582	0.878
455.987	2727.724	0.892
