Measured thermophysical data. Adiabatic compressibility of pseudo-binary aqueous solutions of tert-butyl alcohol and dimethylsulfoxide as a result of ultrasonic investigations
Source: J. Chem. Thermodyn., 2006, 10.1016/j.jct.2006.01.007
Compound 1: 2-methylpropan-2-ol, C4H10O, InChI=1S/C4H10O/c1-4(2,3)5/h5H,1-3H3, purity 99%
Compound 2: water, H2O, InChI=1S/H2O/h1H2
Compound 3: dimethyl sulfoxide, C2H6OS, InChI=1S/C2H6OS/c1-4(2)3/h1-2H3, purity 99.9%

System: 2-methylpropan-2-ol + water; phases: Liquid
Fixed: Pressure, kPa = 101
Fixed: Mole fraction of water = 0.9615
Property: Speed of sound, m/s (Liquid); method: Sing-around technique in a fixed-path interferometer
Temperature, K	Speed of sound, m/s	uncertainty
288.15	1613.71	0.79
293.15	1612.41	0.79
298.15	1610.04	0.79
303.15	1606.45	0.79
308.15	1602.45	0.79
313.15	1597.04	0.79

System: 2-methylpropan-2-ol + water; phases: Liquid
Fixed: Pressure, kPa = 101
Fixed: Mole fraction of water = 0.9615
Property: Mass density, kg/m3 (Liquid); method: VIBTUB:UFactor:8
Temperature, K	Mass density, kg/m3	uncertainty
288.15	980.2	0.5
293.15	978.4	0.5
298.15	976.6	0.5
303.15	973.6	0.5
308.15	971.5	0.5
313.15	968.8	0.5

System: dimethyl sulfoxide + water; phases: Liquid
Fixed: Mole fraction of dimethyl sulfoxide = 0.0385
Fixed: Pressure, kPa = 101
Property: Speed of sound, m/s (Liquid); method: Sing-around technique in a fixed-path interferometer
Temperature, K	Speed of sound, m/s	uncertainty
288.15	1555.18	0.78
293.15	1562.46	0.78
298.15	1568.53	0.78
303.15	1573.38	0.78
308.15	1577	0.78
313.15	1579.41	0.78

System: dimethyl sulfoxide + water; phases: Liquid
Fixed: Mole fraction of dimethyl sulfoxide = 0.0385
Fixed: Pressure, kPa = 101
Property: Mass density, kg/m3 (Liquid); method: VIBTUB:UFactor:8
Temperature, K	Mass density, kg/m3	uncertainty
288.15	1019.8	0.5
293.15	1018.1	0.5
298.15	1016.2	0.5
303.15	1014.4	0.5
308.15	1012.3	0.5
313.15	1010.2	0.5

System: dimethyl sulfoxide + 2-methylpropan-2-ol + water; phases: Liquid
Fixed: Pressure, kPa = 101
Fixed: Mole fraction of water = 0.9615
Property: Speed of sound, m/s (Liquid); method: Sing-around technique in a fixed-path interferometer
Temperature, K	Mole fraction of dimethyl sulfoxide	Speed of sound, m/s	uncertainty
288.15	0	1613.71	0.79
288.15	0.0025	1612.42	0.79
288.15	0.005	1610.4	0.79
288.15	0.008	1606.61	0.79
288.15	0.0096	1604.03	0.79
288.15	0.0118	1600.46	0.79
288.15	0.0128	1598.92	0.79
288.15	0.014	1597.51	0.79
288.15	0.0155	1594.52	0.79
288.15	0.0174	1591.33	0.78
288.15	0.0183	1589.52	0.78
288.15	0.0193	1588.2	0.79
288.15	0.0202	1586	0.78
288.15	0.0218	1583.36	0.79
288.15	0.0221	1582.04	0.79
288.15	0.0241	1579.11	0.79
288.15	0.0256	1576.32	0.78
288.15	0.0269	1573.79	0.78
288.15	0.0289	1570.14	0.78
288.15	0.0307	1567.67	0.78
288.15	0.0346	1560.02	0.78
288.15	0.0385	1555.18	0.78
293.15	0	1612.41	0.79
293.15	0.0025	1611.8	0.79
293.15	0.005	1610.52	0.79
293.15	0.008	1607.69	0.79
293.15	0.0096	1605.51	0.79
293.15	0.0118	1602.76	0.79
293.15	0.0128	1601.47	0.79
293.15	0.014	1600.3	0.79
293.15	0.0155	1597.91	0.79
293.15	0.0174	1594.99	0.78
293.15	0.0183	1593.23	0.78
293.15	0.0193	1592.53	0.78
293.15	0.0202	1590.32	0.78
293.15	0.0218	1588	0.78
293.15	0.0221	1587.03	0.79
293.15	0.0241	1584.94	0.78
293.15	0.0256	1582.31	0.78
293.15	0.0269	1579.49	0.78
293.15	0.0289	1576.13	0.78
293.15	0.0307	1573.88	0.78
293.15	0.0346	1567.21	0.78
293.15	0.0385	1562.46	0.78
298.15	0	1610.04	0.79
298.15	0.0025	1610.41	0.79
298.15	0.005	1609.43	0.79
298.15	0.008	1607.72	0.79
298.15	0.0096	1606.31	0.79
298.15	0.0118	1603.99	0.79
298.15	0.0128	1602.94	0.79
298.15	0.014	1602.02	0.79
298.15	0.0155	1600.31	0.79
298.15	0.0174	1597.56	0.78
298.15	0.0183	1596.02	0.78
298.15	0.0193	1595.41	0.78
298.15	0.0202	1593.54	0.78
298.15	0.0218	1591.49	0.78
298.15	0.0221	1591.02	0.79
298.15	0.0241	1588.83	0.78
298.15	0.0256	1586.48	0.78
298.15	0.0269	1583.97	0.78
298.15	0.0289	1580.98	0.78
298.15	0.0307	1578.94	0.78
298.15	0.0346	1573.02	0.78
298.15	0.0385	1568.53	0.78
303.15	0	1606.45	0.79
303.15	0.0025	1607.42	0.79
303.15	0.005	1607.31	0.79
303.15	0.008	1606.71	0.79
303.15	0.0096	1605.9	0.79
303.15	0.0118	1604.14	0.79
303.15	0.0128	1603.32	0.79
303.15	0.014	1602.49	0.79
303.15	0.0155	1601.31	0.78
303.15	0.0174	1599.05	0.78
303.15	0.0183	1597.81	0.78
303.15	0.0193	1597.2	0.78
303.15	0.0202	1595.65	0.78
303.15	0.0218	1593.94	0.78
303.15	0.0221	1593.41	0.78
303.15	0.0241	1591.6	0.78
303.15	0.0256	1589.52	0.78
303.15	0.0269	1587.3	0.78
303.15	0.0289	1584.68	0.78
303.15	0.0307	1582.85	0.78
303.15	0.0346	1577.51	0.78
303.15	0.0385	1573.38	0.78
308.15	0	1602.45	0.79
308.15	0.0025	1603.67	0.79
308.15	0.005	1604.41	0.79
308.15	0.008	1604.66	0.79
308.15	0.0096	1604.21	0.79
308.15	0.0118	1603.21	0.79
308.15	0.0128	1602.63	0.79
308.15	0.014	1601.81	0.79
308.15	0.0155	1601.02	0.78
308.15	0.0174	1599.44	0.78
308.15	0.0183	1598.41	0.78
308.15	0.0193	1598.03	0.78
308.15	0.0202	1596.66	0.78
308.15	0.0218	1595.24	0.78
308.15	0.0221	1594.62	0.78
308.15	0.0241	1593.25	0.78
308.15	0.0256	1591.61	0.78
308.15	0.0269	1589.49	0.78
308.15	0.0289	1587.23	0.78
308.15	0.0307	1585.59	0.78
308.15	0.0346	1581.02	0.78
308.15	0.0385	1577	0.78
313.15	0	1597.04	0.79
313.15	0.0025	1598.81	0.79
313.15	0.005	1600.32	0.79
313.15	0.008	1601.21	0.79
313.15	0.0096	1601.39	0.79
313.15	0.0118	1601.22	0.79
313.15	0.0128	1600.86	0.79
313.15	0.014	1600.51	0.78
313.15	0.0155	1599.73	0.78
313.15	0.0174	1598.74	0.78
313.15	0.0183	1598.03	0.78
313.15	0.0193	1597.72	0.78
313.15	0.0202	1596.56	0.78
313.15	0.0218	1595.44	0.78
313.15	0.0221	1595.02	0.78
313.15	0.0241	1593.77	0.78
313.15	0.0256	1592.02	0.78
313.15	0.0269	1590.54	0.78
313.15	0.0289	1588.81	0.78
313.15	0.0307	1587.2	0.78
313.15	0.0346	1583.03	0.78
313.15	0.0385	1579.41	0.78

System: dimethyl sulfoxide + 2-methylpropan-2-ol + water; phases: Liquid
Fixed: Pressure, kPa = 101
Fixed: Mole fraction of water = 0.9615
Property: Mass density, kg/m3 (Liquid); method: VIBTUB:UFactor:8
Temperature, K	Mole fraction of dimethyl sulfoxide	Mass density, kg/m3	uncertainty
288.15	0	980.2	0.5
288.15	0.0025	982.4	0.5
288.15	0.005	985	1
288.15	0.008	988.3	0.5
288.15	0.0096	989.94	0.48
288.15	0.0118	992.17	0.47
288.15	0.0128	993.3	0.5
288.15	0.014	994.4	0.5
288.15	0.0155	995.96	0.47
288.15	0.0174	997.9	0.5
288.15	0.0183	998.7	0.5
288.15	0.0193	999.85	0.46
288.15	0.0202	1000.84	0.46
288.15	0.0218	1002.5	0.5
288.15	0.0221	1002.8	0.5
288.15	0.0241	1005	1
288.15	0.0256	1006.4	0.5
288.15	0.0269	1007.7	0.5
288.15	0.0289	1009.7	0.5
288.15	0.0307	1011.69	0.48
288.15	0.0346	1015.7	0.5
288.15	0.0385	1019.8	0.5
293.15	0	978.4	0.5
293.15	0.0025	980.4	0.5
293.15	0.005	983.1	0.5
293.15	0.008	986.2	0.5
293.15	0.0096	988	1
293.15	0.0118	990.1	0.5
293.15	0.0128	991.2	0.5
293.15	0.014	992.5	0.5
293.15	0.0155	994	1
293.15	0.0174	996.2	0.5
293.15	0.0183	997	1
293.15	0.0193	998.1	0.5
293.15	0.0202	998.9	0.5
293.15	0.0218	1000.6	0.5
293.15	0.0221	1000.8	0.5
293.15	0.0241	1002.8	0.5
293.15	0.0256	1004.7	0.5
293.15	0.0269	1006	1
293.15	0.0289	1008	1
293.15	0.0307	1009.7	0.5
293.15	0.0346	1013.9	0.5
293.15	0.0385	1018.1	0.5
298.15	0	976.6	0.5
298.15	0.0025	979.4	0.5
298.15	0.005	981.5	0.5
298.15	0.008	984.9	0.5
298.15	0.0096	986.5	0.5
298.15	0.0118	988.7	0.5
298.15	0.0128	990.2	0.5
298.15	0.014	991.1	0.5
298.15	0.0155	992.7	0.5
298.15	0.0174	994.3	0.5
298.15	0.0183	995.3	0.5
298.15	0.0193	996.2	0.5
298.15	0.0202	997.5	0.5
298.15	0.0218	999	1
298.15	0.0221	999.3	0.5
298.15	0.0241	1001.4	0.5
298.15	0.0256	1002.8	0.5
298.15	0.0269	1004.2	0.5
298.15	0.0289	1006.2	0.5
298.15	0.0307	1007.9	0.5
298.15	0.0346	1012.3	0.5
298.15	0.0385	1016.2	0.5
303.15	0	973.6	0.5
303.15	0.0025	976.7	0.5
303.15	0.005	978.9	0.5
303.15	0.008	982.4	0.5
303.15	0.0096	984.1	0.5
303.15	0.0118	986.2	0.5
303.15	0.0128	987.6	0.5
303.15	0.014	988.7	0.5
303.15	0.0155	990.1	0.5
303.15	0.0174	992.3	0.5
303.15	0.0183	993.4	0.5
303.15	0.0193	994.2	0.5
303.15	0.0202	994.9	0.5
303.15	0.0218	996.8	0.5
303.15	0.0221	997.3	0.5
303.15	0.0241	999.4	0.5
303.15	0.0256	1001	1
303.15	0.0269	1002.2	0.5
303.15	0.0289	1004.2	0.5
303.15	0.0307	1005.9	0.5
303.15	0.0346	1010.3	0.5
303.15	0.0385	1014.4	0.5
308.15	0	971.5	0.5
308.15	0.0025	974.9	0.5
308.15	0.005	977.2	0.5
308.15	0.008	980.2	0.5
308.15	0.0096	982.3	0.5
308.15	0.0118	984.3	0.5
308.15	0.0128	985.5	0.5
308.15	0.014	987	1
308.15	0.0155	988.3	0.5
308.15	0.0174	990.2	0.5
308.15	0.0183	991.3	0.5
308.15	0.0193	992.1	0.5
308.15	0.0202	993.3	0.5
308.15	0.0218	994.9	0.5
308.15	0.0221	995.2	0.5
308.15	0.0241	997.3	0.5
308.15	0.0256	998.8	0.5
308.15	0.0269	1000.2	0.5
308.15	0.0289	1002.2	0.5
308.15	0.0307	1004	1
308.15	0.0346	1008.2	0.5
308.15	0.0385	1012.3	0.5
313.15	0	968.8	0.5
313.15	0.0025	971.6	0.5
313.15	0.005	974.4	0.5
313.15	0.008	977.5	0.5
313.15	0.0096	979.1	0.5
313.15	0.0118	981.8	0.5
313.15	0.0128	982.9	0.5
313.15	0.014	984	1
313.15	0.0155	985.4	0.5
313.15	0.0174	987.6	0.5
313.15	0.0183	988.7	0.5
313.15	0.0193	989.8	0.5
313.15	0.0202	990.7	0.5
313.15	0.0218	992.3	0.5
313.15	0.0221	993	1
313.15	0.0241	994.8	0.5
313.15	0.0256	996.5	0.5
313.15	0.0269	997.9	0.5
313.15	0.0289	999.9	0.5
313.15	0.0307	1001.8	0.5
313.15	0.0346	1006.1	0.5
313.15	0.0385	1010.2	0.5
