Measured thermophysical data. Physical properties of 3-methyl-N-butylpyridinium tetracyanoborate and 1-butyl-1-methylpyrrolidinium tetracyanoborate and ternary LLE data of [3-mebupy]B(CN)4 with an aromatic and an aliphatic hydrocarbon at T = 303.2 K and 328.2 K and p = 0.1 MPa
Source: J. Chem. Thermodyn., 2011, 10.1016/j.jct.2011.05.022
Compound 1: benzene, C6H6, InChI=1S/C6H6/c1-2-4-6-5-3-1/h1-6H, purity 99.9%
Compound 2: octane, C8H18, InChI=1S/C8H18/c1-3-5-7-8-6-4-2/h3-8H2,1-2H3, purity 99%
Compound 3: hexane, C6H14, InChI=1S/C6H14/c1-3-5-6-4-2/h3-6H2,1-2H3, purity 99%
Compound 4: heptane, C7H16, InChI=1S/C7H16/c1-3-5-7-6-4-2/h3-7H2,1-2H3, purity 99.3%
Compound 5: 1,4-dimethylbenzene, C8H10, InChI=1S/C8H10/c1-7-3-5-8(2)6-4-7/h3-6H,1-2H3, purity 99%
Compound 6: toluene, C7H8, InChI=1S/C7H8/c1-7-5-3-2-4-6-7/h2-6H,1H3, purity 99.9%
Compound 7: 1-butyl-1-methylpyrrolidinium tetracyanoborate, C13H20BN5, InChI=1S/C9H20N.C4BN4/c1-3-4-7-10(2)8-5-6-9-10;6-1-5(2-7,3-8)4-9/h3-9H2,1-2H3;/q+1;-1, purity 98%
Compound 8: 1-butyl-3-methylpyridinium tetracyanoborate, C14H16BN5, InChI=1S/C10H16N.C4BN4/c1-3-4-7-11-8-5-6-10(2)9-11;6-1-5(2-7,3-8)4-9/h5-6,8-9H,3-4,7H2,1-2H3;/q+1;-1, purity 98%

System: 1-butyl-1-methylpyrrolidinium tetracyanoborate; phases: Liquid
Fixed: Pressure, kPa = 101.325
Property: Molar heat capacity at constant pressure, J/K/mol (Liquid); method: Small sample (50 mg) DSC
Temperature, K	Molar heat capacity at constant pressure, J/K/mol	uncertainty
298.2	524	53
323.2	554	56

System: 1-butyl-3-methylpyridinium tetracyanoborate; phases: Liquid
Fixed: Pressure, kPa = 101.325
Property: Molar heat capacity at constant pressure, J/K/mol (Liquid); method: Small sample (50 mg) DSC
Temperature, K	Molar heat capacity at constant pressure, J/K/mol	uncertainty
298.2	495	50
323.2	524	53

System: benzene + hexane + 1-butyl-3-methylpyridinium tetracyanoborate; phases: Liquid mixture 1, Liquid mixture 2
Fixed: Pressure, kPa = 101.3
Property: Mass fraction of hexane (Liquid mixture 1); method: Chromatography
Property: Mass fraction of hexane (Liquid mixture 2); method: Chromatography
Property: Mass fraction of benzene (Liquid mixture 2); method: Chromatography
Temperature, K	Mass fraction of benzene	Mass fraction of hexane	uncertainty	Mass fraction of hexane	uncertainty	Mass fraction of benzene	uncertainty
303.2	0	0.997	0.001	0.024	0.001	0	
303.2	0.046	0.951	0.001	0.026	0.001	0.038	
303.2	0.094	0.903	0.001	0.027	0.001	0.078	
303.2	0.13	0.867	0.001	0.027	0.001	0.1	
303.2	0.169	0.827	0.002	0.028	0.001	0.134	
303.2	0.255	0.742	0.003	0.034	0.001	0.2	
303.2	0.332	0.665	0.003	0.033	0.001	0.246	
303.2	0.457	0.539	0.005	0.036	0.001	0.324	
303.2	0.475	0.522	0.005	0.034	0.001	0.33	
303.2	0.58	0.416	0.004	0.033	0.001	0.357	
303.2	0.749	0.248	0.003	0.028	0.001	0.466	
303.2	0.8	0.197	0.002	0.025	0.001	0.48	
303.2	0.861	0.136	0.001	0.02	0.001	0.513	
303.2	0.922	0.075	0.001	0.013	0.001	0.541	
303.2	0.997	0		0		0.601	
328.2	0	0.997	0.001	0.031	0.001	0	
328.2	0.046	0.95	0.001	0.036	0.001	0.036	
328.2	0.088	0.909	0.001	0.037	0.001	0.064	
328.2	0.129	0.868	0.001	0.037	0.001	0.093	
328.2	0.169	0.828	0.002	0.041	0.001	0.124	
328.2	0.273	0.724	0.003	0.038	0.001	0.188	
328.2	0.351	0.646	0.004	0.04	0.001	0.234	
328.2	0.477	0.519	0.005	0.037	0.001	0.305	
328.2	0.502	0.495	0.005	0.038	0.001	0.315	
328.2	0.611	0.386	0.004	0.035	0.001	0.371	
328.2	0.766	0.231	0.002	0.032	0.001	0.455	
328.2	0.822	0.174	0.002	0.024	0.001	0.461	
328.2	0.88	0.117	0.001	0.019	0.001	0.506	
328.2	0.932	0.065	0.001	0.012	0.001	0.536	
328.2	0.997	0		0		0.599	

System: toluene + heptane + 1-butyl-3-methylpyridinium tetracyanoborate; phases: Liquid mixture 1, Liquid mixture 2
Fixed: Pressure, kPa = 101.3
Property: Mass fraction of toluene (Liquid mixture 1); method: Chromatography
Property: Mass fraction of heptane (Liquid mixture 2); method: Chromatography
Property: Mass fraction of toluene (Liquid mixture 2); method: Chromatography
Temperature, K	Mass fraction of heptane	Mass fraction of toluene	uncertainty	Mass fraction of heptane	uncertainty	Mass fraction of toluene	uncertainty
303.2	0.997	0		0.027	0.001	0	
303.2	0.865	0.133	0.001	0.021	0.001	0.08	
303.2	0.837	0.16	0.002	0.024	0.001	0.095	
303.2	0.803	0.194	0.002	0.025	0.001	0.117	
303.2	0.769	0.228	0.002	0.025	0.001	0.131	
303.2	0.693	0.305	0.003	0.024	0.001	0.16	
303.2	0.684	0.313	0.003	0.023	0.001	0.178	
303.2	0.646	0.351	0.004	0.023	0.001	0.195	
303.2	0.568	0.43	0.004	0.021	0.001	0.221	
303.2	0.437	0.561	0.004	0.022	0.001	0.286	
303.2	0.376	0.621	0.004	0.021	0.001	0.326	
303.2	0.307	0.691	0.003	0.02	0.001	0.352	
303.2	0.207	0.79	0.002	0.015	0.001	0.404	
303.2	0.124	0.873	0.001	0.01	0.001	0.474	
328.2	0.997	0		0.012	0.001	0.007	
328.2	0.855	0.142	0.002	0.02	0.001	0.077	
328.2	0.816	0.181	0.002	0.02	0.001	0.094	
328.2	0.789	0.208	0.002	0.02	0.001	0.11	
328.2	0.753	0.244	0.003	0.022	0.001	0.131	
328.2	0.673	0.324	0.003	0.021	0.001	0.17	
328.2	0.662	0.335	0.003	0.02	0.001	0.175	
328.2	0.619	0.378	0.004	0.02	0.001	0.208	
328.2	0.528	0.47	0.005	0.02	0.001	0.258	
328.2	0.371	0.626	0.004	0.017	0.001	0.362	
328.2	0.268	0.729	0.003	0.018	0.001	0.425	
328.2	0.168	0.829	0.002	0.012	0.001	0.47	
328.2	0.078	0.919	0.001	0.007	0.001	0.546	

System: 1,4-dimethylbenzene + octane + 1-butyl-3-methylpyridinium tetracyanoborate; phases: Liquid mixture 1, Liquid mixture 2
Fixed: Pressure, kPa = 101.3
Property: Mass fraction of 1,4-dimethylbenzene (Liquid mixture 1); method: Chromatography
Property: Mass fraction of octane (Liquid mixture 2); method: Chromatography
Property: Mass fraction of 1,4-dimethylbenzene (Liquid mixture 2); method: Chromatography
Temperature, K	Mass fraction of octane	Mass fraction of 1,4-dimethylbenzene	uncertainty	Mass fraction of octane	uncertainty	Mass fraction of 1,4-dimethylbenzene	uncertainty
302.2	0.998	0		0.014	0.001	0	
302.2	0.965	0.033	0.001	0.014	0.001	0.018	
302.2	0.931	0.067	0.001	0.016	0.001	0.035	
302.2	0.897	0.101	0.001	0.017	0.001	0.051	
302.2	0.863	0.135	0.001	0.016	0.001	0.067	
302.2	0.791	0.207	0.002	0.017	0.001	0.099	
302.2	0.699	0.298	0.003	0.017	0.001	0.14	
302.2	0.629	0.369	0.004	0.015	0.001	0.166	
302.2	0.529	0.469	0.005	0.015	0.001	0.205	
302.2	0.42	0.578	0.004	0.014	0.001	0.255	
302.2	0.29	0.707	0.003	0.013	0.001	0.309	
302.2	0.256	0.741	0.003	0.013	0.001	0.323	
302.2	0.178	0.82	0.002	0.011	0.001	0.368	
302.2	0.136	0.862	0.001	0.009	0.001	0.385	
328.2	0.998	0		0.016	0.001	0	
328.2	0.963	0.034	0.001	0.016	0.001	0.017	
328.2	0.928	0.07	0.001	0.017	0.001	0.032	
328.2	0.892	0.106	0.001	0.019	0.001	0.049	
328.2	0.854	0.143	0.002	0.018	0.001	0.062	
328.2	0.779	0.219	0.002	0.016	0.001	0.093	
328.2	0.683	0.315	0.003	0.016	0.001	0.132	
328.2	0.612	0.386	0.004	0.016	0.001	0.161	
328.2	0.523	0.475	0.005	0.017	0.001	0.198	
328.2	0.398	0.599	0.004	0.015	0.001	0.244	
328.2	0.264	0.733	0.003	0.014	0.001	0.302	
328.2	0.22	0.778	0.002	0.013	0.001	0.334	
328.2	0.159	0.839	0.002	0.01	0.001	0.344	
328.2	0.097	0.901	0.001	0.008	0.001	0.378	
328.2	0	0.998	0.001	0		0.442	
