Measured thermophysical data. Separation of binary mixtures based on gamma infinity data using [OMMIM][BF4] ionic liquid and modelling of thermodynamic functions
Source: J. Chem. Thermodyn., 2019, 10.1016/j.jct.2018.09.003
Compound 1: 1-octyl-2,3-dimethylimidazolium tetrafluoroborate, C13H25BF4N2, InChI=1S/C13H25N2.BF4/c1-4-5-6-7-8-9-10-15-12-11-14(3)13(15)2;2-1(3,4)5/h11-12H,4-10H2,1-3H3;/q+1;-1, purity 99.5%
Compound 2: pentane, C5H12, InChI=1S/C5H12/c1-3-5-4-2/h3-5H2,1-2H3, purity 99%
Compound 3: hexane, C6H14, InChI=1S/C6H14/c1-3-5-6-4-2/h3-6H2,1-2H3, purity 99%
Compound 4: heptane, C7H16, InChI=1S/C7H16/c1-3-5-7-6-4-2/h3-7H2,1-2H3, purity 99%
Compound 5: octane, C8H18, InChI=1S/C8H18/c1-3-5-7-8-6-4-2/h3-8H2,1-2H3, purity 99%
Compound 6: 2,2,4-trimethylpentane, C8H18, InChI=1S/C8H18/c1-7(2)6-8(3,4)5/h7H,6H2,1-5H3, purity 99%
Compound 7: nonane, C9H20, InChI=1S/C9H20/c1-3-5-7-9-8-6-4-2/h3-9H2,1-2H3, purity 99%
Compound 8: decane, C10H22, InChI=1S/C10H22/c1-3-5-7-9-10-8-6-4-2/h3-10H2,1-2H3, purity 99%
Compound 9: cyclohexane, C6H12, InChI=1S/C6H12/c1-2-4-6-5-3-1/h1-6H2, purity 99%
Compound 10: methylcyclohexane, C7H14, InChI=1S/C7H14/c1-7-5-3-2-4-6-7/h7H,2-6H2,1H3, purity 99%
Compound 11: cyclohexene, C6H10, InChI=1S/C6H10/c1-2-4-6-5-3-1/h1-2H,3-6H2, purity 99%
Compound 12: benzene, C6H6, InChI=1S/C6H6/c1-2-4-6-5-3-1/h1-6H, purity 99%
Compound 13: toluene, C7H8, InChI=1S/C7H8/c1-7-5-3-2-4-6-7/h2-6H,1H3, purity 99%
Compound 14: ethylbenzene, C8H10, InChI=1S/C8H10/c1-2-8-6-4-3-5-7-8/h3-7H,2H2,1H3, purity 99%
Compound 15: 1,2-dimethylbenzene, C8H10, InChI=1S/C8H10/c1-7-5-3-4-6-8(7)2/h3-6H,1-2H3, purity 99%
Compound 16: 1,3-dimethylbenzene, C8H10, InChI=1S/C8H10/c1-7-4-3-5-8(2)6-7/h3-6H,1-2H3, purity 99%
Compound 17: 1,4-dimethylbenzene, C8H10, InChI=1S/C8H10/c1-7-3-5-8(2)6-4-7/h3-6H,1-2H3, purity 99%
Compound 18: acetonitrile, C2H3N, InChI=1S/C2H3N/c1-2-3/h1H3, purity 99%
Compound 19: acetone, C3H6O, InChI=1S/C3H6O/c1-3(2)4/h1-2H3, purity 99%
Compound 20: tetrahydrofuran, C4H8O, InChI=1S/C4H8O/c1-2-4-5-3-1/h1-4H2, purity 99%
Compound 21: ethyl acetate, C4H8O2, InChI=1S/C4H8O2/c1-3-6-4(2)5/h3H2,1-2H3, purity 99%
Compound 22: dichloromethane, CH2Cl2, InChI=1S/CH2Cl2/c2-1-3/h1H2, purity 99%
Compound 23: trichloromethane, CHCl3, InChI=1S/CHCl3/c2-1(3)4/h1H, purity 99%
Compound 24: tetrachloromethane, CCl4, InChI=1S/CCl4/c2-1(3,4)5, purity 99%
Compound 25: 1,4-dioxane, C4H8O2, InChI=1S/C4H8O2/c1-2-6-4-3-5-1/h1-4H2, purity 99%
Compound 26: methanol, CH4O, InChI=1S/CH4O/c1-2/h2H,1H3, purity 99%
Compound 27: ethanol, C2H6O, InChI=1S/C2H6O/c1-2-3/h3H,2H2,1H3, purity 99%
Compound 28: propan-1-ol, C3H8O, InChI=1S/C3H8O/c1-2-3-4/h4H,2-3H2,1H3, purity 99%
Compound 29: propan-2-ol, C3H8O, InChI=1S/C3H8O/c1-3(2)4/h3-4H,1-2H3, purity 99%
Compound 30: butan-1-ol, C4H10O, InChI=1S/C4H10O/c1-2-3-4-5/h5H,2-4H2,1H3, purity 99%
Compound 31: 2-methyl-1-propanol, C4H10O, InChI=1S/C4H10O/c1-4(2)3-5/h4-5H,3H2,1-2H3, purity 99%
Compound 32: butan-2-ol, C4H10O, InChI=1S/C4H10O/c1-3-4(2)5/h4-5H,3H2,1-2H3, purity 99%

System: 1-octyl-2,3-dimethylimidazolium tetrafluoroborate; phases: Liquid
Fixed: Pressure, kPa = 101.325
Property: Mass density, kg/m3 (Liquid); method: Vibrating tube method
Temperature, K	Mass density, kg/m3	uncertainty
313.15	1092.3	2.5
323.15	1086	2.5
333.15	1079.7	2.5
343.15	1073.3	2.5
353.15	1067	2.5

System: 1-octyl-2,3-dimethylimidazolium tetrafluoroborate + pentane; phases: Liquid
Fixed: Mole fraction of pentane = 0
Fixed: Pressure, kPa = 101.325
Property: Activity coefficient of pentane (Liquid); method: Chromatography
Temperature, K	Activity coefficient of pentane	uncertainty
313.15	15.77	1.66
323.15	15.31	1.61
333.15	14.84	1.56
343.15	14.33	1.51
353.15	13.96	1.47

System: 1-octyl-2,3-dimethylimidazolium tetrafluoroborate + hexane; phases: Liquid
Fixed: Mole fraction of hexane = 0
Fixed: Pressure, kPa = 101.325
Property: Activity coefficient of hexane (Liquid); method: Chromatography
Temperature, K	Activity coefficient of hexane	uncertainty
313.15	19.98	2.1
323.15	19.81	2.08
333.15	19.24	2.02
343.15	18.68	1.97
353.15	18.15	1.91

System: 1-octyl-2,3-dimethylimidazolium tetrafluoroborate + heptane; phases: Liquid
Fixed: Mole fraction of heptane = 0
Fixed: Pressure, kPa = 101.325
Property: Activity coefficient of heptane (Liquid); method: Chromatography
Temperature, K	Activity coefficient of heptane	uncertainty
313.15	25.46	2.68
323.15	25.07	2.64
333.15	24.66	2.59
343.15	24.27	2.55
353.15	23.88	2.51

System: 1-octyl-2,3-dimethylimidazolium tetrafluoroborate + octane; phases: Liquid
Fixed: Mole fraction of octane = 0
Fixed: Pressure, kPa = 101.325
Property: Activity coefficient of octane (Liquid); method: Chromatography
Temperature, K	Activity coefficient of octane	uncertainty
313.15	32.96	3.47
323.15	32.51	3.42
333.15	32.2	3.39
343.15	31.76	3.34
353.15	31.3	3.29

System: 1-octyl-2,3-dimethylimidazolium tetrafluoroborate + 2,2,4-trimethylpentane; phases: Liquid
Fixed: Mole fraction of 2,2,4-trimethylpentane = 0
Fixed: Pressure, kPa = 101.325
Property: Activity coefficient of 2,2,4-trimethylpentane (Liquid); method: Chromatography
Temperature, K	Activity coefficient of 2,2,4-trimethylpentane	uncertainty
313.15	29.63	3.12
323.15	28.84	3.04
333.15	27.89	2.94
343.15	26.89	2.83
353.15	26.12	2.75

System: 1-octyl-2,3-dimethylimidazolium tetrafluoroborate + nonane; phases: Liquid
Fixed: Mole fraction of nonane = 0
Fixed: Pressure, kPa = 101.325
Property: Activity coefficient of nonane (Liquid); method: Chromatography
Temperature, K	Activity coefficient of nonane	uncertainty
313.15	42.16	4.44
323.15	41.06	4.32
333.15	39.6	4.17
343.15	38.35	4.04
353.15	37.09	3.9

System: 1-octyl-2,3-dimethylimidazolium tetrafluoroborate + decane; phases: Liquid
Fixed: Mole fraction of decane = 0
Fixed: Pressure, kPa = 101.325
Property: Activity coefficient of decane (Liquid); method: Chromatography
Temperature, K	Activity coefficient of decane	uncertainty
313.15	55.2	5.81
323.15	54.23	5.71
333.15	52.94	5.57
343.15	51.53	5.43
353.15	50.54	5.32

System: 1-octyl-2,3-dimethylimidazolium tetrafluoroborate + cyclohexane; phases: Liquid
Fixed: Mole fraction of cyclohexane = 0
Fixed: Pressure, kPa = 101.325
Property: Activity coefficient of cyclohexane (Liquid); method: Chromatography
Temperature, K	Activity coefficient of cyclohexane	uncertainty
313.15	12.79	1.35
323.15	12.47	1.31
333.15	12.21	1.28
343.15	11.86	1.25
353.15	11.49	1.21

System: 1-octyl-2,3-dimethylimidazolium tetrafluoroborate + methylcyclohexane; phases: Liquid
Fixed: Mole fraction of methylcyclohexane = 0
Fixed: Pressure, kPa = 101.325
Property: Activity coefficient of methylcyclohexane (Liquid); method: Chromatography
Temperature, K	Activity coefficient of methylcyclohexane	uncertainty
313.15	15.85	1.67
323.15	15.49	1.63
333.15	15.1	1.59
343.15	14.69	1.55
353.15	14.34	1.51

System: 1-octyl-2,3-dimethylimidazolium tetrafluoroborate + cyclohexene; phases: Liquid
Fixed: Mole fraction of cyclohexene = 0
Fixed: Pressure, kPa = 101.325
Property: Activity coefficient of cyclohexene (Liquid); method: Chromatography
Temperature, K	Activity coefficient of cyclohexene	uncertainty
313.15	8.2	0.86
323.15	8.01	0.84
333.15	7.81	0.82
343.15	7.63	0.8
353.15	7.52	0.79

System: 1-octyl-2,3-dimethylimidazolium tetrafluoroborate + benzene; phases: Liquid
Fixed: Mole fraction of benzene = 0
Fixed: Pressure, kPa = 101.325
Property: Activity coefficient of benzene (Liquid); method: Chromatography
Temperature, K	Activity coefficient of benzene	uncertainty
313.15	2.04	0.21
323.15	2.07	0.22
333.15	2.1	0.22
343.15	2.12	0.22
353.15	2.15	0.23

System: 1-octyl-2,3-dimethylimidazolium tetrafluoroborate + toluene; phases: Liquid
Fixed: Mole fraction of toluene = 0
Fixed: Pressure, kPa = 101.325
Property: Activity coefficient of toluene (Liquid); method: Chromatography
Temperature, K	Activity coefficient of toluene	uncertainty
313.15	2.84	0.3
323.15	2.89	0.3
333.15	2.95	0.31
343.15	3.02	0.32
353.15	3.09	0.32

System: 1-octyl-2,3-dimethylimidazolium tetrafluoroborate + ethylbenzene; phases: Liquid
Fixed: Mole fraction of ethylbenzene = 0
Fixed: Pressure, kPa = 101.325
Property: Activity coefficient of ethylbenzene (Liquid); method: Chromatography
Temperature, K	Activity coefficient of ethylbenzene	uncertainty
313.15	4.36	0.46
323.15	4.42	0.46
333.15	4.46	0.47
343.15	4.5	0.47
353.15	4.57	0.48

System: 1-octyl-2,3-dimethylimidazolium tetrafluoroborate + 1,2-dimethylbenzene; phases: Liquid
Fixed: Mole fraction of 1,2-dimethylbenzene = 0
Fixed: Pressure, kPa = 101.325
Property: Activity coefficient of 1,2-dimethylbenzene (Liquid); method: Chromatography
Temperature, K	Activity coefficient of 1,2-dimethylbenzene	uncertainty
313.15	3.5	0.37
323.15	3.58	0.38
333.15	3.7	0.39
343.15	3.82	0.4
353.15	3.87	0.41

System: 1-octyl-2,3-dimethylimidazolium tetrafluoroborate + 1,3-dimethylbenzene; phases: Liquid
Fixed: Mole fraction of 1,3-dimethylbenzene = 0
Fixed: Pressure, kPa = 101.325
Property: Activity coefficient of 1,3-dimethylbenzene (Liquid); method: Chromatography
Temperature, K	Activity coefficient of 1,3-dimethylbenzene	uncertainty
313.15	4.19	0.44
323.15	4.24	0.45
333.15	4.29	0.45
343.15	4.35	0.46
353.15	4.4	0.46

System: 1-octyl-2,3-dimethylimidazolium tetrafluoroborate + 1,4-dimethylbenzene; phases: Liquid
Fixed: Mole fraction of 1,4-dimethylbenzene = 0
Fixed: Pressure, kPa = 101.325
Property: Activity coefficient of 1,4-dimethylbenzene (Liquid); method: Chromatography
Temperature, K	Activity coefficient of 1,4-dimethylbenzene	uncertainty
313.15	4.06	0.43
323.15	4.12	0.43
333.15	4.16	0.44
343.15	4.2	0.44
353.15	4.24	0.45

System: 1-octyl-2,3-dimethylimidazolium tetrafluoroborate + acetonitrile; phases: Liquid
Fixed: Mole fraction of acetonitrile = 0
Fixed: Pressure, kPa = 101.325
Property: Activity coefficient of acetonitrile (Liquid); method: Chromatography
Temperature, K	Activity coefficient of acetonitrile	uncertainty
313.15	1.01	0.1
323.15	1.02	0.1
333.15	1.04	0.11
343.15	1.05	0.11
353.15	1.07	0.11

System: 1-octyl-2,3-dimethylimidazolium tetrafluoroborate + acetone; phases: Liquid
Fixed: Mole fraction of acetone = 0
Fixed: Pressure, kPa = 101.325
Property: Activity coefficient of acetone (Liquid); method: Chromatography
Temperature, K	Activity coefficient of acetone	uncertainty
313.15	1.38	0.14
323.15	1.4	0.14
333.15	1.41	0.15
343.15	1.42	0.15
353.15	1.43	0.15

System: 1-octyl-2,3-dimethylimidazolium tetrafluoroborate + tetrahydrofuran; phases: Liquid
Fixed: Mole fraction of tetrahydrofuran = 0
Fixed: Pressure, kPa = 101.325
Property: Activity coefficient of tetrahydrofuran (Liquid); method: Chromatography
Temperature, K	Activity coefficient of tetrahydrofuran	uncertainty
313.15	2.06	0.22
323.15	2.1	0.22
333.15	2.12	0.22
343.15	2.13	0.22
353.15	2.15	0.23

System: 1-octyl-2,3-dimethylimidazolium tetrafluoroborate + ethyl acetate; phases: Liquid
Fixed: Mole fraction of ethyl acetate = 0
Fixed: Pressure, kPa = 101.325
Property: Activity coefficient of ethyl acetate (Liquid); method: Chromatography
Temperature, K	Activity coefficient of ethyl acetate	uncertainty
313.15	2.91	0.306
323.15	2.956	0.31
333.15	2.957	0.311
343.15	2.958	0.311
353.15	2.961	0.311

System: 1-octyl-2,3-dimethylimidazolium tetrafluoroborate + dichloromethane; phases: Liquid
Fixed: Mole fraction of dichloromethane = 0
Fixed: Pressure, kPa = 101.325
Property: Activity coefficient of dichloromethane (Liquid); method: Chromatography
Temperature, K	Activity coefficient of dichloromethane	uncertainty
313.15	1.084	0.111
323.15	1.092	0.111
333.15	1.096	0.112
343.15	1.102	0.112
353.15	1.106	0.113

System: 1-octyl-2,3-dimethylimidazolium tetrafluoroborate + trichloromethane; phases: Liquid
Fixed: Mole fraction of trichloromethane = 0
Fixed: Pressure, kPa = 101.325
Property: Activity coefficient of trichloromethane (Liquid); method: Chromatography
Temperature, K	Activity coefficient of trichloromethane	uncertainty
313.15	1.04	0.11
323.15	1.06	0.11
333.15	1.07	0.11
343.15	1.08	0.11
353.15	1.09	0.11

System: 1-octyl-2,3-dimethylimidazolium tetrafluoroborate + tetrachloromethane; phases: Liquid
Fixed: Mole fraction of tetrachloromethane = 0
Fixed: Pressure, kPa = 101.325
Property: Activity coefficient of tetrachloromethane (Liquid); method: Chromatography
Temperature, K	Activity coefficient of tetrachloromethane	uncertainty
313.15	4.11	0.43
323.15	4.16	0.44
333.15	4.2	0.44
343.15	4.23	0.44
353.15	4.26	0.45

System: 1-octyl-2,3-dimethylimidazolium tetrafluoroborate + 1,4-dioxane; phases: Liquid
Fixed: Mole fraction of 1,4-dioxane = 0
Fixed: Pressure, kPa = 101.325
Property: Activity coefficient of 1,4-dioxane (Liquid); method: Chromatography
Temperature, K	Activity coefficient of 1,4-dioxane	uncertainty
313.15	1.67	0.17
323.15	1.72	0.18
333.15	1.77	0.18
343.15	1.81	0.19
353.15	1.86	0.19

System: 1-octyl-2,3-dimethylimidazolium tetrafluoroborate + methanol; phases: Liquid
Fixed: Mole fraction of methanol = 0
Fixed: Pressure, kPa = 101.325
Property: Activity coefficient of methanol (Liquid); method: Chromatography
Temperature, K	Activity coefficient of methanol	uncertainty
313.15	1.57	0.16
323.15	1.47	0.15
333.15	1.36	0.14
343.15	1.26	0.13
353.15	1.18	0.12

System: 1-octyl-2,3-dimethylimidazolium tetrafluoroborate + ethanol; phases: Liquid
Fixed: Mole fraction of ethanol = 0
Fixed: Pressure, kPa = 101.325
Property: Activity coefficient of ethanol (Liquid); method: Chromatography
Temperature, K	Activity coefficient of ethanol	uncertainty
313.15	2.12	0.22
323.15	1.96	0.21
333.15	1.82	0.19
343.15	1.67	0.17
353.15	1.54	0.16

System: 1-octyl-2,3-dimethylimidazolium tetrafluoroborate + propan-1-ol; phases: Liquid
Fixed: Mole fraction of propan-1-ol = 0
Fixed: Pressure, kPa = 101.325
Property: Activity coefficient of propan-1-ol (Liquid); method: Chromatography
Temperature, K	Activity coefficient of propan-1-ol	uncertainty
313.15	2.56	0.27
323.15	2.39	0.25
333.15	2.24	0.24
343.15	2.1	0.22
353.15	1.97	0.21

System: 1-octyl-2,3-dimethylimidazolium tetrafluoroborate + propan-2-ol; phases: Liquid
Fixed: Mole fraction of propan-2-ol = 0
Fixed: Pressure, kPa = 101.325
Property: Activity coefficient of propan-2-ol (Liquid); method: Chromatography
Temperature, K	Activity coefficient of propan-2-ol	uncertainty
313.15	2.5	0.26
323.15	2.35	0.25
333.15	2.2	0.23
343.15	2.07	0.22
353.15	1.93	0.2

System: 1-octyl-2,3-dimethylimidazolium tetrafluoroborate + butan-1-ol; phases: Liquid
Fixed: Mole fraction of butan-1-ol = 0
Fixed: Pressure, kPa = 101.325
Property: Activity coefficient of butan-1-ol (Liquid); method: Chromatography
Temperature, K	Activity coefficient of butan-1-ol	uncertainty
313.15	2.79	0.29
323.15	2.64	0.28
333.15	2.52	0.26
343.15	2.4	0.25
353.15	2.28	0.24

System: 1-octyl-2,3-dimethylimidazolium tetrafluoroborate + 2-methyl-1-propanol; phases: Liquid
Fixed: Mole fraction of 2-methyl-1-propanol = 0
Fixed: Pressure, kPa = 101.325
Property: Activity coefficient of 2-methyl-1-propanol (Liquid); method: Chromatography
Temperature, K	Activity coefficient of 2-methyl-1-propanol	uncertainty
313.15	2.66	0.28
323.15	2.54	0.27
333.15	2.42	0.25
343.15	2.3	0.24
353.15	2.19	0.23

System: 1-octyl-2,3-dimethylimidazolium tetrafluoroborate + butan-2-ol; phases: Liquid
Fixed: Mole fraction of butan-2-ol = 0
Fixed: Pressure, kPa = 101.325
Property: Activity coefficient of butan-2-ol (Liquid); method: Chromatography
Temperature, K	Activity coefficient of butan-2-ol	uncertainty
313.15	2.93	0.31
323.15	2.78	0.29
333.15	2.65	0.28
343.15	2.51	0.26
353.15	2.4	0.25
