Measured thermophysical data. Experimental and correlated liquid-liquid equilibrium data for water-phosphoric acid-ester
Source: J. Chem. Thermodyn., 2018, 10.1016/j.jct.2018.03.025
Compound 1: propyl ethanoate, C5H10O2, InChI=1S/C5H10O2/c1-3-4-7-5(2)6/h3-4H2,1-2H3, purity 98%
Compound 2: pentyl ethanoate, C7H14O2, InChI=1S/C7H14O2/c1-3-4-5-6-9-7(2)8/h3-6H2,1-2H3, purity 98%
Compound 3: water, H2O, InChI=1S/H2O/h1H2
Compound 4: phosphoric acid, H3O4P, InChI=1S/H3O4P/c1-5(2,3)4/h(H3,1,2,3,4), purity 99.9%

System: propyl ethanoate; phases: Liquid
Property: Refractive index (Na D-line) (Liquid); method: Standard Abbe refractometry
Temperature, K	Pressure, kPa	Refractive index (Na D-line)	uncertainty
298.2	101.325	1.383	0.0011

System: propyl ethanoate; phases: Liquid
Property: Mass density, kg/m3 (Liquid); method: Vibrating tube method
Temperature, K	Pressure, kPa	Mass density, kg/m3	uncertainty
298.2	101.325	882.26	1.21

System: pentyl ethanoate; phases: Liquid
Property: Refractive index (Na D-line) (Liquid); method: Standard Abbe refractometry
Temperature, K	Pressure, kPa	Refractive index (Na D-line)	uncertainty
298.2	101.325	1.3991	0.0011

System: pentyl ethanoate; phases: Liquid
Property: Mass density, kg/m3 (Liquid); method: Vibrating tube method
Temperature, K	Pressure, kPa	Mass density, kg/m3	uncertainty
298.2	101.325	872.02	1.2

System: water; phases: Liquid
Property: Refractive index (Na D-line) (Liquid); method: Standard Abbe refractometry
Temperature, K	Pressure, kPa	Refractive index (Na D-line)	uncertainty
298.2	101.325	1.3325	0.001

System: water; phases: Liquid
Property: Mass density, kg/m3 (Liquid); method: Vibrating tube method
Temperature, K	Pressure, kPa	Mass density, kg/m3	uncertainty
298.2	101.325	997.01	1.03

System: phosphoric acid + water; phases: Liquid
Property: Refractive index (Na D-line) (Liquid); method: Standard Abbe refractometry
Temperature, K	Pressure, kPa	Mass fraction of phosphoric acid	Refractive index (Na D-line)	uncertainty
298.2	101.3	0.85	1.432	0.001

System: phosphoric acid + water; phases: Liquid
Property: Mass density, kg/m3 (Liquid); method: Vibrating tube method
Temperature, K	Pressure, kPa	Mass fraction of phosphoric acid	Mass density, kg/m3	uncertainty
298.2	101.3	0.85	1682.7	1.1

System: propyl ethanoate + phosphoric acid + water; phases: Liquid mixture 1, Liquid mixture 2
Fixed: Pressure, kPa = 101.3
Property: Mass fraction of phosphoric acid (Liquid mixture 1); method: Titration method
Temperature, K	Mass fraction of water	Mass fraction of phosphoric acid	uncertainty
298.2	0.98	0	
298.2	0.8911	0.0882	0.0143
298.2	0.8039	0.1748	0.0149
298.2	0.7184	0.2597	0.0159
298.2	0.6454	0.3319	0.0169
298.2	0.5642	0.4117	0.0182
298.2	0.4799	0.4924	0.0197
298.2	0.3993	0.57	0.0183
298.2	0.348	0.6161	0.0156
298.2	0.2961	0.6213	0.0152
298.2	0.2492	0.5754	0.0194
298.2	0.2089	0.5211	0.0218
298.2	0.1707	0.4664	0.0236
298.2	0.1352	0.3974	0.0254
298.2	0.1022	0.3265	0.0284
298.2	0.0743	0.2446	0.0313
298.2	0.0484	0.1716	0.0377
298.2	0.0308	0.0851	0.0489
298.2	0.0125	0	
308.2	0.9729	0	
308.2	0.8847	0.0872	0.0143
308.2	0.8016	0.1694	0.0149
308.2	0.7216	0.2489	0.0157
308.2	0.6359	0.3338	0.0169
308.2	0.5594	0.4091	0.0181
308.2	0.4721	0.4915	0.0196
308.2	0.3901	0.5711	0.0183
308.2	0.346	0.61	0.0158
308.2	0.2996	0.6182	0.0152
308.2	0.2524	0.573	0.0194
308.2	0.2132	0.5183	0.0221
308.2	0.1754	0.4637	0.0232
308.2	0.1382	0.396	0.025
308.2	0.1064	0.325	0.0285
308.2	0.0776	0.2438	0.0318
308.2	0.0539	0.1706	0.0382
308.2	0.0345	0.0848	0.0476
308.2	0.0173	0	
318.2	0.9641	0	
318.2	0.8772	0.0858	0.0143
318.2	0.7924	0.1699	0.0149
318.2	0.7127	0.2488	0.0157
318.2	0.6318	0.3285	0.0168
318.2	0.5495	0.4099	0.0181
318.2	0.4646	0.4911	0.0196
318.2	0.3868	0.5669	0.0184
318.2	0.3437	0.6044	0.0161
318.2	0.3031	0.6151	0.0153
318.2	0.2563	0.57	0.0194
318.2	0.2166	0.5161	0.022
318.2	0.1791	0.4617	0.0234
318.2	0.143	0.3938	0.0251
318.2	0.1106	0.3235	0.0282
318.2	0.082	0.2426	0.0325
318.2	0.0597	0.1695	0.0371
318.2	0.0373	0.0845	0.0444
318.2	0.0207	0	

System: propyl ethanoate + phosphoric acid + water; phases: Liquid mixture 2, Liquid mixture 1
Fixed: Pressure, kPa = 101.3
Property: Mass fraction of water (Liquid mixture 2); method: Titration method
Property: Mass fraction of phosphoric acid (Liquid mixture 1); method: Titration method
Property: Mass fraction of water (Liquid mixture 1); method: Titration method
Temperature, K	Mass fraction of phosphoric acid	Mass fraction of water	uncertainty	Mass fraction of phosphoric acid	uncertainty	Mass fraction of water	uncertainty
298.2	0.013	0.015	0.005	0.161	0.008	0.818	
298.2	0.024	0.018	0.005	0.269	0.01	0.709	
298.2	0.033	0.02	0.005	0.347	0.012	0.63	
298.2	0.042	0.022	0.005	0.407	0.014	0.569	
298.2	0.051	0.023	0.005	0.452	0.015	0.522	
298.2	0.06	0.025	0.005	0.49	0.016	0.483	
308.2	0.015	0.02	0.005	0.175	0.009	0.796	
308.2	0.027	0.023	0.005	0.279	0.011	0.691	
308.2	0.04	0.025	0.005	0.353	0.012	0.616	
308.2	0.052	0.028	0.005	0.424	0.014	0.544	
308.2	0.065	0.031	0.005	0.47	0.015	0.495	
308.2	0.077	0.033	0.005	0.504	0.016	0.459	
318.2	0.017	0.024	0.005	0.188	0.009	0.774	
318.2	0.035	0.028	0.005	0.311	0.011	0.65	
318.2	0.053	0.031	0.005	0.392	0.013	0.568	
318.2	0.07	0.035	0.005	0.446	0.015	0.512	
318.2	0.085	0.037	0.005	0.482	0.016	0.474	
318.2	0.097	0.041	0.005	0.51	0.016	0.445	

System: pentyl ethanoate + phosphoric acid + water; phases: Liquid mixture 1, Liquid mixture 2
Fixed: Pressure, kPa = 101.3
Property: Mass fraction of phosphoric acid (Liquid mixture 1); method: Titration method
Temperature, K	Mass fraction of water	Mass fraction of phosphoric acid	uncertainty
298.2	0.9963	0	
298.2	0.951	0.0446	0.0141
298.2	0.8662	0.1282	0.0145
298.2	0.7831	0.21	0.0153
298.2	0.6148	0.3774	0.0177
298.2	0.53	0.4611	0.0192
298.2	0.402	0.5882	0.0183
298.2	0.3168	0.6717	0.0168
298.2	0.2554	0.7307	0.0142
298.2	0.184	0.759	0.0122
298.2	0.1437	0.7431	0.015
298.2	0.1193	0.7009	0.0261
298.2	0.0927	0.6284	0.0368
298.2	0.0749	0.5485	0.0471
298.2	0.0562	0.4669	0.0566
298.2	0.0443	0.3796	0.076
298.2	0.0322	0.2879	0.0958
298.2	0.0251	0.1931	0.0951
298.2	0.0143	0.0975	0.0891
298.2	0.0107	0.0602	0.0602
298.2	0.0072	0	
308.2	0.9954	0	
308.2	0.9497	0.045	0.0141
308.2	0.8669	0.1264	0.0145
308.2	0.7818	0.2103	0.0153
308.2	0.6144	0.3766	0.0177
308.2	0.5299	0.4601	0.0192
308.2	0.4077	0.582	0.0184
308.2	0.3167	0.6701	0.0167
308.2	0.2542	0.7297	0.0141
308.2	0.1903	0.7515	0.0123
308.2	0.1507	0.7371	0.0144
308.2	0.1222	0.6988	0.0244
308.2	0.0967	0.6258	0.0371
308.2	0.0774	0.5442	0.0458
308.2	0.0593	0.4657	0.0559
308.2	0.047	0.3786	0.0777
308.2	0.0359	0.2865	0.0997
308.2	0.0286	0.1951	0.0983
308.2	0.0181	0.0971	0.0886
308.2	0.0146	0.0602	0.0602
308.2	0.0096	0	
318.2	0.9945	0	
318.2	0.9486	0.0455	0.0141
318.2	0.8653	0.1275	0.0145
318.2	0.7818	0.2099	0.0153
318.2	0.6142	0.3763	0.0177
318.2	0.5298	0.46	0.0192
318.2	0.4012	0.5877	0.0182
318.2	0.316	0.6704	0.0167
318.2	0.2538	0.7284	0.014
318.2	0.193	0.7439	0.0124
318.2	0.1558	0.7257	0.0146
318.2	0.1281	0.696	0.0236
318.2	0.1027	0.6212	0.0367
318.2	0.0822	0.5409	0.0437
318.2	0.0637	0.4631	0.0559
318.2	0.0518	0.3752	0.0761
318.2	0.0397	0.2838	0.0897
318.2	0.0302	0.1931	0.0882
318.2	0.0201	0.096	0.096
318.2	0.0154	0.05	0.05
318.2	0.0113	0	

System: pentyl ethanoate + phosphoric acid + water; phases: Liquid mixture 2, Liquid mixture 1
Fixed: Pressure, kPa = 101.3
Property: Mass fraction of water (Liquid mixture 2); method: Titration method
Property: Mass fraction of phosphoric acid (Liquid mixture 1); method: Titration method
Property: Mass fraction of water (Liquid mixture 1); method: Titration method
Temperature, K	Mass fraction of phosphoric acid	Mass fraction of water	uncertainty	Mass fraction of phosphoric acid	uncertainty	Mass fraction of water	uncertainty
298.2	0.011	0.008	0.005	0.163	0.008	0.831	
298.2	0.021	0.008	0.005	0.274	0.01	0.719	
298.2	0.03	0.009	0.005	0.352	0.012	0.64	
298.2	0.04	0.01	0.005	0.412	0.014	0.58	
298.2	0.048	0.01	0.005	0.458	0.015	0.533	
298.2	0.056	0.011	0.005	0.495	0.016	0.496	
308.2	0.014	0.011	0.005	0.181	0.009	0.812	
308.2	0.024	0.012	0.005	0.284	0.011	0.708	
308.2	0.034	0.013	0.005	0.359	0.012	0.632	
308.2	0.044	0.013	0.005	0.428	0.014	0.562	
308.2	0.053	0.014	0.005	0.473	0.015	0.517	
308.2	0.062	0.015	0.005	0.508	0.016	0.482	
318.2	0.016	0.013	0.005	0.194	0.009	0.798	
318.2	0.026	0.013	0.005	0.289	0.011	0.702	
318.2	0.037	0.015	0.005	0.368	0.013	0.623	
318.2	0.047	0.015	0.005	0.433	0.014	0.557	
318.2	0.058	0.016	0.005	0.478	0.016	0.512	
318.2	0.067	0.017	0.005	0.513	0.016	0.476	

System: propyl ethanoate + water; phases: Liquid mixture 1, Liquid mixture 2
Fixed: Pressure, kPa = 101.3
Property: Mass fraction of water (Liquid mixture 1); method: Titration method
Temperature, K	Mass fraction of water	uncertainty
298.2	0.98	0.01
298.2	0.0125	0.01
308.2	0.9729	0.01
308.2	0.0173	0.01
318.2	0.9641	0.01
318.2	0.0207	0.01

System: pentyl ethanoate + water; phases: Liquid mixture 1, Liquid mixture 2
Fixed: Pressure, kPa = 101.3
Property: Mass fraction of water (Liquid mixture 1); method: Titration method
Temperature, K	Mass fraction of water	uncertainty
298.2	0.9963	0.0037
298.2	0.0072	0.0072
308.2	0.9954	0.0046
308.2	0.0096	0.0096
318.2	0.9945	0.0055
318.2	0.0113	0.01
