Measured thermophysical data. Measurement and correlation of (vapour-liquid) equilibrium for binary mixtures composed of 1-(ethoxymethoxy)-propane with ethanol and 1-propanol at 101.33 kPa
Source: J. Chem. Thermodyn., 2017, 10.1016/j.jct.2017.03.007
Compound 1: 1-(ethoxymethoxy)propane, C6H14O2, InChI=1S/C6H14O2/c1-3-5-8-6-7-4-2/h3-6H2,1-2H3
Compound 2: ethanol, C2H6O, InChI=1S/C2H6O/c1-2-3/h3H,2H2,1H3, purity 99.7%
Compound 3: propan-1-ol, C3H8O, InChI=1S/C3H8O/c1-2-3-4/h4H,2-3H2,1H3, purity 99.7%

System: 1-(ethoxymethoxy)propane; phases: Liquid
Property: Mass density, kg/m3 (Liquid); method: Pycnometric method
Temperature, K	Pressure, kPa	Mass density, kg/m3	uncertainty
293.15	101.325	831.4	0.6

System: 1-(ethoxymethoxy)propane; phases: Liquid
Property: Refractive index (Na D-line) (Liquid); method: Standard Abbe refractometry
Temperature, K	Pressure, kPa	Refractive index (Na D-line)	uncertainty
298.15	101.325	1.3866	0.0004

System: 1-(ethoxymethoxy)propane; phases: Liquid, Gas
Property: Vapor or sublimation pressure, kPa (Liquid); method: Ebulliometric method (Recirculating still)
Temperature, K	Vapor or sublimation pressure, kPa	uncertainty
314.13	7	0.06
328.58	13.33	0.07
337.85	19.6	0.09
345.9	26.67	0.1
349.18	30.02	0.12
353.46	35.2	0.13
357.03	40	0.15
360.45	45	0.16
365.56	53.33	0.18
369.22	60	0.2
374.04	70	0.22
376.23	75	0.23
378.42	80.02	0.25
380.26	84.8	0.26
382.32	90	0.26
384.25	95	0.27
386.53	101.33	0.3
389.39	110	0.32
393.94	125	0.33

System: ethanol; phases: Liquid
Property: Mass density, kg/m3 (Liquid); method: Pycnometric method
Temperature, K	Pressure, kPa	Mass density, kg/m3	uncertainty
293.15	101.325	789.4	0.6

System: ethanol; phases: Liquid
Property: Refractive index (Na D-line) (Liquid); method: Standard Abbe refractometry
Temperature, K	Pressure, kPa	Refractive index (Na D-line)	uncertainty
298.15	101.325	1.3595	0.0004

System: ethanol; phases: Liquid, Gas
Property: Boiling temperature at pressure P, K (Liquid); method: Ebulliometric method (Recirculating still)
Pressure, kPa	Boiling temperature at pressure P, K	uncertainty
101.33	351.5	0.1

System: propan-1-ol; phases: Liquid
Property: Mass density, kg/m3 (Liquid); method: Pycnometric method
Temperature, K	Pressure, kPa	Mass density, kg/m3	uncertainty
293.15	101.325	803.7	0.6

System: propan-1-ol; phases: Liquid
Property: Refractive index (Na D-line) (Liquid); method: Standard Abbe refractometry
Temperature, K	Pressure, kPa	Refractive index (Na D-line)	uncertainty
298.15	101.325	1.3836	0.0004

System: propan-1-ol; phases: Liquid, Gas
Property: Boiling temperature at pressure P, K (Liquid); method: Ebulliometric method (Recirculating still)
Pressure, kPa	Boiling temperature at pressure P, K	uncertainty
101.33	370.35	0.1

System: ethanol + 1-(ethoxymethoxy)propane; phases: Liquid, Gas
Fixed: Pressure, kPa = 101.33
Property: Boiling temperature at pressure P, K (Liquid); method: Ebulliometric method (Recirculating still)
Mole fraction of ethanol	Boiling temperature at pressure P, K	uncertainty
0	386.53	0.13
0.0372	379.97	0.61
0.0954	372.13	0.43
0.1632	366.94	0.29
0.2364	362.78	0.25
0.2961	359.96	0.21
0.344	358.43	0.17
0.3865	357.31	0.16
0.4342	356.35	0.15
0.4757	355.62	0.14
0.5206	354.91	0.14
0.5819	354.1	0.14
0.6524	353.36	0.13
0.7256	352.69	0.13
0.7922	352.17	0.13
0.8482	351.85	0.13
0.8868	351.66	0.13
0.9095	351.58	0.13
0.9304	351.52	0.13
0.9488	351.47	0.13
0.9677	351.45	0.13
0.9838	351.47	0.13
0.9918	351.48	0.13
1	351.5	0.13

System: ethanol + 1-(ethoxymethoxy)propane; phases: Gas, Liquid
Fixed: Pressure, kPa = 101.33
Property: Mole fraction of ethanol (Gas); method: Chromatography
Mole fraction of ethanol	Mole fraction of ethanol	uncertainty
0	0	
0.0372	0.2148	0.017
0.0954	0.4	0.0111
0.1632	0.5251	0.0082
0.2364	0.6084	0.0066
0.2961	0.6575	0.0057
0.344	0.6858	0.0053
0.3865	0.7078	0.0051
0.4342	0.7271	0.0049
0.4757	0.7442	0.0048
0.5206	0.7603	0.0047
0.5819	0.7825	0.0046
0.6524	0.8062	0.0045
0.7256	0.8325	0.0045
0.7922	0.8606	0.0045
0.8482	0.8862	0.0046
0.8868	0.9076	0.0047
0.9095	0.9213	0.0048
0.9304	0.936	0.005
0.9488	0.9507	0.0052
0.9677	0.9663	0.0054
0.9838	0.9822	0.0057
0.9918	0.9908	0.0059
1	1	

System: propan-1-ol + 1-(ethoxymethoxy)propane; phases: Liquid, Gas
Fixed: Pressure, kPa = 101.33
Property: Boiling temperature at pressure P, K (Liquid); method: Ebulliometric method (Recirculating still)
Mole fraction of propan-1-ol	Boiling temperature at pressure P, K	uncertainty
0	386.53	0.13
0.0325	383.91	0.31
0.0719	381.39	0.25
0.1295	378.64	0.21
0.1871	376.6	0.17
0.2628	374.77	0.16
0.3239	373.03	0.15
0.3949	371.93	0.14
0.466	371.11	0.13
0.5311	370.51	0.13
0.6037	370.08	0.13
0.6479	369.84	0.13
0.6964	369.67	0.13
0.7262	369.54	0.13
0.7594	369.47	0.13
0.7929	369.44	0.13
0.8181	369.47	0.13
0.8443	369.52	0.13
0.8709	369.61	0.13
0.8984	369.7	0.13
0.925	369.8	0.13
0.9535	369.94	0.13
0.9726	370.08	0.13
0.9888	370.25	0.13
1	370.35	0.13

System: propan-1-ol + 1-(ethoxymethoxy)propane; phases: Gas, Liquid
Fixed: Pressure, kPa = 101.33
Property: Mole fraction of propan-1-ol (Gas); method: Chromatography
Mole fraction of propan-1-ol	Mole fraction of propan-1-ol	uncertainty
0	0	
0.0325	0.0951	0.0111
0.0719	0.1854	0.0089
0.1295	0.2857	0.0078
0.1871	0.3637	0.0069
0.2628	0.4425	0.0068
0.3239	0.4986	0.0067
0.3949	0.5527	0.0062
0.466	0.5978	0.0058
0.5311	0.6371	0.0055
0.6037	0.6764	0.0054
0.6479	0.7048	0.0053
0.6964	0.7337	0.0052
0.7262	0.752	0.0052
0.7594	0.7745	0.0052
0.7929	0.7977	0.0052
0.8181	0.8169	0.0053
0.8443	0.8375	0.0053
0.8709	0.8593	0.0054
0.8984	0.8843	0.0056
0.925	0.9115	0.0059
0.9535	0.9425	0.006
0.9726	0.9652	0.0063
0.9888	0.9854	0.0065
1	1	
