Measured thermophysical data. Effect of 1-ethyl-3-methylimidazolium tetrafluoroborate on the phase equilibria for systems containing 5-hydroxymethylfurfural, water, organic solvent in the absence and presence of sodium chloride
Source: J. Chem. Thermodyn., 2019, 10.1016/j.jct.2019.01.001
Compound 1: 4-methylpentan-2-one, C6H12O, InChI=1S/C6H12O/c1-5(2)4-6(3)7/h5H,4H2,1-3H3, purity 99%
Compound 2: pentan-2-ol, C5H12O, InChI=1S/C5H12O/c1-3-4-5(2)6/h5-6H,3-4H2,1-2H3, purity 99%
Compound 3: methanol, CH4O, InChI=1S/CH4O/c1-2/h2H,1H3, purity 99.9%
Compound 4: 1-ethyl-3-methylimidazolium tetrafluoroborate, C6H11BF4N2, InChI=1S/C6H11N2.BF4/c1-3-8-5-4-7(2)6-8;2-1(3,4)5/h4-6H,3H2,1-2H3;/q+1;-1, purity 98%
Compound 5: nitric acid, HNO3, InChI=1S/HNO3/c2-1(3)4/h(H,2,3,4), purity 99%
Compound 6: water, H2O, InChI=1S/H2O/h1H2, purity 99.8%

System: 4-methylpentan-2-one; phases: Liquid
Property: Mass density, kg/m3 (Liquid); method: Vibrating tube method
Temperature, K	Pressure, kPa	Mass density, kg/m3	uncertainty
293.15	101.325	800.9	1.6

System: pentan-2-ol; phases: Liquid
Property: Mass density, kg/m3 (Liquid); method: Vibrating tube method
Temperature, K	Pressure, kPa	Mass density, kg/m3	uncertainty
293.15	101.325	810.1	1.6

System: methanol; phases: Liquid
Property: Mass density, kg/m3 (Liquid); method: Vibrating tube method
Temperature, K	Pressure, kPa	Mass density, kg/m3	uncertainty
293.15	101.325	791.9	0.4

System: 1-ethyl-3-methylimidazolium tetrafluoroborate; phases: Liquid
Property: Mass density, kg/m3 (Liquid); method: Vibrating tube method
Temperature, K	Pressure, kPa	Mass density, kg/m3	uncertainty
293.15	101.325	1283	5.3

System: water; phases: Liquid
Property: Mass density, kg/m3 (Liquid); method: Vibrating tube method
Temperature, K	Pressure, kPa	Mass density, kg/m3	uncertainty
293.15	101.325	998.5	0.4

System: nitric acid + water; phases: Liquid
Property: Mass density, kg/m3 (Liquid); method: Vibrating tube method
Mass fraction of nitric acid	Pressure, kPa	Temperature, K	Mass density, kg/m3	uncertainty
0.7	100	293.15	1411.5	2.9
