Measured thermophysical data. A novel non-intrusive microcell for sound-speed measurements in liquids. Speed of sound and thermodynamic properties of 2-propanone at pressures up to 160 MPa
Source: J. Chem. Thermodyn., 2004, 10.1016/j.jct.2003.12.001
Compound 1: acetone, C3H6O, InChI=1S/C3H6O/c1-3(2)4/h1-2H3

System: acetone; phases: Liquid
Property: Speed of sound, m/s (Liquid); method: PULSEH:UFactor:4
Temperature, K	Pressure, kPa	Speed of sound, m/s	uncertainty
265.67	102	1298.93	2.63
265.67	504	1301.09	2.64
265.67	750	1302.5	2.64
265.67	1003	1303.56	2.64
265.67	1255	1304.92	2.64
265.67	1501	1306.29	2.65
265.67	2007	1308.73	2.65
265.67	2506	1311.28	2.65
265.67	3005	1313.79	2.66
265.67	4004	1318.59	2.66
265.67	5004	1323.31	2.67
265.67	6005	1328.01	2.68
265.67	8002	1338.69	2.7
265.67	10001	1349.81	2.71
265.67	12001	1358.7	2.73
265.67	14003	1366.48	2.74
265.67	16050	1375.48	2.75
265.67	18001	1384.77	2.77
265.67	20003	1394.13	2.78
265.67	23001	1407.08	2.8
265.67	27004	1425.32	2.83
265.67	31003	1439.78	2.85
265.67	34997	1455.17	2.88
265.67	39999	1476.05	2.91
265.67	45002	1494.61	2.94
265.67	49999	1511.6	2.96
265.67	55001	1528.77	2.99
265.67	60002	1548.05	3.02
265.67	65000	1564.17	3.05
265.67	18001	1384.54	2.77
273.16	102	1264.48	2.58
273.16	504	1266.57	2.58
273.16	750	1267.96	2.59
273.16	1003	1269.39	2.59
273.16	1255	1270.74	2.59
273.16	1501	1272.23	2.59
273.16	2007	1275.12	2.6
273.16	2506	1277.93	2.6
273.16	3005	1281.1	2.61
273.16	4004	1287.23	2.62
273.16	5004	1291.97	2.62
273.16	6005	1296.6	2.63
273.16	8002	1306.58	2.65
273.16	10001	1316.19	2.66
273.16	12001	1325.58	2.68
273.16	14003	1335.9	2.69
273.16	16005	1346.87	2.71
273.16	18001	1355.99	2.72
273.16	20003	1363.63	2.73
273.16	23001	1376.52	2.75
273.16	27004	1394.61	2.78
273.16	31003	1412.24	2.81
273.16	34997	1428.86	2.84
273.16	39999	1446.67	2.86
273.16	45002	1467.44	2.9
273.16	49999	1485.84	2.92
273.16	55001	1504.31	2.95
273.16	60002	1520.08	2.98
273.16	65000	1538.71	3.01
273.16	3005	1281.19	2.61
273.16	4004	1286.78	2.62
273.16	5004	1292.02	2.62
280.74	75	1233.63	2.53
280.74	504	1234.94	2.54
280.74	750	1236.39	2.54
280.74	1003	1237.85	2.54
280.74	1255	1239.22	2.54
280.74	1501	1240.59	2.54
280.74	2007	1243.75	2.55
280.74	2506	1247.03	2.55
280.74	3005	1249.76	2.56
280.74	4004	1255.13	2.57
280.74	5004	1259.87	2.57
280.74	6005	1264.8	2.58
280.74	8002	1275.79	2.6
280.74	10001	1286.82	2.62
280.74	12001	1296.79	2.63
280.74	14003	1306.71	2.65
280.74	16005	1316.23	2.66
280.74	18001	1325.46	2.68
280.74	20003	1335.09	2.69
280.74	23001	1350.8	2.71
280.74	27004	1366.99	2.74
280.74	31003	1384.26	2.77
280.74	34997	1401.32	2.79
280.74	39999	1423.56	2.83
280.74	45002	1441.37	2.86
280.74	49999	1461.28	2.89
280.74	55001	1480.44	2.92
280.74	60002	1498.97	2.95
280.74	65000	1514.56	2.97
280.74	75	1232.04	2.53
280.74	23001	1350.8	2.71
280.74	39999	1423.74	2.83
280.74	45002	1441.37	2.86
280.74	60002	1498.91	2.95
280.74	65000	1514.63	2.97
288.23	109	1199.01	2.48
288.23	504	1201.24	2.48
288.23	750	1202.57	2.49
288.23	1003	1204.2	2.49
288.23	1255	1205.54	2.49
288.23	1501	1206.97	2.49
288.23	2007	1209.92	2.5
288.23	2506	1212.8	2.5
288.23	3005	1215.61	2.51
288.23	4004	1221.35	2.51
288.23	5004	1227.14	2.52
288.23	6005	1232.71	2.53
288.23	8002	1244.39	2.55
288.23	10001	1255.4	2.57
288.23	12001	1265.22	2.58
288.23	14003	1275.63	2.6
288.23	16005	1286.61	2.62
288.23	18001	1296.18	2.63
288.23	20003	1305.89	2.65
288.23	23001	1319.61	2.67
288.23	27004	1339.05	2.7
288.23	31003	1357.37	2.73
288.23	34997	1373.83	2.75
288.23	39999	1395.08	2.78
288.23	45002	1416.1	2.82
288.23	49999	1435.37	2.85
288.23	55001	1453.97	2.88
288.23	60002	1473.72	2.91
288.23	65000	1492.08	2.94
298.23	109	1153.69	2.41
298.23	504	1156.23	2.41
298.23	750	1157.82	2.42
298.23	1003	1159.5	2.42
298.23	1255	1161.14	2.42
298.23	1501	1162.71	2.42
298.23	2007	1165.65	2.43
298.23	2506	1168.6	2.43
298.23	3005	1171.49	2.44
298.23	4004	1177.4	2.45
298.23	5004	1182.9	2.45
298.23	6005	1189.6	2.47
298.23	8002	1201.45	2.48
298.23	10001	1212.8	2.5
298.23	12001	1223.83	2.52
298.23	14003	1234.83	2.54
298.23	16005	1246.18	2.55
298.23	18001	1256.46	2.57
298.23	20003	1265.92	2.58
298.23	23001	1281.93	2.61
298.23	27004	1301.17	2.64
298.23	31003	1319.28	2.67
298.23	34997	1337.9	2.7
298.23	39999	1359.25	2.73
298.23	45002	1380.44	2.76
298.23	49999	1400.61	2.79
298.23	55001	1421.32	2.83
298.23	60002	1439.68	2.85
298.23	65000	1458.59	2.88
308.22	109	1107.74	2.34
308.22	504	1110.52	2.34
308.22	750	1112.35	2.35
308.22	1003	1114.01	2.35
308.22	1255	1115.75	2.35
308.22	1501	1117.34	2.35
308.22	2007	1120.69	2.36
308.22	2506	1123.91	2.36
308.22	3005	1127.11	2.37
308.22	4004	1133.79	2.38
308.22	5004	1140.56	2.39
308.22	6005	1146.98	2.4
308.22	8002	1159.51	2.42
308.22	10001	1171.13	2.44
308.22	12001	1182.37	2.45
308.22	14003	1194.75	2.47
308.22	16005	1205.76	2.49
308.22	18001	1216.57	2.51
308.22	20003	1227.49	2.52
308.22	23001	1244.05	2.55
308.22	27004	1263.44	2.58
308.22	31003	1283.97	2.61
308.22	34997	1302.46	2.64
308.22	39999	1324.45	2.68
308.22	45002	1347.09	2.71
308.22	49999	1367.79	2.74
308.22	55001	1388.31	2.77
308.22	60002	1408.07	2.81
308.22	65000	1427.73	2.84
318.22	109	1062.32	2.27
318.22	504	1065.38	2.27
318.22	750	1067.34	2.28
318.22	1003	1069.21	2.28
318.22	1255	1071.11	2.28
318.22	1501	1072.72	2.28
318.22	2007	1076.32	2.29
318.22	2506	1079.71	2.29
318.22	3005	1083.5	2.3
318.22	4004	1090.38	2.31
318.22	5004	1096.85	2.32
318.22	6005	1103.61	2.33
318.22	8002	1116.61	2.35
318.22	10001	1129.13	2.37
318.22	12001	1142.47	2.39
318.22	14003	1154.62	2.41
318.22	16005	1166.43	2.43
318.22	18001	1177.61	2.45
318.22	20003	1189.14	2.46
318.22	23001	1205.63	2.49
318.22	27004	1226.77	2.52
318.22	31003	1247.41	2.56
318.22	34997	1266.28	2.58
318.22	39999	1290.76	2.62
318.22	45002	1313.78	2.66
318.22	49999	1334.83	2.69
318.22	55001	1356.46	2.73
318.22	60002	1376.77	2.76
318.22	65000	1395.43	2.79
328.22	129	1018.3	2.2
328.22	504	1021.14	2.2
328.22	750	1023.1	2.21
328.22	1003	1024.91	2.21
328.22	1255	1026.82	2.21
328.22	1501	1028.6	2.22
328.22	2007	1032.33	2.22
328.22	2506	1036.21	2.23
328.22	3005	1040.05	2.23
328.22	4004	1047.07	2.24
328.22	5004	1053.76	2.25
328.22	6005	1060.7	2.27
328.22	8002	1074.73	2.29
328.22	10001	1088.42	2.31
328.22	12001	1101.14	2.33
328.22	14003	1113.97	2.35
328.22	16005	1126.49	2.37
328.22	18001	1138.92	2.39
328.22	20003	1151.08	2.41
328.22	23001	1168.1	2.43
328.22	27004	1190.45	2.47
328.22	31003	1211.66	2.5
328.22	34997	1231.66	2.53
328.22	39999	1256.67	2.57
328.22	45002	1280.63	2.61
328.22	49999	1303.34	2.64
328.22	55001	1324.67	2.68
328.22	60002	1345.81	2.71
328.22	65000	1365.57	2.74
338.22	170	972.8	2.13
338.22	504	976.32	2.14
338.22	750	978.88	2.14
338.22	1003	981.05	2.14
338.22	1255	982.97	2.15
338.22	1501	984.75	2.15
338.22	2007	988.42	2.15
338.22	2506	992.07	2.16
338.22	3005	996	2.17
338.22	4004	1004.26	2.18
338.22	5004	1011.63	2.19
338.22	6005	1019.16	2.2
338.22	8002	1033.34	2.22
338.22	10001	1047.72	2.25
338.22	12001	1061.19	2.27
338.22	14003	1074.71	2.29
338.22	16005	1088.09	2.31
338.22	18001	1100.33	2.33
338.22	20003	1112.58	2.35
338.22	23001	1131.02	2.38
338.22	27004	1154.76	2.41
338.22	31003	1176.19	2.45
338.22	34997	1197.57	2.48
338.22	39999	1223.29	2.52
338.22	45002	1248.14	2.56
338.22	49999	1271.19	2.59
338.22	55001	1293.31	2.63
338.22	60002	1315.39	2.66
338.22	65000	1336.38	2.7

System: acetone; phases: Liquid
Property: Speed of sound, m/s (Liquid); method: OTHER
Temperature, K	Pressure, kPa	Speed of sound, m/s	uncertainty
288.23	23004	1322.04	13.22
288.23	44976	1418.48	14.19
288.23	64986	1494.63	14.95
288.23	70010	1522.58	15.23
288.23	79981	1557.72	15.58
288.23	89921	1591.43	15.92
288.23	99957	1621.8	16.22
288.23	109936	1650.7	16.51
288.23	119980	1680.46	16.81
288.23	129872	1708.01	17.08
288.23	139915	1741.66	17.42
288.23	149867	1768.25	17.68
288.23	159874	1794.07	17.94
298.23	162	1155.53	11.56
298.23	2008	1167.09	11.67
298.23	4938	1185.79	11.86
298.23	20019	1268.46	12.69
298.23	65010	1461.13	14.61
298.23	69929	1479.73	14.8
298.23	79828	1515.66	15.16
298.23	89866	1549.26	15.49
298.23	99836	1580.68	15.81
298.23	109920	1612.39	16.13
298.23	119896	1641.11	16.41
298.23	129797	1668.29	16.68
298.23	139882	1695.55	16.96
298.23	149849	1721.56	17.22
298.23	159838	1743.99	17.44
308.22	1529	1120	11.2
308.22	17995	1218.24	12.18
308.22	34970	1305.89	13.06
308.22	49966	1370.35	13.7
308.22	64978	1431.07	14.31
308.22	69913	1448.08	14.48
308.22	80042	1484.54	14.85
308.22	89948	1517.17	15.17
308.22	100008	1550.07	15.5
308.22	109959	1580.84	15.81
308.22	120002	1610.69	16.11
308.22	129943	1638.63	16.39
308.22	139970	1665.32	16.65
308.22	149805	1691.77	16.92
308.22	159981	1714.52	17.15
318.22	5049	1100	11
318.22	18039	1180.82	11.81
318.22	35013	1270.18	12.7
318.22	49984	1336.94	13.37
318.22	64915	1398.03	13.98
318.22	69945	1418.97	14.19
318.22	79995	1455.81	14.56
318.22	89950	1490.61	14.91
318.22	100047	1524.64	15.25
318.22	109858	1555.2	15.55
318.22	119927	1585.72	15.86
318.22	129859	1614.28	16.14
318.22	139873	1642.01	16.42
318.22	149838	1668.21	16.68
318.22	159857	1694.12	16.94
328.22	1279	1026.65	10.27
328.22	10021	1088.58	10.89
328.22	26986	1189.14	11.89
328.22	39941	1258.02	12.58
328.22	64927	1365.71	13.66
328.22	70016	1390.37	13.9
328.22	79971	1428.58	14.29
328.22	89947	1463.95	14.64
328.22	99925	1498.01	14.98
328.22	109933	1530.79	15.31
328.22	120024	1561.93	15.62
328.22	129885	1591.12	15.91
328.22	139921	1619.83	16.2
328.22	149939	1647.27	16.47
328.22	159881	1673.62	16.74
338.22	5007	1009.07	10.09
338.22	19962	1112.67	11.13
338.22	20078	1113.05	11.13
338.22	34862	1200.01	12
338.22	35061	1200.11	12
338.22	54993	1290.41	12.9
338.22	55162	1290.99	12.91
338.22	64959	1338.94	13.39
338.22	65100	1339.48	13.4
338.22	70004	1360.2	13.6
338.22	80065	1399.97	14
338.22	89970	1437.71	14.38
338.22	99933	1472.23	14.72
338.22	109905	1505.88	15.06
338.22	119873	1538.58	15.39
338.22	129936	1569.69	15.7
338.22	139985	1599.9	16
338.22	149899	1628.37	16.29
338.22	159818	1656.51	16.57

System: acetone; phases: Liquid
Property: Mass density, kg/m3 (Liquid); method: Vibrating tube method
Temperature, K	Pressure, kPa	Mass density, kg/m3	uncertainty
298.15	100	784.28	0.19
298.15	5003	789.28	0.22
298.15	9921	794	0.24
298.15	14838	798.48	0.26
298.15	19756	802.74	0.29
298.15	24673	806.82	0.31
298.15	29591	810.72	0.34
298.15	34508	814.46	0.36
298.15	39426	818.07	0.39
298.15	44343	821.54	0.41
298.15	49261	824.89	0.44
298.15	54178	828.15	0.46
298.15	59096	831.28	0.48
303.1	100	779.14	0.19
303.1	5003	784.32	0.22
303.1	9921	789.22	0.24
303.1	14838	793.88	0.27
303.1	19756	798.3	0.29
303.1	24673	802.44	0.32
303.1	29591	806.43	0.34
303.1	34508	810.24	0.37
303.1	39426	813.89	0.39
303.1	44343	817.4	0.42
303.1	49261	820.77	0.44
303.1	54178	823.99	0.47
303.1	59096	827.09	0.5
308.08	100	773.18	0.19
308.08	5003	778.55	0.22
308.08	9921	783.65	0.24
308.08	14838	788.47	0.27
308.08	19756	793.02	0.3
308.08	24673	797.37	0.32
308.08	29591	801.5	0.35
308.08	34508	805.47	0.37
308.08	39426	809.28	0.4
308.08	44343	812.94	0.43
308.08	49261	816.44	0.45
308.08	54178	819.82	0.48
308.08	59096	823.08	0.51
313.04	100	767.23	0.19
313.04	5003	772.79	0.22
313.04	9921	778.11	0.24
313.04	14838	783.09	0.27
313.04	19756	787.8	0.3
313.04	24673	792.27	0.33
313.04	29591	796.55	0.35
313.04	34508	800.6	0.38
313.04	39426	804.52	0.41
313.04	44343	808.25	0.44
313.04	49261	811.85	0.47
313.04	54178	815.32	0.49
313.04	59096	818.65	0.52
317.97	100	761.17	0.19
317.97	5003	766.99	0.22
317.97	9921	772.47	0.25
317.97	14838	777.62	0.28
317.97	19756	782.47	0.3
317.97	24673	787.11	0.33
317.97	29591	791.49	0.36
317.97	34508	795.7	0.39
317.97	39426	799.71	0.42
317.97	44343	803.57	0.45
317.97	49261	807.28	0.48
317.97	54178	810.82	0.5
317.97	59096	814.24	0.53
322.93	100	755.22	0.19
322.93	5003	761.27	0.22
322.93	9921	766.95	0.25
322.93	14838	772.25	0.28
322.93	19756	777.28	0.31
322.93	24673	781.99	0.34
322.93	29591	786.54	0.37
322.93	34508	790.84	0.39
322.93	39426	795.02	0.43
322.93	44343	798.96	0.46
322.93	49261	802.75	0.49
322.93	54178	806.4	0.51
322.93	59096	809.91	0.54
328.06	100	748.91	0.19
328.06	5003	755.2	0.22
328.06	9921	761.09	0.25
328.06	14838	766.61	0.28
328.06	19756	771.75	0.31
328.06	24673	776.65	0.34
328.06	29591	781.3	0.37
328.06	34508	785.72	0.4
328.06	39426	789.98	0.44
328.06	44343	794.04	0.47
328.06	49261	797.97	0.5
328.06	54178	801.71	0.53
328.06	59096	805.36	0.55
333.04	5003	749.27	0.22
333.04	9921	755.39	0.25
333.04	14838	761.07	0.29
333.04	19756	766.4	0.32
333.04	24673	771.41	0.35
333.04	29591	776.21	0.38
333.04	34508	780.78	0.41
333.04	39426	785.17	0.44
333.04	44343	789.33	0.48
333.04	49261	793.37	0.51
333.04	54178	797.25	0.54
333.04	59096	801.03	0.57
