Measured thermophysical data. A 2D nickel-based energetic MOFs incorporating 3,5-diamino-1,2,4-triazole and malonic acid: Synthesis, crystal structure and thermochemical study
Source: J. Chem. Thermodyn., 2016, 10.1016/j.jct.2015.09.009
Compound 1: carbon dioxide, CO2, InChI=1S/CO2/c2-1-3
Compound 2: nitrogen, N2, InChI=1S/N2/c1-2
Compound 3: water, H2O, InChI=1S/H2O/h1H2
Compound 4: oxygen, O2, InChI=1S/O2/c1-2
Compound 5: 1H-1,2,4-triazole-3,5-diamine, C2H5N5, InChI=1S/C2H5N5/c3-1-5-2(4)7-6-1/h(H5,3,4,5,6,7), purity 99%

Reaction: -1 1H-1,2,4-triazole-3,5-diamine + 2 carbon dioxide + 2.5 nitrogen + 2.5 water + -3.25 oxygen
Property: Specific internal energy of reaction at constant volume, J/g
-15680.86
