Measured thermophysical data. Reassembling and testing of a high-precision heat capacity drop calorimeter. Heat capacity of some polyphenyls at T = 298.15 K
Source: J. Chem. Thermodyn., 2011, 10.1016/j.jct.2011.06.010
Compound 1: benzoic acid, C7H6O2, InChI=1S/C7H6O2/c8-7(9)6-4-2-1-3-5-6/h1-5H,(H,8,9), purity 99.9%
Compound 2: hexafluorobenzene, C6F6, InChI=1S/C6F6/c7-1-2(8)4(10)6(12)5(11)3(1)9, purity 99.8%
Compound 3: 1,2,3-triphenylbenzene, C24H18, InChI=1S/C24H18/c1-4-11-19(12-5-1)22-17-10-18-23(20-13-6-2-7-14-20)24(22)21-15-8-3-9-16-21/h1-18H, purity 99.9%
Compound 4: o-terphenyl, C18H14, InChI=1S/C18H14/c1-3-9-15(10-4-1)17-13-7-8-14-18(17)16-11-5-2-6-12-16/h1-14H, purity 99.9%
Compound 5: m-terphenyl, C18H14, InChI=1S/C18H14/c1-3-8-15(9-4-1)17-12-7-13-18(14-17)16-10-5-2-6-11-16/h1-14H, purity 99.9%
Compound 6: p-terphenyl, C18H14, InChI=1S/C18H14/c1-3-7-15(8-4-1)17-11-13-18(14-12-17)16-9-5-2-6-10-16/h1-14H, purity 99.9%
Compound 7: 1,1':4',1'':4'',1'''-quaterphenyl, C24H18, InChI=1S/C24H18/c1-3-7-19(8-4-1)21-11-15-23(16-12-21)24-17-13-22(14-18-24)20-9-5-2-6-10-20/h1-18H, purity 99.9%
Compound 8: 1,3,5-triphenylbenzene, C24H18, InChI=1S/C24H18/c1-4-10-19(11-5-1)22-16-23(20-12-6-2-7-13-20)18-24(17-22)21-14-8-3-9-15-21/h1-18H, purity 99.9%

System: benzoic acid; phases: Crystal
Property: Molar heat capacity at constant pressure, J/K/mol (Crystal); method: Drop calorimetry
Temperature, K	Pressure, kPa	Molar heat capacity at constant pressure, J/K/mol	uncertainty
298.15	101.325	146.06	3.39

System: hexafluorobenzene; phases: Liquid
Property: Molar heat capacity at constant pressure, J/K/mol (Liquid); method: Drop calorimetry
Temperature, K	Pressure, kPa	Molar heat capacity at constant pressure, J/K/mol	uncertainty
298.15	101.325	221.42	5.15

System: 1,2,3-triphenylbenzene; phases: Crystal
Property: Molar heat capacity at constant pressure, J/K/mol (Crystal); method: Drop calorimetry
Temperature, K	Pressure, kPa	Molar heat capacity at constant pressure, J/K/mol	uncertainty
298.15	101.325	356.2	8.3

System: o-terphenyl; phases: Crystal
Property: Molar heat capacity at constant pressure, J/K/mol (Crystal); method: Drop calorimetry
Temperature, K	Pressure, kPa	Molar heat capacity at constant pressure, J/K/mol	uncertainty
298.15	101.325	274.73	6.38

System: m-terphenyl; phases: Crystal
Property: Molar heat capacity at constant pressure, J/K/mol (Crystal); method: Drop calorimetry
Temperature, K	Pressure, kPa	Molar heat capacity at constant pressure, J/K/mol	uncertainty
298.15	101.325	277.42	6.45

System: p-terphenyl; phases: Crystal
Property: Molar heat capacity at constant pressure, J/K/mol (Crystal); method: Drop calorimetry
Temperature, K	Pressure, kPa	Molar heat capacity at constant pressure, J/K/mol	uncertainty
298.15	101.325	279.58	6.5

System: 1,1':4',1'':4'',1'''-quaterphenyl; phases: Crystal
Property: Molar heat capacity at constant pressure, J/K/mol (Crystal); method: Drop calorimetry
Temperature, K	Pressure, kPa	Molar heat capacity at constant pressure, J/K/mol	uncertainty
298.15	101.325	363.45	8.45

System: 1,3,5-triphenylbenzene; phases: Crystal
Property: Molar heat capacity at constant pressure, J/K/mol (Crystal); method: Drop calorimetry
Temperature, K	Pressure, kPa	Molar heat capacity at constant pressure, J/K/mol	uncertainty
298.15	101.325	357.96	8.32
