Measured thermophysical data. Speed of sound in liquid tetrachloromethane and benzene at temperatures from 283.15 K to 333.15 K and pressures up to 30 MPa
Source: J. Chem. Thermodyn., 2004, 10.1016/j.jct.2004.04.013
Compound 1: tetrachloromethane, CCl4, InChI=1S/CCl4/c2-1(3,4)5, purity 99.9%
Compound 2: benzene, C6H6, InChI=1S/C6H6/c1-2-4-6-5-3-1/h1-6H, purity 99.9%

System: tetrachloromethane; phases: Liquid
Property: Speed of sound, m/s (Liquid); method: Pulse-echo method
Temperature, K	Pressure, kPa	Speed of sound, m/s	uncertainty
283.15	101	969.1	2
283.15	497	970.5	2
283.15	1065	972.7	2
283.15	2192	976.9	2
283.15	2306	977.4	2
283.15	3433	981.6	2
283.15	5102	987.7	2
283.15	5958	990.8	2
283.15	7972	998	2.1
283.15	8771	1000.6	2.1
283.15	9833	1004.6	2.1
283.15	11260	1009.5	2.1
283.15	12970	1015.5	2.1
283.15	13650	1017.6	2.1
283.15	16043	1026	2.1
283.15	19058	1035.9	2.1
283.15	22343	1046.6	2.2
283.15	25816	1057.5	2.2
283.15	30453	1071.7	2.2
298.15	101	921.1	1.9
298.15	583	923.1	1.9
298.15	865	924.2	1.9
298.15	887	924.4	1.9
298.15	1384	926.4	1.9
298.15	1731	927.8	1.9
298.15	1900	928.4	1.9
298.15	2056	929.1	1.9
298.15	2905	932.5	1.9
298.15	3020	933	1.9
298.15	3919	936.6	1.9
298.15	4367	938.4	1.9
298.15	4908	940.5	1.9
298.15	5436	942.6	1.9
298.15	5946	944.5	2
298.15	6868	948	2
298.15	7358	949.9	2
298.15	7761	951.5	2
298.15	8818	955.5	2
298.15	8930	955.9	2
298.15	9903	959.6	2
298.15	10321	961.2	2
298.15	11239	964.6	2
298.15	12541	969.3	2
298.15	13397	972.5	2
298.15	14945	978	2
298.15	15313	979.4	2
298.15	17404	986.8	2
298.15	17674	987.8	2
298.15	20253	996.7	2.1
298.15	20404	997.2	2.1
298.15	22533	1004.5	2.1
298.15	24855	1012.3	2.1
298.15	24984	1012.8	2.1
298.15	25186	1013.4	2.1
298.15	27693	1021.7	2.1
298.15	29953	1029	2.1
298.15	30569	1030.8	2.1
298.15	101	921.1	1.9
313.15	101	874.2	1.8
313.15	108	874.2	1.8
313.15	478	875.9	1.8
313.15	894	877.7	1.8
313.15	1827	881.9	1.8
313.15	2938	886.7	1.8
313.15	4119	891.6	1.8
313.15	5135	896.1	1.9
313.15	5591	898	1.9
313.15	6975	903.6	1.9
313.15	8334	909.4	1.9
313.15	10049	916.2	1.9
313.15	12992	927.9	1.9
313.15	14421	933.4	1.9
313.15	16421	941.1	1.9
313.15	18812	949.9	2
313.15	20514	956.3	2
313.15	25209	972.9	2
313.15	31645	994.8	2.1
333.15	101	813	1.7
333.15	967	817.4	1.7
333.15	1691	820.9	1.7
333.15	2195	823.4	1.7
333.15	3177	828.1	1.7
333.15	5118	837.4	1.7
333.15	5595	839.5	1.7
333.15	7312	847.3	1.8
333.15	8236	851.5	1.8
333.15	9201	855.8	1.8
333.15	10593	862	1.8
333.15	11851	867.4	1.8
333.15	13131	872.9	1.8
333.15	14740	879.6	1.8
333.15	15989	884.8	1.8
333.15	17758	892.1	1.8
333.15	19476	898.9	1.9
333.15	20905	904.6	1.9
333.15	22422	910.5	1.9
333.15	25433	922	1.9
333.15	27880	931.1	1.9
333.15	31372	943.7	1.9

System: benzene; phases: Liquid
Property: Speed of sound, m/s (Liquid); method: Pulse-echo method
Temperature, K	Pressure, kPa	Speed of sound, m/s	uncertainty
283.15	101	1371.6	2.8
283.15	1112	1376.8	2.8
283.15	2281	1382.4	2.8
283.15	4616	1393.2	2.9
283.15	6766	1403.3	2.9
283.15	9100	1413.6	2.9
283.15	11628	1424.5	2.9
283.15	14278	1436	2.9
283.15	15957	1443.4	3
283.15	18556	1454	3
283.15	20823	1463	3
283.15	23405	1473.4	3
298.15	101	1299.9	2.7
298.15	888	1305	2.7
298.15	1246	1305.8	2.7
298.15	2254	1311.8	2.7
298.15	2506	1312.2	2.7
298.15	4580	1322.5	2.7
298.15	4719	1323.9	2.7
298.15	6991	1334.4	2.7
298.15	7131	1335.5	2.7
298.15	9327	1346.2	2.8
298.15	9335	1346.2	2.8
298.15	9408	1346	2.8
298.15	11563	1355.8	2.8
298.15	11640	1357	2.8
298.15	14137	1368.5	2.8
298.15	14317	1368.6	2.8
298.15	15927	1375.9	2.8
298.15	16524	1379.1	2.8
298.15	18655	1388.6	2.9
298.15	18844	1389	2.9
298.15	20826	1398.1	2.9
298.15	21001	1398.6	2.9
298.15	23151	1407.9	2.9
298.15	23834	1410.7	2.9
298.15	25699	1418.5	2.9
298.15	26172	1420.5	2.9
298.15	28369	1428.5	2.9
298.15	101	1300.2	2.7
313.15	101	1230.8	2.5
313.15	2047	1241.3	2.6
313.15	3268	1247.8	2.6
313.15	5111	1257.8	2.6
313.15	7199	1268.7	2.6
313.15	9383	1280	2.6
313.15	11613	1291.3	2.7
313.15	14139	1303.7	2.7
313.15	16386	1314.6	2.7
313.15	18686	1325.5	2.7
313.15	21242	1337.2	2.7
313.15	23254	1346.4	2.8
313.15	24384	1351.3	2.8
313.15	25607	1357.2	2.8
313.15	25608	1357.3	2.8
313.15	28210	1368.6	2.8
333.15	101	1142.4	2.4
333.15	1260	1148	2.4
333.15	2426	1155	2.4
333.15	5026	1170.5	2.4
333.15	7135	1182.9	2.4
333.15	9195	1194.5	2.5
333.15	11729	1208.4	2.5
333.15	14011	1220.6	2.5
333.15	16310	1232.7	2.5
333.15	18687	1244.8	2.6
333.15	20059	1251.8	2.6
333.15	21112	1257.2	2.6
333.15	23196	1267.4	2.6
333.15	25517	1278.7	2.6
333.15	28165	1287.7	2.6
