Measured thermophysical data. Influence of the alkyl chain length on densities and volumetric properties of 1,3-dialkylimidazolium bromide ionic liquids and their aqueous solutions
Source: J. Chem. Thermodyn., 2018, 10.1016/j.jct.2018.02.001
Compound 1: 1-butyl-3-ethylimidazolium bromide, C9H17BrN2, InChI=1S/C9H17N2.BrH/c1-3-5-6-11-8-7-10(4-2)9-11;/h7-9H,3-6H2,1-2H3;1H/q+1;/p-1
Compound 2: 1,3-diethyl-1H-imidazolium bromide, C7H13BrN2, InChI=1S/C7H13N2.BrH/c1-3-8-5-6-9(4-2)7-8;/h5-7H,3-4H2,1-2H3;1H/q+1;/p-1
Compound 3: 1-ethyl-3-hexyl-1H-imidazolium bromide, C11H21BrN2, InChI=1S/C11H21N2.BrH/c1-3-5-6-7-8-13-10-9-12(4-2)11-13;/h9-11H,3-8H2,1-2H3;1H/q+1;/p-1
Compound 4: 1-ethyl-3-octyl-1H-imidazolium bromide, C13H25BrN2, InChI=1S/C13H25N2.BrH/c1-3-5-6-7-8-9-10-15-12-11-14(4-2)13-15;/h11-13H,3-10H2,1-2H3;1H/q+1;/p-1
Compound 5: 3-dodecyl-1-ethyl-1H-imidazolium bromide, C17H33BrN2, InChI=1S/C17H33N2.BrH/c1-3-5-6-7-8-9-10-11-12-13-14-19-16-15-18(4-2)17-19;/h15-17H,3-14H2,1-2H3;1H/q+1;/p-1
Compound 6: 1,3-dibutylimidazolium bromide, C11H21BrN2, InChI=1S/C11H21N2.BrH/c1-3-5-7-12-9-10-13(11-12)8-6-4-2;/h9-11H,3-8H2,1-2H3;1H/q+1;/p-1
Compound 7: 1-butyl-3-hexyl-1H-imidazolium bromide, C13H25BrN2, InChI=1S/C13H25N2.BrH/c1-3-5-7-8-10-15-12-11-14(13-15)9-6-4-2;/h11-13H,3-10H2,1-2H3;1H/q+1;/p-1
Compound 8: 1-butyl-3-octyl-1H-imidazolium bromide, C15H29BrN2, InChI=1S/C15H29N2.BrH/c1-3-5-7-8-9-10-12-17-14-13-16(15-17)11-6-4-2;/h13-15H,3-12H2,1-2H3;1H/q+1;/p-1
Compound 9: 1-butyl-3-dodecyl-1H-imidazolium bromide, C19H37BrN2, InChI=1S/C19H37N2.BrH/c1-3-5-7-8-9-10-11-12-13-14-16-21-18-17-20(19-21)15-6-4-2;/h17-19H,3-16H2,1-2H3;1H/q+1;/p-1
Compound 10: water, H2O, InChI=1S/H2O/h1H2, purity 99.8%

System: 1-butyl-3-ethylimidazolium bromide; phases: Liquid
Fixed: Pressure, kPa = 101.325
Property: Mass density, kg/m3 (Liquid); method: Vibrating tube method
Temperature, K	Mass density, kg/m3	uncertainty
293.15	1263.23	12.73
298.15	1259.4	12.65
303.15	1255.95	12.58
308.15	1252.45	12.51
313.15	1248.92	12.44
318.15	1245.45	12.37
323.15	1241.93	12.3

System: 1,3-diethyl-1H-imidazolium bromide; phases: Liquid
Fixed: Pressure, kPa = 101.325
Property: Mass density, kg/m3 (Liquid); method: Vibrating tube method
Temperature, K	Mass density, kg/m3	uncertainty
293.15	1355.06	1.6
298.15	1351.21	1.6
303.15	1347.51	1.59
308.15	1343.75	1.59
313.15	1339.95	1.59
318.15	1336.13	1.59
323.15	1332.29	1.59

System: 1-ethyl-3-hexyl-1H-imidazolium bromide; phases: Liquid
Fixed: Pressure, kPa = 101.325
Property: Mass density, kg/m3 (Liquid); method: Vibrating tube method
Temperature, K	Mass density, kg/m3	uncertainty
293.15	1197.06	11.42
298.15	1193.59	11.35
303.15	1190.1	11.28
308.15	1186.58	11.21
313.15	1183.02	11.15
318.15	1179.46	11.08
323.15	1175.88	11.01

System: 1-ethyl-3-octyl-1H-imidazolium bromide; phases: Liquid
Fixed: Pressure, kPa = 101.325
Property: Mass density, kg/m3 (Liquid); method: Vibrating tube method
Temperature, K	Mass density, kg/m3	uncertainty
293.15	1148.89	1.85
298.15	1145.43	1.85
303.15	1141.74	1.84
308.15	1138.13	1.84
313.15	1134.69	1.83
318.15	1131.07	1.83
323.15	1127.5	1.83

System: 3-dodecyl-1-ethyl-1H-imidazolium bromide; phases: Liquid
Fixed: Pressure, kPa = 101.325
Property: Mass density, kg/m3 (Liquid); method: Vibrating tube method
Temperature, K	Mass density, kg/m3	uncertainty
293.15	1084.31	1.54
298.15	1080.97	1.54
303.15	1077.53	1.54
308.15	1074.03	1.54
313.15	1070.48	1.54
318.15	1066.96	1.54
323.15	1063.43	1.54

System: 1,3-dibutylimidazolium bromide; phases: Liquid
Fixed: Pressure, kPa = 101.325
Property: Mass density, kg/m3 (Liquid); method: Vibrating tube method
Temperature, K	Mass density, kg/m3	uncertainty
293.15	1197.07	1.56
298.15	1193.75	1.56
303.15	1190.32	1.56
308.15	1186.85	1.56
313.15	1183.34	1.56
318.15	1180.06	1.56
323.15	1176.52	1.56

System: 1-butyl-3-hexyl-1H-imidazolium bromide; phases: Liquid
Fixed: Pressure, kPa = 101.325
Property: Mass density, kg/m3 (Liquid); method: Vibrating tube method
Temperature, K	Mass density, kg/m3	uncertainty
293.15	1148.8	7.17
298.15	1145.49	7.13
303.15	1142.11	7.08
308.15	1138.66	7.04
313.15	1135.17	7
318.15	1131.7	6.95
323.15	1128.22	6.91

System: 1-butyl-3-octyl-1H-imidazolium bromide; phases: Liquid
Fixed: Pressure, kPa = 101.325
Property: Mass density, kg/m3 (Liquid); method: Vibrating tube method
Temperature, K	Mass density, kg/m3	uncertainty
293.15	1123.09	1.82
298.15	1119.72	1.82
303.15	1116.27	1.81
308.15	1112.79	1.81
313.15	1109.25	1.81
318.15	1105.74	1.8
323.15	1102.23	1.8

System: 1-butyl-3-dodecyl-1H-imidazolium bromide; phases: Liquid
Fixed: Pressure, kPa = 101.325
Property: Mass density, kg/m3 (Liquid); method: Vibrating tube method
Temperature, K	Mass density, kg/m3	uncertainty
293.15	1059.3	1.54
298.15	1055.99	1.54
303.15	1052.6	1.54
308.15	1049.18	1.54
313.15	1045.73	1.54
318.15	1042.27	1.54
323.15	1038.83	1.54

System: water; phases: Liquid
Fixed: Pressure, kPa = 100
Property: Mass density, kg/m3 (Liquid); method: Vibrating tube method
Temperature, K	Mass density, kg/m3	uncertainty
293.15	998.21	1.52
298.15	997.05	1.52
303.15	995.65	1.52
308.15	994.03	1.52

System: water + 1,3-diethyl-1H-imidazolium bromide; phases: Liquid
Fixed: Pressure, kPa = 100
Property: Mass density, kg/m3 (Liquid); method: Vibrating tube method
Temperature, K	Molality, mol/kg of 1,3-diethyl-1H-imidazolium bromide	Mass density, kg/m3	uncertainty
293.15	0	998.21	1.52
293.15	0.01477	998.92	1.52
293.15	0.01845	999.11	1.52
293.15	0.02167	999.27	1.52
293.15	0.0271	999.55	1.52
293.15	0.03151	999.78	1.52
293.15	0.035	999.96	1.52
293.15	0.04375	1000.42	1.52
293.15	0.04513	1000.49	1.52
293.15	0.05018	1000.75	1.52
298.15	0	997.05	1.52
298.15	0.01477	997.72	1.53
298.15	0.01845	997.91	1.52
298.15	0.02167	998.07	1.52
298.15	0.0271	998.35	1.52
298.15	0.03151	998.57	1.52
298.15	0.035	998.75	1.52
298.15	0.04375	999.19	1.52
298.15	0.04513	999.26	1.52
298.15	0.05018	999.51	1.52
303.15	0	995.65	1.52
303.15	0.01477	996.18	1.53
303.15	0.01845	996.36	1.52
303.15	0.02167	996.52	1.52
303.15	0.0271	996.8	1.52
303.15	0.03151	997.03	1.52
303.15	0.035	997.2	1.52
303.15	0.04375	997.63	1.52
303.15	0.04513	997.7	1.52
303.15	0.05018	997.94	1.52
308.15	0	994.03	1.52
308.15	0.01477	994.23	1.52
308.15	0.01845	994.41	1.52
308.15	0.02167	994.58	1.52
308.15	0.0271	994.87	1.52
308.15	0.03151	995.11	1.52
308.15	0.035	995.29	1.52
308.15	0.04375	995.71	1.52
308.15	0.04513	995.77	1.52
308.15	0.05018	995.97	1.52

System: water + 1,3-dibutylimidazolium bromide; phases: Liquid
Fixed: Pressure, kPa = 100
Property: Mass density, kg/m3 (Liquid); method: Vibrating tube method
Temperature, K	Molality, mol/kg of 1,3-dibutylimidazolium bromide	Mass density, kg/m3	uncertainty
293.15	0.01076	998.64	1.52
293.15	0.01516	998.84	1.52
293.15	0.02165	999.13	1.52
293.15	0.02575	999.32	1.52
293.15	0.03042	999.54	1.52
293.15	0.0354	999.77	1.52
293.15	0.04047	1000	1.52
298.15	0.01076	997.46	1.52
298.15	0.01516	997.65	1.52
298.15	0.02165	997.93	1.52
298.15	0.02575	998.11	1.52
298.15	0.03042	998.31	1.52
298.15	0.0354	998.52	1.52
298.15	0.04047	998.74	1.52
303.15	0.01076	995.91	1.52
303.15	0.01516	996.08	1.52
303.15	0.02165	996.4	1.52
303.15	0.02575	996.57	1.52
303.15	0.03042	996.78	1.52
303.15	0.0354	996.98	1.52
303.15	0.04047	997.16	1.52
308.15	0.01076	994.12	1.52
308.15	0.01516	994.3	1.52
308.15	0.02165	994.63	1.52
308.15	0.02575	994.79	1.52
308.15	0.03042	995	1.52
308.15	0.0354	995.2	1.52
308.15	0.04047	995.35	1.52
293.15	0	998.21	1.52
298.15	0	997.05	1.52
303.15	0	995.65	1.52
308.15	0	994.03	1.52

System: water + 1-butyl-3-hexyl-1H-imidazolium bromide; phases: Liquid
Fixed: Pressure, kPa = 100
Property: Mass density, kg/m3 (Liquid); method: Vibrating tube method
Temperature, K	Molality, mol/kg of 1-butyl-3-hexyl-1H-imidazolium bromide	Mass density, kg/m3	uncertainty
293.15	0.0051	998.4	1.52
293.15	0.0109	998.6	1.52
293.15	0.01511	998.8	1.52
293.15	0.01999	999	1.52
293.15	0.02536	999.22	1.52
293.15	0.03025	999.42	1.52
293.15	0.03503	999.62	1.52
293.15	0.03996	999.82	1.52
293.15	0.0452	1000.03	1.52
293.15	0.05	1000.225	1.522
298.15	0.0051	997.22	1.52
298.15	0.0109	997.41	1.52
298.15	0.01511	997.6	1.52
298.15	0.01999	997.79	1.52
298.15	0.02536	998.01	1.52
298.15	0.03025	998.2	1.52
298.15	0.03503	998.39	1.52
298.15	0.03996	998.58	1.52
298.15	0.0452	998.79	1.52
298.15	0.05	998.978	1.521
303.15	0.0051	995.73	1.52
303.15	0.0109	995.88	1.52
303.15	0.01511	996.06	1.52
303.15	0.01999	996.24	1.52
303.15	0.02536	996.44	1.52
303.15	0.03025	996.64	1.52
303.15	0.03503	996.82	1.52
303.15	0.03996	997.01	1.52
303.15	0.0452	997.21	1.52
303.15	0.05	997.38	1.52
308.15	0.0051	994.04	1.52
308.15	0.0109	994.09	1.52
308.15	0.01511	994.2	1.52
308.15	0.01999	994.38	1.52
308.15	0.02536	994.6	1.52
308.15	0.03025	994.81	1.52
308.15	0.03503	994.99	1.52
308.15	0.03996	995.17	1.52
308.15	0.0452	995.35	1.52
308.15	0.05	995.51	1.52
293.15	0	998.21	1.52
298.15	0	997.05	1.52
303.15	0	995.65	1.52
308.15	0	994.03	1.52

System: water + 1-ethyl-3-hexyl-1H-imidazolium bromide; phases: Liquid
Fixed: Pressure, kPa = 100
Property: Mass density, kg/m3 (Liquid); method: Vibrating tube method
Temperature, K	Molality, mol/kg of 1-ethyl-3-hexyl-1H-imidazolium bromide	Mass density, kg/m3	uncertainty
293.15	0.0092	998.59	1.52
293.15	0.012	998.73	1.52
293.15	0.0168	998.92	1.52
293.15	0.02	999.06	1.52
293.15	0.0248	999.26	1.52
293.15	0.0295	999.47	1.52
293.15	0.0358	999.75	1.52
293.15	0.0432	1000.07	1.52
293.15	0.0495	1000.35	1.52
298.15	0.0092	997.35	1.52
298.15	0.012	997.48	1.52
298.15	0.0168	997.66	1.52
298.15	0.02	997.79	1.52
298.15	0.0248	998	1.52
298.15	0.0295	998.2	1.52
298.15	0.0358	998.48	1.52
298.15	0.0432	998.8	1.52
298.15	0.0495	999.08	1.52
303.15	0.0092	995.82	1.52
303.15	0.012	995.93	1.52
303.15	0.0168	996.11	1.52
303.15	0.02	996.24	1.52
303.15	0.0248	996.43	1.52
303.15	0.0295	996.64	1.52
303.15	0.0358	996.9	1.52
303.15	0.0432	997.21	1.52
303.15	0.0495	997.48	1.52
308.15	0.0092	994.05	1.52
308.15	0.012	994.09	1.52
308.15	0.0168	994.21	1.52
308.15	0.02	994.33	1.52
308.15	0.0248	994.51	1.52
308.15	0.0295	994.7	1.52
308.15	0.0358	994.96	1.52
308.15	0.0432	995.26	1.52
308.15	0.0495	995.51	1.52
293.15	0	998.21	1.52
298.15	0	997.05	1.52
303.15	0	995.65	1.52
308.15	0	994.03	1.52

System: water + 1-ethyl-3-octyl-1H-imidazolium bromide; phases: Liquid
Fixed: Pressure, kPa = 100
Property: Mass density, kg/m3 (Liquid); method: Vibrating tube method
Temperature, K	Molality, mol/kg of 1-ethyl-3-octyl-1H-imidazolium bromide	Mass density, kg/m3	uncertainty
293.15	0.0128	998.68	1.52
293.15	0.0143	998.75	1.52
293.15	0.0149	998.78	1.52
293.15	0.0171	998.87	1.52
293.15	0.0206	999.02	1.52
293.15	0.0216	999.07	1.52
293.15	0.026	999.25	1.52
293.15	0.0313	999.47	1.52
293.15	0.0355	999.65	1.52
293.15	0.0377	999.74	1.52
293.15	0.0436	999.99	1.52
298.15	0.0128	997.48	1.53
298.15	0.0143	997.55	1.53
298.15	0.0149	997.58	1.52
298.15	0.0171	997.68	1.52
298.15	0.0206	997.83	1.52
298.15	0.0216	997.87	1.52
298.15	0.026	998.06	1.52
298.15	0.0313	998.28	1.52
298.15	0.0355	998.45	1.52
298.15	0.0377	998.54	1.52
298.15	0.0436	998.77	1.52
303.15	0.0128	995.95	1.53
303.15	0.0143	996.03	1.52
303.15	0.0149	996.06	1.52
303.15	0.0171	996.14	1.52
303.15	0.0206	996.29	1.52
303.15	0.0216	996.33	1.52
303.15	0.026	996.51	1.52
303.15	0.0313	996.73	1.52
303.15	0.0355	996.91	1.52
303.15	0.0377	997	1.52
303.15	0.0436	997.24	1.52
308.15	0.0128	994.18	1.52
308.15	0.0143	994.25	1.52
308.15	0.0149	994.27	1.52
308.15	0.0171	994.36	1.52
308.15	0.0206	994.5	1.52
308.15	0.0216	994.55	1.52
308.15	0.026	994.71	1.52
308.15	0.0313	994.91	1.52
308.15	0.0355	995.08	1.52
308.15	0.0377	995.16	1.52
308.15	0.0436	995.39	1.52
293.15	0	998.21	1.52
298.15	0	997.05	1.52
303.15	0	995.65	1.52
308.15	0	994.03	1.52

System: water + 1-butyl-3-octyl-1H-imidazolium bromide; phases: Liquid
Fixed: Pressure, kPa = 100
Property: Mass density, kg/m3 (Liquid); method: Vibrating tube method
Temperature, K	Molality, mol/kg of 1-butyl-3-octyl-1H-imidazolium bromide	Mass density, kg/m3	uncertainty
293.15	0.0055	998.38	1.52
293.15	0.01	998.55	1.52
293.15	0.015	998.75	1.52
293.15	0.0216	999.02	1.52
293.15	0.0285	999.32	1.52
293.15	0.0346	999.58	1.52
293.15	0.0412	999.85	1.52
293.15	0.0498	1000.22	1.52
298.15	0.0055	997.16	1.52
298.15	0.01	997.36	1.52
298.15	0.015	997.53	1.52
298.15	0.0216	997.77	1.52
298.15	0.0285	998.04	1.52
298.15	0.0346	998.28	1.52
298.15	0.0412	998.54	1.52
298.15	0.0498	998.88	1.52
303.15	0.0055	995.68	1.52
303.15	0.01	995.77	1.52
303.15	0.015	995.96	1.52
303.15	0.0216	996.2	1.52
303.15	0.0285	996.48	1.52
303.15	0.0346	996.71	1.52
303.15	0.0412	996.97	1.52
303.15	0.0498	997.31	1.52
308.15	0.0055	994.05	1.52
308.15	0.01	994.08	1.52
308.15	0.015	994.1	1.52
308.15	0.0216	994.32	1.52
308.15	0.0285	994.61	1.52
308.15	0.0346	994.83	1.52
308.15	0.0412	995.08	1.52
308.15	0.0498	995.4	1.52
293.15	0	998.21	1.52
298.15	0	997.05	1.52
303.15	0	995.65	1.52
308.15	0	994.03	1.52

System: water + 3-dodecyl-1-ethyl-1H-imidazolium bromide; phases: Liquid
Fixed: Pressure, kPa = 100
Property: Mass density, kg/m3 (Liquid); method: Vibrating tube method
Temperature, K	Molality, mol/kg of 3-dodecyl-1-ethyl-1H-imidazolium bromide	Mass density, kg/m3	uncertainty
293.15	0.0061	998.38	1.52
293.15	0.0074	998.42	1.52
293.15	0.0109	998.52	1.52
293.15	0.015	998.64	1.52
293.15	0.021	998.81	1.52
293.15	0.0257	998.94	1.52
293.15	0.0362	999.24	1.52
293.15	0.0521	999.68	1.52
298.15	0.0061	997.16	1.52
298.15	0.0074	997.19	1.52
298.15	0.0109	997.27	1.52
298.15	0.015	997.38	1.52
298.15	0.021	997.53	1.52
298.15	0.0257	997.65	1.52
298.15	0.0362	997.91	1.52
298.15	0.0521	998.31	1.52
303.15	0.0061	995.65	1.52
303.15	0.0074	995.68	1.52
303.15	0.0109	995.73	1.52
303.15	0.015	995.83	1.52
303.15	0.021	995.99	1.52
303.15	0.0257	996.12	1.52
303.15	0.0362	996.37	1.52
303.15	0.0521	996.72	1.52
293.15	0	998.21	1.52
298.15	0	997.05	1.52
303.15	0	995.65	1.52

System: water + 1-butyl-3-dodecyl-1H-imidazolium bromide; phases: Liquid
Fixed: Pressure, kPa = 100
Property: Mass density, kg/m3 (Liquid); method: Vibrating tube method
Temperature, K	Molality, mol/kg of 1-butyl-3-dodecyl-1H-imidazolium bromide	Mass density, kg/m3	uncertainty
293.15	0.0055	998.33	1.52
293.15	0.0082	998.38	1.52
293.15	0.0092	998.4	1.52
293.15	0.0149	998.51	1.52
293.15	0.0217	998.64	1.52
293.15	0.0252	998.71	1.52
293.15	0.0317	998.83	1.52
293.15	0.0337	998.87	1.52
293.15	0.0399	999	1.52
293.15	0.0479	999.15	1.52
293.15	0.0503	999.19	1.52
298.15	0.0055	997.09	1.52
298.15	0.0082	997.13	1.52
298.15	0.0092	997.15	1.52
298.15	0.0149	997.26	1.52
298.15	0.0217	997.39	1.52
298.15	0.0252	997.46	1.52
298.15	0.0317	997.58	1.52
298.15	0.0337	997.62	1.52
298.15	0.0399	997.74	1.52
298.15	0.0479	997.88	1.52
298.15	0.0503	997.92	1.52
303.15	0.0055	995.65	1.52
303.15	0.0082	995.66	1.52
303.15	0.0092	995.68	1.52
303.15	0.0149	995.7	1.52
303.15	0.0217	995.82	1.52
303.15	0.0252	995.9	1.52
303.15	0.0317	996	1.52
303.15	0.0337	996.04	1.52
303.15	0.0399	996.15	1.52
303.15	0.0479	996.3	1.52
303.15	0.0503	996.34	1.52
293.15	0	998.21	1.52
298.15	0	997.05	1.52
303.15	0	995.65	1.52
