Measured thermophysical data. Correlation and thermodynamic analysis of solubility of diphenhydramine hydrochloride in pure and binary solvents
Source: J. Chem. Thermodyn., 2016, 10.1016/j.jct.2015.09.032
Compound 1: 2-diphenylmethoxy-N,N-dimethylethanamine hydrochloride, C17H22ClNO, InChI=1S/C17H21NO.ClH/c1-18(2)13-14-19-17(15-9-5-3-6-10-15)16-11-7-4-8-12-16;/h3-12,17H,13-14H2,1-2H3;1H, purity 99%
Compound 2: ethanol, C2H6O, InChI=1S/C2H6O/c1-2-3/h3H,2H2,1H3, purity 99.7%
Compound 3: acetone, C3H6O, InChI=1S/C3H6O/c1-3(2)4/h1-2H3, purity 99.5%
Compound 4: ethyl acetate, C4H8O2, InChI=1S/C4H8O2/c1-3-6-4(2)5/h3H2,1-2H3, purity 99.5%
Compound 5: methanol, CH4O, InChI=1S/CH4O/c1-2/h2H,1H3, purity 99.5%

System: 2-diphenylmethoxy-N,N-dimethylethanamine hydrochloride; phases: Crystal, Liquid, Air at 1 atmosphere
Property: Normal melting temperature, K (Crystal); method: DTA
Normal melting temperature, K	uncertainty
442.3	0.61

System: 2-diphenylmethoxy-N,N-dimethylethanamine hydrochloride; phases: Crystal, Liquid, Air at 1 atmosphere
Property: Molar enthalpy of transition or fusion, kJ/mol (Crystal); method: DSC
Molar enthalpy of transition or fusion, kJ/mol	uncertainty
36.48	1.71

System: methanol + 2-diphenylmethoxy-N,N-dimethylethanamine hydrochloride; phases: Liquid, Crystal
Fixed: Pressure, kPa = 100
Property: Mole fraction of 2-diphenylmethoxy-N,N-dimethylethanamine hydrochloride (Liquid); method: Gravimetric
Temperature, K	Mole fraction of 2-diphenylmethoxy-N,N-dimethylethanamine hydrochloride	uncertainty
278.15	0.122	0.012
283.15	0.138	0.014
288.15	0.147	0.015
293.15	0.156	0.016
298.15	0.162	0.016
303.15	0.167	0.017
308.15	0.173	0.017
313.15	0.18	0.018
318.15	0.191	0.019
323.15	0.195	0.02

System: ethanol + 2-diphenylmethoxy-N,N-dimethylethanamine hydrochloride; phases: Liquid, Crystal
Fixed: Pressure, kPa = 100
Property: Mole fraction of 2-diphenylmethoxy-N,N-dimethylethanamine hydrochloride (Liquid); method: Gravimetric
Temperature, K	Mole fraction of 2-diphenylmethoxy-N,N-dimethylethanamine hydrochloride	uncertainty
278.15	0.0217	0.0022
283.15	0.0296	0.003
288.15	0.0392	0.0039
293.15	0.0505	0.0051
298.15	0.0633	0.0063
303.15	0.0774	0.0077
308.15	0.0924	0.0092
313.15	0.1079	0.0108
318.15	0.1204	0.012
323.15	0.1373	0.0137

System: acetone + 2-diphenylmethoxy-N,N-dimethylethanamine hydrochloride; phases: Liquid, Crystal
Fixed: Pressure, kPa = 100
Property: Mole fraction of 2-diphenylmethoxy-N,N-dimethylethanamine hydrochloride (Liquid); method: Gravimetric
Temperature, K	Mole fraction of 2-diphenylmethoxy-N,N-dimethylethanamine hydrochloride	uncertainty
278.15	0.00151	0.00015
283.15	0.00193	0.00019
288.15	0.00223	0.00022
293.15	0.00259	0.00026
298.15	0.00302	0.0003
303.15	0.00352	0.00035
308.15	0.00408	0.00041
313.15	0.00488	0.00049
318.15	0.0055	0.00055
323.15	0.00662	0.00066

System: ethyl acetate + 2-diphenylmethoxy-N,N-dimethylethanamine hydrochloride; phases: Liquid, Crystal
Fixed: Pressure, kPa = 100
Property: Mole fraction of 2-diphenylmethoxy-N,N-dimethylethanamine hydrochloride (Liquid); method: Gravimetric
Temperature, K	Mole fraction of 2-diphenylmethoxy-N,N-dimethylethanamine hydrochloride	uncertainty
278.15	4.96e-05	1.59e-05
283.15	8.31e-05	2.66e-05
288.15	0.000141	1.4e-05
293.15	0.000226	2.3e-05
298.15	0.000309	3.1e-05
303.15	0.000431	4.3e-05
308.15	0.000604	6.1e-05
313.15	0.000811	8.1e-05
318.15	0.000986	9.9e-05
323.15	0.00126	0.00013

System: ethanol + ethyl acetate + 2-diphenylmethoxy-N,N-dimethylethanamine hydrochloride; phases: Liquid, Crystal
Fixed: Pressure, kPa = 100
Property: Mole fraction of 2-diphenylmethoxy-N,N-dimethylethanamine hydrochloride (Liquid); method: Gravimetric
Solvent: Mole fraction of ethanol	Temperature, K	Mole fraction of 2-diphenylmethoxy-N,N-dimethylethanamine hydrochloride	uncertainty
0.1	278.15	0.00192	0.00019
0.2	278.15	0.00531	0.00053
0.3	278.15	0.00967	0.00097
0.4	278.15	0.01496	0.0015
0.5	278.15	0.01975	0.00198
0.6	278.15	0.02504	0.00251
0.7	278.15	0.02858	0.00286
0.8	278.15	0.03029	0.00303
0.9	278.15	0.02936	0.00294
1	278.15	0.02169	0.00218
0.1	283.15	0.0022	0.00022
0.2	283.15	0.00596	0.0006
0.3	283.15	0.01141	0.00114
0.4	283.15	0.01784	0.00179
0.5	283.15	0.02333	0.00234
0.6	283.15	0.03014	0.00302
0.7	283.15	0.03565	0.00357
0.8	283.15	0.03766	0.00377
0.9	283.15	0.03643	0.00365
1	283.15	0.02961	0.00297
0.1	288.15	0.00244	0.00024
0.2	288.15	0.00689	0.00069
0.3	288.15	0.01335	0.00134
0.4	288.15	0.021	0.0021
0.5	288.15	0.02804	0.00281
0.6	288.15	0.03574	0.00358
0.7	288.15	0.04266	0.00427
0.8	288.15	0.04551	0.00455
0.9	288.15	0.04489	0.00449
1	288.15	0.03921	0.00393
0.1	293.15	0.00274	0.00027
0.2	293.15	0.00783	0.00078
0.3	293.15	0.01521	0.00152
0.4	293.15	0.02408	0.00241
0.5	293.15	0.03269	0.00327
0.6	293.15	0.04193	0.0042
0.7	293.15	0.04942	0.00495
0.8	293.15	0.0531	0.00531
0.9	293.15	0.05435	0.00544
1	293.15	0.05052	0.00506
0.1	298.15	0.00315	0.00032
0.2	298.15	0.0088	0.00088
0.3	298.15	0.01741	0.00174
0.4	298.15	0.02798	0.0028
0.5	298.15	0.03749	0.00375
0.6	298.15	0.0482	0.00482
0.7	298.15	0.05666	0.00567
0.8	298.15	0.06276	0.00628
0.9	298.15	0.06483	0.00649
1	298.15	0.0633	0.00634
0.1	303.15	0.00357	0.00036
0.2	303.15	0.00994	0.00099
0.3	303.15	0.01962	0.00196
0.4	303.15	0.03228	0.00323
0.5	303.15	0.04585	0.00459
0.6	303.15	0.05883	0.00589
0.7	303.15	0.06931	0.00694
0.8	303.15	0.07564	0.00757
0.9	303.15	0.07886	0.00789
1	303.15	0.07738	0.00775
0.1	308.15	0.004	0.0004
0.2	308.15	0.01111	0.00111
0.3	308.15	0.0222	0.00222
0.4	308.15	0.03682	0.00368
0.5	308.15	0.05257	0.00526
0.6	308.15	0.06701	0.00671
0.7	308.15	0.07845	0.00785
0.8	308.15	0.09161	0.00917
0.9	308.15	0.09451	0.00946
1	308.15	0.09239	0.00925
0.1	313.15	0.00432	0.00043
0.2	313.15	0.01196	0.0012
0.3	313.15	0.02559	0.00256
0.4	313.15	0.04224	0.00423
0.5	313.15	0.06109	0.00611
0.6	313.15	0.07751	0.00776
0.7	313.15	0.09209	0.00921
0.8	313.15	0.1009	0.01009
0.9	313.15	0.10862	0.01087
1	313.15	0.1079	0.0108
0.1	318.15	0.0051	0.00051
0.2	318.15	0.01475	0.00148
0.3	318.15	0.02916	0.00292
0.4	318.15	0.0467	0.00467
0.5	318.15	0.06645	0.00665
0.6	318.15	0.08819	0.00882
0.7	318.15	0.10277	0.01028
0.8	318.15	0.11399	0.0114
0.9	318.15	0.11943	0.01195
1	318.15	0.12043	0.01205
0.1	323.15	0.00628	0.00063
0.2	323.15	0.01614	0.00162
0.3	323.15	0.03259	0.00326
0.4	323.15	0.05415	0.00542
0.5	323.15	0.07558	0.00756
0.6	323.15	0.09722	0.00972
0.7	323.15	0.10981	0.01098
0.8	323.15	0.12561	0.01256
0.9	323.15	0.13165	0.01317
1	323.15	0.13732	0.01374
0	278.15	4.96e-05	5e-06
0	283.15	8.31e-05	8.4e-06
0	288.15	0.000141	1.4e-05
0	293.15	0.000226	2.3e-05
0	298.15	0.000309	3.1e-05
0	303.15	0.000431	4.3e-05
0	308.15	0.000604	6.1e-05
0	313.15	0.000811	8.1e-05
0	318.15	0.000986	9.9e-05
0	323.15	0.00126	0.00013

System: ethanol + acetone + 2-diphenylmethoxy-N,N-dimethylethanamine hydrochloride; phases: Liquid, Crystal
Fixed: Pressure, kPa = 100
Property: Mole fraction of 2-diphenylmethoxy-N,N-dimethylethanamine hydrochloride (Liquid); method: Gravimetric
Solvent: Mole fraction of ethanol	Temperature, K	Mole fraction of 2-diphenylmethoxy-N,N-dimethylethanamine hydrochloride	uncertainty
0.1	278.15	0.00682	0.00068
0.2	278.15	0.01388	0.00139
0.3	278.15	0.02274	0.00228
0.4	278.15	0.02868	0.00287
0.5	278.15	0.03451	0.00345
0.6	278.15	0.03808	0.00381
0.7	278.15	0.03967	0.00397
0.8	278.15	0.03738	0.00374
0.9	278.15	0.03249	0.00326
1	278.15	0.02169	0.00218
0.1	283.15	0.0082	0.00082
0.2	283.15	0.01628	0.00163
0.3	283.15	0.02545	0.00255
0.4	283.15	0.03347	0.00335
0.5	283.15	0.04021	0.00402
0.6	283.15	0.04435	0.00444
0.7	283.15	0.04772	0.00477
0.8	283.15	0.0456	0.00456
0.9	283.15	0.04033	0.00404
1	283.15	0.02961	0.00297
0.1	288.15	0.00882	0.00088
0.2	288.15	0.01784	0.00178
0.3	288.15	0.02757	0.00276
0.4	288.15	0.03729	0.00373
0.5	288.15	0.04516	0.00452
0.6	288.15	0.05051	0.00505
0.7	288.15	0.0531	0.00531
0.8	288.15	0.05236	0.00524
0.9	288.15	0.04816	0.00482
1	288.15	0.03921	0.00393
0.1	293.15	0.00989	0.00099
0.2	293.15	0.01995	0.002
0.3	293.15	0.03155	0.00316
0.4	293.15	0.04223	0.00423
0.5	293.15	0.05144	0.00515
0.6	293.15	0.0585	0.00585
0.7	293.15	0.06211	0.00621
0.8	293.15	0.06187	0.00619
0.9	293.15	0.05912	0.00592
1	293.15	0.05052	0.00506
0.1	298.15	0.01103	0.0011
0.2	298.15	0.02251	0.00225
0.3	298.15	0.03528	0.00353
0.4	298.15	0.04732	0.00473
0.5	298.15	0.05766	0.00577
0.6	298.15	0.06523	0.00653
0.7	298.15	0.06894	0.0069
0.8	298.15	0.07146	0.00715
0.9	298.15	0.06601	0.00661
1	298.15	0.0633	0.00634
0.1	303.15	0.01271	0.00127
0.2	303.15	0.02582	0.00258
0.3	303.15	0.04074	0.00408
0.4	303.15	0.05399	0.0054
0.5	303.15	0.06599	0.0066
0.6	303.15	0.07494	0.0075
0.7	303.15	0.08114	0.00812
0.8	303.15	0.08382	0.00839
0.9	303.15	0.08151	0.00816
1	303.15	0.07738	0.00775
0.1	308.15	0.01445	0.00145
0.2	308.15	0.02996	0.003
0.3	308.15	0.04588	0.00459
0.4	308.15	0.06051	0.00605
0.5	308.15	0.07485	0.00749
0.6	308.15	0.08446	0.00845
0.7	308.15	0.09167	0.00917
0.8	308.15	0.09489	0.00949
0.9	308.15	0.09367	0.00937
1	308.15	0.09239	0.00925
0.1	313.15	0.01699	0.0017
0.2	313.15	0.03437	0.00344
0.3	313.15	0.05281	0.00528
0.4	313.15	0.06529	0.00653
0.5	313.15	0.0826	0.00826
0.6	313.15	0.09195	0.0092
0.7	313.15	0.10106	0.01011
0.8	313.15	0.10621	0.01063
0.9	313.15	0.11019	0.01103
1	313.15	0.1079	0.0108
0.1	318.15	0.01996	0.002
0.2	318.15	0.04216	0.00422
0.3	318.15	0.06237	0.00624
0.4	318.15	0.0772	0.00773
0.5	318.15	0.09492	0.0095
0.6	318.15	0.10572	0.01058
0.7	318.15	0.11259	0.01126
0.8	318.15	0.12025	0.01203
0.9	318.15	0.12548	0.01255
1	318.15	0.12043	0.01205
0.1	323.15	0.02522	0.00253
0.2	323.15	0.04795	0.0048
0.3	323.15	0.07087	0.00709
0.4	323.15	0.08895	0.0089
0.5	323.15	0.10402	0.01041
0.6	323.15	0.1158	0.01158
0.7	323.15	0.12256	0.01226
0.8	323.15	0.13097	0.0131
0.9	323.15	0.13501	0.01351
1	323.15	0.13732	0.01374
0	278.15	0.00151	0.00015
0	283.15	0.00193	0.00019
0	288.15	0.00223	0.00022
0	293.15	0.00259	0.00026
0	298.15	0.00302	0.0003
0	303.15	0.00352	0.00035
0	308.15	0.00408	0.00041
0	313.15	0.00488	0.00049
0	318.15	0.0055	0.00055
0	323.15	0.00662	0.00066
