Measured thermophysical data. Thermodynamic stability of AuSe at temperature from (400 to 700) K by a solid state galvanic cell
Source: J. Chem. Thermodyn., 2014, 10.1016/j.jct.2013.11.031
Compound 1: gold, Au, InChI=1S/Au
Compound 2: gold silver selenide (AuAg3Se2), Ag3AuSe2, InChI=1S/3Ag.Au.2Se/q4*+1;2*-2
Compound 3: gold selenide (AuSe), AuSe, InChI=1S/Au.Se/q+2;-2, purity 98%
Compound 4: selenium, Se, InChI=1S/Se
Compound 5: silver, Ag, InChI=1S/Ag, purity 99.99%

System: gold silver selenide (AuAg3Se2); phases: Crystal 2, Crystal 1, Air at 1 atmosphere
Property: Triple point temperature, K (Crystal 2); method: From EMF slope
Triple point temperature, K	uncertainty
543	10

System: gold silver selenide (AuAg3Se2); phases: Crystal 2, Crystal 1, Air at 1 atmosphere
Property: Molar enthalpy of transition or fusion, kJ/mol (Crystal 2); method: From EMF
Molar enthalpy of transition or fusion, kJ/mol	uncertainty
27.66	0.39

Reaction: -3 silver + 1 gold + 1 gold silver selenide (AuAg3Se2) + -2 gold selenide (AuSe)
Property: Molar Gibbs energy of reaction, kJ/mol
-83.08
-83.58
-84.09
-84.6
-85.11
-85.62
-86.13
-86.63
-87.14
-87.65
-88.16
-88.67
-88.82

Reaction: -3 silver + 1 gold + 1 gold silver selenide (AuAg3Se2) + -2 gold selenide (AuSe)
Property: Molar Gibbs energy of reaction, kJ/mol
-89.01
-89.52
-90.53
-91.55
-92.57
-93.59
-94.6
-95.62
-96.64
-97.66
-98.67
-99.69
-100.71
-101.73
-102.74
-103.76
-104.78

Reaction: -1 gold + -1 selenium + 1 gold selenide (AuSe)
Property: Molar Gibbs energy of reaction, kJ/mol
-5.43

Reaction: -1 gold + -1 selenium + 1 gold selenide (AuSe)
Property: Molar enthalpy of reaction, kJ/mol
-8.77
