Measured thermophysical data. Vapor pressure of heat transfer fluids of absorption refrigeration machines and heat pumps: Binary solutions of lithium nitrate with methanol
Source: J. Chem. Thermodyn., 2005, 10.1016/j.jct.2005.03.004
Compound 1: methanol, CH4O, InChI=1S/CH4O/c1-2/h2H,1H3, purity 99.8%
Compound 2: sodium chloride, ClNa, InChI=1S/ClH.Na/h1H;/q;+1/p-1, purity 99.8%
Compound 3: lithium nitrate, LiNO3, InChI=1S/Li.NO3/c;2-1(3)4/q+1;-1, purity 99.8%

System: methanol; phases: Liquid, Gas
Property: Vapor or sublimation pressure, kPa (Liquid); method: CCELL:UFactor:0.5
Temperature, K	Vapor or sublimation pressure, kPa	uncertainty
298.15	16.971	0.046
303.15	21.877	0.053
308.15	27.958	0.066
313.15	35.441	0.081
318.15	44.537	0.099
323.15	55.576	0.113

System: methanol + sodium chloride; phases: Liquid, Gas
Fixed: Temperature, K = 298.15
Property: Vapor or sublimation pressure, kPa (Liquid); method: CCELL:UFactor:0.5
Molality, mol/kg of sodium chloride	Vapor or sublimation pressure, kPa	uncertainty
0.06943	16.903	0.049
0.07759	16.906	0.049
0.08941	16.884	0.049
0.10973	16.872	0.049
0.13151	16.852	0.049
0.16439	16.824	0.049

System: methanol + lithium nitrate; phases: Liquid, Gas
Property: Vapor or sublimation pressure, kPa (Liquid); method: CCELL:UFactor:0.5
Temperature, K	Molality, mol/kg of lithium nitrate	Vapor or sublimation pressure, kPa	uncertainty
298.15	0.18032	0.016804	0.000573
298.15	0.28532	0.016715	0.000571
298.15	0.46895	0.016551	0.000569
298.15	0.61915	0.016408	0.000566
298.15	0.68646	0.016339	0.000565
298.15	1.01345	0.015997	0.00056
298.15	1.19774	0.01579	0.000557
298.15	1.74372	0.015131	0.000547
298.15	1.81814	0.015038	0.000545
298.15	2.40163	0.014277	0.000534
298.15	2.5415	0.014086	0.000531
298.15	2.82636	0.0137	0.000525
298.15	3.55155	0.012703	0.000507
298.15	4.26031	0.011731	0.00047
298.15	4.92226	0.010874	0.000437
298.15	5.2369	0.010477	0.000422
303.15	0.18032	0.021678	0.000647
303.15	0.28532	0.021563	0.000646
303.15	0.46895	0.021347	0.000642
303.15	0.61915	0.021158	0.000639
303.15	0.68646	0.021068	0.000638
303.15	1.01345	0.020619	0.000631
303.15	1.19774	0.020346	0.000627
303.15	1.74372	0.019485	0.000614
303.15	1.81814	0.019366	0.000612
303.15	2.40163	0.018375	0.000597
303.15	2.5415	0.018121	0.000593
303.15	2.82636	0.017619	0.000585
303.15	3.55155	0.01633	0.000565
303.15	4.26031	0.015069	0.000546
303.15	4.92226	0.01394	0.000529
303.15	5.2369	0.013431	0.000521
308.15	0.18032	0.027698	0.00074
308.15	0.28532	0.02755	0.000738
308.15	0.46895	0.027267	0.000734
308.15	0.61915	0.027019	0.00073
308.15	0.68646	0.026903	0.000728
308.15	1.01345	0.026318	0.000719
308.15	1.19774	0.025963	0.000714
308.15	1.74372	0.024857	0.000697
308.15	1.81814	0.024695	0.000694
308.15	2.40163	0.023414	0.000674
308.15	2.5415	0.02309	0.000669
308.15	2.82636	0.022443	0.000659
308.15	3.55155	0.020774	0.000634
308.15	4.26031	0.019158	0.000609
308.15	4.92226	0.017709	0.000587
308.15	5.2369	0.017056	0.000577
313.15	0.18032	0.035113	0.000855
313.15	0.28532	0.034924	0.000852
313.15	0.46895	0.034559	0.000847
313.15	0.61915	0.034239	0.000842
313.15	0.68646	0.034089	0.000839
313.15	1.01345	0.033334	0.000828
313.15	1.19774	0.032878	0.000821
313.15	1.74372	0.031452	0.000798
313.15	1.81814	0.031252	0.000795
313.15	2.40163	0.029603	0.00077
313.15	2.5415	0.029188	0.000763
313.15	2.82636	0.028361	0.000751
313.15	3.55155	0.026229	0.000718
313.15	4.26031	0.024169	0.000686
313.15	4.92226	0.02233	0.000658
313.15	5.2369	0.021506	0.000645
318.15	0.18032	0.04411	0.000994
318.15	0.28532	0.04387	0.000991
318.15	0.46895	0.043401	0.000983
318.15	0.61915	0.042987	0.000977
318.15	0.68646	0.042794	0.000974
318.15	1.01345	0.041821	0.000959
318.15	1.19774	0.041244	0.00095
318.15	1.74372	0.039436	0.000922
318.15	1.81814	0.039176	0.000918
318.15	2.40163	0.037077	0.000885
318.15	2.5415	0.036556	0.000877
318.15	2.82636	0.035507	0.000861
318.15	3.55155	0.032792	0.000819
318.15	4.26031	0.030194	0.000779
318.15	4.92226	0.027882	0.000743
318.15	5.2369	0.026842	0.000727
323.15	0.18032	0.055052	0.001163
323.15	0.28532	0.054747	0.001159
323.15	0.46895	0.054149	0.001149
323.15	0.61915	0.053624	0.001141
323.15	0.68646	0.053382	0.001138
323.15	1.01345	0.05214	0.001118
323.15	1.19774	0.051418	0.001107
323.15	1.74372	0.049123	0.001072
323.15	1.81814	0.048789	0.001066
323.15	2.40163	0.046161	0.001026
323.15	2.5415	0.045498	0.001015
323.15	2.82636	0.044178	0.000995
323.15	3.55155	0.040774	0.000942
323.15	4.26031	0.037493	0.000892
323.15	4.92226	0.034594	0.000847
323.15	5.2369	0.033303	0.000827
