Measured thermophysical data. Phase behavior of {carbon dioxide + [bmim][Ac]} mixtures
Source: J. Chem. Thermodyn., 2008, 10.1016/j.jct.2007.06.003
Compound 1: carbon dioxide, CO2, InChI=1S/CO2/c2-1-3, purity 99.99%
Compound 2: 1-butyl-3-methylimidazolium acetate, C10H18N2O2, InChI=1S/C8H15N2.C2H4O2/c1-3-4-5-10-7-6-9(2)8-10;1-2(3)4/h6-8H,3-5H2,1-2H3;1H3,(H,3,4)/q+1;/p-1, purity 95%

System: 1-butyl-3-methylimidazolium acetate; phases: Liquid
Property: Mass density, kg/m3 (Liquid); method: Pycnometric method
Temperature, K	Pressure, kPa	Mass density, kg/m3	uncertainty
298.15	101.325	1053	6

System: carbon dioxide + 1-butyl-3-methylimidazolium acetate; phases: Liquid mixture 1, Liquid mixture 2, Gas
Property: Molar volume, m3/mol (Liquid mixture 1); method: Pycnometric method
Temperature, K	Molar volume, m3/mol	uncertainty
281.1	6.97e-05	1.4e-05
288.7	7.3e-05	1.4e-05
292.2	7.5e-05	1.4e-05

System: carbon dioxide + 1-butyl-3-methylimidazolium acetate; phases: Liquid mixture 2, Liquid mixture 1, Gas
Property: Molar volume, m3/mol (Liquid mixture 2); method: Pycnometric method
Temperature, K	Molar volume, m3/mol	uncertainty
281.1	5.05e-05	8e-06
288.7	5.4e-05	8e-06
292.2	5.49e-05	8e-06

System: carbon dioxide + 1-butyl-3-methylimidazolium acetate; phases: Liquid mixture 1, Liquid mixture 2, Gas
Property: Mole fraction of carbon dioxide (Liquid mixture 1); method: volumetric method
Temperature, K	Mole fraction of carbon dioxide	uncertainty
281.1	0.723	0.06
288.7	0.705	0.06
292.2	0.696	0.06

System: carbon dioxide + 1-butyl-3-methylimidazolium acetate; phases: Liquid mixture 2, Liquid mixture 1, Gas
Property: Mole fraction of carbon dioxide (Liquid mixture 2); method: volumetric method
Temperature, K	Mole fraction of carbon dioxide	uncertainty
281.1	1	0.008
288.7	1	0.008
292.2	1	0.008

System: carbon dioxide + 1-butyl-3-methylimidazolium acetate; phases: Liquid, Gas
Property: Mole fraction of carbon dioxide (Liquid); method: gravimetric microbalance
Temperature, K	Pressure, kPa	Mole fraction of carbon dioxide	uncertainty
283.1	10.2	0.192	0.146
283.1	50.2	0.273	0.042
283.1	100.2	0.307	0.012
283.1	399.7	0.357	0.012
283.1	699.4	0.393	0.012
298.1	10.1	0.188	0.052
298.1	50.2	0.252	0.012
298.1	100.3	0.274	0.012
298.1	399.9	0.324	0.012
298.1	700.2	0.355	0.012
298.1	999.6	0.381	0.012
298.1	1500.1	0.42	0.013
298.1	1999.4	0.455	0.013
298.2	1300.1	0.405	0.013
323.1	10.4	0.108	0.012
323.1	50.4	0.176	0.012
323.1	100.4	0.204	0.012
323.1	399.5	0.263	0.012
323.1	1000.1	0.315	0.012
323.1	1300.2	0.334	0.012
323.1	1499.5	0.346	0.012
323.2	700.3	0.292	0.012
323.2	1999.3	0.373	0.012
348.1	10.4	0.063	0.012
348.1	50.5	0.129	0.012
348.1	100	0.161	0.012
348.1	400.2	0.226	0.012
348.1	699.4	0.253	0.012
348.1	1000.3	0.272	0.012
348.1	1299.4	0.287	0.012
348.1	1499.7	0.294	0.012
348.2	1999.3	0.316	0.012
