Measured thermophysical data. Quaternary and ternary LLE measurements for solvent (2-methyltetrahydrofuran and cyclopentyl methyl ether) + furfural + acetic acid + water between 298 and 343 K
Source: J. Chem. Thermodyn., 2018, 10.1016/j.jct.2017.12.015
Compound 1: 2-methyltetrahydrofuran, C5H10O, InChI=1S/C5H10O/c1-5-3-2-4-6-5/h5H,2-4H2,1H3, purity 99.5%
Compound 2: methoxycyclopentane, C6H12O, InChI=1S/C6H12O/c1-7-6-4-2-3-5-6/h6H,2-5H2,1H3, purity 99.9%
Compound 3: acetic acid, C2H4O2, InChI=1S/C2H4O2/c1-2(3)4/h1H3,(H,3,4), purity 99.8%
Compound 4: 2-furaldehyde, C5H4O2, InChI=1S/C5H4O2/c6-4-5-2-1-3-7-5/h1-4H, purity 99%
Compound 5: water, H2O, InChI=1S/H2O/h1H2, purity 99.8%
Compound 6: acetone, C3H6O, InChI=1S/C3H6O/c1-3(2)4/h1-2H3, purity 99.93%

System: 2-methyltetrahydrofuran; phases: Liquid
Property: Refractive index (Na D-line) (Liquid); method: Standard Abbe refractometry
Temperature, K	Pressure, kPa	Refractive index (Na D-line)	uncertainty
298	101.325	1.40299	0.00104

System: 2-methyltetrahydrofuran; phases: Liquid, Gas
Property: Vapor or sublimation pressure, kPa (Liquid); method: Ebulliometric method (Recirculating still)
Temperature, K	Vapor or sublimation pressure, kPa	uncertainty
352.84	100.8	0.4
350.53	93.8	0.4
347.21	84.4	0.3
341.54	70.1	0.3
337.97	62.1	0.3
327.67	43	0.3
323.22	36.4	0.3

System: methoxycyclopentane; phases: Liquid
Property: Refractive index (Na D-line) (Liquid); method: Standard Abbe refractometry
Temperature, K	Pressure, kPa	Refractive index (Na D-line)	uncertainty
298	101.325	1.41833	0.00104

System: methoxycyclopentane; phases: Liquid, Gas
Property: Vapor or sublimation pressure, kPa (Liquid); method: Ebulliometric method (Recirculating still)
Temperature, K	Vapor or sublimation pressure, kPa	uncertainty
377.89	99.8	0.3
374.39	90	0.3
369.78	78.3	0.3
366.69	71.1	0.3
363.57	64.4	0.3
356.3	50.7	0.3
350.4	41.4	0.3
345.38	34.6	0.2
340.92	29.4	0.2

System: acetic acid; phases: Liquid
Property: Refractive index (Na D-line) (Liquid); method: Standard Abbe refractometry
Temperature, K	Pressure, kPa	Refractive index (Na D-line)	uncertainty
298	101.325	1.37203	0.00104

System: 2-furaldehyde; phases: Liquid
Property: Refractive index (Na D-line) (Liquid); method: Standard Abbe refractometry
Temperature, K	Pressure, kPa	Refractive index (Na D-line)	uncertainty
298	101.325	1.52364	0.00104

System: water; phases: Liquid
Property: Refractive index (Na D-line) (Liquid); method: Standard Abbe refractometry
Temperature, K	Pressure, kPa	Refractive index (Na D-line)	uncertainty
298	101.325	1.3325	0.001

System: acetone; phases: Liquid
Property: Refractive index (Na D-line) (Liquid); method: Standard Abbe refractometry
Temperature, K	Pressure, kPa	Refractive index (Na D-line)	uncertainty
298	101.325	1.3555	0.001

System: 2-methyltetrahydrofuran + acetic acid + water; phases: Liquid mixture 2, Liquid mixture 1
Fixed: Pressure, kPa = 101.3
Property: Mass fraction of acetic acid (Liquid mixture 2); method: Chromatography
Property: Mass fraction of acetic acid (Liquid mixture 1); method: Chromatography
Property: Mass fraction of 2-methyltetrahydrofuran (Liquid mixture 1); method: Chromatography
Temperature, K	Mass fraction of 2-methyltetrahydrofuran	Mass fraction of acetic acid	uncertainty	Mass fraction of acetic acid	uncertainty	Mass fraction of 2-methyltetrahydrofuran	uncertainty
297.6	0.1109	0.0145	0.0145	0.0195	0.0056	0.931	
297.4	0.1154	0.0218	0.0218	0.0301	0.0056	0.9136	
297.4	0.1241	0.0567	0.0371	0.0818	0.0055	0.8257	
297.6	0.1246	0.0643	0.0401	0.0927	0.0054	0.8064	
297.4	0.1305	0.0746	0.0348	0.1088	0.0054	0.7758	
297.9	0.1258	0.0758	0.037	0.1102	0.0054	0.7742	
297.6	0.1326	0.0837	0.0292	0.122	0.0054	0.7506	
297.8	0.1317	0.0964	0.0294	0.1363	0.0054	0.7242	
298	0.1305	0.0977	0.0203	0.1384	0.0054	0.7207	
297.4	0.1364	0.1165	0.0396	0.1603	0.0053	0.6779	
298.1	0.1453	0.1219	0.0175	0.1708	0.0052	0.6472	
297.9	0.1478	0.1249	0.0137	0.1727	0.0052	0.6431	
297.6	0.1624	0.1533	0.0141	0.1985	0.0052	0.581	
297.8	0.1812	0.1744	0.0122	0.2168	0.0051	0.5233	
297.9	0.1904	0.1894	0.0151	0.2303	0.0049	0.4756	
297.8	0.2439	0.2114	0.0067	0.2335	0.0049	0.3999	
322.1	0.0697	0.0161	0.0161	0.0183	0.0056	0.9326	
321.8	0.0802	0.0603	0.0351	0.0752	0.0057	0.844	
322.2	0.0818	0.0681	0.0338	0.086	0.0056	0.8267	
321.8	0.0863	0.0772	0.0351	0.0981	0.0055	0.8055	
322.9	0.0844	0.0834	0.0233	0.1054	0.0057	0.7947	
322.3	0.0887	0.0867	0.0288	0.1115	0.0057	0.7842	
322.5	0.091	0.1	0.0247	0.1271	0.0056	0.7571	
322.9	0.0898	0.1072	0.0218	0.1339	0.0055	0.7443	
322.7	0.1019	0.1248	0.0205	0.1601	0.0055	0.6956	
321.9	0.0965	0.1258	0.0187	0.1558	0.0055	0.7053	
323.2	0.1037	0.1329	0.0185	0.1688	0.0054	0.6794	
322.2	0.1111	0.154	0.0216	0.1895	0.0055	0.6375	
322.5	0.1246	0.1747	0.0167	0.2092	0.0053	0.5918	
322.9	0.1288	0.1884	0.0213	0.2256	0.0053	0.5545	
322.5	0.144	0.2048	0.0057	0.2392	0.0051	0.5121	
341.8	0.0533	0.0181	0.0181	0.0191	0.0055	0.93	
321.8	0.0707	0.0241	0.0241	0.0285	0.0057	0.9169	
341.3	0.0565	0.0271	0.0271	0.0293	0.0057	0.9128	
341.3	0.0667	0.0642	0.0315	0.0718	0.0057	0.8477	
341.8	0.0682	0.0721	0.0315	0.0813	0.0059	0.8333	
341.3	0.0716	0.081	0.0316	0.0947	0.0056	0.8129	
342.8	0.0728	0.0905	0.0232	0.1038	0.0056	0.7973	
342	0.0721	0.0907	0.029	0.1056	0.0057	0.7985	
342.3	0.0766	0.1059	0.0285	0.1214	0.0055	0.7673	
342.8	0.0789	0.1164	0.018	0.1318	0.0056	0.7502	
342.6	0.0879	0.1307	0.0183	0.1522	0.0054	0.7139	
341.3	0.0873	0.1355	0.0263	0.1559	0.0055	0.7074	
343.2	0.0941	0.1446	0.0185	0.169	0.0054	0.6842	
341.8	0.0991	0.1592	0.0146	0.1811	0.0054	0.659	
342.3	0.112	0.1824	0.0133	0.2057	0.0054	0.6064	
342.8	0.1191	0.1967	0.0103	0.2234	0.0053	0.5679	
342.3	0.1385	0.2151	0.0102	0.2376	0.0052	0.5241	

System: methoxycyclopentane + acetic acid + water; phases: Liquid mixture 2, Liquid mixture 1
Fixed: Pressure, kPa = 101
Property: Mass fraction of methoxycyclopentane (Liquid mixture 2); method: Chromatography
Property: Mass fraction of acetic acid (Liquid mixture 1); method: Chromatography
Property: Mass fraction of methoxycyclopentane (Liquid mixture 1); method: Chromatography
Temperature, K	Mass fraction of acetic acid	Mass fraction of methoxycyclopentane	uncertainty	Mass fraction of acetic acid	uncertainty	Mass fraction of methoxycyclopentane	uncertainty
297.9	0.4214	0.0737	0.009	0.3012	0.0107	0.5957	
297.5	0.4082	0.0666	0.009	0.2844	0.0107	0.6224	
297.2	0.3849	0.0547	0.0088	0.2529	0.0106	0.669	
297.3	0.3046	0.0322	0.0083	0.1714	0.0106	0.7831	
297.8	0.3795	0.0522	0.0088	0.2463	0.0106	0.6786	
297.4	0.3633	0.0461	0.0084	0.2284	0.0106	0.7046	
297.1	0.3357	0.0395	0.0084	0.2	0.0106	0.744	
296.7	0.255	0.0254	0.0083	0.1305	0.0106	0.8359	
297.9	0.2413	0.0236	0.0082	0.1197	0.0106	0.8492	
297.7	0.2401	0.0234	0.0082	0.1188	0.0106	0.8507	
297.5	0.2013	0.0201	0.0082	0.0925	0.0105	0.8836	
297.4	0.1507	0.017	0.0082	0.0622	0.0105	0.92	
322.6	0.4303	0.0803	0.0097	0.2793	0.0107	0.6286	
321.9	0.4184	0.0709	0.0092	0.2644	0.0107	0.6525	
321.2	0.3936	0.057	0.0087	0.2334	0.0106	0.6965	
321.6	0.3128	0.0325	0.0083	0.1591	0.0106	0.7981	
322.6	0.3947	0.056	0.0086	0.2326	0.0106	0.6982	
322.4	0.3772	0.0499	0.0086	0.2144	0.0106	0.7243	
321.9	0.3485	0.0411	0.0084	0.189	0.0106	0.7589	
321.6	0.266	0.0244	0.0083	0.1242	0.0106	0.8435	
322.8	0.2498	0.0223	0.0082	0.1132	0.0105	0.8565	
322.5	0.2488	0.0223	0.0082	0.1132	0.0106	0.8564	
322.1	0.2082	0.0179	0.0082	0.0884	0.0106	0.8876	
321.7	0.155	0.0144	0.0082	0.0607	0.0105	0.9174	
342.3	0.4349	0.0872	0.0095	0.2613	0.0111	0.6651	
341.4	0.4245	0.0798	0.0098	0.2551	0.0111	0.6654	
341.7	0.3995	0.0609	0.0094	0.2195	0.0113	0.7239	
341.1	0.3182	0.0344	0.0084	0.1526	0.0106	0.807	
342.6	0.4014	0.0646	0.0094	0.2276	0.0106	0.7014	
341.9	0.3868	0.0562	0.0086	0.2103	0.0113	0.7284	
341.3	0.3559	0.0452	0.0085	0.1835	0.0106	0.7661	
340.6	0.2741	0.0265	0.0083	0.1216	0.0106	0.8475	
342.8	0.2551	0.0242	0.0082	0.1099	0.0106	0.862	
342.3	0.2552	0.0237	0.0082	0.1107	0.0106	0.859	
341.8	0.2128	0.0186	0.0082	0.0863	0.0105	0.8881	
341.4	0.1593	0.0141	0.0082	0.0598	0.0105	0.9222	

System: acetic acid + 2-furaldehyde + water; phases: Liquid mixture 2, Liquid mixture 1
Fixed: Pressure, kPa = 101
Property: Mass fraction of acetic acid (Liquid mixture 2); method: Chromatography
Property: Mass fraction of acetic acid (Liquid mixture 1); method: Chromatography
Property: Mass fraction of 2-furaldehyde (Liquid mixture 1); method: Chromatography
Temperature, K	Mass fraction of 2-furaldehyde	Mass fraction of acetic acid	uncertainty	Mass fraction of acetic acid	uncertainty	Mass fraction of 2-furaldehyde	uncertainty
298.1	0.2332	0.1599	0.0056	0.1276	0.0034	0.7188	
297.8	0.1475	0.1052	0.0066	0.0716	0.0034	0.8398	
297.5	0.1022	0.048	0.0154	0.0278	0.0037	0.9171	
297.2	0.0918	0.0256	0.0154	0.014	0.0037	0.9413	
323.2	0.2689	0.1292	0.0043	0.1048	0.003	0.7226	
322.7	0.1971	0.1031	0.0053	0.0762	0.0032	0.7951	
322.2	0.1316	0.0468	0.0072	0.0299	0.0033	0.8916	
321.7	0.1132	0.0248	0.009	0.0151	0.0034	0.9211	
342.5	0.2955	0.0998	0.0045	0.0806	0.0025	0.7272	
341.8	0.1706	0.0455	0.0075	0.0317	0.0029	0.8594	
341.4	0.1486	0.0243	0.0076	0.016	0.0031	0.8952	
343.2	0.2994	0.1033	0.0045	0.0854	0.0025	0.705	
