Measured thermophysical data. Thermodynamics of the interactions of a homologous series of some amino acids with trimethylamine N-oxide: Volumetric, compressibility, and calorimetric studies
Source: J. Chem. Thermodyn., 2011, 10.1016/j.jct.2011.05.012
Compound 1: 2-aminoacetic acid, C2H5NO2, InChI=1S/C2H5NO2/c3-1-2(4)5/h1,3H2,(H,4,5), purity 99%
Compound 2: (S)-2-aminopropanoic acid, C3H7NO2, InChI=1S/C3H7NO2/c1-2(4)3(5)6/h2H,4H2,1H3,(H,5,6)/t2-/m0/s1, purity 99%
Compound 3: (.+-.)-.alpha.-aminobutyric acid, C4H9NO2, InChI=1S/C4H9NO2/c1-2-3(5)4(6)7/h3H,2,5H2,1H3,(H,6,7), purity 99%
Compound 4: L-valine, C5H11NO2, InChI=1S/C5H11NO2/c1-3(2)4(6)5(7)8/h3-4H,6H2,1-2H3,(H,7,8)/t4-/m0/s1, purity 98%
Compound 5: L-leucine, C6H13NO2, InChI=1S/C6H13NO2/c1-4(2)3-5(7)6(8)9/h4-5H,3,7H2,1-2H3,(H,8,9)/t5-/m0/s1, purity 98%
Compound 6: trimethylamine oxide, C3H9NO, InChI=1S/C3H9NO/c1-4(2,3)5/h1-3H3, purity 98%
Compound 7: water, H2O, InChI=1S/H2O/h1H2

System: 2-aminoacetic acid + trimethylamine oxide + water; phases: Liquid
Fixed: Solvent: Molality, mol/kg of trimethylamine oxide = 0.25
Fixed: Initial molality of solute, mol/kg = 0.2
Fixed: Pressure, kPa = 101
Property: Molar enthalpy of dilution, kJ/mol (Liquid); method: Titration calibration
Temperature, K	Final molality of solute, mol/kg	Molar enthalpy of dilution, kJ/mol	uncertainty
288.15	0.0014	0.1589	0.0026
288.15	0.0021	0.156	0.0026
288.15	0.0028	0.1533	0.0025
288.15	0.00349	0.1508	0.0025
288.15	0.00418	0.1481	0.0025
288.15	0.00487	0.1467	0.0025
288.15	0.00555	0.1441	0.0024
288.15	0.00624	0.1425	0.0024
288.15	0.00692	0.1404	0.0024
288.15	0.00759	0.1392	0.0024
288.15	0.00827	0.137	0.0024
288.15	0.00894	0.1354	0.0024
288.15	0.00961	0.1338	0.0023
288.15	0.01028	0.1325	0.0023
288.15	0.01095	0.1313	0.0023
288.15	0.01161	0.1296	0.0023
288.15	0.01227	0.1284	0.0023
288.15	0.01293	0.1269	0.0023
288.15	0.01358	0.1258	0.0023
288.15	0.01424	0.1245	0.0022
288.15	0.01489	0.123	0.0022
288.15	0.01554	0.1219	0.0022
288.15	0.01618	0.1209	0.0022
288.15	0.01682	0.1198	0.0022
293.15	0.0014	0.1666	0.0027
293.15	0.0021	0.1631	0.0026
293.15	0.0028	0.1595	0.0026
293.15	0.00349	0.1567	0.0026
293.15	0.00418	0.1538	0.0025
293.15	0.00487	0.1507	0.0025
293.15	0.00555	0.149	0.0025
293.15	0.00624	0.1466	0.0025
293.15	0.00692	0.1445	0.0024
293.15	0.00759	0.1425	0.0024
293.15	0.00827	0.1402	0.0024
293.15	0.00894	0.1381	0.0024
293.15	0.00961	0.1363	0.0024
293.15	0.01028	0.1346	0.0023
293.15	0.01095	0.1334	0.0023
293.15	0.01161	0.1313	0.0023
293.15	0.01227	0.1298	0.0023
293.15	0.01293	0.128	0.0023
293.15	0.01358	0.1269	0.0023
293.15	0.01424	0.1257	0.0023
293.15	0.01489	0.1243	0.0022
293.15	0.01554	0.1225	0.0022
293.15	0.01618	0.1213	0.0022
293.15	0.01682	0.1203	0.0022
298.15	0.0014	0.1985	0.003
298.15	0.0021	0.1902	0.0029
298.15	0.0028	0.1843	0.0028
298.15	0.00349	0.1784	0.0028
298.15	0.00418	0.1735	0.0027
298.15	0.00487	0.169	0.0027
298.15	0.00555	0.1655	0.0027
298.15	0.00624	0.1615	0.0026
298.15	0.00692	0.1584	0.0026
298.15	0.00759	0.1555	0.0026
298.15	0.00827	0.1524	0.0025
298.15	0.00894	0.1498	0.0025
298.15	0.00961	0.1472	0.0025
298.15	0.01028	0.1452	0.0025
298.15	0.01095	0.1429	0.0024
298.15	0.01161	0.1408	0.0024
298.15	0.01227	0.1386	0.0024
298.15	0.01293	0.1365	0.0024
298.15	0.01358	0.1352	0.0024
298.15	0.01424	0.1329	0.0023
298.15	0.01489	0.1316	0.0023
298.15	0.01554	0.1295	0.0023
298.15	0.01618	0.1279	0.0023
298.15	0.01682	0.1267	0.0023
303.15	0.0014	0.2364	0.0034
303.15	0.0021	0.2224	0.0032
303.15	0.0028	0.2119	0.0031
303.15	0.00418	0.1957	0.003
303.15	0.00487	0.1893	0.0029
303.15	0.00555	0.1834	0.0028
303.15	0.00624	0.1787	0.0028
303.15	0.00692	0.1744	0.0027
303.15	0.00759	0.1703	0.0027
303.15	0.00827	0.1664	0.0027
303.15	0.00894	0.1623	0.0026
303.15	0.00961	0.1592	0.0026
303.15	0.01028	0.1563	0.0026
303.15	0.01095	0.1538	0.0025
303.15	0.01161	0.1509	0.0025
303.15	0.01227	0.148	0.0025
303.15	0.01293	0.1459	0.0025
303.15	0.01358	0.1434	0.0024
303.15	0.01424	0.1419	0.0024
303.15	0.01489	0.1395	0.0024
303.15	0.01554	0.1375	0.0024
303.15	0.01618	0.1357	0.0024
303.15	0.01682	0.1337	0.0023
308.15	0.0014	0.2772	0.0038
308.15	0.0021	0.2558	0.0036
308.15	0.0028	0.24	0.0034
308.15	0.00349	0.2272	0.0033
308.15	0.00418	0.2169	0.0032
308.15	0.00487	0.2073	0.0031
308.15	0.00555	0.2003	0.003
308.15	0.00624	0.1925	0.0029
308.15	0.00692	0.1873	0.0029
308.15	0.00759	0.1818	0.0028
308.15	0.00827	0.1762	0.0028
308.15	0.00894	0.173	0.0027
308.15	0.00961	0.1677	0.0027
308.15	0.01028	0.1641	0.0026
308.15	0.01095	0.1612	0.0026
308.15	0.0116	0.1577	0.0026
308.15	0.01227	0.1548	0.0026
308.15	0.01293	0.1519	0.0025
308.15	0.01358	0.1487	0.0025
308.15	0.01424	0.1466	0.0025
308.15	0.01489	0.1439	0.0024
308.15	0.01554	0.1421	0.0024
308.15	0.01618	0.1404	0.0024
308.15	0.01682	0.1381	0.0024

System: 2-aminoacetic acid + trimethylamine oxide + water; phases: Liquid
Fixed: Temperature, K = 298.15
Fixed: Pressure, kPa = 101
Property: Speed of sound, m/s (Liquid); method: Sing-around technique in a fixed-path interferometer
Molality, mol/kg of 2-aminoacetic acid	Solvent: Molality, mol/kg of trimethylamine oxide	Speed of sound, m/s	uncertainty
0	1	1573.3	1.38
0	2	1657.16	1.4
0.12035	2	1662.36	1.4
0.12933	2	1662.27	1.4
0.14993	2	1663.79	1.4
0.16566	1	1584.79	1.38
0.17799	1	1585.32	1.38
0.20539	1	1586.69	1.38
0.21765	2	1666.38	1.4
0.25164	1	1588.97	1.38
0.27339	2	1668.71	1.4
0.30377	2	1669.94	1.4
0.32199	1	1592.24	1.38
0.36254	2	1672.2	1.4
0.38179	1	1595.01	1.38
0.43406	2	1675.47	1.4
0.44299	1	1597.7	1.38
0.5145	2	1678.31	1.4
0.52496	1	1601.73	1.39

System: 2-aminoacetic acid + trimethylamine oxide + water; phases: Liquid
Fixed: Temperature, K = 298.15
Fixed: Pressure, kPa = 101
Property: Mass density, kg/m3 (Liquid); method: Vibrating tube method
Molality, mol/kg of 2-aminoacetic acid	Solvent: Molality, mol/kg of trimethylamine oxide	Mass density, kg/m3	uncertainty
0	1	999.624	0.248
0	2	1003.357	0.251
0.12035	2	1007.025	0.254
0.12933	2	1007.264	0.254
0.14993	2	1007.889	0.254
0.16566	1	1004.888	0.252
0.17799	1	1005.268	0.252
0.20539	1	1006.109	0.253
0.21765	2	1009.879	0.256
0.25164	1	1007.509	0.254
0.27339	2	1011.53	0.257
0.30377	2	1012.424	0.258
0.32199	1	1009.58	0.256
0.36254	2	1014.145	0.259
0.38179	1	1011.38	0.257
0.43406	2	1016.151	0.261
0.44299	1	1013.158	0.259
0.5145	2	1018.454	0.263
0.52496	1	1015.585	0.26

System: (S)-2-aminopropanoic acid + trimethylamine oxide + water; phases: Liquid
Fixed: Solvent: Molality, mol/kg of trimethylamine oxide = 0.25
Fixed: Initial molality of solute, mol/kg = 0.2
Fixed: Pressure, kPa = 101
Property: Molar enthalpy of dilution, kJ/mol (Liquid); method: Titration calorimetry
Temperature, K	Final molality of solute, mol/kg	Molar enthalpy of dilution, kJ/mol	uncertainty
288.15	0.0014	0.1112	0.0021
288.15	0.0021	0.11	0.0021
288.15	0.0028	0.1083	0.0021
288.15	0.00349	0.107	0.0021
288.15	0.00418	0.1073	0.0021
288.15	0.00487	0.1053	0.0021
288.15	0.00555	0.1031	0.002
288.15	0.00624	0.102	0.002
288.15	0.00692	0.1011	0.002
288.15	0.00759	0.1	0.002
288.15	0.00827	0.0986	0.002
288.15	0.00894	0.0976	0.002
288.15	0.00961	0.0974	0.002
288.15	0.01028	0.0961	0.002
288.15	0.01095	0.0957	0.002
288.15	0.01161	0.0945	0.0019
288.15	0.01227	0.0944	0.0019
288.15	0.01293	0.0936	0.0019
288.15	0.01358	0.0921	0.0019
288.15	0.01424	0.0912	0.0019
288.15	0.01489	0.0899	0.0019
288.15	0.01554	0.0892	0.0019
288.15	0.01618	0.0888	0.0019
288.15	0.01682	0.0877	0.0019
293.15	0.0014	0.1187	0.0022
293.15	0.0021	0.1164	0.0022
293.15	0.0028	0.1149	0.0022
293.15	0.00349	0.113	0.0021
293.15	0.00418	0.1115	0.0021
293.15	0.00487	0.1092	0.0021
293.15	0.00555	0.1084	0.0021
293.15	0.00624	0.1067	0.0021
293.15	0.00692	0.1056	0.0021
293.15	0.00759	0.1042	0.002
293.15	0.00827	0.1028	0.002
293.15	0.00894	0.1015	0.002
293.15	0.00961	0.1004	0.002
293.15	0.01028	0.0989	0.002
293.15	0.01095	0.098	0.002
293.15	0.01161	0.0967	0.002
293.15	0.01227	0.0959	0.002
293.15	0.01293	0.0945	0.0019
293.15	0.01358	0.0931	0.0019
293.15	0.01424	0.0929	0.0019
293.15	0.01489	0.0919	0.0019
293.15	0.01554	0.0902	0.0019
293.15	0.01618	0.0898	0.0019
293.15	0.01682	0.089	0.0019
298.15	0.0014	0.1281	0.0023
298.15	0.0021	0.1251	0.0023
298.15	0.0028	0.1227	0.0022
298.15	0.00349	0.1203	0.0022
298.15	0.00418	0.1181	0.0022
298.15	0.00487	0.1157	0.0022
298.15	0.00555	0.1146	0.0021
298.15	0.00624	0.112	0.0021
298.15	0.00692	0.1107	0.0021
298.15	0.00759	0.1091	0.0021
298.15	0.00827	0.1077	0.0021
298.15	0.00894	0.1053	0.0021
298.15	0.00961	0.1047	0.0021
298.15	0.01028	0.1035	0.002
298.15	0.01095	0.1016	0.002
298.15	0.0116	0.1007	0.002
298.15	0.01227	0.0993	0.002
298.15	0.01293	0.0983	0.002
298.15	0.01358	0.0969	0.002
298.15	0.01424	0.096	0.002
298.15	0.01489	0.0946	0.0019
298.15	0.01554	0.0933	0.0019
298.15	0.01618	0.0921	0.0019
298.15	0.01682	0.0916	0.0019
303.15	0.0014	0.1732	0.0027
303.15	0.0021	0.1677	0.0027
303.15	0.0028	0.1627	0.0026
303.15	0.00349	0.1578	0.0026
303.15	0.00418	0.1527	0.0025
303.15	0.00487	0.1486	0.0025
303.15	0.00555	0.1441	0.0024
303.15	0.00624	0.1402	0.0024
303.15	0.00691	0.1373	0.0024
303.15	0.00759	0.1339	0.0023
303.15	0.00827	0.1304	0.0023
303.15	0.00894	0.1288	0.0023
303.15	0.00961	0.128	0.0023
303.15	0.01028	0.1236	0.0022
303.15	0.01095	0.1227	0.0022
303.15	0.01161	0.1187	0.0022
303.15	0.01227	0.1166	0.0022
303.15	0.01358	0.1133	0.0021
303.15	0.01424	0.1114	0.0021
303.15	0.01489	0.1097	0.0021
303.15	0.01554	0.1081	0.0021
303.15	0.01618	0.1064	0.0021
303.15	0.01682	0.1045	0.002
308.15	0.0014	0.1611	0.0026
308.15	0.0021	0.156	0.0026
308.15	0.0028	0.1504	0.0025
308.15	0.00349	0.1469	0.0025
308.15	0.00418	0.1442	0.0024
308.15	0.00487	0.1399	0.0024
308.15	0.00555	0.1379	0.0024
308.15	0.00624	0.1337	0.0023
308.15	0.00692	0.1318	0.0023
308.15	0.00759	0.1293	0.0023
308.15	0.00827	0.1262	0.0023
308.15	0.00894	0.1248	0.0023
308.15	0.00961	0.1217	0.0022
308.15	0.01028	0.1195	0.0022
308.15	0.01095	0.1181	0.0022
308.15	0.01161	0.116	0.0022
308.15	0.01227	0.1137	0.0021
308.15	0.01293	0.1124	0.0021
308.15	0.01358	0.11	0.0021
308.15	0.01424	0.1092	0.0021
308.15	0.01489	0.1073	0.0021
308.15	0.01554	0.1065	0.0021
308.15	0.01618	0.1055	0.0021
308.15	0.01682	0.1042	0.002

System: (S)-2-aminopropanoic acid + trimethylamine oxide + water; phases: Liquid
Fixed: Temperature, K = 298.15
Fixed: Pressure, kPa = 101
Property: Speed of sound, m/s (Liquid); method: Sing-around technique in a fixed-path interferometer
Molality, mol/kg of (S)-2-aminopropanoic acid	Solvent: Molality, mol/kg of trimethylamine oxide	Speed of sound, m/s	uncertainty
0	1	1573.85	1.38
0	2	1657.82	1.4
0.05831	1	1577.61	1.38
0.10744	2	1664.34	1.4
0.1255	1	1581.95	1.38
0.15414	2	1667.2	1.4
0.15836	1	1584.01	1.38
0.18732	1	1585.9	1.38
0.21101	1	1587.37	1.38
0.21395	2	1670.5	1.4
0.25256	2	1672.66	1.4
0.25905	1	1590.17	1.38
0.31572	1	1593.68	1.38
0.32003	2	1676.5	1.4
0.35403	2	1678.22	1.4
0.3676	1	1596.8	1.38
0.40495	1	1599.08	1.38
0.40635	2	1681.31	1.41
0.5003	1	1604.75	1.39
0.50627	2	1687	1.41

System: (S)-2-aminopropanoic acid + trimethylamine oxide + water; phases: Liquid
Fixed: Temperature, K = 298.15
Fixed: Pressure, kPa = 101
Property: Mass density, kg/m3 (Liquid); method: Vibrating tube method
Molality, mol/kg of (S)-2-aminopropanoic acid	Solvent: Molality, mol/kg of trimethylamine oxide	Mass density, kg/m3	uncertainty
0	1	999.643	0.248
0	2	1003.395	0.251
0.05831	1	1001.316	0.249
0.10744	2	1006.448	0.253
0.1255	1	1003.22	0.25
0.15414	2	1007.718	0.254
0.15836	1	1004.135	0.251
0.18732	1	1004.949	0.252
0.21101	1	1005.604	0.252
0.21395	2	1009.39	0.255
0.25256	2	1010.431	0.256
0.25905	1	1006.917	0.253
0.31572	1	1008.478	0.255
0.32003	2	1012.315	0.258
0.35403	2	1013.22	0.259
0.3676	1	1009.988	0.256
0.40495	1	1010.873	0.257
0.40635	2	1014.58	0.26
0.5003	1	1013.411	0.259
0.50627	2	1017.274	0.262

System: trimethylamine oxide + (.+-.)-.alpha.-aminobutyric acid + water; phases: Liquid
Fixed: Solvent: Molality, mol/kg of trimethylamine oxide = 0.25
Fixed: Initial molality of solute, mol/kg = 0.2
Fixed: Pressure, kPa = 101
Property: Molar enthalpy of dilution, kJ/mol (Liquid); method: Titration calorimetry
Temperature, K	Final molality of solute, mol/kg	Molar enthalpy of dilution, kJ/mol	uncertainty
288.15	0.0014	0.1216	0.0022
288.15	0.0021	0.1183	0.0022
288.15	0.0028	0.1155	0.0022
288.15	0.00349	0.1136	0.0021
288.15	0.00418	0.111	0.0021
288.15	0.00487	0.1088	0.0021
288.15	0.00555	0.1071	0.0021
288.15	0.00624	0.1055	0.0021
288.15	0.00692	0.1034	0.002
288.15	0.00759	0.102	0.002
288.15	0.00827	0.0999	0.002
288.15	0.00894	0.0987	0.002
288.15	0.00961	0.097	0.002
288.15	0.01028	0.096	0.002
288.15	0.01095	0.095	0.002
288.15	0.01161	0.0933	0.0019
288.15	0.01227	0.0922	0.0019
288.15	0.01293	0.0911	0.0019
288.15	0.01358	0.0905	0.0019
288.15	0.01424	0.0889	0.0019
288.15	0.01489	0.0879	0.0019
288.15	0.01554	0.0868	0.0019
288.15	0.01618	0.0862	0.0019
288.15	0.01682	0.0852	0.0019
293.15	0.0014	0.1301	0.0023
293.15	0.0021	0.1259	0.0023
293.15	0.0028	0.1199	0.0022
293.15	0.00349	0.1205	0.0022
293.15	0.00418	0.1175	0.0022
293.15	0.00487	0.1147	0.0022
293.15	0.00555	0.1136	0.0021
293.15	0.00624	0.1108	0.0021
293.15	0.00692	0.1075	0.0021
293.15	0.00759	0.1068	0.0021
293.15	0.00827	0.1042	0.002
293.15	0.00894	0.1027	0.002
293.15	0.00961	0.1012	0.002
293.15	0.01028	0.0998	0.002
293.15	0.01095	0.0994	0.002
293.15	0.01161	0.096	0.002
293.15	0.01227	0.0951	0.002
293.15	0.01293	0.0938	0.0019
293.15	0.01358	0.0935	0.0019
293.15	0.01423	0.0911	0.0019
293.15	0.01489	0.0904	0.0019
293.15	0.01554	0.0885	0.0019
293.15	0.01618	0.0883	0.0019
293.15	0.01682	0.0873	0.0019
298.15	0.0014	0.1563	0.0026
298.15	0.0021	0.1485	0.0025
298.15	0.0028	0.1425	0.0024
298.15	0.00349	0.1376	0.0024
298.15	0.00418	0.1331	0.0023
298.15	0.00487	0.1274	0.0023
298.15	0.00555	0.1264	0.0023
298.15	0.00624	0.123	0.0022
298.15	0.00692	0.1199	0.0022
298.15	0.00759	0.1165	0.0022
298.15	0.00827	0.1134	0.0021
298.15	0.00894	0.1124	0.0021
298.15	0.00961	0.1104	0.0021
298.15	0.01028	0.1076	0.0021
298.15	0.01095	0.1061	0.0021
298.15	0.01161	0.104	0.002
298.15	0.01227	0.102	0.002
298.15	0.01293	0.1005	0.002
298.15	0.01358	0.0994	0.002
298.15	0.01424	0.0982	0.002
298.15	0.01489	0.0961	0.002
298.15	0.01554	0.0945	0.0019
298.15	0.01618	0.0932	0.0019
298.15	0.01682	0.0927	0.0019
303.15	0.0014	0.1967	0.003
303.15	0.0021	0.1849	0.0029
303.15	0.0028	0.1738	0.0027
303.15	0.00349	0.1636	0.0026
303.15	0.00418	0.1568	0.0026
303.15	0.00487	0.1509	0.0025
303.15	0.00555	0.1446	0.0024
303.15	0.00624	0.1408	0.0024
303.15	0.00692	0.137	0.0024
303.15	0.00759	0.1335	0.0023
303.15	0.00827	0.1313	0.0023
303.15	0.00894	0.1248	0.0023
303.15	0.00961	0.1223	0.0022
303.15	0.01028	0.1203	0.0022
303.15	0.01095	0.1188	0.0022
303.15	0.01161	0.1158	0.0022
303.15	0.01227	0.1123	0.0021
303.15	0.01293	0.1115	0.0021
303.15	0.01358	0.1103	0.0021
303.15	0.01424	0.1077	0.0021
303.15	0.01489	0.1069	0.0021
303.15	0.01554	0.1051	0.0021
303.15	0.01618	0.1013	0.002
303.15	0.01682	0.1016	0.002
308.15	0.0014	0.1678	0.0027
308.15	0.0021	0.1617	0.0026
308.15	0.0028	0.1562	0.0026
308.15	0.00349	0.151	0.0025
308.15	0.00418	0.1472	0.0025
308.15	0.00487	0.1427	0.0024
308.15	0.00555	0.1394	0.0024
308.15	0.00624	0.1353	0.0024
308.15	0.00692	0.1326	0.0023
308.15	0.00759	0.1292	0.0023
308.15	0.00827	0.1261	0.0023
308.15	0.00894	0.1243	0.0022
308.15	0.00961	0.1215	0.0022
308.15	0.01028	0.1195	0.0022
308.15	0.01095	0.1167	0.0022
308.15	0.01161	0.1166	0.0022
308.15	0.01227	0.1096	0.0021
308.15	0.01293	0.1112	0.0021
308.15	0.01358	0.1091	0.0021
308.15	0.01424	0.1096	0.0021
308.15	0.01489	0.1063	0.0021
308.15	0.01554	0.1048	0.0021
308.15	0.01618	0.1033	0.002
308.15	0.01682	0.1022	0.002

System: trimethylamine oxide + (.+-.)-.alpha.-aminobutyric acid + water; phases: Liquid
Fixed: Temperature, K = 298.15
Fixed: Pressure, kPa = 101
Property: Speed of sound, m/s (Liquid); method: Sing-around technique in a fixed-path interferometer
Molality, mol/kg of (.+-.)-.alpha.-aminobutyric acid	Solvent: Molality, mol/kg of trimethylamine oxide	Speed of sound, m/s	uncertainty
0	1	1573.22	1.38
0	2	1657.72	1.4
0.10866	1	1581.75	1.38
0.15227	1	1585.27	1.38
0.20811	1	1589.7	1.38
0.20973	2	1673.55	1.4
0.25301	2	1676.7	1.4
0.26079	1	1593.76	1.38
0.2958	1	1596.67	1.38
0.30487	2	1680.55	1.41
0.35784	2	1684.37	1.41
0.3603	1	1601.35	1.39
0.39153	2	1686.59	1.41
0.39606	1	1603.9	1.39
0.41695	2	1691.65	1.41
0.46496	1	1609.41	1.39
0.51272	1	1612.67	1.39
0.51478	2	1695.19	1.41

System: trimethylamine oxide + (.+-.)-.alpha.-aminobutyric acid + water; phases: Liquid
Fixed: Temperature, K = 298.15
Fixed: Pressure, kPa = 101
Property: Mass density, kg/m3 (Liquid); method: Vibrating tube method
Molality, mol/kg of (.+-.)-.alpha.-aminobutyric acid	Solvent: Molality, mol/kg of trimethylamine oxide	Mass density, kg/m3	uncertainty
0	1	999.616	0.248
0	2	1003.392	0.251
0.10866	1	1002.637	0.25
0.15227	1	1003.831	0.251
0.20811	1	1005.347	0.252
0.20973	2	1009.152	0.255
0.25301	2	1010.318	0.256
0.26079	1	1006.775	0.253
0.2958	1	1007.658	0.254
0.30487	2	1011.717	0.257
0.35784	2	1013.108	0.258
0.3603	1	1009.383	0.255
0.39153	2	1013.984	0.259
0.39606	1	1010.325	0.256
0.41695	2	1015.8	0.261
0.46496	1	1012.078	0.258
0.51272	1	1013.34	0.259
0.51478	2	1017.128	0.262

System: L-valine + trimethylamine oxide + water; phases: Liquid
Fixed: Solvent: Molality, mol/kg of trimethylamine oxide = 0.25
Fixed: Initial molality of solute, mol/kg = 0.05
Fixed: Pressure, kPa = 101
Property: Molar enthalpy of dilution, kJ/mol (Liquid); method: Titration calorimetry
Temperature, K	Final molality of solute, mol/kg	Molar enthalpy of dilution, kJ/mol	uncertainty
288.15	0.00035	0.1337	0.0023
288.15	0.00053	0.1342	0.0023
288.15	0.0007	0.132	0.0023
288.15	0.00087	0.1327	0.0023
288.15	0.00104	0.1306	0.0023
288.15	0.00122	0.1302	0.0023
288.15	0.00139	0.1292	0.0023
288.15	0.00156	0.1296	0.0023
288.15	0.00173	0.128	0.0023
288.15	0.0019	0.129	0.0023
288.15	0.00207	0.1277	0.0023
288.15	0.00224	0.1265	0.0023
288.15	0.0024	0.1258	0.0023
288.15	0.00257	0.1255	0.0023
288.15	0.00274	0.126	0.0023
288.15	0.0029	0.1239	0.0022
288.15	0.00307	0.1235	0.0022
288.15	0.00323	0.1237	0.0022
288.15	0.0034	0.1241	0.0022
288.15	0.00356	0.1206	0.0022
288.15	0.00372	0.1218	0.0022
288.15	0.00388	0.1194	0.0022
288.15	0.00405	0.1204	0.0022
288.15	0.00421	0.1188	0.0022
288.15	0.00035	0.1317	0.0023
288.15	0.00053	0.1315	0.0023
288.15	0.0007	0.1318	0.0023
288.15	0.00087	0.1293	0.0023
288.15	0.00104	0.1286	0.0023
288.15	0.00122	0.1243	0.0022
288.15	0.00139	0.1271	0.0023
288.15	0.00156	0.1257	0.0023
288.15	0.00173	0.1251	0.0023
288.15	0.0019	0.126	0.0023
288.15	0.00207	0.1244	0.0022
288.15	0.00224	0.1247	0.0023
288.15	0.0024	0.1237	0.0022
288.15	0.00257	0.1228	0.0022
288.15	0.00274	0.1231	0.0022
288.15	0.0029	0.1201	0.0022
288.15	0.00307	0.1207	0.0022
288.15	0.00323	0.12	0.0022
288.15	0.0034	0.1188	0.0022
288.15	0.00356	0.1182	0.0022
288.15	0.00372	0.1181	0.0022
288.15	0.00388	0.1151	0.0022
288.15	0.00405	0.1142	0.0021
288.15	0.00421	0.1141	0.0021
298.15	0.00035	0.1382	0.0024
298.15	0.00053	0.1363	0.0024
298.15	0.0007	0.1379	0.0024
298.15	0.00087	0.1357	0.0024
298.15	0.00104	0.1352	0.0024
298.15	0.00122	0.1345	0.0023
298.15	0.00139	0.1332	0.0023
298.15	0.00156	0.1316	0.0023
298.15	0.00173	0.1313	0.0023
298.15	0.0019	0.1303	0.0023
298.15	0.00207	0.1296	0.0023
298.15	0.00224	0.1305	0.0023
298.15	0.0024	0.1291	0.0023
298.15	0.00257	0.1275	0.0023
298.15	0.00274	0.1258	0.0023
298.15	0.0029	0.1271	0.0023
298.15	0.00307	0.1257	0.0023
298.15	0.00323	0.1244	0.0022
298.15	0.0034	0.1222	0.0022
298.15	0.00356	0.1227	0.0022
298.15	0.00372	0.1218	0.0022
298.15	0.00388	0.1191	0.0022
298.15	0.00405	0.1199	0.0022
298.15	0.00421	0.1197	0.0022
303.15	0.00035	0.1783	0.0028
303.15	0.00053	0.1775	0.0028
303.15	0.0007	0.1777	0.0028
303.15	0.00087	0.1777	0.0028
303.15	0.00104	0.1757	0.0028
303.15	0.00122	0.1738	0.0027
303.15	0.00139	0.1731	0.0027
303.15	0.00156	0.1717	0.0027
303.15	0.00173	0.1713	0.0027
303.15	0.0019	0.169	0.0027
303.15	0.00207	0.1699	0.0027
303.15	0.00224	0.1653	0.0027
303.15	0.0024	0.1657	0.0027
303.15	0.00257	0.1662	0.0027
303.15	0.00274	0.1656	0.0027
303.15	0.0029	0.1623	0.0026
303.15	0.00307	0.1601	0.0026
303.15	0.00323	0.1609	0.0026
303.15	0.0034	0.1574	0.0026
303.15	0.00356	0.1568	0.0026
303.15	0.00372	0.1566	0.0026
303.15	0.00388	0.1543	0.0025
303.15	0.00405	0.1537	0.0025
303.15	0.00421	0.1486	0.0025
308.15	0.00035	0.2713	0.0037
308.15	0.00053	0.2674	0.0037
308.15	0.0007	0.2612	0.0036
308.15	0.00087	0.257	0.0036
308.15	0.00104	0.2551	0.0036
308.15	0.00122	0.2464	0.0035
308.15	0.00139	0.2443	0.0034
308.15	0.00156	0.2379	0.0034
308.15	0.00173	0.2356	0.0034
308.15	0.0019	0.233	0.0033
308.15	0.00207	0.2258	0.0033
308.15	0.00224	0.2245	0.0032
308.15	0.0024	0.2189	0.0032
308.15	0.00257	0.2163	0.0032
308.15	0.00274	0.214	0.0031
308.15	0.0029	0.2097	0.0031
308.15	0.00307	0.2073	0.0031
308.15	0.00323	0.2057	0.0031
308.15	0.0034	0.2004	0.003
308.15	0.00356	0.1993	0.003
308.15	0.00372	0.1974	0.003
308.15	0.00388	0.1938	0.0029
308.15	0.00405	0.1933	0.0029
308.15	0.00421	0.1905	0.0029

System: L-valine + trimethylamine oxide + water; phases: Liquid
Fixed: Temperature, K = 298.15
Fixed: Pressure, kPa = 101
Property: Speed of sound, m/s (Liquid); method: Sing-around technique in a fixed-path interferometer
Molality, mol/kg of L-valine	Solvent: Molality, mol/kg of trimethylamine oxide	Speed of sound, m/s	uncertainty
0	1	1573.22	1.64
0	2	1657.86	1.66
0.010341	2	1658.9	1.66
0.01273	1	1574.62	1.64
0.01574	1	1574.9	1.64
0.01999	1	1575.39	1.64
0.02564	1	1576.03	1.64
0.028321	2	1660.71	1.66
0.029263	2	1660.34	1.66
0.034934	2	1661.35	1.66
0.03558	1	1576.57	1.64
0.03678	1	1577.1	1.64
0.041934	2	1662.12	1.66
0.045259	2	1662.55	1.66
0.04652	1	1577.6	1.64
0.050284	2	1663.03	1.66
0.05105	1	1578.58	1.64

System: L-valine + trimethylamine oxide + water; phases: Liquid
Fixed: Temperature, K = 298.15
Fixed: Pressure, kPa = 101
Property: Mass density, kg/m3 (Liquid); method: Vibrating tube method
Molality, mol/kg of L-valine	Solvent: Molality, mol/kg of trimethylamine oxide	Mass density, kg/m3	uncertainty
0	1	999.625	0.406
0	2	1003.397	0.41
0.010341	2	1003.69	0.41
0.01273	1	999.978	0.406
0.01574	1	1000.063	0.406
0.01999	1	1000.182	0.406
0.02564	1	1000.33	0.407
0.028321	2	1004.2	0.411
0.029263	2	1004.208	0.411
0.034934	2	1004.383	0.411
0.03558	1	1000.602	0.407
0.03678	1	1000.635	0.407
0.041934	2	1004.572	0.411
0.045259	2	1004.675	0.412
0.04652	1	1000.905	0.407
0.050284	2	1004.754	0.412
0.05105	1	1001.028	0.407

System: L-leucine + trimethylamine oxide + water; phases: Liquid
Fixed: Solvent: Molality, mol/kg of trimethylamine oxide = 0.25
Fixed: Initial molality of solute, mol/kg = 0.05
Fixed: Pressure, kPa = 101
Property: Molar enthalpy of dilution, kJ/mol (Liquid); method: Titration calorimetry
Temperature, K	Final molality of solute, mol/kg	Molar enthalpy of dilution, kJ/mol	uncertainty
288.15	0.00035	0.1482	0.0025
288.15	0.00053	0.1477	0.0025
288.15	0.0007	0.1465	0.0025
288.15	0.00087	0.1473	0.0025
288.15	0.00104	0.1458	0.0025
288.15	0.00122	0.1439	0.0024
288.15	0.00139	0.1406	0.0024
288.15	0.00156	0.1428	0.0024
288.15	0.00173	0.1405	0.0024
288.15	0.0019	0.1412	0.0024
288.15	0.00207	0.1383	0.0024
288.15	0.00224	0.1379	0.0024
288.15	0.0024	0.1362	0.0024
288.15	0.00257	0.136	0.0024
288.15	0.00274	0.1359	0.0024
288.15	0.0029	0.1344	0.0023
288.15	0.00307	0.1333	0.0023
288.15	0.00323	0.1325	0.0023
288.15	0.0034	0.1313	0.0023
288.15	0.00356	0.1307	0.0023
288.15	0.00372	0.1296	0.0023
288.15	0.00388	0.1289	0.0023
288.15	0.00405	0.1285	0.0023
288.15	0.00421	0.1273	0.0023
293.15	0.00035	0.157	0.0026
293.15	0.00053	0.1546	0.0026
293.15	0.0007	0.1541	0.0025
293.15	0.00087	0.1538	0.0025
293.15	0.00104	0.1512	0.0025
293.15	0.00122	0.1468	0.0025
293.15	0.00139	0.1503	0.0025
293.15	0.00156	0.1474	0.0025
293.15	0.00173	0.1453	0.0025
293.15	0.0019	0.1449	0.0025
293.15	0.00207	0.1441	0.0024
293.15	0.00224	0.1411	0.0024
293.15	0.0024	0.1406	0.0024
293.15	0.00257	0.1394	0.0024
293.15	0.00274	0.1388	0.0024
293.15	0.0029	0.1367	0.0024
293.15	0.00307	0.1365	0.0024
293.15	0.00323	0.1343	0.0023
293.15	0.0034	0.1336	0.0023
293.15	0.00356	0.1339	0.0023
293.15	0.00372	0.1319	0.0023
293.15	0.00388	0.1298	0.0023
293.15	0.00405	0.1293	0.0023
293.15	0.00421	0.128	0.0023
298.15	0.00035	0.1741	0.0027
298.15	0.00053	0.1734	0.0027
298.15	0.0007	0.171	0.0027
298.15	0.00087	0.1697	0.0027
298.15	0.00104	0.1692	0.0027
298.15	0.00122	0.1659	0.0027
298.15	0.00139	0.1629	0.0026
298.15	0.00156	0.1612	0.0026
298.15	0.00173	0.1563	0.0026
298.15	0.0019	0.1553	0.0026
298.15	0.00207	0.1538	0.0025
298.15	0.00224	0.1561	0.0026
298.15	0.0024	0.152	0.0025
298.15	0.00257	0.1534	0.0025
298.15	0.00274	0.152	0.0025
298.15	0.0029	0.1495	0.0025
298.15	0.00307	0.1463	0.0025
298.15	0.00323	0.1455	0.0025
298.15	0.0034	0.1476	0.0025
298.15	0.00356	0.1448	0.0025
298.15	0.00372	0.1407	0.0024
298.15	0.00388	0.1436	0.0024
298.15	0.00405	0.1396	0.0024
298.15	0.00421	0.1401	0.0024
303.15	0.00035	0.2224	0.0032
303.15	0.00053	0.2172	0.0032
303.15	0.0007	0.2182	0.0032
303.15	0.00087	0.2168	0.0032
303.15	0.00104	0.2099	0.0031
303.15	0.00122	0.2097	0.0031
303.15	0.00139	0.2068	0.0031
303.15	0.00156	0.2035	0.003
303.15	0.00173	0.2017	0.003
303.15	0.0019	0.199	0.003
303.15	0.00207	0.1966	0.003
303.15	0.00224	0.1917	0.0029
303.15	0.0024	0.1913	0.0029
303.15	0.00257	0.1899	0.0029
303.15	0.00274	0.1855	0.0029
303.15	0.0029	0.182	0.0028
303.15	0.00307	0.1809	0.0028
303.15	0.00323	0.1797	0.0028
303.15	0.0034	0.176	0.0028
303.15	0.00356	0.1735	0.0027
303.15	0.00372	0.1724	0.0027
303.15	0.00388	0.171	0.0027
303.15	0.00405	0.1702	0.0027
303.15	0.00421	0.1654	0.0027
308.15	0.00035	0.2931	0.0039
308.15	0.00053	0.292	0.0039
308.15	0.0007	0.2799	0.0038
308.15	0.00087	0.2758	0.0038
308.15	0.00104	0.2705	0.0037
308.15	0.00122	0.2587	0.0036
308.15	0.00139	0.2525	0.0035
308.15	0.00156	0.2443	0.0034
308.15	0.00173	0.2448	0.0035
308.15	0.0019	0.239	0.0034
308.15	0.00207	0.2327	0.0033
308.15	0.00224	0.2306	0.0033
308.15	0.0024	0.223	0.0032
308.15	0.00257	0.2128	0.0031
308.15	0.00274	0.2174	0.0032
308.15	0.0029	0.2131	0.0031
308.15	0.00307	0.2103	0.0031
308.15	0.00323	0.2057	0.0031
308.15	0.0034	0.2032	0.003
308.15	0.00356	0.2022	0.003
308.15	0.00372	0.1978	0.003
308.15	0.00388	0.1965	0.003
308.15	0.00405	0.1927	0.0029
308.15	0.00421	0.1927	0.0029

System: L-leucine + trimethylamine oxide + water; phases: Liquid
Fixed: Temperature, K = 298.15
Fixed: Pressure, kPa = 101
Property: Speed of sound, m/s (Liquid); method: Sing-around technique in a fixed-path interferometer
Molality, mol/kg of L-leucine	Solvent: Molality, mol/kg of trimethylamine oxide	Speed of sound, m/s	uncertainty
0	1	1573.03	1.64
0	2	1657.02	1.66
0.01572	1	1574.17	1.64
0.016645	2	1658.8	1.66
0.01842	1	1575.36	1.64
0.021938	2	1659.38	1.66
0.022551	2	1659.44	1.66
0.02577	1	1576	1.64
0.02797	2	1660.1	1.66
0.03003	1	1576.4	1.64
0.033231	2	1661.13	1.66
0.0352	1	1577.17	1.64
0.04106	1	1578.86	1.64
0.043745	2	1661.89	1.66
0.04518	1	1578.33	1.64
0.050204	2	1662.49	1.66
0.05298	1	1579.09	1.64

System: L-leucine + trimethylamine oxide + water; phases: Liquid
Fixed: Temperature, K = 298.15
Fixed: Pressure, kPa = 101
Property: Mass density, kg/m3 (Liquid); method: Vibrating tube method
Molality, mol/kg of L-leucine	Solvent: Molality, mol/kg of trimethylamine oxide	Mass density, kg/m3	uncertainty
0	1	999.614	0.406
0	2	1003.363	0.41
0.01572	1	1000.016	0.406
0.016645	2	1003.786	0.411
0.01842	1	1000.073	0.406
0.021938	2	1003.916	0.411
0.022551	2	1003.936	0.411
0.02577	1	1000.245	0.407
0.02797	2	1004.074	0.411
0.03003	1	1000.352	0.407
0.033231	2	1004.208	0.411
0.0352	1	1000.496	0.407
0.04106	1	1000.63	0.407
0.043745	2	1004.466	0.411
0.04518	1	1000.731	0.407
0.050204	2	1004.632	0.412
0.05298	1	1000.927	0.407
