Measured thermophysical data. The effect of temperature and pressure on acoustic and thermodynamic properties of 1,4-butanediol. The comparison with 1,2- and 1,3-butanediols
Source: J. Chem. Thermodyn., 2012, 10.1016/j.jct.2012.03.013
Compound 1: 1,4-butanediol, C4H10O2, InChI=1S/C4H10O2/c5-3-1-2-4-6/h5-6H,1-4H2, purity 99.5%

System: 1,4-butanediol; phases: Liquid
Property: Refractive index (Na D-line) (Liquid); method: Standard Abbe refractometry
Temperature, K	Pressure, kPa	Refractive index (Na D-line)	uncertainty
298.15	101.325	1.4447	0.0008

System: 1,4-butanediol; phases: Liquid
Fixed: Pressure, kPa = 101.325
Property: Speed of sound, m/s (Liquid); method: Pulse-echo method
Temperature, K	Speed of sound, m/s	uncertainty
298.15	1601.81	1.34
303.15	1589.94	1.34
308.15	1578.45	1.34
313.15	1566.69	1.34
318.15	1555.21	1.33

System: 1,4-butanediol; phases: Liquid
Fixed: Pressure, kPa = 101.325
Property: Mass density, kg/m3 (Liquid); method: Vibrating tube method
Temperature, K	Mass density, kg/m3	uncertainty
293.15	1015.74	0.13
298.15	1012.78	0.13
303.14	1009.78	0.13
308.15	1006.76	0.13
313.14	1003.72	0.13
318.15	1000.67	0.13
323.15	997.61	0.13
328.15	994.53	0.13
333.15	991.44	0.13
338.15	988.31	0.13
343.14	985.17	0.13
348.15	982.01	0.13
353.15	978.82	0.13

System: 1,4-butanediol; phases: Liquid
Property: Molar heat capacity at constant pressure, J/K/mol (Liquid); method: Acoustic Method
Pressure, kPa	Temperature, K	Molar heat capacity at constant pressure, J/K/mol	uncertainty
10000	298.15	202.7	0.1
10000	303.15	205.5	0.1
10000	308.15	208.3	0.1
10000	313.15	211.2	0.1
10000	318.15	214.2	0.1
20000	298.15	202.4	0.1
20000	303.15	205.1	0.1
20000	308.15	207.9	0.1
20000	313.15	210.8	0.1
20000	318.15	213.8	0.1
30000	298.15	202	0.1
30000	303.15	204.7	0.1
30000	308.15	207.6	0.1
30000	313.15	210.4	0.1
30000	318.15	213.4	0.1
40000	298.15	201.7	0.1
40000	303.15	204.4	0.1
40000	308.15	207.2	0.1
40000	313.15	210.1	0.1
40000	318.15	213	0.1
50000	303.15	204.1	0.1
50000	308.15	206.9	0.1
50000	313.15	209.7	0.1
50000	318.15	212.7	0.1
60000	303.15	203.8	0.1
60000	308.15	206.6	0.1
60000	313.15	209.4	0.1
60000	318.15	212.3	0.1
70000	303.15	203.5	0.1
70000	308.15	206.3	0.1
70000	313.15	209.1	0.1
70000	318.15	212	0.1
80000	303.15	203.2	0.1
80000	308.15	206	0.1
80000	313.15	208.8	0.1
80000	318.15	211.7	0.1
90000	303.15	202.9	0.1
90000	308.15	205.7	0.1
90000	313.15	208.5	0.1
90000	318.15	211.4	0.1
100000	308.15	205.4	0.1
100000	313.15	208.2	0.1
100000	318.15	211.1	0.1

System: 1,4-butanediol; phases: Liquid
Property: Speed of sound, m/s (Liquid); method: Pulse-echo method
Pressure, kPa	Temperature, K	Speed of sound, m/s	uncertainty
100	298.11	1602.09	1.34
100	303.17	1590.17	1.34
100	308.15	1578.44	1.34
100	313.12	1566.97	1.34
100	318.2	1555.29	1.33
15200	298.07	1649.19	1.36
15200	303.17	1637.61	1.36
15200	308.14	1626.6	1.36
15200	313.09	1614.63	1.35
15200	318.18	1603.31	1.35
30390	298.07	1693.29	1.38
30390	303.16	1682.44	1.38
30390	308.14	1671.64	1.38
30390	313.09	1660.54	1.38
30390	318.17	1649.81	1.38
45590	298.08	1735.4	1.42
45590	303.16	1724.14	1.41
45590	308.14	1713.68	1.41
45590	313.1	1702.95	1.41
45590	318.17	1692.57	1.41
50660	303.16	1738	1.42
60790	303.15	1763.59	1.45
60790	308.15	1753.32	1.45
60790	313.1	1743.46	1.45
60790	318.17	1733.36	1.45
70920	303.15	1789.35	1.48
75990	303.15	1801.92	1.48
75990	308.14	1791.98	1.49
75990	313.1	1782.01	1.49
75990	318.17	1771.97	1.49
91180	303.15	1837.76	1.53
91180	308.14	1828.23	1.52
91180	313.1	1818.95	1.52
91180	318.18	1809.36	1.53
101320	308.14	1851.71	1.55
101320	313.1	1842.07	1.55
101320	318.18	1832.72	1.55

System: 1,4-butanediol; phases: Liquid
Property: Mass density, kg/m3 (Liquid); method: Acoustic method
Pressure, kPa	Temperature, K	Mass density, kg/m3	uncertainty
100	293.15	1015.74	0.13
100	298.15	1012.78	0.13
100	303.15	1009.77	0.13
100	308.15	1006.76	0.13
100	313.15	1003.73	0.13
100	318.15	1000.67	0.13
10000	298.15	1016.99	0.13
10000	303.15	1014.06	0.13
10000	308.15	1011.12	0.13
10000	313.15	1008.15	0.13
10000	318.15	1005.17	0.13
20000	298.15	1021.1	0.13
20000	303.15	1018.23	0.13
20000	308.15	1015.35	0.13
20000	313.15	1012.44	0.13
20000	318.15	1009.52	0.13
30000	298.15	1025.06	0.13
30000	303.15	1022.25	0.13
30000	308.15	1019.42	0.13
30000	313.15	1016.57	0.13
30000	318.15	1013.71	0.13
40000	298.15	1028.89	0.13
40000	303.15	1026.13	0.13
40000	308.15	1023.35	0.13
40000	313.15	1020.56	0.13
40000	318.15	1017.75	0.13
50000	303.15	1029.88	0.14
50000	308.15	1027.15	0.14
50000	313.15	1024.41	0.14
50000	318.15	1021.65	0.14
60000	303.15	1033.51	0.14
60000	308.15	1030.83	0.14
60000	313.15	1028.14	0.14
60000	318.15	1025.43	0.14
70000	303.15	1037.04	0.14
70000	308.15	1034.41	0.14
70000	313.15	1031.76	0.14
70000	318.15	1029.09	0.14
80000	303.15	1040.47	0.15
80000	308.15	1037.87	0.15
80000	313.15	1035.27	0.15
80000	318.15	1032.64	0.15
90000	303.15	1043.8	0.15
90000	308.15	1041.25	0.15
90000	313.15	1038.68	0.15
90000	318.15	1036.09	0.15
100000	308.15	1044.53	0.16
100000	313.15	1042	0.16
100000	318.15	1039.45	0.16
