Measured thermophysical data. Isobaric vapor-liquid equilibrium of a ternary system of ethyl acetate + propyl acetate + dimethyl sulfoxide and binary systems of ethyl acetate + dimethyl sulfoxide and propyl acetate + dimethyl sulfoxide at 101.3 kPa
Source: J. Chem. Thermodyn., 2019, 10.1016/j.jct.2019.03.036
Compound 1: ethyl acetate, C4H8O2, InChI=1S/C4H8O2/c1-3-6-4(2)5/h3H2,1-2H3, purity 99.5%
Compound 2: propyl ethanoate, C5H10O2, InChI=1S/C5H10O2/c1-3-4-7-5(2)6/h3-4H2,1-2H3, purity 99%
Compound 3: dimethyl sulfoxide, C2H6OS, InChI=1S/C2H6OS/c1-4(2)3/h1-2H3, purity 99%

System: ethyl acetate; phases: Liquid, Gas
Property: Vapor or sublimation pressure, kPa (Liquid); method: Ebulliometric method (Recirculating still)
Temperature, K	Vapor or sublimation pressure, kPa	uncertainty
350.29	101.3	3.6

System: propyl ethanoate; phases: Liquid, Gas
Property: Vapor or sublimation pressure, kPa (Liquid); method: Ebulliometric method (Recirculating still)
Temperature, K	Vapor or sublimation pressure, kPa	uncertainty
374.62	101.3	3.6

System: dimethyl sulfoxide; phases: Liquid, Gas
Property: Vapor or sublimation pressure, kPa (Liquid); method: Ebulliometric method (Recirculating still)
Temperature, K	Vapor or sublimation pressure, kPa	uncertainty
463.27	101.3	3.6

System: ethyl acetate + dimethyl sulfoxide; phases: Liquid, Gas
Fixed: Pressure, kPa = 101.3
Property: Boiling temperature at pressure P, K (Liquid); method: Ebulliometric method (Recirculating still)
Mole fraction of ethyl acetate	Boiling temperature at pressure P, K	uncertainty
1	350.29	0.72
0.9014	352.94	0.72
0.8432	354.37	0.72
0.8009	355.41	0.72
0.7124	357.57	0.72
0.6175	359.97	0.72
0.4882	364.01	0.72
0.3605	370.44	0.72
0.2274	381.53	0.72
0.1879	387.82	0.72
0.1322	399.26	0.72
0.0834	414.68	0.72
0.0563	426.78	0.72
0.0423	434.61	0.72
0.0287	442.98	0.72
0.0153	452.5	0.72
0.0071	458.73	0.72
0	463.27	0.72

System: ethyl acetate + dimethyl sulfoxide; phases: Gas, Liquid
Fixed: Pressure, kPa = 101.3
Property: Mole fraction of ethyl acetate (Gas); method: Chromatography
Mole fraction of ethyl acetate	Mole fraction of ethyl acetate	uncertainty
1	1	
0.9014	0.9951	0.0049
0.8432	0.9918	0.0082
0.8009	0.9901	0.0099
0.7124	0.9851	0.012
0.6175	0.9821	0.012
0.4882	0.9781	0.012
0.3605	0.9631	0.012
0.2274	0.9373	0.012
0.1879	0.919	0.012
0.1322	0.8714	0.0121
0.0834	0.7759	0.0122
0.0563	0.6699	0.0125
0.0423	0.5783	0.0128
0.0287	0.4598	0.0128
0.0153	0.2863	0.0123
0.0071	0.1598	0.0121
0	0	

System: propyl ethanoate + dimethyl sulfoxide; phases: Liquid, Gas
Fixed: Pressure, kPa = 101.3
Property: Boiling temperature at pressure P, K (Liquid); method: Ebulliometric method (Recirculating still)
Mole fraction of propyl ethanoate	Boiling temperature at pressure P, K	uncertainty
1	374.62	0.72
0.9266	376.27	0.72
0.8498	377.78	0.72
0.7493	379.37	0.72
0.687	380.77	0.72
0.6316	382.15	0.72
0.5521	384.06	0.72
0.4457	387.35	0.72
0.336	393.05	0.72
0.2387	401.03	0.72
0.17	410.25	0.72
0.137	416.44	0.72
0.1043	423.88	0.72
0.0701	433.65	0.72
0.0526	440.17	0.72
0.0328	448.93	0.72
0.018	454.72	0.72
0	463.27	0.72

System: propyl ethanoate + dimethyl sulfoxide; phases: Gas, Liquid
Fixed: Pressure, kPa = 101.3
Property: Mole fraction of propyl ethanoate (Gas); method: Chromatography
Mole fraction of propyl ethanoate	Mole fraction of propyl ethanoate	uncertainty
1	1	
0.9266	0.9901	0.0099
0.8498	0.9798	0.012
0.7493	0.9655	0.012
0.687	0.9557	0.012
0.6316	0.9503	0.012
0.5521	0.9435	0.012
0.4457	0.935	0.012
0.336	0.9085	0.0121
0.2387	0.8747	0.0121
0.17	0.8144	0.0123
0.137	0.7704	0.0124
0.1043	0.7045	0.0126
0.0701	0.5944	0.0129
0.0526	0.5022	0.0132
0.0328	0.3602	0.0125
0.018	0.2209	0.0122
0	0	

System: ethyl acetate + propyl ethanoate + dimethyl sulfoxide; phases: Liquid, Gas
Fixed: Pressure, kPa = 101.3
Property: Mole fraction of propyl ethanoate (Liquid); method: Chromatography
Property: Mole fraction of propyl ethanoate (Gas); method: Chromatography
Property: Mole fraction of ethyl acetate (Gas); method: Chromatography
Temperature, K	Mole fraction of ethyl acetate	Mole fraction of propyl ethanoate	uncertainty	Mole fraction of propyl ethanoate	uncertainty	Mole fraction of ethyl acetate	uncertainty
374.83	0.3735	0.0244	0.012	0.0564	0.012	0.9136	
374.81	0.358	0.0472	0.012	0.1079	0.012	0.862	
376.2	0.3254	0.0737	0.012	0.1692	0.0121	0.7982	
377.96	0.3002	0.0974	0.012	0.2235	0.0122	0.7419	
377.71	0.2781	0.1271	0.012	0.282	0.0123	0.6832	
379.29	0.2556	0.1501	0.012	0.3309	0.0124	0.6328	
379.2	0.2364	0.1679	0.0121	0.3698	0.0125	0.592	
380.2	0.2195	0.179	0.0121	0.4023	0.0126	0.5576	
382.69	0.1955	0.1946	0.0121	0.4464	0.0128	0.5103	
381.72	0.1834	0.2151	0.0121	0.4846	0.0129	0.4726	
382.78	0.1588	0.2384	0.0121	0.5387	0.0129	0.4158	
383.17	0.1437	0.257	0.0121	0.5758	0.0128	0.3778	
384.43	0.12	0.2753	0.0122	0.6306	0.0127	0.3202	
385.64	0.0931	0.307	0.0122	0.6984	0.0125	0.2501	
387.48	0.0595	0.3336	0.0123	0.777	0.0124	0.1661	
388.17	0.0443	0.352	0.0123	0.8161	0.0123	0.1259	
388.68	0.0286	0.3715	0.0123	0.8586	0.0122	0.0818	
389.89	0.013	0.3838	0.0123	0.8982	0.0121	0.0395	
370.22	0.4534	0.0392	0.012	0.0433	0.012	0.9347	
372.95	0.4131	0.0823	0.012	0.1019	0.012	0.8724	
374.29	0.3923	0.1033	0.012	0.1348	0.0121	0.8374	
376.65	0.354	0.1384	0.012	0.1971	0.0121	0.7712	
377.53	0.3381	0.1588	0.0121	0.2314	0.0122	0.7354	
378.86	0.3178	0.1642	0.0121	0.2549	0.0122	0.7091	
379.3	0.3075	0.1833	0.0121	0.2851	0.0123	0.6783	
380.81	0.2772	0.2183	0.0121	0.3518	0.0124	0.6086	
381.76	0.256	0.2425	0.0121	0.3995	0.0126	0.5589	
383.28	0.2223	0.2787	0.0122	0.4805	0.0129	0.4748	
384.73	0.1819	0.3137	0.0122	0.5618	0.0129	0.3896	
385.61	0.1672	0.3142	0.0122	0.5855	0.0128	0.3634	
385.9	0.1548	0.3285	0.0122	0.6153	0.0127	0.3328	
386.3	0.1316	0.3567	0.0123	0.6712	0.0126	0.276	
386.57	0.117	0.3719	0.0123	0.7041	0.0125	0.2423	
386.66	0.1056	0.3866	0.0123	0.7311	0.0125	0.2152	
387.46	0.0615	0.4217	0.0124	0.8221	0.0122	0.1217	
387.14	0.0323	0.4649	0.0125	0.8843	0.0121	0.0605	
