Measured thermophysical data. Viscosity and density data for the ternary system water(1) ethanol(2) ethylene  glycol(3) between 298.15 K and 328.15 K
Source: J. Chem. Thermodyn., 2013, 10.1016/j.jct.2012.08.024
Compound 1: 1,2-ethanediol, C2H6O2, InChI=1S/C2H6O2/c3-1-2-4/h3-4H,1-2H2, purity 99.8%
Compound 2: ethanol, C2H6O, InChI=1S/C2H6O/c1-2-3/h3H,2H2,1H3, purity 99.5%
Compound 3: water, H2O, InChI=1S/H2O/h1H2, purity 99.8%

System: 1,2-ethanediol; phases: Liquid
Fixed: Pressure, kPa = 101.325
Property: Mass density, kg/m3 (Liquid); method: Vibrating tube method
Temperature, K	Mass density, kg/m3	uncertainty
298.15	1109.89	0.08
303.15	1106.38	0.08
308.15	1102.86	0.08
313.15	1099.31	0.08
318.15	1095.75	0.08
323.15	1092.16	0.08
328.15	1088.56	0.08

System: 1,2-ethanediol; phases: Liquid
Fixed: Pressure, kPa = 101.325
Property: Viscosity, Pa*s (Liquid); method: Capillary tube (Ostwald; Ubbelohde) method
Temperature, K	Viscosity, Pa*s	uncertainty
298.15	0.01661	0.00023
303.15	0.013579	0.000185
308.15	0.011236	0.000154
313.15	0.009404	0.000129
318.15	0.007945	0.000109
323.15	0.006774	9.4e-05
328.15	0.005826	8.1e-05

System: ethanol; phases: Liquid
Fixed: Pressure, kPa = 101.325
Property: Mass density, kg/m3 (Liquid); method: Vibrating tube method
Temperature, K	Mass density, kg/m3	uncertainty
298.15	785.07	0.15
303.15	780.75	0.15
308.15	776.41	0.15
313.15	772.02	0.15
318.15	767.59	0.15
323.15	763.11	0.15
328.15	758.58	0.16

System: ethanol; phases: Liquid
Fixed: Pressure, kPa = 101.325
Property: Viscosity, Pa*s (Liquid); method: Capillary tube (Ostwald; Ubbelohde) method
Temperature, K	Viscosity, Pa*s	uncertainty
298.15	0.001087	1.6e-05
303.15	0.00099	2e-05
308.15	0.000905	1.3e-05
313.15	0.000829	1.2e-05
318.15	0.000761	1.1e-05
323.15	0.000706	1e-05
328.15	0.000648	9e-06

System: ethanol + 1,2-ethanediol + water; phases: Liquid
Fixed: Pressure, kPa = 101
Property: Mass density, kg/m3 (Liquid); method: Vibrating tube method
Temperature, K	Mole fraction of water	Mole fraction of ethanol	Mass density, kg/m3	uncertainty
298.15	0.4024	0.2725	984.38	0.07
298.15	0.8369	0.1135	977.58	0.08
298.15	0.7015	0.235	942.83	0.09
298.15	0.7496	0.0969	1011.46	0.08
298.15	0.6972	0.1921	968.95	0.09
298.15	0.6064	0.2391	964.07	0.09
298.15	0.3099	0.205	1023.78	0.07
298.15	0.5988	0.2058	983.27	0.08
298.15	0.5101	0.2408	981.86	0.07
298.15	0.6944	0.113	1018.22	0.08
298.15	0.6172	0.1056	1030.42	0.07
298.15	0.7674	0.196	947.08	0.09
298.15	0.2892	0.2887	992.82	0.07
298.15	0.8011	0.1	997.03	0.08
298.15	0.1074	0.405	971.71	0.07
298.15	0.2766	0.422	942.18	0.08
298.15	0.1097	0.5862	907.68	0.1
298.15	0.4213	0.4769	891.54	0.1
298.15	0.2107	0.6868	851.46	0.12
298.15	0.3126	0.4726	915.49	0.09
298.15	0.5023	0.2981	956.01	0.08
298.15	0.5076	0.3919	909.58	0.1
298.15	0.113	0.6858	871.65	0.11
298.15	0.7919	0.049	1030.09	0.08
298.15	0.1998	0.5973	888.87	0.11
298.15	0.394	0.4086	926.94	0.09
298.15	0.1025	0.4945	941.17	0.08
298.15	0.2997	0.5938	868.59	0.11
298.15	0.1177	0.7891	833.74	0.13
298.15	0.001	0.9071	816.74	0.14
298.15	0.001	0.7826	858.81	0.12
298.15	0.0009	0.6667	897.53	0.1
298.15	0.0009	0.599	919.81	0.09
298.15	0.0009	0.4943	954.24	0.08
308.15	0.4024	0.2725	976.68	0.07
308.15	0.8369	0.1135	971.23	0.09
308.15	0.7015	0.235	935.01	0.09
308.15	0.7496	0.0969	1004.78	0.08
308.15	0.6972	0.1921	961.44	0.09
308.15	0.6064	0.2391	956.31	0.09
308.15	0.3099	0.205	1016.34	0.07
308.15	0.5988	0.2058	975.7	0.08
308.15	0.5101	0.2408	974.18	0.08
308.15	0.6944	0.113	1011.33	0.08
308.15	0.6172	0.1056	1023.34	0.07
308.15	0.7674	0.196	939.55	0.09
308.15	0.2892	0.2887	985.18	0.07
308.15	0.8011	0.1	990.59	0.08
308.15	0.1074	0.405	963.96	0.07
318.15	0.4024	0.2725	968.82	0.07
318.15	0.8369	0.1135	964.45	0.09
318.15	0.7015	0.235	926.95	0.1
318.15	0.7496	0.0969	997.79	0.08
318.15	0.6972	0.1921	953.68	0.09
318.15	0.6064	0.2391	948.34	0.09
318.15	0.3099	0.205	1008.76	0.07
318.15	0.5988	0.2058	967.91	0.08
318.15	0.5101	0.2408	966.32	0.08
318.15	0.6944	0.113	1004.19	0.08
318.15	0.6172	0.1056	1016.05	0.07
318.15	0.7674	0.196	931.73	0.1
318.15	0.2892	0.2887	977.39	0.07
318.15	0.8011	0.1	983.79	0.08
318.15	0.1074	0.405	956.1	0.08
328.15	0.4024	0.2725	960.78	0.07
328.15	0.8369	0.1135	957.29	0.09
328.15	0.7015	0.235	918.61	0.1
328.15	0.7496	0.0969	990.51	0.08
328.15	0.6972	0.1921	945.65	0.09
328.15	0.6064	0.2391	940.14	0.09
328.15	0.3099	0.205	1001.04	0.06
328.15	0.5988	0.2058	959.9	0.08
328.15	0.5101	0.2408	958.25	0.08
328.15	0.6944	0.113	996.79	0.08
328.15	0.6172	0.1056	1008.54	0.07
328.15	0.7674	0.196	923.62	0.1
328.15	0.2892	0.2887	969.45	0.07
328.15	0.8011	0.1	976.64	0.08

System: ethanol + 1,2-ethanediol + water; phases: Liquid
Fixed: Pressure, kPa = 101
Property: Viscosity, Pa*s (Liquid); method: Capillary tube (Ostwald; Ubbelohde) method
Temperature, K	Mole fraction of water	Mole fraction of ethanol	Viscosity, Pa*s	uncertainty
298.15	0.4024	0.2725	0.004578	6.4e-05
298.15	0.8369	0.1135	0.002375	3.3e-05
298.15	0.7015	0.235	0.002755	3.9e-05
298.15	0.7496	0.0969	0.003165	4.4e-05
298.15	0.6972	0.1921	0.003056	4.3e-05
298.15	0.6064	0.2391	0.003334	4.7e-05
298.15	0.3099	0.205	0.00653	9.1e-05
298.15	0.5988	0.2058	0.003691	5.2e-05
298.15	0.5101	0.2408	0.004055	5.7e-05
298.15	0.6944	0.113	0.003584	5e-05
298.15	0.6172	0.1056	0.004458	6.2e-05
298.15	0.7674	0.196	0.002562	3.6e-05
298.15	0.2892	0.2887	0.005307	7.4e-05
298.15	0.8011	0.1	0.002688	3.8e-05
298.15	0.1074	0.405	0.005121	7.2e-05
298.15	0.2766	0.422	0.003726	5.2e-05
298.15	0.1097	0.5862	0.003033	4.3e-05
298.15	0.4213	0.4769	0.00246	3.5e-05
298.15	0.2107	0.6868	0.001945	2.8e-05
298.15	0.3126	0.4726	0.003035	4.3e-05
298.15	0.5023	0.2981	0.003533	5e-05
298.15	0.5076	0.3919	0.002659	3.7e-05
298.15	0.113	0.6858	0.002257	3.2e-05
298.15	0.7919	0.049	0.002897	4.1e-05
298.15	0.1998	0.5973	0.002553	3.6e-05
298.15	0.394	0.4086	0.003166	4.5e-05
298.15	0.1025	0.4945	0.003925	5.5e-05
298.15	0.2997	0.5938	0.002196	3.1e-05
298.15	0.1177	0.7891	0.001677	2.4e-05
298.15	0.001	0.9071	0.001432	2e-05
298.15	0.001	0.7826	0.002017	2.9e-05
298.15	0.0009	0.6667	0.002789	3.9e-05
298.15	0.0009	0.599	0.003333	4.7e-05
298.15	0.0009	0.4943	0.004471	6.3e-05
308.15	0.4024	0.2725	0.003383	4.7e-05
308.15	0.8369	0.1135	0.001731	2.4e-05
308.15	0.7015	0.235	0.002006	2.8e-05
308.15	0.7496	0.0969	0.002322	3.3e-05
308.15	0.6972	0.1921	0.002239	3.1e-05
308.15	0.6064	0.2391	0.002464	3.5e-05
308.15	0.3099	0.205	0.004662	6.5e-05
308.15	0.5988	0.2058	0.002708	3.8e-05
308.15	0.5101	0.2408	0.002987	4.2e-05
308.15	0.6944	0.113	0.002627	3.7e-05
308.15	0.6172	0.1056	0.003247	4.5e-05
308.15	0.7674	0.196	0.001854	2.6e-05
308.15	0.2892	0.2887	0.003902	5.5e-05
308.15	0.8011	0.1	0.001974	2.8e-05
308.15	0.1074	0.405	0.003778	5.3e-05
318.15	0.4024	0.2725	0.002566	3.6e-05
318.15	0.8369	0.1135	0.001317	1.9e-05
318.15	0.7015	0.235	0.001514	2.1e-05
318.15	0.7496	0.0969	0.001769	2.5e-05
318.15	0.6972	0.1921	0.00169	2.4e-05
318.15	0.6064	0.2391	0.001872	2.6e-05
318.15	0.3099	0.205	0.003495	4.9e-05
318.15	0.5988	0.2058	0.002058	2.9e-05
318.15	0.5101	0.2408	0.002273	3.2e-05
318.15	0.6944	0.113	0.001999	2.8e-05
318.15	0.6172	0.1056	0.002463	3.5e-05
318.15	0.7674	0.196	0.001398	2e-05
318.15	0.2892	0.2887	0.002956	4.2e-05
318.15	0.8011	0.1	0.001504	2.1e-05
318.15	0.1074	0.405	0.002892	4.1e-05
328.15	0.4024	0.2725	0.002005	2.8e-05
328.15	0.8369	0.1135	0.00103	1.5e-05
328.15	0.7015	0.235	0.001192	1.7e-05
328.15	0.7496	0.0969	0.001387	2e-05
328.15	0.6972	0.1921	0.001324	1.9e-05
328.15	0.6064	0.2391	0.001472	2.1e-05
328.15	0.3099	0.205	0.0027	3.8e-05
328.15	0.5988	0.2058	0.001612	2.3e-05
328.15	0.5101	0.2408	0.001779	2.5e-05
328.15	0.6944	0.113	0.001565	2.2e-05
328.15	0.6172	0.1056	0.001913	2.7e-05
328.15	0.7674	0.196	0.00109	1.5e-05
328.15	0.2892	0.2887	0.002299	3.2e-05
328.15	0.8011	0.1	0.001184	1.7e-05
