Measured thermophysical data. Thermodynamic properties of (an ester + and alkane). XVII. Experimental He and Ve values for (an alkyl propanoate + an alkane) at 318.15K
Source: J. Chem. Thermodyn., 2005, 10.1016/j.jct.2004.12.014
Compound 1: methyl propanoate, C4H8O2, InChI=1S/C4H8O2/c1-3-4(5)6-2/h3H2,1-2H3
Compound 2: heptane, C7H16, InChI=1S/C7H16/c1-3-5-7-6-4-2/h3-7H2,1-2H3
Compound 3: nonane, C9H20, InChI=1S/C9H20/c1-3-5-7-9-8-6-4-2/h3-9H2,1-2H3
Compound 4: undecane, C11H24, InChI=1S/C11H24/c1-3-5-7-9-11-10-8-6-4-2/h3-11H2,1-2H3
Compound 5: pentadecane, C15H32, InChI=1S/C15H32/c1-3-5-7-9-11-13-15-14-12-10-8-6-4-2/h3-15H2,1-2H3
Compound 6: heptadecane, C17H36, InChI=1S/C17H36/c1-3-5-7-9-11-13-15-17-16-14-12-10-8-6-4-2/h3-17H2,1-2H3
Compound 7: ethyl propanoate, C5H10O2, InChI=1S/C5H10O2/c1-3-5(6)7-4-2/h3-4H2,1-2H3
Compound 8: propyl propanoate, C6H12O2, InChI=1S/C6H12O2/c1-3-5-8-6(7)4-2/h3-5H2,1-2H3
Compound 9: tridecane, C13H28, InChI=1S/C13H28/c1-3-5-7-9-11-13-12-10-8-6-4-2/h3-13H2,1-2H3
Compound 10: butyl propanoate, C7H14O2, InChI=1S/C7H14O2/c1-3-5-6-9-7(8)4-2/h3-6H2,1-2H3
Compound 11: pentyl propanoate, C8H16O2, InChI=1S/C8H16O2/c1-3-5-6-7-10-8(9)4-2/h3-7H2,1-2H3

System: methyl propanoate; phases: Liquid
Property: Refractive index (Na D-line) (Liquid); method: Standard Abbe refractometry
Temperature, K	Pressure, kPa	Refractive index (Na D-line)	uncertainty
318.15	101.325	1.3641	0.0008

System: methyl propanoate; phases: Liquid
Property: Mass density, kg/m3 (Liquid); method: VIBTUB:UFactor:4
Temperature, K	Pressure, kPa	Mass density, kg/m3	uncertainty
318.15	101.325	884.6	0.99

System: ethyl propanoate; phases: Liquid
Property: Refractive index (Na D-line) (Liquid); method: Standard Abbe refractometry
Temperature, K	Pressure, kPa	Refractive index (Na D-line)	uncertainty
318.15	101.325	1.3711	0.0008

System: ethyl propanoate; phases: Liquid
Property: Mass density, kg/m3 (Liquid); method: VIBTUB:UFactor:4
Temperature, K	Pressure, kPa	Mass density, kg/m3	uncertainty
318.15	101.325	860.98	0.99

System: propyl propanoate; phases: Liquid
Property: Refractive index (Na D-line) (Liquid); method: Standard Abbe refractometry
Temperature, K	Pressure, kPa	Refractive index (Na D-line)	uncertainty
318.15	101.325	1.3809	0.0008

System: propyl propanoate; phases: Liquid
Property: Mass density, kg/m3 (Liquid); method: VIBTUB:UFactor:4
Temperature, K	Pressure, kPa	Mass density, kg/m3	uncertainty
318.15	101.325	854.57	0.99

System: butyl propanoate; phases: Liquid
Property: Refractive index (Na D-line) (Liquid); method: Standard Abbe refractometry
Temperature, K	Pressure, kPa	Refractive index (Na D-line)	uncertainty
318.15	101.325	1.3895	0.0008

System: butyl propanoate; phases: Liquid
Property: Mass density, kg/m3 (Liquid); method: VIBTUB:UFactor:4
Temperature, K	Pressure, kPa	Mass density, kg/m3	uncertainty
318.15	101.325	851.33	0.99

System: pentyl propanoate; phases: Liquid
Property: Mass density, kg/m3 (Liquid); method: VIBTUB:UFactor:4
Temperature, K	Pressure, kPa	Mass density, kg/m3	uncertainty
318.15	101.325	848.98	0.99

System: heptane + methyl propanoate; phases: Liquid
Fixed: Pressure, kPa = 101
Fixed: Temperature, K = 318.15
Property: Excess molar enthalpy (molar enthalpy of mixing), kJ/mol (Liquid); method: CALVET:UFactor:2
Mole fraction of methyl propanoate	Excess molar enthalpy (molar enthalpy of mixing), kJ/mol	uncertainty
0.0703	0.3576	0.0073
0.154	0.7379	0.0131
0.2369	1.0418	0.0177
0.3018	1.2373	0.0207
0.3693	1.384	0.023
0.4258	1.4654	0.0243
0.4809	1.5144	0.025
0.5084	1.519	0.0251
0.5258	1.5206	0.0251
0.5447	1.5121	0.025
0.586	1.4779	0.0245
0.6301	1.4205	0.0236
0.6752	1.3368	0.0223
0.7232	1.2334	0.0207
0.7744	1.0832	0.0184
0.8241	0.8991	0.0156
0.8704	0.7031	0.0126
0.9177	0.4702	0.0091
0.9639	0.2247	0.0055

System: heptane + methyl propanoate; phases: Liquid
Fixed: Pressure, kPa = 101
Fixed: Temperature, K = 318.15
Property: Excess molar volume, m3/mol (Liquid); method: SAME:UFactor:2
Mole fraction of methyl propanoate	Excess molar volume, m3/mol	uncertainty
0.0406	2.5e-07	1.7e-08
0.0927	5.08e-07	1.8e-08
0.1719	8.36e-07	1.9e-08
0.248	1.063e-06	2e-08
0.3249	1.222e-06	2.1e-08
0.3904	1.27e-06	2.1e-08
0.4571	1.288e-06	2.1e-08
0.5214	1.254e-06	2.1e-08
0.5761	1.192e-06	2.1e-08
0.6333	1.105e-06	2.1e-08
0.6853	1.008e-06	2e-08
0.7372	9.01e-07	2e-08
0.7844	7.75e-07	1.9e-08
0.8305	6.37e-07	1.8e-08
0.8748	4.85e-07	1.8e-08
0.9184	3.36e-07	1.7e-08
0.9596	1.83e-07	1.6e-08

System: nonane + methyl propanoate; phases: Liquid
Fixed: Pressure, kPa = 101
Fixed: Temperature, K = 318.15
Property: Excess molar enthalpy (molar enthalpy of mixing), kJ/mol (Liquid); method: CALVET:UFactor:2
Mole fraction of methyl propanoate	Excess molar enthalpy (molar enthalpy of mixing), kJ/mol	uncertainty
0.084	0.4626	0.0089
0.1528	0.794	0.014
0.2279	1.094	0.0186
0.2957	1.3111	0.0219
0.3549	1.4628	0.0242
0.4111	1.5709	0.0259
0.4611	1.636	0.0269
0.5059	1.6742	0.0275
0.546	1.6827	0.0276
0.5832	1.6708	0.0274
0.6314	1.6151	0.0266
0.6645	1.5529	0.0256
0.7099	1.4451	0.024
0.7579	1.3031	0.0218
0.808	1.1203	0.019
0.8604	0.8891	0.0154
0.9122	0.6206	0.0114
0.9599	0.3217	0.007

System: nonane + methyl propanoate; phases: Liquid
Fixed: Pressure, kPa = 101
Fixed: Temperature, K = 318.15
Property: Excess molar volume, m3/mol (Liquid); method: SAME:UFactor:2
Mole fraction of methyl propanoate	Excess molar volume, m3/mol	uncertainty
0.047	2.8e-07	1.7e-08
0.111	5.7e-07	1.8e-08
0.2022	9.27e-07	2e-08
0.2873	1.164e-06	2.1e-08
0.3671	1.333e-06	2.2e-08
0.4381	1.406e-06	2.2e-08
0.5037	1.425e-06	2.2e-08
0.5664	1.423e-06	2.2e-08
0.6242	1.359e-06	2.2e-08
0.6768	1.278e-06	2.1e-08
0.7271	1.166e-06	2.1e-08
0.7724	1.037e-06	2e-08
0.817	8.78e-07	2e-08
0.856	7.5e-07	1.9e-08
0.896	5.89e-07	1.8e-08
0.9315	3.93e-07	1.7e-08
0.9661	1.98e-07	1.6e-08

System: methyl propanoate + undecane; phases: Liquid
Fixed: Pressure, kPa = 101
Fixed: Temperature, K = 318.15
Property: Excess molar enthalpy (molar enthalpy of mixing), kJ/mol (Liquid); method: CALVET:UFactor:2
Mole fraction of methyl propanoate	Excess molar enthalpy (molar enthalpy of mixing), kJ/mol	uncertainty
0.0844	0.4929	0.0094
0.1733	0.9161	0.0158
0.2574	1.2559	0.0211
0.327	1.4869	0.0246
0.3915	1.6465	0.0271
0.4431	1.7393	0.0285
0.4953	1.8056	0.0295
0.5414	1.825	0.0298
0.5798	1.816	0.0297
0.6125	1.7912	0.0293
0.6312	1.7638	0.0289
0.6661	1.6988	0.0279
0.7078	1.5977	0.0263
0.7509	1.4557	0.0241
0.7942	1.2847	0.0215
0.8346	1.0998	0.0187
0.8799	0.88	0.0153
0.9235	0.6213	0.0115
0.9624	0.3328	0.0073

System: methyl propanoate + undecane; phases: Liquid
Fixed: Pressure, kPa = 101
Fixed: Temperature, K = 318.15
Property: Excess molar volume, m3/mol (Liquid); method: SAME:UFactor:2
Mole fraction of methyl propanoate	Excess molar volume, m3/mol	uncertainty
0.0968	4.8e-07	1.8e-08
0.1299	6.34e-07	1.8e-08
0.2313	1.02e-06	2e-08
0.3207	1.285e-06	2.1e-08
0.4052	1.433e-06	2.2e-08
0.4772	1.508e-06	2.3e-08
0.5465	1.514e-06	2.3e-08
0.6062	1.482e-06	2.2e-08
0.6609	1.417e-06	2.2e-08
0.7121	1.302e-06	2.2e-08
0.7581	1.188e-06	2.1e-08
0.8001	1.041e-06	2e-08
0.8396	9.14e-07	2e-08
0.876	7.62e-07	1.9e-08
0.9105	6.09e-07	1.8e-08
0.9416	4.25e-07	1.7e-08
0.9727	2.27e-07	1.7e-08

System: methyl propanoate + tridecane; phases: Liquid
Fixed: Pressure, kPa = 101
Fixed: Temperature, K = 318.15
Property: Excess molar enthalpy (molar enthalpy of mixing), kJ/mol (Liquid); method: CALVET:UFactor:2
Mole fraction of methyl propanoate	Excess molar enthalpy (molar enthalpy of mixing), kJ/mol	uncertainty
0.1102	0.6341	0.0115
0.2079	1.1035	0.0187
0.298	1.4582	0.0242
0.3751	1.7041	0.028
0.4404	1.8426	0.0301
0.4912	1.9131	0.0312
0.5388	1.9446	0.0317
0.5843	1.9493	0.0317
0.624	1.9198	0.0313
0.6309	1.9093	0.0311
0.6687	1.8418	0.0301
0.7093	1.7342	0.0284
0.7493	1.5993	0.0264
0.7925	1.4064	0.0234
0.8368	1.1829	0.02
0.8813	0.9383	0.0163
0.9269	0.6357	0.0118
0.9664	0.3177	0.0072

System: methyl propanoate + tridecane; phases: Liquid
Fixed: Pressure, kPa = 101
Fixed: Temperature, K = 318.15
Property: Excess molar volume, m3/mol (Liquid); method: SAME:UFactor:2
Mole fraction of methyl propanoate	Excess molar volume, m3/mol	uncertainty
0.0687	3.33e-07	1.7e-08
0.1431	6.43e-07	1.8e-08
0.2538	1.057e-06	2e-08
0.3537	1.323e-06	2.2e-08
0.4366	1.462e-06	2.2e-08
0.5144	1.543e-06	2.3e-08
0.5811	1.548e-06	2.3e-08
0.6387	1.514e-06	2.3e-08
0.6932	1.429e-06	2.2e-08
0.7403	1.32e-06	2.2e-08
0.7836	1.217e-06	2.1e-08
0.8229	1.075e-06	2e-08
0.8583	9.26e-07	2e-08
0.8914	7.83e-07	1.9e-08
0.9212	6.29e-07	1.8e-08
0.9596	4.05e-07	1.7e-08
0.9748	2.5e-07	1.7e-08

System: methyl propanoate + pentadecane; phases: Liquid
Fixed: Pressure, kPa = 101
Fixed: Temperature, K = 318.15
Property: Excess molar enthalpy (molar enthalpy of mixing), kJ/mol (Liquid); method: CALVET:UFactor:2
Mole fraction of methyl propanoate	Excess molar enthalpy (molar enthalpy of mixing), kJ/mol	uncertainty
0.125	0.7183	0.0128
0.233	1.2393	0.0208
0.3463	1.6641	0.0274
0.435	1.9132	0.0312
0.5058	2.0323	0.033
0.5584	2.0708	0.0336
0.6021	2.0717	0.0336
0.6368	2.0359	0.0331
0.6819	1.9485	0.0318
0.7197	1.8388	0.0301
0.7527	1.7083	0.0281
0.7913	1.5371	0.0254
0.8294	1.3323	0.0223
0.8668	1.1383	0.0193
0.9037	0.9067	0.0158
0.94	0.6309	0.0118
0.9713	0.33	0.0077

System: methyl propanoate + pentadecane; phases: Liquid
Fixed: Pressure, kPa = 101
Fixed: Temperature, K = 318.15
Property: Excess molar volume, m3/mol (Liquid); method: SAME:UFactor:2
Mole fraction of methyl propanoate	Excess molar volume, m3/mol	uncertainty
0.0815	3.78e-07	1.7e-08
0.1606	7e-07	1.9e-08
0.2792	1.134e-06	2.1e-08
0.377	1.401e-06	2.2e-08
0.4695	1.535e-06	2.3e-08
0.5395	1.586e-06	2.3e-08
0.6103	1.569e-06	2.3e-08
0.6695	1.514e-06	2.3e-08
0.7187	1.405e-06	2.2e-08
0.7639	1.277e-06	2.1e-08
0.8034	1.137e-06	2.1e-08
0.8389	1.001e-06	2e-08
0.8718	8.65e-07	2e-08
0.9023	7.29e-07	1.9e-08
0.9297	5.72e-07	1.8e-08
0.9549	4.07e-07	1.7e-08
0.9781	2.28e-07	1.7e-08

System: methyl propanoate + heptadecane; phases: Liquid
Fixed: Pressure, kPa = 101
Fixed: Temperature, K = 318.15
Property: Excess molar enthalpy (molar enthalpy of mixing), kJ/mol (Liquid); method: CALVET:UFactor:2
Mole fraction of methyl propanoate	Excess molar enthalpy (molar enthalpy of mixing), kJ/mol	uncertainty
0.0946	0.5516	0.0103
0.2186	1.1592	0.0196
0.3238	1.6184	0.0267
0.4115	1.9134	0.0312
0.4797	2.0589	0.0335
0.5289	2.1237	0.0345
0.5687	2.1466	0.0348
0.5996	2.1499	0.0349
0.6291	2.131	0.0346
0.6637	2.089	0.0339
0.6974	2.0056	0.0326
0.7327	1.8858	0.0308
0.7677	1.7427	0.0286
0.8042	1.5507	0.0257
0.8381	1.3719	0.0229
0.8741	1.134	0.0193
0.909	0.8964	0.0157
0.9409	0.6189	0.0117
0.9721	0.3152	0.0075

System: methyl propanoate + heptadecane; phases: Liquid
Fixed: Pressure, kPa = 101
Fixed: Temperature, K = 318.15
Property: Excess molar volume, m3/mol (Liquid); method: SAME:UFactor:2
Mole fraction of methyl propanoate	Excess molar volume, m3/mol	uncertainty
0.0755	3.32e-07	1.7e-08
0.1644	6.94e-07	1.9e-08
0.3049	1.182e-06	2.1e-08
0.409	1.452e-06	2.2e-08
0.5004	1.581e-06	2.3e-08
0.5739	1.623e-06	2.3e-08
0.6379	1.592e-06	2.3e-08
0.6942	1.504e-06	2.2e-08
0.7425	1.39e-06	2.2e-08
0.7831	1.271e-06	2.1e-08
0.8219	1.128e-06	2.1e-08
0.8553	9.81e-07	2e-08
0.8846	8.56e-07	1.9e-08
0.9369	5.66e-07	1.8e-08
0.9596	4.18e-07	1.7e-08
0.9803	2.34e-07	1.7e-08

System: ethyl propanoate + heptane; phases: Liquid
Fixed: Pressure, kPa = 101
Fixed: Temperature, K = 318.15
Property: Excess molar enthalpy (molar enthalpy of mixing), kJ/mol (Liquid); method: CALVET:UFactor:2
Mole fraction of ethyl propanoate	Excess molar enthalpy (molar enthalpy of mixing), kJ/mol	uncertainty
0.0724	0.3206	0.0067
0.1469	0.5943	0.0108
0.2238	0.8186	0.0143
0.294	0.9809	0.0168
0.3653	1.0909	0.0185
0.4286	1.1439	0.0193
0.4855	1.1595	0.0195
0.5345	1.1481	0.0193
0.5733	1.1172	0.0189
0.5847	1.1039	0.0187
0.6302	1.0619	0.018
0.682	0.9912	0.0169
0.7393	0.8916	0.0154
0.7978	0.7589	0.0133
0.8563	0.5961	0.0109
0.9088	0.4043	0.008
0.963	0.1905	0.0048

System: ethyl propanoate + heptane; phases: Liquid
Fixed: Pressure, kPa = 101
Fixed: Temperature, K = 318.15
Property: Excess molar volume, m3/mol (Liquid); method: SAME:UFactor:2
Mole fraction of ethyl propanoate	Excess molar volume, m3/mol	uncertainty
0.0401	1.58e-07	1.6e-08
0.0797	3.09e-07	1.7e-08
0.1474	5.09e-07	1.8e-08
0.2182	6.76e-07	1.9e-08
0.2873	7.86e-07	1.9e-08
0.3497	8.53e-07	1.9e-08
0.4098	8.95e-07	2e-08
0.5276	8.77e-07	2e-08
0.5897	8.41e-07	1.9e-08
0.6453	7.71e-07	1.9e-08
0.701	7.23e-07	1.9e-08
0.7534	6.41e-07	1.8e-08
0.808	5.27e-07	1.8e-08
0.8554	4.12e-07	1.7e-08
0.9045	2.9e-07	1.7e-08
0.9534	1.5e-07	1.6e-08

System: ethyl propanoate + nonane; phases: Liquid
Fixed: Pressure, kPa = 101
Fixed: Temperature, K = 318.15
Property: Excess molar enthalpy (molar enthalpy of mixing), kJ/mol (Liquid); method: CALVET:UFactor:2
Mole fraction of ethyl propanoate	Excess molar enthalpy (molar enthalpy of mixing), kJ/mol	uncertainty
0.0817	0.3848	0.0077
0.1719	0.7047	0.0125
0.2598	0.9665	0.0166
0.3403	1.1385	0.0192
0.4145	1.2435	0.0208
0.4797	1.2916	0.0216
0.4909	1.3019	0.0217
0.5379	1.2961	0.0216
0.5764	1.275	0.0213
0.5876	1.2673	0.0212
0.6277	1.2176	0.0204
0.6791	1.133	0.0191
0.732	1.0156	0.0173
0.7883	0.8664	0.015
0.8451	0.6801	0.0122
0.9016	0.4641	0.0089
0.9517	0.2466	0.0056

System: ethyl propanoate + nonane; phases: Liquid
Fixed: Pressure, kPa = 101
Fixed: Temperature, K = 318.15
Property: Excess molar volume, m3/mol (Liquid); method: SAME:UFactor:2
Mole fraction of ethyl propanoate	Excess molar volume, m3/mol	uncertainty
0.0376	1.65e-07	1.6e-08
0.0926	3.58e-07	1.7e-08
0.1744	6.18e-07	1.8e-08
0.2554	8.2e-07	1.9e-08
0.3255	9.43e-07	2e-08
0.3925	1.022e-06	2e-08
0.457	1.075e-06	2e-08
0.523	1.077e-06	2.1e-08
0.5826	1.066e-06	2e-08
0.6348	1.027e-06	2e-08
0.6882	9.47e-07	2e-08
0.7398	8.52e-07	1.9e-08
0.7883	7.57e-07	1.9e-08
0.8344	6.26e-07	1.8e-08
0.878	5.01e-07	1.8e-08
0.9181	3.41e-07	1.7e-08
0.9584	1.81e-07	1.6e-08

System: ethyl propanoate + undecane; phases: Liquid
Fixed: Pressure, kPa = 101
Fixed: Temperature, K = 318.15
Property: Excess molar enthalpy (molar enthalpy of mixing), kJ/mol (Liquid); method: CALVET:UFactor:2
Mole fraction of ethyl propanoate	Excess molar enthalpy (molar enthalpy of mixing), kJ/mol	uncertainty
0.0755	0.3826	0.0076
0.1612	0.705	0.0126
0.2482	0.9968	0.017
0.3331	1.2136	0.0204
0.4028	1.3381	0.0223
0.4629	1.4059	0.0233
0.5094	1.4275	0.0237
0.5483	1.4238	0.0236
0.5806	1.4062	0.0233
0.6255	1.3582	0.0226
0.6622	1.3001	0.0217
0.7018	1.2216	0.0205
0.7511	1.092	0.0185
0.7996	0.9399	0.0162
0.8514	0.741	0.0131
0.9026	0.5231	0.0098
0.9521	0.2792	0.0062

System: ethyl propanoate + undecane; phases: Liquid
Fixed: Pressure, kPa = 101
Fixed: Temperature, K = 318.15
Property: Excess molar volume, m3/mol (Liquid); method: SAME:UFactor:2
Mole fraction of ethyl propanoate	Excess molar volume, m3/mol	uncertainty
0.0488	2.1e-07	1.6e-08
0.1093	4.32e-07	1.8e-08
0.1996	6.94e-07	1.9e-08
0.2885	9.21e-07	2e-08
0.3652	1.049e-06	2e-08
0.4355	1.121e-06	2.1e-08
0.5015	1.154e-06	2.1e-08
0.5629	1.147e-06	2.1e-08
0.621	1.119e-06	2.1e-08
0.6752	1.071e-06	2e-08
0.7242	9.82e-07	2e-08
0.7714	8.93e-07	2e-08
0.816	7.79e-07	1.9e-08
0.8558	6.55e-07	1.9e-08
0.895	5.1e-07	1.8e-08
0.9301	3.49e-07	1.7e-08
0.9671	2.01e-07	1.6e-08

System: ethyl propanoate + tridecane; phases: Liquid
Fixed: Pressure, kPa = 101
Fixed: Temperature, K = 318.15
Property: Excess molar enthalpy (molar enthalpy of mixing), kJ/mol (Liquid); method: CALVET:UFactor:2
Mole fraction of ethyl propanoate	Excess molar enthalpy (molar enthalpy of mixing), kJ/mol	uncertainty
0.0944	0.4673	0.0089
0.189	0.8419	0.0147
0.282	1.1472	0.0194
0.366	1.3622	0.0227
0.4354	1.485	0.0246
0.4882	1.5368	0.0254
0.5339	1.5545	0.0256
0.5841	1.5524	0.0256
0.6332	1.5088	0.0249
0.6564	1.4687	0.0243
0.6775	1.4335	0.0238
0.6925	1.4002	0.0233
0.7364	1.2806	0.0214
0.7802	1.1336	0.0192
0.8254	0.9553	0.0164
0.8702	0.7585	0.0134
0.9163	0.5304	0.01
0.9613	0.2663	0.0061

System: ethyl propanoate + tridecane; phases: Liquid
Fixed: Pressure, kPa = 101
Fixed: Temperature, K = 318.15
Property: Excess molar volume, m3/mol (Liquid); method: SAME:UFactor:2
Mole fraction of ethyl propanoate	Excess molar volume, m3/mol	uncertainty
0.0553	2.18e-07	1.7e-08
0.1314	4.88e-07	1.8e-08
0.2286	7.67e-07	1.9e-08
0.3064	9.41e-07	2e-08
0.3982	1.105e-06	2.1e-08
0.4702	1.178e-06	2.1e-08
0.5353	1.203e-06	2.1e-08
0.6003	1.177e-06	2.1e-08
0.6545	1.134e-06	2.1e-08
0.7057	1.072e-06	2e-08
0.7518	9.93e-07	2e-08
0.7964	8.81e-07	2e-08
0.8358	7.55e-07	1.9e-08
0.8729	6.38e-07	1.8e-08
0.9066	4.97e-07	1.8e-08
0.9396	3.51e-07	1.7e-08
0.9702	2.08e-07	1.6e-08

System: ethyl propanoate + pentadecane; phases: Liquid
Fixed: Pressure, kPa = 101
Fixed: Temperature, K = 318.15
Property: Excess molar enthalpy (molar enthalpy of mixing), kJ/mol (Liquid); method: CALVET:UFactor:2
Mole fraction of ethyl propanoate	Excess molar enthalpy (molar enthalpy of mixing), kJ/mol	uncertainty
0.1045	0.5335	0.0099
0.2122	0.9482	0.0163
0.3158	1.3062	0.0218
0.4055	1.5239	0.0252
0.4848	1.6404	0.027
0.5368	1.6679	0.0274
0.5811	1.6666	0.0274
0.6068	1.6449	0.027
0.6156	1.6369	0.0269
0.6409	1.5963	0.0263
0.6796	1.5305	0.0253
0.7199	1.4257	0.0237
0.761	1.3084	0.0219
0.8036	1.1431	0.0193
0.846	0.9588	0.0165
0.8889	0.7577	0.0135
0.9311	0.5179	0.0099
0.9692	0.2566	0.0062

System: ethyl propanoate + pentadecane; phases: Liquid
Fixed: Pressure, kPa = 101
Fixed: Temperature, K = 318.15
Property: Excess molar volume, m3/mol (Liquid); method: SAME:UFactor:2
Mole fraction of ethyl propanoate	Excess molar volume, m3/mol	uncertainty
0.0586	2.35e-07	1.7e-08
0.1287	4.67e-07	1.8e-08
0.2483	8.47e-07	1.9e-08
0.3372	1.053e-06	2e-08
0.4269	1.184e-06	2.1e-08
0.502	1.246e-06	2.1e-08
0.5673	1.252e-06	2.1e-08
0.6288	1.223e-06	2.1e-08
0.6845	1.156e-06	2.1e-08
0.7304	1.087e-06	2.1e-08
0.7744	9.92e-07	2e-08
0.8148	8.88e-07	2e-08
0.8537	7.69e-07	1.9e-08
0.8864	6.38e-07	1.8e-08
0.919	5.21e-07	1.8e-08
0.9481	3.55e-07	1.7e-08
0.9742	1.89e-07	1.6e-08

System: ethyl propanoate + heptadecane; phases: Liquid
Fixed: Pressure, kPa = 101
Fixed: Temperature, K = 318.15
Property: Excess molar enthalpy (molar enthalpy of mixing), kJ/mol (Liquid); method: CALVET:UFactor:2
Mole fraction of ethyl propanoate	Excess molar enthalpy (molar enthalpy of mixing), kJ/mol	uncertainty
0.1049	0.5229	0.0098
0.213	0.969	0.0166
0.3031	1.3009	0.0217
0.3846	1.5301	0.0253
0.4607	1.6823	0.0276
0.5315	1.7578	0.0288
0.5885	1.7613	0.0288
0.6272	1.7281	0.0283
0.6888	1.6153	0.0266
0.7229	1.5239	0.0252
0.7635	1.3995	0.0233
0.8055	1.24	0.0208
0.8479	1.0637	0.0181
0.8897	0.8455	0.0148
0.9313	0.577	0.0109
0.9727	0.2619	0.0064

System: ethyl propanoate + heptadecane; phases: Liquid
Fixed: Pressure, kPa = 101
Fixed: Temperature, K = 318.15
Property: Excess molar volume, m3/mol (Liquid); method: SAME:UFactor:2
Mole fraction of ethyl propanoate	Excess molar volume, m3/mol	uncertainty
0.066	2.51e-07	1.7e-08
0.1449	5.19e-07	1.8e-08
0.2675	8.82e-07	2e-08
0.3677	1.105e-06	2.1e-08
0.4535	1.215e-06	2.1e-08
0.5272	1.268e-06	2.1e-08
0.5954	1.278e-06	2.1e-08
0.6524	1.237e-06	2.1e-08
0.7503	1.094e-06	2.1e-08
0.7915	9.93e-07	2e-08
0.8304	8.71e-07	2e-08
0.8626	7.59e-07	1.9e-08
0.8973	6.31e-07	1.8e-08
0.9257	4.92e-07	1.8e-08
0.9523	3.54e-07	1.7e-08
0.9771	1.83e-07	1.6e-08

System: propyl propanoate + heptane; phases: Liquid
Fixed: Pressure, kPa = 101
Fixed: Temperature, K = 318.15
Property: Excess molar enthalpy (molar enthalpy of mixing), kJ/mol (Liquid); method: CALVET:UFactor:2
Mole fraction of propyl propanoate	Excess molar enthalpy (molar enthalpy of mixing), kJ/mol	uncertainty
0.0639	0.2605	0.0057
0.1325	0.4556	0.0087
0.2009	0.6227	0.0112
0.273	0.7482	0.0132
0.338	0.8273	0.0144
0.3985	0.8722	0.0151
0.4549	0.899	0.0155
0.5052	0.9108	0.0157
0.5147	0.9114	0.0157
0.5577	0.8971	0.0155
0.6066	0.8652	0.015
0.6615	0.8109	0.0141
0.7197	0.7254	0.0128
0.7781	0.6136	0.0111
0.8381	0.4828	0.0091
0.8975	0.3275	0.0067
0.9534	0.167	0.0043

System: propyl propanoate + heptane; phases: Liquid
Fixed: Pressure, kPa = 101
Fixed: Temperature, K = 318.15
Property: Excess molar volume, m3/mol (Liquid); method: SAME:UFactor:2
Mole fraction of propyl propanoate	Excess molar volume, m3/mol	uncertainty
0.0283	9e-08	1.6e-08
0.066	2.02e-07	1.6e-08
0.1305	3.13e-07	1.7e-08
0.1912	4.11e-07	1.7e-08
0.2529	4.97e-07	1.8e-08
0.3157	5.6e-07	1.8e-08
0.3768	5.86e-07	1.8e-08
0.437	6.03e-07	1.8e-08
0.4973	6.01e-07	1.8e-08
0.5557	5.81e-07	1.8e-08
0.6132	5.43e-07	1.8e-08
0.6703	4.91e-07	1.8e-08
0.7248	4.24e-07	1.7e-08
0.7801	3.67e-07	1.7e-08
0.8355	2.94e-07	1.7e-08
0.8887	2.07e-07	1.6e-08
0.9444	1.24e-07	1.6e-08

System: propyl propanoate + nonane; phases: Liquid
Fixed: Pressure, kPa = 101
Fixed: Temperature, K = 318.15
Property: Excess molar enthalpy (molar enthalpy of mixing), kJ/mol (Liquid); method: CALVET:UFactor:2
Mole fraction of propyl propanoate	Excess molar enthalpy (molar enthalpy of mixing), kJ/mol	uncertainty
0.0729	0.3079	0.0065
0.1505	0.5439	0.0101
0.2274	0.7505	0.0132
0.3035	0.9026	0.0156
0.3733	0.9992	0.017
0.4372	1.0475	0.0178
0.4858	1.0559	0.0179
0.5248	1.0549	0.0179
0.5688	1.0366	0.0176
0.6152	1.0016	0.0171
0.6667	0.9333	0.016
0.7215	0.8285	0.0144
0.7776	0.708	0.0126
0.8356	0.5663	0.0104
0.8948	0.3889	0.0077
0.951	0.1992	0.0048

System: propyl propanoate + nonane; phases: Liquid
Fixed: Pressure, kPa = 101
Fixed: Temperature, K = 318.15
Property: Excess molar volume, m3/mol (Liquid); method: SAME:UFactor:2
Mole fraction of propyl propanoate	Excess molar volume, m3/mol	uncertainty
0.0358	1.43e-07	1.6e-08
0.0804	2.79e-07	1.7e-08
0.1547	4.77e-07	1.8e-08
0.2247	6.11e-07	1.8e-08
0.2939	7.16e-07	1.9e-08
0.3601	7.97e-07	1.9e-08
0.4243	8.28e-07	1.9e-08
0.4879	8.32e-07	1.9e-08
0.5463	8.3e-07	1.9e-08
0.6022	7.94e-07	1.9e-08
0.6569	7.54e-07	1.9e-08
0.7113	6.79e-07	1.9e-08
0.7635	6.03e-07	1.8e-08
0.8139	4.89e-07	1.8e-08
0.8623	4.1e-07	1.7e-08
0.9092	3.02e-07	1.7e-08
0.9537	1.55e-07	1.6e-08

System: propyl propanoate + undecane; phases: Liquid
Fixed: Pressure, kPa = 101
Fixed: Temperature, K = 318.15
Property: Excess molar enthalpy (molar enthalpy of mixing), kJ/mol (Liquid); method: CALVET:UFactor:2
Mole fraction of propyl propanoate	Excess molar enthalpy (molar enthalpy of mixing), kJ/mol	uncertainty
0.0636	0.2789	0.0061
0.1368	0.5327	0.0099
0.2052	0.7506	0.0132
0.2811	0.9544	0.0164
0.355	1.0876	0.0184
0.4208	1.1563	0.0195
0.4796	1.1844	0.0199
0.5347	1.1859	0.0199
0.5876	1.1537	0.0194
0.6318	1.1066	0.0187
0.6804	1.0308	0.0175
0.7305	0.9156	0.0158
0.7842	0.7866	0.0138
0.8388	0.6218	0.0113
0.8946	0.4372	0.0084
0.9488	0.2299	0.0053

System: propyl propanoate + undecane; phases: Liquid
Fixed: Pressure, kPa = 101
Fixed: Temperature, K = 318.15
Property: Excess molar volume, m3/mol (Liquid); method: SAME:UFactor:2
Mole fraction of propyl propanoate	Excess molar volume, m3/mol	uncertainty
0.0413	1.53e-07	1.6e-08
0.0923	3.2e-07	1.7e-08
0.1761	5.43e-07	1.8e-08
0.2561	7.24e-07	1.9e-08
0.3307	8.39e-07	1.9e-08
0.3986	9.06e-07	2e-08
0.4638	9.37e-07	2e-08
0.5278	9.47e-07	2e-08
0.587	9.43e-07	2e-08
0.6412	8.99e-07	2e-08
0.6944	8.36e-07	1.9e-08
0.744	7.6e-07	1.9e-08
0.7913	6.62e-07	1.9e-08
0.8364	5.52e-07	1.8e-08
0.8799	4.45e-07	1.8e-08
0.9196	2.93e-07	1.7e-08
0.9603	1.75e-07	1.6e-08

System: propyl propanoate + tridecane; phases: Liquid
Fixed: Pressure, kPa = 101
Fixed: Temperature, K = 318.15
Property: Excess molar enthalpy (molar enthalpy of mixing), kJ/mol (Liquid); method: CALVET:UFactor:2
Mole fraction of propyl propanoate	Excess molar enthalpy (molar enthalpy of mixing), kJ/mol	uncertainty
0.0771	0.3447	0.007
0.1623	0.6427	0.0116
0.248	0.9089	0.0157
0.3288	1.1029	0.0187
0.4032	1.2285	0.0206
0.471	1.2976	0.0217
0.5295	1.3188	0.022
0.5719	1.3	0.0217
0.5818	1.2873	0.0215
0.6224	1.2462	0.0209
0.6662	1.1849	0.0199
0.7127	1.094	0.0185
0.7593	0.9712	0.0166
0.8089	0.8338	0.0145
0.8585	0.6721	0.0121
0.9084	0.4753	0.0091
0.9562	0.2538	0.0058

System: propyl propanoate + tridecane; phases: Liquid
Fixed: Pressure, kPa = 101
Fixed: Temperature, K = 318.15
Property: Excess molar volume, m3/mol (Liquid); method: SAME:UFactor:2
Mole fraction of propyl propanoate	Excess molar volume, m3/mol	uncertainty
0.1068	3.54e-07	1.7e-08
0.2003	6.1e-07	1.8e-08
0.2831	7.8e-07	1.9e-08
0.3626	8.99e-07	2e-08
0.4343	9.83e-07	2e-08
0.4988	1.001e-06	2e-08
0.5633	1.013e-06	2e-08
0.6197	9.68e-07	2e-08
0.6738	9.29e-07	2e-08
0.7241	8.44e-07	1.9e-08
0.7705	7.66e-07	1.9e-08
0.8135	6.6e-07	1.9e-08
0.8558	5.36e-07	1.8e-08
0.8941	4.18e-07	1.7e-08
0.9306	2.67e-07	1.7e-08
0.9641	1.43e-07	1.6e-08

System: propyl propanoate + pentadecane; phases: Liquid
Fixed: Pressure, kPa = 101
Fixed: Temperature, K = 318.15
Property: Excess molar enthalpy (molar enthalpy of mixing), kJ/mol (Liquid); method: CALVET:UFactor:2
Mole fraction of propyl propanoate	Excess molar enthalpy (molar enthalpy of mixing), kJ/mol	uncertainty
0.0908	0.4056	0.008
0.2077	0.8092	0.0141
0.3159	1.1105	0.0188
0.4097	1.2945	0.0216
0.481	1.3799	0.0229
0.538	1.404	0.0233
0.5826	1.3937	0.0231
0.6208	1.3691	0.0228
0.6333	1.3488	0.0225
0.6724	1.2852	0.0215
0.7191	1.1888	0.02
0.7668	1.0683	0.0181
0.8087	0.9377	0.0161
0.8594	0.7565	0.0134
0.9086	0.5369	0.0101
0.96	0.2737	0.0061

System: propyl propanoate + pentadecane; phases: Liquid
Fixed: Pressure, kPa = 101
Fixed: Temperature, K = 318.15
Property: Excess molar volume, m3/mol (Liquid); method: SAME:UFactor:2
Mole fraction of propyl propanoate	Excess molar volume, m3/mol	uncertainty
0.0571	1.92e-07	1.6e-08
0.121	3.65e-07	1.7e-08
0.2189	6.37e-07	1.8e-08
0.3124	8.36e-07	1.9e-08
0.3919	9.5e-07	2e-08
0.4644	1.011e-06	2e-08
0.5327	1.042e-06	2e-08
0.5945	1.032e-06	2e-08
0.6507	9.93e-07	2e-08
0.7004	9.51e-07	2e-08
0.7486	8.75e-07	2e-08
0.7919	7.84e-07	1.9e-08
0.8316	6.85e-07	1.9e-08
0.8692	5.77e-07	1.8e-08
0.9037	4.49e-07	1.8e-08
0.9384	3.2e-07	1.7e-08
0.9689	1.72e-07	1.6e-08

System: propyl propanoate + heptadecane; phases: Liquid
Fixed: Pressure, kPa = 101
Fixed: Temperature, K = 318.15
Property: Excess molar enthalpy (molar enthalpy of mixing), kJ/mol (Liquid); method: CALVET:UFactor:2
Mole fraction of propyl propanoate	Excess molar enthalpy (molar enthalpy of mixing), kJ/mol	uncertainty
0.1025	0.4491	0.0086
0.2064	0.8087	0.0141
0.3097	1.1228	0.019
0.4012	1.33	0.0222
0.4828	1.4434	0.0239
0.5438	1.4813	0.0245
0.5906	1.4773	0.0244
0.6218	1.455	0.0241
0.6489	1.4208	0.0236
0.6819	1.3487	0.0225
0.7208	1.2563	0.021
0.7615	1.1538	0.0195
0.8015	1.0223	0.0174
0.8436	0.8596	0.015
0.8861	0.6826	0.0123
0.9283	0.4588	0.009
0.9659	0.2159	0.0055

System: propyl propanoate + heptadecane; phases: Liquid
Fixed: Pressure, kPa = 101
Fixed: Temperature, K = 318.15
Property: Excess molar volume, m3/mol (Liquid); method: SAME:UFactor:2
Mole fraction of propyl propanoate	Excess molar volume, m3/mol	uncertainty
0.0801	2.62e-07	1.7e-08
0.1272	4.01e-07	1.7e-08
0.2396	6.78e-07	1.9e-08
0.3349	8.74e-07	2e-08
0.4168	9.74e-07	2e-08
0.4924	1.046e-06	2e-08
0.5597	1.06e-06	2e-08
0.6205	1.048e-06	2e-08
0.6702	1.016e-06	2e-08
0.7236	9.42e-07	2e-08
0.7691	8.65e-07	2e-08
0.81	7.81e-07	1.9e-08
0.8486	6.76e-07	1.9e-08
0.8816	5.66e-07	1.8e-08
0.9135	4.36e-07	1.8e-08
0.9437	3.04e-07	1.7e-08
0.972	1.85e-07	1.6e-08

System: heptane + butyl propanoate; phases: Liquid
Fixed: Pressure, kPa = 101
Fixed: Temperature, K = 318.15
Property: Excess molar enthalpy (molar enthalpy of mixing), kJ/mol (Liquid); method: CALVET:UFactor:2
Mole fraction of butyl propanoate	Excess molar enthalpy (molar enthalpy of mixing), kJ/mol	uncertainty
0.0476	0.1744	0.0044
0.1067	0.3519	0.0071
0.1732	0.5069	0.0094
0.2357	0.6125	0.0111
0.2979	0.6835	0.0122
0.3579	0.7374	0.013
0.4131	0.7661	0.0134
0.4328	0.7742	0.0135
0.464	0.7794	0.0136
0.475	0.7831	0.0137
0.5206	0.7764	0.0136
0.5701	0.7555	0.0133
0.6256	0.7156	0.0126
0.6846	0.6542	0.0117
0.7498	0.5624	0.0103
0.8152	0.4438	0.0085
0.8835	0.2999	0.0063
0.9449	0.1493	0.004

System: heptane + butyl propanoate; phases: Liquid
Fixed: Pressure, kPa = 101
Fixed: Temperature, K = 318.15
Property: Excess molar volume, m3/mol (Liquid); method: SAME:UFactor:2
Mole fraction of butyl propanoate	Excess molar volume, m3/mol	uncertainty
0.0273	5.6e-08	1.6e-08
0.0572	1.25e-07	1.6e-08
0.1181	2.05e-07	1.6e-08
0.1785	2.96e-07	1.7e-08
0.2334	3.5e-07	1.7e-08
0.2923	3.76e-07	1.7e-08
0.3518	3.93e-07	1.7e-08
0.4089	4e-07	1.7e-08
0.4681	3.95e-07	1.7e-08
0.528	3.75e-07	1.7e-08
0.586	3.44e-07	1.7e-08
0.6449	3.06e-07	1.7e-08
0.7036	2.6e-07	1.7e-08
0.7666	2.08e-07	1.6e-08
0.8207	1.76e-07	1.6e-08
0.8838	1.05e-07	1.6e-08
0.937	7.2e-08	1.6e-08

System: nonane + butyl propanoate; phases: Liquid
Fixed: Pressure, kPa = 101
Fixed: Temperature, K = 318.15
Property: Excess molar enthalpy (molar enthalpy of mixing), kJ/mol (Liquid); method: CALVET:UFactor:2
Mole fraction of butyl propanoate	Excess molar enthalpy (molar enthalpy of mixing), kJ/mol	uncertainty
0.0694	0.2674	0.0058
0.1491	0.4855	0.0091
0.2269	0.6654	0.0119
0.302	0.7896	0.0138
0.3723	0.8651	0.015
0.4365	0.8978	0.0155
0.4936	0.9012	0.0155
0.5364	0.8927	0.0154
0.5441	0.8844	0.0153
0.5775	0.8776	0.0151
0.5891	0.8665	0.015
0.6309	0.8364	0.0145
0.6873	0.7692	0.0135
0.7512	0.6653	0.0119
0.8149	0.5339	0.0099
0.8787	0.3723	0.0074
0.9424	0.1944	0.0047

System: nonane + butyl propanoate; phases: Liquid
Fixed: Pressure, kPa = 101
Fixed: Temperature, K = 318.15
Property: Excess molar volume, m3/mol (Liquid); method: SAME:UFactor:2
Mole fraction of butyl propanoate	Excess molar volume, m3/mol	uncertainty
0.0333	9.9e-08	1.6e-08
0.0721	1.95e-07	1.6e-08
0.139	3.26e-07	1.7e-08
0.2059	4.35e-07	1.8e-08
0.2687	5.18e-07	1.8e-08
0.3345	5.69e-07	1.8e-08
0.3947	5.89e-07	1.8e-08
0.4555	6.09e-07	1.8e-08
0.5165	6.08e-07	1.8e-08
0.5747	5.79e-07	1.8e-08
0.6293	5.5e-07	1.8e-08
0.6868	5.08e-07	1.8e-08
0.7408	4.43e-07	1.8e-08
0.7931	3.73e-07	1.7e-08
0.8466	3.03e-07	1.7e-08
0.8978	2.16e-07	1.7e-08
0.9473	1.21e-07	1.6e-08

System: butyl propanoate + undecane; phases: Liquid
Fixed: Pressure, kPa = 101
Fixed: Temperature, K = 318.15
Property: Excess molar enthalpy (molar enthalpy of mixing), kJ/mol (Liquid); method: CALVET:UFactor:2
Mole fraction of butyl propanoate	Excess molar enthalpy (molar enthalpy of mixing), kJ/mol	uncertainty
0.0817	0.3288	0.0068
0.1628	0.552	0.0102
0.2473	0.7644	0.0134
0.325	0.9008	0.0155
0.3967	0.9804	0.0167
0.463	1.0153	0.0173
0.4868	1.0184	0.0173
0.5197	1.0152	0.0173
0.5243	1.0128	0.0172
0.5644	1.0016	0.0171
0.6091	0.9702	0.0166
0.6567	0.9388	0.0161
0.7051	0.8402	0.0146
0.7582	0.7322	0.0129
0.8113	0.6168	0.0111
0.8642	0.4776	0.009
0.9137	0.3261	0.0067
0.9601	0.1673	0.0044

System: butyl propanoate + undecane; phases: Liquid
Fixed: Pressure, kPa = 101
Fixed: Temperature, K = 318.15
Property: Excess molar volume, m3/mol (Liquid); method: SAME:UFactor:2
Mole fraction of butyl propanoate	Excess molar volume, m3/mol	uncertainty
0.0439	1.43e-07	1.6e-08
0.0844	2.51e-07	1.7e-08
0.1613	4.24e-07	1.7e-08
0.2331	5.45e-07	1.8e-08
0.3029	6.41e-07	1.8e-08
0.3719	7.16e-07	1.9e-08
0.4347	7.45e-07	1.9e-08
0.4991	7.49e-07	1.9e-08
0.5571	7.43e-07	1.9e-08
0.6136	7.09e-07	1.9e-08
0.6682	6.64e-07	1.9e-08
0.7205	6.18e-07	1.8e-08
0.7715	5.27e-07	1.8e-08
0.8193	4.41e-07	1.8e-08
0.8661	3.61e-07	1.7e-08
0.9118	2.76e-07	1.7e-08
0.9546	1.35e-07	1.6e-08

System: butyl propanoate + tridecane; phases: Liquid
Fixed: Pressure, kPa = 101
Fixed: Temperature, K = 318.15
Property: Excess molar enthalpy (molar enthalpy of mixing), kJ/mol (Liquid); method: CALVET:UFactor:2
Mole fraction of butyl propanoate	Excess molar enthalpy (molar enthalpy of mixing), kJ/mol	uncertainty
0.0777	0.3163	0.0066
0.152	0.5529	0.0102
0.2315	0.7744	0.0136
0.3105	0.9503	0.0163
0.3857	1.0579	0.0179
0.4542	1.1129	0.0188
0.5154	1.13	0.0191
0.5619	1.1152	0.0188
0.6157	1.0862	0.0184
0.6596	1.0228	0.0174
0.7081	0.942	0.0162
0.7591	0.8212	0.0143
0.8107	0.6899	0.0123
0.857	0.5521	0.0102
0.9081	0.3776	0.0075
0.9555	0.1954	0.0048

System: butyl propanoate + tridecane; phases: Liquid
Fixed: Pressure, kPa = 101
Fixed: Temperature, K = 318.15
Property: Excess molar volume, m3/mol (Liquid); method: SAME:UFactor:2
Mole fraction of butyl propanoate	Excess molar volume, m3/mol	uncertainty
0.0406	1.23e-07	1.6e-08
0.0973	2.84e-07	1.7e-08
0.1791	4.62e-07	1.8e-08
0.2615	6.48e-07	1.9e-08
0.3352	7.42e-07	1.9e-08
0.4049	8.02e-07	1.9e-08
0.4702	8.32e-07	1.9e-08
0.5333	8.34e-07	1.9e-08
0.5918	8.19e-07	1.9e-08
0.6472	7.81e-07	1.9e-08
0.6989	7.36e-07	1.9e-08
0.7487	6.45e-07	1.8e-08
0.7961	5.77e-07	1.8e-08
0.84	4.79e-07	1.8e-08
0.8821	3.67e-07	1.7e-08
0.9219	2.68e-07	1.7e-08
0.9617	1.52e-07	1.6e-08

System: butyl propanoate + pentadecane; phases: Liquid
Fixed: Pressure, kPa = 101
Fixed: Temperature, K = 318.15
Property: Excess molar enthalpy (molar enthalpy of mixing), kJ/mol (Liquid); method: CALVET:UFactor:2
Mole fraction of butyl propanoate	Excess molar enthalpy (molar enthalpy of mixing), kJ/mol	uncertainty
0.0761	0.3303	0.0068
0.1691	0.6325	0.0114
0.2538	0.8831	0.0153
0.3371	1.0599	0.018
0.4082	1.1653	0.0196
0.4663	1.2161	0.0204
0.5154	1.2309	0.0206
0.5563	1.2229	0.0205
0.5938	1.2057	0.0202
0.6011	1.2009	0.0202
0.6427	1.1558	0.0195
0.6861	1.0945	0.0185
0.7321	1.0137	0.0173
0.7784	0.9001	0.0155
0.8262	0.7524	0.0133
0.8732	0.5936	0.0109
0.9184	0.4093	0.0081
0.9612	0.2124	0.0052

System: butyl propanoate + pentadecane; phases: Liquid
Fixed: Pressure, kPa = 101
Fixed: Temperature, K = 318.15
Property: Excess molar volume, m3/mol (Liquid); method: SAME:UFactor:2
Mole fraction of butyl propanoate	Excess molar volume, m3/mol	uncertainty
0.0505	1.65e-07	1.6e-08
0.0965	3.01e-07	1.7e-08
0.197	5.5e-07	1.8e-08
0.2885	7.14e-07	1.9e-08
0.372	8.22e-07	1.9e-08
0.4383	8.58e-07	1.9e-08
0.5036	8.89e-07	2e-08
0.5649	8.8e-07	2e-08
0.6245	8.56e-07	1.9e-08
0.6765	8.1e-07	1.9e-08
0.7278	7.63e-07	1.9e-08
0.7734	6.88e-07	1.9e-08
0.817	5.89e-07	1.8e-08
0.8567	4.91e-07	1.8e-08
0.897	3.82e-07	1.7e-08
0.9328	2.79e-07	1.7e-08
0.9665	1.56e-07	1.6e-08

System: butyl propanoate + heptadecane; phases: Liquid
Fixed: Pressure, kPa = 101
Fixed: Temperature, K = 318.15
Property: Excess molar enthalpy (molar enthalpy of mixing), kJ/mol (Liquid); method: CALVET:UFactor:2
Mole fraction of butyl propanoate	Excess molar enthalpy (molar enthalpy of mixing), kJ/mol	uncertainty
0.0939	0.4224	0.0082
0.1935	0.7338	0.013
0.2953	1.0096	0.0172
0.3647	1.1614	0.0196
0.4302	1.2564	0.021
0.4836	1.3002	0.0217
0.5295	1.3157	0.0219
0.5642	1.3082	0.0218
0.5727	1.3037	0.0217
0.5964	1.2972	0.0217
0.6386	1.2452	0.0208
0.6808	1.1886	0.02
0.7248	1.1049	0.0187
0.7703	0.9889	0.0169
0.8172	0.8464	0.0147
0.8639	0.6873	0.0123
0.911	0.4863	0.0093
0.9568	0.2613	0.0059

System: butyl propanoate + heptadecane; phases: Liquid
Fixed: Pressure, kPa = 101
Fixed: Temperature, K = 318.15
Property: Excess molar volume, m3/mol (Liquid); method: SAME:UFactor:2
Mole fraction of butyl propanoate	Excess molar volume, m3/mol	uncertainty
0.1135	3.06e-07	1.7e-08
0.2186	5.48e-07	1.8e-08
0.3079	7.39e-07	1.9e-08
0.3903	8.52e-07	1.9e-08
0.4652	8.98e-07	2e-08
0.5331	9.21e-07	2e-08
0.5915	9.16e-07	2e-08
0.6482	8.91e-07	2e-08
0.7001	8.35e-07	1.9e-08
0.7497	7.85e-07	1.9e-08
0.7938	6.9e-07	1.9e-08
0.8335	6.09e-07	1.8e-08
0.8704	5.1e-07	1.8e-08
0.907	4.01e-07	1.7e-08
0.9407	2.87e-07	1.7e-08
0.9701	1.43e-07	1.6e-08

System: heptane + pentyl propanoate; phases: Liquid
Fixed: Pressure, kPa = 101
Fixed: Temperature, K = 318.15
Property: Excess molar enthalpy (molar enthalpy of mixing), kJ/mol (Liquid); method: CALVET:UFactor:2
Mole fraction of pentyl propanoate	Excess molar enthalpy (molar enthalpy of mixing), kJ/mol	uncertainty
0.0541	0.1608	0.0042
0.1161	0.3045	0.0063
0.1808	0.422	0.0081
0.2438	0.5148	0.0095
0.3073	0.5904	0.0107
0.3672	0.6352	0.0114
0.4224	0.6575	0.0117
0.445	0.661	0.0118
0.4906	0.6664	0.0119
0.5414	0.6556	0.0117
0.5976	0.6254	0.0112
0.6595	0.5727	0.0104
0.725	0.4965	0.0093
0.7935	0.3956	0.0077
0.8667	0.2698	0.0058
0.9349	0.1414	0.0038

System: heptane + pentyl propanoate; phases: Liquid
Fixed: Pressure, kPa = 101
Fixed: Temperature, K = 318.15
Property: Excess molar volume, m3/mol (Liquid); method: SAME:UFactor:2
Mole fraction of pentyl propanoate	Excess molar volume, m3/mol	uncertainty
0.0556	6.6e-08	1.6e-08
0.1092	1.1e-07	1.6e-08
0.182	1.41e-07	1.6e-08
0.217	1.68e-07	1.6e-08
0.2721	1.85e-07	1.6e-08
0.3275	1.96e-07	1.6e-08
0.3857	1.98e-07	1.6e-08
0.4428	1.92e-07	1.6e-08
0.5013	1.78e-07	1.6e-08
0.5611	1.59e-07	1.6e-08
0.6204	1.37e-07	1.6e-08
0.6824	1.03e-07	1.6e-08
0.742	7.7e-08	1.6e-08
0.8047	4.9e-08	1.6e-08
0.8674	2.9e-08	1.6e-08
0.9323	9e-09	1.6e-08

System: nonane + pentyl propanoate; phases: Liquid
Fixed: Pressure, kPa = 101
Fixed: Temperature, K = 318.15
Property: Excess molar enthalpy (molar enthalpy of mixing), kJ/mol (Liquid); method: CALVET:UFactor:2
Mole fraction of pentyl propanoate	Excess molar enthalpy (molar enthalpy of mixing), kJ/mol	uncertainty
0.0584	0.1874	0.0046
0.1266	0.369	0.0073
0.1948	0.5194	0.0096
0.2641	0.6307	0.0113
0.329	0.7029	0.0125
0.3907	0.7444	0.0131
0.4467	0.7666	0.0134
0.4973	0.7679	0.0135
0.5431	0.7553	0.0133
0.576	0.7357	0.013
0.5969	0.7246	0.0128
0.6505	0.6737	0.012
0.7085	0.6082	0.011
0.7683	0.5208	0.0096
0.8297	0.4107	0.008
0.8907	0.2805	0.006
0.9492	0.1419	0.0039

System: nonane + pentyl propanoate; phases: Liquid
Fixed: Pressure, kPa = 101
Fixed: Temperature, K = 318.15
Property: Excess molar volume, m3/mol (Liquid); method: SAME:UFactor:2
Mole fraction of pentyl propanoate	Excess molar volume, m3/mol	uncertainty
0.0661	1.34e-07	1.6e-08
0.1312	2.47e-07	1.7e-08
0.1902	3.19e-07	1.7e-08
0.2517	3.88e-07	1.7e-08
0.3122	4.31e-07	1.8e-08
0.3722	4.6e-07	1.8e-08
0.4344	4.77e-07	1.8e-08
0.4911	4.73e-07	1.8e-08
0.5498	4.62e-07	1.8e-08
0.6072	4.37e-07	1.8e-08
0.6646	3.9e-07	1.7e-08
0.7225	3.49e-07	1.7e-08
0.778	2.91e-07	1.7e-08
0.8335	2.41e-07	1.7e-08
0.8887	1.69e-07	1.6e-08
0.9434	1.01e-07	1.6e-08

System: pentyl propanoate + undecane; phases: Liquid
Fixed: Pressure, kPa = 101
Fixed: Temperature, K = 318.15
Property: Excess molar enthalpy (molar enthalpy of mixing), kJ/mol (Liquid); method: CALVET:UFactor:2
Mole fraction of pentyl propanoate	Excess molar enthalpy (molar enthalpy of mixing), kJ/mol	uncertainty
0.0724	0.2479	0.0055
0.153	0.4577	0.0087
0.229	0.6195	0.0112
0.3051	0.7506	0.0132
0.3748	0.8258	0.0144
0.4452	0.863	0.0149
0.5015	0.8626	0.0149
0.5466	0.8429	0.0146
0.556	0.8377	0.0145
0.6046	0.8019	0.014
0.6573	0.748	0.0131
0.7137	0.6741	0.012
0.7726	0.5846	0.0106
0.8314	0.468	0.0088
0.8897	0.3288	0.0067
0.9449	0.1825	0.0045

System: pentyl propanoate + undecane; phases: Liquid
Fixed: Pressure, kPa = 101
Fixed: Temperature, K = 318.15
Property: Excess molar volume, m3/mol (Liquid); method: SAME:UFactor:2
Mole fraction of pentyl propanoate	Excess molar volume, m3/mol	uncertainty
0.079	1.89e-07	1.6e-08
0.1498	3.48e-07	1.7e-08
0.2179	4.36e-07	1.8e-08
0.2836	5.2e-07	1.8e-08
0.3484	5.69e-07	1.8e-08
0.4116	6.03e-07	1.8e-08
0.4733	6.14e-07	1.8e-08
0.5329	6.13e-07	1.8e-08
0.5902	5.99e-07	1.8e-08
0.6462	5.83e-07	1.8e-08
0.7023	5.24e-07	1.8e-08
0.7545	4.67e-07	1.8e-08
0.8065	3.79e-07	1.7e-08
0.8561	3.1e-07	1.7e-08
0.9045	2.2e-07	1.7e-08
0.9538	1.21e-07	1.6e-08

System: pentyl propanoate + tridecane; phases: Liquid
Fixed: Pressure, kPa = 101
Fixed: Temperature, K = 318.15
Property: Excess molar enthalpy (molar enthalpy of mixing), kJ/mol (Liquid); method: CALVET:UFactor:2
Mole fraction of pentyl propanoate	Excess molar enthalpy (molar enthalpy of mixing), kJ/mol	uncertainty
0.0691	0.2418	0.0054
0.1382	0.439	0.0084
0.2136	0.6299	0.0114
0.2861	0.7742	0.0136
0.3564	0.8754	0.0151
0.4222	0.9353	0.016
0.4822	0.959	0.0164
0.5355	0.9551	0.0163
0.578	0.9304	0.016
0.5956	0.9168	0.0158
0.6423	0.8654	0.015
0.6875	0.8064	0.0141
0.7398	0.7167	0.0127
0.7927	0.6197	0.0112
0.8474	0.4948	0.0093
0.9008	0.3444	0.007
0.9546	0.1736	0.0044

System: pentyl propanoate + tridecane; phases: Liquid
Fixed: Pressure, kPa = 101
Fixed: Temperature, K = 318.15
Property: Excess molar volume, m3/mol (Liquid); method: SAME:UFactor:2
Mole fraction of pentyl propanoate	Excess molar volume, m3/mol	uncertainty
0.0877	2.09e-07	1.6e-08
0.1642	3.71e-07	1.7e-08
0.2425	5.1e-07	1.8e-08
0.3196	6.05e-07	1.8e-08
0.3804	6.65e-07	1.9e-08
0.4461	6.93e-07	1.9e-08
0.5107	7.04e-07	1.9e-08
0.5701	6.95e-07	1.9e-08
0.6258	6.64e-07	1.9e-08
0.6801	6.16e-07	1.8e-08
0.7305	5.62e-07	1.8e-08
0.7814	4.99e-07	1.8e-08
0.8272	4.41e-07	1.8e-08
0.8719	3.34e-07	1.7e-08
0.9166	2.64e-07	1.7e-08
0.9578	1.29e-07	1.6e-08

System: pentyl propanoate + pentadecane; phases: Liquid
Fixed: Pressure, kPa = 101
Fixed: Temperature, K = 318.15
Property: Excess molar enthalpy (molar enthalpy of mixing), kJ/mol (Liquid); method: CALVET:UFactor:2
Mole fraction of pentyl propanoate	Excess molar enthalpy (molar enthalpy of mixing), kJ/mol	uncertainty
0.0757	0.2769	0.006
0.1563	0.519	0.0097
0.2383	0.7284	0.0129
0.3152	0.888	0.0153
0.3915	0.9946	0.017
0.4596	1.0493	0.0178
0.52	1.061	0.018
0.5607	1.0484	0.0178
0.5843	1.0288	0.0175
0.6262	0.9884	0.0169
0.6747	0.9207	0.0158
0.7264	0.836	0.0145
0.7806	0.7268	0.0128
0.8352	0.5896	0.0107
0.892	0.4167	0.0081
0.9477	0.2237	0.0052

System: pentyl propanoate + pentadecane; phases: Liquid
Fixed: Pressure, kPa = 101
Fixed: Temperature, K = 318.15
Property: Excess molar volume, m3/mol (Liquid); method: SAME:UFactor:2
Mole fraction of pentyl propanoate	Excess molar volume, m3/mol	uncertainty
0.0451	1.37e-07	1.6e-08
0.1011	2.83e-07	1.7e-08
0.1866	4.41e-07	1.8e-08
0.2665	5.63e-07	1.8e-08
0.341	6.68e-07	1.9e-08
0.4128	7.28e-07	1.9e-08
0.478	7.64e-07	1.9e-08
0.5422	7.75e-07	1.9e-08
0.5989	7.59e-07	1.9e-08
0.6522	7.35e-07	1.9e-08
0.7029	6.74e-07	1.9e-08
0.7542	6.2e-07	1.8e-08
0.7997	5.33e-07	1.8e-08
0.8438	4.51e-07	1.8e-08
0.8845	3.62e-07	1.7e-08
0.924	2.42e-07	1.7e-08
0.9627	1.57e-07	1.6e-08

System: pentyl propanoate + heptadecane; phases: Liquid
Fixed: Pressure, kPa = 101
Fixed: Temperature, K = 318.15
Property: Excess molar enthalpy (molar enthalpy of mixing), kJ/mol (Liquid); method: CALVET:UFactor:2
Mole fraction of pentyl propanoate	Excess molar enthalpy (molar enthalpy of mixing), kJ/mol	uncertainty
0.1196	0.433	0.0083
0.2114	0.6958	0.0124
0.3026	0.906	0.0156
0.3904	1.0499	0.0178
0.469	1.1272	0.019
0.5373	1.1436	0.0193
0.5951	1.1183	0.0189
0.6196	1.0897	0.0184
0.6625	1.0347	0.0176
0.7073	0.9531	0.0163
0.7545	0.8477	0.0147
0.8044	0.7389	0.013
0.8552	0.5963	0.0109
0.9052	0.4232	0.0082
0.9542	0.2265	0.0053

System: pentyl propanoate + heptadecane; phases: Liquid
Fixed: Pressure, kPa = 101
Fixed: Temperature, K = 318.15
Property: Excess molar volume, m3/mol (Liquid); method: SAME:UFactor:2
Mole fraction of pentyl propanoate	Excess molar volume, m3/mol	uncertainty
0.1083	2.44e-07	1.7e-08
0.2045	4.6e-07	1.8e-08
0.2891	6.18e-07	1.8e-08
0.3649	6.95e-07	1.9e-08
0.4391	7.63e-07	1.9e-08
0.5053	8.03e-07	1.9e-08
0.5658	7.98e-07	1.9e-08
0.6233	7.82e-07	1.9e-08
0.6778	7.45e-07	1.9e-08
0.7277	6.88e-07	1.9e-08
0.7752	6.07e-07	1.8e-08
0.8185	5.23e-07	1.8e-08
0.8587	4.3e-07	1.8e-08
0.8969	3.33e-07	1.7e-08
0.9324	2.44e-07	1.7e-08
0.9677	1.14e-07	1.6e-08
