Measured thermophysical data. Thermodynamic study of 9-anthracenecarboxylic acid
Source: J. Chem. Thermodyn., 2011, 10.1016/j.jct.2010.08.018
Compound 1: carbon dioxide, CO2, InChI=1S/CO2/c2-1-3
Compound 2: water, H2O, InChI=1S/H2O/h1H2
Compound 3: oxygen, O2, InChI=1S/O2/c1-2
Compound 4: 9-anthracenecarboxylic acid, C15H10O2, InChI=1S/C15H10O2/c16-15(17)14-12-7-3-1-5-10(12)9-11-6-2-4-8-13(11)14/h1-9H,(H,16,17), purity 99%

System: 9-anthracenecarboxylic acid; phases: Crystal, Gas
Property: Vapor or sublimation pressure, kPa (Crystal); method: Calculated from knudsen effusion weight loss
Temperature, K	Vapor or sublimation pressure, kPa	uncertainty
403.16	0.00018	9e-06
403.16	0.00018	9e-06
403.16	0.000175	9e-06
405.12	0.000218	1.1e-05
405.12	0.000215	1.1e-05
405.12	0.000212	1.1e-05
407.14	0.000272	1.4e-05
407.14	0.000255	1.3e-05
407.14	0.000249	1.2e-05
409.18	0.000321	1.6e-05
409.18	0.000312	1.6e-05
411.14	0.000379	1.9e-05
411.14	0.000378	1.9e-05
411.14	0.000368	1.8e-05
413.14	0.00047	2.4e-05
413.14	0.000447	2.2e-05
413.14	0.000444	2.2e-05
415.19	0.000555	2.8e-05
415.19	0.000576	2.9e-05
415.19	0.00055	2.8e-05
417.15	0.000678	3.4e-05
417.15	0.000668	3.3e-05
417.15	0.000648	3.2e-05
419.14	0.000837	4.2e-05
419.14	0.000816	4.1e-05
419.14	0.00082	4.1e-05
421.19	0.001001	0.0001
421.19	0.000997	5e-05
421.19	0.000997	5e-05
423.12	0.001188	0.000123
423.12	0.001177	0.000122
423.12	0.001152	0.000119

Reaction: -1 9-anthracenecarboxylic acid + 15 carbon dioxide + 5 water + -16.5 oxygen
Property: Specific internal energy of reaction at constant volume, J/g
-31771.4
