Measured thermophysical data. Influence of the temperature on the (liquid + liquid) phase equilibria of (water + 1-propanl + linalool or geraniol)
Source: J. Chem. Thermodyn., 2017, 10.1016/j.jct.2016.12.011
Compound 1: water, H2O, InChI=1S/H2O/h1H2
Compound 2: propan-1-ol, C3H8O, InChI=1S/C3H8O/c1-2-3-4/h4H,2-3H2,1H3, purity 99.7%
Compound 3: 3,7-dimethyl-1,6-octadien-3-ol, C10H18O, InChI=1S/C10H18O/c1-5-10(4,11)8-6-7-9(2)3/h5,7,11H,1,6,8H2,2-4H3, purity 98%
Compound 4: (E)-3,7-dimethyl-2,6-octadien-1-ol, C10H18O, InChI=1S/C10H18O/c1-9(2)5-4-6-10(3)7-8-11/h5,7,11H,4,6,8H2,1-3H3/b10-7+, purity 98%

System: water; phases: Liquid
Property: Mass density, kg/m3 (Liquid); method: Vibrating tube method
Temperature, K	Pressure, kPa	Mass density, kg/m3	uncertainty
293.15	100	998.15	12

System: water; phases: Liquid
Property: Refractive index (Na D-line) (Liquid); method: Standard Abbe refractometry
Temperature, K	Pressure, kPa	Refractive index (Na D-line)	uncertainty
293.15	100	1.33299	0.00105

System: propan-1-ol; phases: Liquid
Property: Mass density, kg/m3 (Liquid); method: Vibrating tube method
Temperature, K	Pressure, kPa	Mass density, kg/m3	uncertainty
293.15	100	803.85	12

System: propan-1-ol; phases: Liquid
Property: Refractive index (Na D-line) (Liquid); method: Standard Abbe refractometry
Temperature, K	Pressure, kPa	Refractive index (Na D-line)	uncertainty
293.15	100	1.38461	0.00105

System: 3,7-dimethyl-1,6-octadien-3-ol; phases: Liquid
Property: Mass density, kg/m3 (Liquid); method: Vibrating tube method
Temperature, K	Pressure, kPa	Mass density, kg/m3	uncertainty
293.15	100	861.07	12.02

System: 3,7-dimethyl-1,6-octadien-3-ol; phases: Liquid
Property: Refractive index (Na D-line) (Liquid); method: Standard Abbe refractometry
Temperature, K	Pressure, kPa	Refractive index (Na D-line)	uncertainty
293.15	100	1.46213	0.00112

System: (E)-3,7-dimethyl-2,6-octadien-1-ol; phases: Liquid
Property: Mass density, kg/m3 (Liquid); method: Vibrating tube method
Temperature, K	Pressure, kPa	Mass density, kg/m3	uncertainty
293.15	100	883.25	12.02

System: (E)-3,7-dimethyl-2,6-octadien-1-ol; phases: Liquid
Property: Refractive index (Na D-line) (Liquid); method: Standard Abbe refractometry
Temperature, K	Pressure, kPa	Refractive index (Na D-line)	uncertainty
293.15	100	1.47724	0.00112

System: 3,7-dimethyl-1,6-octadien-3-ol + water; phases: Liquid mixture 1, Liquid mixture 2
Fixed: Pressure, kPa = 100
Property: Mole fraction of 3,7-dimethyl-1,6-octadien-3-ol (Liquid mixture 1); method: Chromatography
Temperature, K	Mole fraction of 3,7-dimethyl-1,6-octadien-3-ol	uncertainty
283.15	0.00017167	2.15e-06
298.15	0.00011348	1.87e-06
313.15	9.141e-05	1.75e-06

System: 3,7-dimethyl-1,6-octadien-3-ol + water; phases: Liquid mixture 2, Liquid mixture 1
Fixed: Pressure, kPa = 100
Property: Mole fraction of water (Liquid mixture 2); method: Chromatography
Temperature, K	Mole fraction of water	uncertainty
283.15	0.2101	0.0101
298.15	0.2132	0.0101
313.15	0.2192	0.0101

System: (E)-3,7-dimethyl-2,6-octadien-1-ol + water; phases: Liquid mixture 1, Liquid mixture 2
Fixed: Pressure, kPa = 100
Property: Mole fraction of (E)-3,7-dimethyl-2,6-octadien-1-ol (Liquid mixture 1); method: Chromatography
Temperature, K	Mole fraction of (E)-3,7-dimethyl-2,6-octadien-1-ol	uncertainty
283.15	7.125e-05	1.68e-06
298.15	6.407e-05	1.67e-06
313.15	5.427e-05	1.65e-06

System: propan-1-ol + 3,7-dimethyl-1,6-octadien-3-ol + water; phases: Liquid mixture 2, Liquid mixture 1
Fixed: Pressure, kPa = 100
Property: Mole fraction of propan-1-ol (Liquid mixture 2); method: Chromatography
Property: Mole fraction of propan-1-ol (Liquid mixture 1); method: Chromatography
Property: Mole fraction of water (Liquid mixture 1); method: Chromatography
Temperature, K	Mole fraction of water	Mole fraction of propan-1-ol	uncertainty	Mole fraction of propan-1-ol	uncertainty	Mole fraction of water	uncertainty
283.15	0.2121	0.0815	0.01	0.0105	0.01	0.9893	
298.15	0.2448	0.1627	0.0101	0.0151	0.01	0.9847	
298.15	0.2646	0.2195	0.0101	0.0196	0.01	0.9802	
298.15	0.3042	0.3168	0.0102	0.0308	0.01	0.9687	
298.15	0.3245	0.3653	0.0103	0.0396	0.01	0.9597	
298.15	0.4216	0.4255	0.0104	0.0599	0.01	0.939	
298.15	0.4912	0.4138	0.0104	0.0716	0.01	0.9275	
298.15	0.6683	0.3075	0.0102	0.1251	0.01	0.8729	
313.15	0.2292	0.0999	0.01	0.0085	0.0085	0.9912	
313.15	0.2531	0.1711	0.0101	0.0139	0.01	0.9858	
313.15	0.2772	0.2309	0.0101	0.0186	0.01	0.9809	
283.15	0.2229	0.1504	0.0101	0.017	0.01	0.9827	
313.15	0.3293	0.3398	0.0103	0.031	0.01	0.9685	
313.15	0.3572	0.3713	0.0103	0.0374	0.01	0.9618	
313.15	0.4394	0.4056	0.0104	0.0535	0.01	0.9457	
313.15	0.5123	0.3956	0.0104	0.0671	0.01	0.9319	
313.15	0.6938	0.284	0.0102	0.1209	0.01	0.8765	
283.15	0.2324	0.2118	0.0101	0.023	0.01	0.9768	
283.15	0.2561	0.3011	0.0102	0.0341	0.01	0.9655	
283.15	0.2895	0.3765	0.0103	0.0432	0.01	0.9561	
283.15	0.3861	0.4328	0.0105	0.0656	0.01	0.9334	
283.15	0.4738	0.4311	0.0105	0.079	0.01	0.9202	
283.15	0.6317	0.3382	0.0103	0.1341	0.01	0.8641	
298.15	0.2212	0.0952	0.01	0.0101	0.01	0.9897	

System: propan-1-ol + (E)-3,7-dimethyl-2,6-octadien-1-ol + water; phases: Liquid mixture 2, Liquid mixture 1
Fixed: Pressure, kPa = 100
Property: Mole fraction of propan-1-ol (Liquid mixture 2); method: Chromatography
Property: Mole fraction of propan-1-ol (Liquid mixture 1); method: Chromatography
Property: Mole fraction of water (Liquid mixture 1); method: Chromatography
Temperature, K	Mole fraction of water	Mole fraction of propan-1-ol	uncertainty	Mole fraction of propan-1-ol	uncertainty	Mole fraction of water	uncertainty
283.15	0.2501	0.0983	0.01	0.015	0.01	0.9848	
283.15	0.2675	0.1754	0.0101	0.0212	0.01	0.9785	
283.15	0.2778	0.2473	0.0102	0.0283	0.01	0.9714	
283.15	0.3231	0.3456	0.0103	0.0402	0.01	0.9595	
283.15	0.3831	0.3842	0.0104	0.0551	0.01	0.9447	
283.15	0.4601	0.3994	0.0104	0.0736	0.01	0.9262	
283.15	0.5931	0.3447	0.0103	0.1156	0.01	0.8836	
298.15	0.2591	0.0991	0.01	0.0129	0.01	0.9868	
298.15	0.283	0.1926	0.0101	0.0186	0.01	0.9811	
298.15	0.3106	0.2671	0.0102	0.0261	0.01	0.9735	
298.15	0.3676	0.3415	0.0103	0.036	0.01	0.9636	
298.15	0.4174	0.3682	0.0103	0.0491	0.01	0.9505	
298.15	0.4832	0.3734	0.0103	0.0598	0.01	0.9399	
298.15	0.648	0.2956	0.0102	0.109	0.01	0.89	
313.15	0.2668	0.1105	0.01	0.0101	0.01	0.9897	
313.15	0.3101	0.205	0.0101	0.0161	0.01	0.9837	
313.15	0.3463	0.2855	0.0102	0.0238	0.01	0.976	
313.15	0.3805	0.3306	0.0103	0.0306	0.01	0.9692	
313.15	0.4313	0.3543	0.0103	0.0398	0.01	0.96	
313.15	0.491	0.3558	0.0103	0.0535	0.01	0.9462	
313.15	0.7684	0.2127	0.0101	0.1494	0.0101	0.8495	
