Measured thermophysical data. Measurement and modelling of static dielectric constants of aqueous solutions of methanol, ethanol and acetic acid at T = 293.15 K and 91.3 kPa
Source: J. Chem. Thermodyn., 2013, 10.1016/j.jct.2012.08.009
Compound 1: water, H2O, InChI=1S/H2O/h1H2
Compound 2: methanol, CH4O, InChI=1S/CH4O/c1-2/h2H,1H3, purity 99%
Compound 3: ethanol, C2H6O, InChI=1S/C2H6O/c1-2-3/h3H,2H2,1H3, purity 99%
Compound 4: acetic acid, C2H4O2, InChI=1S/C2H4O2/c1-2(3)4/h1H3,(H,3,4), purity 99%

System: water; phases: Liquid
Property: Mass density, kg/m3 (Liquid); method: Pycnometric method
Temperature, K	Pressure, kPa	Mass density, kg/m3	uncertainty
293.15	101.325	999	2.2

System: water; phases: Liquid
Property: Refractive index (Na D-line) (Liquid); method: Standard Abbe refractometry
Temperature, K	Pressure, kPa	Refractive index (Na D-line)	uncertainty
293.15	101.325	1.3342	0.0028

System: water; phases: Liquid, Gas
Property: Normal boiling temperature, K (Liquid); method: Ebulliometric method (Recirculating still)
Normal boiling temperature, K	uncertainty
373.1	0.5

System: water; phases: Liquid
Property: Relative permittivity at zero frequency (Liquid); method: Coaxial cylinder capacitor
Pressure, kPa	Temperature, K	Relative permittivity at zero frequency	uncertainty
91.3	293.15	79.99	0.25

System: methanol; phases: Liquid
Property: Mass density, kg/m3 (Liquid); method: Pycnometric method
Temperature, K	Pressure, kPa	Mass density, kg/m3	uncertainty
293.15	101.325	793	2.1

System: methanol; phases: Liquid
Property: Refractive index (Na D-line) (Liquid); method: Standard Abbe refractometry
Temperature, K	Pressure, kPa	Refractive index (Na D-line)	uncertainty
293.15	101.325	1.328	0.0027

System: methanol; phases: Liquid, Gas
Property: Normal boiling temperature, K (Liquid); method: Ebulliometric method (Recirculating still)
Normal boiling temperature, K	uncertainty
337.85	0.51

System: methanol; phases: Liquid
Property: Relative permittivity at zero frequency (Liquid); method: Coaxial cylinder capacitor
Pressure, kPa	Temperature, K	Relative permittivity at zero frequency	uncertainty
91.3	293.15	33	0.11

System: ethanol; phases: Liquid
Property: Mass density, kg/m3 (Liquid); method: Pycnometric method
Temperature, K	Pressure, kPa	Mass density, kg/m3	uncertainty
293.15	101.325	790	2.1

System: ethanol; phases: Liquid
Property: Refractive index (Na D-line) (Liquid); method: Standard Abbe refractometry
Temperature, K	Pressure, kPa	Refractive index (Na D-line)	uncertainty
293.15	101.325	1.3612	0.0028

System: ethanol; phases: Liquid, Gas
Property: Normal boiling temperature, K (Liquid); method: Ebulliometric method (Recirculating still)
Normal boiling temperature, K	uncertainty
351.35	0.51

System: ethanol; phases: Liquid
Property: Relative permittivity at zero frequency (Liquid); method: Coaxial cylinder capacitor
Pressure, kPa	Temperature, K	Relative permittivity at zero frequency	uncertainty
91.3	293.15	25.02	0.08

System: acetic acid; phases: Liquid
Property: Mass density, kg/m3 (Liquid); method: Pycnometric method
Temperature, K	Pressure, kPa	Mass density, kg/m3	uncertainty
293.15	101.325	1055	4.1

System: acetic acid; phases: Liquid
Property: Refractive index (Na D-line) (Liquid); method: Standard Abbe refractometry
Temperature, K	Pressure, kPa	Refractive index (Na D-line)	uncertainty
293.15	101.325	1.372	0.0028

System: acetic acid; phases: Liquid, Gas
Property: Normal boiling temperature, K (Liquid); method: Ebulliometric method (Recirculating still)
Normal boiling temperature, K	uncertainty
391.1	0.51

System: acetic acid; phases: Liquid
Property: Relative permittivity at zero frequency (Liquid); method: Coaxial cylinder capacitor
Pressure, kPa	Temperature, K	Relative permittivity at zero frequency	uncertainty
91.3	293.15	6.15	0.02

System: methanol + water; phases: Liquid
Fixed: Pressure, kPa = 91.3
Fixed: Temperature, K = 293.15
Property: Relative permittivity at zero frequency (Liquid); method: Coaxial cylinder capacitor
Mole fraction of methanol	Relative permittivity at zero frequency	uncertainty
1	33	0.11
0.98	33.72	0.11
0.95	34.65	0.11
0.9	36.1	0.12
0.8	39.18	0.12
0.7	42.54	0.14
0.6	46.22	0.15
0.5	50.22	0.16
0.4	54.7	0.17
0.3	59.67	0.19
0.2	65.58	0.21
0.1	72.27	0.23
0.05	76.058	0.242
0	79.99	0.25

System: ethanol + water; phases: Liquid
Fixed: Pressure, kPa = 91.3
Fixed: Temperature, K = 293.15
Property: Relative permittivity at zero frequency (Liquid); method: Coaxial cylinder capacitor
Mole fraction of ethanol	Relative permittivity at zero frequency	uncertainty
1	25.02	0.08
0.98	25.53	0.08
0.95	26.28	0.08
0.9	27.55	0.09
0.8	30.36	0.1
0.7	33.5	0.11
0.6	37.01	0.12
0.5	41.1	0.13
0.4	46.1	0.15
0.3	52.2	0.17
0.2	59.98	0.19
0.1	69.4	0.22
0.05	74.7	0.24
0	79.99	0.25

System: acetic acid + water; phases: Liquid
Fixed: Pressure, kPa = 91.3
Fixed: Temperature, K = 293.15
Property: Relative permittivity at zero frequency (Liquid); method: Coaxial cylinder capacitor
Mole fraction of acetic acid	Relative permittivity at zero frequency	uncertainty
1	6.15	0.02
0.98	7.25	0.02
0.95	8.64	0.03
0.9	11.11	0.04
0.8	16.55	0.05
0.7	22.41	0.07
0.6	28.5	0.09
0.5	34.9	0.11
0.4	41.8	0.13
0.3	49.4	0.16
0.2	58	0.18
0.1	67.7	0.22
0.05	73.5	0.23
0	79.99	0.25
