Measured thermophysical data. Volumetric approach to the interaction of L-Proline in aqueous Metformin Hydrochloride solutions for temperature range 298.15-318.15 K
Source: J. Chem. Thermodyn., 2019, 10.1016/j.jct.2019.02.012
Compound 1: L-proline, C5H9NO2, InChI=1S/C5H9NO2/c7-5(8)4-2-1-3-6-4/h4,6H,1-3H2,(H,7,8)/t4-/m0/s1, purity 99%
Compound 2: N,N-dimethylimidodicarbonimidic diamide hydrochloride, C4H12ClN5, InChI=1S/C4H11N5.ClH/c1-9(2)4(7)8-3(5)6;/h1-2H3,(H5,5,6,7,8);1H, purity 98.5%
Compound 3: water, H2O, InChI=1S/H2O/h1H2

System: water; phases: Liquid
Fixed: Pressure, kPa = 100
Property: Mass density, kg/m3 (Liquid); method: Pycnometric method
Temperature, K	Mass density, kg/m3	uncertainty
298.15	997.04	0.48
303.15	995.64	0.49
308.15	994.02	0.5
313.15	992.2	0.5
318.15	990.24	0.51

System: L-proline + N,N-dimethylimidodicarbonimidic diamide hydrochloride + water; phases: Liquid
Fixed: Pressure, kPa = 100
Property: Mass density, kg/m3 (Liquid); method: Pycnometric method
Temperature, K	Solvent: Molality, mol/kg of N,N-dimethylimidodicarbonimidic diamide hydrochloride	Molality, mol/kg of L-proline	Mass density, kg/m3	uncertainty
298.15	0	0	997.04	0.48
298.15	0	0.025	997.86	0.47
298.15	0	0.05	998.65	0.47
298.15	0	0.075	999.43	0.47
298.15	0	0.1	1000.2	0.47
298.15	0	0.125	1000.96	0.48
303.15	0	0	995.64	0.49
303.15	0	0.025	996.45	0.48
303.15	0	0.05	997.24	0.48
303.15	0	0.075	998.01	0.48
303.15	0	0.1	998.77	0.49
303.15	0	0.125	999.52	0.49
308.15	0	0	994.02	0.5
308.15	0	0.025	994.82	0.49
308.15	0	0.05	995.6	0.49
308.15	0	0.075	996.37	0.5
308.15	0	0.1	997.12	0.5
308.15	0	0.125	997.86	0.5
313.15	0	0	992.2	0.5
313.15	0	0.025	992.99	0.5
313.15	0	0.05	993.77	0.5
313.15	0	0.075	994.53	0.51
313.15	0	0.1	995.28	0.51
313.15	0	0.125	996.01	0.52
318.15	0	0	990.24	0.51
318.15	0	0.025	991.02	0.51
318.15	0	0.05	991.79	0.51
318.15	0	0.075	992.55	0.51
318.15	0	0.1	993.29	0.52
318.15	0	0.125	994.02	0.53
298.15	0.05	0	998.89	0.48
298.15	0.05	0.025	999.62	0.47
298.15	0.05	0.05	1000.38	0.47
298.15	0.05	0.075	1001.17	0.48
298.15	0.05	0.1	1001.98	0.48
298.15	0.05	0.125	1002.79	0.48
303.15	0.05	0	997.46	0.49
303.15	0.05	0.025	998.22	0.48
303.15	0.05	0.05	999	0.48
303.15	0.05	0.075	999.79	0.49
303.15	0.05	0.1	1000.61	0.49
303.15	0.05	0.125	1001.44	0.49
308.15	0.05	0	995.83	0.5
308.15	0.05	0.025	996.6	0.49
308.15	0.05	0.05	997.38	0.49
308.15	0.05	0.075	998.19	0.5
308.15	0.05	0.1	999.02	0.5
308.15	0.05	0.125	999.85	0.5
313.15	0.05	0	993.99	0.5
313.15	0.05	0.025	994.77	0.5
313.15	0.05	0.05	995.57	0.5
313.15	0.05	0.075	996.38	0.51
313.15	0.05	0.1	997.22	0.51
313.15	0.05	0.125	998.07	0.51
318.15	0.05	0	992.01	0.51
318.15	0.05	0.025	992.8	0.51
318.15	0.05	0.05	993.6	0.51
318.15	0.05	0.075	994.43	0.52
318.15	0.05	0.1	995.26	0.52
318.15	0.05	0.125	996.13	0.52
298.15	0.1	0	1000.77	0.48
298.15	0.1	0.025	1001.49	0.48
298.15	0.1	0.05	1002.24	0.48
298.15	0.1	0.075	1003.02	0.48
298.15	0.1	0.1	1003.82	0.48
298.15	0.1	0.125	1004.62	0.48
303.15	0.1	0	999.32	0.49
303.15	0.1	0.025	1000.07	0.49
303.15	0.1	0.05	1000.84	0.49
303.15	0.1	0.075	1001.63	0.49
303.15	0.1	0.1	1002.43	0.49
303.15	0.1	0.125	1003.26	0.49
308.15	0.1	0	997.67	0.5
308.15	0.1	0.025	998.41	0.5
308.15	0.1	0.05	999.19	0.5
308.15	0.1	0.075	999.99	0.5
308.15	0.1	0.1	1000.81	0.5
308.15	0.1	0.125	1001.61	0.5
313.15	0.1	0	995.82	0.51
313.15	0.1	0.025	996.59	0.51
313.15	0.1	0.05	997.37	0.51
313.15	0.1	0.075	998.18	0.51
313.15	0.1	0.1	999.02	0.51
313.15	0.1	0.125	999.83	0.51
318.15	0.1	0	993.83	0.52
318.15	0.1	0.025	994.66	0.52
318.15	0.1	0.05	995.46	0.52
318.15	0.1	0.075	996.27	0.52
318.15	0.1	0.1	997.12	0.52
318.15	0.1	0.125	997.96	0.52
298.15	0.15	0	1002.66	0.48
298.15	0.15	0.025	1003.37	0.48
298.15	0.15	0.05	1004.12	0.48
298.15	0.15	0.075	1004.89	0.48
298.15	0.15	0.1	1005.66	0.48
298.15	0.15	0.125	1006.48	0.49
303.15	0.15	0	1001.21	0.49
303.15	0.15	0.025	1001.94	0.49
303.15	0.15	0.05	1002.7	0.49
303.15	0.15	0.075	1003.48	0.49
303.15	0.15	0.1	1004.27	0.49
303.15	0.15	0.125	1005.09	0.49
308.15	0.15	0	999.56	0.5
308.15	0.15	0.025	1000.3	0.5
308.15	0.15	0.05	1001.07	0.5
308.15	0.15	0.075	1001.85	0.5
308.15	0.15	0.1	1002.65	0.5
308.15	0.15	0.125	1003.46	0.5
313.15	0.15	0	997.69	0.51
313.15	0.15	0.025	998.45	0.51
313.15	0.15	0.05	999.22	0.51
313.15	0.15	0.075	1000.02	0.51
313.15	0.15	0.1	1000.84	0.51
313.15	0.15	0.125	1001.67	0.51
318.15	0.15	0	995.69	0.52
318.15	0.15	0.025	996.47	0.52
318.15	0.15	0.05	997.26	0.52
318.15	0.15	0.075	998.06	0.52
318.15	0.15	0.1	998.91	0.52
318.15	0.15	0.125	999.75	0.52
298.15	0.2	0	1004.6	0.48
298.15	0.2	0.025	1005.29	0.48
298.15	0.2	0.05	1006.03	0.48
298.15	0.2	0.075	1006.77	0.48
298.15	0.2	0.1	1007.57	0.49
298.15	0.2	0.125	1008.39	0.49
303.15	0.2	0	1003.12	0.49
303.15	0.2	0.025	1003.84	0.49
303.15	0.2	0.05	1004.58	0.49
303.15	0.2	0.075	1005.35	0.49
303.15	0.2	0.1	1006.14	0.49
303.15	0.2	0.125	1006.95	0.49
308.15	0.2	0	1001.46	0.5
308.15	0.2	0.025	1002.19	0.5
308.15	0.2	0.05	1002.94	0.5
308.15	0.2	0.075	1003.71	0.5
308.15	0.2	0.1	1004.51	0.5
308.15	0.2	0.125	1005.32	0.5
313.15	0.2	0	999.59	0.51
313.15	0.2	0.025	1000.33	0.51
313.15	0.2	0.05	1001.1	0.51
313.15	0.2	0.075	1001.89	0.51
313.15	0.2	0.1	1002.67	0.51
313.15	0.2	0.125	1003.5	0.51
318.15	0.2	0	997.6	0.52
318.15	0.2	0.025	998.37	0.52
318.15	0.2	0.05	999.16	0.52
318.15	0.2	0.075	999.97	0.52
318.15	0.2	0.1	1000.79	0.52
318.15	0.2	0.125	1001.62	0.52

System: N,N-dimethylimidodicarbonimidic diamide hydrochloride + water; phases: Liquid
Fixed: Pressure, kPa = 100
Property: Mass density, kg/m3 (Liquid); method: Pycnometric method
Temperature, K	Molality, mol/kg of N,N-dimethylimidodicarbonimidic diamide hydrochloride	Mass density, kg/m3	uncertainty
298.15	0.05	998.89	0.48
303.15	0.05	997.46	0.49
308.15	0.05	995.83	0.5
313.15	0.05	993.99	0.5
318.15	0.05	992.01	0.51
298.15	0.1	1000.77	0.48
303.15	0.1	999.32	0.49
308.15	0.1	997.67	0.5
313.15	0.1	995.82	0.51
318.15	0.1	993.83	0.52
298.15	0.15	1002.66	0.48
303.15	0.15	1001.21	0.49
308.15	0.15	999.56	0.5
313.15	0.15	997.69	0.51
318.15	0.15	995.69	0.52
298.15	0.2	1004.6	0.48
303.15	0.2	1003.12	0.49
308.15	0.2	1001.46	0.5
313.15	0.2	999.59	0.51
318.15	0.2	997.6	0.52
298.15	0	997.04	0.48
303.15	0	995.64	0.49
308.15	0	994.02	0.5
313.15	0	992.2	0.5
318.15	0	990.24	0.51

System: L-proline + water; phases: Liquid
Fixed: Pressure, kPa = 100
Property: Mass density, kg/m3 (Liquid); method: Pycnometric method
Temperature, K	Molality, mol/kg of L-proline	Mass density, kg/m3	uncertainty
298.15	0.025	997.86	0.47
298.15	0.05	998.65	0.47
298.15	0.075	999.43	0.47
298.15	0.1	1000.2	0.47
298.15	0.125	1000.96	0.48
303.15	0.025	996.45	0.48
303.15	0.05	997.24	0.48
303.15	0.075	998.01	0.48
303.15	0.1	998.77	0.49
303.15	0.125	999.52	0.49
308.15	0.025	994.82	0.49
308.15	0.05	995.6	0.49
308.15	0.075	996.37	0.5
308.15	0.1	997.12	0.5
308.15	0.125	997.86	0.5
313.15	0.025	992.99	0.5
313.15	0.05	993.77	0.5
313.15	0.075	994.53	0.51
313.15	0.1	995.28	0.51
313.15	0.125	996.01	0.52
318.15	0.025	991.02	0.51
318.15	0.05	991.79	0.51
318.15	0.075	992.55	0.51
318.15	0.1	993.29	0.52
318.15	0.125	994.02	0.53
298.15	0	997.04	0.48
303.15	0	995.64	0.49
308.15	0	994.02	0.5
313.15	0	992.2	0.5
318.15	0	990.24	0.51
