Measured thermophysical data. Thermodynamic properties of a CO2-rich mixture (CO2 + CH3OH) in conditions of interest for carbon dioxide capture and storage technology and other applications
Source: J. Chem. Thermodyn., 2016, 10.1016/j.jct.2016.03.026
Compound 1: methanol, CH4O, InChI=1S/CH4O/c1-2/h2H,1H3, purity 99.93%
Compound 2: carbon dioxide, CO2, InChI=1S/CO2/c2-1-3, purity 99.998%

System: methanol + carbon dioxide; phases: Fluid (supercritical or subcritical phases)
Fixed: Frequency, MHz = 5
Property: Speed of sound, m/s (Fluid (supercritical or subcritical phases)); method: Pulse-echo method
Mole fraction of carbon dioxide	Temperature, K	Pressure, kPa	Speed of sound, m/s	uncertainty
0.7534	263.18	6060	735.8	1.1
0.7534	263.18	9710	770.9	1.1
0.7534	263.18	14730	813.5	1.1
0.7534	263.18	20160	854.1	1.2
0.7534	263.18	24940	886.4	1.2
0.7534	263.18	30090	918.5	1.2
0.7534	263.18	35000	946.9	1.2
0.7534	263.18	40020	974	1.3
0.7534	263.18	44820	998.5	1.3
0.7534	263.18	49950	1023.2	1.3
0.7534	263.18	55090	1046.8	1.4
0.7534	263.18	59880	1067.8	1.4
0.7534	263.18	64880	1088.8	1.4
0.7534	263.18	70360	1110.8	1.4
0.7534	263.18	75340	1130	1.5
0.7534	263.18	80260	1148.4	1.5
0.7534	263.18	89760	1182.3	1.5
0.7534	263.18	100040	1216.8	1.6
0.7534	263.18	110590	1250.3	1.6
0.7534	263.18	119810	1278.1	1.6
0.7534	263.18	141280	1338.3	1.7
0.7534	263.18	159890	1386.5	1.8
0.7534	263.18	179550	1433.7	1.8
0.7534	298.13	10080	529.7	1
0.7534	298.13	14980	600.9	1
0.7534	298.13	20030	657.7	1
0.7534	298.13	30030	746.7	1
0.7534	298.13	34980	783.5	1.1
0.7534	298.13	40050	817.8	1.1
0.7534	298.13	45020	848.9	1.1
0.7534	298.13	50070	878.2	1.2
0.7534	298.13	54890	904.5	1.2
0.7534	298.13	60230	932.1	1.2
0.7534	298.13	64680	953.8	1.2
0.7534	298.13	70030	978.8	1.3
0.7534	298.13	75550	1003.2	1.3
0.7534	298.13	80530	1024.4	1.3
0.7534	298.13	90430	1064.1	1.4
0.7534	298.13	99830	1098.9	1.4
0.7534	298.13	110320	1136.1	1.5
0.7534	298.13	120120	1168.5	1.5
0.7534	298.13	139110	1226.8	1.6
0.7534	298.13	159590	1284.3	1.6
0.7534	298.13	180370	1338.1	1.7
0.7534	323.15	25000	585.5	0.9
0.7534	323.15	29950	635.7	0.9
0.7534	323.15	35040	680.4	1
0.7534	323.15	40000	719.1	1
0.7534	323.15	45070	755	1
0.7534	323.15	50420	789.8	1.1
0.7534	323.15	55120	818.2	1.1
0.7534	323.15	60110	846.6	1.1
0.7534	323.15	65810	876.8	1.2
0.7534	323.15	70220	899.1	1.2
0.7534	323.15	75220	923.1	1.2
0.7534	323.15	90000	988.1	1.3
0.7534	323.15	100230	1029	1.3
0.7534	323.15	109960	1065.3	1.4
0.7534	323.15	120580	1102.5	1.4
0.7534	323.15	140520	1166.6	1.5
0.7534	323.15	160410	1224.7	1.6
0.7534	323.15	180460	1278.6	1.6
0.8502	263.19	6000	691.2	1
0.8502	263.19	9880	731.2	1
0.8502	263.19	14650	773.8	1.1
0.8502	263.19	19850	814.7	1.1
0.8502	263.19	24990	850.9	1.1
0.8502	263.19	29690	881.1	1.2
0.8502	263.19	35020	912.8	1.2
0.8502	263.19	40080	940.7	1.2
0.8502	263.19	44910	965.8	1.3
0.8502	263.19	50170	991.7	1.3
0.8502	263.19	55230	1015.1	1.3
0.8502	263.19	60100	1036.7	1.3
0.8502	263.19	64650	1056	1.4
0.8502	263.19	70030	1078	1.4
0.8502	263.19	74380	1095.2	1.4
0.8502	263.19	80050	1116.4	1.4
0.8502	263.19	90050	1152.6	1.5
0.8502	263.19	100540	1187.6	1.5
0.8502	263.19	110230	1218.2	1.6
0.8502	263.19	120050	1247.8	1.6
0.8502	263.19	140150	1303.4	1.7
0.8502	263.19	150270	1329.1	1.7
0.8502	298.13	15060	554	0.9
0.8502	298.13	20000	613.8	1
0.8502	298.13	24940	663.5	1
0.8502	298.13	30000	707.4	1
0.8502	298.13	35060	746.3	1
0.8502	298.13	40030	780.8	1.1
0.8502	298.13	45000	812.9	1.1
0.8502	298.13	50080	843	1.1
0.8502	298.13	54910	869.9	1.1
0.8502	298.13	59950	896.4	1.2
0.8502	298.13	65100	922	1.2
0.8502	298.13	69930	944.8	1.2
0.8502	298.13	75120	968.2	1.3
0.8502	298.13	79990	989	1.3
0.8502	298.13	89880	1029.2	1.3
0.8502	298.13	100010	1067.3	1.4
0.8502	298.13	109890	1102.7	1.4
0.8502	298.13	119500	1135.1	1.5
0.8502	298.13	140060	1198.2	1.5
0.8502	298.13	160550	1255.2	1.6
0.8502	298.13	178270	1301.3	1.7
0.8502	323.15	24960	549.5	0.8
0.8502	323.15	30020	602.8	0.9
0.8502	323.15	35100	648.9	0.9
0.8502	323.15	40050	688.4	1
0.8502	323.15	45010	724.5	1
0.8502	323.15	49920	757.3	1
0.8502	323.15	55040	788.7	1.1
0.8502	323.15	59980	817.2	1.1
0.8502	323.15	64840	843.5	1.1
0.8502	323.15	69880	869.3	1.1
0.8502	323.15	75110	894.6	1.2
0.8502	323.15	80180	918	1.2
0.8502	323.15	89680	959.3	1.2
0.8502	323.15	99900	1000.3	1.3
0.8502	323.15	109760	1037.3	1.3
0.8502	323.15	119510	1071.6	1.4
0.8502	323.15	139890	1137.2	1.5
0.925	263.13	7970	694.6	1
0.925	263.13	9990	715.1	1
0.925	263.13	14940	760.5	1.1
0.925	263.13	20000	800.7	1.1
0.925	263.13	24970	836	1.1
0.925	263.13	29990	868.4	1.2
0.925	263.13	34990	898.5	1.2
0.925	263.13	39950	926.1	1.2
0.925	263.13	44970	952.1	1.2
0.925	263.13	49970	977	1.3
0.925	263.13	54990	1000.3	1.3
0.925	263.13	59990	1022.6	1.3
0.925	263.13	64980	1043.7	1.3
0.925	263.13	69960	1063.9	1.4
0.925	263.13	74960	1083.5	1.4
0.925	263.13	80000	1102.6	1.4
0.925	263.13	90000	1138.2	1.5
0.925	263.13	99990	1171.5	1.5
0.925	263.13	109980	1203.2	1.5
0.925	263.13	119980	1233.2	1.6
0.925	263.13	129980	1261.7	1.6
0.925	263.13	139970	1288.8	1.6
0.925	263.13	149950	1315	1.7
0.925	263.13	159970	1340	1.7
0.925	263.13	170010	1364.1	1.7
0.925	263.13	180020	1387.5	1.8
0.925	263.13	190000	1409.9	1.8
0.925	263.13	7970	693.1	1
0.925	263.13	10000	714.3	1
0.925	263.13	14960	759.3	1.1
0.925	263.13	19990	799.6	1.1
0.925	263.13	24980	835.1	1.1
0.925	263.13	29960	867.4	1.2
0.925	263.13	35000	897.7	1.2
0.925	263.13	39970	925.5	1.2
0.925	263.13	44980	951.6	1.2
0.925	263.13	49970	976.2	1.3
0.925	263.13	54950	999.5	1.3
0.925	263.13	59950	1021.6	1.3
0.925	263.13	65000	1043	1.3
0.925	263.13	70000	1063.4	1.4
0.925	263.13	74960	1082.7	1.4
0.925	263.13	79980	1101.6	1.4
0.925	263.13	89990	1137.3	1.5
0.925	263.13	100000	1170.8	1.5
0.925	263.13	109970	1202.4	1.5
0.925	263.13	119950	1232.3	1.6
0.925	263.13	129990	1260.9	1.6
0.925	263.13	139980	1288.1	1.6
0.925	263.13	149970	1314.1	1.7
0.925	263.13	159980	1339.2	1.7
0.925	263.13	170040	1363.4	1.7
0.925	263.13	180000	1386.5	1.8
0.925	263.13	190010	1409	1.8
0.925	263.14	7970	694.8	1
0.925	263.14	10020	715.9	1
0.925	263.14	14990	761	1.1
0.925	263.14	20020	800.7	1.1
0.925	263.14	24990	836.3	1.1
0.925	263.14	30000	868.9	1.2
0.925	263.14	34980	898.5	1.2
0.925	263.14	39990	926.5	1.2
0.925	263.14	45030	952.7	1.2
0.925	263.14	49950	977.1	1.3
0.925	263.14	55010	1000.5	1.3
0.925	263.14	59950	1022.5	1.3
0.925	263.14	64970	1043.9	1.3
0.925	263.14	69990	1064.1	1.4
0.925	263.14	74970	1083.7	1.4
0.925	263.14	80000	1102.8	1.4
0.925	263.14	89950	1138.4	1.5
0.925	263.14	100000	1171.8	1.5
0.925	263.14	109980	1203.3	1.5
0.925	263.14	120000	1233.4	1.6
0.925	263.14	130000	1262	1.6
0.925	263.14	139980	1289.1	1.6
0.925	263.14	149950	1315.1	1.7
0.925	263.14	159960	1340.2	1.7
0.925	263.14	169980	1364.2	1.7
0.925	263.14	179990	1387.5	1.8
0.925	263.14	190020	1409.9	1.8
0.925	263.14	7970	695.2	1
0.925	263.14	9960	715.4	1
0.925	263.14	14950	760.8	1.1
0.925	263.14	19990	801	1.1
0.925	263.14	24970	836.4	1.1
0.925	263.14	29960	868.8	1.2
0.925	263.14	34950	898.5	1.2
0.925	263.14	39990	926.8	1.2
0.925	263.14	45040	952.8	1.2
0.925	263.14	49960	977.1	1.3
0.925	263.14	54980	1000.5	1.3
0.925	263.14	59970	1022.9	1.3
0.925	263.14	64970	1044.2	1.4
0.925	263.14	69950	1064.3	1.4
0.925	263.14	74990	1084.1	1.4
0.925	263.14	79990	1102.8	1.4
0.925	263.14	90020	1138.8	1.5
0.925	263.14	99980	1172.1	1.5
0.925	263.14	110000	1203.8	1.5
0.925	263.14	119980	1233.5	1.6
0.925	263.14	130010	1262.1	1.6
0.925	263.14	140010	1289.5	1.6
0.925	263.14	150000	1315.4	1.7
0.925	263.14	159950	1340.4	1.7
0.925	263.14	169960	1364.5	1.7
0.925	263.14	179970	1388	1.8
0.925	263.14	190000	1410.3	1.8
0.925	298.13	14980	537.1	1
0.925	298.13	19950	600.2	1
0.925	298.13	24970	651.7	1
0.925	298.13	29980	696.1	1
0.925	298.13	34990	735.2	1
0.925	298.13	39990	770.5	1
0.925	298.13	45020	803	1.1
0.925	298.13	49990	832.8	1.1
0.925	298.13	55000	860.7	1.1
0.925	298.13	60000	887	1.2
0.925	298.13	64960	911.8	1.2
0.925	298.13	69980	935.3	1.2
0.925	298.13	74960	957.7	1.2
0.925	298.13	79990	979.4	1.3
0.925	298.13	89960	1019.7	1.3
0.925	298.13	100040	1057.3	1.4
0.925	298.13	109950	1092.7	1.4
0.925	298.13	120000	1126	1.4
0.925	298.13	129970	1157.2	1.5
0.925	298.13	139990	1187.1	1.5
0.925	298.13	149950	1215.3	1.6
0.925	298.13	159990	1242.6	1.6
0.925	298.13	170010	1268.7	1.6
0.925	298.13	180020	1293.8	1.6
0.925	298.13	190010	1317.9	1.7
0.925	298.13	14990	536.5	1
0.925	298.13	20000	599.6	1
0.925	298.13	24990	651.3	1
0.925	298.13	30010	695.5	1
0.925	298.13	35020	734.8	1
0.925	298.13	39990	770.1	1
0.925	298.13	44980	802.5	1.1
0.925	298.13	49980	832.4	1.1
0.925	298.13	54950	860.2	1.1
0.925	298.13	59970	886.8	1.2
0.925	298.13	65010	911.9	1.2
0.925	298.13	69960	935.2	1.2
0.925	298.13	74970	957.9	1.2
0.925	298.13	79990	979.4	1.3
0.925	298.13	90000	1020	1.3
0.925	298.13	99990	1057.5	1.4
0.925	298.13	109990	1092.8	1.4
0.925	298.13	119990	1125.8	1.4
0.925	298.13	129960	1157.1	1.5
0.925	298.13	139980	1186.8	1.5
0.925	298.13	149990	1215.1	1.6
0.925	298.13	159980	1242.2	1.6
0.925	298.13	169990	1268.1	1.6
0.925	298.13	179990	1293.2	1.6
0.925	298.13	189940	1316.8	1.7
0.925	298.13	14970	538.3	1
0.925	298.13	20000	601.7	1
0.925	298.13	25000	652.9	1
0.925	298.13	29990	696.8	1
0.925	298.13	35000	736.1	1
0.925	298.13	39980	771.2	1
0.925	298.13	45000	803.5	1.1
0.925	298.13	50010	833.6	1.1
0.925	298.13	54940	860.9	1.1
0.925	298.13	60020	887.7	1.2
0.925	298.13	64950	912	1.2
0.925	298.13	69970	935.8	1.2
0.925	298.13	75000	958.5	1.2
0.925	298.13	79950	979.9	1.3
0.925	298.13	90000	1020.4	1.3
0.925	298.13	99970	1057.9	1.4
0.925	298.13	109990	1093.2	1.4
0.925	298.13	119930	1126	1.4
0.925	298.13	130000	1157.5	1.5
0.925	298.13	140030	1187.4	1.5
0.925	298.13	149960	1215.5	1.6
0.925	298.13	159970	1242.8	1.6
0.925	298.13	169980	1268.9	1.6
0.925	298.13	180060	1294.1	1.6
0.925	298.13	189970	1317.8	1.7
0.925	298.13	14990	539.1	1
0.925	298.13	19960	602.2	1
0.925	298.13	25000	653	1
0.925	298.13	29950	696.6	1
0.925	298.13	35000	736.1	1
0.925	298.13	40000	771.3	1
0.925	298.13	44960	802	1.1
0.925	298.13	49980	833.5	1.1
0.925	298.13	54970	861.2	1.1
0.925	298.13	60010	887.7	1.2
0.925	298.13	64990	912.4	1.2
0.925	298.13	70000	936	1.2
0.925	298.13	74970	958.4	1.2
0.925	298.13	79970	979.7	1.3
0.925	298.13	89980	1020.4	1.3
0.925	298.13	100010	1057.5	1.4
0.925	298.13	109980	1093.2	1.4
0.925	298.13	119960	1126.1	1.4
0.925	298.13	129970	1157.6	1.5
0.925	298.13	139980	1187.3	1.5
0.925	298.13	149950	1215.7	1.6
0.925	298.13	159960	1242.8	1.6
0.925	298.13	169970	1268.9	1.6
0.925	298.13	180020	1294	1.6
0.925	298.13	189950	1317.9	1.7
0.925	323.14	25000	537.5	0.8
0.925	323.14	29990	591.2	0.9
0.925	323.14	34990	637.5	0.9
0.925	323.14	39980	678	0.9
0.925	323.14	44980	714.6	1
0.925	323.14	49980	748.4	1
0.925	323.14	54980	779.1	1
0.925	323.14	59990	808.2	1.1
0.925	323.14	64970	835.2	1.1
0.925	323.14	69970	860.9	1.1
0.925	323.14	74990	885.2	1.2
0.925	323.14	80000	908.4	1.2
0.925	323.14	90000	951.8	1.2
0.925	323.14	99950	991.5	1.3
0.925	323.14	109990	1029	1.3
0.925	323.14	119990	1063.9	1.4
0.925	323.14	129960	1096.8	1.4
0.925	323.14	139990	1128	1.4
0.925	323.14	149960	1157.6	1.5
0.925	323.14	160010	1186	1.5
0.925	323.14	169980	1213.1	1.5
0.925	323.14	180000	1239.1	1.6
0.925	323.14	190000	1264.3	1.6
0.925	323.14	24960	536.3	0.9
0.925	323.14	29990	590.7	0.9
0.925	323.14	34960	636.5	0.9
0.925	323.14	39980	677.9	0.9
0.925	323.14	45000	714.7	1
0.925	323.14	49980	748.2	1
0.925	323.14	55000	779.3	1
0.925	323.14	59980	807.9	1.1
0.925	323.14	64970	835.3	1.1
0.925	323.14	69980	861	1.1
0.925	323.14	75000	885.4	1.2
0.925	323.14	79990	908.5	1.2
0.925	323.14	90000	952	1.2
0.925	323.14	100000	992.1	1.3
0.925	323.14	109980	1029.1	1.3
0.925	323.14	119970	1063.9	1.4
0.925	323.14	129990	1096.8	1.4
0.925	323.14	139960	1128	1.4
0.925	323.14	149980	1157.7	1.5
0.925	323.14	160000	1187	1.5
0.925	323.14	170010	1213.2	1.5
0.925	323.14	180100	1239.2	1.6
0.925	323.14	189980	1263.9	1.6
0.925	323.14	24980	537.5	0.8
0.925	323.14	29990	591.5	0.9
0.925	323.14	34960	637.2	0.9
0.925	323.14	40000	678.2	0.9
0.925	323.14	44980	714.8	1
0.925	323.14	49960	748	1
0.925	323.14	55010	779.4	1
0.925	323.14	59980	808.1	1.1
0.925	323.14	64990	835.4	1.1
0.925	323.14	69990	860.9	1.1
0.925	323.14	75060	885.5	1.2
0.925	323.14	79990	908.4	1.2
0.925	323.14	89990	951.7	1.2
0.925	323.14	100010	991.8	1.3
0.925	323.14	109960	1028.8	1.3
0.925	323.14	119970	1063.8	1.4
0.925	323.14	130020	1096.9	1.4
0.925	323.14	140000	1128.1	1.4
0.925	323.14	149990	1157.7	1.5
0.925	323.14	160050	1186.2	1.5
0.925	323.14	169940	1213.1	1.5
0.925	323.14	179960	1239.4	1.6
0.925	323.14	190050	1264.6	1.6
0.925	323.14	24960	537.4	0.8
0.925	323.14	29980	591.2	0.9
0.925	323.14	34980	637.4	0.9
0.925	323.14	39990	678.6	0.9
0.925	323.14	44980	714.8	1
0.925	323.14	50000	748.4	1
0.925	323.14	54960	779.2	1
0.925	323.14	60030	808.2	1.1
0.925	323.14	64970	835.1	1.1
0.925	323.14	69970	860.8	1.1
0.925	323.14	74950	885	1.2
0.925	323.14	79970	908.3	1.2
0.925	323.14	89990	951.7	1.2
0.925	323.14	100010	991.7	1.3
0.925	323.14	109980	1028.9	1.3
0.925	323.14	119990	1063.9	1.4
0.925	323.14	129980	1096.8	1.4
0.925	323.14	139990	1128.1	1.4
0.925	323.14	150010	1157.8	1.5
0.925	323.14	159990	1186.2	1.5
0.925	323.14	169980	1213.3	1.5
0.925	323.14	180000	1239.5	1.6
0.925	323.14	190010	1264.5	1.6
0.9803	263.18	14950	747.6	1
0.9803	263.18	34860	887.4	1.2
0.9803	263.18	39910	916.3	1.2
0.9803	263.18	44980	943.5	1.2
0.9803	263.18	50170	969	1.3
0.9803	263.18	55000	992.2	1.3
0.9803	263.18	60140	1015.5	1.3
0.9803	263.18	64760	1035.7	1.3
0.9803	263.18	70160	1058.2	1.4
0.9803	263.18	75410	1078.8	1.4
0.9803	263.18	79750	1095.2	1.4
0.9803	263.18	89940	1132.1	1.5
0.9803	263.18	99680	1165	1.5
0.9803	263.18	109950	1197.7	1.5
0.9803	263.18	120700	1230.1	1.6
0.9803	263.18	140780	1286.1	1.6
0.9803	263.18	160950	1337.6	1.7
0.9803	263.18	179550	1382.1	1.8
0.9803	298.14	44940	798	1.1
0.9803	298.14	50050	829.6	1.1
0.9803	298.14	54980	857.8	1.1
0.9803	298.14	60140	885.4	1.2
0.9803	298.14	64990	909.9	1.2
0.9803	298.14	70210	935	1.2
0.9803	298.14	75300	958.1	1.2
0.9803	298.14	80240	979.6	1.3
0.9803	298.14	89800	1018.7	1.3
0.9803	298.14	100450	1059.1	1.4
0.9803	298.14	109890	1092.5	1.4
0.9803	298.14	120160	1126.5	1.4
0.9803	298.14	130400	1158.4	1.5
0.9803	298.14	139810	1185.8	1.5
0.9803	298.14	150170	1215.7	1.6
0.9803	298.14	160470	1243.6	1.6
0.9803	323.16	69980	855.3	1.1
0.9803	323.16	74960	879.8	1.2
0.9803	323.16	79950	903.2	1.2
0.9803	323.16	89640	945.6	1.2
0.9803	323.16	99690	986.1	1.3
0.9803	323.16	110360	1025.6	1.3
0.9803	323.16	120030	1059.8	1.4
0.9803	323.16	129970	1092.5	1.4
0.9803	323.16	140230	1124.5	1.4
0.9803	323.16	150140	1153.8	1.5
0.97	263.16	3280	626.2	1
0.97	263.16	3800	633.5	1
0.97	263.16	5050	649.7	1
0.97	263.16	6020	661.8	1
0.97	263.16	6170	664.3	1
0.97	263.16	8100	687.5	1
0.97	263.16	10020	706.8	1
0.97	263.16	14960	752.4	1.1
0.97	263.16	19890	792.8	1.1
0.97	263.16	24920	829.4	1.1
0.97	263.16	29960	862.5	1.1
0.97	263.16	34890	892.6	1.2
0.97	263.16	39940	921	1.2
0.97	263.16	44890	947	1.2
0.97	263.16	49990	972.3	1.3
0.97	263.16	54910	995.6	1.3
0.97	263.16	60010	1018.3	1.3
0.97	263.16	65090	1039.8	1.3
0.97	263.16	69970	1059.9	1.4
0.97	263.16	75000	1079.5	1.4
0.97	263.16	80150	1098.9	1.4
0.97	263.16	90130	1134.4	1.5
0.97	263.16	100140	1168	1.5
0.97	263.16	110060	1199.3	1.5
0.97	263.16	119960	1228.9	1.6
0.97	263.16	140000	1284.7	1.6
0.97	263.16	159900	1335.8	1.7
0.97	263.16	179990	1383.3	1.8
0.97	263.16	194490	1415.5	1.8
0.97	273.15	5000	570.5	0.9
0.97	273.15	6020	581.6	1
0.97	273.15	6040	581	1
0.97	273.15	10000	634.7	1
0.97	273.15	14900	688.9	1
0.97	273.15	19910	735.5	1
0.97	273.15	24940	776.2	1.1
0.97	273.15	29980	812.6	1.1
0.97	273.15	35030	845.6	1.1
0.97	273.15	39990	875.6	1.2
0.97	273.15	44950	903.5	1.2
0.97	273.15	49960	929.9	1.2
0.97	273.15	54970	954.7	1.2
0.97	273.15	60000	978.4	1.3
0.97	273.15	64950	1000.7	1.3
0.97	273.15	69990	1022.2	1.3
0.97	273.15	74930	1042.5	1.3
0.97	273.15	80120	1062.9	1.4
0.97	273.15	90140	1100	1.4
0.97	273.15	99970	1134.2	1.5
0.97	273.15	110030	1167	1.5
0.97	273.15	120150	1198.3	1.5
0.97	273.15	139940	1255	1.6
0.97	273.15	159790	1307.2	1.7
0.97	273.15	180530	1357.4	1.7
0.97	283.14	14010	615.2	0.9
0.97	283.14	20000	679.8	1
0.97	283.14	25010	725	1
0.97	283.14	29940	763.8	1
0.97	283.14	34980	799.7	1.1
0.97	283.14	39940	831.8	1.1
0.97	283.14	45090	862.8	1.1
0.97	283.14	50150	890.9	1.2
0.97	283.14	55020	916.3	1.2
0.97	283.14	59830	940.2	1.2
0.97	283.14	64950	964.2	1.3
0.97	283.14	70150	987.4	1.3
0.97	283.14	74970	1007.9	1.3
0.97	283.14	79680	1027.1	1.3
0.97	283.14	90230	1067.9	1.4
0.97	283.14	99950	1102.7	1.4
0.97	283.14	109900	1136.3	1.5
0.97	283.14	120080	1168.8	1.5
0.97	283.14	140090	1227.7	1.6
0.97	283.14	159980	1281	1.6
0.97	283.14	180050	1330.2	1.7
0.97	293.13	20010	624.7	0.9
0.97	293.13	24930	674.5	1
0.97	293.13	29990	718.7	1
0.97	293.13	34940	755.3	1
0.97	293.13	39990	791.4	1.1
0.97	293.13	44940	822.9	1.1
0.97	293.13	49970	852.5	1.1
0.97	293.13	54900	879.8	1.2
0.97	293.13	59940	906	1.2
0.97	293.13	64950	930.5	1.2
0.97	293.13	69950	953.8	1.2
0.97	293.13	74980	976	1.3
0.97	293.13	80020	997.6	1.3
0.97	293.13	90010	1037.3	1.3
0.97	293.13	100010	1074.3	1.4
0.97	293.13	109950	1108.7	1.4
0.97	293.13	120040	1141.7	1.5
0.97	293.13	140050	1201.9	1.5
0.97	293.13	160040	1256.5	1.6
0.97	293.13	178780	1303.9	1.7
0.97	304.19	24950	621	0.9
0.97	304.19	29960	668.7	1
0.97	304.19	34880	709.6	1
0.97	304.19	39930	747.2	1
0.97	304.19	44970	781.3	1.1
0.97	304.19	50020	812.8	1.1
0.97	304.19	54970	841.5	1.1
0.97	304.19	59970	868.6	1.1
0.97	304.19	65100	894.9	1.2
0.97	304.19	70230	919.7	1.2
0.97	304.19	75540	944.1	1.2
0.97	304.19	79980	963.6	1.3
0.97	304.19	90070	1005.1	1.3
0.97	304.19	100040	1043.2	1.3
0.97	304.19	109900	1078.3	1.4
0.97	304.19	119960	1112.5	1.4
0.97	304.19	140090	1173.8	1.5
0.97	304.19	159770	1228.8	1.6
0.97	304.19	180450	1282	1.6
0.97	313.15	31890	648.6	0.9
0.97	313.15	34940	674.9	0.9
0.97	313.15	39990	714.5	1
0.97	313.15	44940	749.7	1
0.97	313.15	49940	782	1
0.97	313.15	54960	812.2	1.1
0.97	313.15	60140	841.3	1.1
0.97	313.15	65170	867.7	1.1
0.97	313.15	70010	891.8	1.2
0.97	313.15	75170	916.2	1.2
0.97	313.15	80060	938.2	1.2
0.97	313.15	90000	980.1	1.3
0.97	313.15	100110	1019.5	1.3
0.97	313.15	109900	1055.1	1.4
0.97	313.15	120040	1089.6	1.4
0.97	313.15	140110	1152.5	1.5
0.97	313.15	159960	1208.8	1.5
0.97	313.15	179840	1260.7	1.6

System: methanol + carbon dioxide; phases: Fluid (supercritical or subcritical phases)
Fixed: Mole fraction of carbon dioxide = 0.97
Property: Mass density, kg/m3 (Fluid (supercritical or subcritical phases)); method: Vibrating tube method
Pressure, kPa	Temperature, K	Mass density, kg/m3	uncertainty
20000	263.15	1052.99	0.8
19975	263.15	1052.91	0.8
19950	263.15	1052.83	0.8
19925	263.15	1052.75	0.8
19900	263.15	1052.67	0.8
19875	263.15	1052.59	0.8
19850	263.15	1052.5	0.8
19825	263.15	1052.45	0.8
19800	263.15	1052.34	0.8
19775	263.15	1052.28	0.8
19750	263.15	1052.26	0.8
19725	263.15	1052.13	0.8
19700	263.15	1052.08	0.8
19675	263.15	1052.02	0.8
19650	263.15	1051.89	0.8
19625	263.15	1051.83	0.8
19600	263.15	1051.77	0.8
19575	263.15	1051.69	0.8
19550	263.15	1051.58	0.8
19525	263.15	1051.53	0.8
19500	263.15	1051.45	0.8
19475	263.15	1051.35	0.8
19450	263.15	1051.29	0.8
19425	263.15	1051.21	0.8
19400	263.15	1051.12	0.8
19375	263.15	1051.04	0.8
19350	263.15	1050.96	0.8
19325	263.15	1050.88	0.8
19300	263.15	1050.8	0.8
19275	263.15	1050.72	0.8
19250	263.15	1050.63	0.8
19225	263.15	1050.56	0.8
19200	263.15	1050.47	0.8
19175	263.15	1050.39	0.8
19150	263.15	1050.31	0.8
19125	263.15	1050.23	0.8
19100	263.15	1050.15	0.8
19075	263.15	1050.07	0.8
19050	263.15	1049.99	0.8
19025	263.15	1049.91	0.8
19000	263.15	1049.82	0.8
18975	263.15	1049.74	0.8
18950	263.15	1049.66	0.8
18925	263.15	1049.58	0.8
18900	263.15	1049.5	0.8
18875	263.15	1049.42	0.8
18850	263.15	1049.34	0.8
18825	263.15	1049.09	0.8
18800	263.15	1049.06	0.8
18775	263.15	1048.93	0.8
18750	263.15	1048.93	0.8
18725	263.15	1048.85	0.8
18700	263.15	1048.83	0.8
18675	263.15	1048.74	0.8
18650	263.15	1048.64	0.8
18625	263.15	1048.58	0.8
18600	263.15	1048.53	0.8
18575	263.15	1048.43	0.8
18550	263.15	1048.31	0.8
18525	263.15	1048.28	0.8
18500	263.15	1048.2	0.8
18475	263.15	1048.11	0.8
18450	263.15	1048.04	0.8
18425	263.15	1047.96	0.8
18400	263.15	1047.88	0.8
18375	263.15	1047.82	0.8
18350	263.15	1047.75	0.8
18325	263.15	1047.69	0.8
18300	263.15	1047.62	0.8
18275	263.15	1047.55	0.8
18250	263.15	1047.47	0.8
18225	263.15	1047.37	0.8
18200	263.15	1047.31	0.8
18175	263.15	1047.23	0.8
18150	263.15	1047.15	0.8
18125	263.15	1047.07	0.8
18100	263.15	1046.98	0.8
18075	263.15	1046.9	0.8
18050	263.15	1046.85	0.8
18025	263.15	1046.79	0.8
18000	263.15	1046.66	0.8
17975	263.15	1046.58	0.8
17950	263.15	1046.51	0.8
17925	263.15	1046.44	0.8
17900	263.15	1046.37	0.8
17875	263.15	1046.32	0.8
17850	263.15	1046.26	0.8
17825	263.15	1046.11	0.8
17800	263.15	1046.04	0.8
17775	263.15	1045.97	0.8
17750	263.15	1045.89	0.8
17725	263.15	1045.81	0.8
17700	263.15	1045.77	0.8
17675	263.15	1045.69	0.8
17650	263.15	1045.61	0.8
17625	263.15	1045.52	0.8
17600	263.15	1045.44	0.8
17575	263.15	1045.33	0.8
17550	263.15	1045.28	0.8
17525	263.15	1045.2	0.8
17500	263.15	1045.12	0.8
17475	263.15	1045.04	0.8
17450	263.15	1044.94	0.8
17425	263.15	1044.87	0.8
17400	263.15	1044.79	0.8
17375	263.15	1044.71	0.8
17350	263.15	1044.63	0.8
17325	263.15	1044.55	0.8
17300	263.15	1044.44	0.8
17275	263.15	1044.39	0.8
17250	263.15	1044.31	0.8
17225	263.15	1044.22	0.8
17200	263.15	1044.14	0.8
17175	263.15	1044.06	0.8
17150	263.15	1043.98	0.8
17125	263.15	1043.9	0.8
17100	263.15	1043.82	0.8
17075	263.15	1043.74	0.8
17050	263.15	1043.64	0.8
17025	263.15	1043.57	0.8
17000	263.15	1043.49	0.8
16975	263.15	1043.4	0.8
16950	263.15	1043.33	0.8
16925	263.15	1043.24	0.8
16900	263.15	1043.17	0.8
16875	263.15	1043.08	0.8
16850	263.15	1043.01	0.8
16825	263.15	1042.91	0.8
16800	263.15	1042.82	0.8
16775	263.15	1042.75	0.8
16750	263.15	1042.68	0.8
16725	263.15	1042.57	0.8
16700	263.15	1042.51	0.8
16675	263.15	1042.38	0.8
16650	263.15	1042.33	0.8
16625	263.15	1042.27	0.8
16600	263.15	1042.19	0.8
16575	263.15	1042.08	0.8
16550	263.15	1041.95	0.8
16525	263.15	1041.91	0.8
16500	263.15	1041.79	0.8
16475	263.15	1041.72	0.8
16450	263.15	1041.66	0.8
16425	263.15	1041.59	0.8
16400	263.15	1041.46	0.8
16375	263.15	1041.38	0.8
16350	263.15	1041.32	0.8
16325	263.15	1041.25	0.8
16300	263.15	1041.16	0.8
16275	263.15	1041.05	0.8
16250	263.15	1040.97	0.8
16225	263.15	1040.89	0.8
16200	263.15	1040.81	0.8
16175	263.15	1040.73	0.8
16150	263.15	1040.65	0.8
16125	263.15	1040.57	0.8
16100	263.15	1040.49	0.8
16075	263.15	1040.4	0.8
16050	263.15	1040.31	0.8
16025	263.15	1040.2	0.8
16000	263.15	1040.16	0.8
15975	263.15	1040.06	0.8
15950	263.15	1039.97	0.8
15925	263.15	1039.88	0.8
15900	263.15	1039.79	0.8
15875	263.15	1039.7	0.8
15850	263.15	1039.61	0.8
15825	263.15	1039.51	0.8
15800	263.15	1039.43	0.8
15775	263.15	1039.35	0.8
15750	263.15	1039.26	0.8
15725	263.15	1039.19	0.8
15700	263.15	1039.1	0.8
15675	263.15	1039.02	0.8
15650	263.15	1038.94	0.8
15625	263.15	1038.86	0.8
15600	263.15	1038.78	0.8
15575	263.15	1038.7	0.8
15550	263.15	1038.61	0.8
15525	263.15	1038.53	0.8
15500	263.15	1038.45	0.8
15475	263.15	1038.37	0.8
15450	263.15	1038.28	0.8
15425	263.15	1038.19	0.8
15400	263.15	1038.07	0.8
15375	263.15	1038.01	0.8
15350	263.15	1037.91	0.8
15325	263.15	1037.8	0.8
15300	263.15	1037.72	0.8
15275	263.15	1037.66	0.8
15250	263.15	1037.56	0.8
15225	263.15	1037.5	0.8
15200	263.15	1037.39	0.8
15175	263.15	1037.31	0.8
15150	263.15	1037.23	0.8
15125	263.15	1037.15	0.8
15100	263.15	1037.07	0.8
15075	263.15	1036.96	0.8
15050	263.15	1036.9	0.8
15025	263.15	1036.78	0.8
15000	263.15	1036.74	0.8
14975	263.15	1036.63	0.8
14950	263.15	1036.51	0.8
14925	263.15	1036.42	0.8
14900	263.15	1036.34	0.8
14875	263.15	1036.25	0.8
14850	263.15	1036.17	0.8
14825	263.15	1036.09	0.8
14800	263.15	1036.01	0.8
14775	263.15	1035.93	0.8
14750	263.15	1035.83	0.8
14725	263.15	1035.77	0.8
14700	263.15	1035.62	0.8
14675	263.15	1035.52	0.8
14650	263.15	1035.44	0.8
14625	263.15	1035.36	0.8
14600	263.15	1035.28	0.8
14575	263.15	1035.19	0.8
14550	263.15	1035.11	0.8
14525	263.15	1035.03	0.8
14500	263.15	1034.95	0.8
14475	263.15	1034.86	0.8
14450	263.15	1034.7	0.8
14425	263.15	1034.62	0.8
14400	263.15	1034.54	0.8
14375	263.15	1034.46	0.8
14350	263.15	1034.38	0.8
14325	263.15	1034.3	0.8
14300	263.15	1034.22	0.8
14275	263.15	1034.13	0.8
14250	263.15	1033.97	0.8
14225	263.15	1033.9	0.8
14200	263.15	1033.81	0.8
14175	263.15	1033.73	0.8
14150	263.15	1033.65	0.8
14125	263.15	1033.57	0.8
14100	263.15	1033.48	0.8
14075	263.15	1033.38	0.8
14050	263.15	1033.24	0.8
14025	263.15	1033.16	0.8
14000	263.15	1033.08	0.8
13975	263.15	1032.99	0.8
13950	263.15	1032.91	0.8
13925	263.15	1032.83	0.8
13900	263.15	1032.75	0.8
13875	263.15	1032.61	0.8
13850	263.15	1032.53	0.8
13825	263.15	1032.42	0.8
13800	263.15	1032.34	0.8
13775	263.15	1032.26	0.8
13750	263.15	1032.18	0.8
13725	263.15	1032.1	0.8
13700	263.15	1031.97	0.8
13675	263.15	1031.94	0.8
13650	263.15	1031.77	0.8
13625	263.15	1031.69	0.8
13600	263.15	1031.61	0.8
13575	263.15	1031.53	0.8
13550	263.15	1031.45	0.8
13525	263.15	1031.37	0.8
13500	263.15	1031.29	0.8
13475	263.15	1031.14	0.8
13450	263.15	1031.04	0.8
13425	263.15	1030.96	0.8
13400	263.15	1030.88	0.8
13375	263.15	1030.8	0.8
13350	263.15	1030.71	0.8
13325	263.15	1030.63	0.8
13300	263.15	1030.53	0.8
13275	263.15	1030.39	0.8
13250	263.15	1030.31	0.8
13225	263.15	1030.22	0.8
13200	263.15	1030.14	0.8
13175	263.15	1030.06	0.8
13150	263.15	1029.94	0.8
13125	263.15	1029.88	0.8
13100	263.15	1029.73	0.8
13075	263.15	1029.65	0.8
13050	263.15	1029.57	0.8
13025	263.15	1029.49	0.8
13000	263.15	1029.41	0.8
12975	263.15	1029.3	0.8
12950	263.15	1029.2	0.8
12925	263.15	1029.08	0.8
12900	263.15	1029	0.8
12875	263.15	1028.92	0.8
12850	263.15	1028.84	0.8
12825	263.15	1028.76	0.8
12800	263.15	1028.6	0.8
12775	263.15	1028.51	0.8
12750	263.15	1028.43	0.8
12725	263.15	1028.35	0.8
12700	263.15	1028.27	0.8
12675	263.15	1028.19	0.8
12650	263.15	1028.09	0.8
12625	263.15	1027.96	0.8
12600	263.15	1027.86	0.8
12575	263.15	1027.78	0.8
12550	263.15	1027.7	0.8
12525	263.15	1027.62	0.8
12500	263.15	1027.53	0.8
12475	263.15	1027.38	0.8
12450	263.15	1027.29	0.8
12425	263.15	1027.21	0.8
12400	263.15	1027.13	0.8
12375	263.15	1027.05	0.8
12350	263.15	1026.96	0.8
12325	263.15	1026.88	0.8
12300	263.15	1026.72	0.8
12275	263.15	1026.64	0.8
12250	263.15	1026.56	0.8
12225	263.15	1026.47	0.8
12200	263.15	1026.39	0.8
12175	263.15	1026.31	0.8
12150	263.15	1026.15	0.8
12125	263.15	1026.07	0.8
12100	263.15	1025.98	0.8
12075	263.15	1025.9	0.8
12050	263.15	1025.75	0.8
12025	263.15	1025.66	0.8
12000	263.15	1025.58	0.8
11975	263.15	1025.5	0.8
11950	263.15	1025.41	0.8
11925	263.15	1025.29	0.8
11900	263.15	1025.19	0.8
11875	263.15	1025.09	0.8
11850	263.15	1025.01	0.8
11825	263.15	1024.93	0.8
11800	263.15	1024.84	0.8
11775	263.15	1024.74	0.8
11750	263.15	1024.6	0.8
11725	263.15	1024.52	0.8
11700	263.15	1024.44	0.8
11675	263.15	1024.35	0.8
11650	263.15	1024.21	0.8
11625	263.15	1024.11	0.8
11600	263.15	1024.03	0.8
11575	263.15	1023.95	0.8
11550	263.15	1023.86	0.8
11525	263.15	1023.75	0.8
11500	263.15	1023.62	0.8
11475	263.15	1023.54	0.8
11450	263.15	1023.46	0.8
11425	263.15	1023.38	0.8
11400	263.15	1023.29	0.8
11375	263.15	1023.13	0.8
11350	263.15	1023.05	0.8
11325	263.15	1022.97	0.8
11300	263.15	1022.89	0.8
11275	263.15	1022.8	0.8
11250	263.15	1022.64	0.8
11225	263.15	1022.56	0.8
11200	263.15	1022.48	0.8
11175	263.15	1022.4	0.8
11150	263.15	1022.29	0.8
11125	263.15	1022.15	0.8
11100	263.15	1022.07	0.8
11075	263.15	1021.99	0.8
11050	263.15	1021.91	0.8
11025	263.15	1021.83	0.8
11000	263.15	1021.66	0.8
10975	263.15	1021.58	0.8
10950	263.15	1021.5	0.8
10925	263.15	1021.42	0.8
10900	263.15	1021.25	0.8
10875	263.15	1021.17	0.8
10850	263.15	1021.09	0.8
10825	263.15	1021.01	0.8
10800	263.15	1020.93	0.8
10775	263.15	1020.76	0.8
10750	263.15	1020.68	0.8
10725	263.15	1020.6	0.8
10700	263.15	1020.52	0.8
10675	263.15	1020.44	0.8
10650	263.15	1020.27	0.8
10625	263.15	1020.19	0.8
10600	263.15	1020.11	0.8
10575	263.15	1020.02	0.8
10550	263.15	1019.87	0.8
10525	263.15	1019.78	0.8
10500	263.15	1019.7	0.8
10475	263.15	1019.62	0.8
10450	263.15	1019.46	0.8
10425	263.15	1019.38	0.8
10400	263.15	1019.3	0.8
10375	263.15	1019.21	0.8
10350	263.15	1019.09	0.8
10325	263.15	1018.97	0.8
10300	263.15	1018.89	0.8
10275	263.15	1018.81	0.8
10250	263.15	1018.68	0.8
10225	263.15	1018.56	0.8
10200	263.15	1018.48	0.8
10175	263.15	1018.34	0.8
10150	263.15	1018.23	0.8
10125	263.15	1018.15	0.8
10100	263.15	1018.07	0.8
10075	263.15	1017.99	0.8
10050	263.15	1017.83	0.8
10025	263.15	1017.74	0.8
10000	263.15	1017.66	0.8
9975	263.15	1017.58	0.8
9950	263.15	1017.47	0.8
9925	263.15	1017.34	0.8
9900	263.15	1017.25	0.8
9875	263.15	1017.17	0.8
9850	263.15	1017.01	0.8
9825	263.15	1016.93	0.8
9800	263.15	1016.85	0.8
9775	263.15	1016.77	0.8
9750	263.15	1016.6	0.8
9725	263.15	1016.52	0.8
9700	263.15	1016.44	0.8
9675	263.15	1016.28	0.8
9650	263.15	1016.19	0.8
9625	263.15	1016.11	0.8
9600	263.15	1016.03	0.8
9575	263.15	1015.87	0.8
9550	263.15	1015.78	0.8
9525	263.15	1015.7	0.8
9500	263.15	1015.54	0.8
9475	263.15	1015.46	0.8
9450	263.15	1015.38	0.8
9425	263.15	1015.3	0.8
9400	263.15	1015.13	0.8
9375	263.15	1015.05	0.8
9350	263.15	1014.97	0.8
9325	263.15	1014.89	0.8
9300	263.15	1014.72	0.8
9275	263.15	1014.64	0.8
9250	263.15	1014.56	0.8
9225	263.15	1014.39	0.8
9200	263.15	1014.31	0.8
9175	263.15	1014.23	0.8
9150	263.15	1014.08	0.8
9125	263.15	1013.99	0.8
9100	263.15	1013.91	0.8
9075	263.15	1013.83	0.8
9050	263.15	1013.66	0.8
9025	263.15	1013.58	0.8
9000	263.15	1013.49	0.8
8975	263.15	1013.35	0.8
8950	263.15	1013.25	0.8
8925	263.15	1013.17	0.8
8900	263.15	1013.03	0.8
8875	263.15	1012.93	0.8
8850	263.15	1012.85	0.8
8825	263.15	1012.76	0.8
8800	263.15	1012.6	0.8
8775	263.15	1012.52	0.8
8750	263.15	1012.41	0.8
8725	263.15	1012.27	0.8
8700	263.15	1012.19	0.8
8675	263.15	1012.05	0.8
8650	263.15	1011.94	0.8
8625	263.15	1011.86	0.8
8600	263.15	1011.73	0.8
8575	263.15	1011.62	0.8
8550	263.15	1011.54	0.8
8525	263.15	1011.44	0.8
8500	263.15	1011.29	0.8
8475	263.15	1011.21	0.8
8450	263.15	1011.04	0.8
8425	263.15	1010.96	0.8
8400	263.15	1010.88	0.8
8375	263.15	1010.74	0.8
8350	263.15	1010.64	0.8
8325	263.15	1010.56	0.8
8300	263.15	1010.39	0.8
8275	263.15	1010.31	0.8
8250	263.15	1010.23	0.8
8225	263.15	1010.06	0.8
8200	263.15	1009.98	0.8
8175	263.15	1009.86	0.8
8150	263.15	1009.74	0.8
8125	263.15	1009.66	0.8
8100	263.15	1009.54	0.8
8075	263.15	1009.41	0.8
8050	263.15	1009.33	0.8
8025	263.15	1009.16	0.8
8000	263.15	1009.08	0.8
7975	263.15	1009	0.8
7950	263.15	1008.84	0.8
7925	263.15	1008.76	0.8
7900	263.15	1008.68	0.8
7875	263.15	1008.51	0.8
7850	263.15	1008.43	0.8
7825	263.15	1008.35	0.8
7800	263.15	1008.18	0.8
7775	263.15	1008.1	0.8
7750	263.15	1007.94	0.8
7725	263.15	1007.86	0.8
7700	263.15	1007.76	0.8
7675	263.15	1007.61	0.8
7650	263.15	1007.53	0.8
7625	263.15	1007.38	0.8
7600	263.15	1007.28	0.8
7575	263.15	1007.2	0.8
7550	263.15	1007.04	0.8
7525	263.15	1006.96	0.8
7500	263.15	1006.79	0.8
7475	263.15	1006.71	0.8
7450	263.15	1006.63	0.8
7425	263.15	1006.47	0.8
7400	263.15	1006.39	0.8
7375	263.15	1006.29	0.8
7350	263.15	1006.14	0.8
7325	263.15	1006.06	0.8
7300	263.15	1005.9	0.8
7275	263.15	1005.81	0.8
7250	263.15	1005.73	0.8
7225	263.15	1005.57	0.8
7200	263.15	1005.49	0.8
7175	263.15	1005.38	0.8
7150	263.15	1005.24	0.8
7125	263.15	1005.16	0.8
7100	263.15	1004.99	0.8
7075	263.15	1004.91	0.8
7050	263.15	1004.82	0.8
7025	263.15	1004.67	0.8
7000	263.15	1004.59	0.8
6975	263.15	1004.42	0.8
6950	263.15	1004.34	0.8
6925	263.15	1004.25	0.8
6900	263.15	1004.09	0.8
6875	263.15	1004.01	0.8
6850	263.15	1003.85	0.8
6825	263.15	1003.77	0.8
6800	263.15	1003.6	0.8
6775	263.15	1003.52	0.8
6750	263.15	1003.36	0.8
6725	263.15	1003.28	0.8
6700	263.15	1003.2	0.8
6675	263.15	1003.03	0.8
6650	263.15	1002.95	0.8
6625	263.15	1002.79	0.8
6600	263.15	1002.7	0.8
6575	263.15	1002.54	0.8
6550	263.15	1002.46	0.8
6525	263.15	1002.29	0.8
6500	263.15	1002.21	0.8
6475	263.15	1002.05	0.8
6450	263.15	1001.97	0.8
6425	263.15	1001.82	0.8
6400	263.15	1001.72	0.8
6375	263.15	1001.64	0.8
6350	263.15	1001.48	0.8
6325	263.15	1001.39	0.8
6300	263.15	1001.23	0.8
6275	263.15	1001.15	0.8
6250	263.15	1000.98	0.8
6225	263.15	1000.9	0.8
6200	263.15	1000.79	0.8
6175	263.15	1000.66	0.8
6150	263.15	1000.58	0.8
6125	263.15	1000.41	0.8
6100	263.15	1000.33	0.8
6075	263.15	1000.17	0.8
6050	263.15	1000.09	0.8
6025	263.15	999.92	0.8
6000	263.15	999.84	0.8
5975	263.15	999.68	0.8
5950	263.15	999.59	0.8
5925	263.15	999.43	0.8
5900	263.15	999.35	0.8
5875	263.15	999.18	0.8
5850	263.15	999.1	0.8
5825	263.15	998.94	0.8
5800	263.15	998.86	0.8
5775	263.15	998.69	0.8
5750	263.15	998.61	0.8
5725	263.15	998.52	0.8
5700	263.15	998.37	0.8
5675	263.15	998.2	0.8
5650	263.15	998.12	0.8
5625	263.15	997.96	0.8
5600	263.15	997.87	0.8
5575	263.15	997.71	0.8
5550	263.15	997.63	0.8
5525	263.15	997.46	0.8
5500	263.15	997.38	0.8
5475	263.15	997.22	0.8
5450	263.15	997.14	0.8
5425	263.15	996.97	0.8
5400	263.15	996.89	0.8
5375	263.15	996.73	0.8
5350	263.15	996.65	0.8
5325	263.15	996.48	0.8
5300	263.15	996.4	0.8
5275	263.15	996.24	0.8
5250	263.15	996.15	0.8
5225	263.15	995.99	0.8
5200	263.15	995.91	0.8
5175	263.15	995.74	0.8
5150	263.15	995.58	0.8
5125	263.15	995.5	0.8
5100	263.15	995.34	0.8
5075	263.15	995.25	0.8
5050	263.15	995.09	0.8
5025	263.15	995.01	0.8
5000	263.15	994.84	0.8
4975	263.15	994.76	0.8
4950	263.15	994.6	0.8
4925	263.15	994.43	0.8
4900	263.15	994.35	0.8
4875	263.15	994.19	0.8
4850	263.15	994.11	0.8
4825	263.15	993.94	0.8
4800	263.15	993.78	0.8
4775	263.15	993.7	0.8
4750	263.15	993.53	0.8
4725	263.15	993.45	0.8
4700	263.15	993.29	0.8
4675	263.15	993.21	0.8
4650	263.15	993.04	0.8
4625	263.15	992.88	0.8
4600	263.15	992.8	0.8
4575	263.15	992.63	0.8
4550	263.15	992.55	0.8
4525	263.15	992.39	0.8
4500	263.15	992.26	0.8
4475	263.15	992.14	0.8
4450	263.15	992.03	0.8
4425	263.15	991.89	0.8
4400	263.15	991.73	0.8
4375	263.15	991.65	0.8
4350	263.15	991.48	0.8
4325	263.15	991.32	0.8
4300	263.15	991.18	0.8
4275	263.15	991.06	0.8
4250	263.15	990.91	0.8
4225	263.15	990.83	0.8
4200	263.15	990.66	0.8
4175	263.15	990.57	0.8
4150	263.15	990.42	0.8
4125	263.15	990.27	0.8
4100	263.15	990.09	0.8
4075	263.15	990.12	0.8
4050	263.15	990.17	0.8
4025	263.15	990.23	0.8
4000	263.15	989.7	0.8
20000	273.15	1015.77	0.8
19975	273.15	1015.7	0.8
19950	273.15	1015.6	0.8
19925	273.15	1015.5	0.8
19900	273.15	1015.41	0.8
19875	273.15	1015.31	0.8
19850	273.15	1015.29	0.8
19825	273.15	1015.19	0.8
19800	273.15	1015.08	0.8
19775	273.15	1014.98	0.8
19750	273.15	1014.88	0.8
19725	273.15	1014.86	0.8
19700	273.15	1014.76	0.8
19675	273.15	1014.66	0.8
19650	273.15	1014.56	0.8
19625	273.15	1014.47	0.8
19600	273.15	1014.44	0.8
19575	273.15	1014.34	0.8
19550	273.15	1014.24	0.8
19525	273.15	1014.15	0.8
19500	273.15	1014.05	0.8
19475	273.15	1013.95	0.8
19450	273.15	1013.91	0.8
19425	273.15	1013.82	0.8
19400	273.15	1013.72	0.8
19375	273.15	1013.61	0.8
19350	273.15	1013.58	0.8
19325	273.15	1013.48	0.8
19300	273.15	1013.37	0.8
19275	273.15	1013.27	0.8
19250	273.15	1013.25	0.8
19225	273.15	1013.15	0.8
19200	273.15	1013.04	0.8
19175	273.15	1012.93	0.8
19150	273.15	1012.83	0.8
19125	273.15	1012.77	0.8
19100	273.15	1012.7	0.8
19075	273.15	1012.6	0.8
19050	273.15	1012.49	0.8
19025	273.15	1012.45	0.8
19000	273.15	1012.37	0.8
18975	273.15	1012.26	0.8
18950	273.15	1012.15	0.8
18925	273.15	1012.05	0.8
18900	273.15	1011.94	0.8
18875	273.15	1011.88	0.8
18850	273.15	1011.81	0.8
18825	273.15	1011.7	0.8
18800	273.15	1011.59	0.8
18775	273.15	1011.49	0.8
18750	273.15	1011.46	0.8
18725	273.15	1011.35	0.8
18700	273.15	1011.25	0.8
18675	273.15	1011.15	0.8
18650	273.15	1011.1	0.8
18625	273.15	1010.99	0.8
18600	273.15	1010.88	0.8
18575	273.15	1010.82	0.8
18550	273.15	1010.7	0.8
18525	273.15	1010.58	0.8
18500	273.15	1010.52	0.8
18475	273.15	1010.41	0.8
18450	273.15	1010.33	0.8
18425	273.15	1010.26	0.8
18400	273.15	1010.15	0.8
18375	273.15	1010.03	0.8
18350	273.15	1009.93	0.8
18325	273.15	1009.88	0.8
18300	273.15	1009.76	0.8
18275	273.15	1009.68	0.8
18250	273.15	1009.61	0.8
18225	273.15	1009.49	0.8
18200	273.15	1009.44	0.8
18175	273.15	1009.33	0.8
18150	273.15	1009.21	0.8
18125	273.15	1009.17	0.8
18100	273.15	1009.05	0.8
18075	273.15	1008.93	0.8
18050	273.15	1008.81	0.8
18025	273.15	1008.76	0.8
18000	273.15	1008.63	0.8
17975	273.15	1008.58	0.8
17950	273.15	1008.47	0.8
17925	273.15	1008.41	0.8
17900	273.15	1008.28	0.8
17875	273.15	1008.22	0.8
17850	273.15	1008.1	0.8
17825	273.15	1008.05	0.8
17800	273.15	1007.92	0.8
17775	273.15	1007.82	0.8
17750	273.15	1007.74	0.8
17725	273.15	1007.61	0.8
17700	273.15	1007.56	0.8
17675	273.15	1007.42	0.8
17650	273.15	1007.37	0.8
17625	273.15	1007.24	0.8
17600	273.15	1007.11	0.8
17575	273.15	1007.06	0.8
17550	273.15	1006.92	0.8
17525	273.15	1006.86	0.8
17500	273.15	1006.76	0.8
17475	273.15	1006.68	0.8
17450	273.15	1006.55	0.8
17425	273.15	1006.5	0.8
17400	273.15	1006.36	0.8
17375	273.15	1006.3	0.8
17350	273.15	1006.19	0.8
17325	273.15	1006.1	0.8
17300	273.15	1006.03	0.8
17275	273.15	1005.9	0.8
17250	273.15	1005.78	0.8
17225	273.15	1005.7	0.8
17200	273.15	1005.63	0.8
17175	273.15	1005.49	0.8
17150	273.15	1005.42	0.8
17125	273.15	1005.3	0.8
17100	273.15	1005.21	0.8
17075	273.15	1005.11	0.8
17050	273.15	1005.04	0.8
17025	273.15	1004.89	0.8
17000	273.15	1004.82	0.8
16975	273.15	1004.73	0.8
16950	273.15	1004.6	0.8
16925	273.15	1004.53	0.8
16900	273.15	1004.4	0.8
16875	273.15	1004.31	0.8
16850	273.15	1004.25	0.8
16825	273.15	1004.09	0.8
16800	273.15	1004.01	0.8
16775	273.15	1003.93	0.8
16750	273.15	1003.86	0.8
16725	273.15	1003.75	0.8
16700	273.15	1003.63	0.8
16675	273.15	1003.55	0.8
16650	273.15	1003.43	0.8
16625	273.15	1003.31	0.8
16600	273.15	1003.23	0.8
16575	273.15	1003.15	0.8
16550	273.15	1003.07	0.8
16525	273.15	1002.92	0.8
16500	273.15	1002.82	0.8
16475	273.15	1002.73	0.8
16450	273.15	1002.64	0.8
16425	273.15	1002.55	0.8
16400	273.15	1002.44	0.8
16375	273.15	1002.35	0.8
16350	273.15	1002.26	0.8
16325	273.15	1002.16	0.8
16300	273.15	1002.05	0.8
16275	273.15	1001.95	0.8
16250	273.15	1001.84	0.8
16225	273.15	1001.73	0.8
16200	273.15	1001.64	0.8
16175	273.15	1001.55	0.8
16150	273.15	1001.44	0.8
16125	273.15	1001.34	0.8
16100	273.15	1001.23	0.8
16075	273.15	1001.14	0.8
16050	273.15	1001.03	0.8
16025	273.15	1000.92	0.8
16000	273.15	1000.82	0.8
15975	273.15	1000.74	0.8
15950	273.15	1000.59	0.8
15925	273.15	1000.5	0.8
15900	273.15	1000.44	0.8
15875	273.15	1000.33	0.8
15850	273.15	1000.25	0.8
15825	273.15	1000.09	0.8
15800	273.15	1000.03	0.8
15775	273.15	999.93	0.8
15750	273.15	999.85	0.8
15725	273.15	999.76	0.8
15700	273.15	999.63	0.8
15675	273.15	999.52	0.8
15650	273.15	999.41	0.8
15625	273.15	999.34	0.8
15600	273.15	999.22	0.8
15575	273.15	999.11	0.8
15550	273.15	999.03	0.8
15525	273.15	998.89	0.8
15500	273.15	998.79	0.8
15475	273.15	998.71	0.8
15450	273.15	998.63	0.8
15425	273.15	998.5	0.8
15400	273.15	998.38	0.8
15375	273.15	998.3	0.8
15350	273.15	998.19	0.8
15325	273.15	998.14	0.8
15300	273.15	997.98	0.8
15275	273.15	997.89	0.8
15250	273.15	997.8	0.8
15225	273.15	997.66	0.8
15200	273.15	997.57	0.8
15175	273.15	997.49	0.8
15150	273.15	997.37	0.8
15125	273.15	997.24	0.8
15100	273.15	997.16	0.8
15075	273.15	997.08	0.8
15050	273.15	996.94	0.8
15025	273.15	996.84	0.8
15000	273.15	996.75	0.8
14975	273.15	996.65	0.8
14950	273.15	996.51	0.8
14925	273.15	996.43	0.8
14900	273.15	996.34	0.8
14875	273.15	996.27	0.8
14850	273.15	996.12	0.8
14825	273.15	996.02	0.8
14800	273.15	995.94	0.8
14775	273.15	995.81	0.8
14750	273.15	995.7	0.8
14725	273.15	995.62	0.8
14700	273.15	995.5	0.8
14675	273.15	995.37	0.8
14650	273.15	995.29	0.8
14625	273.15	995.18	0.8
14600	273.15	995.07	0.8
14575	273.15	994.96	0.8
14550	273.15	994.85	0.8
14525	273.15	994.75	0.8
14500	273.15	994.65	0.8
14475	273.15	994.54	0.8
14450	273.15	994.42	0.8
14425	273.15	994.35	0.8
14400	273.15	994.23	0.8
14375	273.15	994.12	0.8
14350	273.15	994	0.8
14325	273.15	993.9	0.8
14300	273.15	993.82	0.8
14275	273.15	993.7	0.8
14250	273.15	993.58	0.8
14225	273.15	993.5	0.8
14200	273.15	993.38	0.8
14175	273.15	993.26	0.8
14150	273.15	993.17	0.8
14125	273.15	993.06	0.8
14100	273.15	992.93	0.8
14075	273.15	992.85	0.8
14050	273.15	992.7	0.8
14025	273.15	992.6	0.8
14000	273.15	992.52	0.8
13975	273.15	992.38	0.8
13950	273.15	992.27	0.8
13925	273.15	992.19	0.8
13900	273.15	992.09	0.8
13875	273.15	991.95	0.8
13850	273.15	991.87	0.8
13825	273.15	991.75	0.8
13800	273.15	991.62	0.8
13775	273.15	991.51	0.8
13750	273.15	991.4	0.8
13725	273.15	991.3	0.8
13700	273.15	991.22	0.8
13675	273.15	991.05	0.8
13650	273.15	990.97	0.8
13625	273.15	990.86	0.8
13600	273.15	990.73	0.8
13575	273.15	990.65	0.8
13550	273.15	990.48	0.8
13525	273.15	990.4	0.8
13500	273.15	990.32	0.8
13475	273.15	990.16	0.8
13450	273.15	990.07	0.8
13425	273.15	989.98	0.8
13400	273.15	989.83	0.8
13375	273.15	989.75	0.8
13350	273.15	989.67	0.8
13325	273.15	989.5	0.8
13300	273.15	989.42	0.8
13275	273.15	989.28	0.8
13250	273.15	989.18	0.8
13225	273.15	989.1	0.8
13200	273.15	988.93	0.8
13175	273.15	988.85	0.8
13150	273.15	988.76	0.8
13125	273.15	988.61	0.8
13100	273.15	988.53	0.8
13075	273.15	988.39	0.8
13050	273.15	988.28	0.8
13025	273.15	988.15	0.8
13000	273.15	988.04	0.8
12975	273.15	987.96	0.8
12950	273.15	987.8	0.8
12925	273.15	987.71	0.8
12900	273.15	987.63	0.8
12875	273.15	987.47	0.8
12850	273.15	987.38	0.8
12825	273.15	987.27	0.8
12800	273.15	987.14	0.8
12775	273.15	987.06	0.8
12750	273.15	986.89	0.8
12725	273.15	986.81	0.8
12700	273.15	986.65	0.8
12675	273.15	986.57	0.8
12650	273.15	986.49	0.8
12625	273.15	986.39	0.8
12600	273.15	986.24	0.8
12575	273.15	986.16	0.8
12550	273.15	986	0.8
12525	273.15	985.92	0.8
12500	273.15	985.78	0.8
12475	273.15	985.67	0.8
12450	273.15	985.59	0.8
12425	273.15	985.43	0.8
12400	273.15	985.35	0.8
12375	273.15	985.18	0.8
12350	273.15	985.1	0.8
12325	273.15	984.94	0.8
12300	273.15	984.86	0.8
12275	273.15	984.74	0.8
12250	273.15	984.61	0.8
12225	273.15	984.53	0.8
12200	273.15	984.37	0.8
12175	273.15	984.29	0.8
12150	273.15	984.12	0.8
12125	273.15	984.04	0.8
12100	273.15	983.94	0.8
12075	273.15	983.79	0.8
12050	273.15	983.69	0.8
12025	273.15	983.55	0.8
12000	273.15	983.47	0.8
11975	273.15	983.3	0.8
11950	273.15	983.22	0.8
11925	273.15	983.06	0.8
11900	273.15	982.98	0.8
11875	273.15	982.81	0.8
11850	273.15	982.74	0.8
11825	273.15	982.57	0.8
11800	273.15	982.49	0.8
11775	273.15	982.36	0.8
11750	273.15	982.24	0.8
11725	273.15	982.08	0.8
11700	273.15	982	0.8
11675	273.15	981.86	0.8
11650	273.15	981.75	0.8
11625	273.15	981.62	0.8
11600	273.15	981.51	0.8
11575	273.15	981.37	0.8
11550	273.15	981.26	0.8
11525	273.15	981.13	0.8
11500	273.15	981.02	0.8
11475	273.15	980.89	0.8
11450	273.15	980.78	0.8
11425	273.15	980.69	0.8
11400	273.15	980.53	0.8
11375	273.15	980.39	0.8
11350	273.15	980.29	0.8
11325	273.15	980.16	0.8
11300	273.15	980.04	0.8
11275	273.15	979.94	0.8
11250	273.15	979.8	0.8
11225	273.15	979.71	0.8
11200	273.15	979.55	0.8
11175	273.15	979.46	0.8
11150	273.15	979.3	0.8
11125	273.15	979.16	0.8
11100	273.15	979.06	0.8
11075	273.15	978.97	0.8
11050	273.15	978.82	0.8
11025	273.15	978.7	0.8
11000	273.15	978.57	0.8
10975	273.15	978.49	0.8
10950	273.15	978.33	0.8
10925	273.15	978.2	0.8
10900	273.15	978.08	0.8
10875	273.15	978	0.8
10850	273.15	977.84	0.8
10825	273.15	977.76	0.8
10800	273.15	977.59	0.8
10775	273.15	977.48	0.8
10750	273.15	977.35	0.8
10725	273.15	977.18	0.8
10700	273.15	977.1	0.8
10675	273.15	976.94	0.8
10650	273.15	976.86	0.8
10625	273.15	976.69	0.8
10600	273.15	976.61	0.8
10575	273.15	976.45	0.8
10550	273.15	976.37	0.8
10525	273.15	976.2	0.8
10500	273.15	976.12	0.8
10475	273.15	975.96	0.8
10450	273.15	975.88	0.8
10425	273.15	975.71	0.8
10400	273.15	975.63	0.8
10375	273.15	975.47	0.8
10350	273.15	975.36	0.8
10325	273.15	975.22	0.8
10300	273.15	975.11	0.8
10275	273.15	974.98	0.8
10250	273.15	974.82	0.8
10225	273.15	974.73	0.8
10200	273.15	974.57	0.8
10175	273.15	974.49	0.8
10150	273.15	974.34	0.8
10125	273.15	974.24	0.8
10100	273.15	974.08	0.8
10075	273.15	973.99	0.8
10050	273.15	973.84	0.8
10025	273.15	973.69	0.8
10000	273.15	973.59	0.8
9975	273.15	973.43	0.8
9950	273.15	973.35	0.8
9925	273.15	973.18	0.8
9900	273.15	973.1	0.8
9875	273.15	972.94	0.8
9850	273.15	972.82	0.8
9825	273.15	972.69	0.8
9800	273.15	972.53	0.8
9775	273.15	972.43	0.8
9750	273.15	972.29	0.8
9725	273.15	972.2	0.8
9700	273.15	972.04	0.8
9675	273.15	971.88	0.8
9650	273.15	971.74	0.8
9625	273.15	971.63	0.8
9600	273.15	971.55	0.8
9575	273.15	971.39	0.8
9550	273.15	971.22	0.8
9525	273.15	971.14	0.8
9500	273.15	970.97	0.8
9475	273.15	970.81	0.8
9450	273.15	970.67	0.8
9425	273.15	970.57	0.8
9400	273.15	970.45	0.8
9375	273.15	970.32	0.8
9350	273.15	970.16	0.8
9325	273.15	970	0.8
9300	273.15	969.92	0.8
9275	273.15	969.75	0.8
9250	273.15	969.64	0.8
9225	273.15	969.51	0.8
9200	273.15	969.34	0.8
9175	273.15	969.18	0.8
9150	273.15	969.1	0.8
9125	273.15	968.93	0.8
9100	273.15	968.77	0.8
9075	273.15	968.69	0.8
9050	273.15	968.52	0.8
9025	273.15	968.36	0.8
9000	273.15	968.28	0.8
8975	273.15	968.12	0.8
8950	273.15	967.95	0.8
8925	273.15	967.86	0.8
8900	273.15	967.71	0.8
8875	273.15	967.54	0.8
8850	273.15	967.38	0.8
8825	273.15	967.3	0.8
8800	273.15	967.13	0.8
8775	273.15	966.97	0.8
8750	273.15	966.89	0.8
8725	273.15	966.72	0.8
8700	273.15	966.56	0.8
8675	273.15	966.46	0.8
8650	273.15	966.32	0.8
8625	273.15	966.15	0.8
8600	273.15	966	0.8
8575	273.15	965.91	0.8
8550	273.15	965.74	0.8
8525	273.15	965.6	0.8
8500	273.15	965.5	0.8
8475	273.15	965.34	0.8
8450	273.15	965.19	0.8
8425	273.15	965.04	0.8
8400	273.15	964.93	0.8
8375	273.15	964.76	0.8
8350	273.15	964.68	0.8
8325	273.15	964.52	0.8
8300	273.15	964.35	0.8
8275	273.15	964.23	0.8
8250	273.15	964.11	0.8
8225	273.15	963.95	0.8
8200	273.15	963.78	0.8
8175	273.15	963.7	0.8
8150	273.15	963.54	0.8
8125	273.15	963.38	0.8
8100	273.15	963.21	0.8
8075	273.15	963.13	0.8
8050	273.15	962.97	0.8
8025	273.15	962.8	0.8
8000	273.15	962.72	0.8
7975	273.15	962.56	0.8
7950	273.15	962.39	0.8
7925	273.15	962.23	0.8
7900	273.15	962.15	0.8
7875	273.15	961.98	0.8
7850	273.15	961.82	0.8
7825	273.15	961.66	0.8
7800	273.15	961.54	0.8
7775	273.15	961.41	0.8
7750	273.15	961.25	0.8
7725	273.15	961.08	0.8
7700	273.15	960.92	0.8
7675	273.15	960.84	0.8
7650	273.15	960.68	0.8
7625	273.15	960.51	0.8
7600	273.15	960.35	0.8
7575	273.15	960.18	0.8
7550	273.15	960.02	0.8
7525	273.15	959.94	0.8
7500	273.15	959.77	0.8
7475	273.15	959.61	0.8
7450	273.15	959.45	0.8
7425	273.15	959.28	0.8
7400	273.15	959.12	0.8
7375	273.15	959	0.8
7350	273.15	958.87	0.8
7325	273.15	958.71	0.8
7300	273.15	958.55	0.8
7275	273.15	958.38	0.8
7250	273.15	958.27	0.8
7225	273.15	958.14	0.8
7200	273.15	957.97	0.8
7175	273.15	957.81	0.8
7150	273.15	957.65	0.8
7125	273.15	957.48	0.8
7100	273.15	957.34	0.8
7075	273.15	957.15	0.8
7050	273.15	956.99	0.8
7025	273.15	956.91	0.8
7000	273.15	956.75	0.8
6975	273.15	956.58	0.8
6950	273.15	956.42	0.8
6925	273.15	956.25	0.8
6900	273.15	956.09	0.8
6875	273.15	955.96	0.8
6850	273.15	955.82	0.8
6825	273.15	955.67	0.8
6800	273.15	955.52	0.8
6775	273.15	955.35	0.8
6750	273.15	955.19	0.8
6725	273.15	955.03	0.8
6700	273.15	954.86	0.8
6675	273.15	954.7	0.8
6650	273.15	954.53	0.8
6625	273.15	954.37	0.8
6600	273.15	954.21	0.8
6575	273.15	954.04	0.8
6550	273.15	953.88	0.8
6525	273.15	953.73	0.8
6500	273.15	953.64	0.8
6475	273.15	953.47	0.8
6450	273.15	953.31	0.8
6425	273.15	953.14	0.8
6400	273.15	952.98	0.8
6375	273.15	952.82	0.8
6350	273.15	952.65	0.8
6325	273.15	952.49	0.8
6300	273.15	952.33	0.8
6275	273.15	952.24	0.8
6250	273.15	952.08	0.8
6225	273.15	951.86	0.8
6200	273.15	951.67	0.8
6175	273.15	951.59	0.8
6150	273.15	951.39	0.8
6125	273.15	951.26	0.8
6100	273.15	951.1	0.8
6075	273.15	950.93	0.8
6050	273.15	950.77	0.8
6025	273.15	950.61	0.8
6000	273.15	950.47	0.8
5975	273.15	950.35	0.8
5950	273.15	950.2	0.8
5925	273.15	950.03	0.8
5900	273.15	949.87	0.8
5875	273.15	949.74	0.8
5850	273.15	949.62	0.8
5825	273.15	949.41	0.8
5800	273.15	949.3	0.8
5775	273.15	949.13	0.8
5750	273.15	948.97	0.8
5725	273.15	948.81	0.8
5700	273.15	948.64	0.8
5675	273.15	948.48	0.8
5650	273.15	948.35	0.8
5625	273.15	948.22	0.8
5600	273.15	948	0.8
5575	273.15	947.84	0.8
5550	273.15	947.7	0.8
5525	273.15	947.55	0.8
5500	273.15	947.38	0.8
5475	273.15	947.19	0.8
5450	273.15	947.02	0.8
5425	273.15	946.88	0.8
5400	273.15	946.68	0.8
5375	273.15	946.51	0.8
5350	273.15	946.35	0.8
5325	273.15	946.18	0.8
5300	273.15	945.95	0.8
5275	273.15	945.83	0.8
5250	273.15	945.61	0.8
5225	273.15	945.45	0.8
5200	273.15	945.28	0.8
5175	273.15	945.05	0.8
5150	273.15	944.88	0.8
5125	273.15	944.71	0.8
5100	273.15	944.55	0.8
5075	273.15	944.38	0.8
5050	273.15	944.22	0.8
5025	273.15	944.05	0.8
5000	273.15	943.89	0.8
4975	273.15	943.65	0.8
4950	273.15	943.48	0.8
4925	273.15	943.32	0.8
4900	273.15	943.14	0.8
4875	273.15	942.95	0.8
4850	273.15	942.76	0.8
4825	273.15	942.58	0.8
4800	273.15	942.41	0.8
4775	273.15	942	0.8
4750	273.15	941.7	0.8
4725	273.15	941.61	0.8
4700	273.15	941.48	0.8
4675	273.15	941.01	0.8
4650	273.15	940.77	0.8
4625	273.15	940.6	0.8
4600	273.15	940.38	0.8
20000	283.15	979.19	0.8
19975	283.15	979.04	0.8
19950	283.15	978.96	0.8
19925	283.15	978.84	0.8
19900	283.15	978.72	0.8
19875	283.15	978.64	0.8
19850	283.15	978.49	0.8
19825	283.15	978.42	0.8
19800	283.15	978.31	0.8
19775	283.15	978.19	0.8
19750	283.15	978.07	0.8
19725	283.15	977.97	0.8
19700	283.15	977.89	0.8
19675	283.15	977.74	0.8
19650	283.15	977.66	0.8
19625	283.15	977.51	0.8
19600	283.15	977.43	0.8
19575	283.15	977.29	0.8
19550	283.15	977.22	0.8
19525	283.15	977.1	0.8
19500	283.15	976.99	0.8
19475	283.15	976.85	0.8
19450	283.15	976.74	0.8
19425	283.15	976.66	0.8
19400	283.15	976.53	0.8
19375	283.15	976.42	0.8
19350	283.15	976.34	0.8
19325	283.15	976.18	0.8
19300	283.15	976.1	0.8
19275	283.15	976.02	0.8
19250	283.15	975.85	0.8
19225	283.15	975.76	0.8
19200	283.15	975.66	0.8
19175	283.15	975.52	0.8
19150	283.15	975.44	0.8
19125	283.15	975.31	0.8
19100	283.15	975.18	0.8
19075	283.15	975.08	0.8
19050	283.15	974.98	0.8
19025	283.15	974.9	0.8
19000	283.15	974.74	0.8
18975	283.15	974.63	0.8
18950	283.15	974.55	0.8
18925	283.15	974.41	0.8
18900	283.15	974.28	0.8
18875	283.15	974.17	0.8
18850	283.15	974.07	0.8
18825	283.15	973.96	0.8
18800	283.15	973.84	0.8
18775	283.15	973.72	0.8
18750	283.15	973.6	0.8
18725	283.15	973.46	0.8
18700	283.15	973.35	0.8
18675	283.15	973.21	0.8
18650	283.15	973.11	0.8
18625	283.15	973.03	0.8
18600	283.15	972.9	0.8
18575	283.15	972.76	0.8
18550	283.15	972.62	0.8
18525	283.15	972.54	0.8
18500	283.15	972.43	0.8
18475	283.15	972.3	0.8
18450	283.15	972.17	0.8
18425	283.15	972.05	0.8
18400	283.15	971.98	0.8
18375	283.15	971.85	0.8
18350	283.15	971.73	0.8
18325	283.15	971.57	0.8
18300	283.15	971.48	0.8
18275	283.15	971.39	0.8
18250	283.15	971.25	0.8
18225	283.15	971.16	0.8
18200	283.15	970.99	0.8
18175	283.15	970.91	0.8
18150	283.15	970.8	0.8
18125	283.15	970.66	0.8
18100	283.15	970.52	0.8
18075	283.15	970.43	0.8
18050	283.15	970.31	0.8
18025	283.15	970.18	0.8
18000	283.15	970.08	0.8
17975	283.15	969.94	0.8
17950	283.15	969.8	0.8
17925	283.15	969.69	0.8
17900	283.15	969.6	0.8
17875	283.15	969.46	0.8
17850	283.15	969.37	0.8
17825	283.15	969.25	0.8
17800	283.15	969.12	0.8
17775	283.15	968.98	0.8
17750	283.15	968.88	0.8
17725	283.15	968.78	0.8
17700	283.15	968.64	0.8
17675	283.15	968.48	0.8
17650	283.15	968.4	0.8
17625	283.15	968.24	0.8
17600	283.15	968.15	0.8
17575	283.15	968.06	0.8
17550	283.15	967.9	0.8
17525	283.15	967.82	0.8
17500	283.15	967.66	0.8
17475	283.15	967.57	0.8
17450	283.15	967.41	0.8
17425	283.15	967.31	0.8
17400	283.15	967.17	0.8
17375	283.15	967.09	0.8
17350	283.15	966.97	0.8
17325	283.15	966.85	0.8
17300	283.15	966.7	0.8
17275	283.15	966.6	0.8
17250	283.15	966.51	0.8
17225	283.15	966.36	0.8
17200	283.15	966.25	0.8
17175	283.15	966.11	0.8
17150	283.15	965.97	0.8
17125	283.15	965.87	0.8
17100	283.15	965.75	0.8
17075	283.15	965.62	0.8
17050	283.15	965.46	0.8
17025	283.15	965.37	0.8
17000	283.15	965.28	0.8
16975	283.15	965.14	0.8
16950	283.15	964.99	0.8
16925	283.15	964.88	0.8
16900	283.15	964.79	0.8
16875	283.15	964.65	0.8
16850	283.15	964.49	0.8
16825	283.15	964.4	0.8
16800	283.15	964.28	0.8
16775	283.15	964.16	0.8
16750	283.15	964	0.8
16725	283.15	963.92	0.8
16700	283.15	963.77	0.8
16675	283.15	963.66	0.8
16650	283.15	963.51	0.8
16625	283.15	963.43	0.8
16600	283.15	963.26	0.8
16575	283.15	963.18	0.8
16550	283.15	963.02	0.8
16525	283.15	962.86	0.8
16500	283.15	962.78	0.8
16475	283.15	962.61	0.8
16450	283.15	962.53	0.8
16425	283.15	962.42	0.8
16400	283.15	962.28	0.8
16375	283.15	962.15	0.8
16350	283.15	962.02	0.8
16325	283.15	961.89	0.8
16300	283.15	961.74	0.8
16275	283.15	961.63	0.8
16250	283.15	961.53	0.8
16225	283.15	961.39	0.8
16200	283.15	961.23	0.8
16175	283.15	961.15	0.8
16150	283.15	960.98	0.8
16125	283.15	960.89	0.8
16100	283.15	960.74	0.8
16075	283.15	960.6	0.8
16050	283.15	960.49	0.8
16025	283.15	960.33	0.8
16000	283.15	960.25	0.8
15975	283.15	960.09	0.8
15950	283.15	959.94	0.8
15925	283.15	959.84	0.8
15900	283.15	959.71	0.8
15875	283.15	959.55	0.8
15850	283.15	959.43	0.8
15825	283.15	959.3	0.8
15800	283.15	959.19	0.8
15775	283.15	959.05	0.8
15750	283.15	958.89	0.8
15725	283.15	958.78	0.8
15700	283.15	958.62	0.8
15675	283.15	958.52	0.8
15650	283.15	958.37	0.8
15625	283.15	958.22	0.8
15600	283.15	958.13	0.8
15575	283.15	957.97	0.8
15550	283.15	957.84	0.8
15525	283.15	957.72	0.8
15500	283.15	957.56	0.8
15475	283.15	957.47	0.8
15450	283.15	957.32	0.8
15425	283.15	957.17	0.8
15400	283.15	957.07	0.8
15375	283.15	956.93	0.8
15350	283.15	956.78	0.8
15325	283.15	956.66	0.8
15300	283.15	956.56	0.8
15275	283.15	956.42	0.8
15250	283.15	956.27	0.8
15225	283.15	956.18	0.8
15200	283.15	956.01	0.8
15175	283.15	955.88	0.8
15150	283.15	955.77	0.8
15125	283.15	955.6	0.8
15100	283.15	955.44	0.8
15075	283.15	955.36	0.8
15050	283.15	955.2	0.8
15025	283.15	955.09	0.8
15000	283.15	954.95	0.8
14975	283.15	954.79	0.8
14950	283.15	954.68	0.8
14925	283.15	954.57	0.8
14900	283.15	954.41	0.8
14875	283.15	954.28	0.8
14850	283.15	954.14	0.8
14825	283.15	954.02	0.8
14800	283.15	953.88	0.8
14775	283.15	953.73	0.8
14750	283.15	953.62	0.8
14725	283.15	953.48	0.8
14700	283.15	953.32	0.8
14675	283.15	953.17	0.8
14650	283.15	953.08	0.8
14625	283.15	952.93	0.8
14600	283.15	952.75	0.8
14575	283.15	952.59	0.8
14550	283.15	952.51	0.8
14525	283.15	952.37	0.8
14500	283.15	952.19	0.8
14475	283.15	952.09	0.8
14450	283.15	951.93	0.8
14425	283.15	951.77	0.8
14400	283.15	951.61	0.8
14375	283.15	951.51	0.8
14350	283.15	951.37	0.8
14325	283.15	951.2	0.8
14300	283.15	951.12	0.8
14275	283.15	950.96	0.8
14250	283.15	950.8	0.8
14225	283.15	950.7	0.8
14200	283.15	950.55	0.8
14175	283.15	950.39	0.8
14150	283.15	950.22	0.8
14125	283.15	950.11	0.8
14100	283.15	949.98	0.8
14075	283.15	949.82	0.8
14050	283.15	949.65	0.8
14025	283.15	949.51	0.8
14000	283.15	949.41	0.8
13975	283.15	949.24	0.8
13950	283.15	949.1	0.8
13925	283.15	948.95	0.8
13900	283.15	948.84	0.8
13875	283.15	948.67	0.8
13850	283.15	948.51	0.8
13825	283.15	948.4	0.8
13800	283.15	948.24	0.8
13775	283.15	948.1	0.8
13750	283.15	947.94	0.8
13725	283.15	947.78	0.8
13700	283.15	947.69	0.8
13675	283.15	947.53	0.8
13650	283.15	947.37	0.8
13625	283.15	947.2	0.8
13600	283.15	947.04	0.8
13575	283.15	946.94	0.8
13550	283.15	946.8	0.8
13525	283.15	946.63	0.8
13500	283.15	946.47	0.8
13475	283.15	946.39	0.8
13450	283.15	946.23	0.8
13425	283.15	946.06	0.8
13400	283.15	945.9	0.8
13375	283.15	945.77	0.8
13350	283.15	945.66	0.8
13325	283.15	945.49	0.8
13300	283.15	945.33	0.8
13275	283.15	945.17	0.8
13250	283.15	945.05	0.8
13225	283.15	944.92	0.8
13200	283.15	944.76	0.8
13175	283.15	944.59	0.8
13150	283.15	944.43	0.8
13125	283.15	944.27	0.8
13100	283.15	944.17	0.8
13075	283.15	944.02	0.8
13050	283.15	943.86	0.8
13025	283.15	943.7	0.8
13000	283.15	943.53	0.8
12975	283.15	943.37	0.8
12950	283.15	943.22	0.8
12925	283.15	943.13	0.8
12900	283.15	942.96	0.8
12875	283.15	942.8	0.8
12850	283.15	942.63	0.8
12825	283.15	942.47	0.8
12800	283.15	942.34	0.8
12775	283.15	942.16	0.8
12750	283.15	942.06	0.8
12725	283.15	941.87	0.8
12700	283.15	941.74	0.8
12675	283.15	941.57	0.8
12650	283.15	941.41	0.8
12625	283.15	941.25	0.8
12600	283.15	941.08	0.8
12575	283.15	940.92	0.8
12550	283.15	940.76	0.8
12525	283.15	940.59	0.8
12500	283.15	940.45	0.8
12475	283.15	940.27	0.8
12450	283.15	940.19	0.8
12425	283.15	940.02	0.8
12400	283.15	939.86	0.8
12375	283.15	939.7	0.8
12350	283.15	939.53	0.8
12325	283.15	939.37	0.8
12300	283.15	939.21	0.8
12275	283.15	939.1	0.8
12250	283.15	938.96	0.8
12225	283.15	938.8	0.8
12200	283.15	938.63	0.8
12175	283.15	938.47	0.8
12150	283.15	938.31	0.8
12125	283.15	938.14	0.8
12100	283.15	937.98	0.8
12075	283.15	937.82	0.8
12050	283.15	937.68	0.8
12025	283.15	937.53	0.8
12000	283.15	937.33	0.8
11975	283.15	937.23	0.8
11950	283.15	937.07	0.8
11925	283.15	936.92	0.8
11900	283.15	936.74	0.8
11875	283.15	936.59	0.8
11850	283.15	936.43	0.8
11825	283.15	936.26	0.8
11800	283.15	936.1	0.8
11775	283.15	935.94	0.8
11750	283.15	935.78	0.8
11725	283.15	935.61	0.8
11700	283.15	935.45	0.8
11675	283.15	935.29	0.8
11650	283.15	935.12	0.8
11625	283.15	934.96	0.8
11600	283.15	934.8	0.8
11575	283.15	934.64	0.8
11550	283.15	934.47	0.8
11525	283.15	934.39	0.8
11500	283.15	934.17	0.8
11475	283.15	933.98	0.8
11450	283.15	933.88	0.8
11425	283.15	933.66	0.8
11400	283.15	933.49	0.8
11375	283.15	933.37	0.8
11350	283.15	933.16	0.8
11325	283.15	933.08	0.8
11300	283.15	932.9	0.8
11275	283.15	932.67	0.8
11250	283.15	932.51	0.8
11225	283.15	932.34	0.8
11200	283.15	932.18	0.8
11175	283.15	932.02	0.8
11150	283.15	931.86	0.8
11125	283.15	931.69	0.8
11100	283.15	931.58	0.8
11075	283.15	931.33	0.8
11050	283.15	931.19	0.8
11025	283.15	931.03	0.8
11000	283.15	930.89	0.8
10975	283.15	930.73	0.8
10950	283.15	930.57	0.8
10925	283.15	930.41	0.8
10900	283.15	930.27	0.8
10875	283.15	930.06	0.8
10850	283.15	929.88	0.8
10825	283.15	929.74	0.8
10800	283.15	929.62	0.8
10775	283.15	929.45	0.8
10750	283.15	929.25	0.8
10725	283.15	929.16	0.8
10700	283.15	929	0.8
10675	283.15	928.84	0.8
10650	283.15	928.76	0.8
10625	283.15	928.66	0.8
10600	283.15	928.46	0.8
10575	283.15	928.27	0.8
10550	283.15	928.1	0.8
10525	283.15	927.92	0.8
10500	283.15	927.78	0.8
10475	283.15	927.61	0.8
10450	283.15	927.45	0.8
10425	283.15	927.34	0.8
10400	283.15	927.17	0.8
10375	283.15	927.06	0.8
10350	283.15	926.79	0.8
10325	283.15	926.69	0.8
10300	283.15	926.47	0.8
10275	283.15	926.3	0.8
10250	283.15	926.06	0.8
10225	283.15	926.06	0.8
10200	283.15	925.75	0.8
10175	283.15	925.57	0.8
10150	283.15	925.41	0.8
10125	283.15	925.24	0.8
10100	283.15	925.08	0.8
10075	283.15	924.83	0.8
10050	283.15	924.71	0.8
10025	283.15	924.53	0.8
10000	283.15	924.34	0.8
9975	283.15	924.18	0.8
9950	283.15	924	0.8
9925	283.15	923.77	0.8
9900	283.15	923.69	0.8
9875	283.15	923.48	0.8
9850	283.15	923.28	0.8
9825	283.15	923.15	0.8
9800	283.15	922.94	0.8
9775	283.15	922.71	0.8
9750	283.15	922.58	0.8
9725	283.15	922.38	0.8
9700	283.15	922.14	0.8
9675	283.15	921.97	0.8
9650	283.15	921.81	0.8
9625	283.15	921.56	0.8
9600	283.15	921.39	0.8
9575	283.15	921.21	0.8
9550	283.15	921.09	0.8
9525	283.15	920.85	0.8
9500	283.15	920.65	0.8
9475	283.15	920.47	0.8
9450	283.15	920.32	0.8
9425	283.15	920.09	0.8
9400	283.15	919.87	0.8
9375	283.15	919.69	0.8
9350	283.15	919.52	0.8
9325	283.15	919.31	0.8
9300	283.15	919.11	0.8
9275	283.15	918.95	0.8
9250	283.15	918.7	0.8
9225	283.15	918.6	0.8
9200	283.15	918.33	0.8
9175	283.15	918.13	0.8
9150	283.15	917.9	0.8
9125	283.15	917.75	0.8
9100	283.15	917.55	0.8
9075	283.15	917.31	0.8
9050	283.15	917.12	0.8
9025	283.15	916.93	0.8
9000	283.15	916.73	0.8
8975	283.15	916.53	0.8
8950	283.15	916.35	0.8
8925	283.15	916.16	0.8
8900	283.15	916	0.8
8875	283.15	915.83	0.8
8850	283.15	915.64	0.8
8825	283.15	915.43	0.8
8800	283.15	915.26	0.8
8775	283.15	915.04	0.8
8750	283.15	914.82	0.8
8725	283.15	914.62	0.8
8700	283.15	914.39	0.8
8675	283.15	914.29	0.8
8650	283.15	914.07	0.8
8625	283.15	913.87	0.8
8600	283.15	913.66	0.8
8575	283.15	913.46	0.8
8550	283.15	913.26	0.8
8525	283.15	913.06	0.8
8500	283.15	912.85	0.8
8475	283.15	912.59	0.8
8450	283.15	912.4	0.8
8425	283.15	912.24	0.8
8400	283.15	912.07	0.8
8375	283.15	911.83	0.8
8350	283.15	911.66	0.8
8325	283.15	911.44	0.8
8300	283.15	911.17	0.8
8275	283.15	910.96	0.8
8250	283.15	910.76	0.8
8225	283.15	910.56	0.8
8200	283.15	910.33	0.8
8175	283.15	910.09	0.8
8150	283.15	909.86	0.8
8125	283.15	909.7	0.8
8100	283.15	909.45	0.8
8075	283.15	909.27	0.8
8050	283.15	909.06	0.8
8025	283.15	908.88	0.8
8000	283.15	908.68	0.8
7975	283.15	908.39	0.8
7950	283.15	908.15	0.8
7925	283.15	908.06	0.8
7900	283.15	907.73	0.8
7875	283.15	907.57	0.8
7850	283.15	907.32	0.81
7825	283.15	907.08	0.81
7800	283.15	906.89	0.81
7775	283.15	906.67	0.81
7750	283.15	906.42	0.81
7725	283.15	906.26	0.81
7700	283.15	906.04	0.81
7675	283.15	905.8	0.81
7650	283.15	905.61	0.81
7625	283.15	905.36	0.81
7600	283.15	905.11	0.81
7575	283.15	904.94	0.81
7550	283.15	904.69	0.81
7525	283.15	904.46	0.81
7500	283.15	904.3	0.81
7475	283.15	904.05	0.81
7450	283.15	903.9	0.81
7425	283.15	903.64	0.81
7400	283.15	903.45	0.81
7375	283.15	903.16	0.81
7350	283.15	902.98	0.81
7325	283.15	902.74	0.81
7300	283.15	902.49	0.81
7275	283.15	902.25	0.81
7250	283.15	902.09	0.81
7225	283.15	901.84	0.81
7200	283.15	901.57	0.81
7175	283.15	901.36	0.81
7150	283.15	901.15	0.81
7125	283.15	900.92	0.81
7100	283.15	900.68	0.81
7075	283.15	900.45	0.81
7050	283.15	900.2	0.81
7025	283.15	899.99	0.81
7000	283.15	899.79	0.81
6975	283.15	899.77	0.81
6950	283.15	899.65	0.81
6925	283.15	899.5	0.81
6900	283.15	899.3	0.81
6875	283.15	899.09	0.81
6850	283.15	898.87	0.81
6825	283.15	898.6	0.81
6800	283.15	898.37	0.81
6775	283.15	898.06	0.81
6750	283.15	897.77	0.81
6725	283.15	897.56	0.81
6700	283.15	897.4	0.81
6675	283.15	897.02	0.81
6650	283.15	896.9	0.81
6625	283.15	896.62	0.81
6600	283.15	896.41	0.81
6575	283.15	896.11	0.81
6550	283.15	895.96	0.81
6525	283.15	895.62	0.81
6500	283.15	895.37	0.81
6475	283.15	895.17	0.81
6450	283.15	894.92	0.81
6425	283.15	894.67	0.81
6400	283.15	894.43	0.81
6375	283.15	894.18	0.81
6350	283.15	893.89	0.81
6325	283.15	893.63	0.81
6300	283.15	893.45	0.81
6275	283.15	893.14	0.81
6250	283.15	892.89	0.81
6225	283.15	892.62	0.81
6200	283.15	892.35	0.81
6175	283.15	892.08	0.81
6150	283.15	891.86	0.81
6125	283.15	891.52	0.81
6100	283.15	891.19	0.81
6075	283.15	890.95	0.81
6050	283.15	890.62	0.81
6025	283.15	890.33	0.81
6000	283.15	890.13	0.81
5975	283.15	889.92	0.81
5950	283.15	889.55	0.81
5925	283.15	889.31	0.81
5900	283.15	889.08	0.81
5875	283.15	888.77	0.81
5850	283.15	888.54	0.81
5825	283.15	888.24	0.81
5800	283.15	888.01	0.81
5775	283.15	887.67	0.81
5750	283.15	887.39	0.81
5725	283.15	887.09	0.81
5700	283.15	886.8	0.81
5675	283.15	886.49	0.81
5650	283.15	886.26	0.81
5625	283.15	885.95	0.81
5600	283.15	885.62	0.81
5575	283.15	885.37	0.81
5550	283.15	885.04	0.81
5525	283.15	884.8	0.81
5500	283.15	884.47	0.81
5475	283.15	884.26	0.81
5450	283.15	883.98	0.81
5425	283.15	883.67	0.81
5400	283.15	883.4	0.81
5375	283.15	883.08	0.81
5350	283.15	882.83	0.81
5325	283.15	882.5	0.81
5300	283.15	882.11	0.81
20000	293.15	937.71	0.81
19975	293.15	937.6	0.81
19950	293.15	937.48	0.81
19925	293.15	937.36	0.81
19900	293.15	937.17	0.81
19875	293.15	937.05	0.81
19850	293.15	936.93	0.81
19825	293.15	936.81	0.81
19800	293.15	936.69	0.81
19775	293.15	936.57	0.81
19750	293.15	936.44	0.81
19725	293.15	936.26	0.81
19700	293.15	936.18	0.81
19675	293.15	936	0.81
19650	293.15	935.88	0.81
19625	293.15	935.75	0.81
19600	293.15	935.62	0.81
19575	293.15	935.49	0.81
19550	293.15	935.36	0.81
19525	293.15	935.24	0.81
19500	293.15	935.12	0.81
19475	293.15	934.91	0.81
19450	293.15	934.79	0.81
19425	293.15	934.64	0.81
19400	293.15	934.51	0.81
19375	293.15	934.38	0.81
19350	293.15	934.24	0.81
19325	293.15	934.1	0.81
19300	293.15	933.97	0.81
19275	293.15	933.83	0.81
19250	293.15	933.7	0.81
19225	293.15	933.56	0.81
19200	293.15	933.42	0.81
19175	293.15	933.29	0.81
19150	293.15	933.14	0.81
19125	293.15	933.01	0.81
19100	293.15	932.87	0.81
19075	293.15	932.74	0.81
19050	293.15	932.6	0.81
19025	293.15	932.45	0.81
19000	293.15	932.3	0.81
18975	293.15	932.14	0.81
18950	293.15	931.99	0.81
18925	293.15	931.9	0.81
18900	293.15	931.74	0.81
18875	293.15	931.59	0.81
18850	293.15	931.43	0.81
18825	293.15	931.25	0.81
18800	293.15	931.17	0.81
18775	293.15	931.01	0.81
18750	293.15	930.86	0.81
18725	293.15	930.69	0.81
18700	293.15	930.61	0.81
18675	293.15	930.46	0.81
18650	293.15	930.29	0.81
18625	293.15	930.13	0.81
18600	293.15	929.97	0.81
18575	293.15	929.88	0.81
18550	293.15	929.71	0.81
18525	293.15	929.53	0.81
18500	293.15	929.45	0.81
18475	293.15	929.27	0.81
18450	293.15	929.11	0.81
18425	293.15	928.95	0.81
18400	293.15	928.85	0.81
18375	293.15	928.68	0.81
18350	293.15	928.5	0.81
18325	293.15	928.38	0.81
18300	293.15	928.22	0.81
18275	293.15	928.06	0.81
18250	293.15	927.94	0.81
18225	293.15	927.75	0.81
18200	293.15	927.66	0.81
18175	293.15	927.46	0.81
18150	293.15	927.35	0.81
18125	293.15	927.16	0.81
18100	293.15	927.05	0.81
18075	293.15	926.86	0.81
18050	293.15	926.67	0.81
18025	293.15	926.56	0.81
18000	293.15	926.42	0.81
17975	293.15	926.25	0.81
17950	293.15	926.13	0.81
17925	293.15	925.93	0.81
17900	293.15	925.82	0.81
17875	293.15	925.61	0.81
17850	293.15	925.49	0.81
17825	293.15	925.35	0.81
17800	293.15	925.19	0.81
17775	293.15	925.03	0.81
17750	293.15	924.87	0.81
17725	293.15	924.7	0.81
17700	293.15	924.55	0.81
17675	293.15	924.4	0.81
17650	293.15	924.26	0.81
17625	293.15	924.11	0.81
17600	293.15	923.94	0.81
17575	293.15	923.77	0.81
17550	293.15	923.64	0.81
17525	293.15	923.48	0.81
17500	293.15	923.34	0.81
17475	293.15	923.17	0.81
17450	293.15	922.99	0.81
17425	293.15	922.85	0.81
17400	293.15	922.71	0.81
17375	293.15	922.5	0.81
17350	293.15	922.33	0.81
17325	293.15	922.18	0.81
17300	293.15	922.01	0.81
17275	293.15	921.85	0.81
17250	293.15	921.7	0.81
17225	293.15	921.53	0.81
17200	293.15	921.4	0.81
17175	293.15	921.27	0.81
17150	293.15	921.1	0.81
17125	293.15	920.92	0.81
17100	293.15	920.73	0.81
17075	293.15	920.59	0.81
17050	293.15	920.44	0.81
17025	293.15	920.29	0.81
17000	293.15	920.08	0.81
16975	293.15	919.95	0.81
16950	293.15	919.71	0.81
16925	293.15	919.55	0.81
16900	293.15	919.43	0.81
16875	293.15	919.22	0.81
16850	293.15	919.06	0.81
16825	293.15	918.9	0.81
16800	293.15	918.73	0.81
16775	293.15	918.57	0.81
16750	293.15	918.41	0.81
16725	293.15	918.24	0.81
16700	293.15	918.08	0.81
16675	293.15	917.9	0.81
16650	293.15	917.7	0.81
16625	293.15	917.58	0.81
16600	293.15	917.37	0.81
16575	293.15	917.25	0.81
16550	293.15	917.01	0.81
16525	293.15	916.93	0.81
16500	293.15	916.75	0.81
16475	293.15	916.52	0.81
16450	293.15	916.37	0.81
16425	293.15	916.2	0.81
16400	293.15	916.03	0.81
16375	293.15	915.87	0.81
16350	293.15	915.71	0.81
16325	293.15	915.54	0.81
16300	293.15	915.38	0.81
16275	293.15	915.22	0.81
16250	293.15	915.05	0.81
16225	293.15	914.89	0.81
16200	293.15	914.73	0.81
16175	293.15	914.56	0.81
16150	293.15	914.45	0.81
16125	293.15	914.31	0.81
16100	293.15	914.15	0.81
16075	293.15	913.99	0.81
16050	293.15	913.83	0.81
16025	293.15	913.66	0.81
16000	293.15	913.55	0.81
15975	293.15	913.37	0.81
15950	293.15	913.17	0.81
15925	293.15	913.04	0.81
15900	293.15	912.9	0.81
15875	293.15	912.75	0.81
15850	293.15	912.52	0.81
15825	293.15	912.36	0.81
15800	293.15	912.19	0.81
15775	293.15	912.03	0.81
15750	293.15	911.86	0.81
15725	293.15	911.74	0.81
15700	293.15	911.59	0.81
15675	293.15	911.37	0.81
15650	293.15	911.21	0.81
15625	293.15	911.01	0.81
15600	293.15	910.88	0.81
15575	293.15	910.7	0.81
15550	293.15	910.48	0.81
15525	293.15	910.31	0.81
15500	293.15	910.23	0.81
15475	293.15	910.14	0.81
15450	293.15	910.03	0.81
15425	293.15	909.89	0.81
15400	293.15	909.68	0.81
15375	293.15	909.52	0.81
15350	293.15	909.37	0.81
15325	293.15	909.22	0.81
15300	293.15	909.03	0.81
15275	293.15	908.85	0.81
15250	293.15	908.66	0.81
15225	293.15	908.49	0.81
15200	293.15	908.32	0.81
15175	293.15	908.18	0.81
15150	293.15	907.99	0.81
15125	293.15	907.83	0.81
15100	293.15	907.6	0.81
15075	293.15	907.46	0.81
15050	293.15	907.32	0.81
15025	293.15	907.15	0.81
15000	293.15	906.96	0.81
14975	293.15	906.77	0.81
14950	293.15	906.59	0.81
14925	293.15	906.44	0.81
14900	293.15	906.27	0.81
14875	293.15	906.06	0.81
14850	293.15	905.88	0.81
14825	293.15	905.68	0.81
14800	293.15	905.48	0.81
14775	293.15	905.36	0.81
14750	293.15	905.15	0.81
14725	293.15	904.95	0.81
14700	293.15	904.75	0.81
14675	293.15	904.58	0.81
14650	293.15	904.42	0.81
14625	293.15	904.2	0.81
14600	293.15	904.05	0.81
14575	293.15	903.82	0.81
14550	293.15	903.67	0.81
14525	293.15	903.44	0.81
14500	293.15	903.28	0.81
14475	293.15	903.13	0.81
14450	293.15	902.92	0.81
14425	293.15	902.77	0.81
14400	293.15	902.56	0.81
14375	293.15	902.38	0.81
14350	293.15	902.18	0.81
14325	293.15	902.05	0.81
14300	293.15	901.83	0.81
14275	293.15	901.66	0.81
14250	293.15	901.48	0.81
14225	293.15	901.31	0.81
14200	293.15	901.13	0.81
14175	293.15	900.95	0.81
14150	293.15	900.7	0.81
14125	293.15	900.51	0.81
14100	293.15	900.34	0.81
14075	293.15	900.17	0.81
14050	293.15	899.94	0.81
14025	293.15	899.76	0.81
14000	293.15	899.55	0.81
13975	293.15	899.38	0.81
13950	293.15	899.2	0.81
13925	293.15	898.97	0.81
13900	293.15	898.8	0.81
13875	293.15	898.62	0.81
13850	293.15	898.41	0.81
13825	293.15	898.26	0.81
13800	293.15	898.05	0.81
13775	293.15	897.85	0.81
13750	293.15	897.68	0.81
13725	293.15	897.47	0.81
13700	293.15	897.29	0.81
13675	293.15	897.09	0.81
13650	293.15	896.86	0.81
13625	293.15	896.67	0.81
13600	293.15	896.51	0.81
13575	293.15	896.33	0.81
13550	293.15	896.13	0.81
13525	293.15	895.96	0.81
13500	293.15	895.75	0.81
13475	293.15	895.52	0.81
13450	293.15	895.34	0.81
13425	293.15	895.18	0.81
13400	293.15	894.97	0.81
13375	293.15	894.75	0.81
13350	293.15	894.53	0.81
13325	293.15	894.36	0.81
13300	293.15	894.19	0.81
13275	293.15	893.95	0.81
13250	293.15	893.74	0.81
13225	293.15	893.53	0.81
13200	293.15	893.3	0.81
13175	293.15	893.13	0.81
13150	293.15	892.96	0.81
13125	293.15	892.74	0.81
13100	293.15	892.5	0.81
13075	293.15	892.32	0.81
13050	293.15	892.08	0.81
13025	293.15	891.9	0.81
13000	293.15	891.66	0.81
12975	293.15	891.46	0.81
12950	293.15	891.25	0.81
12925	293.15	891.01	0.81
12900	293.15	890.84	0.81
12875	293.15	890.6	0.81
12850	293.15	890.37	0.81
12825	293.15	890.19	0.81
12800	293.15	889.94	0.81
12775	293.15	889.77	0.81
12750	293.15	889.53	0.81
12725	293.15	889.29	0.81
12700	293.15	889.11	0.81
12675	293.15	888.88	0.81
12650	293.15	888.63	0.81
12625	293.15	888.41	0.81
12600	293.15	888.22	0.81
12575	293.15	887.98	0.81
12550	293.15	887.8	0.81
12525	293.15	887.57	0.81
12500	293.15	887.33	0.81
12475	293.15	887.16	0.81
12450	293.15	886.91	0.81
12425	293.15	886.67	0.81
12400	293.15	886.49	0.81
12375	293.15	886.26	0.81
12350	293.15	886.09	0.81
12325	293.15	885.85	0.81
12300	293.15	885.6	0.81
12275	293.15	885.36	0.81
12250	293.15	885.18	0.81
12225	293.15	884.95	0.81
12200	293.15	884.7	0.81
12175	293.15	884.46	0.81
12150	293.15	884.26	0.81
12125	293.15	884.05	0.81
12100	293.15	883.79	0.81
12075	293.15	883.57	0.81
12050	293.15	883.38	0.81
12025	293.15	883.12	0.81
12000	293.15	882.9	0.81
11975	293.15	882.66	0.81
11950	293.15	882.46	0.81
11925	293.15	882.25	0.81
11900	293.15	882	0.81
11875	293.15	881.77	0.81
11850	293.15	881.54	0.81
11825	293.15	881.34	0.81
11800	293.15	881.1	0.81
11775	293.15	880.86	0.81
11750	293.15	880.63	0.81
11725	293.15	880.38	0.81
11700	293.15	880.2	0.81
11675	293.15	879.95	0.81
11650	293.15	879.71	0.81
11625	293.15	879.46	0.81
11600	293.15	879.3	0.81
11575	293.15	879	0.81
11550	293.15	878.81	0.81
11525	293.15	878.56	0.81
11500	293.15	878.33	0.81
11475	293.15	878.07	0.81
11450	293.15	877.85	0.81
11425	293.15	877.58	0.81
11400	293.15	877.38	0.81
11375	293.15	877.16	0.81
11350	293.15	876.93	0.81
11325	293.15	876.68	0.81
11300	293.15	876.43	0.81
11275	293.15	876.2	0.81
11250	293.15	875.94	0.81
11225	293.15	875.7	0.81
11200	293.15	875.45	0.81
11175	293.15	875.21	0.81
11150	293.15	874.96	0.81
11125	293.15	874.72	0.81
11100	293.15	874.47	0.81
11075	293.15	874.22	0.81
11050	293.15	873.98	0.81
11025	293.15	873.73	0.81
11000	293.15	873.49	0.81
10975	293.15	873.24	0.81
10950	293.15	873	0.81
10925	293.15	872.75	0.81
10900	293.15	872.51	0.81
10875	293.15	872.27	0.81
10850	293.15	872.01	0.81
10825	293.15	871.77	0.81
10800	293.15	871.52	0.81
10775	293.15	871.28	0.81
10750	293.15	871.03	0.81
10725	293.15	870.79	0.81
10700	293.15	870.54	0.81
10675	293.15	870.3	0.81
10650	293.15	869.97	0.81
10625	293.15	869.76	0.81
10600	293.15	869.48	0.81
10575	293.15	869.23	0.81
10550	293.15	868.99	0.81
10525	293.15	868.74	0.81
10500	293.15	868.43	0.81
10475	293.15	868.24	0.81
10450	293.15	867.99	0.81
10425	293.15	867.68	0.81
10400	293.15	867.43	0.81
10375	293.15	867.18	0.81
10350	293.15	866.94	0.81
10325	293.15	866.67	0.81
10300	293.15	866.45	0.81
10275	293.15	866.12	0.81
10250	293.15	865.87	0.81
10225	293.15	865.63	0.81
10200	293.15	865.34	0.81
10175	293.15	865.06	0.81
10150	293.15	864.74	0.81
10125	293.15	864.49	0.81
10100	293.15	864.22	0.81
10075	293.15	864	0.81
10050	293.15	863.76	0.81
10025	293.15	863.5	0.81
10000	293.15	863.3	0.81
9975	293.15	863.01	0.81
9950	293.15	862.76	0.81
9925	293.15	862.54	0.81
9900	293.15	862.27	0.81
9875	293.15	862	0.81
9850	293.15	861.78	0.81
9825	293.15	861.54	0.81
9800	293.15	861.24	0.81
9775	293.15	860.99	0.81
9750	293.15	860.76	0.81
9725	293.15	860.54	0.81
9700	293.15	860.28	0.81
9675	293.15	860.01	0.81
9650	293.15	859.74	0.81
9625	293.15	859.48	0.81
9600	293.15	859.17	0.81
9575	293.15	858.84	0.81
9550	293.15	858.59	0.81
9525	293.15	858.28	0.81
9500	293.15	858.02	0.81
9475	293.15	857.69	0.81
9450	293.15	857.44	0.81
9425	293.15	857.09	0.81
9400	293.15	856.82	0.81
9375	293.15	856.46	0.81
9350	293.15	856.22	0.81
9325	293.15	855.89	0.81
9300	293.15	855.55	0.81
9275	293.15	855.22	0.81
9250	293.15	854.9	0.81
9225	293.15	854.58	0.81
9200	293.15	854.32	0.81
9175	293.15	854.24	0.81
9150	293.15	854.08	0.81
9125	293.15	853.85	0.81
9100	293.15	853.57	0.81
9075	293.15	853.28	0.81
9050	293.15	852.98	0.81
9025	293.15	852.71	0.81
9000	293.15	852.41	0.81
8975	293.15	852.08	0.81
8950	293.15	851.81	0.81
8925	293.15	851.5	0.81
8900	293.15	851.22	0.81
8875	293.15	850.92	0.81
8850	293.15	850.6	0.81
8825	293.15	850.29	0.81
8800	293.15	849.99	0.81
8775	293.15	849.67	0.81
8750	293.15	849.37	0.81
8725	293.15	849.03	0.81
8700	293.15	848.68	0.81
8675	293.15	848.37	0.81
8650	293.15	848.04	0.81
8625	293.15	847.69	0.81
8600	293.15	847.4	0.81
8575	293.15	847.1	0.81
8550	293.15	846.75	0.81
8525	293.15	846.37	0.81
8500	293.15	845.98	0.81
8475	293.15	845.64	0.81
8450	293.15	845.3	0.81
8425	293.15	844.93	0.81
8400	293.15	844.56	0.81
8375	293.15	844.16	0.81
8350	293.15	843.86	0.81
8325	293.15	843.46	0.81
8300	293.15	843.12	0.81
8275	293.15	842.74	0.81
8250	293.15	842.39	0.81
8225	293.15	841.97	0.81
8200	293.15	841.62	0.81
8175	293.15	841.23	0.81
8150	293.15	840.87	0.81
8125	293.15	840.47	0.81
8100	293.15	840.15	0.81
8075	293.15	839.71	0.81
8050	293.15	839.37	0.81
8025	293.15	838.99	0.81
8000	293.15	838.63	0.81
7975	293.15	838.26	0.81
7950	293.15	837.87	0.81
7925	293.15	837.51	0.81
7900	293.15	837.14	0.81
7875	293.15	836.75	0.81
7850	293.15	836.36	0.81
7825	293.15	835.97	0.81
7800	293.15	835.53	0.81
7775	293.15	835.15	0.81
7750	293.15	834.76	0.81
7725	293.15	834.35	0.81
7700	293.15	833.94	0.81
7675	293.15	833.55	0.81
7650	293.15	833.16	0.81
7625	293.15	832.79	0.81
7600	293.15	832.39	0.81
7575	293.15	832.01	0.81
7550	293.15	831.58	0.81
7525	293.15	831.18	0.81
7500	293.15	830.75	0.81
7475	293.15	830.36	0.81
7450	293.15	829.96	0.81
7425	293.15	829.57	0.81
7400	293.15	829.18	0.81
7375	293.15	828.75	0.81
7350	293.15	828.35	0.81
7325	293.15	827.94	0.81
7300	293.15	827.52	0.81
7275	293.15	827.05	0.81
7250	293.15	826.63	0.81
7225	293.15	826.24	0.81
7200	293.15	825.75	0.81
7175	293.15	825.4	0.81
7150	293.15	824.97	0.81
7125	293.15	824.56	0.81
7100	293.15	824.12	0.81
7075	293.15	823.68	0.81
7050	293.15	823.25	0.81
7025	293.15	822.78	0.81
7000	293.15	822.38	0.81
6975	293.15	821.88	0.81
6950	293.15	821.45	0.81
6925	293.15	821	0.81
6900	293.15	820.51	0.81
6875	293.15	820.02	0.81
6850	293.15	819.56	0.81
6825	293.15	819.09	0.81
6800	293.15	818.69	0.81
6775	293.15	818.19	0.81
6750	293.15	817.7	0.81
6725	293.15	817.24	0.81
6700	293.15	816.75	0.81
6675	293.15	816.32	0.81
6650	293.15	815.85	0.81
6625	293.15	815.37	0.81
6600	293.15	814.85	0.81
6575	293.15	814.36	0.81
6550	293.15	813.83	0.81
6525	293.15	813.39	0.81
6500	293.15	813.14	0.81
20000	304.21	889.2	0.81
19975	304.21	888.98	0.81
19950	304.21	888.82	0.81
19925	304.21	888.67	0.81
19900	304.21	888.48	0.81
19875	304.21	888.28	0.81
19850	304.21	888.12	0.81
19825	304.21	887.96	0.81
19800	304.21	887.8	0.81
19775	304.21	887.64	0.81
19750	304.21	887.4	0.81
19725	304.21	887.24	0.81
19700	304.21	887.09	0.81
19675	304.21	886.92	0.81
19650	304.21	886.76	0.81
19625	304.21	886.54	0.81
19600	304.21	886.37	0.81
19575	304.21	886.21	0.81
19550	304.21	886.04	0.81
19525	304.21	885.78	0.81
19500	304.21	885.62	0.81
19475	304.21	885.46	0.81
19450	304.21	885.28	0.81
19425	304.21	885.12	0.81
19400	304.21	884.95	0.81
19375	304.21	884.78	0.81
19350	304.21	884.6	0.81
19325	304.21	884.43	0.81
19300	304.21	884.25	0.81
19275	304.21	884.07	0.81
19250	304.21	883.86	0.81
19225	304.21	883.65	0.81
19200	304.21	883.48	0.81
19175	304.21	883.3	0.81
19150	304.21	883.11	0.81
19125	304.21	882.92	0.81
19100	304.21	882.73	0.81
19075	304.21	882.62	0.81
19050	304.21	882.43	0.81
19025	304.21	882.19	0.81
19000	304.21	882.06	0.81
18975	304.21	881.88	0.81
18950	304.21	881.68	0.81
18925	304.21	881.49	0.81
18900	304.21	881.28	0.81
18875	304.21	881.09	0.81
18850	304.21	880.89	0.81
18825	304.21	880.78	0.81
18800	304.21	880.58	0.81
18775	304.21	880.38	0.81
18750	304.21	880.19	0.81
18725	304.21	879.99	0.81
18700	304.21	879.76	0.81
18675	304.21	879.61	0.81
18650	304.21	879.38	0.81
18625	304.21	879.24	0.81
18600	304.21	879.03	0.81
18575	304.21	878.87	0.81
18550	304.21	878.68	0.81
18525	304.21	878.46	0.81
18500	304.21	878.3	0.81
18475	304.21	878.11	0.81
18450	304.21	877.88	0.81
18425	304.21	877.73	0.81
18400	304.21	877.5	0.81
18375	304.21	877.36	0.81
18350	304.21	877.14	0.81
18325	304.21	876.99	0.81
18300	304.21	876.78	0.81
18275	304.21	876.56	0.81
18250	304.21	876.35	0.81
18225	304.21	876.22	0.81
18200	304.21	876	0.81
18175	304.21	875.78	0.81
18150	304.21	875.58	0.81
18125	304.21	875.42	0.81
18100	304.21	875.2	0.81
18075	304.21	875.05	0.81
18050	304.21	874.83	0.81
18025	304.21	874.62	0.81
18000	304.21	874.46	0.81
17975	304.21	874.23	0.81
17950	304.21	874.01	0.81
17925	304.21	873.87	0.81
17900	304.21	873.63	0.81
17875	304.21	873.48	0.81
17850	304.21	873.25	0.81
17825	304.21	873.02	0.81
17800	304.21	872.83	0.81
17775	304.21	872.68	0.81
17750	304.21	872.45	0.81
17725	304.21	872.29	0.81
17700	304.21	872.08	0.81
17675	304.21	871.84	0.81
17650	304.21	871.68	0.81
17625	304.21	871.44	0.81
17600	304.21	871.23	0.81
17575	304.21	871.06	0.81
17550	304.21	870.86	0.81
17525	304.21	870.66	0.82
17500	304.21	870.48	0.82
17475	304.21	870.29	0.82
17450	304.21	870.09	0.82
17425	304.21	869.89	0.82
17400	304.21	869.69	0.82
17375	304.21	869.42	0.82
17350	304.21	869.28	0.82
17325	304.21	869.01	0.82
17300	304.21	868.87	0.82
17275	304.21	868.66	0.82
17250	304.21	868.43	0.82
17225	304.21	868.2	0.82
17200	304.21	867.99	0.82
17175	304.21	867.77	0.82
17150	304.21	867.63	0.82
17125	304.21	867.4	0.82
17100	304.21	867.2	0.82
17075	304.21	866.99	0.82
17050	304.21	866.78	0.82
17025	304.21	866.56	0.82
17000	304.21	866.34	0.82
16975	304.21	866.12	0.82
16950	304.21	865.9	0.82
16925	304.21	865.7	0.82
16900	304.21	865.51	0.82
16875	304.21	865.26	0.82
16850	304.21	865.05	0.82
16825	304.21	864.86	0.82
16800	304.21	864.63	0.82
16775	304.21	864.47	0.82
16750	304.21	864.2	0.82
16725	304.21	864.02	0.82
16700	304.21	863.76	0.82
16675	304.21	863.56	0.82
16650	304.21	863.26	0.82
16625	304.21	863.08	0.82
16600	304.21	862.9	0.82
16575	304.21	862.62	0.82
16550	304.21	862.42	0.82
16525	304.21	862.21	0.82
16500	304.21	862.01	0.82
16475	304.21	861.85	0.82
16450	304.21	861.65	0.82
16425	304.21	861.43	0.82
16400	304.21	861.22	0.82
16375	304.21	861.01	0.82
16350	304.21	860.83	0.82
16325	304.21	860.63	0.82
16300	304.21	860.35	0.82
16275	304.21	860.2	0.82
16250	304.21	859.97	0.82
16225	304.21	859.74	0.82
16200	304.21	859.52	0.82
16175	304.21	859.32	0.82
16150	304.21	859.07	0.82
16125	304.21	858.84	0.82
16100	304.21	858.66	0.82
16075	304.21	858.44	0.82
16050	304.21	858.19	0.82
16025	304.21	857.95	0.82
16000	304.21	857.77	0.82
15975	304.21	857.56	0.82
15950	304.21	857.32	0.82
15925	304.21	857.08	0.82
15900	304.21	856.93	0.82
15875	304.21	856.68	0.82
15850	304.21	856.41	0.82
15825	304.21	856.2	0.82
15800	304.21	855.96	0.82
15775	304.21	855.71	0.82
15750	304.21	855.49	0.82
15725	304.21	855.3	0.82
15700	304.21	855.06	0.82
15675	304.21	854.81	0.82
15650	304.21	854.57	0.82
15625	304.21	854.39	0.82
15600	304.21	854.15	0.82
15575	304.21	853.89	0.82
15550	304.21	853.64	0.82
15525	304.21	853.4	0.82
15500	304.21	853.2	0.82
15475	304.21	852.92	0.82
15450	304.21	852.7	0.82
15425	304.21	852.43	0.82
15400	304.21	852.22	0.82
15375	304.21	851.98	0.82
15350	304.21	851.79	0.82
15325	304.21	851.51	0.82
15300	304.21	851.23	0.82
15275	304.21	851.04	0.82
15250	304.21	850.76	0.82
15225	304.21	850.56	0.82
15200	304.21	850.3	0.82
15175	304.21	850.04	0.82
15150	304.21	849.76	0.82
15125	304.21	849.56	0.82
15100	304.21	849.3	0.82
15075	304.21	849.02	0.82
15050	304.21	848.76	0.82
15025	304.21	848.51	0.82
15000	304.21	848.29	0.82
14975	304.21	848	0.82
14950	304.21	847.71	0.82
14925	304.21	847.52	0.82
14900	304.21	847.24	0.82
14875	304.21	846.98	0.82
14850	304.21	846.73	0.82
14825	304.21	846.5	0.82
14800	304.21	846.19	0.82
14775	304.21	845.96	0.82
14750	304.21	845.72	0.82
14725	304.21	845.44	0.82
14700	304.21	845.17	0.82
14675	304.21	844.86	0.82
14650	304.21	844.61	0.82
14625	304.21	844.38	0.82
14600	304.21	844.14	0.82
14575	304.21	843.9	0.82
14550	304.21	843.58	0.82
14525	304.21	843.34	0.82
14500	304.21	843.08	0.82
14475	304.21	842.78	0.82
14450	304.21	842.52	0.82
14425	304.21	842.27	0.82
14400	304.21	842.04	0.82
14375	304.21	841.72	0.82
14350	304.21	841.49	0.82
14325	304.21	841.24	0.82
14300	304.21	840.92	0.82
14275	304.21	840.68	0.82
14250	304.21	840.43	0.82
14225	304.21	840.12	0.82
14200	304.21	839.87	0.82
14175	304.21	839.62	0.82
14150	304.21	839.31	0.82
14125	304.21	839.03	0.82
14100	304.21	838.78	0.82
14075	304.21	838.5	0.82
14050	304.21	838.19	0.82
14025	304.21	837.92	0.82
14000	304.21	837.64	0.82
13975	304.21	837.35	0.82
13950	304.21	837.08	0.82
13925	304.21	836.81	0.82
13900	304.21	836.51	0.82
13875	304.21	836.22	0.82
13850	304.21	836.06	0.82
13825	304.21	835.86	0.82
13800	304.21	835.64	0.82
13775	304.21	835.42	0.82
13750	304.21	835.2	0.82
13725	304.21	834.9	0.82
13700	304.21	834.66	0.82
13675	304.21	834.42	0.82
13650	304.21	834.12	0.82
13625	304.21	833.85	0.82
13600	304.21	833.6	0.82
13575	304.21	833.35	0.82
13550	304.21	833.09	0.82
13525	304.21	832.83	0.82
13500	304.21	832.56	0.82
13475	304.21	832.3	0.82
13450	304.21	832.03	0.82
13425	304.21	831.75	0.82
13400	304.21	831.47	0.82
13375	304.21	831.19	0.82
13350	304.21	830.91	0.82
13325	304.21	830.63	0.82
13300	304.21	830.33	0.82
13275	304.21	830.06	0.82
13250	304.21	829.81	0.82
13225	304.21	829.5	0.82
13200	304.21	829.21	0.82
13175	304.21	828.91	0.82
13150	304.21	828.59	0.82
13125	304.21	828.34	0.82
13100	304.21	828.02	0.82
13075	304.21	827.74	0.82
13050	304.21	827.45	0.82
13025	304.21	827.19	0.82
13000	304.21	826.85	0.82
12975	304.21	826.52	0.82
12950	304.21	826.28	0.82
12925	304.21	825.97	0.82
12900	304.21	825.66	0.82
12875	304.21	825.36	0.82
12850	304.21	825.02	0.82
12825	304.21	824.72	0.82
12800	304.21	824.43	0.82
12775	304.21	824.13	0.82
12750	304.21	823.79	0.82
12725	304.21	823.45	0.82
12700	304.21	823.18	0.82
12675	304.21	822.85	0.82
12650	304.21	822.53	0.82
12625	304.21	822.23	0.82
12600	304.21	821.94	0.82
12575	304.21	821.61	0.82
12550	304.21	821.24	0.82
12525	304.21	820.93	0.82
12500	304.21	820.61	0.82
12475	304.21	820.29	0.82
12450	304.21	819.95	0.82
12425	304.21	819.62	0.82
12400	304.21	819.29	0.82
12375	304.21	818.95	0.82
12350	304.21	818.61	0.82
12325	304.21	818.27	0.82
12300	304.21	817.94	0.82
12275	304.21	817.54	0.82
12250	304.21	817.23	0.82
12225	304.21	816.89	0.82
12200	304.21	816.54	0.82
12175	304.21	816.22	0.82
12150	304.21	815.82	0.82
12125	304.21	815.5	0.82
12100	304.21	815.17	0.82
12075	304.21	814.76	0.82
12050	304.21	814.43	0.82
12025	304.21	814.08	0.82
12000	304.21	813.7	0.82
11975	304.21	813.33	0.82
11950	304.21	812.98	0.82
11925	304.21	812.53	0.82
11900	304.21	812.25	0.82
11875	304.21	811.83	0.82
11850	304.21	811.47	0.82
11825	304.21	811.11	0.82
11800	304.21	810.74	0.82
11775	304.21	810.37	0.82
11750	304.21	810	0.82
11725	304.21	809.62	0.82
11700	304.21	809.25	0.82
11675	304.21	808.81	0.82
11650	304.21	808.41	0.82
11625	304.21	808.01	0.82
11600	304.21	807.66	0.82
11575	304.21	807.3	0.82
11550	304.21	806.91	0.82
11525	304.21	806.52	0.82
11500	304.21	806.12	0.82
11475	304.21	805.69	0.82
11450	304.21	805.27	0.82
11425	304.21	804.93	0.82
11400	304.21	804.56	0.82
11375	304.21	804.09	0.82
11350	304.21	803.73	0.82
11325	304.21	803.31	0.82
11300	304.21	802.86	0.82
11275	304.21	802.5	0.82
11250	304.21	802.05	0.82
11225	304.21	801.64	0.82
11200	304.21	801.23	0.82
11175	304.21	800.8	0.82
11150	304.21	800.45	0.82
11125	304.21	799.99	0.82
11100	304.21	799.63	0.82
11075	304.21	799.17	0.82
11050	304.21	798.73	0.82
11025	304.21	798.32	0.82
11000	304.21	797.93	0.82
10975	304.21	797.53	0.82
10950	304.21	797.06	0.82
10925	304.21	796.66	0.82
10900	304.21	796.21	0.82
10875	304.21	795.84	0.82
10850	304.21	795.38	0.82
10825	304.21	794.91	0.82
10800	304.21	794.49	0.82
10775	304.21	794.08	0.82
10750	304.21	793.67	0.82
10725	304.21	793.26	0.82
10700	304.21	792.79	0.82
10675	304.21	792.32	0.82
10650	304.21	791.91	0.82
10625	304.21	791.47	0.82
10600	304.21	791.05	0.82
10575	304.21	790.6	0.82
10550	304.21	790.18	0.82
10525	304.21	789.73	0.82
10500	304.21	789.3	0.82
10475	304.21	788.87	0.82
10450	304.21	788.38	0.82
10425	304.21	787.92	0.82
10400	304.21	787.51	0.82
10375	304.21	787.08	0.82
10350	304.21	786.55	0.82
10325	304.21	786.13	0.82
10300	304.21	785.65	0.82
10275	304.21	785.18	0.82
10250	304.21	784.67	0.82
10225	304.21	784.17	0.82
10200	304.21	783.77	0.82
10175	304.21	783.3	0.82
10150	304.21	782.79	0.82
10125	304.21	782.29	0.82
10100	304.21	781.81	0.82
10075	304.21	781.33	0.82
10050	304.21	780.81	0.82
10025	304.21	780.3	0.82
10000	304.21	779.86	0.82
9975	304.21	779.32	0.82
9950	304.21	778.83	0.82
9925	304.21	778.36	0.82
9900	304.21	777.81	0.82
9875	304.21	777.3	0.82
9850	304.21	776.81	0.82
9825	304.21	776.25	0.82
9800	304.21	775.72	0.82
9775	304.21	775.2	0.82
9750	304.21	774.65	0.82
9725	304.21	774.15	0.82
9700	304.21	773.62	0.82
9675	304.21	773.03	0.82
9650	304.21	772.5	0.82
9625	304.21	771.96	0.82
9600	304.21	771.35	0.82
9575	304.21	770.76	0.82
9550	304.21	770.22	0.82
9525	304.21	769.73	0.82
9500	304.21	769.12	0.82
9475	304.21	768.6	0.82
9450	304.21	768.06	0.82
9425	304.21	767.44	0.82
9400	304.21	766.88	0.82
9375	304.21	766.27	0.82
9350	304.21	765.65	0.82
9325	304.21	764.98	0.82
9300	304.21	764.36	0.82
9275	304.21	763.76	0.82
9250	304.21	763.15	0.82
9225	304.21	762.52	0.82
9200	304.21	761.88	0.82
9175	304.21	761.24	0.82
9150	304.21	760.55	0.82
9125	304.21	759.92	0.82
9100	304.21	759.25	0.82
9075	304.21	758.64	0.82
9050	304.21	757.93	0.82
9025	304.21	757.25	0.82
9000	304.21	756.48	0.82
8975	304.21	755.82	0.82
8950	304.21	755.11	0.82
8925	304.21	754.39	0.82
8900	304.21	753.68	0.82
8875	304.21	752.97	0.82
8850	304.21	752.22	0.82
8825	304.21	751.52	0.82
8800	304.21	750.73	0.82
8775	304.21	749.97	0.82
8750	304.21	749.21	0.82
8725	304.21	748.5	0.82
8700	304.21	747.67	0.82
8675	304.21	746.89	0.82
8650	304.21	746.1	0.82
8625	304.21	745.32	0.82
8600	304.21	744.47	0.82
8575	304.21	743.65	0.82
8550	304.21	742.83	0.82
8525	304.21	741.99	0.82
8500	304.21	741.14	0.82
8475	304.21	740.29	0.82
8450	304.21	739.43	0.82
8425	304.21	738.51	0.82
8400	304.21	737.68	0.82
8375	304.21	736.81	0.82
8350	304.21	735.91	0.82
8325	304.21	735.01	0.82
8300	304.21	734.02	0.82
8275	304.21	733.11	0.83
8250	304.21	732.12	0.83
8225	304.21	731.15	0.83
8200	304.21	730.14	0.83
8175	304.21	729.1	0.83
8150	304.21	728.01	0.83
8125	304.21	726.93	0.83
8100	304.21	725.92	0.83
8075	304.21	724.91	0.83
8050	304.21	723.78	0.83
8025	304.21	722.66	0.83
8000	304.21	721.57	0.83
7975	304.21	720.37	0.83
7950	304.21	719.19	0.83
7925	304.21	717.99	0.83
7900	304.21	716.69	0.83
7875	304.21	715.24	0.83
7850	304.21	713.81	0.83
20000	313.15	846.53	0.82
19975	313.15	846.29	0.82
19950	313.15	846.1	0.82
19925	313.15	845.91	0.82
19900	313.15	845.69	0.82
19875	313.15	845.47	0.82
19850	313.15	845.27	0.82
19825	313.15	845.06	0.82
19800	313.15	844.89	0.82
19775	313.15	844.64	0.82
19750	313.15	844.43	0.82
19725	313.15	844.25	0.82
19700	313.15	844.02	0.82
19675	313.15	843.84	0.82
19650	313.15	843.59	0.82
19625	313.15	843.37	0.82
19600	313.15	843.19	0.82
19575	313.15	842.96	0.82
19550	313.15	842.75	0.82
19525	313.15	842.53	0.82
19500	313.15	842.31	0.82
19475	313.15	842.08	0.82
19450	313.15	841.84	0.82
19425	313.15	841.61	0.82
19400	313.15	841.4	0.82
19375	313.15	841.18	0.82
19350	313.15	840.94	0.82
19325	313.15	840.71	0.82
19300	313.15	840.49	0.82
19275	313.15	840.27	0.82
19250	313.15	840.03	0.82
19225	313.15	839.82	0.82
19200	313.15	839.61	0.82
19175	313.15	839.32	0.82
19150	313.15	839.12	0.82
19125	313.15	838.87	0.82
19100	313.15	838.61	0.82
19075	313.15	838.38	0.82
19050	313.15	838.15	0.82
19025	313.15	837.93	0.82
19000	313.15	837.72	0.82
18975	313.15	837.47	0.82
18950	313.15	837.22	0.82
18925	313.15	837.02	0.82
18900	313.15	836.78	0.82
18875	313.15	836.55	0.82
18850	313.15	836.28	0.82
18825	313.15	836.06	0.82
18800	313.15	835.84	0.82
18775	313.15	835.62	0.82
18750	313.15	835.38	0.82
18725	313.15	835.15	0.82
18700	313.15	834.94	0.82
18675	313.15	834.69	0.82
18650	313.15	834.43	0.82
18625	313.15	834.2	0.82
18600	313.15	833.97	0.82
18575	313.15	833.75	0.82
18550	313.15	833.5	0.82
18525	313.15	833.28	0.82
18500	313.15	833.03	0.82
18475	313.15	832.8	0.82
18450	313.15	832.53	0.82
18425	313.15	832.31	0.82
18400	313.15	832.11	0.82
18375	313.15	831.85	0.82
18350	313.15	831.62	0.82
18325	313.15	831.37	0.82
18300	313.15	831.12	0.82
18275	313.15	830.86	0.82
18250	313.15	830.62	0.82
18225	313.15	830.35	0.82
18200	313.15	830.13	0.82
18175	313.15	829.87	0.82
18150	313.15	829.59	0.82
18125	313.15	829.36	0.82
18100	313.15	829.11	0.82
18075	313.15	828.84	0.82
18050	313.15	828.6	0.82
18025	313.15	828.35	0.82
18000	313.15	828.1	0.82
17975	313.15	827.85	0.82
17950	313.15	827.61	0.82
17925	313.15	827.38	0.82
17900	313.15	827.14	0.82
17875	313.15	826.87	0.82
17850	313.15	826.64	0.82
17825	313.15	826.41	0.82
17800	313.15	826.17	0.82
17775	313.15	825.94	0.82
17750	313.15	825.67	0.82
17725	313.15	825.45	0.82
17700	313.15	825.17	0.82
17675	313.15	824.95	0.82
17650	313.15	824.71	0.82
17625	313.15	824.46	0.82
17600	313.15	824.21	0.82
17575	313.15	823.99	0.82
17550	313.15	823.71	0.82
17525	313.15	823.52	0.82
17500	313.15	823.28	0.82
17475	313.15	823.11	0.82
17450	313.15	822.87	0.82
17425	313.15	822.65	0.82
17400	313.15	822.42	0.82
17375	313.15	822.18	0.82
17350	313.15	821.98	0.82
17325	313.15	821.73	0.82
17300	313.15	821.48	0.83
17275	313.15	821.23	0.83
17250	313.15	821	0.83
17225	313.15	820.77	0.83
17200	313.15	820.54	0.83
17175	313.15	820.32	0.83
17150	313.15	820.09	0.83
17125	313.15	819.79	0.83
17100	313.15	819.55	0.83
17075	313.15	819.27	0.83
17050	313.15	819.06	0.83
17025	313.15	818.81	0.83
17000	313.15	818.55	0.83
16975	313.15	818.28	0.83
16950	313.15	818.05	0.83
16925	313.15	817.8	0.83
16900	313.15	817.54	0.83
16875	313.15	817.27	0.83
16850	313.15	817	0.83
16825	313.15	816.74	0.83
16800	313.15	816.46	0.83
16775	313.15	816.22	0.83
16750	313.15	815.94	0.83
16725	313.15	815.67	0.83
16700	313.15	815.43	0.83
16675	313.15	815.12	0.83
16650	313.15	814.87	0.83
16625	313.15	814.6	0.83
16600	313.15	814.33	0.83
16575	313.15	814.03	0.83
16550	313.15	813.76	0.83
16525	313.15	813.5	0.83
16500	313.15	813.24	0.83
16475	313.15	812.9	0.83
16450	313.15	812.66	0.83
16425	313.15	812.38	0.83
16400	313.15	812.11	0.83
16375	313.15	811.82	0.83
16350	313.15	811.55	0.83
16325	313.15	811.27	0.83
16300	313.15	810.98	0.83
16275	313.15	810.69	0.83
16250	313.15	810.39	0.83
16225	313.15	810.09	0.83
16200	313.15	809.79	0.83
16175	313.15	809.5	0.83
16150	313.15	809.2	0.83
16125	313.15	808.91	0.83
16100	313.15	808.61	0.83
16075	313.15	808.29	0.83
16050	313.15	807.98	0.83
16025	313.15	807.71	0.83
16000	313.15	807.41	0.83
15975	313.15	807.09	0.83
15950	313.15	806.83	0.83
15925	313.15	806.51	0.83
15900	313.15	806.23	0.83
15875	313.15	805.91	0.83
15850	313.15	805.58	0.83
15825	313.15	805.27	0.83
15800	313.15	804.99	0.83
15775	313.15	804.65	0.83
15750	313.15	804.34	0.83
15725	313.15	804.02	0.83
15700	313.15	803.73	0.83
15675	313.15	803.42	0.83
15650	313.15	803.12	0.83
15625	313.15	802.79	0.83
15600	313.15	802.47	0.83
15575	313.15	802.17	0.83
15550	313.15	801.84	0.83
15525	313.15	801.53	0.83
15500	313.15	801.17	0.83
15475	313.15	800.87	0.83
15450	313.15	800.53	0.83
15425	313.15	800.19	0.83
15400	313.15	799.88	0.83
15375	313.15	799.54	0.83
15350	313.15	799.22	0.83
15325	313.15	798.91	0.83
15300	313.15	798.53	0.83
15275	313.15	798.26	0.83
15250	313.15	797.89	0.83
15225	313.15	797.52	0.83
15200	313.15	797.19	0.83
15175	313.15	796.89	0.83
15150	313.15	796.56	0.83
15125	313.15	796.2	0.83
15100	313.15	795.8	0.83
15075	313.15	795.5	0.83
15050	313.15	795.16	0.83
15025	313.15	794.78	0.83
15000	313.15	794.4	0.83
14975	313.15	794.09	0.83
14950	313.15	793.74	0.83
14925	313.15	793.37	0.83
14900	313.15	793.03	0.83
14875	313.15	792.64	0.83
14850	313.15	792.31	0.83
14825	313.15	791.96	0.83
14800	313.15	791.65	0.83
14775	313.15	791.25	0.83
14750	313.15	790.91	0.83
14725	313.15	790.55	0.83
14700	313.15	790.23	0.83
14675	313.15	789.86	0.83
14650	313.15	789.51	0.83
14625	313.15	789.1	0.83
14600	313.15	788.78	0.83
14575	313.15	788.43	0.83
14550	313.15	788.05	0.83
14525	313.15	787.73	0.83
14500	313.15	787.34	0.83
14475	313.15	787.01	0.83
14450	313.15	786.66	0.83
14425	313.15	786.27	0.83
14400	313.15	785.88	0.83
14375	313.15	785.52	0.83
14350	313.15	785.15	0.83
14325	313.15	784.77	0.83
14300	313.15	784.39	0.83
14275	313.15	784.01	0.83
14250	313.15	783.65	0.83
14225	313.15	783.28	0.83
14200	313.15	782.93	0.83
14175	313.15	782.55	0.83
14150	313.15	782.18	0.83
14125	313.15	781.8	0.83
14100	313.15	781.44	0.83
14075	313.15	781.06	0.83
14050	313.15	780.67	0.83
14025	313.15	780.28	0.83
14000	313.15	779.85	0.83
13975	313.15	779.47	0.83
13950	313.15	779.11	0.83
13925	313.15	778.72	0.83
13900	313.15	778.33	0.83
13875	313.15	777.93	0.83
13850	313.15	777.52	0.83
13825	313.15	777.12	0.83
13800	313.15	776.72	0.83
13775	313.15	776.36	0.83
13750	313.15	776	0.83
13725	313.15	775.57	0.83
13700	313.15	775.16	0.83
13675	313.15	774.79	0.83
13650	313.15	774.36	0.83
13625	313.15	773.92	0.83
13600	313.15	773.57	0.83
13575	313.15	773.15	0.83
13550	313.15	772.7	0.83
13525	313.15	772.34	0.83
13500	313.15	771.93	0.83
13475	313.15	771.5	0.83
13450	313.15	771.07	0.83
13425	313.15	770.69	0.83
13400	313.15	770.23	0.83
13375	313.15	769.83	0.83
13350	313.15	769.37	0.83
13325	313.15	768.93	0.83
13300	313.15	768.47	0.83
13275	313.15	768.04	0.83
13250	313.15	767.6	0.83
13225	313.15	767.22	0.83
13200	313.15	766.75	0.83
13175	313.15	766.29	0.83
13150	313.15	765.86	0.83
13125	313.15	765.37	0.83
13100	313.15	764.93	0.83
13075	313.15	764.54	0.83
13050	313.15	764.07	0.83
13025	313.15	763.58	0.83
13000	313.15	763.15	0.83
12975	313.15	762.72	0.83
12950	313.15	762.23	0.83
12925	313.15	761.76	0.83
12900	313.15	761.3	0.83
12875	313.15	760.82	0.83
12850	313.15	760.36	0.83
12825	313.15	759.98	0.83
12800	313.15	759.54	0.83
12775	313.15	759.12	0.83
12750	313.15	758.68	0.83
12725	313.15	758.3	0.83
12700	313.15	757.86	0.83
12675	313.15	757.39	0.83
12650	313.15	756.92	0.83
12625	313.15	756.47	0.83
12600	313.15	756	0.83
12575	313.15	755.53	0.83
12550	313.15	755.09	0.83
12525	313.15	754.59	0.83
12500	313.15	754.12	0.83
12475	313.15	753.64	0.83
12450	313.15	753.18	0.83
12425	313.15	752.63	0.83
12400	313.15	752.14	0.83
12375	313.15	751.63	0.83
12350	313.15	751.14	0.83
12325	313.15	750.56	0.83
12300	313.15	750.05	0.83
12275	313.15	749.5	0.83
12250	313.15	749.04	0.83
12225	313.15	748.48	0.83
12200	313.15	747.95	0.83
12175	313.15	747.4	0.83
12150	313.15	746.78	0.83
12125	313.15	746.23	0.83
12100	313.15	745.65	0.83
12075	313.15	745.12	0.83
12050	313.15	744.51	0.83
12025	313.15	743.98	0.83
12000	313.15	743.38	0.83
11975	313.15	742.81	0.83
11950	313.15	742.23	0.83
11925	313.15	741.62	0.83
11900	313.15	741.01	0.83
11875	313.15	740.42	0.83
11850	313.15	739.81	0.83
11825	313.15	739.2	0.83
11800	313.15	738.59	0.83
11775	313.15	738.01	0.83
11750	313.15	737.41	0.83
11725	313.15	736.79	0.83
11700	313.15	736.24	0.83
11675	313.15	735.62	0.83
11650	313.15	734.97	0.83
11625	313.15	734.36	0.83
11600	313.15	733.75	0.83
11575	313.15	733.12	0.83
11550	313.15	732.54	0.83
11525	313.15	731.88	0.83
11500	313.15	731.23	0.83
11475	313.15	730.56	0.83
11450	313.15	729.89	0.83
11425	313.15	729.26	0.83
11400	313.15	728.58	0.83
11375	313.15	727.87	0.83
11350	313.15	727.24	0.83
11325	313.15	726.55	0.83
11300	313.15	725.87	0.83
11275	313.15	725.17	0.83
11250	313.15	724.5	0.83
11225	313.15	723.83	0.83
11200	313.15	723.12	0.83
11175	313.15	722.44	0.83
11150	313.15	721.68	0.83
11125	313.15	720.97	0.83
11100	313.15	720.27	0.83
11075	313.15	719.52	0.83
11050	313.15	718.76	0.83
11025	313.15	718.03	0.83
11000	313.15	717.28	0.83
10975	313.15	716.52	0.83
10950	313.15	715.71	0.84
10925	313.15	714.94	0.84
10900	313.15	714.15	0.84
10875	313.15	713.33	0.84
10850	313.15	712.55	0.84
10825	313.15	711.74	0.84
10800	313.15	710.93	0.84
10775	313.15	710.14	0.84
10750	313.15	709.33	0.84
10725	313.15	708.5	0.84
10700	313.15	707.66	0.84
10675	313.15	706.75	0.84
10650	313.15	705.9	0.84
10625	313.15	705.05	0.84
10600	313.15	704.13	0.84
10575	313.15	703.29	0.84
10550	313.15	702.39	0.84
10525	313.15	701.51	0.84
10500	313.15	700.62	0.84
10475	313.15	699.66	0.84
10450	313.15	698.73	0.84
10425	313.15	697.78	0.84
10400	313.15	696.92	0.84
10375	313.15	695.92	0.84
10350	313.15	694.91	0.84
10325	313.15	693.97	0.84
10300	313.15	693	0.84
10275	313.15	691.93	0.84
10250	313.15	690.95	0.84
10225	313.15	689.94	0.84
10200	313.15	688.8	0.84
10175	313.15	687.88	0.84
10150	313.15	686.83	0.84
10125	313.15	685.84	0.84
10100	313.15	684.8	0.84
10075	313.15	683.7	0.84
10050	313.15	682.54	0.84
10025	313.15	681.48	0.84
10000	313.15	680.33	0.84
9975	313.15	679.1	0.84
9950	313.15	677.96	0.84
9925	313.15	676.66	0.84
9900	313.15	675.44	0.84
9875	313.15	674.13	0.84
9850	313.15	672.87	0.84
9825	313.15	671.58	0.84
9800	313.15	670.26	0.84
9775	313.15	668.89	0.84
9750	313.15	667.47	0.84
9725	313.15	666.14	0.84
9700	313.15	664.7	0.84
9675	313.15	663.21	0.84
9650	313.15	661.7	0.84
9625	313.15	660.18	0.84
9600	313.15	658.64	0.84
9575	313.15	657.12	0.84
9550	313.15	655.55	0.84
9525	313.15	653.94	0.84
9500	313.15	652.27	0.84
9475	313.15	650.62	0.84
9450	313.15	648.9	0.84
9425	313.15	646.98	0.84
9400	313.15	645.2	0.85
9375	313.15	643.26	0.85
9350	313.15	641.4	0.85
9325	313.15	639.32	0.85
9300	313.15	637.48	0.85
9275	313.15	635.44	0.85
9250	313.15	633.38	0.85
9225	313.15	631.2	0.85
9200	313.15	629	0.85
9175	313.15	626.69	0.85
9150	313.15	624.11	0.85
9125	313.15	621.62	0.85
9100	313.15	619.14	0.85
9075	313.15	616.51	0.85
9050	313.15	613.79	0.85
9025	313.15	611	0.85
9000	313.15	608.05	0.85
8975	313.15	604.9	0.85
8950	313.15	601.87	0.85
8925	313.15	598.87	0.85
8900	313.15	595.4	0.85
8875	313.15	591.7	0.85
8850	313.15	587.78	0.86
8825	313.15	583.78	0.86
8800	313.15	580.21	0.86
8775	313.15	576	0.86
8750	313.15	571.39	0.86
8725	313.15	566.94	0.86
8700	313.15	562.19	0.86
8675	313.15	556.46	0.86
8650	313.15	551.14	0.86
8625	313.15	544.56	0.86
8600	313.15	538.44	0.87
8575	313.15	531.85	0.87
8550	313.15	525.63	0.87
8525	313.15	518.43	0.87
8500	313.15	510.78	0.87
8475	313.15	503.03	0.87
8450	313.15	494.72	0.87
8425	313.15	486.09	0.87
8400	313.15	477.47	0.87
8375	313.15	468.68	0.87
