Measured thermophysical data. Solubility of gases in 1-alkyl-3methylimidazolium alkyl sulfate ionic liquids:  Experimental determination and modeling
Source: J. Chem. Thermodyn., 2013, 10.1016/j.jct.2012.11.018
Compound 1: 1-ethyl-3-methylimidazolium ethyl sulfate, C8H16N2O4S, InChI=1S/C6H11N2.C2H6O4S/c1-3-8-5-4-7(2)6-8;1-2-6-7(3,4)5/h4-6H,3H2,1-2H3;2H2,1H3,(H,3,4,5)/q+1;/p-1, purity 99.7%
Compound 2: methane, CH4, InChI=1S/CH4/h1H4, purity 99.999%
Compound 3: carbon dioxide, CO2, InChI=1S/CO2/c2-1-3, purity 99.999%
Compound 4: ethane, C2H6, InChI=1S/C2H6/c1-2/h1-2H3, purity 99.95%

System: methane + 1-ethyl-3-methylimidazolium ethyl sulfate; phases: Liquid, Gas
Property: Mole fraction of methane (Liquid); method: gravimetric
Temperature, K	Pressure, kPa	Mole fraction of methane	uncertainty
293.14	198	0.0013	0.0004
293.63	504	0.0024	0.0004
292.77	1014	0.0044	0.0004
293	1522	0.0072	0.0004
293.12	2029	0.01	0.0004
292.31	4980	0.0261	0.0007
292.46	7560	0.0319	0.0008
292.37	10150	0.0405	0.0008

System: carbon dioxide + 1-ethyl-3-methylimidazolium ethyl sulfate; phases: Liquid, Gas
Property: Mole fraction of carbon dioxide (Liquid); method: gravimetric
Temperature, K	Pressure, kPa	Mole fraction of carbon dioxide	uncertainty
298.14	508	0.0612	0.0004
298.24	1019	0.1029	0.0004
298.17	1528	0.1471	0.0004
298.04	2035	0.1939	0.0005
347.62	352	0.022	0.006
347.57	360	0.0174	0.0012
347.61	705	0.0384	0.0007
347.6	718	0.0348	0.0007
347.65	719	0.0351	0.0006
347.76	1224	0.0611	0.0004
347.82	1996	0.0918	0.0005
347.78	2026	0.0901	0.0005
348.15	2034	0.0879	0.0007
348.15	2514	0.0966	0.0004
347.86	3534	0.1414	0.0008
348.08	3539	0.1439	0.0008
347.71	4994	0.1818	0.0005
347.99	5076	0.1818	0.0005
347.94	6495	0.2089	0.0004

System: ethane + 1-ethyl-3-methylimidazolium ethyl sulfate; phases: Liquid, Gas
Property: Mole fraction of ethane (Liquid); method: gravimetric
Temperature, K	Pressure, kPa	Mole fraction of ethane	uncertainty
322.76	210	0.0016	0.0004
322.89	520	0.0055	0.0004
322.94	1020	0.0118	0.0004
323.15	1732	0.021	0.0004
323.04	2516	0.025	0.0004
322.84	3054	0.0277	0.0004
349.95	213	0.0022	0.0004
349.95	519	0.0062	0.0004
349.98	1028	0.0113	0.0004
349.9	1727	0.0194	0.0004
349.97	2531	0.0273	0.0004
349.73	3092	0.0309	0.0004
349.84	4006	0.0369	0.0004
