Measured thermophysical data. Adiabatic calorimeter for isochoric specific heat capacity measurements and experimental data of compressed liquid R1234yf
Source: J. Chem. Thermodyn., 2018, 10.1016/j.jct.2018.05.022
Compound 1: propane, C3H8, InChI=1S/C3H8/c1-3-2/h3H2,1-2H3, purity 99.9%
Compound 2: 2,3,3,3-tetrafluoro-1-propene, C3H2F4, InChI=1S/C3H2F4/c1-2(4)3(5,6)7/h1H2, purity 99.9%

System: propane; phases: Liquid
Property: Molar heat capacity at constant volume, J/K/mol (Liquid); method: Vacuum adiabatic calorimetry
Temperature, K	Pressure, kPa	Molar heat capacity at constant volume, J/K/mol	uncertainty
236.31	2219	65.79066504	1.27877298
238.69	4211	66.23162124	1.27877298
241.04	6180	66.67257744	1.3228686
243.36	8127	66.5843862	1.3228686
245.69	10074	66.93715116	1.3228686
250.09	2085	67.59858546	1.36696422
252.35	3780	68.1277329	1.41105984
254.59	5476	68.1277329	1.41105984
256.82	7162	67.9072548	1.41105984
259.03	8839	68.48049786	1.41105984
261.25	10512	68.61278472	1.41105984
264.41	2430	69.09783654	1.41105984
266.66	3950	69.18602778	1.41105984
268.92	5488	70.24432266	1.41105984
271.21	7042	70.3325139	1.41105984
273.5	8593	70.20022704	1.41105984
275.81	10155	70.552992	1.41105984
283.73	2629	71.61128688	1.3228686
287.25	4679	71.91995622	1.45515546
289.61	6040	71.96405184	1.41105984
291.99	7411	72.36091242	1.41105984
294.35	8774	72.84596424	1.45515546
296.69	10124	72.93415548	1.45515546
299	11450	73.24282482	1.45515546
301.28	12754	73.24282482	1.45515546
306.13	1912	74.69798028	1.45515546
308.58	3022	75.57989268	1.45515546
311.04	4140	75.6239883	1.45515546
313.5	5260	76.41770946	1.45515546
315.96	6379	76.54999632	1.45515546
318.43	7498	76.59409194	1.45515546
320.89	8615	77.52009996	1.45515546
323.37	9735	77.74057806	1.45515546
325.84	10852	78.18153426	1.45515546
328.28	11956	78.88706418	1.49925108
330.71	13052	79.32802038	1.49925108
332.33	10672	78.88706418	1.49925108
334.81	11722	79.8130722	1.49925108
337.26	12761	80.4745065	1.49925108
339.76	13813	80.65088898	1.49925108
284.6	1745	71.30261754	1.45515546
286.92	3057	71.8758606	1.45515546
289.25	4373	72.22862556	1.45515546
291.57	5681	72.3168168	1.45515546
293.9	6981	72.9782511	1.45515546
296.28	8309	73.15463358	1.41105984
298.66	9622	73.1987292	1.45515546
300.98	10901	74.34521532	1.45515546
303.33	12177	74.65388466	1.45515546
305.66	13418	75.09484086	1.45515546

System: 2,3,3,3-tetrafluoro-1-propene; phases: Liquid
Property: Molar heat capacity at constant volume, J/K/mol (Liquid); method: Vacuum adiabatic calorimetry
Temperature, K	Pressure, kPa	Molar heat capacity at constant volume, J/K/mol	uncertainty
240.93	2261	92.2596485752	1.5965822992
243.43	4295	92.2596485752	1.5965822992
245.94	6342	92.373690168	1.5965822992
248.38	8336	92.7158149464	1.710623892
250.77	10288	93.2860229104	1.710623892
255.49	1804	95.794937952	1.710623892
257.93	3569	97.505561844	1.710623892
260.34	5312	97.6196034368	1.710623892
262.77	7065	97.505561844	1.710623892
265.3	8891	98.645977772	1.710623892
267.88	10750	99.216185736	1.710623892
271.12	1842	101.3829759992	1.8246654848
273.64	3435	101.497017592	1.8246654848
276.14	5012	101.2689344064	1.8246654848
278.65	6595	102.2953087416	1.8246654848
281.16	8178	101.6110591848	1.8246654848
283.66	9754	102.5233919272	1.8246654848
286.19	11346	103.0935998912	1.710623892
289.3	1701	105.1463485616	1.8246654848
291.84	3037	105.48847334	1.8246654848
294.38	4378	105.3744317472	1.8246654848
296.96	5740	105.48847334	1.8246654848
299.7	7182	105.9446397112	1.710623892
302.46	8635	106.7429308608	1.8246654848
305.12	10039	106.2867644896	1.8246654848
307.78	11440	106.9710140464	1.8246654848
310.44	12837	107.5412220104	1.8246654848
312.59	3164	108.5675963456	1.8246654848
315.29	4301	108.7956795312	1.8246654848
317.99	5437	108.909721124	1.8246654848
320.68	6570	110.620345016	1.8246654848
323.36	7700	110.2782202376	1.8246654848
326.04	8827	110.620345016	1.8246654848
328.72	9952	112.2169273152	1.8246654848
331.41	11079	112.901176872	1.8246654848
334.09	12201	113.2433016504	1.8246654848
241.09	2247	91.803482204	1.5965822992
243.57	4255	92.2596485752	1.5965822992
246.04	6272	92.1456069824	1.5965822992
248.49	8272	93.0579397248	1.710623892
250.92	10256	93.4000645032	1.710623892
255.68	1821	96.4791875088	1.710623892
258.1	3572	96.4791875088	1.710623892
260.51	5317	97.1634370656	1.710623892
262.92	7055	98.5319361792	1.8246654848
265.35	8807	98.8740609576	1.710623892
267.77	10554	98.8740609576	1.8246654848
270.17	12276	99.5583105144	1.8246654848
273.54	1673	102.067225556	1.8246654848
275.98	3181	102.067225556	1.8246654848
278.43	4690	101.9531839632	1.8246654848
280.94	6231	102.63743352	1.8246654848
283.46	7781	102.7514751128	1.8246654848
285.91	9285	102.9795582984	1.8246654848
288.36	10789	104.0059326336	1.8246654848
291.52	1716	105.7165565256	1.8246654848
294.09	3043	106.4008060824	1.8246654848
296.67	4372	106.4008060824	1.8246654848
299.24	5702	106.9710140464	1.8246654848
301.83	7034	106.8569724536	1.8246654848
304.42	8365	107.5412220104	1.8246654848
307.01	9699	107.9973883816	1.8246654848
309.61	11035	108.33951316	1.8246654848
312.2	12365	108.7956795312	1.8246654848
315.28	1983	109.3658874952	1.8246654848
318.03	3065	109.7080122736	1.8246654848
320.8	4151	110.050137052	1.8246654848
323.57	5240	110.620345016	1.8246654848
326.35	6332	111.4186361656	1.8246654848
329.14	7427	112.6730936864	1.8246654848
331.93	8524	113.3573432432	1.8246654848
334.72	9619	113.471384836	1.8246654848
337.49	10709	113.6994680216	1.8246654848
340.26	11796	114.611800764	1.8246654848
