Measured thermophysical data. An experimental and modeling study of physical N2O solubility in 2-(ethylamino)ethanol
Source: J. Chem. Thermodyn., 2019, 10.1016/j.jct.2019.06.008
Compound 1: 2-(ethylamino)ethanol, C4H11NO, InChI=1S/C4H11NO/c1-2-5-3-4-6/h5-6H,2-4H2,1H3, purity 98%
Compound 2: nitrous oxide, N2O, InChI=1S/N2O/c1-2-3
Compound 3: water, H2O, InChI=1S/H2O/h1H2, purity 99.8%

System: 2-(ethylamino)ethanol + nitrous oxide; phases: Liquid, Gas
Property: Molality, mol/kg of nitrous oxide (Liquid); method: volumetric method
Temperature, K	Pressure, kPa of nitrous oxide	Molality, mol/kg of nitrous oxide	uncertainty
289.6	102.63	0.135	0.014
304.6	110.9	0.119	0.012
320	117.16	0.12	0.012
335.2	122.64	0.119	0.012
349.7	130.53	0.101	0.01

System: 2-(ethylamino)ethanol + water + nitrous oxide; phases: Liquid, Gas
Property: Molality, mol/kg of nitrous oxide (Liquid); method: volumetric method
Temperature, K	Pressure, kPa of nitrous oxide	Solvent: Mass fraction of 2-(ethylamino)ethanol	Molality, mol/kg of nitrous oxide	uncertainty
289.6	96.19	0	0.0336	0.0034
304.6	114.68	0	0.0259	0.0026
320	129.05	0	0.0202	0.002
335.2	141.3	0	0.0162	0.0016
349.7	154.22	0	0.0133	0.0013
289.6	104.6	0.075	0.0322	0.0032
304.6	114.33	0.075	0.0232	0.0023
320	122.06	0.075	0.0187	0.0019
335.2	129.32	0.075	0.0144	0.0014
349.7	135.67	0.075	0.0108	0.0011
289.6	118.73	0.15	0.0278	0.0028
304.6	128.89	0.15	0.0219	0.0022
320	135.89	0.15	0.0212	0.0021
335.2	144.59	0.15	0.0179	0.0018
349.7	152.65	0.15	0.0143	0.0014
289.6	103.47	0.3	0.0257	0.0026
304.6	112.75	0.3	0.0196	0.002
320	119.41	0.3	0.0166	0.0017
335.2	129.26	0.3	0.0155	0.0016
349.7	132.69	0.3	0.0136	0.0014
289.6	109.09	0.45	0.0225	0.0023
304.6	114.91	0.45	0.0202	0.0021
320	121.46	0.45	0.0173	0.0018
335.2	126.58	0.45	0.0162	0.0019
349.7	131.67	0.45	0.014	0.0019
289.6	117.66	0.6	0.0347	0.0035
304.6	131.72	0.6	0.0292	0.0029
320	137.96	0.6	0.0271	0.0027
335.2	148.68	0.6	0.0244	0.0024
349.7	152.21	0.6	0.0247	0.0025
289.6	118.44	0.75	0.062	0.0068
304.6	129.78	0.75	0.0548	0.0055
320	133.58	0.75	0.0548	0.0055
335.2	139.93	0.75	0.0571	0.0057
349.7	146.64	0.75	0.0559	0.0056
289.6	102.63	1	0.135	0.014
304.6	110.9	1	0.119	0.012
320	117.16	1	0.12	0.012
335.2	122.64	1	0.119	0.012
349.7	130.53	1	0.101	0.011

System: water + nitrous oxide; phases: Liquid, Gas
Property: Molality, mol/kg of nitrous oxide (Liquid); method: volumetric method
Temperature, K	Pressure, kPa of nitrous oxide	Molality, mol/kg of nitrous oxide	uncertainty
289.6	96.19	0.0336	0.0034
304.6	114.68	0.0259	0.0026
320	129.05	0.0202	0.002
335.2	141.3	0.0162	0.0016
349.7	154.22	0.0133	0.0013
