Measured thermophysical data. Experimental densities and excess volumes for binary mixtures of (dimethyl sulfoxide + an aromatic hydrocarbon) at temperatures from (293.15 to 353.15) K at atmospheric pressure
Source: J. Chem. Thermodyn., 2004, 10.1016/j.jct.2004.07.024
Compound 1: dimethyl sulfoxide, C2H6OS, InChI=1S/C2H6OS/c1-4(2)3/h1-2H3, purity 99.7%
Compound 2: benzene, C6H6, InChI=1S/C6H6/c1-2-4-6-5-3-1/h1-6H, purity 99.7%
Compound 3: toluene, C7H8, InChI=1S/C7H8/c1-7-5-3-2-4-6-7/h2-6H,1H3, purity 98%
Compound 4: ethylbenzene, C8H10, InChI=1S/C8H10/c1-2-8-6-4-3-5-7-8/h3-7H,2H2,1H3, purity 99%
Compound 5: styrene, C8H8, InChI=1S/C8H8/c1-2-8-6-4-3-5-7-8/h2-7H,1H2

System: dimethyl sulfoxide; phases: Liquid
Property: Refractive index (Na D-line) (Liquid); method: Standard Abbe refractometry
Temperature, K	Pressure, kPa	Refractive index (Na D-line)	uncertainty
293.15	101.325	1.4785	0.0004

System: dimethyl sulfoxide; phases: Liquid
Property: Mass density, kg/m3 (Liquid); method: VIBTUB:UFactor:4
Temperature, K	Pressure, kPa	Mass density, kg/m3	uncertainty
298.15	101.325	1095.62	0.32

System: benzene; phases: Liquid
Property: Refractive index (Na D-line) (Liquid); method: Standard Abbe refractometry
Temperature, K	Pressure, kPa	Refractive index (Na D-line)	uncertainty
293.15	101.325	1.5009	0.0004

System: benzene; phases: Liquid
Property: Mass density, kg/m3 (Liquid); method: VIBTUB:UFactor:4
Temperature, K	Pressure, kPa	Mass density, kg/m3	uncertainty
298.15	101.325	873.56	0.35

System: toluene; phases: Liquid
Property: Refractive index (Na D-line) (Liquid); method: Standard Abbe refractometry
Temperature, K	Pressure, kPa	Refractive index (Na D-line)	uncertainty
293.15	101.325	1.4965	0.0006

System: toluene; phases: Liquid
Property: Mass density, kg/m3 (Liquid); method: VIBTUB:UFactor:4
Temperature, K	Pressure, kPa	Mass density, kg/m3	uncertainty
298.15	101.325	862.14	0.94

System: ethylbenzene; phases: Liquid
Property: Refractive index (Na D-line) (Liquid); method: Standard Abbe refractometry
Temperature, K	Pressure, kPa	Refractive index (Na D-line)	uncertainty
293.15	101.325	1.4962	0.0005

System: ethylbenzene; phases: Liquid
Property: Mass density, kg/m3 (Liquid); method: VIBTUB:UFactor:4
Temperature, K	Pressure, kPa	Mass density, kg/m3	uncertainty
298.15	101.325	862.44	0.55

System: styrene; phases: Liquid
Property: Refractive index (Na D-line) (Liquid); method: Standard Abbe refractometry
Temperature, K	Pressure, kPa	Refractive index (Na D-line)	uncertainty
293.15	101.325	1.546	0.0005

System: styrene; phases: Liquid
Property: Mass density, kg/m3 (Liquid); method: VIBTUB:UFactor:4
Temperature, K	Pressure, kPa	Mass density, kg/m3	uncertainty
298.15	101.325	901.51	0.54

System: dimethyl sulfoxide + toluene; phases: Liquid
Fixed: Pressure, kPa = 101.325
Property: Mass density, kg/m3 (Liquid); method: VIBTUB:UFactor:4
Temperature, K	Mole fraction of toluene	Mass density, kg/m3	uncertainty
293.15	0.0689	1077.87	0.33
293.15	0.1505	1053.27	0.36
293.15	0.2269	1031.56	0.4
293.15	0.3036	1010.99	0.44
293.15	0.3758	992.64	0.49
293.15	0.4568	973.24	0.56
293.15	0.5177	959.33	0.6
293.15	0.5769	946.41	0.65
293.15	0.6342	934.37	0.69
293.15	0.6885	923.31	0.73
293.15	0.7512	911.04	0.78
293.15	0.8181	898.38	0.82
293.15	0.8856	886.05	0.87
293.15	0.9553	873.71	0.92
303.15	0.0652	1069.85	0.32
303.15	0.1295	1050.38	0.34
303.15	0.1806	1035.51	0.36
303.15	0.2563	1014.57	0.4
303.15	0.3098	1000.5	0.44
303.15	0.3845	981.74	0.5
303.15	0.4456	967.18	0.55
303.15	0.5169	950.98	0.6
303.15	0.5813	937.04	0.65
303.15	0.6645	919.88	0.71
303.15	0.7499	903.18	0.77
303.15	0.8114	891.64	0.82
303.15	0.8802	879.15	0.86
303.15	0.9532	866.39	0.91
313.15	0.0661	1059.41	0.31
313.15	0.1202	1043.16	0.33
313.15	0.1891	1023.36	0.36
313.15	0.2403	1009.32	0.39
313.15	0.2945	995.06	0.42
313.15	0.3615	978.24	0.48
313.15	0.4369	960.28	0.54
313.15	0.5156	942.59	0.6
313.15	0.5813	928.56	0.65
313.15	0.6558	913.41	0.71
313.15	0.7267	899.63	0.76
313.15	0.7956	886.78	0.8
313.15	0.8821	871.32	0.86
313.15	0.9448	860.52	0.9
323.15	0.0884	1042.41	0.3
323.15	0.1236	1032.08	0.32
323.15	0.1869	1014.1	0.35
323.15	0.2536	996.08	0.39
323.15	0.3285	976.94	0.45
323.15	0.3996	959.75	0.51
323.15	0.4501	948.11	0.55
323.15	0.4969	937.7	0.59
323.15	0.5563	925	0.63
323.15	0.616	912.74	0.68
323.15	0.6725	901.61	0.72
323.15	0.7562	885.79	0.78
323.15	0.8532	868.42	0.84
323.15	0.9458	852.63	0.9
333.15	0.0598	1040.93	0.28
333.15	0.1436	1016.4	0.32
333.15	0.2258	993.84	0.37
333.15	0.2931	976.44	0.42
333.15	0.3652	958.78	0.48
333.15	0.4112	948.06	0.52
333.15	0.4859	931.36	0.58
333.15	0.5301	921.94	0.61
333.15	0.5965	908.31	0.66
333.15	0.6789	892.24	0.72
333.15	0.7215	884.23	0.75
333.15	0.7899	871.86	0.8
333.15	0.8512	861.15	0.84
333.15	0.9503	844.53	0.9
343.15	0.0599	1030.68	0.27
343.15	0.1102	1015.93	0.29
343.15	0.1798	996.46	0.33
343.15	0.2549	976.61	0.4
343.15	0.3169	961.13	0.45
343.15	0.3858	944.75	0.5
343.15	0.4405	932.38	0.55
343.15	0.5258	914.08	0.61
343.15	0.5936	900.34	0.66
343.15	0.6678	886.01	0.71
343.15	0.7166	876.96	0.75
343.15	0.7925	863.42	0.8
343.15	0.8792	848.65	0.86
343.15	0.9552	836.24	0.9
353.15	0.0801	1014.55	0.27
353.15	0.1526	994.06	0.31
353.15	0.2215	975.63	0.37
353.15	0.2869	959.04	0.43
353.15	0.3568	942.26	0.48
353.15	0.4205	927.79	0.53
353.15	0.4956	911.6	0.59
353.15	0.5723	895.96	0.65
353.15	0.6321	884.4	0.69
353.15	0.7058	870.71	0.74
353.15	0.768	859.69	0.78
353.15	0.8363	848.04	0.83
353.15	0.8913	838.96	0.86
353.15	0.9524	829.17	0.9

System: dimethyl sulfoxide + ethylbenzene; phases: Liquid
Fixed: Pressure, kPa = 101.325
Property: Mass density, kg/m3 (Liquid); method: VIBTUB:UFactor:4
Temperature, K	Mole fraction of ethylbenzene	Mass density, kg/m3	uncertainty
293.15	0.0626	1076.31	0.31
293.15	0.1596	1043.57	0.29
293.15	0.2203	1025.03	0.29
293.15	0.2983	1003.06	0.29
293.15	0.3698	984.55	0.31
293.15	0.4623	962.58	0.35
293.15	0.5186	950.18	0.38
293.15	0.5712	939.18	0.4
293.15	0.6285	927.89	0.42
293.15	0.6802	918.18	0.44
293.15	0.7525	905.36	0.47
293.15	0.8102	895.69	0.49
293.15	0.8723	885.81	0.51
293.15	0.9456	874.79	0.53
303.15	0.0669	1065.53	0.29
303.15	0.1456	1038.79	0.28
303.15	0.2569	1005.2	0.28
303.15	0.3203	988	0.3
303.15	0.3956	969	0.33
303.15	0.4569	954.63	0.36
303.15	0.5132	942.23	0.38
303.15	0.5856	927.28	0.41
303.15	0.6277	919.04	0.42
303.15	0.7065	904.51	0.45
303.15	0.7856	890.93	0.48
303.15	0.8359	882.8	0.5
303.15	0.8856	875.1	0.52
303.15	0.9503	865.51	0.54
313.15	0.0624	1056.77	0.28
313.15	0.1459	1028.39	0.27
313.15	0.2201	1005.62	0.27
313.15	0.2692	991.65	0.28
313.15	0.3314	975.03	0.31
313.15	0.3963	958.87	0.34
313.15	0.4456	947.35	0.36
313.15	0.4965	936.07	0.38
313.15	0.5216	930.71	0.39
313.15	0.5986	915.08	0.42
313.15	0.6853	898.86	0.45
313.15	0.7526	887.13	0.48
313.15	0.8418	872.68	0.51
313.15	0.9258	860.05	0.54
323.15	0.0625	1046.39	0.27
323.15	0.1786	1007.95	0.26
323.15	0.2469	987.84	0.28
323.15	0.3095	970.78	0.3
323.15	0.3698	955.5	0.33
323.15	0.4152	944.61	0.35
323.15	0.4723	931.67	0.38
323.15	0.5362	918.08	0.4
323.15	0.6048	904.45	0.43
323.15	0.6604	894.04	0.45
323.15	0.7301	881.76	0.48
323.15	0.7992	870.36	0.5
323.15	0.8683	859.65	0.52
323.15	0.9226	851.65	0.54
333.15	0.066	1034.83	0.25
333.15	0.1159	1017.74	0.25
333.15	0.1896	994.42	0.25
333.15	0.2156	986.74	0.27
333.15	0.2765	969.61	0.3
333.15	0.3286	955.9	0.32
333.15	0.3964	939.26	0.35
333.15	0.4598	924.75	0.38
333.15	0.5349	908.81	0.41
333.15	0.6126	893.53	0.44
333.15	0.6861	880.14	0.47
333.15	0.7698	865.99	0.5
333.15	0.8459	854.04	0.52
333.15	0.9025	845.66	0.54
343.15	0.0599	1026.68	0.24
343.15	0.1569	994.32	0.24
343.15	0.2363	970.71	0.28
343.15	0.3001	953.33	0.31
343.15	0.3895	931.07	0.36
343.15	0.4519	916.81	0.38
343.15	0.5163	903.06	0.41
343.15	0.5698	892.31	0.43
343.15	0.6389	879.27	0.46
343.15	0.6895	870.27	0.47
343.15	0.7558	859.13	0.5
343.15	0.8106	850.44	0.52
343.15	0.8895	838.64	0.54
343.15	0.9502	830.09	0.56
353.15	0.059	1016.69	0.23
353.15	0.1555	984.6	0.25
353.15	0.2236	964.29	0.29
353.15	0.2856	947.23	0.32
353.15	0.3384	933.66	0.34
353.15	0.4089	916.78	0.37
353.15	0.4625	904.82	0.39
353.15	0.5185	893.03	0.42
353.15	0.5665	883.47	0.44
353.15	0.6255	872.34	0.46
353.15	0.6706	864.28	0.48
353.15	0.7556	850	0.51
353.15	0.8326	838.04	0.53
353.15	0.9129	826.41	0.56

System: dimethyl sulfoxide + styrene; phases: Liquid
Fixed: Pressure, kPa = 101.325
Property: Mass density, kg/m3 (Liquid); method: VIBTUB:UFactor:4
Temperature, K	Mole fraction of styrene	Mass density, kg/m3	uncertainty
293.15	0.062	1081.91	0.31
293.15	0.1289	1064.06	0.31
293.15	0.2169	1042.53	0.3
293.15	0.2956	1024.85	0.31
293.15	0.3596	1011.37	0.31
293.15	0.4103	1001.24	0.32
293.15	0.4596	991.74	0.34
293.15	0.5023	983.85	0.36
293.15	0.5689	972.01	0.38
293.15	0.626	962.31	0.4
293.15	0.7025	949.86	0.43
293.15	0.7865	936.88	0.46
293.15	0.8595	926.02	0.48
293.15	0.9312	915.7	0.51
303.15	0.0852	1066.12	0.3
303.15	0.1495	1049.28	0.29
303.15	0.2015	1036.5	0.29
303.15	0.2695	1020.82	0.3
303.15	0.3351	1006.61	0.3
303.15	0.4055	992.33	0.32
303.15	0.4824	977.63	0.35
303.15	0.5588	963.89	0.38
303.15	0.6196	953.53	0.4
303.15	0.6726	944.85	0.42
303.15	0.7369	934.68	0.45
303.15	0.8069	924.05	0.47
303.15	0.8756	913.99	0.49
303.15	0.9458	904.01	0.52
313.15	0.0665	1060.82	0.29
313.15	0.1856	1029.88	0.28
313.15	0.2581	1012.95	0.28
313.15	0.3296	997.38	0.3
313.15	0.3895	985.13	0.32
313.15	0.4469	973.98	0.34
313.15	0.5132	961.75	0.37
313.15	0.5958	947.37	0.4
313.15	0.6553	937.53	0.42
313.15	0.7125	928.47	0.44
313.15	0.7665	920.19	0.46
313.15	0.8269	911.23	0.48
313.15	0.8801	903.57	0.5
313.15	0.9485	893.98	0.52
323.15	0.0653	1050.77	0.27
323.15	0.1856	1019.46	0.27
323.15	0.2513	1004.06	0.27
323.15	0.3257	987.81	0.3
323.15	0.3969	973.33	0.33
323.15	0.4582	961.55	0.35
323.15	0.5296	948.61	0.38
323.15	0.5701	941.56	0.4
323.15	0.6352	930.72	0.42
323.15	0.6925	921.57	0.44
323.15	0.7468	913.21	0.46
323.15	0.8169	902.83	0.48
323.15	0.8825	893.48	0.51
323.15	0.9555	883.37	0.53
333.15	0.0626	1041.08	0.26
333.15	0.1745	1011.71	0.26
333.15	0.2469	994.63	0.27
333.15	0.2963	983.69	0.29
333.15	0.3458	973.27	0.31
333.15	0.3899	964.37	0.33
333.15	0.4525	952.34	0.36
333.15	0.5252	939.14	0.38
333.15	0.6053	925.5	0.41
333.15	0.6852	912.68	0.44
333.15	0.7562	901.86	0.47
333.15	0.8362	890.23	0.5
333.15	0.8826	883.72	0.51
333.15	0.9332	876.75	0.53
343.15	0.0866	1023.99	0.25
343.15	0.1762	1000.88	0.25
343.15	0.2459	984.45	0.28
343.15	0.2856	975.61	0.29
343.15	0.3595	960.11	0.33
343.15	0.4041	951.25	0.34
343.15	0.4896	935.26	0.38
343.15	0.5695	921.33	0.41
343.15	0.6254	912.1	0.43
343.15	0.6925	901.53	0.45
343.15	0.7569	891.83	0.47
343.15	0.8042	884.96	0.49
343.15	0.8685	875.91	0.51
343.15	0.9344	866.93	0.53
353.15	0.0659	1019.29	0.24
353.15	0.1289	1002.33	0.24
353.15	0.1865	987.92	0.26
353.15	0.2415	975.04	0.28
353.15	0.3063	960.8	0.31
353.15	0.3895	943.8	0.35
353.15	0.4589	930.59	0.37
353.15	0.5362	916.84	0.4
353.15	0.6089	904.68	0.43
353.15	0.6812	893.25	0.46
353.15	0.7462	883.47	0.48
353.15	0.8126	873.91	0.5
353.15	0.8865	863.68	0.52
353.15	0.9522	854.91	0.55

System: dimethyl sulfoxide + benzene; phases: Liquid
Fixed: Pressure, kPa = 101.325
Property: Mass density, kg/m3 (Liquid); method: VIBTUB:UFactor:4
Temperature, K	Mole fraction of benzene	Mass density, kg/m3	uncertainty
293.15	0.0589	1084.47	0.3
293.15	0.1255	1067.5	0.28
293.15	0.1852	1052.58	0.26
293.15	0.2561	1035.37	0.24
293.15	0.2934	1026.52	0.23
293.15	0.3345	1016.91	0.22
293.15	0.3782	1006.87	0.2
293.15	0.4312	994.89	0.2
293.15	0.4757	985.02	0.21
293.15	0.5963	958.97	0.24
293.15	0.6875	939.81	0.26
293.15	0.7369	929.61	0.27
293.15	0.8637	903.71	0.31
293.15	0.9562	885.02	0.33
303.15	0.0596	1075.16	0.29
303.15	0.1345	1056.18	0.27
303.15	0.194	1041.49	0.25
303.15	0.2473	1028.63	0.23
303.15	0.2893	1018.74	0.22
303.15	0.3465	1005.44	0.2
303.15	0.4213	988.61	0.21
303.15	0.4835	974.94	0.22
303.15	0.5431	962.12	0.23
303.15	0.5968	950.76	0.25
303.15	0.6763	934.26	0.27
303.15	0.7781	913.49	0.29
303.15	0.8511	898.8	0.31
303.15	0.9542	878.27	0.34
313.15	0.059	1064.91	0.28
313.15	0.1267	1047.76	0.25
313.15	0.1873	1032.78	0.23
313.15	0.2676	1013.53	0.21
313.15	0.2933	1007.51	0.2
313.15	0.3378	997.22	0.2
313.15	0.4321	976.04	0.22
313.15	0.4752	966.67	0.23
313.15	0.5514	950.39	0.25
313.15	0.6011	939.97	0.26
313.15	0.6837	923	0.28
313.15	0.7653	906.53	0.3
313.15	0.8681	886.1	0.33
313.15	0.9499	870	0.35
323.15	0.0602	1054.55	0.26
323.15	0.1257	1038.36	0.24
323.15	0.1833	1024.43	0.22
323.15	0.2512	1008.48	0.21
323.15	0.3294	990.67	0.2
323.15	0.3931	976.6	0.22
323.15	0.4615	961.88	0.23
323.15	0.5232	948.95	0.25
323.15	0.5972	933.77	0.27
323.15	0.6502	923.09	0.28
323.15	0.7149	910.25	0.3
323.15	0.7896	895.64	0.32
323.15	0.8788	878.39	0.34
323.15	0.9556	863.66	0.36
333.15	0.0593	1044.75	0.25
333.15	0.1279	1028.18	0.23
333.15	0.1801	1015.83	0.21
333.15	0.2566	998.31	0.2
333.15	0.3263	982.84	0.21
333.15	0.3862	969.9	0.23
333.15	0.4523	955.99	0.24
333.15	0.5213	941.87	0.26
333.15	0.5869	928.72	0.27
333.15	0.6532	915.7	0.29
333.15	0.7256	901.71	0.31
333.15	0.7959	888.33	0.33
333.15	0.8864	871.29	0.35
333.15	0.9116	866.58	0.36
343.15	0.0593	1034.67	0.24
343.15	0.1356	1016.68	0.22
343.15	0.2182	997.86	0.2
343.15	0.2636	987.78	0.21
343.15	0.3296	973.51	0.22
343.15	0.3938	960.01	0.24
343.15	0.4686	944.74	0.25
343.15	0.5213	934.26	0.27
343.15	0.5769	923.38	0.28
343.15	0.6623	907.03	0.3
343.15	0.7385	892.7	0.32
343.15	0.7801	884.99	0.33
343.15	0.8569	870.86	0.35
343.15	0.9503	853.81	0.38
353.15	0.058	1024.84	0.23
353.15	0.1585	1001.73	0.2
353.15	0.2335	985.09	0.21
353.15	0.3065	969.42	0.23
353.15	0.3765	954.93	0.24
353.15	0.4187	946.35	0.25
353.15	0.4682	936.49	0.27
353.15	0.5242	925.57	0.28
353.15	0.5912	912.8	0.3
353.15	0.6404	903.56	0.31
353.15	0.7556	882.4	0.34
353.15	0.8024	873.93	0.35
353.15	0.8701	861.79	0.36
353.15	0.9284	851.4	0.38
