Measured thermophysical data. Critical properties, heat capacities, and thermal diffusivities of four saturated triglycerides
Source: J. Chem. Thermodyn., 2017, 10.1016/j.jct.2017.07.006
Compound 1: 1,2,3-propanetriol trioctanoate, C27H50O6, InChI=1S/C27H50O6/c1-4-7-10-13-16-19-25(28)31-22-24(33-27(30)21-18-15-12-9-6-3)23-32-26(29)20-17-14-11-8-5-2/h24H,4-23H2,1-3H3, purity 99%
Compound 2: 1,2,3-propanetriyl tridecanoate, C33H62O6, InChI=1S/C33H62O6/c1-4-7-10-13-16-19-22-25-31(34)37-28-30(39-33(36)27-24-21-18-15-12-9-6-3)29-38-32(35)26-23-20-17-14-11-8-5-2/h30H,4-29H2,1-3H3, purity 99%
Compound 3: 1,2,3-propanetriyl tridodecanoate, C39H74O6, InChI=1S/C39H74O6/c1-4-7-10-13-16-19-22-25-28-31-37(40)43-34-36(45-39(42)33-30-27-24-21-18-15-12-9-6-3)35-44-38(41)32-29-26-23-20-17-14-11-8-5-2/h36H,4-35H2,1-3H3, purity 99%
Compound 4: 1,2,3-propanetriyl tri(tetradecanoate), C45H86O6, InChI=1S/C45H86O6/c1-4-7-10-13-16-19-22-25-28-31-34-37-43(46)49-40-42(51-45(48)39-36-33-30-27-24-21-18-15-12-9-6-3)41-50-44(47)38-35-32-29-26-23-20-17-14-11-8-5-2/h42H,4-41H2,1-3H3, purity 99%

System: 1,2,3-propanetriol trioctanoate; phases: Liquid, Gas
Property: Critical temperature, K (Liquid); method: Resistive pulse heating
Critical temperature, K	uncertainty
836	13

System: 1,2,3-propanetriol trioctanoate; phases: Liquid, Gas
Property: Critical pressure, kPa (Liquid); method: Resistive pulse heating
Critical pressure, kPa	uncertainty
830	40

System: 1,2,3-propanetriol trioctanoate; phases: Liquid
Fixed: Pressure, kPa = 101.325
Property: Molar heat capacity at constant pressure, J/K/mol (Liquid); method: DSC
Temperature, K	Molar heat capacity at constant pressure, J/K/mol	uncertainty
315	913.3	37.1
320	921	37.4
325	928.5	37.7
330	935.9	38
335	943.1	38.3
340	950.2	38.6
345	957.1	38.9
350	964	39.2
355	970.7	39.4
360	977.4	39.7
365	984.1	40
370	990.7	40.2
375	997.2	40.5
380	1004	41
385	1010	41
390	1017	41
395	1024	42
400	1030	42
405	1037	42
410	1044	42
415	1051	43
420	1058	43
425	1065	43

System: 1,2,3-propanetriol trioctanoate; phases: Liquid
Fixed: Pressure, kPa = 101.325
Property: Thermal diffusivity, m2/s (Liquid); method: Laser flash apparatus
Temperature, K	Thermal diffusivity, m2/s	uncertainty
315	8380000	440000
320	8330000	430000
325	8280000	430000
330	8230000	430000
335	8180000	430000
340	8140000	420000
345	8090000	420000
350	8040000	420000
355	7990000	420000
360	7940000	410000
365	7890000	410000
370	7840000	410000
375	7790000	410000
380	7750000	400000
385	7700000	400000
390	7650000	400000
395	7600000	400000
400	7550000	390000
405	7500000	390000
410	7450000	390000
415	7400000	390000
420	7360000	380000
425	7310000	380000

System: 1,2,3-propanetriol trioctanoate; phases: Liquid
Fixed: Pressure, kPa = 101.325
Property: Thermal conductivity, W/m/K (Liquid); method: Laser flash apparatus
Temperature, K	Thermal conductivity, W/m/K	uncertainty
315	0.152	0.011
320	0.152	0.011
325	0.151	0.011
330	0.151	0.011
335	0.151	0.011
340	0.15	0.011
345	0.15	0.011
350	0.15	0.011
355	0.149	0.011
360	0.149	0.011
365	0.148	0.011
370	0.148	0.011
375	0.147	0.011
380	0.146	0.011
385	0.146	0.011
390	0.145	0.01
395	0.145	0.01
400	0.144	0.01
405	0.144	0.01
410	0.143	0.01
415	0.142	0.01
420	0.142	0.01
425	0.141	0.01

System: 1,2,3-propanetriyl tridecanoate; phases: Liquid, Gas
Property: Critical temperature, K (Liquid); method: Resistive pulse heating
Critical temperature, K	uncertainty
864	13

System: 1,2,3-propanetriyl tridecanoate; phases: Liquid, Gas
Property: Critical pressure, kPa (Liquid); method: Resistive pulse heating
Critical pressure, kPa	uncertainty
750	30

System: 1,2,3-propanetriyl tridecanoate; phases: Liquid
Fixed: Pressure, kPa = 101.325
Property: Molar heat capacity at constant pressure, J/K/mol (Liquid); method: DSC
Temperature, K	Molar heat capacity at constant pressure, J/K/mol	uncertainty
320	1093	44
325	1106	45
330	1117	45
335	1128	46
340	1139	46
345	1148	47
350	1157	47
355	1166	47
360	1174	48
365	1182	48
370	1189	48
375	1196	49
380	1203	49
385	1209	49
390	1216	49
395	1222	50
400	1228	50
405	1235	50
410	1241	50
415	1248	51

System: 1,2,3-propanetriyl tridecanoate; phases: Liquid
Fixed: Pressure, kPa = 101.325
Property: Thermal diffusivity, m2/s (Liquid); method: Laser flash apparatus
Temperature, K	Thermal diffusivity, m2/s	uncertainty
320	8910000	460000
325	8850000	460000
330	8790000	460000
335	8730000	450000
340	8670000	450000
345	8610000	450000
350	8550000	440000
355	8500000	440000
360	8440000	440000
365	8380000	440000
370	8320000	430000
375	8260000	430000
380	8200000	430000
385	8140000	420000
390	8090000	420000
395	8030000	420000
400	7970000	410000
405	7910000	410000
410	7850000	410000
415	7790000	410000

System: 1,2,3-propanetriyl tridecanoate; phases: Liquid
Fixed: Pressure, kPa = 101.325
Property: Thermal conductivity, W/m/K (Liquid); method: Laser flash apparatus
Temperature, K	Thermal conductivity, W/m/K	uncertainty
320	0.153	0.011
325	0.153	0.011
330	0.153	0.011
335	0.153	0.011
340	0.153	0.011
345	0.153	0.011
350	0.152	0.011
355	0.152	0.011
360	0.151	0.011
365	0.15	0.011
370	0.15	0.011
375	0.15	0.011
380	0.149	0.011
385	0.148	0.011
390	0.147	0.011
395	0.147	0.011
400	0.146	0.011
405	0.145	0.01
410	0.144	0.01
415	0.143	0.01

System: 1,2,3-propanetriyl tridodecanoate; phases: Liquid, Gas
Property: Critical temperature, K (Liquid); method: Resistive pulse heating
Critical temperature, K	uncertainty
899	13

System: 1,2,3-propanetriyl tridodecanoate; phases: Liquid, Gas
Property: Critical pressure, kPa (Liquid); method: Resistive pulse heating
Critical pressure, kPa	uncertainty
650	30

System: 1,2,3-propanetriyl tridodecanoate; phases: Liquid
Fixed: Pressure, kPa = 101.325
Property: Molar heat capacity at constant pressure, J/K/mol (Liquid); method: DSC
Temperature, K	Molar heat capacity at constant pressure, J/K/mol	uncertainty
330	1316	53
335	1323	54
340	1331	54
345	1340	54
350	1350	55
355	1361	55
360	1372	56
365	1384	56
370	1396	57
375	1407	57
380	1418	58
385	1428	58
390	1438	58
395	1446	59
400	1453	59
405	1458	59
410	1461	59

System: 1,2,3-propanetriyl tridodecanoate; phases: Liquid
Fixed: Pressure, kPa = 101.325
Property: Thermal diffusivity, m2/s (Liquid); method: Laser flash apparatus
Temperature, K	Thermal diffusivity, m2/s	uncertainty
330	9040000	470000
335	8990000	470000
340	8930000	460000
345	8880000	460000
350	8820000	460000
355	8770000	460000
360	8710000	450000
365	8660000	450000
370	8610000	450000
375	8550000	440000
380	8490000	440000
385	8440000	440000
390	8380000	440000
395	8330000	430000
400	8270000	430000
405	8220000	430000
410	8160000	420000

System: 1,2,3-propanetriyl tridodecanoate; phases: Liquid
Fixed: Pressure, kPa = 101.325
Property: Thermal conductivity, W/m/K (Liquid); method: Laser flash apparatus
Temperature, K	Thermal conductivity, W/m/K	uncertainty
330	0.164	0.012
335	0.163	0.012
340	0.162	0.012
345	0.161	0.012
350	0.161	0.012
355	0.16	0.012
360	0.16	0.012
365	0.159	0.011
370	0.159	0.011
375	0.158	0.011
380	0.158	0.011
385	0.157	0.011
390	0.156	0.011
395	0.155	0.011
400	0.154	0.011
405	0.153	0.011
410	0.151	0.011

System: 1,2,3-propanetriyl tri(tetradecanoate); phases: Liquid, Gas
Property: Critical temperature, K (Liquid); method: Resistive pulse heating
Critical temperature, K	uncertainty
925	14

System: 1,2,3-propanetriyl tri(tetradecanoate); phases: Liquid, Gas
Property: Critical pressure, kPa (Liquid); method: Resistive pulse heating
Critical pressure, kPa	uncertainty
610	30

System: 1,2,3-propanetriyl tri(tetradecanoate); phases: Liquid
Fixed: Pressure, kPa = 101.325
Property: Molar heat capacity at constant pressure, J/K/mol (Liquid); method: DSC
Temperature, K	Molar heat capacity at constant pressure, J/K/mol	uncertainty
350	1547	63
355	1557	63
360	1568	64
365	1580	64
370	1592	65
375	1606	65
380	1619	66
385	1632	66
390	1645	67
395	1657	67
400	1668	68
405	1678	68
410	1686	68

System: 1,2,3-propanetriyl tri(tetradecanoate); phases: Liquid
Fixed: Pressure, kPa = 101.325
Property: Thermal diffusivity, m2/s (Liquid); method: Laser flash apparatus
Temperature, K	Thermal diffusivity, m2/s	uncertainty
350	9110000	470000
355	9050000	470000
360	9000000	470000
365	8940000	470000
370	8890000	460000
375	8830000	460000
380	8770000	460000
385	8720000	450000
390	8660000	450000
395	8610000	450000
400	8550000	440000
405	8500000	440000
410	8440000	440000

System: 1,2,3-propanetriyl tri(tetradecanoate); phases: Liquid
Fixed: Pressure, kPa = 101.325
Property: Thermal conductivity, W/m/K (Liquid); method: Laser flash apparatus
Temperature, K	Thermal conductivity, W/m/K	uncertainty
350	0.171	0.012
355	0.17	0.012
360	0.17	0.012
365	0.169	0.012
370	0.169	0.012
375	0.168	0.012
380	0.168	0.012
385	0.168	0.012
390	0.167	0.012
395	0.167	0.012
400	0.166	0.012
405	0.165	0.012
410	0.164	0.012
