Measured thermophysical data. High pressure densities for mixed ionic liquids having different functionalities: 1-butyl-3-methylimidazolium chloride and 1-butyl- 3-methylimidazolium bis(trifluoromethylsulfonyl)imide
Source: J. Chem. Thermodyn., 2017, 10.1016/j.jct.2016.12.037
Compound 1: 1-butyl-3-methylimidazolium chloride, C8H15ClN2, InChI=1S/C8H15N2.ClH/c1-3-4-5-10-7-6-9(2)8-10;/h6-8H,3-5H2,1-2H3;1H/q+1;/p-1, purity 98%
Compound 2: 1-butyl-3-methylimidazolium bis(trifluoromethylsulfonyl)imide, C10H15F6N3O4S2, InChI=1S/C8H15N2.C2F6NO4S2/c1-3-4-5-10-7-6-9(2)8-10;3-1(4,5)14(10,11)9-15(12,13)2(6,7)8/h6-8H,3-5H2,1-2H3;/q+1;-1, purity 98%

System: 1-butyl-3-methylimidazolium chloride; phases: Liquid
Fixed: Pressure, kPa = 100
Property: Mass density, kg/m3 (Liquid); method: Vibrating tube method
Temperature, K	Mass density, kg/m3	uncertainty
348.15	1053.9	2.5
353.15	1051.2	2.5
358.15	1048.5	2.5
363.15	1045.9	2.5
368.15	1043.3	2.5
373.15	1040.8	2.5

System: 1-butyl-3-methylimidazolium chloride; phases: Liquid
Fixed: Pressure, kPa = 100
Property: Viscosity, Pa*s (Liquid); method: Concentric cylinders viscometry
Temperature, K	Viscosity, Pa*s	uncertainty
348.15	0.217	0.011
353.15	0.1621	0.008
358.15	0.1233	0.006
363.15	0.0956	0.00458
368.15	0.07539	0.00358
373.15	0.06026	0.00285

System: 1-butyl-3-methylimidazolium chloride + 1-butyl-3-methylimidazolium bis(trifluoromethylsulfonyl)imide; phases: Liquid
Fixed: Pressure, kPa = 100
Property: Mass density, kg/m3 (Liquid); method: Vibrating tube method
Temperature, K	Mole fraction of 1-butyl-3-methylimidazolium chloride	Mass density, kg/m3	uncertainty
348.15	1	1053.9	2.5
353.15	1	1051.2	2.5
358.15	1	1048.5	2.5
363.15	1	1045.9	2.5
368.15	1	1043.3	2.5
373.15	1	1040.8	2.5
303.15	0.75	1207.9	4
313.15	0.75	1200.6	4
323.15	0.75	1193.6	4
333.15	0.75	1186.8	4
343.15	0.75	1180.2	4
353.15	0.75	1173.6	4
363.15	0.75	1167.1	4
373.15	0.75	1160.2	4
293.15	0.5	1310.1	4.9
303.15	0.5	1301.8	4.9
313.15	0.5	1293.9	4.9
323.15	0.5	1286	4.9
333.15	0.5	1278.3	4.9
343.15	0.5	1270.6	4.9
353.15	0.5	1263	4.9
363.15	0.5	1255.4	4.9
373.15	0.5	1247.5	4.9
293.15	0.25	1383.3	5.4
303.15	0.25	1374.4	5.4
313.15	0.25	1365.6	5.4
323.15	0.25	1356.8	5.3
333.15	0.25	1348.2	5.3
343.15	0.25	1339.6	5.3
353.15	0.25	1331.1	5.3
363.15	0.25	1322.6	5.3
373.15	0.25	1314	5.3
293.15	0	1440.9	3.5
303.15	0	1431.6	3.5
313.15	0	1422.1	3.5
323.15	0	1412.6	3.5
333.15	0	1403.4	3.5
343.15	0	1394	3.5
353.15	0	1384.8	3.5
363.15	0	1375.6	3.5
373.15	0	1366.7	3.5

System: 1-butyl-3-methylimidazolium chloride + 1-butyl-3-methylimidazolium bis(trifluoromethylsulfonyl)imide; phases: Liquid
Fixed: Pressure, kPa = 100
Property: Viscosity, Pa*s (Liquid); method: Concentric cylinders viscometry
Temperature, K	Mole fraction of 1-butyl-3-methylimidazolium chloride	Viscosity, Pa*s	uncertainty
348.15	1	0.217	0.011
353.15	1	0.1621	0.008
358.15	1	0.1233	0.006
363.15	1	0.0956	0.00458
368.15	1	0.07539	0.00358
373.15	1	0.06026	0.00285
303.15	0.75	1.095	0.083
313.15	0.75	0.513	0.0405
323.15	0.75	0.2655	0.0191
333.15	0.75	0.1504	0.01
343.15	0.75	0.0914	0.00572
353.15	0.75	0.05887	0.00491
363.15	0.75	0.04011	0.00295
373.15	0.75	0.02843	0.0019
293.15	0.5	0.4896	0.0338
303.15	0.5	0.2555	0.033
313.15	0.5	0.1448	0.0155
323.15	0.5	0.08769	0.00802
333.15	0.5	0.05722	0.00459
343.15	0.5	0.03908	0.00283
353.15	0.5	0.02782	0.00186
363.15	0.5	0.02061	0.00129
373.15	0.5	0.0157	0.00093
293.15	0.25	0.1508	0.0148
303.15	0.25	0.08981	0.00775
313.15	0.25	0.05725	0.00443
323.15	0.25	0.03843	0.00272
333.15	0.25	0.02737	0.00181
343.15	0.25	0.02016	0.00126
353.15	0.25	0.01534	0.00091
363.15	0.25	0.01203	0.00069
373.15	0.25	0.009638	0.000535
293.15	0	0.06341	0.00301
303.15	0	0.04126	0.00196
313.15	0	0.02846	0.00135
323.15	0	0.02058	0.00098
333.15	0	0.01547	0.00073
343.15	0	0.012	0.00057
353.15	0	0.009562	0.000454
363.15	0	0.007788	0.00037
373.15	0	0.006469	0.000307

System: 1-butyl-3-methylimidazolium chloride + 1-butyl-3-methylimidazolium bis(trifluoromethylsulfonyl)imide; phases: Liquid
Property: Mass density, kg/m3 (Liquid); method: Bellows volumetry
Mole fraction of 1-butyl-3-methylimidazolium chloride	Temperature, K	Pressure, kPa	Mass density, kg/m3	uncertainty
0.75	312.3	10000	1205.8	4.4
0.75	312.3	20000	1210.5	4.4
0.75	312.3	30000	1215	4.4
0.75	312.3	40000	1219.3	4.4
0.75	312.3	50000	1223.6	4.4
0.75	312.3	60000	1227.7	4.4
0.75	312.3	70000	1231.6	4.4
0.75	312.3	80000	1235.5	4.4
0.75	312.3	90000	1239.2	4.4
0.75	312.3	100000	1242.8	4.4
0.75	312.3	110000	1246.4	4.4
0.75	312.3	120000	1249.9	4.4
0.75	312.3	130000	1253.3	4.4
0.75	312.3	140000	1256.6	4.4
0.75	312.3	150000	1260	4.4
0.75	312.3	160000	1263.1	4.4
0.75	312.3	170000	1266.3	4.4
0.75	312.3	180000	1269.4	4.4
0.75	312.3	190000	1272.4	4.4
0.75	312.3	200000	1275.5	4.4
0.75	331.8	10000	1192.4	4.3
0.75	331.8	20000	1197.3	4.3
0.75	331.8	30000	1202.1	4.4
0.75	331.8	40000	1206.7	4.4
0.75	331.8	50000	1211.1	4.4
0.75	331.8	60000	1215.5	4.4
0.75	331.8	70000	1219.5	4.4
0.75	331.8	80000	1223.6	4.4
0.75	331.8	90000	1227.4	4.4
0.75	331.8	100000	1231.2	4.4
0.75	331.8	110000	1235	4.4
0.75	331.8	120000	1238.5	4.4
0.75	331.8	130000	1242	4.4
0.75	331.8	140000	1245.4	4.4
0.75	331.8	150000	1248.7	4.4
0.75	331.8	160000	1252.1	4.4
0.75	331.8	170000	1255.3	4.4
0.75	331.8	180000	1258.5	4.4
0.75	331.8	190000	1261.6	4.4
0.75	331.8	200000	1264.7	4.4
0.75	351.9	10000	1179	4.3
0.75	351.9	20000	1184.3	4.3
0.75	351.9	30000	1189.3	4.3
0.75	351.9	40000	1194.1	4.3
0.75	351.9	50000	1198.8	4.3
0.75	351.9	60000	1203.2	4.4
0.75	351.9	70000	1207.5	4.4
0.75	351.9	80000	1211.8	4.4
0.75	351.9	90000	1215.7	4.4
0.75	351.9	100000	1219.6	4.4
0.75	351.9	110000	1223.4	4.4
0.75	351.9	120000	1227.2	4.4
0.75	351.9	130000	1230.8	4.4
0.75	351.9	140000	1234.5	4.4
0.75	351.9	150000	1237.9	4.4
0.75	351.9	160000	1241.4	4.4
0.75	351.9	170000	1244.7	4.4
0.75	351.9	180000	1247.9	4.4
0.75	351.9	190000	1251.2	4.4
0.75	351.9	200000	1254.3	4.4
0.75	372.1	10000	1165.9	4.3
0.75	372.1	20000	1171.6	4.3
0.75	372.1	30000	1176.9	4.3
0.75	372.1	40000	1181.9	4.3
0.75	372.1	50000	1186.7	4.3
0.75	372.1	60000	1191.4	4.3
0.75	372.1	70000	1195.9	4.3
0.75	372.1	80000	1200.3	4.3
0.75	372.1	90000	1204.4	4.4
0.75	372.1	100000	1208.5	4.4
0.75	372.1	110000	1212.5	4.4
0.75	372.1	120000	1216.3	4.4
0.75	372.1	130000	1220	4.4
0.75	372.1	140000	1223.7	4.4
0.75	372.1	150000	1227.3	4.4
0.75	372.1	160000	1230.8	4.4
0.75	372.1	170000	1234.1	4.4
0.75	372.1	180000	1237.6	4.4
0.75	372.1	190000	1240.8	4.4
0.75	372.1	200000	1244.1	4.4
0.75	392.3	10000	1152.9	4.3
0.75	392.3	20000	1158.8	4.3
0.75	392.3	30000	1164.4	4.3
0.75	392.3	40000	1169.7	4.3
0.75	392.3	50000	1174.8	4.3
0.75	392.3	60000	1179.6	4.3
0.75	392.3	70000	1184.3	4.3
0.75	392.3	80000	1188.8	4.3
0.75	392.3	90000	1193.1	4.3
0.75	392.3	100000	1197.3	4.3
0.75	392.3	110000	1201.5	4.4
0.75	392.3	120000	1205.5	4.4
0.75	392.3	130000	1209.3	4.4
0.75	392.3	140000	1213.1	4.4
0.75	392.3	150000	1216.8	4.4
0.75	392.3	160000	1220.4	4.4
0.75	392.3	170000	1224	4.4
0.75	392.3	180000	1227.4	4.4
0.75	392.3	190000	1230.8	4.4
0.75	392.3	200000	1234.2	4.4
0.5	312.3	10000	1300.2	5.5
0.5	312.3	20000	1306.1	5.5
0.5	312.3	30000	1311.7	5.5
0.5	312.3	40000	1317	5.5
0.5	312.3	50000	1322.1	5.5
0.5	312.3	60000	1326.9	5.5
0.5	312.3	70000	1331.6	5.6
0.5	312.3	80000	1336.2	5.6
0.5	312.3	90000	1340.5	5.6
0.5	312.3	100000	1344.8	5.6
0.5	312.3	110000	1349.1	5.6
0.5	312.3	120000	1353.1	5.6
0.5	312.3	130000	1357.1	5.6
0.5	312.3	140000	1360.9	5.6
0.5	312.3	150000	1364.7	5.6
0.5	312.3	160000	1368.4	5.6
0.5	312.3	170000	1372.2	5.6
0.5	312.3	180000	1375.8	5.6
0.5	312.3	190000	1379.3	5.6
0.5	312.3	200000	1382.7	5.6
0.5	331.8	10000	1285.2	5.5
0.5	331.8	20000	1291.3	5.5
0.5	331.8	30000	1297.1	5.5
0.5	331.8	40000	1302.7	5.5
0.5	331.8	50000	1307.9	5.5
0.5	331.8	60000	1313	5.5
0.5	331.8	70000	1318	5.5
0.5	331.8	80000	1322.8	5.5
0.5	331.8	90000	1327.2	5.5
0.5	331.8	100000	1331.6	5.6
0.5	331.8	110000	1336.1	5.6
0.5	331.8	120000	1340.4	5.6
0.5	331.8	130000	1344.4	5.6
0.5	331.8	140000	1348.5	5.6
0.5	331.8	150000	1352.3	5.6
0.5	331.8	160000	1356.2	5.6
0.5	331.8	170000	1359.9	5.6
0.5	331.8	180000	1363.8	5.6
0.5	331.8	190000	1367.3	5.6
0.5	331.8	200000	1371	5.6
0.5	351.9	10000	1270.2	5.5
0.5	351.9	20000	1276.5	5.5
0.5	351.9	30000	1282.7	5.5
0.5	351.9	40000	1288.5	5.5
0.5	351.9	50000	1294.1	5.5
0.5	351.9	60000	1299.5	5.5
0.5	351.9	70000	1304.5	5.5
0.5	351.9	80000	1309.5	5.5
0.5	351.9	90000	1314.2	5.5
0.5	351.9	100000	1318.9	5.5
0.5	351.9	110000	1323.3	5.5
0.5	351.9	120000	1327.8	5.5
0.5	351.9	130000	1332	5.6
0.5	351.9	140000	1336.1	5.6
0.5	351.9	150000	1340.3	5.6
0.5	351.9	160000	1344.2	5.6
0.5	351.9	170000	1348	5.6
0.5	351.9	180000	1351.8	5.6
0.5	351.9	190000	1355.6	5.6
0.5	351.9	200000	1359.2	5.6
0.5	372.1	10000	1255	5.5
0.5	372.1	20000	1261.8	5.5
0.5	372.1	30000	1268.4	5.5
0.5	372.1	40000	1274.6	5.5
0.5	372.1	50000	1280.4	5.5
0.5	372.1	60000	1286	5.5
0.5	372.1	70000	1291.3	5.5
0.5	372.1	80000	1296.5	5.5
0.5	372.1	90000	1301.4	5.5
0.5	372.1	100000	1306.1	5.5
0.5	372.1	110000	1310.9	5.5
0.5	372.1	120000	1315.4	5.5
0.5	372.1	130000	1319.8	5.5
0.5	372.1	140000	1324.2	5.5
0.5	372.1	150000	1328.4	5.5
0.5	372.1	160000	1332.5	5.6
0.5	372.1	170000	1336.4	5.6
0.5	372.1	180000	1340.3	5.6
0.5	372.1	190000	1344.1	5.6
0.5	372.1	200000	1347.9	5.6
0.5	392.3	10000	1240.1	5.5
0.5	392.3	20000	1247.4	5.5
0.5	392.3	30000	1254.3	5.5
0.5	392.3	40000	1260.9	5.5
0.5	392.3	50000	1266.9	5.5
0.5	392.3	60000	1272.8	5.5
0.5	392.3	70000	1278.4	5.5
0.5	392.3	80000	1283.8	5.5
0.5	392.3	90000	1288.8	5.5
0.5	392.3	100000	1293.8	5.5
0.5	392.3	110000	1298.7	5.5
0.5	392.3	120000	1303.4	5.5
0.5	392.3	130000	1308	5.5
0.5	392.3	140000	1312.4	5.5
0.5	392.3	150000	1316.8	5.5
0.5	392.3	160000	1320.9	5.5
0.5	392.3	170000	1325.1	5.5
0.5	392.3	180000	1329.2	5.6
0.5	392.3	190000	1333	5.6
0.5	392.3	200000	1336.9	5.6
0.25	312.3	10000	1373.1	6
0.25	312.3	20000	1379.8	6
0.25	312.3	30000	1386	6
0.25	312.3	40000	1392	6
0.25	312.3	50000	1397.7	6
0.25	312.3	60000	1403.3	6
0.25	312.3	70000	1408.6	6
0.25	312.3	80000	1413.7	6
0.25	312.3	90000	1418.5	6
0.25	312.3	100000	1423.4	6
0.25	312.3	110000	1428.1	6
0.25	312.3	120000	1432.6	6
0.25	312.3	130000	1437.1	6
0.25	312.3	140000	1441.3	6
0.25	312.3	150000	1445.6	6
0.25	312.3	160000	1449.7	6
0.25	312.3	170000	1453.8	6
0.25	312.3	180000	1457.7	6
0.25	312.3	190000	1461.7	6.1
0.25	312.3	200000	1465.4	6.1
0.25	331.8	10000	1356.2	5.9
0.25	331.8	20000	1363.2	5.9
0.25	331.8	30000	1369.9	6
0.25	331.8	40000	1376.2	6
0.25	331.8	50000	1382.2	6
0.25	331.8	60000	1388	6
0.25	331.8	70000	1393.5	6
0.25	331.8	80000	1398.9	6
0.25	331.8	90000	1404	6
0.25	331.8	100000	1408.9	6
0.25	331.8	110000	1413.9	6
0.25	331.8	120000	1418.5	6
0.25	331.8	130000	1423.2	6
0.25	331.8	140000	1427.6	6
0.25	331.8	150000	1432	6
0.25	331.8	160000	1436.3	6
0.25	331.8	170000	1440.5	6
0.25	331.8	180000	1444.5	6
0.25	331.8	190000	1448.5	6
0.25	331.8	200000	1452.6	6
0.25	351.9	10000	1339.5	5.9
0.25	351.9	20000	1346.9	5.9
0.25	351.9	30000	1354	5.9
0.25	351.9	40000	1360.6	5.9
0.25	351.9	50000	1366.9	5.9
0.25	351.9	60000	1373	6
0.25	351.9	70000	1378.9	6
0.25	351.9	80000	1384.5	6
0.25	351.9	90000	1389.8	6
0.25	351.9	100000	1394.9	6
0.25	351.9	110000	1400	6
0.25	351.9	120000	1404.9	6
0.25	351.9	130000	1409.6	6
0.25	351.9	140000	1414.2	6
0.25	351.9	150000	1418.7	6
0.25	351.9	160000	1423.2	6
0.25	351.9	170000	1427.5	6
0.25	351.9	180000	1431.7	6
0.25	351.9	190000	1435.8	6
0.25	351.9	200000	1439.9	6
0.25	372.1	10000	1322.9	5.9
0.25	372.1	20000	1330.9	5.9
0.25	372.1	30000	1338.3	5.9
0.25	372.1	40000	1345.3	5.9
0.25	372.1	50000	1352	5.9
0.25	372.1	60000	1358.3	5.9
0.25	372.1	70000	1364.4	5.9
0.25	372.1	80000	1370.4	6
0.25	372.1	90000	1375.8	6
0.25	372.1	100000	1381.2	6
0.25	372.1	110000	1386.4	6
0.25	372.1	120000	1391.5	6
0.25	372.1	130000	1396.2	6
0.25	372.1	140000	1401.1	6
0.25	372.1	150000	1405.7	6
0.25	372.1	160000	1410.3	6
0.25	372.1	170000	1414.7	6
0.25	372.1	180000	1419	6
0.25	372.1	190000	1423.3	6
0.25	372.1	200000	1427.6	6
0.25	392.3	10000	1306.7	5.9
0.25	392.3	20000	1315.1	5.9
0.25	392.3	30000	1323.1	5.9
0.25	392.3	40000	1330.5	5.9
0.25	392.3	50000	1337.5	5.9
0.25	392.3	60000	1344.2	5.9
0.25	392.3	70000	1350.5	5.9
0.25	392.3	80000	1356.6	5.9
0.25	392.3	90000	1362.4	5.9
0.25	392.3	100000	1368	6
0.25	392.3	110000	1373.3	6
0.25	392.3	120000	1378.6	6
0.25	392.3	130000	1383.7	6
0.25	392.3	140000	1388.7	6
0.25	392.3	150000	1393.5	6
0.25	392.3	160000	1398.2	6
0.25	392.3	170000	1402.8	6
0.25	392.3	180000	1407.1	6
0.25	392.3	190000	1411.5	6
0.25	392.3	200000	1415.9	6
