Measured thermophysical data. Efficient determination of crystallisation and melting points at low cooling and heating rates with novel computer controlled equipment
Source: J. Chem. Thermodyn., 2008, 10.1016/j.jct.2008.05.012
Compound 1: acetonitrile, C2H3N, InChI=1S/C2H3N/c1-2-3/h1H3
Compound 2: .gamma.-butyrolactone, C4H6O2, InChI=1S/C4H6O2/c5-4-2-1-3-6-4/h1-3H2
Compound 3: diethyl carbonate, C5H10O3, InChI=1S/C5H10O3/c1-3-7-5(6)8-4-2/h3-4H2,1-2H3
Compound 4: 1,2-dimethoxyethane, C4H10O2, InChI=1S/C4H10O2/c1-5-3-4-6-2/h3-4H2,1-2H3
Compound 5: dimethyl carbonate, C3H6O3, InChI=1S/C3H6O3/c1-5-3(4)6-2/h1-2H3
Compound 6: ethylene carbonate, C3H4O3, InChI=1S/C3H4O3/c4-3-5-1-2-6-3/h1-2H2
Compound 7: ethyl methyl carbonate, C4H8O3, InChI=1S/C4H8O3/c1-3-7-4(5)6-2/h3H2,1-2H3
Compound 8: ethyl propanoate, C5H10O2, InChI=1S/C5H10O2/c1-3-5(6)7-4-2/h3-4H2,1-2H3
Compound 9: 1,4-dioxane, C4H8O2, InChI=1S/C4H8O2/c1-2-6-4-3-5-1/h1-4H2
Compound 10: dimethyl sulfoxide, C2H6OS, InChI=1S/C2H6OS/c1-4(2)3/h1-2H3
Compound 11: nitromethane, CH3NO2, InChI=1S/CH3NO2/c1-2(3)4/h1H3
Compound 12: 1,2-butylene carbonate, C5H8O3, InChI=1S/C5H8O3/c1-2-4-3-7-5(6)8-4/h4H,2-3H2,1H3
Compound 13: 1-ethyl-3-methylimidazolium trifluoromethanesulfonate, C7H11F3N2O3S, InChI=1S/C6H11N2.CHF3O3S/c1-3-8-5-4-7(2)6-8;2-1(3,4)8(5,6)7/h4-6H,3H2,1-2H3;(H,5,6,7)/q+1;/p-1
Compound 14: methyltrioctylammonium trifluoroacetate, C27H54F3NO2, InChI=1S/C25H54N.C2HF3O2/c1-5-8-11-14-17-20-23-26(4,24-21-18-15-12-9-6-2)25-22-19-16-13-10-7-3;3-2(4,5)1(6)7/h5-25H2,1-4H3;(H,6,7)/q+1;/p-1
Compound 15: 3-methoxypropanenitrile, C4H7NO, InChI=1S/C4H7NO/c1-6-4-2-3-5/h2,4H2,1H3
Compound 16: (methyl sulfoxide)-d6, C2D6OS, InChI=1S/C2H6OS/c1-4(2)3/h1-2H3/i1D3,2D3

System: acetonitrile; phases: Crystal, Liquid, Air at 1 atmosphere
Property: Normal melting temperature, K (Crystal); method: Heating/Cooling curves
Normal melting temperature, K	uncertainty
229.07	0.41

System: .gamma.-butyrolactone; phases: Crystal, Liquid, Air at 1 atmosphere
Property: Normal melting temperature, K (Crystal); method: Heating/Cooling curves
Normal melting temperature, K	uncertainty
228.44	0.21

System: diethyl carbonate; phases: Crystal, Liquid, Air at 1 atmosphere
Property: Normal melting temperature, K (Crystal); method: Heating/Cooling curves
Normal melting temperature, K	uncertainty
195.86	0.6

System: 1,2-dimethoxyethane; phases: Crystal, Liquid, Air at 1 atmosphere
Property: Normal melting temperature, K (Crystal); method: Heating/Cooling curves
Normal melting temperature, K	uncertainty
203.41	0.21

System: dimethyl carbonate; phases: Crystal, Liquid, Air at 1 atmosphere
Property: Normal melting temperature, K (Crystal); method: Heating/Cooling curves
Normal melting temperature, K	uncertainty
277.06	0.6

System: ethylene carbonate; phases: Crystal, Liquid, Air at 1 atmosphere
Property: Normal melting temperature, K (Crystal); method: Heating/Cooling curves
Normal melting temperature, K	uncertainty
308.53	0.21

System: ethyl methyl carbonate; phases: Crystal, Liquid, Air at 1 atmosphere
Property: Normal melting temperature, K (Crystal); method: Heating/Cooling curves
Normal melting temperature, K	uncertainty
218.14	0.41

System: ethyl propanoate; phases: Crystal, Liquid, Air at 1 atmosphere
Property: Normal melting temperature, K (Crystal); method: Heating/Cooling curves
Normal melting temperature, K	uncertainty
199.71	0.09

System: 1,4-dioxane; phases: Crystal, Liquid, Air at 1 atmosphere
Property: Normal melting temperature, K (Crystal); method: Heating/Cooling curves
Normal melting temperature, K	uncertainty
284.48	0.41

System: dimethyl sulfoxide; phases: Crystal, Liquid, Air at 1 atmosphere
Property: Normal melting temperature, K (Crystal); method: Heating/Cooling curves
Normal melting temperature, K	uncertainty
290.95	2

System: nitromethane; phases: Crystal, Liquid, Air at 1 atmosphere
Property: Normal melting temperature, K (Crystal); method: Heating/Cooling curves
Normal melting temperature, K	uncertainty
243.36	0.41

System: 1,2-butylene carbonate; phases: Crystal, Liquid, Air at 1 atmosphere
Property: Normal melting temperature, K (Crystal); method: Heating/Cooling curves
Normal melting temperature, K	uncertainty
220.34	1.2

System: 1-ethyl-3-methylimidazolium trifluoromethanesulfonate; phases: Crystal, Liquid, Air at 1 atmosphere
Property: Normal melting temperature, K (Crystal); method: Heating/Cooling curves
Normal melting temperature, K	uncertainty
262.23	0.6

System: methyltrioctylammonium trifluoroacetate; phases: Crystal, Liquid, Air at 1 atmosphere
Property: Normal melting temperature, K (Crystal); method: Heating/Cooling curves
Normal melting temperature, K	uncertainty
285.62	0.21

System: 3-methoxypropanenitrile; phases: Crystal, Liquid, Air at 1 atmosphere
Property: Normal melting temperature, K (Crystal); method: Heating/Cooling curves
Normal melting temperature, K	uncertainty
209.53	0.53

System: (methyl sulfoxide)-d6; phases: Crystal, Liquid, Air at 1 atmosphere
Property: Normal melting temperature, K (Crystal); method: Heating/Cooling curves
Normal melting temperature, K	uncertainty
293.4	0.21
