Measured thermophysical data. Heat capacity and order-disorder phase transition in negative thermal expansion compound ZrW2O8
Source: J. Chem. Thermodyn., 2004, 10.1016/j.jct.2004.03.009
Compound 1: zirconium tungstate, O8W2Zr, InChI=1S/8O.2W.Zr/q;;;;4*-1;;;+4

System: zirconium tungstate; phases: Crystal 2, Crystal 1, Gas
Property: Molar enthalpy of transition or fusion, kJ/mol (Crystal 2); method: Adiabatic calorimetry
Molar enthalpy of transition or fusion, kJ/mol	uncertainty
1.56	0.1

System: zirconium tungstate; phases: Crystal 2
Fixed: Pressure, kPa = 101.325
Property: Molar heat capacity at constant pressure, J/K/mol (Crystal 2); method: VADIAC:UFactor:2
Temperature, K	Molar heat capacity at constant pressure, J/K/mol	uncertainty
239.63	186.77	0.77
241.565	187.31	0.77
243.878	188.13	0.78
246.566	189.66	0.78
249.397	190.09	0.78
252.064	191.11	0.78
254.724	191.74	0.78
257.373	192.6	0.79
260.015	193.62	0.79
262.649	194.62	0.79
265.274	195.53	0.79
267.89	196.33	0.79
270.498	197.26	0.79
273.097	198.09	0.8
275.687	198.88	0.8
278.264	199.94	0.8
280.826	200.5	0.8
283.384	200.8	0.8
285.942	202.16	0.8
288.487	202.55	0.81
291.002	202.2	0.8
293.495	205.18	0.81
296.009	205.3	0.81
297.672	206.92	0.81
298.541	206.22	0.81
299.499	205.76	0.81
301.07	206.24	0.81
301.649	206.58	0.81
303.596	207.43	0.82
303.92	206.95	0.81
306.123	207.82	0.82
306.192	207.72	0.82
308.461	208.74	0.82
308.648	208.95	0.82
310.726	209.42	0.82
311.168	209.72	0.82
312.989	210.09	0.82
313.684	210.56	0.82
315.247	210.36	0.82
316.196	211.05	0.82
317.502	211.25	0.82
318.703	211.72	0.82
319.753	211.97	0.82
321.205	212.53	0.83
322.002	212.25	0.82
323.704	212.99	0.83
324.245	213.18	0.83
326.197	213.86	0.83
326.486	213.61	0.83
328.686	214.63	0.83
328.723	214.51	0.83
330.957	215.19	0.83
331.171	215.33	0.83
333.187	215.8	0.83
333.65	216.32	0.83
335.408	216.38	0.83
336.126	216.95	0.83
337.631	217.21	0.83
338.598	217.79	0.84
339.851	217.49	0.84
341.065	218.35	0.84
342.068	218.32	0.84
343.528	219.04	0.84
344.281	219.1	0.84
346.49	219.49	0.84
348.696	220.08	0.84
350.634	219.78	0.84
350.899	220.81	0.85
351.977	221.21	0.84
353.099	221.25	0.84
353.319	220.98	0.84
354.994	221.58	0.84
355.295	221.95	0.84
357.004	222.07	0.84
357.488	222.6	0.85
359.011	222.53	0.85
359.678	223.2	0.85
360.503	223.49	0.85
361.503	222.74	0.85
361.865	223.65	0.85
362.525	223.51	0.85
363.545	224.52	0.85
364.049	224.02	0.85
364.565	223.65	0.85
365.584	225.17	0.85
366.23	225.08	0.85
366.602	224.04	0.85
367.62	225.33	0.85
368.406	225.72	0.85
368.636	225.29	0.85
369.652	226.05	0.85
370.579	226.31	0.85
370.668	225.69	0.85
371.682	226.85	0.85
372.697	226.44	0.85
372.749	227.1	0.85
373.71	227.14	0.85
374.723	227.52	0.86
374.915	227.74	0.86
375.735	227.48	0.85
376.746	227.59	0.86
377.079	228.34	0.86
377.756	228.88	0.86
378.767	228.35	0.86
379.239	229.29	0.86
379.776	229.43	0.86
380.785	229.3	0.86
381.396	229.82	0.86
381.793	229.76	0.86
382.647	230.75	0.86
383.347	229.56	0.86
383.55	230.49	0.86
384.047	231.17	0.86
384.745	230.81	0.86
385.444	230.55	0.86
385.699	231.19	0.86
386.143	231.41	0.86
386.841	231.7	0.86
387.539	231.12	0.86
387.845	231.87	0.86
388.236	231.9	0.86
388.933	232.37	0.86
389.631	231.73	0.86
389.989	232.74	0.87
390.632	233.02	0.87
391.939	232.56	0.87
392.168	232.97	0.87
393.245	232.76	0.87
394.383	233.56	0.87
394.549	233.69	0.87
395.852	233.86	0.87
396.594	234.71	0.87
397.154	234.41	0.87
398.456	235.36	0.87
398.801	235.14	0.87
399.756	234.78	0.87
401.004	235.99	0.87
401.055	235.43	0.87
402.352	236.21	0.87
403.203	236.54	0.87
403.647	236.46	0.87
404.942	237.14	0.87
405.398	237.58	0.88
406.235	236.87	0.87
407.526	237.92	0.88
407.589	238.15	0.88
409.032	238.45	0.88
409.776	238.77	0.88
410.751	239.61	0.88
411.958	239.87	0.88
412.467	239.58	0.88
414.135	240.78	0.88
414.18	240.57	0.88
416.04	241.36	0.88
416.307	241.89	0.88
418.046	242.34	0.89
418.287	242.85	0.89
420.039	243.61	0.89
420.048	243.62	0.89
421.749	245.21	0.89
422.046	244.77	0.89
423.457	245.94	0.89
424.037	246.06	0.89
425.161	247.14	0.89
426.024	247.25	0.89
426.861	248.57	0.9
427.373	249.21	0.9
428.088	249.04	0.9
428.556	249.51	0.9
428.802	249.37	0.9
429.515	250.89	0.9
430.227	249.96	0.9
430.248	251.01	0.9
430.937	252.13	0.9
431.647	252.28	0.9
431.934	253.07	0.91
432.355	253.35	0.91
433.063	254.34	0.91
433.614	255.01	0.91
433.77	255.56	0.91
434.47	256.91	0.91
434.475	255.17	0.91
435.179	258.53	0.92
435.288	258.15	0.92
435.561	258.63	0.92
435.881	258.89	0.92
436.582	258.96	0.92
436.648	260.54	0.92
436.953	261.2	0.93
437.281	261.55	0.93
437.695	263.69	0.93
437.978	264.77	0.93
438.607	265.9	0.93
438.672	265.58	0.93
438.702	266.67	0.93
439.366	266.92	0.93
439.705	267.25	0.93

System: zirconium tungstate; phases: Crystal 1
Fixed: Pressure, kPa = 101.325
Property: Molar heat capacity at constant pressure, J/K/mol (Crystal 1); method: VADIAC:UFactor:2
Temperature, K	Molar heat capacity at constant pressure, J/K/mol	uncertainty
440.058	267.63	0.96
440.256	265.55	0.94
440.71	264.31	0.94
440.752	262.73	0.93
441.389	258.21	0.93
441.723	255.78	0.93
441.921	253.4	1.05
441.969	252.11	0.93
442.554	246.98	0.9
443.143	244.43	0.89
443.616	242.03	0.89
443.735	240.92	0.9
444.329	239.74	0.88
444.925	237.07	0.88
445.33	237.62	0.88
445.522	238.03	0.88
446.248	236.82	0.87
447.091	235.52	0.87
447.253	235.24	0.87
448.847	234.76	0.87
449.119	234.3	0.87
450.878	234.39	0.87
451.374	234.14	0.87
452.909	233.87	0.87
453.629	234.08	0.87
454.94	233.91	0.87
455.885	234.08	0.87
456.971	234.17	0.87
458.141	233.62	0.87
459.001	234.32	0.87
460.396	234.01	0.87
461.03	234.21	0.87
462.649	234.23	0.87
463.058	234.37	0.87
464.902	233.86	0.87
465.085	234.5	0.87
467.153	234.48	0.87
467.224	234.78	0.87
469.403	234.78	0.87
469.473	235.07	0.87
471.65	234.87	0.89
471.704	234.39	0.89
473.896	234.63	0.89
473.952	235.1	0.89
476.14	235.45	0.87
476.198	235.52	0.87
478.383	234.92	0.89
478.442	235.5	0.89
480.662	235.36	0.87
480.685	235.54	0.87
482.962	236.22	0.87
482.975	235.81	0.87

System: zirconium tungstate; phases: Crystal 2
Fixed: Pressure, kPa = 101.325
Property: Molar heat capacity at constant pressure, J/K/mol (Crystal 2); method: VADIAC:UFactor:2
Temperature, K	Molar heat capacity at constant pressure, J/K/mol	uncertainty
7.48	1.177	0.042
7.879	1.433	0.046
8.313	1.738	0.05
8.784	2.057	0.055
9.256	2.412	0.06
9.743	2.784	0.066
10.223	3.218	0.072
10.694	3.6	0.077
11.162	4.026	0.083
11.631	4.458	0.088
12.111	4.927	0.094
12.612	5.427	0.1
13.142	5.951	0.107
13.708	6.547	0.114
14.345	7.29	0.122
14.907	7.898	0.128
15.509	8.563	0.135
16.147	9.292	0.142
16.806	10.068	0.149
17.508	10.901	0.156
18.189	11.765	0.163
18.834	12.526	0.168
19.505	13.389	0.175
20.179	14.143	0.179
20.838	15.026	0.185
21.489	15.858	0.189
22.104	16.717	0.193
22.721	17.441	0.196
23.376	18.273	0.199
24.043	19.118	0.202
24.72	19.885	0.203
25.404	20.822	0.205
26.096	21.709	0.207
26.802	22.549	0.207
27.519	23.455	0.207
28.245	24.37	0.206
28.974	25.309	0.205
29.708	26.169	0.203
30.449	27.172	0.19
31.191	28.082	0.194
31.939	28.986	0.197
32.69	29.931	0.201
33.44	30.932	0.205
34.193	31.846	0.209
34.953	32.874	0.213
35.719	33.797	0.217
36.498	34.77	0.221
37.216	35.683	0.224
37.918	36.548	0.227
38.691	37.466	0.231
39.469	38.44	0.235
40.222	39.365	0.239
40.954	40.253	0.242
41.706	41.173	0.246
42.47	42.1	0.25
43.241	43.041	0.253
44.024	43.975	0.257
44.788	44.895	0.261
45.531	45.765	0.264
46.257	46.639	0.268
46.966	47.461	0.271
47.659	48.331	0.274
48.393	49.162	0.278
49.168	50.074	0.281
49.979	51.018	0.285
50.869	52.11	0.289
51.811	53.194	0.294
52.784	54.323	0.298
53.785	55.5	0.303
54.817	56.711	0.308
55.889	57.964	0.313
56.992	59.251	0.318
58.121	60.566	0.323
59.279	61.892	0.328
60.437	63.229	0.334
61.597	64.553	0.339
62.793	65.913	0.344
63.994	67.276	0.35
65.167	68.599	0.355
66.314	69.904	0.36
67.439	71.168	0.365
68.596	72.471	0.371
69.784	73.803	0.376
70.984	75.187	0.381
72.219	76.584	0.387
73.469	77.971	0.393
74.72	79.351	0.398
75.961	80.745	0.404
77.194	82.091	0.409
78.418	83.442	0.414
79.648	84.764	0.42
80.883	86.093	0.425
81.415	86.724	0.427
82.125	87.401	0.43
82.534	87.846	0.432
83.388	88.77	0.436
83.777	89.242	0.438
84.662	90.161	0.441
85.029	90.572	0.443
85.93	91.461	0.446
86.264	91.874	0.448
87.18	92.749	0.451
87.481	93.041	0.453
88.787	94.462	0.458
90.179	95.876	0.592
91.552	97.227	0.595
92.906	98.597	0.598
94.243	99.94	0.6
95.636	101.29	0.6
97.083	102.74	0.61
98.512	104.08	0.61
99.922	105.45	0.61
101.316	106.73	0.61
102.763	108.1	0.62
104.262	109.52	0.62
105.744	110.91	0.62
107.21	112.19	0.62
108.66	113.47	0.63
110.159	114.86	0.63
111.708	116.16	0.63
113.241	117.47	0.64
114.759	118.83	0.64
116.263	119.99	0.64
117.816	121.24	0.64
119.414	122.58	0.65
120.999	123.84	0.65
122.568	125.06	0.65
124.124	126.26	0.65
125.725	127.53	0.66
127.373	128.73	0.66
129.007	130.01	0.66
130.629	131.15	0.66
132.238	132.33	0.66
133.91	133.63	0.67
135.665	134.74	0.67
137.448	136.03	0.67
139.237	137.21	0.67
141.013	138.48	0.68
142.835	139.74	0.68
144.701	140.91	0.68
146.575	142.17	0.68
148.459	143.35	0.69
150.328	144.5	0.69
152.242	145.74	0.69
154.2	146.9	0.69
156.146	148.07	0.7
158.08	149.17	0.7
160.002	150.25	0.7
161.967	151.49	0.7
164	152.62	0.71
166.043	153.67	0.71
168.073	154.71	0.71
170.092	155.84	0.71
172.154	157.01	0.71
174.261	158.07	0.72
176.358	159.13	0.72
178.443	160.13	0.72
180.516	161.22	0.72
182.634	162.27	0.72
184.794	163.31	0.73
186.944	164.29	0.73
189.083	165.24	0.73
191.212	166.32	0.73
193.383	167.28	0.73
195.594	168.25	0.74
197.795	169.27	0.74
199.983	170.31	0.74
202.16	171.19	0.74
204.379	172.24	0.74
206.639	173.27	0.75
208.888	174.37	0.75
211.128	175.2	0.75
213.358	176.18	0.75
215.629	177.15	0.75
217.941	178.09	0.76
220.243	179.01	0.76
222.534	179.93	0.76
224.815	180.85	0.76
227.138	181.79	0.76
229.526	182.86	0.77
231.931	183.63	0.77
234.328	184.5	0.77
236.716	185.44	0.77
239.141	186.45	0.77
241.639	187.17	0.77
244.186	188.27	0.78
246.752	189.04	0.78
249.308	190.15	0.78
251.906	190.93	0.78
254.544	191.9	0.78
257.204	192.95	0.79
259.885	193.72	0.79
262.554	194.59	0.79
265.264	195.53	0.79
268.014	196.57	0.79
270.755	197.37	0.79
273.484	198.26	0.8
276.204	199.23	0.8
278.962	200.02	0.8
281.795	200.99	0.8
284.69	201.94	0.8
287.644	202.85	0.81
290.623	203.81	0.81
293.645	204.41	0.81
296.709	205.44	0.81
299.801	206.15	0.81
302.917	207.27	0.81
306.019	208	0.82
309.16	208.7	0.82
312.337	209.64	0.82
315.507	210.43	0.82
318.667	211.14	0.82
321.811	211.72	0.82
324.994	212.44	0.82
327.85	213.35	0.83

System: zirconium tungstate; phases: Crystal 2
Fixed: Pressure, kPa = 101.325
Property: Molar heat capacity at constant pressure, J/K/mol (Crystal 2); method: VADIAC:UFactor:2
Temperature, K	Molar heat capacity at constant pressure, J/K/mol	uncertainty
10	2.9	0.07
20	13.98	0.18
30	26.58	0.19
40	39.1	0.24
50	51.06	0.29
60	62.71	0.33
70	74.07	0.38
80	85.15	0.42
90	95.68	0.59
100	105.51	0.61
110	114.68	0.63
120	123.05	0.65
130	130.71	0.66
140	137.79	0.68
150	144.31	0.69
160	150.3	0.7
170	155.82	0.71
180	160.94	0.72
190	165.72	0.73
200	170.29	0.74
210	174.72	0.75
220	178.94	0.76
230	182.9	0.77
240	186.69	0.77
250	190.29	0.78
260	193.78	0.79
270	197.17	0.79
280	200.4	0.8
290	203.41	0.81
298.15	205.73	0.81
300	206.27	0.81
310	209.2	0.82
320	211.96	0.82
330	214.86	0.83
340	217.85	0.84
350	220.3	0.84
360	222.94	0.85
370	225.94	0.85
380	229.19	0.86
390	232.33	0.86
400	235.41	0.87
410	238.86	0.88
420	243.6	0.89
430	250.75	0.9
440	267.6	0.94

System: zirconium tungstate; phases: Crystal 1
Fixed: Pressure, kPa = 101.325
Property: Molar heat capacity at constant pressure, J/K/mol (Crystal 1); method: VADIAC:UFactor:2
Temperature, K	Molar heat capacity at constant pressure, J/K/mol	uncertainty
450	234.2	0.87
460	234.04	0.87
470	234.71	0.87
480	235.49	0.87

System: zirconium tungstate; phases: Crystal 2
Fixed: Pressure, kPa = 101.325
Property: Molar enthalpy function {Hm(T)-Hm(0)}/T, J/K/mol (Crystal 2); method: VADIAC:UFactor:2
Temperature, K	Molar enthalpy function {Hm(T)-Hm(0)}/T, J/K/mol	uncertainty
10	0.65	0.03
20	4.37	0.07
30	9.68	0.12
40	15.48	0.14
50	21.4	0.17
60	27.32	0.19
70	33.19	0.21
80	39	0.24
90	44.72	0.49
100	50.31	0.5
110	55.75	0.51
120	61.02	0.52
130	66.09	0.53
140	70.96	0.54
150	75.64	0.55
160	80.12	0.56
170	84.41	0.57
180	88.52	0.58
190	92.46	0.58
200	96.24	0.59
210	99.87	0.6
220	103.37	0.61
230	106.74	0.61
240	110	0.62
250	113.14	0.63
260	116.17	0.63
270	119.11	0.64
280	121.96	0.64
290	124.71	0.65
298.15	126.9	0.65
300	127.38	0.65
310	129.98	0.66
320	132.5	0.67
330	134.95	0.67
340	137.34	0.67
350	139.68	0.68
360	141.95	0.68
370	144.18	0.69
380	146.37	0.69
390	148.54	0.7
400	150.67	0.7
410	152.78	0.71
420	154.88	0.71
430	157.02	0.71
440	159.32	0.72

System: zirconium tungstate; phases: Crystal 1
Fixed: Pressure, kPa = 101.325
Property: Molar enthalpy function {Hm(T)-Hm(0)}/T, J/K/mol (Crystal 1); method: VADIAC:UFactor:2
Temperature, K	Molar enthalpy function {Hm(T)-Hm(0)}/T, J/K/mol	uncertainty
450	161.18	0.72
460	162.76	0.73
470	164.29	0.73
480	165.76	0.73

System: zirconium tungstate; phases: Crystal 2
Fixed: Pressure, kPa = 101.325
Property: Molar entropy, J/K/mol (Crystal 2); method: VADIAC:UFactor:2
Temperature, K	Molar entropy, J/K/mol	uncertainty
10	0.82	0.05
20	5.99	0.13
30	14.04	0.21
40	23.41	0.26
50	33.43	0.32
60	43.78	0.38
70	54.3	0.45
80	64.92	0.51
90	75.56	0.83
100	86.16	0.86
110	96.65	0.89
120	106.99	0.92
130	117.15	0.95
140	127.1	0.98
150	136.83	1.01
160	146.34	1.04
170	155.62	1.07
180	164.67	1.09
190	173.5	1.12
200	182.12	1.15
210	190.54	1.17
220	198.76	1.2
230	206.8	1.22
240	214.67	1.24
250	222.36	1.27
260	229.9	1.29
270	237.27	1.31
280	244.5	1.33
290	251.59	1.35
298.15	257.26	1.37
300	258.53	1.38
310	265.34	1.4
320	272.03	1.42
330	278.6	1.44
340	285.06	1.46
350	291.41	1.47
360	297.65	1.49
370	303.8	1.51
380	309.86	1.53
390	315.86	1.55
400	321.78	1.57
410	327.63	1.58
420	333.44	1.6
430	339.25	1.62
440	345.18	1.64

System: zirconium tungstate; phases: Crystal 1
Fixed: Pressure, kPa = 101.325
Property: Molar entropy, J/K/mol (Crystal 1); method: VADIAC:UFactor:2
Temperature, K	Molar entropy, J/K/mol	uncertainty
450	350.65	1.65
460	355.79	1.67
470	360.83	1.68
480	365.78	1.7
