Measured thermophysical data. Volumetric properties and volumetric interaction parameters for the CsCl-monosaccharide (D-galactose, D-xylose and D-arabinose)-water systems at T = 298.15 K
Source: J. Chem. Thermodyn., 2004, 10.1016/j.jct.2004.04.010
Compound 1: cesium chloride, ClCs, InChI=1S/ClH.Cs/h1H;/q;+1/p-1, purity 99.9%
Compound 2: (+)-galactose, C6H12O6, InChI=1S/C6H12O6/c7-1-3(9)5(11)6(12)4(10)2-8/h1,3-6,8-12H,2H2/t3-,4+,5+,6-/m0/s1, purity 96%
Compound 3: D-xylose, C5H10O5, InChI=1S/C5H10O5/c6-1-3(8)5(10)4(9)2-7/h1,3-5,7-10H,2H2/t3-,4+,5+/m0/s1, purity 96%
Compound 4: D-(-)-arabinose, C5H10O5, InChI=1S/C5H10O5/c6-1-3(8)5(10)4(9)2-7/h1,3-5,7-10H,2H2/t3-,4-,5+/m1/s1, purity 99%
Compound 5: water, H2O, InChI=1S/H2O/h1H2

System: water; phases: Liquid
Property: Mass density, kg/m3 (Liquid); method: Vibrating tube method
Temperature, K	Pressure, kPa	Mass density, kg/m3	uncertainty
298.15	101.3	997.047	0.141

System: (+)-galactose + water; phases: Liquid
Fixed: Temperature, K = 298.15
Fixed: Pressure, kPa = 101.3
Property: Mass density, kg/m3 (Liquid); method: VIBTUB:UFactor:4
Molality, mol/kg of (+)-galactose	Mass density, kg/m3	uncertainty
0.2	1010.677	0.222
0.4	1023.697	0.279
0.6	1036.147	0.334
0.8	1047.984	0.389
1	1059.404	0.445
1.2	1070.219	0.498

System: D-xylose + water; phases: Liquid
Fixed: Temperature, K = 298.15
Fixed: Pressure, kPa = 101.3
Property: Mass density, kg/m3 (Liquid); method: VIBTUB::UFactor:4
Molality, mol/kg of D-xylose	Mass density, kg/m3	uncertainty
0.2	1007.719	0.213
0.4	1017.952	0.257
0.6	1027.796	0.302
0.8	1037.278	0.348
1	1046.379	0.393
1.2	1055.193	0.438

System: water + D-(-)-arabinose; phases: Liquid
Fixed: Temperature, K = 298.15
Fixed: Pressure, kPa = 101.3
Property: Mass density, kg/m3 (Liquid); method: VIBTUB::UFactor:4
Molality, mol/kg of D-(-)-arabinose	Mass density, kg/m3	uncertainty
0.2	1008.056	0.195
0.4	1018.641	0.216
0.6	1028.669	0.226
0.8	1038.378	0.242
1	1047.686	0.237
1.2	1056.361	0.267

System: cesium chloride + water; phases: Liquid
Fixed: Temperature, K = 298.15
Fixed: Pressure, kPa = 101.3
Property: Mass density, kg/m3 (Liquid); method: VIBTUB:UFactor:4
Molality, mol/kg of cesium chloride	Mass density, kg/m3	uncertainty
0	997.047	0.188
0.015	998.969	0.135
0.03	1000.883	0.135
0.05	1003.43	0.139
0.075	1006.607	0.144
0.1	1009.77	0.148

System: D-xylose + cesium chloride + water; phases: Liquid
Fixed: Temperature, K = 298.15
Fixed: Pressure, kPa = 101.3
Property: Mass density, kg/m3 (Liquid); method: VIBTUB:UFactor:4
Molality, mol/kg of D-xylose	Molality, mol/kg of cesium chloride	Mass density, kg/m3	uncertainty
0.2	0	1007.719	0.213
0.2	0.015	1009.569	0.176
0.2	0.03	1011.415	0.178
0.2	0.05	1013.882	0.182
0.2	0.075	1016.962	0.186
0.2	0.1	1020.011	0.189
0.4	0	1017.952	0.257
0.4	0.015	1019.721	0.226
0.4	0.03	1021.548	0.228
0.4	0.05	1023.907	0.23
0.4	0.075	1026.892	0.234
0.4	0.1	1029.804	0.237
0.6	0	1027.796	0.302
0.6	0.015	1029.538	0.277
0.6	0.03	1031.237	0.279
0.6	0.05	1033.512	0.281
0.6	0.075	1036.399	0.284
0.6	0.1	1039.204	0.286
0.8	0	1037.278	0.348
0.8	0.015	1038.948	0.328
0.8	0.03	1040.557	0.329
0.8	0.05	1042.747	0.331
0.8	0.075	1045.591	0.334
0.8	0.1	1048.275	0.336
1	0	1046.379	0.393
1	0.015	1047.945	0.378
1	0.03	1049.483	0.379
1	0.05	1051.612	0.381
1	0.075	1054.234	0.383
1	0.1	1056.855	0.385
1.2	0	1055.193	0.438
1.2	0.015	1056.705	0.427
1.2	0.03	1058.186	0.428
1.2	0.05	1060.168	0.429
1.2	0.075	1062.692	0.431
1.2	0.1	1065.112	0.433

System: cesium chloride + water + D-(-)-arabinose; phases: Liquid
Fixed: Temperature, K = 298.15
Fixed: Pressure, kPa = 101.3
Property: Mass density, kg/m3 (Liquid); method: VIBTUB:UFactor:4
Molality, mol/kg of D-(-)-arabinose	Molality, mol/kg of cesium chloride	Mass density, kg/m3	uncertainty
0.2	0	1008.056	0.195
0.2	0.015	1009.905	0.154
0.2	0.03	1011.75	0.156
0.2	0.05	1014.158	0.16
0.2	0.075	1017.223	0.164
0.2	0.1	1020.25	0.169
0.4	0	1018.641	0.216
0.4	0.015	1020.413	0.174
0.4	0.03	1022.183	0.177
0.4	0.05	1024.507	0.18
0.4	0.075	1027.427	0.184
0.4	0.1	1030.324	0.188
0.6	0	1028.669	0.226
0.6	0.015	1030.342	0.194
0.6	0.03	1032.06	0.197
0.6	0.05	1034.318	0.2
0.6	0.075	1037.309	0.204
0.6	0.1	1039.86	0.208
0.8	0	1038.378	0.242
0.8	0.015	1040.003	0.214
0.8	0.03	1041.528	0.216
0.8	0.05	1043.711	0.219
0.8	0.075	1046.402	0.222
0.8	0.1	1049.049	0.226
1	0	1047.686	0.237
1	0.015	1048.322	2
1	0.03	1050.689	0.234
1	0.05	1052.669	0.237
1	0.075	1055.315	0.241
1	0.1	1057.928	0.244
1.2	0	1056.361	0.267
1.2	0.015	1057.839	0.25
1.2	0.03	1059.389	0.252
1.2	0.05	1061.293	0.255
1.2	0.075	1063.784	0.258
1.2	0.1	1066.328	0.261

System: (+)-galactose + cesium chloride + water; phases: Liquid
Fixed: Temperature, K = 298.15
Fixed: Pressure, kPa = 101.3
Property: Mass density, kg/m3 (Liquid); method: VIBTUB:UFactor:4
Molality, mol/kg of (+)-galactose	Molality, mol/kg of cesium chloride	Mass density, kg/m3	uncertainty
0.2	0	1010.677	0.222
0.2	0.015	1012.526	0.187
0.2	0.03	1014.343	0.189
0.2	0.05	1016.775	0.192
0.2	0.075	1019.819	0.196
0.2	0.1	1022.848	0.2
0.4	0	1023.697	0.279
0.4	0.015	1025.456	0.248
0.4	0.03	1027.179	0.25
0.4	0.05	1029.5	0.252
0.4	0.075	1032.415	0.256
0.4	0.1	1035.332	0.259
0.6	0	1036.147	0.334
0.6	0.015	1037.829	0.311
0.6	0.03	1039.468	0.312
0.6	0.05	1041.717	0.314
0.6	0.075	1044.467	0.317
0.6	0.1	1047.227	0.319
0.8	0	1047.984	0.389
0.8	0.015	1049.599	0.372
0.8	0.03	1051.15	0.373
0.8	0.05	1053.216	0.375
0.8	0.075	1055.81	0.377
0.8	0.1	1058.492	0.379
1	0	1059.404	0.445
1	0.015	1060.88	0.432
1	0.03	1062.351	0.433
1	0.05	1064.38	0.434
1	0.075	1066.736	0.436
1	0.1	1069.384	0.438
1.2	0	1070.219	0.498
1.2	0.015	1071.662	0.49
1.2	0.03	1073.064	0.49
1.2	0.05	1074.75	0.491
1.2	0.075	1077.15	0.493
1.2	0.1	1079.717	0.495
