Measured thermophysical data. Thermodynamic study of N-acetyl glycine in aqueous tetraethylammonium iodide solutions in the temperature interval (288.15 to 308.15) K: Volumetric and acoustic study
Source: J. Chem. Thermodyn., 2016, 10.1016/j.jct.2015.10.022
Compound 1: N-acetylglycine, C4H7NO3, InChI=1S/C4H7NO3/c1-3(6)5-2-4(7)8/h2H2,1H3,(H,5,6)(H,7,8), purity 99%
Compound 2: tetraethylammonium iodide, C8H20IN, InChI=1S/C8H20N.HI/c1-5-9(6-2,7-3)8-4;/h5-8H2,1-4H3;1H/q+1;/p-1, purity 99.8%
Compound 3: water, H2O, InChI=1S/H2O/h1H2

System: tetraethylammonium iodide + N-acetylglycine + water; phases: Liquid
Fixed: Pressure, kPa = 101
Property: Mass density, kg/m3 (Liquid); method: Vibrating tube method
Temperature, K	Solvent: Molality, mol/kg of tetraethylammonium iodide	Molality, mol/kg of N-acetylglycine	Mass density, kg/m3	uncertainty
288.15	0.03	0	1002.687	0.132
288.15	0.03	0.02012	1003.32	0.13
288.15	0.03	0.05972	1004.54	0.13
288.15	0.03	0.09975	1005.74	0.14
288.15	0.03	0.1398	1006.93	0.15
288.15	0.03	0.16978	1007.8	0.16
288.15	0.03	0.19989	1008.66	0.17
293.15	0.03	0	1001.77	0.134
293.15	0.03	0.02012	1002.39	0.13
293.15	0.03	0.05972	1003.59	0.13
293.15	0.03	0.09975	1004.77	0.14
293.15	0.03	0.1398	1005.94	0.15
293.15	0.03	0.16978	1006.79	0.16
293.15	0.03	0.19989	1007.63	0.16
298.15	0.03	0	1000.563	0.133
298.15	0.03	0.02012	1001.17	0.13
298.15	0.03	0.05972	1002.35	0.13
298.15	0.03	0.09975	1003.52	0.14
298.15	0.03	0.1398	1004.67	0.15
298.15	0.03	0.16978	1005.5	0.16
298.15	0.03	0.19989	1006.34	0.16
303.15	0.03	0	999.141	0.133
303.15	0.03	0.02012	999.74	0.13
303.15	0.03	0.05972	1000.9	0.13
303.15	0.03	0.09975	1002.05	0.14
303.15	0.03	0.1398	1003.18	0.15
303.15	0.03	0.16978	1004	0.16
303.15	0.03	0.19989	1004.81	0.16
308.15	0.03	0	997.537	0.131
308.15	0.03	0.02012	998.13	0.13
308.15	0.03	0.05972	999.27	0.13
308.15	0.03	0.09975	1000.4	0.14
308.15	0.03	0.1398	1001.52	0.15
308.15	0.03	0.16978	1002.33	0.16
308.15	0.03	0.19989	1003.13	0.17
288.15	0.05	0	1004.108	0.144
288.15	0.05	0.01994	1004.73	0.14
288.15	0.05	0.06019	1005.95	0.15
288.15	0.05	0.09992	1007.14	0.15
288.15	0.05	0.14039	1008.32	0.16
288.15	0.05	0.17027	1009.17	0.17
288.15	0.05	0.2007	1010.03	0.19
293.15	0.05	0	1003.177	0.144
293.15	0.05	0.01994	1003.79	0.14
293.15	0.05	0.06019	1004.99	0.14
293.15	0.05	0.09992	1006.15	0.15
293.15	0.05	0.14039	1007.31	0.16
293.15	0.05	0.17027	1008.15	0.17
293.15	0.05	0.2007	1009	0.18
298.15	0.05	0	1001.987	0.144
298.15	0.05	0.01994	1002.59	0.14
298.15	0.05	0.06019	1003.77	0.14
298.15	0.05	0.09992	1004.92	0.15
298.15	0.05	0.14039	1006.05	0.16
298.15	0.05	0.17027	1006.88	0.17
298.15	0.05	0.2007	1007.71	0.18
303.15	0.05	0	1000.561	0.143
303.15	0.05	0.01994	1001.15	0.14
303.15	0.05	0.06019	1002.32	0.14
303.15	0.05	0.09992	1003.45	0.15
303.15	0.05	0.14039	1004.57	0.16
303.15	0.05	0.17027	1005.37	0.17
303.15	0.05	0.2007	1006.19	0.18
308.15	0.05	0	998.922	0.142
308.15	0.05	0.01994	999.51	0.14
308.15	0.05	0.06019	1000.66	0.14
308.15	0.05	0.09992	1001.76	0.15
308.15	0.05	0.14039	1002.87	0.16
308.15	0.05	0.17027	1003.66	0.17
308.15	0.05	0.2007	1004.47	0.18
288.15	0.1	0	1007.652	0.189
288.15	0.1	0.01992	1008.25	0.19
288.15	0.1	0.06008	1009.44	0.19
288.15	0.1	0.10073	1010.65	0.2
288.15	0.1	0.14001	1011.83	0.21
288.15	0.1	0.17008	1012.73	0.21
288.15	0.1	0.20036	1013.64	0.22
293.15	0.1	0	1006.688	0.189
293.15	0.1	0.01992	1007.27	0.19
293.15	0.1	0.06008	1008.44	0.19
293.15	0.1	0.10073	1009.63	0.2
293.15	0.1	0.14001	1010.79	0.2
293.15	0.1	0.17008	1011.68	0.21
293.15	0.1	0.20036	1012.57	0.22
298.15	0.1	0	1005.466	0.187
298.15	0.1	0.01992	1006.04	0.19
298.15	0.1	0.06008	1007.19	0.19
298.15	0.1	0.10073	1008.36	0.19
298.15	0.1	0.14001	1009.49	0.2
298.15	0.1	0.17008	1010.37	0.21
298.15	0.1	0.20036	1011.25	0.22
303.15	0.1	0	1004	0.186
303.15	0.1	0.01992	1004.56	0.18
303.15	0.1	0.06008	1005.7	0.19
303.15	0.1	0.10073	1006.85	0.19
303.15	0.1	0.14001	1007.96	0.2
303.15	0.1	0.17008	1008.83	0.21
303.15	0.1	0.20036	1009.7	0.21
308.15	0.1	0	1002.334	0.185
308.15	0.1	0.01992	1002.89	0.18
308.15	0.1	0.06008	1004.01	0.19
308.15	0.1	0.10073	1005.14	0.19
308.15	0.1	0.14001	1006.24	0.2
308.15	0.1	0.17008	1007.09	0.21
308.15	0.1	0.20036	1007.94	0.21
288.15	0.15	0	1011.137	0.244
288.15	0.15	0.01979	1011.76	0.24
288.15	0.15	0.05921	1012.97	0.24
288.15	0.15	0.09997	1014.21	0.25
288.15	0.15	0.14054	1015.41	0.25
288.15	0.15	0.16923	1016.24	0.26
288.15	0.15	0.20004	1017.13	0.26
293.15	0.15	0	1010.182	0.243
293.15	0.15	0.01979	1010.8	0.24
293.15	0.15	0.05921	1011.99	0.24
293.15	0.15	0.09997	1013.2	0.25
293.15	0.15	0.14054	1014.37	0.25
293.15	0.15	0.16923	1015.19	0.26
293.15	0.15	0.20004	1016.05	0.26
298.15	0.15	0	1008.927	0.241
298.15	0.15	0.01979	1009.53	0.24
298.15	0.15	0.05921	1010.71	0.24
298.15	0.15	0.09997	1011.89	0.24
298.15	0.15	0.14054	1013.05	0.25
298.15	0.15	0.16923	1013.84	0.25
298.15	0.15	0.20004	1014.68	0.26
303.15	0.15	0	1007.411	0.239
303.15	0.15	0.01979	1008	0.24
303.15	0.15	0.05921	1009.16	0.24
303.15	0.15	0.09997	1010.33	0.24
303.15	0.15	0.14054	1011.46	0.25
303.15	0.15	0.16923	1012.25	0.25
303.15	0.15	0.20004	1013.08	0.25
308.15	0.15	0	1005.757	0.237
308.15	0.15	0.01979	1006.34	0.24
308.15	0.15	0.05921	1007.48	0.24
308.15	0.15	0.09997	1008.63	0.24
308.15	0.15	0.14054	1009.75	0.25
308.15	0.15	0.16923	1010.52	0.25
308.15	0.15	0.20004	1011.34	0.25
288.15	0.2	0	1014.594	0.305
288.15	0.2	0.02013	1015.18	0.3
288.15	0.2	0.06066	1016.36	0.3
288.15	0.2	0.09981	1017.5	0.3
288.15	0.2	0.14001	1018.68	0.3
288.15	0.2	0.17006	1019.56	0.31
288.15	0.2	0.20006	1020.45	0.32
293.15	0.2	0	1013.565	0.293
293.15	0.2	0.02013	1014.14	0.29
293.15	0.2	0.06066	1015.3	0.29
293.15	0.2	0.09981	1016.42	0.29
293.15	0.2	0.14001	1017.57	0.29
293.15	0.2	0.17006	1018.44	0.3
293.15	0.2	0.20006	1019.31	0.3
298.15	0.2	0	1012.282	0.292
298.15	0.2	0.02013	1012.85	0.29
298.15	0.2	0.06066	1013.99	0.29
298.15	0.2	0.09981	1015.09	0.29
298.15	0.2	0.14001	1016.22	0.29
298.15	0.2	0.17006	1017.08	0.3
298.15	0.2	0.20006	1017.93	0.3
303.15	0.2	0	1010.762	0.292
303.15	0.2	0.02013	1011.32	0.29
303.15	0.2	0.06066	1012.44	0.29
303.15	0.2	0.09981	1013.53	0.29
303.15	0.2	0.14001	1014.64	0.29
303.15	0.2	0.17006	1015.48	0.3
303.15	0.2	0.20006	1016.32	0.3
308.15	0.2	0	1009.04	0.291
308.15	0.2	0.02013	1009.59	0.29
308.15	0.2	0.06066	1010.69	0.28
308.15	0.2	0.09981	1011.77	0.29
308.15	0.2	0.14001	1012.87	0.29
308.15	0.2	0.17006	1013.69	0.3
308.15	0.2	0.20006	1014.52	0.3

System: tetraethylammonium iodide + N-acetylglycine + water; phases: Liquid
Fixed: Pressure, kPa = 101
Fixed: Frequency, MHz = 3
Property: Speed of sound, m/s (Liquid); method: Sing-around technique in a fixed-path interferometer
Temperature, K	Solvent: Molality, mol/kg of tetraethylammonium iodide	Molality, mol/kg of N-acetylglycine	Speed of sound, m/s	uncertainty
288.15	0.03	0	1469.27	1.29
288.15	0.03	0.02012	1470.23	1.29
288.15	0.03	0.05972	1472.18	1.29
288.15	0.03	0.09975	1474.19	1.29
288.15	0.03	0.1398	1476.14	1.3
288.15	0.03	0.16978	1478.2	1.3
288.15	0.03	0.19989	1479.07	1.3
293.15	0.03	0	1485.17	1.29
293.15	0.03	0.02012	1486.07	1.29
293.15	0.03	0.05972	1487.83	1.29
293.15	0.03	0.09975	1489.55	1.3
293.15	0.03	0.1398	1491.44	1.3
293.15	0.03	0.16978	1493.18	1.3
293.15	0.03	0.19989	1493.95	1.29
298.15	0.03	0	1499.19	1.29
298.15	0.03	0.02012	1500	1.29
298.15	0.03	0.05972	1501.55	1.29
298.15	0.03	0.09975	1503.12	1.3
298.15	0.03	0.1398	1504.84	1.3
298.15	0.03	0.16978	1506.43	1.3
298.15	0.03	0.19989	1507.06	1.3
303.15	0.03	0	1511.27	1.3
303.15	0.03	0.02012	1512	1.3
303.15	0.03	0.05972	1513.39	1.3
303.15	0.03	0.09975	1514.78	1.3
303.15	0.03	0.1398	1516.31	1.3
303.15	0.03	0.16978	1517.77	1.3
303.15	0.03	0.19989	1518.27	1.3
308.15	0.03	0	1521.35	1.3
308.15	0.03	0.02012	1521.98	1.3
308.15	0.03	0.05972	1523.21	1.3
308.15	0.03	0.09975	1524.45	1.3
308.15	0.03	0.1398	1525.84	1.3
308.15	0.03	0.16978	1527.18	1.31
308.15	0.03	0.19989	1528.55	1.31
288.15	0.05	0	1470.99	1.29
288.15	0.05	0.01994	1471.94	1.29
288.15	0.05	0.06019	1473.92	1.29
288.15	0.05	0.09992	1475.79	1.3
288.15	0.05	0.14039	1477.76	1.3
288.15	0.05	0.17027	1479.11	1.31
288.15	0.05	0.2007	1481.31	1.32
293.15	0.05	0	1486.68	1.29
293.15	0.05	0.01994	1487.45	1.29
293.15	0.05	0.06019	1489.09	1.29
293.15	0.05	0.09992	1490.73	1.3
293.15	0.05	0.14039	1492.5	1.3
293.15	0.05	0.17027	1493.74	1.3
293.15	0.05	0.2007	1495.21	1.31
298.15	0.05	0	1500.44	1.3
298.15	0.05	0.01994	1501.19	1.3
298.15	0.05	0.06019	1502.83	1.3
298.15	0.05	0.09992	1504.27	1.3
298.15	0.05	0.14039	1505.87	1.3
298.15	0.05	0.17027	1507	1.31
298.15	0.05	0.2007	1508.92	1.31
303.15	0.05	0	1512.34	1.3
303.15	0.05	0.01994	1513.02	1.3
303.15	0.05	0.06019	1514.5	1.3
303.15	0.05	0.09992	1515.78	1.3
303.15	0.05	0.14039	1517.18	1.3
303.15	0.05	0.17027	1518.17	1.31
303.15	0.05	0.2007	1520.01	1.31
308.15	0.05	0	1522.38	1.3
308.15	0.05	0.01994	1523	1.3
308.15	0.05	0.06019	1524.32	1.3
308.15	0.05	0.09992	1525.45	1.3
308.15	0.05	0.14039	1526.69	1.3
308.15	0.05	0.17027	1527.57	1.31
308.15	0.05	0.2007	1529.35	1.32
288.15	0.1	0	1475.39	1.3
288.15	0.1	0.01992	1476.37	1.3
288.15	0.1	0.06008	1478.38	1.3
288.15	0.1	0.10073	1480.03	1.3
288.15	0.1	0.14001	1481.84	1.31
288.15	0.1	0.17008	1483.43	1.31
288.15	0.1	0.20036	1484.9	1.32
293.15	0.1	0	1490.62	1.3
293.15	0.1	0.01992	1491.44	1.3
293.15	0.1	0.06008	1493.12	1.3
293.15	0.1	0.10073	1494.86	1.3
293.15	0.1	0.14001	1496.55	1.31
293.15	0.1	0.17008	1497.88	1.31
293.15	0.1	0.20036	1499.16	1.31
298.15	0.1	0	1503.96	1.3
298.15	0.1	0.01992	1504.72	1.3
298.15	0.1	0.06008	1506.45	1.3
298.15	0.1	0.10073	1507.76	1.3
298.15	0.1	0.14001	1509.3	1.31
298.15	0.1	0.17008	1510.47	1.31
298.15	0.1	0.20036	1511.69	1.31
303.15	0.1	0	1515.48	1.3
303.15	0.1	0.01992	1516.15	1.3
303.15	0.1	0.06008	1517.73	1.3
303.15	0.1	0.10073	1518.88	1.3
303.15	0.1	0.14001	1520.23	1.31
303.15	0.1	0.17008	1521.29	1.31
303.15	0.1	0.20036	1522.4	1.31
308.15	0.1	0	1525.28	1.3
308.15	0.1	0.01992	1525.88	1.3
308.15	0.1	0.06008	1527.32	1.3
308.15	0.1	0.10073	1528.31	1.3
308.15	0.1	0.14001	1529.51	1.31
308.15	0.1	0.17008	1530.48	1.31
308.15	0.1	0.20036	1531.47	1.31
288.15	0.15	0	1479.45	1.31
288.15	0.15	0.01979	1480.33	1.31
288.15	0.15	0.05921	1482.17	1.31
288.15	0.15	0.09997	1484.13	1.32
288.15	0.15	0.14054	1486.23	1.32
288.15	0.15	0.16923	1487.44	1.32
288.15	0.15	0.20004	1488.75	1.33
293.15	0.15	0	1494.37	1.31
293.15	0.15	0.01979	1495.17	1.31
293.15	0.15	0.05921	1496.82	1.31
293.15	0.15	0.09997	1498.55	1.31
293.15	0.15	0.14054	1500.27	1.32
293.15	0.15	0.16923	1501.46	1.32
293.15	0.15	0.20004	1502.76	1.32
298.15	0.15	0	1507.3	1.31
298.15	0.15	0.01979	1508	1.31
298.15	0.15	0.05921	1509.48	1.31
298.15	0.15	0.09997	1511.29	1.31
298.15	0.15	0.14054	1512.81	1.31
298.15	0.15	0.16923	1513.64	1.31
298.15	0.15	0.20004	1514.79	1.31
303.15	0.15	0	1518.48	1.31
303.15	0.15	0.01979	1519.2	1.31
303.15	0.15	0.05921	1520.41	1.31
303.15	0.15	0.09997	1522.49	1.31
303.15	0.15	0.14054	1523.43	1.31
303.15	0.15	0.16923	1524.12	1.31
303.15	0.15	0.20004	1525.15	1.31
308.15	0.15	0	1527.86	1.31
308.15	0.15	0.01979	1528.45	1.31
308.15	0.15	0.05921	1529.58	1.31
308.15	0.15	0.09997	1531.5	1.31
308.15	0.15	0.14054	1532.29	1.31
308.15	0.15	0.16923	1532.91	1.31
308.15	0.15	0.20004	1533.79	1.31
288.15	0.2	0	1483.73	1.33
288.15	0.2	0.02013	1484.64	1.34
288.15	0.2	0.06066	1486.58	1.34
288.15	0.2	0.09981	1488.37	1.34
288.15	0.2	0.14001	1490.39	1.34
288.15	0.2	0.17006	1491.6	1.34
288.15	0.2	0.20006	1492.91	1.35
293.15	0.2	0	1498.06	1.32
293.15	0.2	0.02013	1498.88	1.32
293.15	0.2	0.06066	1500.61	1.32
293.15	0.2	0.09981	1502.25	1.32
293.15	0.2	0.14001	1504.03	1.33
293.15	0.2	0.17006	1505.12	1.33
293.15	0.2	0.20006	1506.29	1.32
298.15	0.2	0	1510.58	1.31
298.15	0.2	0.02013	1511.3	1.32
298.15	0.2	0.06066	1512.85	1.32
298.15	0.2	0.09981	1514.31	1.32
298.15	0.2	0.14001	1515.91	1.32
298.15	0.2	0.17006	1516.87	1.32
298.15	0.2	0.20006	1517.92	1.31
303.15	0.2	0	1521.37	1.31
303.15	0.2	0.02013	1522.01	1.31
303.15	0.2	0.06066	1523.38	1.31
303.15	0.2	0.09981	1524.71	1.31
303.15	0.2	0.14001	1526.11	1.31
303.15	0.2	0.17006	1527	1.32
303.15	0.2	0.20006	1527.93	1.31
308.15	0.2	0	1530.49	1.32
308.15	0.2	0.02013	1531.07	1.32
308.15	0.2	0.06066	1532.29	1.32
308.15	0.2	0.09981	1533.45	1.31
308.15	0.2	0.14001	1534.7	1.32
308.15	0.2	0.17006	1535.48	1.32
308.15	0.2	0.20006	1536.32	1.32
