Measured thermophysical data. Thermodynamic contributions of peptide backbone unit from water to biocompatible ionic liquids at T = 298.15 K
Source: J. Chem. Thermodyn., 2012, 10.1016/j.jct.2011.09.017
Compound 1: 2-aminoacetic acid, C2H5NO2, InChI=1S/C2H5NO2/c3-1-2(4)5/h1,3H2,(H,4,5)
Compound 2: N-(carboxymethyl)glycine, C4H7NO4, InChI=1S/C4H7NO4/c6-3(7)1-5-2-4(8)9/h5H,1-2H2,(H,6,7)(H,8,9)
Compound 3: 2,5-diketopiperazine, C4H6N2O2, InChI=1S/C4H6N2O2/c7-3-1-5-4(8)2-6-3/h1-2H2,(H,5,8)(H,6,7)
Compound 4: diethylammonium acetate, C6H15NO2, InChI=1S/C4H11N.C2H4O2/c1-3-5-4-2;1-2(3)4/h5H,3-4H2,1-2H3;1H3,(H,3,4), purity 99%
Compound 5: triethylammonium acetate, C8H19NO2, InChI=1S/C6H15N.C2H4O2/c1-4-7(5-2)6-3;1-2(3)4/h4-6H2,1-3H3;1H3,(H,3,4), purity 99%
Compound 6: trimethylammonium acetate, C5H13NO2, InChI=1S/C3H9N.C2H4O2/c1-4(2)3;1-2(3)4/h1-3H3;1H3,(H,3,4), purity 99%
Compound 7: water, H2O, InChI=1S/H2O/h1H2, purity 99.9%

System: 2-aminoacetic acid + water; phases: Liquid, Crystal
Property: Mass density, kg/m3 (Liquid); method: Vibrating tube method
Pressure, kPa	Temperature, K	Mass density, kg/m3	uncertainty
101	298.15	1082.99	1.62

System: N-(carboxymethyl)glycine + water; phases: Liquid, Crystal
Property: Mass density, kg/m3 (Liquid); method: Vibrating tube method
Pressure, kPa	Temperature, K	Mass density, kg/m3	uncertainty
101	298.15	1077.31	1.6

System: 2,5-diketopiperazine + water; phases: Liquid, Crystal
Property: Mass density, kg/m3 (Liquid); method: Vibrating tube method
Pressure, kPa	Temperature, K	Mass density, kg/m3	uncertainty
101	298.15	1002.5	1.36

System: 2-aminoacetic acid + water + diethylammonium acetate; phases: Liquid, Crystal
Fixed: Pressure, kPa = 101
Fixed: Temperature, K = 298.15
Property: Mass ratio of solute to solvent of 2-aminoacetic acid (Liquid); method: density
Solvent: Volume ratio of component to other component of binary solvent of diethylammonium acetate	Mass ratio of solute to solvent of 2-aminoacetic acid	uncertainty
0.3	0.136	0.003
0.5	0.074	0.002
0.7	0.039	0.001

System: 2-aminoacetic acid + water + diethylammonium acetate; phases: Liquid, Crystal
Fixed: Pressure, kPa = 101
Fixed: Temperature, K = 298.15
Property: Mass density, kg/m3 (Liquid); method: Vibrating tube method
Solvent: Volume ratio of component to other component of binary solvent of diethylammonium acetate	Mass density, kg/m3	uncertainty
0.3	909.91	0.76
0.5	913.02	0.76
0.7	960.57	0.82

System: 2-aminoacetic acid + triethylammonium acetate + water; phases: Liquid, Crystal
Fixed: Pressure, kPa = 101
Fixed: Temperature, K = 298.15
Property: Mass ratio of solute to solvent of 2-aminoacetic acid (Liquid); method: density
Solvent: Volume ratio of component to other component of binary solvent of triethylammonium acetate	Mass ratio of solute to solvent of 2-aminoacetic acid	uncertainty
0.3	0.102	0.003
0.5	0.044	0.001
0.7	0.019	0.001

System: 2-aminoacetic acid + triethylammonium acetate + water; phases: Liquid, Crystal
Fixed: Pressure, kPa = 101
Fixed: Temperature, K = 298.15
Property: Mass density, kg/m3 (Liquid); method: Vibrating tube method
Solvent: Volume ratio of component to other component of binary solvent of triethylammonium acetate	Mass density, kg/m3	uncertainty
0.3	959.49	0.82
0.5	998.56	0.86
0.7	1091.72	1.06

System: 2-aminoacetic acid + trimethylammonium acetate + water; phases: Liquid, Crystal
Fixed: Pressure, kPa = 101
Fixed: Temperature, K = 298.15
Property: Mass ratio of solute to solvent of 2-aminoacetic acid (Liquid); method: density
Solvent: Volume ratio of component to other component of binary solvent of trimethylammonium acetate	Mass ratio of solute to solvent of 2-aminoacetic acid	uncertainty
0.3	0.049	0.001
0.5	0.067	0.002
0.7	0.037	0.001

System: 2-aminoacetic acid + trimethylammonium acetate + water; phases: Liquid, Crystal
Fixed: Pressure, kPa = 101
Fixed: Temperature, K = 298.15
Property: Mass density, kg/m3 (Liquid); method: Vibrating tube method
Solvent: Volume ratio of component to other component of binary solvent of trimethylammonium acetate	Mass density, kg/m3	uncertainty
0.3	1087.61	1.05
0.5	1129.4	1.15
0.7	1134.33	1.16

System: N-(carboxymethyl)glycine + water + diethylammonium acetate; phases: Liquid, Crystal
Fixed: Pressure, kPa = 101
Fixed: Temperature, K = 298.15
Property: Mass ratio of solute to solvent of N-(carboxymethyl)glycine (Liquid); method: density
Solvent: Volume ratio of component to other component of binary solvent of diethylammonium acetate	Mass ratio of solute to solvent of N-(carboxymethyl)glycine	uncertainty
0.3	0.086	0.002
0.5	0.044	0.001
0.7	0.022	0.001

System: N-(carboxymethyl)glycine + water + diethylammonium acetate; phases: Liquid, Crystal
Fixed: Pressure, kPa = 101
Fixed: Temperature, K = 298.15
Property: Mass density, kg/m3 (Liquid); method: Vibrating tube method
Solvent: Volume ratio of component to other component of binary solvent of diethylammonium acetate	Mass density, kg/m3	uncertainty
0.3	1037.31	0.94
0.5	1030.5	0.93
0.7	1034.21	0.94

System: N-(carboxymethyl)glycine + triethylammonium acetate + water; phases: Liquid, Crystal
Fixed: Pressure, kPa = 101
Fixed: Temperature, K = 298.15
Property: Mass ratio of solute to solvent of N-(carboxymethyl)glycine (Liquid); method: density
Solvent: Volume ratio of component to other component of binary solvent of triethylammonium acetate	Mass ratio of solute to solvent of N-(carboxymethyl)glycine	uncertainty
0.3	0.065	0.002
0.5	0.027	0.001
0.7	0.012	0.001

System: N-(carboxymethyl)glycine + triethylammonium acetate + water; phases: Liquid, Crystal
Fixed: Pressure, kPa = 101
Fixed: Temperature, K = 298.15
Property: Mass density, kg/m3 (Liquid); method: Vibrating tube method
Solvent: Volume ratio of component to other component of binary solvent of triethylammonium acetate	Mass density, kg/m3	uncertainty
0.3	1014.74	0.9
0.5	1029.64	0.93
0.7	1112.09	1.11

System: N-(carboxymethyl)glycine + trimethylammonium acetate + water; phases: Liquid, Crystal
Fixed: Pressure, kPa = 101
Fixed: Temperature, K = 298.15
Property: Mass ratio of solute to solvent of N-(carboxymethyl)glycine (Liquid); method: density
Solvent: Volume ratio of component to other component of binary solvent of trimethylammonium acetate	Mass ratio of solute to solvent of N-(carboxymethyl)glycine	uncertainty
0.3	0.109	0.003
0.5	0.064	0.002
0.7	0.039	0.001

System: N-(carboxymethyl)glycine + trimethylammonium acetate + water; phases: Liquid, Crystal
Fixed: Pressure, kPa = 101
Fixed: Temperature, K = 298.15
Property: Mass density, kg/m3 (Liquid); method: Vibrating tube method
Solvent: Volume ratio of component to other component of binary solvent of trimethylammonium acetate	Mass density, kg/m3	uncertainty
0.3	1075.01	1.02
0.5	1089.05	1.06
0.7	1104.24	1.09

System: 2,5-diketopiperazine + water + diethylammonium acetate; phases: Liquid, Crystal
Fixed: Pressure, kPa = 101
Fixed: Temperature, K = 298.15
Property: Mass ratio of solute to solvent of 2,5-diketopiperazine (Liquid); method: density
Solvent: Volume ratio of component to other component of binary solvent of diethylammonium acetate	Mass ratio of solute to solvent of 2,5-diketopiperazine	uncertainty
0.3	0.0123	0.0003
0.5	0.0099	0.00024
0.7	0.007	0.00017

System: 2,5-diketopiperazine + water + diethylammonium acetate; phases: Liquid, Crystal
Fixed: Pressure, kPa = 101
Fixed: Temperature, K = 298.15
Property: Mass density, kg/m3 (Liquid); method: Vibrating tube method
Solvent: Volume ratio of component to other component of binary solvent of diethylammonium acetate	Mass density, kg/m3	uncertainty
0.3	1003.42	0.87
0.5	1013.56	0.89
0.7	1112.3	1.11

System: 2,5-diketopiperazine + triethylammonium acetate + water; phases: Liquid, Crystal
Fixed: Pressure, kPa = 101
Fixed: Temperature, K = 298.15
Property: Mass ratio of solute to solvent of 2,5-diketopiperazine (Liquid); method: density
Solvent: Volume ratio of component to other component of binary solvent of triethylammonium acetate	Mass ratio of solute to solvent of 2,5-diketopiperazine	uncertainty
0.3	0.0117	0.00028
0.5	0.00918	0.00022
0.7	0.00639	0.00015

System: 2,5-diketopiperazine + triethylammonium acetate + water; phases: Liquid, Crystal
Fixed: Pressure, kPa = 101
Fixed: Temperature, K = 298.15
Property: Mass density, kg/m3 (Liquid); method: Vibrating tube method
Solvent: Volume ratio of component to other component of binary solvent of triethylammonium acetate	Mass density, kg/m3	uncertainty
0.3	1003.05	0.87
0.5	1014.89	0.9
0.7	1053.53	0.98

System: 2,5-diketopiperazine + trimethylammonium acetate + water; phases: Liquid, Crystal
Fixed: Pressure, kPa = 101
Fixed: Temperature, K = 298.15
Property: Mass ratio of solute to solvent of 2,5-diketopiperazine (Liquid); method: density
Solvent: Volume ratio of component to other component of binary solvent of trimethylammonium acetate	Mass ratio of solute to solvent of 2,5-diketopiperazine	uncertainty
0.3	0.013	0.001
0.5	0.0116	0.0003
0.7	0.0092	0.0002

System: 2,5-diketopiperazine + trimethylammonium acetate + water; phases: Liquid, Crystal
Fixed: Pressure, kPa = 101
Fixed: Temperature, K = 298.15
Property: Mass density, kg/m3 (Liquid); method: Vibrating tube method
Solvent: Volume ratio of component to other component of binary solvent of trimethylammonium acetate	Mass density, kg/m3	uncertainty
0.3	1005.16	0.88
0.5	1013.77	0.89
0.7	1127.55	1.14
