Measured thermophysical data. Solubility of novel open-chain crown ether bridged diphosphates in supercritical carbon dioxide
Source: J. Chem. Thermodyn., 2013, 10.1016/j.jct.2013.07.017
Compound 1: carbon dioxide, CO2, InChI=1S/CO2/c2-1-3, purity 99.99%
Compound 2: tetraethylene glycol bis(2-ethylhexyl) dimethyl diphosphate, C26H56O11P2, InChI=1S/C26H56O11P2/c1-7-11-13-25(9-3)23-36-38(27,29-5)34-21-19-32-17-15-31-16-18-33-20-22-35-39(28,30-6)37-24-26(10-4)14-12-8-2/h25-26H,7-24H2,1-6H3
Compound 3: tetraethylene glycol bis(n-octyl) dimethyl diphosphate, C26H56O11P2, InChI=1S/C26H56O11P2/c1-5-7-9-11-13-15-17-34-38(27,29-3)36-25-23-32-21-19-31-20-22-33-24-26-37-39(28,30-4)35-18-16-14-12-10-8-6-2/h5-26H2,1-4H3
Compound 4: tetraethylene glycol bis(2-butoxyethyl) dimethyl diphosphate, C22H48O13P2, InChI=1S/C22H48O13P2/c1-5-7-9-27-15-19-32-36(23,25-3)34-21-17-30-13-11-29-12-14-31-18-22-35-37(24,26-4)33-20-16-28-10-8-6-2/h5-22H2,1-4H3

System: tetraethylene glycol bis(2-ethylhexyl) dimethyl diphosphate + carbon dioxide; phases: Fluid (supercritical or subcritical phases), Liquid
Property: Mole fraction of tetraethylene glycol bis(2-ethylhexyl) dimethyl diphosphate (Fluid (supercritical or subcritical phases)); method: Phase equilibration
Temperature, K	Pressure, kPa	Mole fraction of tetraethylene glycol bis(2-ethylhexyl) dimethyl diphosphate	uncertainty
318.15	12250	0.00141	4e-05
318.15	12880	0.00164	5e-05
318.15	14280	0.00229	7e-05
318.15	14620	0.00249	6e-05
318.15	15160	0.00271	6e-05
323.15	13640	0.00141	5e-05
323.15	14230	0.00164	5e-05
323.15	15690	0.00229	6e-05
323.15	16120	0.00249	6e-05
323.15	16640	0.00271	6e-05
328.15	15020	0.00141	5e-05
328.15	15630	0.00164	5e-05
328.15	17270	0.00229	6e-05
328.15	17640	0.00249	6e-05
328.15	18130	0.00271	6e-05
333.15	16230	0.00141	5e-05
333.15	16830	0.00164	5e-05
333.15	18620	0.00229	7e-05
333.15	18970	0.00249	6e-05
333.15	19430	0.00271	6e-05

System: tetraethylene glycol bis(n-octyl) dimethyl diphosphate + carbon dioxide; phases: Fluid (supercritical or subcritical phases), Liquid
Property: Mole fraction of tetraethylene glycol bis(n-octyl) dimethyl diphosphate (Fluid (supercritical or subcritical phases)); method: Phase equilibration
Temperature, K	Pressure, kPa	Mole fraction of tetraethylene glycol bis(n-octyl) dimethyl diphosphate	uncertainty
318.15	13600	0.00139	3e-05
318.15	14610	0.00162	3e-05
318.15	15650	0.00191	4e-05
318.15	16400	0.00224	5e-05
318.15	17110	0.0025	5e-05
323.15	15160	0.00139	4e-05
323.15	15930	0.00162	4e-05
323.15	17100	0.00191	4e-05
323.15	17920	0.00224	5e-05
323.15	18450	0.0025	6e-05
328.15	16410	0.00139	3e-05
328.15	17630	0.00162	4e-05
328.15	18440	0.00191	5e-05
328.15	19240	0.00224	5e-05
328.15	20110	0.0025	4e-05
333.15	17770	0.00139	3e-05
333.15	18910	0.00162	4e-05
333.15	19810	0.00191	4e-05
333.15	20880	0.00224	5e-05
333.15	21510	0.0025	5e-05

System: tetraethylene glycol bis(2-butoxyethyl) dimethyl diphosphate + carbon dioxide; phases: Fluid (supercritical or subcritical phases), Liquid
Property: Mole fraction of tetraethylene glycol bis(2-butoxyethyl) dimethyl diphosphate (Fluid (supercritical or subcritical phases)); method: Phase equilibration
Temperature, K	Pressure, kPa	Mole fraction of tetraethylene glycol bis(2-butoxyethyl) dimethyl diphosphate	uncertainty
318.15	13330	0.00141	5e-05
318.15	13930	0.00166	4e-05
318.15	15030	0.00196	5e-05
318.15	16300	0.00252	5e-05
318.15	17030	0.00259	4e-05
323.15	14760	0.00141	4e-05
323.15	15420	0.00166	4e-05
323.15	16520	0.00196	5e-05
323.15	17830	0.00252	5e-05
323.15	18540	0.00259	3e-05
328.15	16010	0.00141	4e-05
328.15	16790	0.00166	4e-05
328.15	17830	0.00196	5e-05
328.15	19120	0.00252	4e-05
328.15	19950	0.00259	3e-05
333.15	17080	0.00141	3e-05
333.15	17980	0.00166	4e-05
333.15	19050	0.00196	4e-05
333.15	20520	0.00252	4e-05
333.15	21130	0.00259	3e-05
