Measured thermophysical data. (Liquid + liquid) equilibria of (water + lactic acid + alcohol) ternary systems
Source: J. Chem. Thermodyn., 2009, 10.1016/j.jct.2008.07.014
Compound 1: water, H2O, InChI=1S/H2O/h1H2
Compound 2: 2-hydroxypropanoic acid, C3H6O3, InChI=1S/C3H6O3/c1-2(4)3(5)6/h2,4H,1H3,(H,5,6), purity 90%
Compound 3: octan-1-ol, C8H18O, InChI=1S/C8H18O/c1-2-3-4-5-6-7-8-9/h9H,2-8H2,1H3, purity 99%
Compound 4: nonan-1-ol, C9H20O, InChI=1S/C9H20O/c1-2-3-4-5-6-7-8-9-10/h10H,2-9H2,1H3, purity 98%
Compound 5: decan-1-ol, C10H22O, InChI=1S/C10H22O/c1-2-3-4-5-6-7-8-9-10-11/h11H,2-10H2,1H3, purity 99%

System: water; phases: Liquid, Gas
Property: Normal boiling temperature, K (Liquid); method: Distillation
Normal boiling temperature, K	uncertainty
373.2	0.2

System: water; phases: Liquid
Property: Refractive index (Na D-line) (Liquid); method: Standard Abbe refractometry
Temperature, K	Pressure, kPa	Refractive index (Na D-line)	uncertainty
293.15	101.325	1.3324	0.0007

System: water; phases: Liquid
Property: Mass density, kg/m3 (Liquid); method: Vibrating tube method
Temperature, K	Pressure, kPa	Mass density, kg/m3	uncertainty
293.15	101.325	999.9	0.06

System: 2-hydroxypropanoic acid; phases: Liquid
Property: Refractive index (Na D-line) (Liquid); method: Standard Abbe refractometry
Temperature, K	Pressure, kPa	Refractive index (Na D-line)	uncertainty
293.15	101.325	1.4394	0.0021

System: 2-hydroxypropanoic acid; phases: Liquid
Property: Mass density, kg/m3 (Liquid); method: Vibrating tube method
Temperature, K	Pressure, kPa	Mass density, kg/m3	uncertainty
293.15	101.325	1207	34.94

System: octan-1-ol; phases: Liquid, Gas
Property: Normal boiling temperature, K (Liquid); method: Distillation
Normal boiling temperature, K	uncertainty
468	0.2

System: octan-1-ol; phases: Liquid
Property: Refractive index (Na D-line) (Liquid); method: Standard Abbe refractometry
Temperature, K	Pressure, kPa	Refractive index (Na D-line)	uncertainty
293.15	101.325	1.4292	0.0008

System: octan-1-ol; phases: Liquid
Property: Mass density, kg/m3 (Liquid); method: Vibrating tube method
Temperature, K	Pressure, kPa	Mass density, kg/m3	uncertainty
294.15	101.325	826.25	0.24

System: nonan-1-ol; phases: Liquid, Gas
Property: Normal boiling temperature, K (Liquid); method: Distillation
Normal boiling temperature, K	uncertainty
488.4	0.2

System: nonan-1-ol; phases: Liquid
Property: Refractive index (Na D-line) (Liquid); method: Standard Abbe refractometry
Temperature, K	Pressure, kPa	Refractive index (Na D-line)	uncertainty
293.15	101.325	1.4335	0.0008

System: nonan-1-ol; phases: Liquid
Property: Mass density, kg/m3 (Liquid); method: Vibrating tube method
Temperature, K	Pressure, kPa	Mass density, kg/m3	uncertainty
293.15	101.325	828.5	0.65

System: decan-1-ol; phases: Liquid, Gas
Property: Normal boiling temperature, K (Liquid); method: Distillation
Normal boiling temperature, K	uncertainty
503.7	0.2

System: decan-1-ol; phases: Liquid
Property: Refractive index (Na D-line) (Liquid); method: Standard Abbe refractometry
Temperature, K	Pressure, kPa	Refractive index (Na D-line)	uncertainty
293.15	101.325	1.4373	0.0008

System: decan-1-ol; phases: Liquid
Property: Mass density, kg/m3 (Liquid); method: Vibrating tube method
Temperature, K	Pressure, kPa	Mass density, kg/m3	uncertainty
293.15	101.325	829.5	0.24

System: 2-hydroxypropanoic acid + nonan-1-ol + water; phases: Liquid mixture 1, Liquid mixture 2
Fixed: Pressure, kPa = 101
Fixed: Temperature, K = 298.15
Property: Mass fraction of 2-hydroxypropanoic acid (Liquid mixture 1); method: Titration method
Mass fraction of water	Mass fraction of 2-hydroxypropanoic acid	uncertainty
0.037	0	0.0001
0.0392	0.117	0.0047
0.0407	0.246	0.0098
0.0472	0.3829	0.0153
0.0654	0.5114	0.0195
0.0751	0.555	0.0178
0.0932	0.6361	0.0146
0.1175	0.7089	0.0116
0.1697	0.7462	0.0102
0.2272	0.7329	0.0107
0.2656	0.7085	0.0117
0.3163	0.6753	0.013
0.4261	0.5692	0.0172
0.484	0.5122	0.0195
0.5753	0.4227	0.0169
0.6229	0.3759	0.015
0.6967	0.3023	0.0121
0.766	0.2331	0.0093
0.8324	0.167	0.0067
0.9216	0.0778	0.0031
0.9997	0	0.0001

System: 2-hydroxypropanoic acid + nonan-1-ol + water; phases: Liquid mixture 1, Liquid mixture 2
Fixed: Temperature, K = 298.15
Fixed: Pressure, kPa = 101.3
Property: Mass fraction of 2-hydroxypropanoic acid (Liquid mixture 1); method: Chromatography
Property: Mass fraction of water (Liquid mixture 2); method: Chromatography
Property: Mass fraction of 2-hydroxypropanoic acid (Liquid mixture 2); method: Chromatography
Mass fraction of water	Mass fraction of 2-hydroxypropanoic acid	uncertainty	Mass fraction of water	uncertainty	Mass fraction of 2-hydroxypropanoic acid	uncertainty
0.9221	0.0777	0.0008	0.0385	0.0008	0.0229	
0.8617	0.1381	0.0014	0.0389	0.0008	0.0408	
0.7758	0.2233	0.0022	0.039	0.0008	0.0674	
0.6782	0.3207	0.0032	0.038	0.0008	0.1013	
0.5961	0.4021	0.004	0.0395	0.0008	0.1399	
0.5172	0.4798	0.0048	0.0399	0.0008	0.1829	

System: 2-hydroxypropanoic acid + decan-1-ol + water; phases: Liquid mixture 1, Liquid mixture 2
Fixed: Pressure, kPa = 101
Fixed: Temperature, K = 298.15
Property: Mass fraction of 2-hydroxypropanoic acid (Liquid mixture 1); method: Titration method
Mass fraction of water	Mass fraction of 2-hydroxypropanoic acid	uncertainty
0.0237	0	0.0001
0.0285	0.0473	0.0019
0.0321	0.1169	0.0047
0.0344	0.1762	0.007
0.0356	0.2409	0.0096
0.0359	0.3125	0.0125
0.0386	0.3789	0.0152
0.0399	0.4276	0.0171
0.0431	0.5182	0.0193
0.0487	0.5653	0.0174
0.0623	0.6509	0.014
0.0787	0.7351	0.0106
0.1077	0.7789	0.0088
0.1718	0.7796	0.0088
0.2159	0.756	0.0098
0.3187	0.676	0.013
0.422	0.5736	0.0171
0.482	0.514	0.0194
0.5746	0.423	0.0169
0.623	0.376	0.015
0.6942	0.305	0.0122
0.7615	0.238	0.0095
0.8317	0.168	0.0067
0.8888	0.111	0.0044
0.9548	0.045	0.0018
0.9999	0	0.0001

System: 2-hydroxypropanoic acid + decan-1-ol + water; phases: Liquid mixture 1, Liquid mixture 2
Fixed: Temperature, K = 298.15
Fixed: Pressure, kPa = 101.3
Property: Mass fraction of 2-hydroxypropanoic acid (Liquid mixture 1); method: Chromatography
Property: Mass fraction of water (Liquid mixture 2); method: Chromatography
Property: Mass fraction of 2-hydroxypropanoic acid (Liquid mixture 2); method: Chromatography
Mass fraction of water	Mass fraction of 2-hydroxypropanoic acid	uncertainty	Mass fraction of water	uncertainty	Mass fraction of 2-hydroxypropanoic acid	uncertainty
0.9006	0.0992	0.001	0.0255	0.0005	0.0258	
0.8138	0.1859	0.0019	0.0261	0.0005	0.0437	
0.7175	0.2818	0.0028	0.0288	0.0006	0.067	
0.6386	0.3605	0.0036	0.0298	0.0006	0.0894	
0.5624	0.4349	0.0043	0.0323	0.0006	0.1232	
0.4838	0.5124	0.0049	0.0332	0.0007	0.1669	

System: 2-hydroxypropanoic acid + octan-1-ol + water; phases: Liquid mixture 1, Liquid mixture 2
Fixed: Pressure, kPa = 101
Fixed: Temperature, K = 298.15
Property: Mass fraction of 2-hydroxypropanoic acid (Liquid mixture 1); method: Titration method
Mass fraction of water	Mass fraction of 2-hydroxypropanoic acid	uncertainty
0.0458	0.0436	0.0017
0.0466	0	0.0001
0.0513	0.1131	0.0045
0.0569	0.1686	0.0067
0.0599	0.2273	0.0091
0.0689	0.2925	0.0117
0.0779	0.3572	0.0143
0.0841	0.4036	0.0161
0.1068	0.4829	0.0193
0.1232	0.5215	0.0191
0.1422	0.565	0.0174
0.1799	0.6452	0.0142
0.2013	0.6703	0.0132
0.2361	0.6889	0.0124
0.2849	0.6781	0.0129
0.3291	0.6456	0.0142
0.3713	0.6158	0.0154
0.4186	0.5714	0.0171
0.474	0.5196	0.0192
0.5745	0.4216	0.0169
0.625	0.3719	0.0149
0.693	0.3048	0.0122
0.7606	0.2375	0.0095
0.8331	0.166	0.0066
0.8865	0.113	0.0045
0.958	0.0417	0.0017
0.9999	0	0.0001

System: 2-hydroxypropanoic acid + octan-1-ol + water; phases: Liquid mixture 1, Liquid mixture 2
Fixed: Temperature, K = 298.15
Fixed: Pressure, kPa = 101.3
Property: Mass fraction of 2-hydroxypropanoic acid (Liquid mixture 1); method: Chromatography
Property: Mass fraction of water (Liquid mixture 2); method: Chromatography
Property: Mass fraction of 2-hydroxypropanoic acid (Liquid mixture 2); method: Chromatography
Mass fraction of water	Mass fraction of 2-hydroxypropanoic acid	uncertainty	Mass fraction of water	uncertainty	Mass fraction of 2-hydroxypropanoic acid	uncertainty
0.9385	0.0589	0.0006	0.0407	0.0008	0.0208	
0.8762	0.1207	0.0012	0.0461	0.0009	0.0456	
0.7981	0.1982	0.002	0.0485	0.001	0.0718	
0.7455	0.2505	0.0025	0.0501	0.001	0.0925	
0.6582	0.3374	0.0034	0.0538	0.0011	0.132	
0.5997	0.3928	0.0039	0.0559	0.0011	0.1621	
