Measured thermophysical data. Comprehensive thermodynamic study of methylprednisolone
Source: J. Chem. Thermodyn., 2017, 10.1016/j.jct.2016.12.015
Compound 1: carbon dioxide, CO2, InChI=1S/CO2/c2-1-3
Compound 2: water, H2O, InChI=1S/H2O/h1H2
Compound 3: oxygen, O2, InChI=1S/O2/c1-2
Compound 4: Methylprednisolone, C22H30O5, InChI=1S/C22H30O5/c1-12-8-14-15-5-7-22(27,18(26)11-23)21(15,3)10-17(25)19(14)20(2)6-4-13(24)9-16(12)20/h4,6,9,12,14-15,17,19,23,25,27H,5,7-8,10-11H2,1-3H3/t12-,14-,15-,17-,19+,20-,21-,22-/m0/s1, purity 99.9%

System: Methylprednisolone; phases: Crystal, Gas
Property: Molar enthalpy of vaporization or sublimation, kJ/mol (Crystal); method: Derived by Second law
Temperature, K	Molar enthalpy of vaporization or sublimation, kJ/mol	uncertainty
387.9	192.2	3

System: Methylprednisolone; phases: Crystal
Fixed: Pressure, kPa = 101.325
Property: Molar heat capacity at constant pressure, J/K/mol (Crystal); method: Small (less than 1 g) adiabatic calorimetry
Temperature, K	Molar heat capacity at constant pressure, J/K/mol	uncertainty
5	0.981	0.052
10	6.06	0.257
15	13.31	0.55
20	22.8	0.94
25	33.3	0.42
30	42.63	0.48
35	51.54	0.58
40	60.39	0.67
45	69.3	0.42
50	78.27	0.47
60	96.39	0.57
70	114.2	0.7
80	131.5	0.8
90	149.3	0.8
100	165.9	0.9
110	182.1	1
120	198.1	1.1
130	213.9	1.1
140	229.6	1.2
150	245	1.3
160	260.2	1.4
170	275.3	1.4
180	290.3	1.5
190	305.3	1.6
200	320.4	1.7
210	335.6	1.7
220	350.7	1.8
230	365.9	1.9
240	381.1	2
250	396.3	2
260	411.6	2.1
270	427.1	2.2
280	442.9	2.3
290	458.9	2.3
298.15	472.1	2.4
300	475.1	2.4
310	491.2	2.5
320	507	2.6
330	522.5	2.6
340	538.4	2.7
350	556.8	2.8

System: Methylprednisolone; phases: Crystal
Fixed: Pressure, kPa = 101.325
Property: Molar enthalpy, kJ/mol (Crystal); method: Small (less than 1 g) adiabatic calorimetry
Temperature, K	Molar enthalpy, kJ/mol	uncertainty
5	0.00123	0.00012
10	0.0174	0.00078
15	0.06511	0.00276
20	0.1555	0.0064
25	0.2967	0.0039
30	0.4868	0.0063
35	0.7223	0.0089
40	1.002	0.012
45	1.326	0.01
50	1.695	0.012
60	2.568	0.017
70	3.622	0.023
80	4.851	0.03
90	6.256	0.04
100	7.832	0.048
110	9.572	0.057
120	11.47	0.07
130	13.53	0.08
140	15.75	0.09
150	18.12	0.1
160	20.65	0.12
170	23.33	0.13
180	26.16	0.14
190	29.13	0.16
200	32.26	0.18
210	35.54	0.19
220	38.97	0.21
230	42.56	0.23
240	46.29	0.25
250	50.18	0.27
260	54.22	0.29
270	58.41	0.31
280	62.76	0.33
290	67.27	0.35
298.15	71.06	0.37
300	71.94	0.38
310	76.77	0.4
320	81.76	0.43
330	86.91	0.45
340	92.22	0.48
350	97.69	0.51

System: Methylprednisolone; phases: Crystal
Fixed: Pressure, kPa = 101.325
Property: Molar entropy, J/K/mol (Crystal); method: Small (less than 1 g) adiabatic calorimetry
Temperature, K	Molar entropy, J/K/mol	uncertainty
5	0.328	0.035
10	2.37	0.155
15	6.133	0.385
20	11.27	0.7
25	17.53	0.34
30	24.43	0.44
35	31.67	0.55
40	39.13	0.67
45	46.76	0.45
50	54.53	0.51
60	70.39	0.64
70	86.6	0.77
80	103	0.9
90	119.5	1
100	136.1	1.1
110	152.7	1.3
120	169.2	1.4
130	185.7	1.5
140	202.1	1.6
150	218.5	1.7
160	234.8	1.9
170	251	2
180	267.2	2.1
190	283.3	2.2
200	299.3	2.3
210	315.3	2.4
220	331.3	2.6
230	347.2	2.7
240	363.1	2.8
250	379	2.9
260	394.8	3
270	410.6	3.1
280	426.4	3.3
290	442.3	3.4
298.15	455.2	3.5
300	458.1	3.5
310	473.9	3.6
320	489.8	3.7
330	505.6	3.8
340	521.4	4
350	537.3	4.1

System: Methylprednisolone; phases: Crystal
Fixed: Pressure, kPa = 101.325
Property: Molar heat capacity at constant pressure, J/K/mol (Crystal); method: Small (less than 1 g) adiabatic calorimetry
Temperature, K	Molar heat capacity at constant pressure, J/K/mol	uncertainty
6.33	2.001	0.091
6.49	2.141	0.096
6.65	2.26	0.102
6.78	2.357	0.105
6.95	2.495	0.111
7.1	2.55	0.113
7.24	2.74	0.121
7.49	3.021	0.133
7.82	3.43	0.15
8.13	3.81	0.165
8.44	4.275	0.184
8.75	4.579	0.197
9.05	4.913	0.21
9.36	5.269	0.225
9.69	5.653	0.241
10.01	6.058	0.257
10.33	6.528	0.277
10.66	6.921	0.293
11	7.373	0.311
11.38	7.86	0.331
11.77	8.373	0.352
12.06	8.762	0.368
12.88	9.96	0.417
14.16	11.96	0.5
15.44	14.15	0.59
16.74	16.54	0.68
18.07	19.18	0.79
19.43	21.92	0.9
22.43	28.16	0.37
25.22	33.67	0.42
28.44	39.96	0.48
31.97	46.03	0.52
35.53	52.34	0.58
39.09	58.93	0.65
42.67	65.35	0.4
46.26	71.33	0.43
49.86	77.8	0.47
53.45	84.8	0.5
57.05	91.01	0.54
60.67	97.6	0.57
64.3	104	0.6
67.91	110.8	0.6
71.53	116.8	0.7
75.17	122.4	0.7
78.82	129.7	0.7
82.48	136	0.8
86.12	142.4	0.8
81.9	134.6	0.8
86.1	142.8	0.8
89.32	147.8	0.8
92.91	154.1	0.8
96.5	159.9	0.9
100.08	165.8	0.9
103.66	171.9	0.9
107.23	178	1
110.81	183.4	1
114.37	188.6	1
117.93	195.4	1
121.48	200.9	1.1
125.04	206.7	1.1
128.59	212	1.1
132.14	217.1	1.2
135.68	222.2	1.2
139.22	228.2	1.2
142.74	233.6	1.2
146.27	238.8	1.3
149.79	244.2	1.3
153.3	250	1.3
156.82	254.9	1.3
160.33	260.9	1.4
163.83	266.4	1.4
167.33	271.7	1.4
170.82	276.8	1.4
174.31	282.2	1.5
177.79	287.2	1.5
181.26	292.5	1.5
184.73	297.4	1.5
188.19	302.5	1.6
191.65	307.8	1.6
195.06	312.7	1.6
198.5	318.2	1.6
201.93	323.6	1.7
205.36	328.5	1.7
208.8	333.1	1.7
212.23	338.2	1.7
215.66	343.7	1.8
219.09	349.3	1.8
222.53	355	1.8
225.95	361	1.9
229.38	364.2	1.9
232.82	370.1	1.9
236.24	375.2	1.9
239.67	380.7	2
243.1	385.9	2
246.53	391.1	2
249.92	396.2	2
253.35	401.5	2.1
256.77	406.9	2.1
260.19	412	2.1
263.6	417.5	2.1
267.02	422.9	2.2
270.43	428.4	2.2
273.84	432.9	2.2
277.25	438.4	2.2
280.64	443.7	2.3
284.03	449	2.3
287.42	454	2.3
290.79	460.1	2.3
294.15	465.4	2.4
297.51	471.2	2.4
300.85	475.9	2.4
304.09	481.9	2.4
307.42	487.8	2.5
310.76	492.9	2.5
314.09	498.1	2.5
317.42	503	2.5
320.76	508	2.6
324.1	513.3	2.6
327.44	518.2	2.6
330.78	523.9	2.7
334.13	529	2.7
337.48	534	2.7
340.82	539.6	2.7
344.16	545.9	2.8
347.5	551.7	2.8
350.09	556.9	2.8

Reaction: -1 Methylprednisolone + 22 carbon dioxide + 15 water + -27 oxygen
Property: Specific internal energy of reaction at constant volume, J/g
-31742.2
