Measured thermophysical data. Measurements of isothermal (vapour + liquid) equilibrium for the 1,1,2,2-1,1,2,2-tetrafluoroethane (R134) + cis-1,3,3,3-tetrafluoropropene (R1234ze(Z)) system at temperatures from (303.150 to 343.150) K
Source: J. Chem. Thermodyn., 2017, 10.1016/j.jct.2017.03.010
Compound 1: 1,1,2,2-tetrafluoroethane, C2H2F4, InChI=1S/C2H2F4/c3-1(4)2(5)6/h1-2H, purity 99.5%
Compound 2: (Z)-1,3,3,3-tetrafluoro-1-propene, C3H2F4, InChI=1S/C3H2F4/c4-2-1-3(5,6)7/h1-2H/b2-1-, purity 99.5%

System: 1,1,2,2-tetrafluoroethane; phases: Liquid, Gas
Property: Vapor or sublimation pressure, kPa (Liquid); method: Closed cell (Static) method
Temperature, K	Vapor or sublimation pressure, kPa	uncertainty
343.15	1730.2	5.7
333.15	1368.5	4.5
323.15	1065.9	3.5
313.15	817.1	2.7
303.15	613.8	2.1

System: 1,1,2,2-tetrafluoroethane + (Z)-1,3,3,3-tetrafluoro-1-propene; phases: Liquid, Gas
Property: Vapor or sublimation pressure, kPa (Liquid); method: Closed cell (Static) method
Mole fraction of 1,1,2,2-tetrafluoroethane	Temperature, K	Vapor or sublimation pressure, kPa	uncertainty
0	343.15	671.3	2.3
0.146	343.15	939.6	17.4
0.267	343.15	1127.4	15.2
0.313	343.15	1183.5	12.2
0.404	343.15	1287.1	14.9
0.495	343.15	1385.4	11.4
0.619	343.15	1511.9	11
0.697	343.15	1583.8	9.3
0.818	343.15	1668	8.4
0.872	343.15	1693.2	7.3
0.907	343.15	1710.8	7
0.939	343.15	1721	6.5
0.964	343.15	1729.9	5.8
1	343.15	1730.2	5.7
0	333.15	517.4	1.9
0.146	333.15	755.2	15.5
0.268	333.15	923.2	14
0.312	333.15	972.7	9.9
0.404	333.15	1057.2	9.5
0.495	333.15	1134.9	8.7
0.619	333.15	1229.3	8.5
0.696	333.15	1278.8	6.5
0.818	333.15	1334.7	6.5
0.871	333.15	1352.3	5.7
0.906	333.15	1361.4	5.2
0.94	333.15	1370	5
0.964	333.15	1370.2	4.6
1	333.15	1368.5	4.5
0	323.15	391.8	1.6
0.146	323.15	621.2	13.8
0.269	323.15	755.3	11.2
0.313	323.15	796.2	8
0.403	323.15	862.5	7.7
0.495	323.15	925.9	6.8
0.619	323.15	997.4	6.2
0.696	323.15	1026.8	4.5
0.819	323.15	1063.2	4.6
0.87	323.15	1070.5	4
0.906	323.15	1075.5	3.7
0.94	323.15	1077	4.3
0.965	323.15	1076.5	4.5
1	323.15	1065.9	3.5
0	313.15	290.7	1.3
0.146	313.15	497.6	12.5
0.268	313.15	618.8	10
0.313	313.15	651.7	6.1
0.402	313.15	701.8	6.1
0.494	313.15	753.4	4.7
0.619	313.15	791.7	4.2
0.696	313.15	816.3	3.3
0.817	313.15	836.5	3.3
0.869	313.15	840.7	3.1
0.894	313.15	841	4.3
0.907	313.15	840.9	3.1
0.964	313.15	834.1	3.3
1	313.15	817.1	2.7
0	303.15	210.6	1.2
0.145	303.15	414.1	11.7
0.263	303.15	513.2	8.1
0.311	303.15	543.5	5.2
0.401	303.15	581.4	4.3
0.493	303.15	611.6	3.4
0.614	303.15	638.2	2.8
0.695	303.15	647.9	2.4
0.797	303.15	655	2.3
0.812	303.15	655.6	2.2
0.869	303.15	654.9	2.2
0.894	303.15	652.6	3.1
0.938	303.15	640.7	3.7
0.964	303.15	631.7	4.9
1	303.15	613.8	2.1

System: 1,1,2,2-tetrafluoroethane + (Z)-1,3,3,3-tetrafluoro-1-propene; phases: Gas, Liquid
Property: Mole fraction of 1,1,2,2-tetrafluoroethane (Gas); method: Chromatography
Mole fraction of 1,1,2,2-tetrafluoroethane	Temperature, K	Mole fraction of 1,1,2,2-tetrafluoroethane	uncertainty
0	343.15	0	
0.146	343.15	0.336	0.021
0.267	343.15	0.483	0.016
0.313	343.15	0.535	0.014
0.404	343.15	0.61	0.013
0.495	343.15	0.664	0.012
0.619	343.15	0.75	0.012
0.697	343.15	0.802	0.012
0.818	343.15	0.874	0.012
0.872	343.15	0.914	0.012
0.907	343.15	0.934	0.012
0.939	343.15	0.961	0.012
0.964	343.15	0.97	0.012
1	343.15	1	
0	333.15	0	
0.146	333.15	0.367	0.022
0.268	333.15	0.519	0.016
0.312	333.15	0.559	0.014
0.404	333.15	0.636	0.012
0.495	333.15	0.675	0.012
0.619	333.15	0.751	0.012
0.696	333.15	0.796	0.011
0.818	333.15	0.857	0.012
0.871	333.15	0.9	0.013
0.906	333.15	0.924	0.013
0.94	333.15	0.952	0.013
0.964	333.15	0.975	0.013
1	333.15	1	
0	323.15	0	
0.146	323.15	0.423	0.024
0.269	323.15	0.556	0.015
0.313	323.15	0.601	0.013
0.403	323.15	0.654	0.012
0.495	323.15	0.697	0.012
0.619	323.15	0.762	0.011
0.696	323.15	0.797	0.011
0.819	323.15	0.861	0.012
0.87	323.15	0.901	0.011
0.906	323.15	0.908	0.012
0.94	323.15	0.95	0.014
0.965	323.15	0.972	0.013
1	323.15	1	
0	313.15	0	
0.146	313.15	0.449	0.025
0.268	313.15	0.599	0.016
0.313	313.15	0.627	0.012
0.402	313.15	0.676	0.012
0.494	313.15	0.722	0.011
0.619	313.15	0.761	0.011
0.696	313.15	0.796	0.011
0.817	313.15	0.839	0.011
0.869	313.15	0.875	0.012
0.894	313.15	0.896	0.012
0.907	313.15	0.909	0.015
0.964	313.15	0.949	0.014
1	313.15	1	
0	303.15	0	
0.145	303.15	0.522	0.027
0.263	303.15	0.639	0.014
0.311	303.15	0.666	0.012
0.401	303.15	0.705	0.011
0.493	303.15	0.732	0.011
0.614	303.15	0.761	0.011
0.695	303.15	0.791	0.011
0.797	303.15	0.818	0.011
0.812	303.15	0.824	0.011
0.869	303.15	0.852	0.012
0.894	303.15	0.874	0.014
0.938	303.15	0.923	0.015
0.964	303.15	0.951	0.016
1	303.15	1	
