Measured thermophysical data. Solubility of oxygen in the ionic liquid [bmim][PF6]: Experimental and molecular simulation results
Source: J. Chem. Thermodyn., 2005, 10.1016/j.jct.2005.03.005
Compound 1: oxygen, O2, InChI=1S/O2/c1-2, purity 99.995%
Compound 2: 1-butyl-3-methylimidazolium hexafluorophosphate, C8H15F6N2P, InChI=1S/C8H15N2.F6P/c1-3-4-5-10-7-6-9(2)8-10;1-7(2,3,4,5)6/h6-8H,3-5H2,1-2H3;/q+1;-1, purity 99%

System: oxygen + 1-butyl-3-methylimidazolium hexafluorophosphate; phases: Liquid, Gas
Property: Molality, mol/kg (Liquid); method: spindle press displacement and the solvent density
Temperature, K	Pressure, kPa	Molality, mol/kg	uncertainty
293.2	1568	0.02991	0.00105
293.2	2351	0.04486	0.00111
293.2	2779	0.05249	0.00139
293.2	3165	0.05994	0.00133
293.2	4176	0.07725	0.00216
293.2	5167	0.09408	0.0022
293.2	6205	0.11236	0.00218
293.2	7315	0.13	0.00218
293.2	9055	0.15837	0.00228
313.15	1164	0.02243	0.00102
313.15	2746	0.05189	0.00139
313.15	3539	0.0661	0.00136
313.15	4498	0.0828	0.0014
313.15	5434	0.09894	0.00148
313.15	6569	0.1188	0.00153
313.15	7799	0.139	0.00156
313.15	9086	0.15927	0.00166
333.15	1229	0.02371	0.00103
333.15	2178	0.04171	0.00108
333.15	2915	0.0554	0.00134
333.15	4338	0.08036	0.00212
333.15	5887	0.10781	0.00214
333.15	7194	0.12979	0.00218
333.15	8250	0.14824	0.00215
333.15	9116	0.16164	0.00215
353.2	1343	0.02612	0.00104
353.2	2118	0.041	0.00108
353.2	2982	0.05692	0.00136
353.2	4279	0.07996	0.00211
353.2	5581	0.10377	0.00216
353.2	6681	0.12323	0.00218
353.2	7756	0.14241	0.00218
353.2	8962	0.16243	0.00218
373.1	1371	0.02708	0.00103
373.1	2433	0.04718	0.00109
373.1	3449	0.06687	0.00209
373.1	4567	0.08717	0.00209
373.1	5702	0.1081	0.00212
373.1	6740	0.12642	0.00217
373.1	7742	0.14491	0.00219
373.1	8822	0.16338	0.00219
