Measured thermophysical data. Phase equilibrium data for systems composed of oregano essential oil compounds and hydroalcoholic solvents at T = 298.2 K
Source: J. Chem. Thermodyn., 2015, 10.1016/j.jct.2015.04.020
Compound 1: 1-(1-methylethyl)-4-methylbenzene, C10H14, InChI=1S/C10H14/c1-8(2)10-6-4-9(3)5-7-10/h4-8H,1-3H3, purity 96.98%
Compound 2: ethanol, C2H6O, InChI=1S/C2H6O/c1-2-3/h3H,2H2,1H3, purity 99.81%
Compound 3: water, H2O, InChI=1S/H2O/h1H2, purity 99.8%

System: ethanol + 1-(1-methylethyl)-4-methylbenzene + water; phases: Liquid mixture 1, Liquid mixture 2
Fixed: Temperature, K = 298.2
Fixed: Pressure, kPa = 100
Property: Mass fraction of 1-(1-methylethyl)-4-methylbenzene (Liquid mixture 1); method: Chromatography
Property: Mass fraction of 1-(1-methylethyl)-4-methylbenzene (Liquid mixture 2); method: Chromatography
Property: Mass fraction of ethanol (Liquid mixture 2); method: Chromatography
Mass fraction of ethanol	Mass fraction of 1-(1-methylethyl)-4-methylbenzene	uncertainty	Mass fraction of 1-(1-methylethyl)-4-methylbenzene	uncertainty	Mass fraction of ethanol	uncertainty
0.0433	0.9535	0.0244	0.0578	0.0244	0.6675	
0.0354	0.9622	0.0244	0.033	0.0244	0.6261	
0.0294	0.9685	0.0244	0.0188	0.0188	0.5814	
0.0267	0.9714	0.0244	0.0161	0.0161	0.553	
