Measured thermophysical data. Thermochemical studies on five N-thenoylthiocarbamic-O-n-alkylesters
Source: J. Chem. Thermodyn., 2007, 10.1016/j.jct.2006.10.006
Compound 1: sulfuric acid, H2O4S, InChI=1S/H2O4S/c1-5(2,3)4/h(H2,1,2,3,4)
Compound 2: carbon dioxide, CO2, InChI=1S/CO2/c2-1-3
Compound 3: nitrogen, N2, InChI=1S/N2/c1-2
Compound 4: water, H2O, InChI=1S/H2O/h1H2
Compound 5: oxygen, O2, InChI=1S/O2/c1-2
Compound 6: carbamothioic acid, N-(2-thienylcarbonyl)-, O-ethyl ester, C8H9NO2S2, InChI=1S/C8H9NO2S2/c1-2-11-8(12)9-7(10)6-4-3-5-13-6/h3-5H,2H2,1H3,(H,9,10,12)
Compound 7: carbamothioic acid, N-(2-thienylcarbonyl)-, o-propyl ester, C9H11NO2S2, InChI=1S/C9H11NO2S2/c1-2-5-12-9(13)10-8(11)7-4-3-6-14-7/h3-4,6H,2,5H2,1H3,(H,10,11,13)
Compound 8: carbamothioic acid, N-(2-thienylcarbonyl)-, o-butyl ester, C10H13NO2S2, InChI=1S/C10H13NO2S2/c1-2-3-6-13-10(14)11-9(12)8-5-4-7-15-8/h4-5,7H,2-3,6H2,1H3,(H,11,12,14)
Compound 9: carbamothioic acid, N-(2-thienylcarbonyl)-, o-pentyl ester, C11H15NO2S2, InChI=1S/C11H15NO2S2/c1-2-3-4-7-14-11(15)12-10(13)9-6-5-8-16-9/h5-6,8H,2-4,7H2,1H3,(H,12,13,15)
Compound 10: carbamothioic acid, N-(2-thienylcarbonyl)-, o-hexyl ester, C12H17NO2S2, InChI=1S/C12H17NO2S2/c1-2-3-4-5-8-15-12(16)13-11(14)10-7-6-9-17-10/h6-7,9H,2-5,8H2,1H3,(H,13,14,16)

System: carbamothioic acid, N-(2-thienylcarbonyl)-, O-ethyl ester; phases: Crystal, Liquid, Air at 1 atmosphere
Property: Molar enthalpy of transition or fusion, kJ/mol (Crystal); method: DSC
Molar enthalpy of transition or fusion, kJ/mol	uncertainty
21.9	0.98

System: carbamothioic acid, N-(2-thienylcarbonyl)-, O-ethyl ester; phases: Crystal 1, Liquid, Air at 1 atmosphere
Property: Triple point temperature, K (Crystal 1); method: DTA
Triple point temperature, K	uncertainty
345.9	0.5

System: carbamothioic acid, N-(2-thienylcarbonyl)-, O-ethyl ester; phases: Crystal, Gas
Property: Molar enthalpy of vaporization or sublimation, kJ/mol (Crystal); method: Static calorimetry
Temperature, K	Molar enthalpy of vaporization or sublimation, kJ/mol	uncertainty
298.15	143.2	6

System: carbamothioic acid, N-(2-thienylcarbonyl)-, O-ethyl ester; phases: Gas
Property: Molar enthalpy, kJ/mol (Gas); method: Small (less than 1 g) adiabatic calorimetry
Temperature, K	Pressure, kPa	Molar enthalpy, kJ/mol	uncertainty
436.9	101.325	177.6	1.1

System: carbamothioic acid, N-(2-thienylcarbonyl)-, o-propyl ester; phases: Crystal, Liquid, Air at 1 atmosphere
Property: Molar enthalpy of transition or fusion, kJ/mol (Crystal); method: DSC
Molar enthalpy of transition or fusion, kJ/mol	uncertainty
26.1	1.06

System: carbamothioic acid, N-(2-thienylcarbonyl)-, o-propyl ester; phases: Crystal 1, Liquid, Air at 1 atmosphere
Property: Triple point temperature, K (Crystal 1); method: DTA
Triple point temperature, K	uncertainty
370.1	0.5

System: carbamothioic acid, N-(2-thienylcarbonyl)-, o-propyl ester; phases: Crystal, Gas
Property: Molar enthalpy of vaporization or sublimation, kJ/mol (Crystal); method: Static calorimetry
Temperature, K	Molar enthalpy of vaporization or sublimation, kJ/mol	uncertainty
298.15	136.5	3.4

System: carbamothioic acid, N-(2-thienylcarbonyl)-, o-propyl ester; phases: Gas
Property: Molar enthalpy, kJ/mol (Gas); method: Drop calorimetry
Temperature, K	Pressure, kPa	Molar enthalpy, kJ/mol	uncertainty
416.8	101.325	168.3	4.4

System: carbamothioic acid, N-(2-thienylcarbonyl)-, o-butyl ester; phases: Crystal, Liquid, Air at 1 atmosphere
Property: Molar enthalpy of transition or fusion, kJ/mol (Crystal); method: DSC
Molar enthalpy of transition or fusion, kJ/mol	uncertainty
23.89	0.92

System: carbamothioic acid, N-(2-thienylcarbonyl)-, o-butyl ester; phases: Crystal 1, Liquid, Air at 1 atmosphere
Property: Triple point temperature, K (Crystal 1); method: DTA
Triple point temperature, K	uncertainty
364.3	0.5

System: carbamothioic acid, N-(2-thienylcarbonyl)-, o-butyl ester; phases: Crystal, Gas
Property: Molar enthalpy of vaporization or sublimation, kJ/mol (Crystal); method: Static calorimetry
Temperature, K	Molar enthalpy of vaporization or sublimation, kJ/mol	uncertainty
298.15	147.5	3.6

System: carbamothioic acid, N-(2-thienylcarbonyl)-, o-butyl ester; phases: Gas
Property: Molar enthalpy, kJ/mol (Gas); method: Drop calorimetry
Temperature, K	Pressure, kPa	Molar enthalpy, kJ/mol	uncertainty
416.7	101.325	182.2	4.8

System: carbamothioic acid, N-(2-thienylcarbonyl)-, o-pentyl ester; phases: Crystal, Liquid, Air at 1 atmosphere
Property: Molar enthalpy of transition or fusion, kJ/mol (Crystal); method: DSC
Molar enthalpy of transition or fusion, kJ/mol	uncertainty
24.59	1.02

System: carbamothioic acid, N-(2-thienylcarbonyl)-, o-pentyl ester; phases: Crystal 1, Liquid, Air at 1 atmosphere
Property: Triple point temperature, K (Crystal 1); method: DTA
Triple point temperature, K	uncertainty
354.3	0.5

System: carbamothioic acid, N-(2-thienylcarbonyl)-, o-pentyl ester; phases: Crystal, Gas
Property: Molar enthalpy of vaporization or sublimation, kJ/mol (Crystal); method: Static calorimetry
Temperature, K	Molar enthalpy of vaporization or sublimation, kJ/mol	uncertainty
298.15	165.6	4

System: carbamothioic acid, N-(2-thienylcarbonyl)-, o-pentyl ester; phases: Gas
Property: Molar enthalpy, kJ/mol (Gas); method: Drop calorimetry
Temperature, K	Pressure, kPa	Molar enthalpy, kJ/mol	uncertainty
406.1	101.325	200.7	4.7

System: carbamothioic acid, N-(2-thienylcarbonyl)-, o-hexyl ester; phases: Crystal, Liquid, Air at 1 atmosphere
Property: Molar enthalpy of transition or fusion, kJ/mol (Crystal); method: DSC
Molar enthalpy of transition or fusion, kJ/mol	uncertainty
22.48	0.88

System: carbamothioic acid, N-(2-thienylcarbonyl)-, o-hexyl ester; phases: Crystal 1, Liquid, Air at 1 atmosphere
Property: Triple point temperature, K (Crystal 1); method: DTA
Triple point temperature, K	uncertainty
346.4	0.5

System: carbamothioic acid, N-(2-thienylcarbonyl)-, o-hexyl ester; phases: Crystal, Gas
Property: Molar enthalpy of vaporization or sublimation, kJ/mol (Crystal); method: Static calorimetry
Temperature, K	Molar enthalpy of vaporization or sublimation, kJ/mol	uncertainty
298.15	180.1	5.6

System: carbamothioic acid, N-(2-thienylcarbonyl)-, o-hexyl ester; phases: Gas
Property: Molar enthalpy, kJ/mol (Gas); method: Drop calorimetry
Temperature, K	Pressure, kPa	Molar enthalpy, kJ/mol	uncertainty
436.8	101.325	228.8	6.2

Reaction: 2 sulfuric acid + -1 carbamothioic acid, N-(2-thienylcarbonyl)-, O-ethyl ester + 8 carbon dioxide + .5 nitrogen + 2.5 water + -12.25 oxygen
Property: Molar internal energy of reaction at constant volume, kJ/mol
-5303.5

Reaction: 2 sulfuric acid + -1 carbamothioic acid, N-(2-thienylcarbonyl)-, o-propyl ester + 9 carbon dioxide + .5 nitrogen + 3.5 water + -13.75 oxygen
Property: Molar internal energy of reaction at constant volume, kJ/mol
-5980.3

Reaction: 2 sulfuric acid + -1 carbamothioic acid, N-(2-thienylcarbonyl)-, o-butyl ester + 10 carbon dioxide + .5 nitrogen + 4.5 water + -15.25 oxygen
Property: Molar internal energy of reaction at constant volume, kJ/mol
-6636.8

Reaction: 2 sulfuric acid + -1 carbamothioic acid, N-(2-thienylcarbonyl)-, o-pentyl ester + 11 carbon dioxide + .5 nitrogen + 5.5 water + -16.75 oxygen
Property: Molar internal energy of reaction at constant volume, kJ/mol
-7284.5

Reaction: 2 sulfuric acid + -1 carbamothioic acid, N-(2-thienylcarbonyl)-, o-hexyl ester + 12 carbon dioxide + .5 nitrogen + 6.5 water + -18.25 oxygen
Property: Molar internal energy of reaction at constant volume, kJ/mol
-7937.6
