Measured thermophysical data. Thermochemical properties of three 2-thiophenecarboxylic acid derivatives
Source: J. Chem. Thermodyn., 2008, 10.1016/j.jct.2008.04.013
Compound 1: sulfuric acid, H2O4S, InChI=1S/H2O4S/c1-5(2,3)4/h(H2,1,2,3,4)
Compound 2: carbon dioxide, CO2, InChI=1S/CO2/c2-1-3
Compound 3: water, H2O, InChI=1S/H2O/h1H2
Compound 4: oxygen, O2, InChI=1S/O2/c1-2
Compound 5: 3-methyl-2-thiophenecarboxylic acid, C6H6O2S, InChI=1S/C6H6O2S/c1-4-2-3-9-5(4)6(7)8/h2-3H,1H3,(H,7,8), purity 98%
Compound 6: 5-acetyl-2-thiophenecarboxylic acid, C7H6O3S, InChI=1S/C7H6O3S/c1-4(8)5-2-3-6(11-5)7(9)10/h2-3H,1H3,(H,9,10), purity 98%
Compound 7: 5-methyl-2-thiophenecarboxylic acid, C6H6O2S, InChI=1S/C6H6O2S/c1-4-2-3-5(9-4)6(7)8/h2-3H,1H3,(H,7,8), purity 100%

System: 3-methyl-2-thiophenecarboxylic acid; phases: Liquid, Gas
Property: Vapor or sublimation pressure, kPa (Liquid); method: Calculated from knudsen effusion weight loss
Temperature, K	Vapor or sublimation pressure, kPa	uncertainty
312.13	0.000104	5e-06
312.13	0.000102	5e-06
312.13	0.000102	5e-06
314.2	0.000129	6e-06
314.2	0.00013	7e-06
314.2	0.000126	6e-06
316.22	0.000164	8e-06
316.22	0.000162	8e-06
316.22	0.000159	8e-06
318.13	0.000209	1e-05
318.13	0.000205	1e-05
318.13	0.000204	1e-05
320.19	0.000264	1.3e-05
320.19	0.000261	1.3e-05
320.19	0.000254	1.3e-05
322.21	0.000323	1.6e-05
322.21	0.00032	1.6e-05
322.21	0.000314	1.6e-05
324.14	0.000412	2.1e-05
324.14	0.000407	2e-05
324.14	0.000418	2.1e-05
326.18	0.000507	2.5e-05
326.18	0.000503	2.5e-05
326.18	0.000507	2.5e-05
328.21	0.000636	3.2e-05
328.21	0.00063	3.2e-05
328.21	0.00063	3.2e-05
330.15	0.000798	4e-05
330.15	0.000786	3.9e-05
330.15	0.000769	3.9e-05
332.23	0.000984	4.9e-05
332.23	0.000972	4.9e-05
332.23	0.00094	4.7e-05
334.2	0.001191	0.000124
334.2	0.001174	0.000122
334.2	0.001146	0.000118

System: 5-acetyl-2-thiophenecarboxylic acid; phases: Liquid, Gas
Property: Vapor or sublimation pressure, kPa (Liquid); method: Calculated from knudsen effusion weight loss
Temperature, K	Vapor or sublimation pressure, kPa	uncertainty
364.15	0.00011	6e-06
364.15	0.000108	5e-06
364.15	0.000105	5e-06
366.18	0.000133	7e-06
366.18	0.000135	7e-06
366.18	0.000129	6e-06
368.18	0.000163	8e-06
368.18	0.000163	8e-06
368.18	0.00016	8e-06
370.15	0.000208	1e-05
370.15	0.000205	1e-05
370.15	0.0002	1e-05
372.17	0.000252	1.3e-05
372.17	0.00025	1.3e-05
372.17	0.000244	1.2e-05
374.17	0.000303	1.5e-05
374.17	0.000307	1.5e-05
374.17	0.000298	1.5e-05
376.15	0.000392	2e-05
376.15	0.000387	1.9e-05
376.15	0.000376	1.9e-05
378.17	0.000471	2.4e-05
378.17	0.000472	2.4e-05
378.17	0.000451	2.3e-05
380.18	0.000578	2.9e-05
380.18	0.000568	2.8e-05
380.18	0.000548	2.7e-05
382.18	0.000707	3.5e-05
382.18	0.000698	3.5e-05
382.18	0.000683	3.4e-05
384.18	0.000819	4.1e-05
384.18	0.000846	4.2e-05
384.18	0.000816	4.1e-05
386.17	0.001019	0.000102
386.17	0.001018	0.000102
386.17	0.000988	4.9e-05

System: 5-methyl-2-thiophenecarboxylic acid; phases: Liquid, Gas
Property: Vapor or sublimation pressure, kPa (Liquid); method: Calculated from knudsen effusion weight loss
Temperature, K	Vapor or sublimation pressure, kPa	uncertainty
316.29	9e-05	5e-06
316.29	8.8e-05	4e-06
316.29	8.9e-05	5e-06
318.25	0.000113	6e-06
318.25	0.000112	6e-06
318.25	0.00011	6e-06
320.12	0.000139	7e-06
320.12	0.000139	7e-06
320.12	0.000139	7e-06
322.28	0.000183	9e-06
322.28	0.00018	9e-06
322.28	0.00018	9e-06
324.24	0.000229	1.1e-05
324.24	0.000226	1.1e-05
324.24	0.000222	1.1e-05
326.12	0.000273	1.4e-05
326.12	0.000278	1.4e-05
326.12	0.000276	1.4e-05
328.28	0.000341	1.7e-05
328.28	0.000356	1.8e-05
328.28	0.000355	1.8e-05
330.22	0.000441	2.2e-05
330.22	0.000439	2.2e-05
330.22	0.000427	2.1e-05
332.11	0.00054	2.7e-05
332.11	0.000539	2.7e-05
332.11	0.000539	2.7e-05
334.28	0.0007	3.5e-05
334.28	0.000697	3.5e-05
334.28	0.00069	3.5e-05
336.22	0.000859	4.3e-05
336.22	0.000855	4.3e-05
336.22	0.000843	4.2e-05
338.11	0.001049	0.000106
338.11	0.001053	0.000107
338.11	0.001028	0.000103

Reaction: -1 5-methyl-2-thiophenecarboxylic acid + 1 sulfuric acid + 6 carbon dioxide + 2 water + -8 oxygen
Property: Specific internal energy of reaction at constant volume, J/g
-24053.3

Reaction: -1 5-acetyl-2-thiophenecarboxylic acid + 1 sulfuric acid + 7 carbon dioxide + 2 water + -8.5 oxygen
Property: Specific internal energy of reaction at constant volume, J/g
-21520.4

Reaction: 1 sulfuric acid + -1 3-methyl-2-thiophenecarboxylic acid + 6 carbon dioxide + 2 water + -8 oxygen
Property: Specific internal energy of reaction at constant volume, J/g
-24068.3
