Measured thermophysical data. Influence of the alkyl group on thermophysical properties of carboxylic acids in 1-butyl-3-methylimidazolium thiocyanate ionic liquid at various temperatures
Source: J. Chem. Thermodyn., 2015, 10.1016/j.jct.2015.05.004
Compound 1: acetic acid, C2H4O2, InChI=1S/C2H4O2/c1-2(3)4/h1H3,(H,3,4), purity 99%
Compound 2: propanoic acid, C3H6O2, InChI=1S/C3H6O2/c1-2-3(4)5/h2H2,1H3,(H,4,5), purity 99.5%
Compound 3: 1-butyl-3-methylimidazolium thiocyanate, C9H15N3S, InChI=1S/C8H15N2.CHNS/c1-3-4-5-10-7-6-9(2)8-10;2-1-3/h6-8H,3-5H2,1-2H3;3H/q+1;/p-1, purity 99%

System: acetic acid + 1-butyl-3-methylimidazolium thiocyanate; phases: Liquid
Fixed: Pressure, kPa = 100
Property: Mass density, kg/m3 (Liquid); method: Vibrating tube method
Temperature, K	Mole fraction of 1-butyl-3-methylimidazolium thiocyanate	Mass density, kg/m3	uncertainty
293.15	0	1049.75	0.27
293.15	0.058	1064.97	0.29
293.15	0.1206	1070.89	0.29
293.15	0.1878	1072.93	0.29
293.15	0.2632	1073.93	0.29
293.15	0.3498	1073.95	0.29
293.15	0.4503	1074.04	0.29
293.15	0.5559	1073.89	0.29
293.15	0.6831	1073.66	0.29
293.15	0.8282	1073.35	0.29
293.15	0.9042	1073.19	0.29
293.15	1	1072.74	0.29
298.15	0	1044.13	0.27
298.15	0.058	1060.08	0.29
298.15	0.1206	1066.45	0.29
298.15	0.1878	1069.2	0.29
298.15	0.2632	1070.07	0.29
298.15	0.3498	1070.59	0.29
298.15	0.4503	1070.98	0.29
298.15	0.5559	1070.99	0.29
298.15	0.6831	1071.08	0.29
298.15	0.8282	1070.87	0.29
298.15	0.9042	1070.77	0.29
298.15	1	1070.34	0.29
303.15	0	1038.48	0.26
303.15	0.058	1055.2	0.29
303.15	0.1206	1062	0.28
303.15	0.1878	1064.96	0.28
303.15	0.2632	1066.21	0.28
303.15	0.3498	1066.92	0.28
303.15	0.4503	1067.53	0.28
303.15	0.5559	1067.68	0.28
303.15	0.6831	1067.9	0.28
303.15	0.8282	1067.81	0.28
303.15	0.9042	1067.74	0.28
303.15	1	1067.37	0.28
308.15	0	1032.83	0.26
308.15	0.058	1050.32	0.28
308.15	0.1206	1057.56	0.28
308.15	0.1878	1060.77	0.28
308.15	0.2632	1062.35	0.28
308.15	0.3498	1063.27	0.28
308.15	0.4503	1064.1	0.28
308.15	0.5559	1064.39	0.28
308.15	0.6831	1064.74	0.28
308.15	0.8282	1064.75	0.28
308.15	0.9042	1064.74	0.28
308.15	1	1064.42	0.28
313.15	0	1027.18	0.25
313.15	0.058	1045.44	0.29
313.15	0.1206	1053.12	0.28
313.15	0.1878	1056.64	0.28
313.15	0.2632	1058.51	0.28
313.15	0.3498	1059.63	0.28
313.15	0.4503	1060.67	0.28
313.15	0.5559	1061.21	0.28
313.15	0.6831	1061.59	0.28
313.15	0.8282	1061.71	0.28
313.15	0.9042	1061.75	0.28
313.15	1	1061.47	0.28

System: acetic acid + 1-butyl-3-methylimidazolium thiocyanate; phases: Liquid
Fixed: Pressure, kPa = 100
Fixed: Frequency, MHz = 3
Property: Speed of sound, m/s (Liquid); method: Sing-around technique in a fixed-path interferometer
Temperature, K	Mole fraction of 1-butyl-3-methylimidazolium thiocyanate	Speed of sound, m/s	uncertainty
293.15	0	1152.7	1.6
293.15	0.058	1270.5	1.7
293.15	0.1206	1369.6	1.7
293.15	0.1878	1448.3	1.7
293.15	0.2632	1520	1.7
293.15	0.3498	1576.8	1.6
293.15	0.4503	1626.5	1.6
293.15	0.5559	1667	1.6
293.15	0.6831	1707.6	1.7
293.15	0.8282	1744.3	1.7
293.15	0.9042	1760.7	1.7
293.15	1	1778.8	1.7
298.15	0	1135.7	1.6
298.15	0.058	1252.4	1.7
298.15	0.1206	1353.9	1.7
298.15	0.1878	1433.8	1.7
298.15	0.2632	1506.3	1.7
298.15	0.3498	1563.6	1.6
298.15	0.4503	1613.6	1.6
298.15	0.5559	1658.3	1.6
298.15	0.6831	1695.4	1.7
298.15	0.8282	1732.4	1.7
298.15	0.9042	1749	1.7
298.15	1	1767.2	1.7
303.15	0	1118.4	1.6
303.15	0.058	1235.9	1.7
303.15	0.1206	1338	1.7
303.15	0.1878	1419	1.7
303.15	0.2632	1492.2	1.7
303.15	0.3498	1550.1	1.6
303.15	0.4503	1600.6	1.6
303.15	0.5559	1641.9	1.6
303.15	0.6831	1683.1	1.7
303.15	0.8282	1720.3	1.7
303.15	0.9042	1737	1.7
303.15	1	1755.4	1.7
308.15	0	1101.2	1.6
308.15	0.058	1218.7	1.7
308.15	0.1206	1322.1	1.7
308.15	0.1878	1404.2	1.7
308.15	0.2632	1478.1	1.6
308.15	0.3498	1536.6	1.6
308.15	0.4503	1587.6	1.6
308.15	0.5559	1629.3	1.6
308.15	0.6831	1670.8	1.6
308.15	0.8282	1708.4	1.7
308.15	0.9042	1725.2	1.7
308.15	1	1743.7	1.7
313.15	0	1084	1.6
313.15	0.058	1202	1.8
313.15	0.1206	1306.4	1.7
313.15	0.1878	1389.4	1.7
313.15	0.2632	1464.2	1.7
313.15	0.3498	1523.3	1.6
313.15	0.4503	1574.8	1.6
313.15	0.5559	1616.9	1.6
313.15	0.6831	1658.6	1.6
313.15	0.8282	1696.4	1.7
313.15	0.9042	1713.4	1.7
313.15	1	1732.1	1.7

System: propanoic acid + 1-butyl-3-methylimidazolium thiocyanate; phases: Liquid
Fixed: Pressure, kPa = 100
Property: Mass density, kg/m3 (Liquid); method: Vibrating tube method
Temperature, K	Mole fraction of 1-butyl-3-methylimidazolium thiocyanate	Mass density, kg/m3	uncertainty
293.15	0	993.33	0.13
293.15	0.0698	1015.42	0.17
293.15	0.1444	1031.52	0.16
293.15	0.2223	1042.18	0.16
293.15	0.306	1049.78	0.17
293.15	0.3989	1055.66	0.18
293.15	0.5022	1060.19	0.19
293.15	0.6068	1064.02	0.21
293.15	0.7166	1067.2	0.23
293.15	0.8561	1070.36	0.25
293.15	0.9209	1071.7	0.27
293.15	1	1072.74	0.29
298.15	0	987.94	0.13
298.15	0.0698	1010.77	0.17
298.15	0.1444	1027.32	0.16
298.15	0.2223	1038.27	0.16
298.15	0.306	1046.09	0.17
298.15	0.3989	1052.15	0.18
298.15	0.5022	1057.09	0.19
298.15	0.6068	1061.09	0.21
298.15	0.7166	1064.46	0.23
298.15	0.8561	1067.84	0.25
298.15	0.9209	1069.3	0.27
298.15	1	1070.34	0.29
303.15	0	982.54	0.13
303.15	0.0698	1006.13	0.18
303.15	0.1444	1023.13	0.16
303.15	0.2223	1034.37	0.16
303.15	0.306	1042.4	0.17
303.15	0.3989	1048.65	0.18
303.15	0.5022	1053.43	0.19
303.15	0.6068	1057.85	0.21
303.15	0.7166	1061.32	0.22
303.15	0.8561	1064.79	0.25
303.15	0.9209	1066.3	0.27
303.15	1	1067.37	0.28
308.15	0	977.14	0.13
308.15	0.0698	1001.49	0.18
308.15	0.1444	1018.95	0.16
308.15	0.2223	1030.48	0.16
308.15	0.306	1038.73	0.17
308.15	0.3989	1045.17	0.18
308.15	0.5022	1050.09	0.19
308.15	0.6068	1054.64	0.21
308.15	0.7166	1058.2	0.22
308.15	0.8561	1061.76	0.25
308.15	0.9209	1063.3	0.26
308.15	1	1064.42	0.28
313.15	0	971.75	0.14
313.15	0.0698	996.86	0.18
313.15	0.1444	1014.78	0.17
313.15	0.2223	1026.6	0.16
313.15	0.306	1035.07	0.17
313.15	0.3989	1041.69	0.18
313.15	0.5022	1046.79	0.19
313.15	0.6068	1051.44	0.2
313.15	0.7166	1055.09	0.22
313.15	0.8561	1058.74	0.25
313.15	0.9209	1060.33	0.26
313.15	1	1061.47	0.28

System: propanoic acid + 1-butyl-3-methylimidazolium thiocyanate; phases: Liquid
Fixed: Pressure, kPa = 100
Fixed: Frequency, MHz = 3
Property: Speed of sound, m/s (Liquid); method: Sing-around technique in a fixed-path interferometer
Temperature, K	Mole fraction of 1-butyl-3-methylimidazolium thiocyanate	Speed of sound, m/s	uncertainty
293.15	0	1164.7	1.3
293.15	0.0698	1260.2	1.5
293.15	0.1444	1361.3	1.5
293.15	0.2223	1445.8	1.5
293.15	0.306	1514.4	1.5
293.15	0.3989	1571.4	1.5
293.15	0.5022	1619.3	1.5
293.15	0.6068	1662	1.5
293.15	0.7166	1700.9	1.6
293.15	0.8561	1742.8	1.6
293.15	0.9209	1761.8	1.6
293.15	1	1778.8	1.7
298.15	0	1146	1.3
298.15	0.0698	1243	1.5
298.15	0.1444	1345.7	1.5
298.15	0.2223	1431.2	1.5
298.15	0.306	1500.5	1.5
298.15	0.3989	1558.1	1.5
298.15	0.5022	1606.6	1.5
298.15	0.6068	1649.6	1.5
298.15	0.7166	1688.8	1.6
298.15	0.8561	1730.9	1.6
298.15	0.9209	1750	1.6
298.15	1	1767.2	1.7
303.15	0	1127.1	1.3
303.15	0.0698	1225.7	1.5
303.15	0.1444	1329.8	1.5
303.15	0.2223	1416.3	1.5
303.15	0.306	1486.3	1.5
303.15	0.3989	1544.6	1.5
303.15	0.5022	1593.7	1.5
303.15	0.6068	1637	1.5
303.15	0.7166	1676.4	1.6
303.15	0.8561	1718.9	1.6
303.15	0.9209	1738.1	1.6
303.15	1	1755.4	1.7
308.15	0	1108.3	1.3
308.15	0.0698	1208.3	1.5
308.15	0.1444	1313.9	1.5
308.15	0.2223	1401.5	1.5
308.15	0.306	1472.3	1.5
308.15	0.3989	1531.1	1.5
308.15	0.5022	1580.8	1.5
308.15	0.6068	1624.6	1.5
308.15	0.7166	1664.2	1.6
308.15	0.8561	1707	1.6
308.15	0.9209	1726.3	1.6
308.15	1	1743.7	1.7
313.15	0	1089.6	1.3
313.15	0.0698	1191	1.5
313.15	0.1444	1298.1	1.5
313.15	0.2223	1386.8	1.5
313.15	0.306	1458.3	1.5
313.15	0.3989	1517.8	1.5
313.15	0.5022	1568.1	1.5
313.15	0.6068	1612.2	1.5
313.15	0.7166	1652.1	1.6
313.15	0.8561	1695.1	1.6
313.15	0.9209	1714.6	1.6
313.15	1	1732.1	1.7
