Measured thermophysical data. Liquid extraction of polyhydric alcohols from water using [A336][SCN] as a solvent
Source: J. Chem. Thermodyn., 2015, 10.1016/j.jct.2015.04.033
Compound 1: N-methyl-N,N-dioctyl-1-octanaminium thiocyanate, C26H54N2S, InChI=1S/C25H54N.CHNS/c1-5-8-11-14-17-20-23-26(4,24-21-18-15-12-9-6-2)25-22-19-16-13-10-7-3;2-1-3/h5-25H2,1-4H3;3H/q+1;/p-1, purity 98%
Compound 2: glycerol, C3H8O3, InChI=1S/C3H8O3/c4-1-3(6)2-5/h3-6H,1-2H2, purity 99.5%
Compound 3: 1,2-ethanediol, C2H6O2, InChI=1S/C2H6O2/c3-1-2-4/h3-4H,1-2H2, purity 99%
Compound 4: 1,2-propanediol, C3H8O2, InChI=1S/C3H8O2/c1-3(5)2-4/h3-5H,2H2,1H3, purity 99.5%
Compound 5: propan-1,3-diol, C3H8O2, InChI=1S/C3H8O2/c4-2-1-3-5/h4-5H,1-3H2, purity 99.5%
Compound 6: water, H2O, InChI=1S/H2O/h1H2, purity 99%

System: glycerol + water + N-methyl-N,N-dioctyl-1-octanaminium thiocyanate; phases: Liquid mixture 2, Liquid mixture 1
Fixed: Temperature, K = 303.2
Fixed: Pressure, kPa = 101.3
Property: Mass fraction of water (Liquid mixture 2); method: Titration method
Property: Mass fraction of water (Liquid mixture 1); method: Titration method
Property: Mass fraction of glycerol (Liquid mixture 1); method: Titration method
Mass fraction of glycerol	Mass fraction of water	uncertainty	Mass fraction of water	uncertainty	Mass fraction of glycerol	uncertainty
0.087	0.911	0.01	0.078	0.005	0.036	
0.166	0.831	0.012	0.073	0.005	0.054	
0.276	0.721	0.013	0.064	0.005	0.07	
0.375	0.621	0.015	0.056	0.005	0.085	
0.489	0.506	0.018	0.047	0.005	0.103	
0.626	0.368	0.015	0.037	0.005	0.122	
0.738	0.254	0.013	0.028	0.005	0.138	
0.827	0.163	0.011	0.019	0.004	0.153	

System: 1,2-ethanediol + water + N-methyl-N,N-dioctyl-1-octanaminium thiocyanate; phases: Liquid mixture 2, Liquid mixture 1
Fixed: Temperature, K = 303.2
Fixed: Pressure, kPa = 101.3
Property: Mass fraction of water (Liquid mixture 2); method: Titration method
Property: Mass fraction of water (Liquid mixture 1); method: Titration method
Property: Mass fraction of 1,2-ethanediol (Liquid mixture 1); method: Titration method
Mass fraction of 1,2-ethanediol	Mass fraction of water	uncertainty	Mass fraction of water	uncertainty	Mass fraction of 1,2-ethanediol	uncertainty
0.096	0.903	0.01	0.08	0.005	0.026	
0.192	0.805	0.012	0.072	0.005	0.043	
0.335	0.661	0.014	0.064	0.005	0.066	
0.452	0.543	0.017	0.057	0.005	0.087	
0.526	0.468	0.017	0.052	0.005	0.103	
0.61	0.383	0.015	0.044	0.005	0.122	
0.707	0.286	0.013	0.034	0.005	0.145	
0.818	0.174	0.011	0.021	0.004	0.17	

System: 1,2-propanediol + water + N-methyl-N,N-dioctyl-1-octanaminium thiocyanate; phases: Liquid mixture 1, Liquid mixture 2
Fixed: Temperature, K = 303.2
Fixed: Pressure, kPa = 101.3
Property: Mass fraction of water (Liquid mixture 1); method: Titration method
Property: Mass fraction of water (Liquid mixture 2); method: Titration method
Property: Mass fraction of 1,2-propanediol (Liquid mixture 2); method: Titration method
Mass fraction of 1,2-propanediol	Mass fraction of water	uncertainty	Mass fraction of water	uncertainty	Mass fraction of 1,2-propanediol	uncertainty
0.031	0.086	0.005	0.964	0.01	0.034	
0.072	0.084	0.005	0.873	0.011	0.125	
0.111	0.08	0.005	0.771	0.013	0.226	
0.147	0.069	0.005	0.615	0.015	0.381	
0.186	0.056	0.005	0.463	0.017	0.532	
0.219	0.045	0.004	0.341	0.014	0.653	
0.239	0.037	0.005	0.26	0.013	0.732	
0.264	0.025	0.004	0.157	0.011	0.835	

System: propan-1,3-diol + water + N-methyl-N,N-dioctyl-1-octanaminium thiocyanate; phases: Liquid mixture 1, Liquid mixture 2
Fixed: Temperature, K = 303.2
Fixed: Pressure, kPa = 101.3
Property: Mass fraction of water (Liquid mixture 1); method: Titration method
Property: Mass fraction of water (Liquid mixture 2); method: Titration method
Property: Mass fraction of propan-1,3-diol (Liquid mixture 2); method: Titration method
Mass fraction of propan-1,3-diol	Mass fraction of water	uncertainty	Mass fraction of water	uncertainty	Mass fraction of propan-1,3-diol	uncertainty
0.029	0.072	0.005	0.969	0.01	0.03	
0.092	0.067	0.004	0.867	0.011	0.131	
0.145	0.061	0.004	0.743	0.013	0.255	
0.183	0.055	0.004	0.582	0.016	0.414	
0.215	0.049	0.004	0.452	0.017	0.543	
0.235	0.043	0.004	0.334	0.014	0.659	
0.26	0.035	0.004	0.242	0.013	0.75	
0.286	0.023	0.004	0.142	0.011	0.849	
