Measured thermophysical data. Energetics of thiophenecarboxaldehydes and some of its alkyl derivatives
Source: J. Chem. Thermodyn., 2008, 10.1016/j.jct.2008.02.004
Compound 1: sulfuric acid, H2O4S, InChI=1S/H2O4S/c1-5(2,3)4/h(H2,1,2,3,4)
Compound 2: carbon dioxide, CO2, InChI=1S/CO2/c2-1-3
Compound 3: water, H2O, InChI=1S/H2O/h1H2
Compound 4: oxygen, O2, InChI=1S/O2/c1-2
Compound 5: 2-thiophenealdehyde, C5H4OS, InChI=1S/C5H4OS/c6-4-5-2-1-3-7-5/h1-4H, purity 99.5%
Compound 6: 3-formylthiophene, C5H4OS, InChI=1S/C5H4OS/c6-3-5-1-2-7-4-5/h1-4H, purity 99.5%
Compound 7: 2-thiophenecarboxaldehyde, 5-ethyl-, C7H8OS, InChI=1S/C7H8OS/c1-2-6-3-4-7(5-8)9-6/h3-5H,2H2,1H3, purity 98%
Compound 8: 3-methyl-2-thiophenecarboxaldehyde, C6H6OS, InChI=1S/C6H6OS/c1-5-2-3-8-6(5)4-7/h2-4H,1H3, purity 98%
Compound 9: 5-methyl-2-thiophenecarbaldehyde, C6H6OS, InChI=1S/C6H6OS/c1-5-2-3-6(4-7)8-5/h2-4H,1H3, purity 99.5%

System: 2-thiophenealdehyde; phases: Liquid, Gas
Property: Molar enthalpy of vaporization or sublimation, kJ/mol (Liquid); method: calvet microcalorimetry
Temperature, K	Molar enthalpy of vaporization or sublimation, kJ/mol	uncertainty
298.15	54.9	2.2

System: 2-thiophenealdehyde; phases: Gas
Property: Molar enthalpy, kJ/mol (Gas); method: Calvet microcalorimetry
Temperature, K	Pressure, kPa	Molar enthalpy, kJ/mol	uncertainty
365	101.325	62.9	1.3

System: 3-formylthiophene; phases: Liquid, Gas
Property: Molar enthalpy of vaporization or sublimation, kJ/mol (Liquid); method: calvet microcalorimetry
Temperature, K	Molar enthalpy of vaporization or sublimation, kJ/mol	uncertainty
298.15	52.6	2.4

System: 3-formylthiophene; phases: Gas
Property: Molar enthalpy, kJ/mol (Gas); method: Calvet microcalorimetry
Temperature, K	Pressure, kPa	Molar enthalpy, kJ/mol	uncertainty
364.9	101.325	60.6	1.2

System: 5-methyl-2-thiophenecarbaldehyde; phases: Liquid, Gas
Property: Molar enthalpy of vaporization or sublimation, kJ/mol (Liquid); method: calvet microcalorimetry
Temperature, K	Molar enthalpy of vaporization or sublimation, kJ/mol	uncertainty
298.15	56.2	2.4

System: 5-methyl-2-thiophenecarbaldehyde; phases: Gas
Property: Molar enthalpy, kJ/mol (Gas); method: Calvet microcalorimetry
Temperature, K	Pressure, kPa	Molar enthalpy, kJ/mol	uncertainty
349.5	101.325	63.8	1.3

System: 3-methyl-2-thiophenecarboxaldehyde; phases: Liquid, Gas
Property: Molar enthalpy of vaporization or sublimation, kJ/mol (Liquid); method: calvet microcalorimetry
Temperature, K	Molar enthalpy of vaporization or sublimation, kJ/mol	uncertainty
298.15	57.7	2.6

System: 3-methyl-2-thiophenecarboxaldehyde; phases: Gas
Property: Molar enthalpy, kJ/mol (Gas); method: Calvet microcalorimetry
Temperature, K	Pressure, kPa	Molar enthalpy, kJ/mol	uncertainty
349.6	101.325	65.3	1.3

System: 2-thiophenecarboxaldehyde, 5-ethyl-; phases: Liquid, Gas
Property: Molar enthalpy of vaporization or sublimation, kJ/mol (Liquid); method: calvet microcalorimetry
Temperature, K	Molar enthalpy of vaporization or sublimation, kJ/mol	uncertainty
298.15	62.2	2.6

System: 2-thiophenecarboxaldehyde, 5-ethyl-; phases: Gas
Property: Molar enthalpy, kJ/mol (Gas); method: Calvet microcalorimetry
Temperature, K	Pressure, kPa	Molar enthalpy, kJ/mol	uncertainty
350	101.325	71.2	1.4

Reaction: -1 2-thiophenealdehyde + 1 sulfuric acid + 5 carbon dioxide + 1 water + -7 oxygen
Property: Specific internal energy of reaction at constant volume, J/g
-27411.5

Reaction: -1 3-formylthiophene + 1 sulfuric acid + 5 carbon dioxide + 1 water + -7 oxygen
Property: Specific internal energy of reaction at constant volume, J/g
-27429.8

Reaction: 1 sulfuric acid + -1 5-methyl-2-thiophenecarbaldehyde + 6 carbon dioxide + 2 water + -8.5 oxygen
Property: Specific internal energy of reaction at constant volume, J/g
-29450.7

Reaction: -1 3-methyl-2-thiophenecarboxaldehyde + 1 sulfuric acid + 6 carbon dioxide + 2 water + -8.5 oxygen
Property: Specific internal energy of reaction at constant volume, J/g
-29488.6

Reaction: 1 sulfuric acid + -1 2-thiophenecarboxaldehyde, 5-ethyl- + 7 carbon dioxide + 3 water + -10 oxygen
Property: Specific internal energy of reaction at constant volume, J/g
-31098.9
