Measured thermophysical data. Densities, ultrasonic speeds, refractive indices, excess and partial molar properties of binary mixtures of imidazolium based ionic liquid with pyrrolidin-2-one at temperatures from 298.15 L to 323.15 K
Source: J. Chem. Thermodyn., 2016, 10.1016/j.jct.2016.05.021
Compound 1: 1-butyl-3-methylimidazolium bis(trifluoromethylsulfonyl)imide, C10H15F6N3O4S2, InChI=1S/C8H15N2.C2F6NO4S2/c1-3-4-5-10-7-6-9(2)8-10;3-1(4,5)14(10,11)9-15(12,13)2(6,7)8/h6-8H,3-5H2,1-2H3;/q+1;-1, purity 99.5%
Compound 2: 2-pyrrolidinone, C4H7NO, InChI=1S/C4H7NO/c6-4-2-1-3-5-4/h1-3H2,(H,5,6), purity 99%

System: 1-butyl-3-methylimidazolium bis(trifluoromethylsulfonyl)imide; phases: Liquid
Fixed: Pressure, kPa = 100
Property: Mass density, kg/m3 (Liquid); method: Vibrating tube method
Temperature, K	Mass density, kg/m3	uncertainty
298.15	1433.72	1.04
303.15	1428.95	1.04
308.15	1424.18	1.04
313.15	1419.41	1.04
318.15	1414.64	1.03
323.15	1409.87	1.03

System: 1-butyl-3-methylimidazolium bis(trifluoromethylsulfonyl)imide; phases: Liquid
Fixed: Pressure, kPa = 100
Fixed: Frequency, MHz = 3
Property: Speed of sound, m/s (Liquid); method: Sing-around technique in a fixed-path interferometer
Temperature, K	Speed of sound, m/s	uncertainty
298.15	1227.86	1.26
303.15	1216.77	1.26
308.15	1205.8	1.25
313.15	1194.95	1.25
318.15	1184.23	1.25
323.15	1173.61	1.25

System: 1-butyl-3-methylimidazolium bis(trifluoromethylsulfonyl)imide; phases: Liquid
Fixed: Pressure, kPa = 100
Property: Refractive index (Na D-line) (Liquid); method: Standard Abbe refractometry
Temperature, K	Refractive index (Na D-line)	uncertainty
298.15	1.42671	0.00033
303.15	1.42523	0.00033
308.15	1.42374	0.00033
313.15	1.42225	0.00033
318.15	1.42076	0.00033
323.15	1.41923	0.00033

System: 2-pyrrolidinone; phases: Metastable liquid
Fixed: Pressure, kPa = 100
Property: Mass density, kg/m3 (Metastable liquid); method: Vibrating tube method
Temperature, K	Mass density, kg/m3	uncertainty
298.15	1107.16	1.01
303.15	1103.07	1.01
308.15	1098.99	1.01
313.15	1094.9	1.01
318.15	1090.82	1.01
323.15	1086.75	1.01

System: 2-pyrrolidinone; phases: Metastable liquid
Fixed: Pressure, kPa = 100
Fixed: Frequency, MHz = 3
Property: Speed of sound, m/s (Metastable liquid); method: Sing-around technique in a fixed-path interferometer
Temperature, K	Speed of sound, m/s	uncertainty
298.15	1634.29	1.37
303.15	1617.71	1.37
308.15	1602.32	1.37
313.15	1585.44	1.36
318.15	1569.39	1.36
323.15	1553.48	1.36

System: 2-pyrrolidinone; phases: Metastable liquid
Fixed: Pressure, kPa = 100
Property: Refractive index (Na D-line) (Metastable liquid); method: Standard Abbe refractometry
Temperature, K	Refractive index (Na D-line)	uncertainty
298.15	1.48591	0.00033
303.15	1.48403	0.00033
308.15	1.48218	0.00033
313.15	1.48033	0.00033
318.15	1.47841	0.00033
323.15	1.47649	0.00033

System: 2-pyrrolidinone + 1-butyl-3-methylimidazolium bis(trifluoromethylsulfonyl)imide; phases: Liquid
Fixed: Pressure, kPa = 100
Property: Mass density, kg/m3 (Liquid); method: Vibrating tube method
Temperature, K	Mole fraction of 1-butyl-3-methylimidazolium bis(trifluoromethylsulfonyl)imide	Mass density, kg/m3	uncertainty
298.15	0	1107.16	1.01
298.15	0.1242	1204.09	1.03
298.15	0.22	1253.58	1.03
298.15	0.3191	1292.55	1.03
298.15	0.4048	1320.08	1.03
298.15	0.51	1348.24	1.03
298.15	0.5945	1367.5	1.03
298.15	0.7171	1391.3	1.04
298.15	0.8383	1411.52	1.04
298.15	0.9084	1421.66	1.04
298.15	1	1433.72	1.04
303.15	0	1103.07	1.01
303.15	0.1242	1198.66	1.03
303.15	0.22	1248.02	1.03
303.15	0.3191	1287.03	1.03
303.15	0.4048	1314.63	1.03
303.15	0.51	1342.88	1.03
303.15	0.5945	1362.18	1.03
303.15	0.7171	1386.09	1.03
303.15	0.8383	1406.4	1.04
303.15	0.9084	1416.7	1.04
303.15	1	1428.95	1.04
308.15	0	1098.99	1.01
308.15	0.1242	1193.23	1.03
308.15	0.22	1242.46	1.03
308.15	0.3191	1281.51	1.03
308.15	0.4048	1309.18	1.03
308.15	0.51	1337.52	1.03
308.15	0.5945	1356.86	1.03
308.15	0.7171	1380.88	1.03
308.15	0.8383	1401.28	1.04
308.15	0.9084	1411.74	1.04
308.15	1	1424.18	1.04
313.15	0	1094.9	1.01
313.15	0.1242	1187.79	1.03
313.15	0.22	1236.9	1.02
313.15	0.3191	1275.99	1.03
313.15	0.4048	1303.73	1.03
313.15	0.51	1332.16	1.03
313.15	0.5945	1351.54	1.03
313.15	0.7171	1375.67	1.03
313.15	0.8383	1396.16	1.03
313.15	0.9084	1406.78	1.04
313.15	1	1419.41	1.04
318.15	0	1090.82	1.01
318.15	0.1242	1182.35	1.02
318.15	0.22	1231.34	1.02
318.15	0.3191	1270.47	1.03
318.15	0.4048	1298.28	1.03
318.15	0.51	1326.8	1.03
318.15	0.5945	1346.22	1.03
318.15	0.7171	1370.46	1.03
318.15	0.8383	1391.04	1.03
318.15	0.9084	1401.82	1.03
318.15	1	1414.64	1.03
323.15	0	1086.75	1.01
323.15	0.1242	1176.91	1.02
323.15	0.22	1225.78	1.02
323.15	0.3191	1264.95	1.03
323.15	0.4048	1292.83	1.03
323.15	0.51	1321.44	1.03
323.15	0.5945	1340.9	1.03
323.15	0.7171	1365.25	1.03
323.15	0.8383	1385.92	1.03
323.15	0.9084	1396.86	1.03
323.15	1	1409.87	1.03

System: 2-pyrrolidinone + 1-butyl-3-methylimidazolium bis(trifluoromethylsulfonyl)imide; phases: Liquid
Fixed: Pressure, kPa = 100
Fixed: Frequency, MHz = 3
Property: Speed of sound, m/s (Liquid); method: Sing-around technique in a fixed-path interferometer
Temperature, K	Mole fraction of 1-butyl-3-methylimidazolium bis(trifluoromethylsulfonyl)imide	Speed of sound, m/s	uncertainty
298.15	0	1634.29	1.37
298.15	0.1242	1491.92	1.36
298.15	0.22	1431.23	1.33
298.15	0.3191	1387.28	1.32
298.15	0.4048	1357.62	1.31
298.15	0.51	1327.55	1.3
298.15	0.5945	1306.86	1.29
298.15	0.7171	1280.25	1.28
298.15	0.8383	1256.7	1.27
298.15	0.9084	1244.03	1.27
298.15	1	1227.86	1.26
303.15	0	1617.71	1.37
303.15	0.1242	1477.09	1.35
303.15	0.22	1416.98	1.33
303.15	0.3191	1373.55	1.31
303.15	0.4048	1344.36	1.3
303.15	0.51	1314.67	1.29
303.15	0.5945	1294.26	1.29
303.15	0.7171	1268.06	1.28
303.15	0.8383	1244.92	1.27
303.15	0.9084	1232.43	1.26
303.15	1	1216.77	1.26
308.15	0	1602.32	1.37
308.15	0.1242	1462.94	1.35
308.15	0.22	1403.38	1.32
308.15	0.3191	1360.32	1.31
308.15	0.4048	1331.31	1.3
308.15	0.51	1302.06	1.29
308.15	0.5945	1281.8	1.28
308.15	0.7171	1255.94	1.28
308.15	0.8383	1233.14	1.27
308.15	0.9084	1221.02	1.26
308.15	1	1205.8	1.25
313.15	0	1585.44	1.36
313.15	0.1242	1448.4	1.34
313.15	0.22	1389.4	1.32
313.15	0.3191	1346.88	1.31
313.15	0.4048	1318.25	1.3
313.15	0.51	1289.36	1.29
313.15	0.5945	1269.4	1.28
313.15	0.7171	1243.95	1.27
313.15	0.8383	1221.75	1.26
313.15	0.9084	1209.8	1.26
313.15	1	1194.95	1.25
318.15	0	1569.39	1.36
318.15	0.1242	1434.29	1.34
318.15	0.22	1375.94	1.32
318.15	0.3191	1333.82	1.31
318.15	0.4048	1305.47	1.3
318.15	0.51	1276.9	1.29
318.15	0.5945	1257.22	1.28
318.15	0.7171	1232.18	1.27
318.15	0.8383	1210.36	1.26
318.15	0.9084	1198.59	1.26
318.15	1	1184.23	1.25
323.15	0	1553.48	1.36
323.15	0.1242	1420.24	1.34
323.15	0.22	1362.62	1.32
323.15	0.3191	1320.9	1.3
323.15	0.4048	1292.89	1.29
323.15	0.51	1264.63	1.29
323.15	0.5945	1245.25	1.28
323.15	0.7171	1220.53	1.27
323.15	0.8383	1199.12	1.26
323.15	0.9084	1187.6	1.26
323.15	1	1173.61	1.25

System: 2-pyrrolidinone + 1-butyl-3-methylimidazolium bis(trifluoromethylsulfonyl)imide; phases: Liquid
Fixed: Pressure, kPa = 100
Property: Refractive index (Na D-line) (Liquid); method: Standard Abbe refractometry
Temperature, K	Mole fraction of 1-butyl-3-methylimidazolium bis(trifluoromethylsulfonyl)imide	Refractive index (Na D-line)	uncertainty
298.15	0	1.48591	0.00033
298.15	0.1242	1.46742	0.00033
298.15	0.22	1.45836	0.00033
298.15	0.3191	1.45142	0.00033
298.15	0.4048	1.44661	0.00033
298.15	0.51	1.44176	0.00033
298.15	0.5945	1.43844	0.00033
298.15	0.7171	1.4343	0.00033
298.15	0.8383	1.43075	0.00033
298.15	0.9084	1.42892	0.00033
298.15	1	1.42671	0.00033
303.15	0	1.48403	0.00033
303.15	0.1242	1.46576	0.00033
303.15	0.22	1.45679	0.00033
303.15	0.3191	1.44988	0.00033
303.15	0.4048	1.4451	0.00033
303.15	0.51	1.44028	0.00033
303.15	0.5945	1.43699	0.00033
303.15	0.7171	1.43286	0.00033
303.15	0.8383	1.42932	0.00033
303.15	0.9084	1.42747	0.00033
303.15	1	1.42523	0.00033
308.15	0	1.48218	0.00033
308.15	0.1242	1.46414	0.00033
308.15	0.22	1.45525	0.00033
308.15	0.3191	1.44835	0.00033
308.15	0.4048	1.44359	0.00033
308.15	0.51	1.43881	0.00033
308.15	0.5945	1.43554	0.00033
308.15	0.7171	1.43142	0.00033
308.15	0.8383	1.42789	0.00033
308.15	0.9084	1.426	0.00033
308.15	1	1.42374	0.00033
313.15	0	1.48033	0.00033
313.15	0.1242	1.46253	0.00033
313.15	0.22	1.4537	0.00033
313.15	0.3191	1.44683	0.00033
313.15	0.4048	1.44209	0.00033
313.15	0.51	1.43733	0.00033
313.15	0.5945	1.43407	0.00033
313.15	0.7171	1.42997	0.00033
313.15	0.8383	1.42645	0.00033
313.15	0.9084	1.42456	0.00033
313.15	1	1.42225	0.00033
318.15	0	1.47841	0.00033
318.15	0.1242	1.46087	0.00033
318.15	0.22	1.45212	0.00033
318.15	0.3191	1.44527	0.00033
318.15	0.4048	1.44057	0.00033
318.15	0.51	1.43584	0.00033
318.15	0.5945	1.43261	0.00033
318.15	0.7171	1.42853	0.00033
318.15	0.8383	1.42499	0.00033
318.15	0.9084	1.42312	0.00033
318.15	1	1.42076	0.00033
323.15	0	1.47649	0.00033
323.15	0.1242	1.4592	0.00033
323.15	0.22	1.45051	0.00033
323.15	0.3191	1.44369	0.00033
323.15	0.4048	1.43902	0.00033
323.15	0.51	1.43432	0.00033
323.15	0.5945	1.4311	0.00033
323.15	0.7171	1.42704	0.00033
323.15	0.8383	1.42352	0.00033
323.15	0.9084	1.42164	0.00033
323.15	1	1.41923	0.00033
