Measured thermophysical data. Thermodynamic properties of ammonium sulfamate
Source: J. Chem. Thermodyn., 2019, 10.1016/j.jct.2019.01.021
Compound 1: ammonium sulfamate, H6N2O3S, InChI=1S/H3NO3S.H3N/c1-5(2,3)4;/h(H3,1,2,3,4);1H3, purity 99%
Compound 2: water, H2O, InChI=1S/H2O/h1H2

System: ammonium sulfamate; phases: Crystal 1, Liquid, Air at 1 atmosphere
Property: Normal melting temperature, K (Crystal 1); method: DTA
Normal melting temperature, K	uncertainty
406.1	0.4

System: ammonium sulfamate; phases: Crystal 2, Crystal 1, Air at 1 atmosphere
Property: Triple point temperature, K (Crystal 2); method: Adiabatic calorimetry
Triple point temperature, K	uncertainty
254.5	0.2

System: ammonium sulfamate; phases: Crystal 1, Liquid, Air at 1 atmosphere
Property: Molar enthalpy of transition or fusion, kJ/mol (Crystal 1); method: DSC
Molar enthalpy of transition or fusion, kJ/mol	uncertainty
16.2	0.8

System: ammonium sulfamate; phases: Crystal 2, Crystal 1, Air at 1 atmosphere
Property: Molar enthalpy of transition or fusion, kJ/mol (Crystal 2); method: Adiabatic calorimetry
Molar enthalpy of transition or fusion, kJ/mol	uncertainty
0.012	0.008

System: ammonium sulfamate; phases: Crystal 2
Fixed: Pressure, kPa = 101.325
Property: Molar heat capacity at constant pressure, J/K/mol (Crystal 2); method: Small (less than 1 g) adiabatic calorimetry
Temperature, K	Molar heat capacity at constant pressure, J/K/mol	uncertainty
5	0.003159494724	0.015631184424
10	0.3907796106	0.0249433794
15	1.8374956158	0.0582012186
20	4.406663694	0.083144598
25	7.981881408	0.166289196
30	12.222255906	0.332578392
35	16.878353394	0.41572299
40	21.534450882	0.498867588
45	26.19054837	0.665156784
50	30.846645858	0.748301382
55	35.75217714	0.83144598
60	39.90940704	0.83144598
65	44.06663694	0.83144598
70	49.05531282	0.83144598
75	53.21254272	1.66289196
80	57.36977262	1.66289196
90	65.68423242	0.332578392
100	73.333535436	0.41572299
110	80.400826266	0.41572299
120	86.88610491	0.41572299
130	92.70622677	0.41572299
140	98.027481042	0.498867588
150	102.849867726	0.498867588
160	107.339676018	0.498867588
170	111.496905918	0.498867588
180	115.404702024	0.498867588
190	119.063064336	0.582012186
200	122.63828205	0.582012186
210	125.96406597	0.582012186
220	129.206705292	0.582012186
230	132.366200016	0.582012186
240	135.442550142	0.582012186

System: ammonium sulfamate; phases: Crystal 2
Fixed: Pressure, kPa = 101.325
Property: Molar enthalpy function {Hm(T)-Hm(0)}/T, J/K/mol (Crystal 2); method: Small (less than 1 g) adiabatic calorimetry
Temperature, K	Molar enthalpy function {Hm(T)-Hm(0)}/T, J/K/mol	uncertainty
5	0.0002577482538	0.0154981530672
10	0.0582012186	0.0166289196
15	0.3824651508	0.0582012186
20	1.080879774	0.166289196
25	2.07861495	0.083144598
30	3.408928518	0.166289196
35	4.98867588	0.166289196
40	6.734712438	0.249433794
45	8.647038192	0.166289196
50	10.642508544	0.249433794
55	12.721123494	0.249433794
60	14.799738444	0.332578392
65	16.878353394	0.332578392
70	19.040112942	0.41572299
75	21.118727892	0.41572299
80	23.28048744	0.498867588
90	27.520861938	0.332578392
100	31.761236436	0.41572299
110	35.835321738	0.41572299
120	39.826262442	0.498867588
130	43.65091395	0.498867588
140	47.39242086	0.582012186
150	50.884493976	0.582012186
160	54.293422494	0.665156784
170	57.536061816	0.665156784
180	60.612411942	0.665156784
190	63.60561747	0.748301382
200	66.5156784	0.748301382
210	69.259450134	0.748301382
220	71.92007727	0.83144598
230	74.41441521	0.83144598
240	76.90875315	0.83144598

System: ammonium sulfamate; phases: Crystal 2
Fixed: Pressure, kPa = 101.325
Property: Molar entropy, J/K/mol (Crystal 2); method: Small (less than 1 g) adiabatic calorimetry
Temperature, K	Molar entropy, J/K/mol	uncertainty
5	0.0002826916332	0.0232472296008
10	0.0748301382	0.0249433794
15	0.4656097488	0.0914590578
20	1.330313568	0.249433794
25	2.660627136	0.166289196
30	4.489808292	0.249433794
35	6.734712438	0.41572299
40	9.229050378	0.498867588
45	12.139111308	0.41572299
50	15.132316836	0.498867588
55	18.29181156	0.582012186
60	21.534450882	0.665156784
65	24.860234802	0.748301382
70	28.352307918	0.914590578
75	31.844381034	0.997735176
80	35.419598748	1.164024372
90	42.653178774	1.164024372
100	49.969903398	0.83144598
110	57.286628022	0.997735176
120	64.603352646	1.080879774
130	71.753788074	1.24716897
140	78.821078904	1.24716897
150	85.63893594	1.66289196
160	92.29050378	1.66289196
170	98.94207162	1.66289196
180	105.59363946	1.66289196
190	112.2452073	1.66289196
200	118.06532916	1.66289196
210	123.88545102	1.66289196
220	130.53701886	1.66289196
230	136.35714072	1.66289196
240	141.3458166	1.66289196

System: ammonium sulfamate; phases: Crystal 1
Fixed: Pressure, kPa = 101.325
Property: Molar heat capacity at constant pressure, J/K/mol (Crystal 1); method: Small (less than 1 g) adiabatic calorimetry
Temperature, K	Molar heat capacity at constant pressure, J/K/mol	uncertainty
260	141.262672002	0.582012186
270	144.089588334	0.582012186
280	146.75021547	0.665156784
290	149.410842606	0.665156784
298.15	151.489457556	0.665156784
300	151.988325144	0.665156784
310	154.399518486	0.665156784
320	156.810711828	0.665156784
330	159.138760572	0.665156784

System: ammonium sulfamate; phases: Crystal 1
Fixed: Pressure, kPa = 101.325
Property: Molar enthalpy function {Hm(T)-Hm(0)}/T, J/K/mol (Crystal 1); method: Small (less than 1 g) adiabatic calorimetry
Temperature, K	Molar enthalpy function {Hm(T)-Hm(0)}/T, J/K/mol	uncertainty
260	81.48170604	0.83144598
270	83.97604398	0.83144598
280	86.47038192	0.83144598
290	88.13327388	0.83144598
298.15	89.79616584	0.83144598
300	90.62761182	0.83144598
310	92.29050378	0.83144598
320	93.95339574	0.83144598
330	96.44773368	0.83144598

System: ammonium sulfamate; phases: Crystal 1
Fixed: Pressure, kPa = 101.325
Property: Molar entropy, J/K/mol (Crystal 1); method: Small (less than 1 g) adiabatic calorimetry
Temperature, K	Molar entropy, J/K/mol	uncertainty
260	152.98606032	1.66289196
270	157.9747362	1.66289196
280	163.79485806	1.66289196
290	168.78353394	1.66289196
298.15	172.94076384	2.49433794
300	173.77220982	2.49433794
310	178.7608857	2.49433794
320	183.74956158	2.49433794
330	188.73823746	2.49433794

System: ammonium sulfamate; phases: Crystal 2
Fixed: Pressure, kPa = 101.325
Property: Molar heat capacity at constant pressure, J/K/mol (Crystal 2); method: Small (less than 1 g) adiabatic calorimetry
Temperature, K	Molar heat capacity at constant pressure, J/K/mol	uncertainty
8.91	0.22282752264	0.01829181156
9.15	0.25608536184	0.01912325754
9.62	0.32925260808	0.01995470352
9.86	0.36084755532	0.01995470352
10.36	0.46644119478	0.02161759548
10.69	0.51383361564	0.02244904146
11.01	0.59947255158	0.02328048744
11.34	0.66681967596	0.02411193342
11.67	0.74663849004	0.02577482538
12.01	0.8356032099	0.02660627136
12.34	0.92623082172	0.02826916332
12.68	1.01270120364	0.02993205528
13.01	1.11330616722	0.03159494724
13.35	1.22887715844	0.0332578392
13.69	1.3469424876	0.03492073116
14.03	1.46500781676	0.0374150691
14.37	1.58556748386	0.03907796106
14.72	1.72026173262	0.041572299
15.07	1.85745031932	0.04323519096
15.42	1.9996275819	0.0457295289
15.76	2.15510798016	0.04822386684
16.11	2.3322059739	0.05154965076
16.47	2.48436058824	0.0540439887
16.82	2.6398409865	0.05653832664
17.17	2.83024211592	0.05986411056
17.52	3.02147469132	0.0623584485
17.88	3.20439280692	0.06568423242
18.24	3.39479393634	0.06901001634
18.59	3.5918466336	0.07150435428
18.95	3.80635969644	0.07566158418
19.31	4.03334444898	0.0789873681
19.67	4.25035184976	0.08231315202
20.03	4.4648649126	0.08563893594
20.61	4.8307011438	0.0914590578
21.36	5.30628824436	0.09894207162
22.1	5.8242790899	0.10725653142
22.85	6.36388753092	0.11557099122
23.61	6.90765320184	0.12388545102
24.36	7.49215972578	0.13219991082
25.12	8.11740710274	0.14217726258
25.88	8.74847460156	0.15132316836
26.65	9.3163522059	0.15963762816
27.42	9.94741970472	0.16878353394
28.19	10.6134079347	0.1787608857
28.96	11.2951936383	0.18873823746
29.73	11.972822112	0.19871558922
30.51	12.6837084249	0.22365896862
31.29	13.41205510338	0.23363632038
32.06	14.11213261854	0.24444511812
32.85	14.8454679729	0.25525391586
33.63	15.59293790892	0.2660627136
34.41	16.30548711378	0.27687151134
35.2	17.03050800834	0.28768030908
35.98	17.8054156617	0.2993205528
36.77	18.53126800224	0.31012935054
37.56	19.24880588298	0.32093814828
38.35	19.95636641196	0.33174694602
39.14	20.70134201004	0.34255574376
39.93	21.43634025636	0.35419598748
40.72	22.20542778786	0.3658362312
41.51	22.95123483192	0.37664502894
42.31	23.7211538094	0.38828527266
43.1	24.45864639366	0.39992551638
43.9	25.21692512742	0.41073431412
44.69	25.99682145666	0.42320600382
45.49	26.7393027168	0.43401480156
46.29	27.41859408246	0.4448235993
47.09	28.15858100466	0.45563239704
47.88	28.92018552234	0.46727264076
48.68	29.57619640056	0.47724999252
49.48	30.3103632009	0.48889023624
50.28	31.01376649998	0.498867588
51.08	31.7487647463	0.51050783172
51.88	32.45798816724	0.52131662946
52.68	33.23954738844	0.53295687318
53.48	34.09427385588	0.54626000886
54.28	34.8999450105	0.55873169856
55.08	35.7480199101	0.57120338826
55.89	36.23774159232	0.57868640208
56.69	36.93948199944	0.58949519982
57.49	37.64205385254	0.60030399756
58.29	38.37372631494	0.61194424128
59.1	39.05384912658	0.62192159304
59.91	39.75891531762	0.63273039078
60.71	40.46564440062	0.64353918852
61.52	41.16987914568	0.65434798626
62.32	42.03292007292	0.66765112194
63.12	42.85522014714	0.68012281164
63.92	43.54615175652	0.69093160938
64.73	44.15726455182	0.70007751516
65.54	44.8856112303	0.71171775888
66.34	45.52748752686	0.72169511064
67.15	46.20844178448	0.7316724624
67.95	46.89272182602	0.74248126014
68.76	47.59113644922	0.75329005788
69.57	48.2986969782	0.76409885562
70.38	49.00875184512	0.77490765336
71.3	49.73460418566	0.7857164511
72.35	50.64004885788	0.79985103276
73.39	51.53634762432	0.81315416844
74.44	52.47837591966	0.82812019608
75.48	53.42705578284	0.84225477774
76.53	54.35411805054	0.85722080538
77.58	55.24376524914	0.87052394106
78.62	56.1849620985	0.88465852272
79.67	57.1244960559	0.89962455036
79.91	57.19849474812	0.90045599634
80.72	58.01913193038	0.32675827014
80.96	58.18625257236	0.32758971612
81.77	58.94868853602	0.33091550004
82.01	59.06675386518	0.33174694602
82.82	59.87325646578	0.33507272994
83.05	59.96305263162	0.33590417592
83.87	60.8161162071	0.33922995984
84.1	60.90674381892	0.34006140582
84.92	61.7265495552	0.34338718974
85.15	61.77560486802	0.34338718974
86.2	62.60455651008	0.34754441964
87.24	63.53245022376	0.35170164954
88.29	64.43373766608	0.35585887944
89.34	65.22194845512	0.35918466336
90.39	66.04507997532	0.38412804276
91.44	66.98045670282	0.38745382668
92.49	67.8335202783	0.3907796106
93.54	68.64667444674	0.39410539452
94.59	69.4465254795	0.39743117844
95.65	70.24138783638	0.40075696236
96.7	71.1177318993	0.40408274628
97.75	71.8909766607	0.40657708422
98.8	72.69831070728	0.40990286814
99.86	73.47238691466	0.41322865206
100.91	74.30300144868	0.41655443598
101.96	75.0878864538	0.4198802199
103.01	75.85198530942	0.42237455784
104.06	76.58947789368	0.42570034176
105.11	77.34443084352	0.42902612568
106.16	78.12931584864	0.43152046362
107.21	78.84768517536	0.43484624754
108.26	79.53030232494	0.43734058548
109.31	80.30022130242	0.4406663694
110.37	80.97618688416	0.44316070734
111.42	81.70952223852	0.44648649126
112.47	82.39879095594	0.4489808292
113.53	83.05147605024	0.45147516714
114.58	83.7099812664	0.457295289
115.63	84.4250248092	0.457295289
116.68	85.098496053	0.457295289
117.74	85.7470239174	0.4656097488
118.79	86.4371240808	0.4656097488
119.84	87.0191362668	0.4656097488
120.9	87.6842930508	0.4739242086
121.95	88.3743932142	0.4739242086
123	88.9480909404	0.4739242086
124.05	89.546732046	0.4739242086
125.11	90.1204297722	0.4822386684
126.16	90.7772720964	0.4822386684
127.21	91.3592842824	0.4822386684
128.27	92.0161266066	0.4905531282
129.32	92.5565664936	0.4905531282
130.38	93.1468931394	0.4905531282
131.43	93.7621631646	0.4905531282
132.49	94.3109175114	0.498867588
133.54	94.78484172	0.498867588
134.59	95.4250551246	0.498867588
135.65	95.990438391	0.5071820478
136.7	96.4976204388	0.5071820478
137.76	97.0131169464	0.5071820478
138.81	97.528613454	0.5071820478
139.87	98.1272545596	0.5154965076
140.92	98.6344366074	0.5154965076
141.97	99.2081343336	0.5154965076
143.03	99.690373002	0.5154965076
144.09	100.1642972106	0.5238109674
145.14	100.6714792584	0.5238109674
146.2	101.1204600876	0.5238109674
147.25	101.6359565952	0.5238109674
148.31	102.1763964822	0.5321254272
149.36	102.5921194722	0.5321254272
150.42	103.1076159798	0.5321254272
151.47	103.6231124874	0.5321254272
152.53	104.1302945352	0.540439887
153.58	104.471187387	0.540439887
154.64	105.0448851132	0.540439887
155.69	105.5686960806	0.540439887
156.75	105.9844190706	0.540439887
157.8	106.3918276008	0.5487543468
158.86	106.8657518094	0.5487543468
159.91	107.3064181788	0.5487543468
160.97	107.7387700884	0.5487543468
162.02	108.1544930784	0.5487543468
163.08	108.6949329654	0.5570688066
164.13	109.085712576	0.5570688066
165.19	109.459863267	0.5570688066
166.24	109.9753597746	0.5570688066
167.3	110.416026144	0.5653832664
168.35	110.831749134	0.5653832664
169.41	111.1892709054	0.5653832664
170.46	111.6382517346	0.5653832664
171.51	112.1288048628	0.5653832664
172.57	112.4364398754	0.5736977262
173.62	112.7773327272	0.5736977262
174.67	113.2096846368	0.5736977262
175.73	113.6669799258	0.5736977262
176.78	114.1492185942	0.5736977262
177.84	114.5150548254	0.582012186
178.89	114.8892055164	0.582012186
179.94	115.321557426	0.582012186
181	115.7123370366	0.582012186
182.05	116.1363744864	0.582012186
183.1	116.4107516598	0.582012186
184.16	116.8431035694	0.5903266458
185.21	117.3003988584	0.5903266458
186.26	117.5581471122	0.5903266458
187.31	118.0154424012	0.5903266458
188.37	118.3397063334	0.5903266458
189.42	118.6639702656	0.5986411056
190.47	118.9882341978	0.5986411056
191.52	119.4289005672	0.5986411056
192.57	119.894510316	0.5986411056
193.62	120.2603465472	0.5986411056
194.67	120.6926984568	0.6069555654
195.72	121.058534688	0.6069555654
196.77	121.5657167358	0.6069555654
197.82	122.0728987836	0.6069555654
198.87	122.4553639344	0.6069555654
199.92	122.555137452	0.6069555654
200.85	122.8627724646	0.6152700252
201.65	123.1620930174	0.6152700252
202.45	123.4447846506	0.6152700252
203.24	123.7357907436	0.6152700252
204.05	123.88545102	0.6152700252
204.85	124.1016269748	0.6152700252
205.65	124.384318608	0.6152700252
206.45	124.7002680804	0.623584485
207.25	124.9164440352	0.623584485
208.05	125.0993621508	0.623584485
208.86	125.382053784	0.623584485
209.66	125.6896887966	0.623584485
210.46	125.8310346132	0.623584485
211.26	126.0388961082	0.623584485
212.07	126.3215877414	0.623584485
212.87	126.6375372138	0.623584485
213.68	127.003373445	0.6318989448
214.48	127.377524136	0.6318989448
215.28	127.751674827	0.6318989448
216.09	127.7849326662	0.6318989448
216.9	127.9761652416	0.6318989448
217.7	128.1923411964	0.6318989448
218.51	128.5166051286	0.6318989448
219.31	128.7826678422	0.6402134046
220.12	129.040416096	0.6402134046
220.93	129.2981643498	0.6402134046
221.73	129.4893969252	0.6402134046
222.54	129.7388307192	0.6402134046
223.35	130.0215223524	0.6402134046
224.16	130.2626416866	0.6402134046
224.97	130.5287044002	0.6402134046
225.78	130.7116225158	0.6402134046
226.59	130.9776852294	0.6485278644
227.4	131.3185780812	0.6485278644
228.21	131.6095841742	0.6485278644
229.02	131.825760129	0.6485278644
229.83	132.0835083828	0.6485278644
230.64	132.3079987974	0.6485278644
231.45	132.781923006	0.6568423242
232.27	133.4637087096	0.6568423242
233.08	133.2225893754	0.6568423242
233.89	133.5052810086	0.6568423242
234.71	133.8295449408	0.6568423242
235.52	134.2535823906	0.6568423242
236.33	134.611104162	0.6568423242
237.15	134.9686259334	0.665156784
237.96	135.1764874284	0.665156784
238.78	135.7668140742	0.665156784
239.59	135.4342356822	0.665156784
240.41	136.440285318	0.665156784
241.22	136.5899455944	0.665156784
242.04	136.315568421	0.665156784
242.86	137.271731298	0.6734712438
243.68	137.4047626548	0.6734712438
244.5	136.9724107452	0.6734712438
245.31	136.6814046522	0.665156784
246.13	137.4546494136	0.6734712438
246.95	137.645881989	0.6734712438
247.77	137.9285736222	0.6734712438
248.59	138.1613784966	0.6734712438
249.42	138.7018183836	0.6734712438
250.24	139.225629351	0.6817857036
251.06	139.7910126174	0.6817857036
251.88	140.4561694014	0.6817857036
252.7	140.9799803688	0.6901001634
253.52	141.719967291	0.6901001634
254.34	145.5778766382	0.7150435428
244.81	137.2052156196	0.6734712438
245.38	137.2634168382	0.6734712438
245.96	137.4213915744	0.6734712438
246.53	137.5959952302	0.6734712438
247.11	137.645881989	0.6734712438
247.68	138.0034037604	0.6734712438
248.25	138.0117182202	0.6734712438
248.83	138.311038773	0.6734712438
249.41	138.8681075796	0.6734712438
249.98	139.1507992128	0.6817857036
250.56	139.433490846	0.6817857036
251.14	139.8991005948	0.6817857036
251.71	140.2981946652	0.6817857036
252.28	140.888521311	0.6817857036
252.86	141.2294141628	0.6901001634
253.43	141.8945709468	0.6901001634
254.01	143.1583688364	0.6984146232
244.44	137.0306119638	0.6734712438
244.94	137.2634168382	0.6734712438
245.44	137.5544229312	0.6734712438
245.94	137.5377940116	0.6734712438
246.46	137.687454288	0.6734712438
246.96	137.7123976674	0.6734712438
247.46	137.8038567252	0.6734712438
247.97	138.061604979	0.6734712438
248.47	138.269466474	0.6734712438
248.98	138.3609255318	0.6734712438
249.48	138.7184473032	0.6734712438
249.98	138.934623258	0.6817857036
250.49	139.2588871902	0.6817857036
250.99	139.6164089616	0.6817857036
251.5	140.2483079064	0.6817857036
252	140.4062826426	0.6817857036
252.51	140.555942919	0.6817857036
253.02	141.0215526678	0.6901001634
253.52	141.4040178186	0.6901001634
254.03	142.7675892258	0.6984146232

System: ammonium sulfamate; phases: Crystal 1
Fixed: Pressure, kPa = 101.325
Property: Molar heat capacity at constant pressure, J/K/mol (Crystal 1); method: Small (less than 1 g) adiabatic calorimetry
Temperature, K	Molar heat capacity at constant pressure, J/K/mol	uncertainty
255.17	141.5370491754	0.6901001634
256	139.890786135	0.6817857036
256.83	140.1485343888	0.6817857036
257.65	140.389653723	0.6817857036
258.48	140.5060561602	0.6817857036
259.3	140.9134646904	0.6817857036
260.12	141.0714394266	0.6901001634
260.95	141.3375021402	0.6901001634
261.77	141.5370491754	0.6901001634
262.61	141.886256487	0.6901001634
263.44	142.0858035222	0.6901001634
264.27	142.3768096152	0.6901001634
265.1	142.551413271	0.6901001634
265.93	142.7842181454	0.6901001634
266.76	143.1251109972	0.6984146232
267.59	143.216570055	0.6984146232
268.42	143.3911737108	0.6984146232
269.25	143.6239785852	0.6984146232
270.08	143.9066702184	0.6984146232
270.91	144.172732932	0.6984146232
271.74	144.4304811858	0.6984146232
272.58	144.630028221	0.6984146232
273.41	144.837889716	0.6984146232
274.25	145.0623801306	0.706729083
275.08	145.3617006834	0.706729083
275.94	145.5612477186	0.706729083
276.77	145.7774236734	0.706729083
277.6	145.9935996282	0.706729083
278.44	146.2014611232	0.706729083
279.28	146.417637078	0.706729083
280.11	146.667070872	0.706729083
280.95	147.0079637238	0.706729083
281.79	147.2740264374	0.7150435428
282.63	147.3654854952	0.7150435428
283.47	147.5650325304	0.7150435428
284.3	147.8976109224	0.7150435428
285.15	148.0306422792	0.7150435428
285.99	148.2385037742	0.7150435428
286.83	148.6874846034	0.7150435428
287.67	148.8038870406	0.7150435428
288.49	148.9784906964	0.7150435428
289.33	149.327698008	0.7233580026
290.17	149.5521884226	0.7233580026
291.01	149.8099366764	0.7233580026
291.85	149.8348800558	0.7233580026
292.69	150.1342006086	0.7233580026
293.53	150.5249802192	0.7233580026
294.38	150.4584645408	0.7233580026
295.22	150.7162127946	0.7233580026
296.07	150.865873071	0.7233580026
296.92	151.2233948424	0.7316724624
297.77	151.3148539002	0.7316724624
298.61	151.6224889128	0.7316724624
299.46	152.0964131214	0.7316724624
300.74	152.1629287998	0.7316724624
302.38	152.5121361114	0.7316724624
304	152.902915722	0.7316724624
305.63	153.2687519532	0.7399869222
307.25	153.7177327824	0.7399869222
308.87	154.0752545538	0.7399869222
310.45	154.4743486242	0.7399869222
312.03	154.856813775	0.7399869222
313.62	155.147819868	0.7399869222
315.2	155.563542858	0.748301382
316.77	155.9460080088	0.748301382
318.35	156.3367876194	0.748301382
319.87	156.7192527702	0.748301382
321.41	157.1100323808	0.748301382
322.95	157.434296313	0.7566158418
324.49	157.891591602	0.7566158418
325.96	158.182597695	0.7566158418
327.48	158.016308499	0.7566158418
328.97	158.7562954212	0.7566158418
330.46	159.3965088258	0.7649303016
331.95	159.7374016776	0.7649303016
333.42	160.1863825068	0.7649303016
334.89	160.552218738	0.7649303016
254.58	148.6459123044	0.7981881408
255.16	140.0071885722	0.6817857036
255.74	139.9157295144	0.6817857036
256.32	140.3314525044	0.6817857036
256.9	140.3979681828	0.6817857036
257.48	140.6058296778	0.6817857036
258.06	140.6557164366	0.6817857036
258.65	140.9217791502	0.6817857036
259.23	140.9134646904	0.6817857036
259.81	141.1046972658	0.6901001634
260.39	141.1712129442	0.6901001634
260.97	141.5370491754	0.6901001634
261.55	141.4954768764	0.6901001634
262.13	141.7116528312	0.6901001634
262.71	141.886256487	0.6901001634
263.3	141.9527721654	0.6901001634
254.54	146.8915612866	0.7566158418
255.05	140.264936826	0.7399869222
255.56	139.8242704566	0.6817857036
256.07	140.1485343888	0.6817857036
256.58	140.3563958838	0.6817857036
257.09	140.264936826	0.6817857036
257.6	140.5642573788	0.6817857036
258.1	140.6058296778	0.6817857036
258.61	140.6307730572	0.6817857036
259.12	140.7804333336	0.6817857036
259.63	141.013238208	0.6901001634
260.15	141.0631249668	0.6901001634
260.66	141.2543575422	0.6901001634
261.17	141.3790744392	0.6901001634
261.68	141.470533497	0.6901001634
262.19	141.7781685096	0.7649303016
262.73	141.9610866252	0.7649303016

System: ammonium sulfamate + water; phases: Liquid
Fixed: Pressure, kPa = 101.3
Fixed: Temperature, K = 298.15
Property: Molar enthalpy of solution, kJ/mol (Liquid); method: ISOPERIBOL
Mass fraction of ammonium sulfamate	Molar enthalpy of solution, kJ/mol	uncertainty
0.00119	25.33	0.78
0.00108	25.04	0.77
0.00113	25.06	0.77
0.00117	24.91	0.77
0.00112	25.86	0.8
