Measured thermophysical data. Thermodynamic properties of 4-tert-butyl-diphenyl oxide
Source: J. Chem. Thermodyn., 2015, 10.1016/j.jct.2015.03.019
Compound 1: carbon dioxide, CO2, InChI=1S/CO2/c2-1-3
Compound 2: water, H2O, InChI=1S/H2O/h1H2
Compound 3: oxygen, O2, InChI=1S/O2/c1-2
Compound 4: 4-tert-butylphenyl phenyl ether, C16H18O, InChI=1S/C16H18O/c1-16(2,3)13-9-11-15(12-10-13)17-14-7-5-4-6-8-14/h4-12H,1-3H3, purity 98%

System: 4-tert-butylphenyl phenyl ether; phases: Crystal, Liquid, Gas
Property: Triple point temperature, K (Crystal); method: Adiabatic calorimetry
Triple point temperature, K	uncertainty
327.84	0.04

System: 4-tert-butylphenyl phenyl ether; phases: Crystal, Liquid, Gas
Property: Molar enthalpy of transition or fusion, kJ/mol (Crystal); method: Adiabatic calorimetry
Molar enthalpy of transition or fusion, kJ/mol	uncertainty
21.987	0.142

System: 4-tert-butylphenyl phenyl ether; phases: Crystal
Property: Mass density, kg/m3 (Crystal); method: Pycnometric method
Temperature, K	Pressure, kPa	Mass density, kg/m3	uncertainty
298.15	101.325	997.5	4.5

System: 4-tert-butylphenyl phenyl ether; phases: Crystal, Gas
Property: Vapor or sublimation pressure, kPa (Crystal); method: Transpiration method
Temperature, K	Vapor or sublimation pressure, kPa	uncertainty
298.46	4.8e-05	3e-06
299.37	5.3e-05	3e-06
300.45	6.1e-05	4e-06
303.52	9.5e-05	5e-06
306.47	0.000135	7e-06
310.47	0.000222	1.1e-05
310.5	0.000229	1.2e-05
312.53	0.000285	1.5e-05
314.45	0.000363	1.9e-05
315.5	0.000405	2.1e-05
316.51	0.000466	2.6e-05
317.52	0.00055	3e-05
318.5	0.000621	3.2e-05
319.52	0.000689	3.5e-05
320.55	0.000755	3.9e-05
321.53	0.000855	4.4e-05
322.52	0.00095	4.8e-05
323.45	0.001031	5.5e-05
323.55	0.001042	5.5e-05
324.53	0.001212	6.6e-05

System: 4-tert-butylphenyl phenyl ether; phases: Crystal
Fixed: Pressure, kPa = 101.325
Property: Molar heat capacity at constant pressure, J/K/mol (Crystal); method: Small (less than 1 g) adiabatic calorimetry
Temperature, K	Molar heat capacity at constant pressure, J/K/mol	uncertainty
5	0.6709778904	0.0440667016
10	4.90553848	0.16628944
15	13.88516824	0.33257888
20	23.94567936	0.58201304
25	33.83990104	0.74830248
30	43.06896496	0.8314472
35	51.38343696	0.58201304
40	58.70017232	0.66515776
45	65.51803936	0.4157236
50	72.08647224	0.49886832
60	85.30648272	0.58201304
70	97.2793224	0.49886832
80	106.59153104	0.58201304
90	115.9868844	0.58201304
100	125.71481664	0.58201304
110	135.19331472	0.66515776
120	144.42237864	0.66515776
130	153.31886368	0.74830248
140	161.96591456	0.74830248
150	170.61296544	0.74830248
160	179.01058216	0.74830248
170	187.40819888	0.8314472
180	195.72267088	0.8314472
190	204.1202876	0.8314472
200	212.51790432	0.8314472
210	221.08181048	0.91459192
220	229.81200608	0.91459192
230	238.70849112	0.99773664
240	247.7712656	0.99773664
250	257.49919784	0.99773664
260	267.47656424	0.99773664
270	277.20449648	1.08088136
280	287.09871816	1.08088136
290	296.4109268	1.16402608
298.15	302.97935968	1.16402608
300	304.47596464	1.16402608
310	313.20616024	1.16402608
320	321.68692168	1.2471708
327.84	328.25535456	1.2471708

System: 4-tert-butylphenyl phenyl ether; phases: Crystal
Fixed: Pressure, kPa = 101.325
Property: Molar enthalpy function {Hm(T)-Hm(0)}/T, J/K/mol (Crystal); method: Small (less than 1 g) adiabatic calorimetry
Temperature, K	Molar enthalpy function {Hm(T)-Hm(0)}/T, J/K/mol	uncertainty
5	0.1737724648	0.02078618
10	1.305372104	0.074830248
15	3.974317616	0.074830248
20	7.699201072	0.116402608
25	11.97283968	0.16628944
30	16.37950984	0.24943416
35	20.78618	0.16628944
40	25.10970544	0.24943416
45	29.18379672	0.24943416
50	33.17474328	0.24943416
60	40.7409128	0.33257888
70	47.97450344	0.33257888
80	54.79237048	0.33257888
90	61.02822448	0.49886832
100	67.01464432	0.49886832
110	72.75163	0.49886832
120	78.40547096	0.58201304
130	83.80987776	0.58201304
140	89.04799512	0.58201304
150	94.20296776	0.66515776
160	99.27479568	0.66515776
170	104.18033416	0.66515776
180	109.08587264	0.74830248
190	113.82512168	0.74830248
200	118.56437072	0.74830248
210	123.22047504	0.74830248
220	127.87657936	0.8314472
230	132.53268368	0.8314472
240	137.10564328	0.8314472
250	141.7617476	0.91459192
260	146.41785192	0.91459192
270	151.07395624	0.91459192
280	155.73006056	0.91459192
290	160.38616488	0.99773664
298.15	164.210822	0.99773664
300	165.12541392	0.99773664
310	169.69837352	0.99773664
320	174.35447784	1.08088136
327.84	177.9297008	1.08088136

System: 4-tert-butylphenyl phenyl ether; phases: Crystal
Fixed: Pressure, kPa = 101.325
Property: Molar entropy, J/K/mol (Crystal); method: Small (less than 1 g) adiabatic calorimetry
Temperature, K	Molar entropy, J/K/mol	uncertainty
5	0.2278165328	0.0324264408
10	1.74603912	0.16628944
15	5.4044068	0.16628944
20	10.72566888	0.33257888
25	17.29410176	0.4157236
30	24.27825824	0.4157236
35	31.51184888	0.4157236
40	38.91172896	0.4157236
45	46.22846432	0.49886832
50	53.46205496	0.58201304
60	67.7629468	0.66515776
70	81.81440448	0.8314472
80	95.45013856	0.99773664
90	108.58700432	1.08088136
100	121.30814648	1.16402608
110	133.69670976	1.2471708
120	145.83583888	1.41346024
130	157.72553384	1.41346024
140	169.44893936	1.57974968
150	180.92291072	1.6628944
160	192.23059264	1.82918384
170	203.2888404	1.82918384
180	214.26394344	1.99547328
190	225.07275704	2.078618
200	235.7152812	2.16176272
210	246.35780536	2.24490744
220	256.83404008	2.24490744
230	267.22713008	2.41119688
240	277.53707536	2.4943416
250	287.84702064	2.57748632
260	298.15696592	2.66063104
270	308.4669112	2.82692048
280	318.69371176	2.82692048
290	328.92051232	2.99320992
298.15	337.23498432	3.15949936
300	339.14731288	3.07635464
310	349.29096872	3.15949936
320	359.35147984	3.15949936
327.84	367.16708352	3.24264408

System: 4-tert-butylphenyl phenyl ether; phases: Liquid
Fixed: Pressure, kPa = 101.325
Property: Molar heat capacity at constant pressure, J/K/mol (Liquid); method: Small (less than 1 g) adiabatic calorimetry
Temperature, K	Molar heat capacity at constant pressure, J/K/mol	uncertainty
327.84	384.37804056	1.41346024
330	386.29036912	1.41346024
340	394.93742	1.49660496
350	403.251892	1.6628944
360	411.566364	1.6628944
370	414.8921528	1.6628944

System: 4-tert-butylphenyl phenyl ether; phases: Liquid
Fixed: Pressure, kPa = 101.325
Property: Molar enthalpy function {Hm(T)-Hm(0)}/T, J/K/mol (Liquid); method: Small (less than 1 g) adiabatic calorimetry
Temperature, K	Molar enthalpy function {Hm(T)-Hm(0)}/T, J/K/mol	uncertainty
327.84	245.02748984	1.49660496
330	245.94208176	1.49660496
340	250.18246248	1.49660496
350	254.4228432	1.49660496
360	258.66322392	1.57974968
370	262.82045992	1.57974968

System: 4-tert-butylphenyl phenyl ether; phases: Liquid
Fixed: Pressure, kPa = 101.325
Property: Molar entropy, J/K/mol (Liquid); method: Small (less than 1 g) adiabatic calorimetry
Temperature, K	Molar entropy, J/K/mol	uncertainty
327.84	434.26487256	3.82465712
330	436.75921416	3.82465712
340	448.48261968	3.99094656
350	460.03973576	3.99094656
360	471.51370712	4.157236
370	482.82138904	4.157236

System: 4-tert-butylphenyl phenyl ether; phases: Crystal
Fixed: Pressure, kPa = 101.325
Property: Molar heat capacity at constant pressure, J/K/mol (Crystal); method: Small (less than 1 g) adiabatic calorimetry
Temperature, K	Molar heat capacity at constant pressure, J/K/mol	uncertainty
7.93	2.627373152	0.12471708
8.1	2.718832344	0.12471708
8.28	3.03478228	0.141346024
8.43	3.059725696	0.141346024
8.59	3.267587496	0.149660496
8.75	3.458820352	0.157974968
8.9	3.674996624	0.16628944
9.05	3.724883456	0.16628944
9.2	3.957688672	0.174603912
9.49	4.3650978	0.191232856
9.63	4.5729596	0.199547328
9.78	4.880595064	0.216176272
9.92	5.096771336	0.224490744
10.28	5.48755152	0.241119688
10.56	5.961476424	0.257748632
10.85	6.418772384	0.274377576
11.15	6.884382816	0.299320992
12.02	8.297843056	0.357522296
12.32	8.89648504	0.4157236
12.61	9.39535336	0.4157236
12.91	9.9773664	0.4157236
13.21	10.47623472	0.4157236
13.51	11.05824776	0.49886832
13.81	11.6402608	0.49886832
14.11	12.22227384	0.49886832
14.41	12.72114216	0.49886832
14.71	13.3031552	0.58201304
15.02	13.96831296	0.58201304
15.32	14.550326	0.58201304
15.63	15.04919432	0.66515776
15.94	15.71435208	0.66515776
16.25	16.29636512	0.66515776
16.56	16.96152288	0.74830248
16.87	17.62668064	0.74830248
17.18	18.12554896	0.74830248
17.49	18.95699616	0.74830248
17.8	19.5390092	0.8314472
18.12	20.12102224	0.8314472
18.43	20.78618	0.8314472
18.74	21.28504832	0.91459192
19.06	21.95020608	0.91459192
19.37	22.69850856	0.91459192
19.68	23.36366632	0.99773664
20	23.94567936	0.99773664
20.57	25.051504136	0.424038072
21.33	26.589681456	0.440667016
22.1	28.069657472	0.465610432
22.86	29.591205848	0.482239376
23.63	31.09612528	0.507182792
24.4	32.67587496	0.532126208
25.18	34.247310168	0.548755152
25.95	35.827059848	0.565384096
26.73	37.024343816	0.58201304
27.51	38.421175112	0.598641984
28.29	39.876207712	0.6235854
134.32	157.22666552	0.8314472
135.56	158.22440216	0.8314472
136.81	159.30528352	0.8314472
138.05	160.30302016	0.91459192
139.3	161.46704624	0.91459192
140.55	162.46478288	0.91459192
141.8	163.3793748	0.91459192
143.04	164.54340088	0.91459192
144.3	165.79057168	0.91459192
145.55	166.7051636	0.91459192
146.83	167.9523344	0.91459192
148.09	169.11636048	0.91459192
149.35	169.94780768	0.91459192
150.61	171.11183376	0.91459192
151.87	172.27585984	0.91459192
153.13	173.43988592	0.91459192
154.39	174.43762256	0.91459192
155.66	175.26906976	0.91459192
29.07	41.306296896	0.640214344
29.85	42.769643968	0.656843288
30.63	44.282877872	0.66515776
31.42	45.64645128	0.681786704
32.21	47.001710216	0.70673012
33	48.298767848	0.723359064
33.79	49.620768896	0.739988008
34.58	50.926141	0.756616952
35.37	51.998707888	0.773245896
36.16	53.137790552	0.78987484
36.95	54.29350216	0.806503784
37.74	55.41595588	0.823132728
38.53	56.5384096	0.839761672
39.32	57.569404128	0.856390616
40.11	58.691857848	0.548755152
40.91	59.847569456	0.557069624
41.7	61.06979684	0.565384096
42.49	62.009332176	0.573698568
43.29	63.198301672	0.590327512
44.08	64.35401328	0.598641984
44.88	65.443209112	0.606956456
45.68	66.416002336	0.615270928
46.48	67.555085	0.6235854
47.28	68.561136112	0.631899872
48.08	69.67527536	0.640214344
48.87	70.697955416	0.648528816
49.67	71.737264416	0.66515776
50.47	72.801516832	0.673472232
51.27	73.716108752	0.681786704
52.07	74.772046696	0.690101176
52.87	75.82798464	0.698415648
53.67	77.233130408	0.70673012
56.08	80.209711384	0.731673536
56.88	81.224076968	0.739988008
57.68	82.238442552	0.74830248
58.49	83.22786472	0.74830248
59.3	84.30874608	0.74830248
60.1	85.30648272	0.74830248
60.91	86.30421936	0.74830248
61.71	87.301956	0.8314472
62.51	88.29969264	0.8314472
64.11	90.87717896	0.8314472
64.92	91.8749156	0.8314472
65.72	92.7063628	0.8314472
66.52	93.62095472	0.8314472
67.33	94.45240192	0.8314472
68.13	95.11755968	0.8314472
68.94	96.11529632	0.91459192
69.74	96.94674352	0.91459192
70.74	97.94448016	0.91459192
71.95	99.19165096	0.91459192
73.16	100.6051112	0.91459192
74.36	101.93542672	0.91459192
75.56	102.60058448	0.91459192
76.77	103.59832112	0.91459192
77.98	104.59605776	0.91459192
193.22	207.0303528	1.08088136
194.54	208.2775236	1.08088136
195.86	209.35840496	1.08088136
197.19	210.52243104	1.08088136
198.51	211.68645712	1.16402608
199.84	212.51790432	1.16402608
202.54	214.34708816	1.16402608
203.91	215.51111424	1.16402608
205.26	216.84142976	1.16402608
206.62	217.92231112	1.16402608
209.43	220.41665272	1.16402608
212.14	222.49527072	1.16402608
213.5	223.6592968	1.16402608
214.85	224.82332288	1.16402608
216.21	225.98734896	1.16402608
218.93	228.56483528	1.2471708
220.29	230.06144024	1.2471708
221.64	231.05917688	1.2471708
79.18	105.67693912	0.99773664
80.21	106.67467576	0.58201304
80.39	106.92410992	0.58201304
81.01	107.17354408	0.66515776
81.6	108.088136	0.66515776
81.81	108.17128072	0.66515776
82.62	108.83643848	0.66515776
82.8	109.25216208	0.66515776
83.42	109.58474096	0.66515776
84.01	110.24989872	0.66515776
85.83	111.8296484	0.66515776
86.63	112.6610956	0.66515776
87.43	113.32625336	0.66515776
88.23	114.15770056	0.66515776
89.03	115.07229248	0.66515776
89.84	115.90373968	0.66515776
90.64	116.65204216	0.66515776
91.44	117.48348936	0.66515776
92.24	118.23179184	0.66515776
93.05	119.14638376	0.66515776
93.85	119.7283968	0.66515776
94.65	120.47669928	0.66515776
95.46	121.14185704	0.66515776
96.26	121.97330424	0.66515776
97.06	122.72160672	0.66515776
97.87	123.22047504	0.66515776
98.67	124.05192224	0.66515776
99.47	125.1328036	0.74830248
100.28	125.79796136	0.74830248
101.28	127.12827688	0.74830248
102.48	128.12601352	0.74830248
103.69	129.20689488	0.74830248
104.89	130.45406568	0.74830248
106.1	131.45180232	0.74830248
107.32	132.78211784	0.74830248
108.53	133.8629992	0.74830248
109.74	134.86073584	0.74830248
110.96	136.10790664	0.74830248
112.17	137.188788	0.74830248
113.39	138.26966936	0.74830248
114.61	139.43369544	0.74830248
115.83	140.5145768	0.74830248
117.05	141.59545816	0.74830248
118.28	142.5931948	0.8314472
119.5	143.75722088	0.8314472
120.73	145.00439168	0.8314472
121.96	146.08527304	0.8314472
123.18	147.08300968	0.8314472
124.42	148.24703576	0.8314472
125.65	149.32791712	0.8314472
126.9	150.40879848	0.8314472
128.13	151.57282456	0.8314472
129.37	152.5705612	0.8314472
130.6	153.817732	0.8314472
131.84	154.89861336	0.8314472
133.08	155.89635	0.8314472
268.67	275.95732568	1.41346024
269.98	276.8719176	1.41346024
271.3	278.45166728	1.41346024
272.62	279.69883808	1.49660496
276.62	283.68978464	1.49660496
277.92	285.02010016	1.49660496
279.22	286.26727096	1.49660496
280.53	287.51444176	1.49660496
281.83	289.01104672	1.49660496
283.13	290.09192808	1.49660496
284.43	291.08966472	1.49660496
288.3	295.163756	1.49660496
289.59	296.49407152	1.57974968
290.87	297.32551872	1.57974968
292.15	298.24011064	1.57974968
293.43	298.9052684	1.57974968
294.71	299.81986032	1.57974968
299.77	304.06024104	1.57974968
156.93	176.43309584	0.91459192
158.2	177.59712192	0.99773664
159.47	178.42856912	0.99773664
160.74	179.34316104	0.99773664
162.02	180.67347656	0.99773664
163.29	181.92064736	0.99773664
164.57	182.918384	0.99773664
165.84	184.08241008	0.99773664
167.17	185.32958088	0.99773664
168.45	186.16102808	0.99773664
169.73	187.15876472	0.99773664
171.02	188.23964608	0.99773664
172.31	189.40367216	0.99773664
173.6	190.48455352	0.99773664
174.89	191.56543488	0.99773664
176.18	192.8957504	0.99773664
177.47	193.64405288	0.99773664
178.77	194.80807896	1.08088136
180.07	195.97210504	1.08088136
181.37	197.0529864	1.08088136
183.98	199.21474912	1.08088136
185.29	200.46191992	1.08088136
186.59	201.625946	1.08088136
187.96	202.70682736	1.08088136
189.28	203.53827456	1.08088136
190.59	204.61915592	1.08088136
191.9	205.94947144	1.08088136
222.99	232.05691352	1.2471708
224.34	233.38722904	1.2471708
225.69	234.71754456	1.2471708
227.04	235.7152812	1.2471708
228.4	237.04559672	1.2471708
229.74	238.29276752	1.2471708
231.18	240.12195136	1.2471708
236.59	245.11063456	1.2471708
237.93	246.02522648	1.33031552
239.28	247.27239728	1.33031552
240.62	248.43642336	1.33031552
241.97	249.68359416	1.33031552
243.31	250.76447552	1.33031552
244.65	252.17793576	1.33031552
248.66	256.25202704	1.33031552
250	257.66548728	1.33031552
251.33	258.91265808	1.33031552
252.75	260.49240776	1.33031552
254.09	261.40699968	1.33031552
255.42	262.82045992	1.41346024
256.75	264.06763072	1.41346024
260.74	268.39115616	1.41346024
262.06	269.55518224	1.41346024
263.38	270.80235304	1.41346024
264.71	272.04952384	1.41346024
266.03	273.37983936	1.41346024
267.35	274.54386544	1.41346024
301.26	305.47370128	1.57974968
302.92	307.05345096	1.57974968
304.58	308.8826348	1.57974968
306.25	310.29609504	1.57974968
309.6	312.87358136	1.57974968
311.29	315.61735712	1.6628944
314.7	320.9386192	1.6628944
316.41	322.18579	1.6628944
318.13	325.67786824	1.6628944
319.86	330.16768312	1.74603912
321.61	330.99913032	1.74603912

System: 4-tert-butylphenyl phenyl ether; phases: Liquid
Fixed: Pressure, kPa = 101.325
Property: Molar heat capacity at constant pressure, J/K/mol (Liquid); method: Small (less than 1 g) adiabatic calorimetry
Temperature, K	Molar heat capacity at constant pressure, J/K/mol	uncertainty
334.3	391.36219704	1.99547328
340.65	394.5216964	1.99547328
347.01	398.92836656	2.078618
351.17	404.99793112	2.078618
353.12	407.24283856	2.078618
355.08	408.2405752	2.078618
357.06	409.82032488	2.078618
359.07	410.65177208	2.078618
361.08	411.566364	2.078618
363.12	412.64724536	2.078618
365.18	413.39554784	2.078618
367.25	414.0607056	2.078618
369.35	414.8921528	2.078618
371.48	415.80674472	2.16176272

Reaction: -1 4-tert-butylphenyl phenyl ether + 16 carbon dioxide + 9 water + -20 oxygen
Property: Specific internal energy of reaction at constant volume, J/g
-38421.6
