Measured thermophysical data. A volumetric and acoustic study of pseudo-binary mixtures of (water + 1,3-propanediol + 3-butoxypropan-1-amine) from T = (283.15 to 303.15) K
Source: J. Chem. Thermodyn., 2019, 10.1016/j.jct.2018.08.033
Compound 1: 3-butoxy-1-propanamine, C7H17NO, InChI=1S/C7H17NO/c1-2-3-6-9-7-4-5-8/h2-8H2,1H3, purity 99%
Compound 2: propan-1,3-diol, C3H8O2, InChI=1S/C3H8O2/c4-2-1-3-5/h4-5H,1-3H2, purity 98%
Compound 3: water, H2O, InChI=1S/H2O/h1H2, purity 99.9%

System: propan-1,3-diol; phases: Liquid
Fixed: Pressure, kPa = 101.325
Property: Speed of sound, m/s (Liquid); method: Single path-length method
Temperature, K	Speed of sound, m/s	uncertainty
283.15	1658.66	2.44
288.15	1647.22	2.44
293.15	1635.89	2.44
298.15	1624.57	2.44
303.15	1613.35	2.44

System: propan-1,3-diol; phases: Liquid
Fixed: Pressure, kPa = 100
Property: Mass density, kg/m3 (Liquid); method: Vibrating tube method
Temperature, K	Mass density, kg/m3	uncertainty
283.15	1059.63	1.38
288.15	1056.47	1.37
293.15	1053.3	1.36
298.15	1050.14	1.36
303.15	1046.99	1.35

System: water + propan-1,3-diol + 3-butoxy-1-propanamine; phases: Liquid
Fixed: Pressure, kPa = 100
Property: Mass density, kg/m3 (Liquid); method: Vibrating tube method
Temperature, K	Mole fraction of water	Mole fraction of propan-1,3-diol	Mass density, kg/m3	uncertainty
283.15	0.9938	0	996.79	1
283.15	0.8942	0.1003	1023.43	1.07
283.15	0.7951	0.2	1039.69	1.14
283.15	0.6992	0.2964	1048.62	1.2
283.15	0.6056	0.3907	1053.67	1.3
283.15	0.5076	0.4893	1056.68	1.37
283.15	0.417	0.581	1058.23	1.32
283.15	0.318	0.68	1059.09	1.27
283.15	0.223	0.775	1059.42	1.26
283.15	0.135	0.864	1059.51	1.28
283.15	0	1	1059.63	1.38
288.15	0.9938	0	995.99	1
288.15	0.8942	0.1003	1021.51	1.07
288.15	0.7951	0.2	1037.12	1.13
288.15	0.6992	0.2964	1045.76	1.19
288.15	0.6056	0.3907	1050.67	1.3
288.15	0.5076	0.4893	1053.61	1.37
288.15	0.417	0.581	1055.12	1.32
288.15	0.318	0.68	1055.97	1.27
288.15	0.223	0.775	1056.29	1.25
288.15	0.135	0.864	1056.36	1.27
288.15	0	1	1056.47	1.37
293.15	0.9938	0	994.84	1
293.15	0.8942	0.1003	1019.45	1.07
293.15	0.7951	0.2	1034.47	1.13
293.15	0.6992	0.2964	1042.84	1.19
293.15	0.6056	0.3907	1047.64	1.29
293.15	0.5076	0.4893	1050.51	1.37
293.15	0.417	0.581	1052	1.32
293.15	0.318	0.68	1052.83	1.26
293.15	0.223	0.775	1053.15	1.25
293.15	0.135	0.864	1053.22	1.27
293.15	0	1	1053.3	1.36
298.15	0.9938	0	993.43	0.99
298.15	0.8942	0.1003	1017.26	1.06
298.15	0.7951	0.2	1031.75	1.12
298.15	0.6992	0.2964	1039.89	1.18
298.15	0.6056	0.3907	1044.56	1.28
298.15	0.5076	0.4893	1047.39	1.36
298.15	0.417	0.581	1048.85	1.31
298.15	0.318	0.68	1049.68	1.26
298.15	0.223	0.775	1049.99	1.24
298.15	0.135	0.864	1050.07	1.26
298.15	0	1	1050.14	1.36
303.15	0.9938	0	991.89	0.99
303.15	0.8942	0.1003	1014.93	1.06
303.15	0.7951	0.2	1028.94	1.12
303.15	0.6992	0.2964	1036.86	1.18
303.15	0.6056	0.3907	1041.45	1.28
303.15	0.5076	0.4893	1044.22	1.36
303.15	0.417	0.581	1045.67	1.31
303.15	0.318	0.68	1046.5	1.25
303.15	0.223	0.775	1046.82	1.24
303.15	0.135	0.864	1046.9	1.26
303.15	0	1	1046.99	1.35

System: water + propan-1,3-diol + 3-butoxy-1-propanamine; phases: Liquid
Fixed: Pressure, kPa = 100
Fixed: Frequency, MHz = 3
Property: Speed of sound, m/s (Liquid); method: Single path-length method
Temperature, K	Mole fraction of water	Mole fraction of propan-1,3-diol	Speed of sound, m/s	uncertainty
283.15	0.9938	0	46.9	1.4
283.15	0.8942	0.1003	208.3	1.8
283.15	0.7951	0.2	274.2	1.6
283.15	0.6992	0.2964	293.4	1.6
283.15	0.6056	0.3907	293.3	1.6
283.15	0.5076	0.4893	283.4	2.1
283.15	0.417	0.581	270.4	2.1
283.15	0.318	0.68	254.9	2.1
283.15	0.223	0.775	240.5	2.2
283.15	0.135	0.864	227.9	2.3
283.15	0	1	211.1	2.4
288.15	0.9938	0	43.5	1.4
288.15	0.8942	0.1003	189.5	1.8
288.15	0.7951	0.2	249.5	1.6
288.15	0.6992	0.2964	266.1	1.6
288.15	0.6056	0.3907	264.7	1.6
288.15	0.5076	0.4893	254.1	2.1
288.15	0.417	0.581	240.7	2.1
288.15	0.318	0.68	225.1	2.1
288.15	0.223	0.775	210.4	2.2
288.15	0.135	0.864	197.8	2.3
288.15	0	1	181	2.4
293.15	0.9938	0	39.8	1.4
293.15	0.8942	0.1003	172.4	1.7
293.15	0.7951	0.2	226.8	1.6
293.15	0.6992	0.2964	240.9	1.6
293.15	0.6056	0.3907	238.1	1.6
293.15	0.5076	0.4893	226.9	2.1
293.15	0.417	0.581	213.3	2.1
293.15	0.318	0.68	197.5	2.1
293.15	0.223	0.775	182.8	2.2
293.15	0.135	0.864	170.2	2.3
293.15	0	1	153.2	2.4
298.15	0.9938	0	35.7	1.4
298.15	0.8942	0.1003	156.7	1.7
298.15	0.7951	0.2	205.6	1.5
298.15	0.6992	0.2964	217.4	1.6
298.15	0.6056	0.3907	213.4	1.7
298.15	0.5076	0.4893	201.7	2.2
298.15	0.417	0.581	187.8	2.1
298.15	0.318	0.68	172	2.1
298.15	0.223	0.775	157.3	2.2
298.15	0.135	0.864	144.6	2.3
298.15	0	1	127.6	2.4
303.15	0.9938	0	32.3	1.4
303.15	0.8942	0.1003	142.3	1.6
303.15	0.7951	0.2	186	1.5
303.15	0.6992	0.2964	194.5	1.6
303.15	0.6056	0.3907	190.5	1.7
303.15	0.5076	0.4893	178.3	2.1
303.15	0.417	0.581	164.2	2.1
303.15	0.318	0.68	148.4	2.1
303.15	0.223	0.775	133.6	2.2
303.15	0.135	0.864	121	2.3
303.15	0	1	103.9	2.4

System: water + 3-butoxy-1-propanamine; phases: Liquid
Fixed: Mole fraction of water = 0.9938
Fixed: Pressure, kPa = 100
Property: Mass density, kg/m3 (Liquid); method: Vibrating tube method
Temperature, K	Mass density, kg/m3	uncertainty
283.15	996.79	1
288.15	995.99	1
293.15	994.84	1
298.15	993.43	0.99
303.15	991.89	0.99

System: water + 3-butoxy-1-propanamine; phases: Liquid
Fixed: Mole fraction of water = 0.9938
Fixed: Pressure, kPa = 100
Fixed: Frequency, MHz = 3
Property: Speed of sound, m/s (Liquid); method: Single path-length method
Temperature, K	Speed of sound, m/s	uncertainty
283.15	46.9	1.4
288.15	43.5	1.4
293.15	39.8	1.4
298.15	35.7	1.4
303.15	32.3	1.4
