Measured thermophysical data. Enthalpy of mixing of liquid Ni-Ti-Zr alloys at 1873 K
Source: J. Chem. Thermodyn., 2017, 10.1016/j.jct.2016.11.008
Compound 1: nickel, Ni, InChI=1S/Ni, purity 99.99%
Compound 2: titanium, Ti, InChI=1S/Ti, purity 99.94%
Compound 3: zirconium, Zr, InChI=1S/Zr, purity 99.96%

System: nickel + titanium + zirconium; phases: Liquid
Fixed: Solvent: Mole fraction of nickel = 0.8005
Fixed: Temperature, K = 1873
Fixed: Pressure, kPa = 152
Property: Partial molar enthalpy, kJ/mol of zirconium (Liquid); method: Isoperibol calorimeter
Mole fraction of zirconium	Partial molar enthalpy, kJ/mol of zirconium	uncertainty
0.005	-199	32.1
0.016	-176	28.5
0.026	-153.3	24.8
0.037	-140.9	22.6
0.047	-140.9	22.6
0.058	-130.9	20.9
0.069	-142.5	22.8
0.079	-129.2	20.7
0.089	-131.2	21
0.1	-121.5	19.4
0.111	-132.1	21.2
0.121	-107.1	17.4
0.132	-97.6	15.6
0.143	-102.7	16.5
0.154	-89.1	14.3
0.164	-89.7	14.4
0.174	-98.2	15.7
0.185	-95.2	15.4
0.196	-72.8	11.8
0.206	-73.6	11.8
0.217	-74.7	12
0.227	-68.6	11.1
0.237	-58.7	9.5
0.247	-57.3	9.2
0.257	-51.3	8.4
0.267	-41.2	6.6
0.277	-47.3	7.6
0.286	-45	7.2
0.295	-45.6	7.3
0.304	-39.7	6.4
0.314	-42.2	6.8
0.323	-37.8	6.1
0.332	-39.2	6.3
0.341	-36.1	5.9
0.348	-31	5.1
0.356	-27.1	4.4
0.364	-37.2	6
0.372	-29.6	4.8
0.38	-33.3	5.3
0.388	-27.2	4.4
0.397	-26.9	4.3
0.405	-32	5.3

System: nickel + titanium + zirconium; phases: Liquid
Fixed: Solvent: Mole fraction of nickel = 0.8004
Fixed: Temperature, K = 1873
Fixed: Pressure, kPa = 152
Property: Partial molar enthalpy, kJ/mol of titanium (Liquid); method: Isoperibol calorimeter
Mole fraction of titanium	Partial molar enthalpy, kJ/mol of titanium	uncertainty
0.006	-121.7	19.5
0.019	-128.1	20.5
0.032	-116.2	18.6
0.045	-116.4	18.6
0.058	-106.8	17.2
0.072	-96.1	15.4
0.085	-93.8	15
0.098	-97.8	15.7
0.111	-81.7	13.2
0.124	-74	11.9
0.137	-64.6	10.3
0.149	-71.7	11.5
0.162	-59.1	9.5
0.174	-59.7	9.6
0.187	-50.2	8.1
0.2	-44.9	7.2
0.213	-45.2	7.2
0.225	-45.4	7.3
0.238	-34.3	5.5
0.25	-38.2	6.1
0.263	-30.8	4.9
0.275	-33.1	5.3
0.287	-27.3	4.4
0.299	-27.1	4.4
0.311	-15.6	2.7
0.323	-14.3	2.3
0.335	-19.7	3.2
0.346	-20.5	3.3
0.358	-15	2.4
0.369	-16.8	2.8
0.38	-4.7	1.2
0.391	-6.5	1.2
0.401	1.1	0.5
0.412	-1.2	0.2
0.422	-0.2	0.2
0.433	-3	1.1
0.443	-11.1	1.9
0.452	-8.2	1.4
0.462	-6.6	1.1
0.471	-6.7	1.1
0.481	-5.3	0.9
