Measured thermophysical data. Measurements and predictions of density and carbon dioxide solubility  in binary mixtures of ethanol and n-decane
Source: J. Chem. Thermodyn., 2013, 10.1016/j.jct.2012.11.017
Compound 1: carbon dioxide, CO2, InChI=1S/CO2/c2-1-3, purity 99.998%
Compound 2: ethanol, C2H6O, InChI=1S/C2H6O/c1-2-3/h3H,2H2,1H3, purity 99.7%
Compound 3: decane, C10H22, InChI=1S/C10H22/c1-3-5-7-9-10-8-6-4-2/h3-10H2,1-2H3, purity 99%

System: ethanol + decane; phases: Liquid
Property: Mass density, kg/m3 (Liquid); method: Vibrating tube method
Mole fraction of ethanol	Temperature, K	Pressure, kPa	Mass density, kg/m3	uncertainty
0.25	303.2	100	726.4	0.3
0.25	303.2	1000	727.2	0.3
0.25	303.2	2000	728	0.3
0.25	303.2	3000	728.8	0.3
0.25	303.2	4000	729.6	0.3
0.25	303.2	5000	730.4	0.4
0.25	303.2	6000	731.3	0.4
0.25	303.2	7000	732.1	0.4
0.25	303.2	8000	732.9	0.4
0.25	303.2	9000	733.7	0.4
0.25	303.2	10000	734.5	0.4
0.25	323.2	100	709.6	0.3
0.25	323.2	1000	710.3	0.3
0.25	323.2	2000	711.2	0.3
0.25	323.2	3000	712.2	0.3
0.25	323.2	4000	713.1	0.4
0.25	323.2	5000	714	0.4
0.25	323.2	6000	714.9	0.4
0.25	323.2	7000	715.8	0.4
0.25	323.2	8000	716.8	0.4
0.25	323.2	9000	717.7	0.4
0.25	323.2	10000	718.6	0.4
0.5	303.2	100	732.8	0.3
0.5	303.2	1000	733.7	0.3
0.5	303.2	2000	734.5	0.3
0.5	303.2	3000	735.4	0.3
0.5	303.2	4000	736.3	0.3
0.5	303.2	5000	737.1	0.3
0.5	303.2	6000	738	0.4
0.5	303.2	7000	738.8	0.4
0.5	303.2	8000	739.7	0.4
0.5	303.2	9000	740.5	0.4
0.5	303.2	10000	741.3	0.4
0.5	323.2	100	715.8	0.3
0.5	323.2	1000	716.7	0.3
0.5	323.2	2000	717.7	0.3
0.5	323.2	3000	718.6	0.3
0.5	323.2	4000	719.6	0.3
0.5	323.2	5000	720.5	0.3
0.5	323.2	6000	721.5	0.3
0.5	323.2	7000	722.4	0.3
0.5	323.2	8000	723.3	0.4
0.5	323.2	9000	724.2	0.4
0.5	323.2	10000	725.2	0.4
0.75	303.2	100	746.3	0.3
0.75	303.2	1000	747.2	0.3
0.75	303.2	2000	748.1	0.3
0.75	303.2	3000	749	0.3
0.75	303.2	4000	749.8	0.3
0.75	303.2	5000	750.7	0.3
0.75	303.2	6000	751.6	0.3
0.75	303.2	7000	752.4	0.3
0.75	303.2	8000	753.3	0.3
0.75	303.2	9000	754.1	0.3
0.75	303.2	10000	755	0.3
0.75	323.2	100	728.5	0.3
0.75	323.2	1000	729.5	0.3
0.75	323.2	2000	730.6	0.3
0.75	323.2	3000	731.5	0.3
0.75	323.2	4000	732.6	0.3
0.75	323.2	5000	733.5	0.3
0.75	323.2	6000	734.5	0.3
0.75	323.2	7000	735.4	0.3
0.75	323.2	8000	736.4	0.3
0.75	323.2	9000	737.4	0.4
0.75	323.2	10000	738.4	0.4

System: ethanol + decane + carbon dioxide; phases: Liquid
Fixed: Temperature, K = 303.2
Property: Mass density, kg/m3 (Liquid); method: Other PVT measurement
Solvent: Mole fraction of ethanol	Pressure, kPa	Mole fraction of carbon dioxide	Mass density, kg/m3	uncertainty
0.25	960	0.103	732	2
0.25	1940	0.214	739	4
0.25	2940	0.329	747	3
0.25	3940	0.452	757	2
0.25	4870	0.591	771	2
0.25	5840	0.779	791	2
0.5	1050	0.105	740	10
0.5	2190	0.227	749	3
0.5	3030	0.326	757	2
0.5	4030	0.431	767	2
0.5	5010	0.584	782	2
0.5	5920	0.779	798	2
0.75	1010	0.088	755	8
0.75	2020	0.18	764	2
0.75	3000	0.269	773	2
0.75	3970	0.376	784	2
0.75	4900	0.509	796	2
0.75	6110	0.713	809	2

System: ethanol + decane + carbon dioxide; phases: Liquid
Fixed: Temperature, K = 323.2
Property: Mass density, kg/m3 (Liquid); method: Other PVT measurement
Solvent: Mole fraction of ethanol	Pressure, kPa	Mole fraction of carbon dioxide	Mass density, kg/m3	uncertainty
0.25	1140	0.104	714	2
0.25	2100	0.192	719	2
0.25	3050	0.278	724	2
0.25	3990	0.362	729	2
0.25	5010	0.457	735	2
0.25	5930	0.539	741	2
0.5	1110	0.089	721	20
0.5	2030	0.166	726	5
0.5	3020	0.252	732	4
0.5	3980	0.33	737	2
0.5	4950	0.423	743	2
0.5	5910	0.512	749	2
0.75	1070	0.071	735	2
0.75	2110	0.146	741	2
0.75	2990	0.212	746	2
0.75	3790	0.284	752	2
0.75	5010	0.375	758	2
0.75	5950	0.457	764	2
