Measured thermophysical data. Partial molar volumes of L-alanine, DL-serine, DL-threonine, L-histidine, glycine, and glycylglycine in water, NaCl, and DMSO aqueous solutions at T = 298.15 K
Source: J. Chem. Thermodyn., 2006, 10.1016/j.jct.2005.03.015
Compound 1: (.+-.)-serine, C3H7NO3, InChI=1S/C3H7NO3/c4-2(1-5)3(6)7/h2,5H,1,4H2,(H,6,7), purity 99%
Compound 2: DL-threonine, C4H9NO3, InChI=1S/C4H9NO3/c1-2(6)3(5)4(7)8/h2-3,6H,5H2,1H3,(H,7,8)/t2-,3+/m1/s1, purity 99%
Compound 3: L-histidine, C6H9N3O2, InChI=1S/C6H9N3O2/c7-5(6(10)11)1-4-2-8-3-9-4/h2-3,5H,1,7H2,(H,8,9)(H,10,11)/t5-/m0/s1, purity 99%
Compound 4: 2-aminoacetic acid, C2H5NO2, InChI=1S/C2H5NO2/c3-1-2(4)5/h1,3H2,(H,4,5), purity 99%
Compound 5: glycylglycine, C4H8N2O3, InChI=1S/C4H8N2O3/c5-1-3(7)6-2-4(8)9/h1-2,5H2,(H,6,7)(H,8,9), purity 99%
Compound 6: water, H2O, InChI=1S/H2O/h1H2
Compound 7: sodium chloride, ClNa, InChI=1S/ClH.Na/h1H;/q;+1/p-1
Compound 8: dimethyl sulfoxide, C2H6OS, InChI=1S/C2H6OS/c1-4(2)3/h1-2H3
Compound 9: (S)-2-aminopropanoic acid, C3H7NO2, InChI=1S/C3H7NO2/c1-2(4)3(5)6/h2H,4H2,1H3,(H,5,6)/t2-/m0/s1, purity 99%

System: (S)-2-aminopropanoic acid + water; phases: Liquid
Fixed: Pressure, kPa = 101
Fixed: Temperature, K = 298.15
Property: Mass density, kg/m3 (Liquid); method: VIBTUB::UFactor:8
Molality, mol/kg of (S)-2-aminopropanoic acid	Mass density, kg/m3	uncertainty
0.1065	1000.07	0.48
0.1518	1001.34	0.48
0.2006	1002.71	0.49
0.2568	1004.27	0.49
0.3059	1005.52	0.5
0.359	1007.03	0.5
0.4066	1008.35	0.5
0.4555	1009.54	0.51

System: 2-aminoacetic acid + water; phases: Liquid
Fixed: Pressure, kPa = 101
Fixed: Temperature, K = 298.15
Property: Mass density, kg/m3 (Liquid); method: VIBTUB::UFactor:8
Molality, mol/kg of 2-aminoacetic acid	Mass density, kg/m3	uncertainty
0.0988	1000.19	0.48
0.1509	1001.82	0.49
0.2033	1003.44	0.49
0.2463	1004.78	0.49
0.2996	1006.4	0.5
0.3513	1007.96	0.5
0.4037	1009.55	0.51
0.4497	1010.94	0.51

System: glycylglycine + water; phases: Liquid
Fixed: Pressure, kPa = 101
Fixed: Temperature, K = 298.15
Property: Mass density, kg/m3 (Liquid); method: VIBTUB::UFactor:8
Molality, mol/kg of glycylglycine	Mass density, kg/m3	uncertainty
0.02426	998.39	0.49
0.05026	999.84	0.48
0.07538	1001.22	0.49
0.0999	1002.54	0.49
0.1253	1003.95	0.49
0.1482	1005.2	0.5
0.1746	1006.63	0.5
0.1974	1007.84	0.51

System: (.+-.)-serine + water; phases: Liquid
Fixed: Pressure, kPa = 101
Fixed: Temperature, K = 298.15
Property: Mass density, kg/m3 (Liquid); method: VIBTUB::UFactor:8
Molality, mol/kg of (.+-.)-serine	Mass density, kg/m3	uncertainty
0.02628	998.22	0.49
0.04948	999.26	0.48
0.07419	1000.35	0.48
0.1008	1001.52	0.49
0.1252	1002.6	0.49
0.1509	1003.72	0.49
0.1753	1004.76	0.5
0.2009	1005.86	0.5

System: DL-threonine + water; phases: Liquid
Fixed: Pressure, kPa = 101
Fixed: Temperature, K = 298.15
Property: Mass density, kg/m3 (Liquid); method: VIBTUB::UFactor:8
Molality, mol/kg of DL-threonine	Mass density, kg/m3	uncertainty
0.0246	998.08	0.49
0.0494	999.12	0.48
0.07575	1000.22	0.48
0.1002	1001.23	0.48
0.1256	1002.28	0.49
0.1499	1003.28	0.49
0.1751	1004.31	0.49
0.2001	1005.33	0.5

System: L-histidine + water; phases: Liquid
Fixed: Pressure, kPa = 101
Fixed: Temperature, K = 298.15
Property: Mass density, kg/m3 (Liquid); method: VIBTUB:UFactor:8
Molality, mol/kg of L-histidine	Mass density, kg/m3	uncertainty
0.02223	998.29	0.49
0.04995	999.84	0.48
0.07431	1001.19	0.49
0.099	1002.56	0.49
0.1232	1003.87	0.49
0.1428	1004.92	0.5
0.1834	1007.13	0.5
0.2013	1008.08	0.51

System: (S)-2-aminopropanoic acid + sodium chloride + water; phases: Liquid
Fixed: Pressure, kPa = 101
Fixed: Temperature, K = 298.15
Property: Mass density, kg/m3 (Liquid); method: VIBTUB:UFactor:8
Solvent: Amount concentration (molarity), mol/dm3 of sodium chloride	Molality, mol/kg of (S)-2-aminopropanoic acid	Mass density, kg/m3	uncertainty
0	0.1065	1000.07	0.48
0	0.1518	1001.34	0.48
0	0.2006	1002.71	0.49
0	0.2568	1004.27	0.49
0	0.3059	1005.52	0.5
0	0.359	1007.03	0.5
0	0.4066	1008.35	0.5
0	0.4555	1009.54	0.51
0.5	0.149	1021.29	0.55
0.5	0.2026	1022.67	0.55
0.5	0.2538	1024	0.55
0.5	0.3015	1025.18	0.56
0.5	0.3497	1026.44	0.56
0.5	0.3988	1027.63	0.57
0.5	0.4496	1028.88	0.57
0.5	0.5012	1030.04	0.57
1	0.1521	1040.93	0.61
1	0.2003	1042.12	0.62
1	0.2562	1043.48	0.62
1	0.3074	1044.72	0.62
1	0.3507	1045.78	0.63
1	0.4015	1047.1	0.63
1	0.4523	1048.21	0.64
1	0.5009	1049.35	0.64
1.5	0.1558	1060.02	0.68
1.5	0.209	1061.26	0.68
1.5	0.2481	1062.17	0.69
1.5	0.3063	1063.51	0.69
1.5	0.351	1064.53	0.69
1.5	0.4078	1065.81	0.7
1.5	0.4537	1066.83	0.7
1.5	0.4983	1067.81	0.71
2	0.1502	1078.84	0.75
2	0.2021	1079.49	0.75
2	0.2489	1080.52	0.75
2	0.2994	1081.62	0.76
2	0.3494	1082.69	0.76
2	0.404	1084.17	0.77
2	0.4562	1085.27	0.77
2	0.5028	1086.25	0.77
2.5	0.1504	1096.91	0.81
2.5	0.2029	1097.99	0.82
2.5	0.2518	1098.42	0.82
2.5	0.3032	1099.42	0.82
2.5	0.3557	1100.5	0.83
2.5	0.4025	1101.41	0.83
2.5	0.4533	1102.42	0.83
2.5	0.4958	1103.25	0.84
3	0.1501	1115.08	0.88
3	0.2025	1116.08	0.88
3	0.2484	1116.96	0.89
3	0.3006	1117.93	0.89
3	0.3484	1118.77	0.89
3	0.4004	1119.76	0.9
3	0.438	1120.47	0.9
3	0.5053	1121.61	0.9
3.5	0.02311	1130.89	0.94
3.5	0.0497	1131.38	0.94
3.5	0.07533	1131.83	0.94
3.5	0.1019	1132.32	0.95
3.5	0.1252	1132.71	0.95
3.5	0.1508	1133.18	0.95
3.5	0.1722	1133.59	0.95
3.5	0.2008	1134.05	0.95

System: 2-aminoacetic acid + sodium chloride + water; phases: Liquid
Fixed: Pressure, kPa = 101
Fixed: Temperature, K = 298.15
Property: Mass density, kg/m3 (Liquid); method: VIBTUB:UFactor:8
Solvent: Amount concentration (molarity), mol/dm3 of sodium chloride	Molality, mol/kg of 2-aminoacetic acid	Mass density, kg/m3	uncertainty
0	0.0988	1000.19	0.48
0	0.1509	1001.82	0.49
0	0.2033	1003.44	0.49
0	0.2463	1004.78	0.49
0	0.2996	1006.4	0.5
0	0.3513	1007.96	0.5
0	0.4037	1009.55	0.51
0	0.4497	1010.94	0.51
0.5	0.1558	1022.05	0.55
0.5	0.2054	1023.52	0.55
0.5	0.2495	1024.78	0.56
0.5	0.3079	1026.53	0.56
0.5	0.3531	1027.84	0.57
0.5	0.4001	1029.21	0.57
0.5	0.4574	1030.86	0.58
0.5	0.5027	1032.16	0.58
1	0.1482	1041.23	0.61
1	0.2018	1042.79	0.62
1	0.2537	1044.27	0.62
1	0.3063	1045.77	0.63
1	0.354	1047.08	0.63
1	0.4044	1048.48	0.64
1	0.438	1049.38	0.64
1	0.5021	1051.17	0.65
1.5	0.1503	1060.41	0.68
1.5	0.2013	1061.82	0.68
1.5	0.2517	1063.49	0.69
1.5	0.3008	1064.53	0.69
1.5	0.3449	1065.75	0.7
1.5	0.4003	1067.18	0.7
1.5	0.4469	1068.72	0.71
1.5	0.5111	1070.12	0.71
2	0.1477	1079.22	0.75
2	0.199	1080.57	0.75
2	0.2551	1081.95	0.76
2	0.3076	1083.29	0.76
2	0.3469	1084.34	0.77
2	0.4007	1085.78	0.77
2	0.4555	1087.49	0.78
2	0.5041	1088.68	0.78
2.5	0.05782	1095.07	0.81
2.5	0.09973	1096.16	0.81
2.5	0.16	1097.7	0.82
2.5	0.2038	1098.83	0.82
2.5	0.2477	1099.95	0.82
2.5	0.2957	1101.16	0.83
2.5	0.3418	1102.29	0.83
2.5	0.4146	1104.07	0.84
3	0.1002	1114.44	0.88
3	0.1493	1115.65	0.88
3	0.2014	1116.92	0.89
3	0.2482	1118.05	0.89
3	0.3011	1119.31	0.9
3	0.352	1120.54	0.9
3	0.4005	1121.69	0.91
3	0.4498	1122.84	0.91

System: glycylglycine + sodium chloride + water; phases: Liquid
Fixed: Pressure, kPa = 101
Fixed: Temperature, K = 298.15
Property: Mass density, kg/m3 (Liquid); method: VIBTUB:UFactor:8
Solvent: Amount concentration (molarity), mol/dm3 of sodium chloride	Molality, mol/kg of glycylglycine	Mass density, kg/m3	uncertainty
0	0.02426	998.39	0.49
0	0.05026	999.84	0.48
0	0.07538	1001.22	0.49
0	0.0999	1002.54	0.49
0	0.1253	1003.95	0.49
0	0.1482	1005.2	0.5
0	0.1746	1006.63	0.5
0	0.1974	1007.84	0.51
0.5	0.0279	1018.79	0.54
0.5	0.05022	1019.97	0.54
0.5	0.0726	1021.15	0.55
0.5	0.1007	1022.63	0.55
0.5	0.1265	1023.97	0.56
0.5	0.146	1024.99	0.56
0.5	0.1742	1026.45	0.56
0.5	0.1969	1027.62	0.57
1	0.02514	1038.31	0.6
1	0.04785	1039.45	0.61
1	0.07506	1040.87	0.61
1	0.1003	1042.16	0.62
1	0.1266	1043.5	0.62
1	0.1526	1044.81	0.63
1	0.1772	1046.05	0.63
1	0.1977	1047.12	0.63
1.5	0.02561	1057.55	0.67
1.5	0.05009	1058.79	0.68
1.5	0.0758	1060.04	0.68
1.5	0.1004	1061.26	0.68
1.5	0.1273	1062.41	0.69
1.5	0.1496	1063.67	0.69
1.5	0.1752	1064.89	0.7
1.5	0.2011	1066.13	0.7
2	0.02523	1076.27	0.74
2	0.04903	1077.44	0.74
2	0.07564	1078.75	0.75
2	0.1014	1079.96	0.75
2	0.1267	1081.15	0.76
2	0.1473	1083.39	0.79
2	0.152	1082.35	0.79
2	0.202	1084.68	0.77
2.5	0.02467	1094.87	0.81
2.5	0.05007	1096.04	0.81
2.5	0.07445	1097.16	0.81
2.5	0.1001	1098.33	0.82
2.5	0.1261	1099.51	0.82
2.5	0.1497	1100.56	0.83
2.5	0.1751	1101.99	0.83
2.5	0.2061	1103.07	0.84
3	0.02531	1113.07	0.87
3	0.04962	1113.15	0.87
3	0.0758	1115.3	0.88
3	0.1004	1116.38	0.89
3	0.1333	1117.82	0.89
3	0.1497	1118.55	0.89
3	0.1756	1119.67	0.9
3	0.1996	1120.7	0.9

System: (.+-.)-serine + sodium chloride + water; phases: Liquid
Fixed: Pressure, kPa = 101
Fixed: Temperature, K = 298.15
Property: Mass density, kg/m3 (Liquid); method: VIBTUB:UFactor:8
Solvent: Amount concentration (molarity), mol/dm3 of sodium chloride	Molality, mol/kg of (.+-.)-serine	Mass density, kg/m3	uncertainty
0	0.02628	998.22	0.49
0	0.04948	999.26	0.48
0	0.07419	1000.35	0.48
0	0.1008	1001.52	0.49
0	0.1252	1002.6	0.49
0	0.1509	1003.72	0.49
0	0.1753	1004.76	0.5
0	0.2009	1005.86	0.5
0.5	0.02462	1018.39	0.54
0.5	0.0493	1019.44	0.54
0.5	0.07447	1020.51	0.54
0.5	0.0995	1021.59	0.55
0.5	0.1245	1022.62	0.55
0.5	0.1552	1023.91	0.56
0.5	0.1739	1024.69	0.56
0.5	0.1976	1025.65	0.56
1	0.02704	1038.09	0.6
1	0.05066	1039.07	0.61
1	0.07504	1040.06	0.61
1	0.09795	1041.01	0.61
1	0.1252	1042.11	0.62
1	0.1497	1043.1	0.62
1	0.1793	1044.08	0.62
1	0.1995	1045.11	0.63
1.5	0.02562	1057.23	0.67
1.5	0.04823	1058.15	0.67
1.5	0.07932	1059.41	0.68
1.5	0.1004	1060.26	0.68
1.5	0.1257	1061.26	0.68
1.5	0.1515	1062.28	0.69
1.5	0.1762	1063.25	0.69
1.5	0.2013	1064.24	0.69
2	0.02558	1076.21	0.74
2	0.04917	1077.11	0.74
2	0.07548	1078.11	0.74
2	0.09861	1078.99	0.75
2	0.1237	1079.92	0.75
2	0.1496	1080.87	0.75
2	0.1742	1081.77	0.76
2	0.1991	1082.68	0.76
2.5	0.02546	1094.66	0.8
2.5	0.05103	1095.61	0.81
2.5	0.07575	1096.52	0.81
2.5	0.1013	1097.46	0.81
2.5	0.126	1098.36	0.82
2.5	0.1527	1099.34	0.82
2.5	0.1768	1100.21	0.82
2.5	0.2015	1101.09	0.83
3	0.02496	1112.47	0.87
3	0.0502	1113.38	0.87
3	0.07504	1114.26	0.88
3	0.1002	1115.14	0.88
3	0.1264	1116.07	0.88
3	0.1508	1116.92	0.89
3	0.1768	1117.85	0.89
3	0.2015	1118.69	0.89

System: DL-threonine + sodium chloride + water; phases: Liquid
Fixed: Pressure, kPa = 101
Fixed: Temperature, K = 298.15
Property: Mass density, kg/m3 (Liquid); method: VIBTUB:UFactor:8
Solvent: Amount concentration (molarity), mol/dm3 of sodium chloride	Molality, mol/kg of DL-threonine	Mass density, kg/m3	uncertainty
0	0.0246	998.08	0.49
0	0.0494	999.12	0.48
0	0.07575	1000.22	0.48
0	0.1002	1001.23	0.48
0	0.1256	1002.28	0.49
0	0.1499	1003.28	0.49
0	0.1751	1004.31	0.49
0	0.2001	1005.33	0.5
0.5	0.02483	1018.29	0.54
0.5	0.05182	1019.39	0.54
0.5	0.0743	1020.32	0.54
0.5	0.1001	1021.33	0.55
0.5	0.125	1022.32	0.55
0.5	0.1487	1023.26	0.55
0.5	0.1766	1024.35	0.56
0.5	0.1996	1025.25	0.56
1	0.02642	1038.02	0.6
1	0.05126	1038.97	0.61
1	0.07426	1039.86	0.61
1	0.09838	1040.77	0.61
1	0.1381	1042.27	0.62
1	0.1497	1042.7	0.62
1	0.1747	1043.65	0.62
1	0.2011	1044.52	0.62
1.5	0.02437	1057.15	0.67
1.5	0.05216	1058.18	0.67
1.5	0.07273	1058.94	0.67
1.5	0.0997	1059.92	0.68
1.5	0.1264	1060.88	0.68
1.5	0.1492	1061.71	0.68
1.5	0.1727	1062.55	0.69
1.5	0.2	1063.53	0.69
2	0.0263	1076.01	0.74
2	0.05066	1076.87	0.74
2	0.07546	1077.74	0.74
2	0.09907	1078.57	0.75
2	0.1314	1079.68	0.75
2	0.1508	1080.34	0.75
2	0.1771	1081.24	0.76
2	0.2016	1082.07	0.76
2.5	0.02516	1092.06	0.79
2.5	0.04982	1092.87	0.8
2.5	0.07554	1093.73	0.8
2.5	0.09969	1094.52	0.8
2.5	0.1244	1095.35	0.81
2.5	0.1504	1096.2	0.81
2.5	0.1781	1097.07	0.81
2.5	0.2018	1098.22	0.82
3	0.02489	1112.41	0.87
3	0.04576	1113.4	0.87
3	0.0759	1114.36	0.88
3	0.1007	1115.13	0.88
3	0.1249	1115.9	0.88
3	0.1504	1116.67	0.89
3	0.1744	1117.41	0.89
3	0.2033	1118.29	0.89

System: L-histidine + sodium chloride + water; phases: Liquid
Fixed: Pressure, kPa = 101
Fixed: Temperature, K = 298.15
Property: Mass density, kg/m3 (Liquid); method: VIBTUB:UFactor:8
Solvent: Amount concentration (molarity), mol/dm3 of sodium chloride	Molality, mol/kg of L-histidine	Mass density, kg/m3	uncertainty
0	0.02223	998.29	0.49
0	0.04995	999.84	0.48
0	0.07431	1001.19	0.49
0	0.099	1002.56	0.49
0	0.1232	1003.87	0.49
0	0.1428	1004.92	0.5
0	0.1834	1007.13	0.5
0	0.2013	1008.08	0.51
0.5	0.02557	1018.64	0.54
0.5	0.04994	1019.95	0.54
0.5	0.07683	1021.38	0.55
0.5	0.1018	1022.7	0.55
0.5	0.1269	1024.02	0.56
0.5	0.1514	1025.3	0.56
0.5	0.1805	1026.81	0.57
0.5	0.2047	1028.06	0.57
1	0.02566	1038.28	0.6
1	0.05025	1039.56	0.61
1	0.07573	1040.86	0.61
1	0.1013	1042.16	0.62
1	0.1272	1043.47	0.62
1	0.1499	1044.61	0.63
1	0.1759	1045.91	0.63
1	0.2001	1047.11	0.63
1.5	0.02484	1057.44	0.67
1.5	0.05105	1058.74	0.67
1.5	0.0762	1059.97	0.68
1.5	0.1002	1061.15	0.68
1.5	0.1258	1062.39	0.69
1.5	0.1512	1063.62	0.69
1.5	0.1758	1064.8	0.7
1.5	0.2004	1065.97	0.7
2	0.02578	1076.68	0.74
2	0.05021	1077.86	0.74
2	0.07402	1079.01	0.75
2	0.09469	1079.98	0.75
2	0.125	1081.41	0.76
2	0.1515	1082.29	0.76
2	0.1749	1083.35	0.76
2	0.2001	1084.52	0.77
2.5	0.02406	1095.36	0.81
2.5	0.05744	1096.87	0.81
2.5	0.07651	1097.73	0.82
2.5	0.1029	1098.78	0.82
2.5	0.1254	1099.84	0.82
2.5	0.1574	1101.21	0.83
2.5	0.1754	1101.96	0.83
2.5	0.1986	1102.93	0.84
3	0.02443	1113.42	0.87
3	0.05009	1114.54	0.88
3	0.07603	1115.67	0.88
3	0.1005	1116.73	0.89
3	0.1252	1117.79	0.89
3	0.1499	1118.82	0.89
3	0.1745	1119.86	0.9
3	0.2	1120.93	0.9

System: (S)-2-aminopropanoic acid + dimethyl sulfoxide + water; phases: Liquid
Fixed: Pressure, kPa = 101
Fixed: Temperature, K = 298.15
Property: Mass density, kg/m3 (Liquid); method: VIBTUB:UFactor:8
Solvent: Amount concentration (molarity), mol/dm3 of dimethyl sulfoxide	Molality, mol/kg of (S)-2-aminopropanoic acid	Mass density, kg/m3	uncertainty
0.3	0.04985	1001.32	0.48
0.3	0.1067	1002.94	0.49
0.3	0.151	1004.18	0.49
0.3	0.2004	1005.55	0.5
0.3	0.2507	1006.96	0.5
0.3	0.3004	1008.33	0.51
0.3	0.3521	1009.73	0.51
0.3	0.4007	1011.04	0.51
0.6	0.04982	1004.18	0.49
0.6	0.1002	1005.61	0.5
0.6	0.1519	1007.05	0.5
0.6	0.1996	1008.39	0.51
0.6	0.2513	1009.83	0.51
0.6	0.2998	1011.15	0.51
0.6	0.3496	1012.49	0.52
0.6	0.3981	1013.78	0.52
0.9	0.02903	1006.59	0.5
0.9	0.0516	1007.23	0.5
0.9	0.07584	1007.92	0.5
0.9	0.1022	1008.65	0.51
0.9	0.125	1009.29	0.51
0.9	0.1555	1010.14	0.51
0.9	0.1762	1010.71	0.51
0.9	0.1945	1011.22	0.51
1.2	0.02429	1009.27	0.51
1.2	0.05099	1010.03	0.51
1.2	0.07422	1010.68	0.51
1.2	0.09962	1011.39	0.51
1.2	0.1259	1012.14	0.52
1.2	0.1512	1012.84	0.52
1.2	0.1759	1013.52	0.52
1.2	0.1992	1014.17	0.52
1.5	0.02544	1012.52	0.52
1.5	0.05025	1013.22	0.52
1.5	0.07525	1013.94	0.52
1.5	0.1014	1014.67	0.52
1.5	0.1279	1015.41	0.53
1.5	0.1529	1016.09	0.53
1.5	0.1775	1016.77	0.53
1.5	0.2039	1017.5	0.53
1.8	0.02505	1015.77	0.53
1.8	0.04975	1016.46	0.53
1.8	0.07563	1017.18	0.53
1.8	0.1004	1017.87	0.54
1.8	0.1266	1018.6	0.54
1.8	0.1518	1019.29	0.54
1.8	0.1764	1019.98	0.54
1.8	0.2019	1020.68	0.54
2.1	0.02548	1018.89	0.54
2.1	0.05021	1019.6	0.54
2.1	0.07452	1020.28	0.54
2.1	0.09926	1020.97	0.55
2.1	0.1254	1021.68	0.55
2.1	0.1518	1022.41	0.55
2.1	0.1752	1023.05	0.55
2.1	0.1995	1023.73	0.55

System: 2-aminoacetic acid + dimethyl sulfoxide + water; phases: Liquid
Fixed: Pressure, kPa = 101
Fixed: Temperature, K = 298.15
Property: Mass density, kg/m3 (Liquid); method: VIBTUB:UFactor:8
Solvent: Amount concentration (molarity), mol/dm3 of dimethyl sulfoxide	Molality, mol/kg of 2-aminoacetic acid	Mass density, kg/m3	uncertainty
0.3	0.052	1001.55	0.48
0.3	0.1072	1003.29	0.49
0.3	0.1509	1004.66	0.49
0.3	0.2061	1006.37	0.5
0.3	0.2488	1007.68	0.5
0.3	0.3003	1009.26	0.51
0.3	0.3547	1010.93	0.51
0.3	0.4034	1012.37	0.52
0.6	0.04823	1004.28	0.49
0.6	0.1092	1006.19	0.5
0.6	0.1492	1007.43	0.5
0.6	0.2039	1009.12	0.51
0.6	0.2518	1010.59	0.51
0.6	0.3035	1012.15	0.52
0.6	0.3509	1013.59	0.52
0.6	0.4035	1015.19	0.53
0.9	0.02368	1006.51	0.5
0.9	0.05674	1007.54	0.5
0.9	0.07447	1008.1	0.5
0.9	0.1035	1009	0.51
0.9	0.1281	1009.76	0.51
0.9	0.1564	1010.64	0.51
0.9	0.1783	1011.3	0.51
0.9	0.19	1011.66	0.52
1.2	0.05025	1010.31	0.51
1.2	0.1021	1011.91	0.52
1.2	0.1528	1013.47	0.52
1.2	0.2007	1014.96	0.53
1.2	0.2519	1016.51	0.53
1.2	0.2793	1017.32	0.53
1.2	0.3497	1019.46	0.54
1.2	0.3999	1020.97	0.55
1.5	0.02522	1012.62	0.52
1.5	0.05135	1013.44	0.52
1.5	0.07544	1014.19	0.52
1.5	0.1008	1014.96	0.53
1.5	0.125	1015.7	0.53
1.5	0.1503	1016.49	0.53
1.5	0.178	1017.33	0.53
1.5	0.201	1018.03	0.54
1.8	0.02589	1015.75	0.53
1.8	0.05071	1016.53	0.53
1.8	0.0757	1017.32	0.53
1.8	0.1	1018.08	0.54
1.8	0.1254	1018.87	0.54
1.8	0.1515	1019.68	0.54
1.8	0.1768	1020.46	0.54
1.8	0.1999	1021.12	0.55
2.1	0.02574	1018.96	0.54
2.1	0.05244	1019.63	0.54
2.1	0.07553	1020.51	0.54
2.1	0.1001	1021.09	0.55
2.1	0.1254	1021.85	0.55
2.1	0.1492	1022.69	0.55
2.1	0.1768	1023.55	0.55
2.1	0.2018	1024.29	0.56
2.4	0.02491	1022	0.55
2.4	0.05007	1022.78	0.55
2.4	0.0742	1023.53	0.55
2.4	0.1001	1024.3	0.56
2.4	0.1255	1025.08	0.56
2.4	0.1503	1025.83	0.56
2.4	0.1751	1026.57	0.56
2.4	0.2016	1027.39	0.57

System: dimethyl sulfoxide + glycylglycine + water; phases: Liquid
Fixed: Pressure, kPa = 101
Fixed: Temperature, K = 298.15
Property: Mass density, kg/m3 (Liquid); method: VIBTUB:UFactor:8
Solvent: Amount concentration (molarity), mol/dm3 of dimethyl sulfoxide	Molality, mol/kg of glycylglycine	Mass density, kg/m3	uncertainty
0.3	0.02469	1001.31	0.49
0.3	0.05036	1002.73	0.49
0.3	0.07643	1004.15	0.49
0.3	0.09962	1005.42	0.5
0.3	0.1245	1006.77	0.5
0.3	0.1508	1008.19	0.51
0.3	0.1729	1009.36	0.51
0.3	0.2034	1010.99	0.52
0.6	0.02451	1004.16	0.49
0.6	0.04951	1005.54	0.5
0.6	0.074	1006.88	0.5
0.6	0.09892	1008.24	0.51
0.6	0.1245	1009.63	0.51
0.6	0.1476	1010.87	0.51
0.6	0.1709	1012.13	0.52
0.6	0.1987	1013.62	0.52
0.9	0.02427	1007.14	0.5
0.9	0.05081	1008.6	0.51
0.9	0.07518	1009.94	0.51
0.9	0.09964	1011.27	0.52
0.9	0.1226	1012.5	0.52
0.9	0.15	1013.97	0.52
0.9	0.1751	1015.32	0.53
0.9	0.2205	1017.74	0.54
1.2	0.02699	1010.25	0.51
1.2	0.04953	1011.49	0.52
1.2	0.07544	1012.9	0.52
1.2	0.09889	1014.17	0.53
1.2	0.1236	1015.51	0.53
1.2	0.1498	1016.91	0.53
1.2	0.1753	1018.26	0.54
1.2	0.2003	1019.59	0.54
1.5	0.02441	1013.17	0.52
1.5	0.0507	1014.61	0.53
1.5	0.07519	1015.94	0.53
1.5	0.1004	1017.3	0.54
1.5	0.1249	1018.62	0.54
1.5	0.1506	1020	0.54
1.5	0.1744	1021.27	0.55
1.5	0.1996	1022.59	0.55
1.8	0.02612	1016.49	0.53
1.8	0.04961	1017.77	0.54
1.8	0.0745	1019.12	0.54
1.8	0.09899	1020.44	0.55
1.8	0.1246	1021.81	0.55
1.8	0.1467	1022.98	0.55
1.8	0.1768	1024.57	0.56
1.8	0.2009	1025.84	0.56
2.1	0.02489	1019.42	0.54
2.1	0.04956	1020.76	0.55
2.1	0.07423	1022.09	0.55
2.1	0.09809	1023.38	0.55
2.1	0.1253	1024.83	0.56
2.1	0.1486	1026.06	0.56
2.1	0.1737	1027.36	0.57
2.1	0.1992	1028.67	0.57
2.4	0.02421	1022.31	0.55
2.4	0.04998	1023.73	0.56
2.4	0.07426	1025.04	0.56
2.4	0.09914	1026.39	0.56
2.4	0.125	1027.77	0.57
2.4	0.1496	1029.02	0.57
2.4	0.1748	1030.39	0.58
2.4	0.1994	1031.67	0.58

System: dimethyl sulfoxide + (.+-.)-serine + water; phases: Liquid
Fixed: Pressure, kPa = 101
Fixed: Temperature, K = 298.15
Property: Mass density, kg/m3 (Liquid); method: VIBTUB:UFactor:8
Solvent: Amount concentration (molarity), mol/dm3 of dimethyl sulfoxide	Molality, mol/kg of (.+-.)-serine	Mass density, kg/m3	uncertainty
0.3	0.02598	1001.06	0.48
0.3	0.05155	1002.2	0.49
0.3	0.07513	1003.23	0.49
0.3	0.1006	1004.35	0.49
0.3	0.1265	1005.47	0.5
0.3	0.1503	1006.51	0.5
0.3	0.1759	1007.62	0.5
0.3	0.2009	1008.68	0.51
0.6	0.02506	1003.86	0.49
0.6	0.04984	1004.95	0.5
0.6	0.07527	1006.08	0.5
0.6	0.1008	1007.16	0.5
0.6	0.1259	1008.23	0.51
0.6	0.1551	1009.32	0.51
0.6	0.1756	1010.37	0.51
0.6	0.1991	1011.38	0.52
0.9	0.02026	1006.66	0.5
0.9	0.05041	1007.99	0.51
0.9	0.075	1009.07	0.51
0.9	0.1001	1010.17	0.51
0.9	0.1242	1011.22	0.52
0.9	0.1514	1012.4	0.52
0.9	0.1745	1013.39	0.52
0.9	0.2014	1014.55	0.53
1.2	0.02576	1009.96	0.51
1.2	0.05234	1011.12	0.51
1.2	0.0747	1012.1	0.52
1.2	0.1043	1013.36	0.52
1.2	0.126	1014.32	0.52
1.2	0.1529	1015.46	0.53
1.2	0.1767	1016.49	0.53
1.2	0.2021	1017.57	0.54
1.5	0.02669	1013	0.52
1.5	0.05185	1014.11	0.52
1.5	0.07661	1015.18	0.53
1.5	0.1004	1016.21	0.53
1.5	0.1248	1017.25	0.53
1.5	0.1547	1018.54	0.54
1.5	0.1765	1019.46	0.54
1.5	0.2015	1020.51	0.54

System: dimethyl sulfoxide + DL-threonine + water; phases: Liquid
Fixed: Pressure, kPa = 101
Fixed: Temperature, K = 298.15
Property: Mass density, kg/m3 (Liquid); method: VIBTUB:UFactor:8
Solvent: Amount concentration (molarity), mol/dm3 of dimethyl sulfoxide	Molality, mol/kg of DL-threonine	Mass density, kg/m3	uncertainty
0.3	0.02432	1000.92	0.48
0.3	0.05119	1002.05	0.49
0.3	0.07525	1003.05	0.49
0.3	0.0994	1004.05	0.49
0.3	0.1239	1005.06	0.5
0.3	0.1506	1006.16	0.5
0.3	0.1753	1007.17	0.5
0.3	0.2	1008.18	0.51
0.6	0.02145	1003.51	0.49
0.6	0.05075	1004.73	0.5
0.6	0.07549	1005.77	0.5
0.6	0.09933	1006.76	0.5
0.6	0.1243	1007.79	0.5
0.6	0.151	1008.89	0.51
0.6	0.176	1009.92	0.51
0.6	0.2014	1010.96	0.51
0.9	0.02549	1006.87	0.5
0.9	0.05004	1007.88	0.5
0.9	0.07537	1008.93	0.51
0.9	0.09962	1009.92	0.51
0.9	0.1257	1011.01	0.51
0.9	0.1483	1011.96	0.52
0.9	0.1744	1013.02	0.52
0.9	0.2018	1014.11	0.52
1.2	0.02459	1009.86	0.51
1.2	0.05178	1010.99	0.51
1.2	0.07545	1011.98	0.52
1.2	0.0996	1012.97	0.52
1.2	0.1257	1014.04	0.52
1.2	0.1508	1015.07	0.53
1.2	0.176	1016.1	0.53
1.2	0.2006	1017.1	0.53
1.5	0.02657	1012.93	0.52
1.5	0.04999	1013.94	0.52
1.5	0.07528	1014.95	0.53
1.5	0.09946	1015.96	0.53
1.5	0.1261	1017.05	0.53
1.5	0.1502	1018.03	0.54
1.5	0.1755	1019.06	0.54
1.5	0.2033	1020.19	0.54
1.8	0.02583	1016.02	0.53
1.8	0.05046	1017.05	0.53
1.8	0.07562	1018.11	0.54
1.8	0.1009	1019.15	0.54
1.8	0.125	1020.13	0.54
1.8	0.1489	1021.1	0.55
1.8	0.1742	1022.12	0.55
1.8	0.197	1023.01	0.55
2.1	0.02575	1019.25	0.54
2.1	0.0499	1020.26	0.54
2.1	0.07697	1021.36	0.55
2.1	0.1	1022.31	0.55
2.1	0.1254	1023.34	0.55
2.1	0.1508	1024.38	0.56
2.1	0.1751	1025.37	0.56
2.1	0.2	1026.37	0.56
2.4	0.0251	1022.04	0.55
2.4	0.04821	1023.01	0.55
2.4	0.07689	1024.2	0.56
2.4	0.1	1025.15	0.56
2.4	0.1261	1026.21	0.56
2.4	0.1492	1027.14	0.57
2.4	0.1739	1028.14	0.57
2.4	0.2017	1029.26	0.57

System: dimethyl sulfoxide + L-histidine + water; phases: Liquid
Fixed: Pressure, kPa = 101
Fixed: Temperature, K = 298.15
Property: Mass density, kg/m3 (Liquid); method: VIBTUB:UFactor:8
Solvent: Amount concentration (molarity), mol/dm3 of dimethyl sulfoxide	Molality, mol/kg of L-histidine	Mass density, kg/m3	uncertainty
0.3	0.02515	1001.31	0.49
0.3	0.04999	1002.69	0.49
0.3	0.073	1003.96	0.49
0.3	0.1002	1005.46	0.5
0.3	0.125	1006.82	0.5
0.3	0.1496	1008.16	0.51
0.3	0.1749	1009.53	0.51
0.3	0.197	1010.71	0.51
0.6	0.02464	1004.17	0.5
0.6	0.04873	1005.52	0.5
0.6	0.0771	1007.09	0.5
0.6	0.09968	1008.33	0.51
0.6	0.1233	1009.64	0.51
0.6	0.1499	1011.08	0.52
0.6	0.177	1012.55	0.52
0.6	0.2005	1013.91	0.52
0.9	0.02444	1006.78	0.5
0.9	0.05054	1008.62	0.51
0.9	0.07403	1009.92	0.51
0.9	0.1003	1011.36	0.52
0.9	0.1275	1012.84	0.52
0.9	0.1504	1014.09	0.53
0.9	0.1745	1015.39	0.53
0.9	0.1987	1016.68	0.53
1.2	0.02492	1009.93	0.51
1.2	0.05059	1011.39	0.52
1.2	0.07435	1012.7	0.52
1.2	0.1001	1014.11	0.53
1.2	0.1256	1015.5	0.53
1.2	0.1437	1016.49	0.53
1.2	0.184	1018.65	0.54
1.2	0.2004	1019.51	0.54
1.5	0.0257	1013.22	0.52
1.5	0.04955	1014.54	0.53
1.5	0.0751	1015.94	0.53
1.5	0.09927	1017.26	0.54
1.5	0.125	1018.66	0.54
1.5	0.1501	1019.99	0.54
1.5	0.1754	1021.34	0.55
