Measured thermophysical data. Investigating the solubility of chlorophenols in hydrophobic ionic liquids
Source: J. Chem. Thermodyn., 2019, 10.1016/j.jct.2019.03.026
Compound 1: 3-chlorophenol, C6H5ClO, InChI=1S/C6H5ClO/c7-5-2-1-3-6(8)4-5/h1-4,8H, purity 99%
Compound 2: 2,5-dichlorophenol, C6H4Cl2O, InChI=1S/C6H4Cl2O/c7-4-1-2-5(8)6(9)3-4/h1-3,9H, purity 98%
Compound 3: 2,4,6-trichlorophenol, C6H3Cl3O, InChI=1S/C6H3Cl3O/c7-3-1-4(8)6(10)5(9)2-3/h1-2,10H, purity 98%
Compound 4: pentachlorophenol, C6HCl5O, InChI=1S/C6HCl5O/c7-1-2(8)4(10)6(12)5(11)3(1)9/h12H, purity 97%
Compound 5: 1-butyl-3-methylimidazolium bis(trifluoromethylsulfonyl)imide, C10H15F6N3O4S2, InChI=1S/C8H15N2.C2F6NO4S2/c1-3-4-5-10-7-6-9(2)8-10;3-1(4,5)14(10,11)9-15(12,13)2(6,7)8/h6-8H,3-5H2,1-2H3;/q+1;-1, purity 99%
Compound 6: tributylmethylammonium bis((trifluoromethyl)sulfonyl)imide, C15H30F6N2O4S2, InChI=1S/C13H30N.C2F6NO4S2/c1-5-8-11-14(4,12-9-6-2)13-10-7-3;3-1(4,5)14(10,11)9-15(12,13)2(6,7)8/h5-13H2,1-4H3;/q+1;-1, purity 99%
Compound 7: 1-butyl-1-methylpiperidinium bis(trifluoromethanesulfonyl)imide, C12H22F6N2O4S2, InChI=1S/C10H22N.C2F6NO4S2/c1-3-4-8-11(2)9-6-5-7-10-11;3-1(4,5)14(10,11)9-15(12,13)2(6,7)8/h3-10H2,1-2H3;/q+1;-1, purity 99%
Compound 8: diethylmethylsulfonium bis[(trifluoromethyl)sulfonyl]imide, C7H13F6NO4S3, InChI=1S/C5H13S.C2F6NO4S2/c1-4-6(3)5-2;3-1(4,5)14(10,11)9-15(12,13)2(6,7)8/h4-5H2,1-3H3;/q+1;-1, purity 99%
Compound 9: 1-butyl-3-methylpyridinium 1,1,1-trifluoro-N-[(trifluoromethyl)sulfonyl]methanesulfonamide, C12H16F6N2O4S2, InChI=1S/C10H16N.C2F6NO4S2/c1-3-4-7-11-8-5-6-10(2)9-11;3-1(4,5)14(10,11)9-15(12,13)2(6,7)8/h5-6,8-9H,3-4,7H2,1-2H3;/q+1;-1, purity 99%
Compound 10: 1-ethyl-3-methylpyridinium bis((trifluoromethyl)sulfonyl)amide, C10H12F6N2O4S2, InChI=1S/C8H12N.C2F6NO4S2/c1-3-9-6-4-5-8(2)7-9;3-1(4,5)14(10,11)9-15(12,13)2(6,7)8/h4-7H,3H2,1-2H3;/q+1;-1, purity 99%
Compound 11: water, H2O, InChI=1S/H2O/h1H2, purity 99.9%

System: 2,5-dichlorophenol + 1-butyl-3-methylimidazolium bis(trifluoromethylsulfonyl)imide; phases: Liquid, Crystal
Fixed: Pressure, kPa = 101.2
Property: Mass fraction of 2,5-dichlorophenol (Liquid); method: Chromatography
Temperature, K	Mass fraction of 2,5-dichlorophenol	uncertainty
298.15	0.3	0.061
308.15	0.382	0.077
318.15	0.446	0.089

System: 2,5-dichlorophenol + tributylmethylammonium bis((trifluoromethyl)sulfonyl)imide; phases: Liquid, Crystal
Fixed: Pressure, kPa = 101.2
Property: Mass fraction of 2,5-dichlorophenol (Liquid); method: Chromatography
Temperature, K	Mass fraction of 2,5-dichlorophenol	uncertainty
298.15	0.264	0.053
308.15	0.348	0.07
318.15	0.447	0.09

System: 2,5-dichlorophenol + 1-butyl-1-methylpiperidinium bis(trifluoromethanesulfonyl)imide; phases: Liquid, Crystal
Fixed: Pressure, kPa = 101.2
Property: Mass fraction of 2,5-dichlorophenol (Liquid); method: Chromatography
Temperature, K	Mass fraction of 2,5-dichlorophenol	uncertainty
298.15	0.278	0.056
308.15	0.37	0.075
318.15	0.468	0.094

System: 2,5-dichlorophenol + diethylmethylsulfonium bis[(trifluoromethyl)sulfonyl]imide; phases: Liquid, Crystal
Fixed: Pressure, kPa = 101.2
Property: Mass fraction of 2,5-dichlorophenol (Liquid); method: Chromatography
Temperature, K	Mass fraction of 2,5-dichlorophenol	uncertainty
298.15	0.237	0.048
308.15	0.318	0.064
318.15	0.427	0.086

System: 2,5-dichlorophenol + 1-butyl-3-methylpyridinium 1,1,1-trifluoro-N-[(trifluoromethyl)sulfonyl]methanesulfonamide; phases: Liquid, Crystal
Fixed: Pressure, kPa = 101.2
Property: Mass fraction of 2,5-dichlorophenol (Liquid); method: Chromatography
Temperature, K	Mass fraction of 2,5-dichlorophenol	uncertainty
298.15	0.311	0.063
308.15	0.372	0.075
318.15	0.466	0.094

System: 2,5-dichlorophenol + 1-ethyl-3-methylpyridinium bis((trifluoromethyl)sulfonyl)amide; phases: Liquid, Crystal
Fixed: Pressure, kPa = 101.2
Property: Mass fraction of 2,5-dichlorophenol (Liquid); method: Chromatography
Temperature, K	Mass fraction of 2,5-dichlorophenol	uncertainty
298.15	0.303	0.061
308.15	0.373	0.075
318.15	0.502	0.1

System: 2,4,6-trichlorophenol + 1-butyl-3-methylimidazolium bis(trifluoromethylsulfonyl)imide; phases: Liquid, Crystal
Fixed: Pressure, kPa = 101.2
Property: Mass fraction of 2,4,6-trichlorophenol (Liquid); method: Chromatography
Temperature, K	Mass fraction of 2,4,6-trichlorophenol	uncertainty
298.15	0.135	0.028
308.15	0.206	0.042
318.15	0.273	0.055

System: 2,4,6-trichlorophenol + tributylmethylammonium bis((trifluoromethyl)sulfonyl)imide; phases: Liquid, Crystal
Fixed: Pressure, kPa = 101.2
Property: Mass fraction of 2,4,6-trichlorophenol (Liquid); method: Chromatography
Temperature, K	Mass fraction of 2,4,6-trichlorophenol	uncertainty
298.15	0.056	0.012
308.15	0.103	0.025
318.15	0.337	0.071

System: 2,4,6-trichlorophenol + 1-butyl-1-methylpiperidinium bis(trifluoromethanesulfonyl)imide; phases: Liquid, Crystal
Fixed: Pressure, kPa = 101.2
Property: Mass fraction of 2,4,6-trichlorophenol (Liquid); method: Chromatography
Temperature, K	Mass fraction of 2,4,6-trichlorophenol	uncertainty
298.15	0.092	0.019
308.15	0.15	0.032
318.15	0.291	0.06

System: 2,4,6-trichlorophenol + diethylmethylsulfonium bis[(trifluoromethyl)sulfonyl]imide; phases: Liquid, Crystal
Fixed: Pressure, kPa = 101.2
Property: Mass fraction of 2,4,6-trichlorophenol (Liquid); method: Chromatography
Temperature, K	Mass fraction of 2,4,6-trichlorophenol	uncertainty
298.15	0.089	0.018
308.15	0.095	0.02
318.15	0.197	0.041

System: 2,4,6-trichlorophenol + 1-butyl-3-methylpyridinium 1,1,1-trifluoro-N-[(trifluoromethyl)sulfonyl]methanesulfonamide; phases: Liquid, Crystal
Fixed: Pressure, kPa = 101.2
Property: Mass fraction of 2,4,6-trichlorophenol (Liquid); method: Chromatography
Temperature, K	Mass fraction of 2,4,6-trichlorophenol	uncertainty
298.15	0.05	0.017
308.15	0.19	0.041
318.15	0.371	0.076

System: 2,4,6-trichlorophenol + 1-ethyl-3-methylpyridinium bis((trifluoromethyl)sulfonyl)amide; phases: Liquid, Crystal
Fixed: Pressure, kPa = 101.2
Property: Mass fraction of 2,4,6-trichlorophenol (Liquid); method: Chromatography
Temperature, K	Mass fraction of 2,4,6-trichlorophenol	uncertainty
298.15	0.04	0.015
308.15	0.163	0.036
318.15	0.333	0.069

System: pentachlorophenol + 1-butyl-3-methylimidazolium bis(trifluoromethylsulfonyl)imide; phases: Liquid, Crystal
Fixed: Pressure, kPa = 101.2
Property: Mass fraction of pentachlorophenol (Liquid); method: Chromatography
Temperature, K	Mass fraction of pentachlorophenol	uncertainty
298.15	0.018	0.004
308.15	0.025	0.005
318.15	0.033	0.007
328.15	0.044	0.009

System: pentachlorophenol + tributylmethylammonium bis((trifluoromethyl)sulfonyl)imide; phases: Liquid, Crystal
Fixed: Pressure, kPa = 101.2
Property: Mass fraction of pentachlorophenol (Liquid); method: Chromatography
Temperature, K	Mass fraction of pentachlorophenol	uncertainty
298.15	0.006	0.001
308.15	0.012	0.003
318.15	0.033	0.007
328.15	0.061	0.013

System: pentachlorophenol + 1-butyl-1-methylpiperidinium bis(trifluoromethanesulfonyl)imide; phases: Liquid, Crystal
Fixed: Pressure, kPa = 101.2
Property: Mass fraction of pentachlorophenol (Liquid); method: Chromatography
Temperature, K	Mass fraction of pentachlorophenol	uncertainty
298.15	0.01	0.002
308.15	0.022	0.005
318.15	0.035	0.007
328.15	0.057	0.012

System: pentachlorophenol + diethylmethylsulfonium bis[(trifluoromethyl)sulfonyl]imide; phases: Liquid, Crystal
Fixed: Pressure, kPa = 101.2
Property: Mass fraction of pentachlorophenol (Liquid); method: Chromatography
Temperature, K	Mass fraction of pentachlorophenol	uncertainty
298.15	0.009	0.002
308.15	0.011	0.002
318.15	0.015	0.003
328.15	0.019	0.004

System: pentachlorophenol + 1-butyl-3-methylpyridinium 1,1,1-trifluoro-N-[(trifluoromethyl)sulfonyl]methanesulfonamide; phases: Liquid, Crystal
Fixed: Pressure, kPa = 101.2
Property: Mass fraction of pentachlorophenol (Liquid); method: Chromatography
Temperature, K	Mass fraction of pentachlorophenol	uncertainty
298.15	0.016	0.004
308.15	0.031	0.006
318.15	0.036	0.007
328.15	0.055	0.011

System: pentachlorophenol + 1-ethyl-3-methylpyridinium bis((trifluoromethyl)sulfonyl)amide; phases: Liquid, Crystal
Fixed: Pressure, kPa = 101.2
Property: Mass fraction of pentachlorophenol (Liquid); method: Chromatography
Temperature, K	Mass fraction of pentachlorophenol	uncertainty
298.15	0.018	0.004
308.15	0.023	0.005
318.15	0.029	0.006
328.15	0.042	0.009

System: 3-chlorophenol + water; phases: Liquid mixture 1, Liquid mixture 2
Property: Mass concentration, kg/m3 of 3-chlorophenol (Liquid mixture 1); method: Chromatography
Temperature, K	Pressure, kPa	Mass concentration, kg/m3 of 3-chlorophenol	uncertainty
298.15	101.2	20.38	4.08
