Measured thermophysical data. Densities and volumetric properties of (N-acetylmorpholine + aromatic  hydrocarbon) binary mixtures from T = (293.15 to 343.15) K
Source: J. Chem. Thermodyn., 2009, 10.1016/j.jct.2008.07.009
Compound 1: benzene, C6H6, InChI=1S/C6H6/c1-2-4-6-5-3-1/h1-6H, purity 99.5%
Compound 2: toluene, C7H8, InChI=1S/C7H8/c1-7-5-3-2-4-6-7/h2-6H,1H3, purity 99.8%
Compound 3: ethylbenzene, C8H10, InChI=1S/C8H10/c1-2-8-6-4-3-5-7-8/h3-7H,2H2,1H3, purity 99.5%
Compound 4: 1,3,5-trimethylbenzene, C9H12, InChI=1S/C9H12/c1-7-4-8(2)6-9(3)5-7/h4-6H,1-3H3, purity 99.8%
Compound 5: 4-acetylmorpholine, C6H11NO2, InChI=1S/C6H11NO2/c1-6(8)7-2-4-9-5-3-7/h2-5H2,1H3, purity 98%

System: benzene; phases: Liquid
Fixed: Pressure, kPa = 101.325
Property: Mass density, kg/m3 (Liquid); method: Vibrating tube method
Temperature, K	Mass density, kg/m3	uncertainty
293.15	878.9	6
303.15	868.2	6
313.15	857.4	6
323.15	846.5	6
333.15	835.7	6
343.15	824.7	6

System: toluene; phases: Liquid
Fixed: Pressure, kPa = 101.325
Property: Mass density, kg/m3 (Liquid); method: Vibrating tube method
Temperature, K	Mass density, kg/m3	uncertainty
293.15	866.8	6
303.15	857.5	6
313.15	848.8	6
323.15	838.9	6
333.15	829.6	6
343.15	820.2	6

System: ethylbenzene; phases: Liquid
Fixed: Pressure, kPa = 101.325
Property: Mass density, kg/m3 (Liquid); method: Vibrating tube method
Temperature, K	Mass density, kg/m3	uncertainty
293.15	867.2	6
303.15	858.3	6
313.15	849.3	6
323.15	840.3	6
333.15	831.2	6
343.15	822.1	6

System: 1,3,5-trimethylbenzene; phases: Liquid
Fixed: Pressure, kPa = 101.325
Property: Mass density, kg/m3 (Liquid); method: Vibrating tube method
Temperature, K	Mass density, kg/m3	uncertainty
293.15	865.1	6
303.15	856.9	6
313.15	842.8	6
323.15	834.7	6
333.15	826.6	6
343.15	818.5	6

System: 4-acetylmorpholine; phases: Liquid
Fixed: Pressure, kPa = 101.325
Property: Mass density, kg/m3 (Liquid); method: Vibrating tube method
Temperature, K	Mass density, kg/m3	uncertainty
293.15	1113.8	6.1
303.15	1105.9	6.1
313.15	1097.3	6.1
323.15	1088.7	6.1
333.15	1080.1	6.1
343.15	1071.5	6.1

System: benzene + 4-acetylmorpholine; phases: Liquid
Fixed: Pressure, kPa = 101
Property: Mass density, kg/m3 (Liquid); method: Vibrating tube method
Temperature, K	Mole fraction of benzene	Mass density, kg/m3	uncertainty
293.15	0.0546	1104.6	6.1
293.15	0.1127	1094.9	6.1
293.15	0.1568	1087.2	6
293.15	0.2099	1078	6
293.15	0.2673	1067.5	6
293.15	0.3128	1059	6
293.15	0.3564	1050.6	6
293.15	0.4056	1040.8	6
293.15	0.4562	1030.1	6
293.15	0.5039	1019.5	6
293.15	0.5683	1004.5	6
293.15	0.6138	993.3	6
293.15	0.6866	974.4	6
293.15	0.7437	958.7	6
293.15	0.8033	941.3	6
293.15	0.8659	922.4	6
293.15	0.9154	906.8	6
293.15	0.9687	889.4	6
303.15	0.0546	1096.7	6.1
303.15	0.1127	1086.8	6.1
303.15	0.1568	1079	6
303.15	0.2099	1069.6	6
303.15	0.2673	1058.9	6
303.15	0.3128	1050.2	6
303.15	0.3564	1041.7	6
303.15	0.4056	1031.7	6
303.15	0.4562	1020.8	6
303.15	0.5039	1010.1	6
303.15	0.5683	994.9	6
303.15	0.6138	983.5	6
303.15	0.6866	964.5	6
303.15	0.7437	948.6	6
303.15	0.8033	931.1	6
303.15	0.8659	912.1	6
303.15	0.9154	896.3	6
303.15	0.9687	878.9	6
313.15	0.0546	1088.2	6.1
313.15	0.1127	1078.1	6
313.15	0.1568	1070.2	6
313.15	0.2099	1060.6	6
313.15	0.2673	1049.8	6
313.15	0.3128	1040.9	6
313.15	0.3564	1032.3	6
313.15	0.4056	1022.2	6
313.15	0.4562	1011.2	6
313.15	0.5039	1000.3	6
313.15	0.5683	984.9	6
313.15	0.6138	973.5	6
313.15	0.6866	954.3	6
313.15	0.7437	938.3	6
313.15	0.8033	920.7	6
313.15	0.8659	901.6	6
313.15	0.9154	885.8	6
313.15	0.9687	868.4	6
323.15	0.0546	1079.6	6.1
323.15	0.1127	1069.3	6
323.15	0.1568	1061.2	6
323.15	0.2099	1051.3	6
323.15	0.2673	1040.5	6
323.15	0.3128	1031.6	6
323.15	0.3564	1022.8	6
323.15	0.4056	1012.5	6
323.15	0.4562	1001.4	6
323.15	0.5039	990.4	6
323.15	0.5683	974.9	6
323.15	0.6138	963.4	6
323.15	0.6866	943.9	6
323.15	0.7437	927.7	6
323.15	0.8033	910.2	6
323.15	0.8659	891	6
323.15	0.9154	875.2	6
323.15	0.9687	857.7	6
333.15	0.0546	1071	6.1
333.15	0.1127	1060.6	6
333.15	0.1568	1052.4	6
333.15	0.2099	1042.3	6
333.15	0.2673	1031.4	6
333.15	0.3128	1022.2	6
333.15	0.3564	1013.4	6
333.15	0.4056	1002.9	6
333.15	0.4562	991.7	6
333.15	0.5039	980.6	6
333.15	0.5683	964.9	6
333.15	0.6138	953.2	6
333.15	0.6866	933.6	6
333.15	0.7437	917.6	6
333.15	0.8033	899.7	6
333.15	0.8659	880.5	6
333.15	0.9154	864.6	6
333.15	0.9687	847	6
343.15	0.0546	1062.4	6.1
343.15	0.1127	1051.8	6
343.15	0.1568	1043.5	6
343.15	0.2099	1033.2	6
343.15	0.2673	1022.1	6
343.15	0.3128	1012.9	6
343.15	0.3564	1003.9	6
343.15	0.4056	993.3	6
343.15	0.4562	981.8	6
343.15	0.5039	970.6	6
343.15	0.5683	954.8	6
343.15	0.6138	942.6	6
343.15	0.6866	923.3	6
343.15	0.7437	907.1	6
343.15	0.8033	889.2	6
343.15	0.8659	869.8	6
343.15	0.9154	853.8	6
343.15	0.9687	836.3	6

System: toluene + 4-acetylmorpholine; phases: Liquid
Fixed: Pressure, kPa = 101
Property: Mass density, kg/m3 (Liquid); method: Vibrating tube method
Temperature, K	Mole fraction of toluene	Mass density, kg/m3	uncertainty
293.15	0.0498	1104.1	6.1
293.15	0.0975	1094.3	6.1
293.15	0.1453	1084	6
293.15	0.2109	1070.1	6
293.15	0.2873	1053.3	6
293.15	0.3276	1044.3	6
293.15	0.3865	1030.8	6
293.15	0.4536	1015.1	6
293.15	0.4953	1005.1	6
293.15	0.5235	998.4	6
293.15	0.5641	988.2	6
293.15	0.6033	978.3	6
293.15	0.6844	957.3	6
293.15	0.7562	937.8	6
293.15	0.8126	922.2	6
293.15	0.8843	901.8	6
293.15	0.9225	890.5	6
293.15	0.9832	872.3	6
303.15	0.0498	1096.4	6.1
303.15	0.0975	1086.5	6.1
303.15	0.1453	1076.5	6
303.15	0.2109	1062.5	6
303.15	0.2873	1045.4	6
303.15	0.3276	1036.5	6
303.15	0.3865	1022.8	6
303.15	0.4536	1007	6
303.15	0.4953	996.9	6
303.15	0.5235	990	6
303.15	0.5641	979.8	6
303.15	0.6033	969.9	6
303.15	0.6844	949	6
303.15	0.7562	929.6	6
303.15	0.8126	913.7	6
303.15	0.8843	893.2	6
303.15	0.9225	881.8	6
303.15	0.9832	863.3	6
313.15	0.0498	1087.8	6.1
313.15	0.0975	1077.8	6
313.15	0.1453	1068.2	6
313.15	0.2109	1054	6
313.15	0.2873	1037.1	6
313.15	0.3276	1028.1	6
313.15	0.3865	1014.6	6
313.15	0.4536	998.7	6
313.15	0.4953	988.7	6
313.15	0.5235	981.7	6
313.15	0.5641	971.6	6
313.15	0.6033	961.7	6
313.15	0.6844	940.7	6
313.15	0.7562	921.3	6
313.15	0.8126	905.5	6
313.15	0.8843	885	6
313.15	0.9225	873.5	6
313.15	0.9832	855.2	6
323.15	0.0498	1079.4	6.1
323.15	0.0975	1069.6	6
323.15	0.1453	1059.9	6
323.15	0.2109	1045.6	6
323.15	0.2873	1028.6	6
323.15	0.3276	1019.5	6
323.15	0.3865	1005.8	6
323.15	0.4536	989.8	6
323.15	0.4953	979.7	6
323.15	0.5235	972.7	6
323.15	0.5641	962.5	6
323.15	0.6033	952.5	6
323.15	0.6844	931.5	6
323.15	0.7562	912.1	6
323.15	0.8126	896.2	6
323.15	0.8843	875.6	6
323.15	0.9225	864.1	6
323.15	0.9832	845.9	6
333.15	0.0498	1071.2	6.1
333.15	0.0975	1061.4	6
333.15	0.1453	1051.6	6
333.15	0.2109	1036.8	6
333.15	0.2873	1020.2	6
333.15	0.3276	1011	6
333.15	0.3865	997.2	6
333.15	0.4536	981.2	6
333.15	0.4953	970.8	6
333.15	0.5235	964.1	6
333.15	0.5641	953.8	6
333.15	0.6033	943.8	6
333.15	0.6844	922.7	6
333.15	0.7562	903.2	6
333.15	0.8126	887.4	6
333.15	0.8843	866.8	6
333.15	0.9225	855.3	6
333.15	0.9832	837.1	6
343.15	0.0498	1063.2	6.1
343.15	0.0975	1053.3	6
343.15	0.1453	1043.4	6
343.15	0.2109	1029.2	6
343.15	0.2873	1012	6
343.15	0.3276	1002.5	6
343.15	0.3865	988.6	6
343.15	0.4536	972.2	6
343.15	0.4953	962.1	6
343.15	0.5235	954.5	6
343.15	0.5641	944.9	6
343.15	0.6033	935	6
343.15	0.6844	913.9	6
343.15	0.7562	894.7	6
343.15	0.8126	879.3	6
343.15	0.8843	857.9	6
343.15	0.9225	846.4	6
343.15	0.9832	828.2	6

System: ethylbenzene + 4-acetylmorpholine; phases: Liquid
Fixed: Pressure, kPa = 101
Property: Mass density, kg/m3 (Liquid); method: Vibrating tube method
Temperature, K	Mole fraction of ethylbenzene	Mass density, kg/m3	uncertainty
293.15	0.0456	1102.4	6.1
293.15	0.1256	1082.6	6
293.15	0.1853	1068	6
293.15	0.2457	1053.2	6
293.15	0.2984	1040.5	6
293.15	0.3486	1028.3	6
293.15	0.3899	1018.3	6
293.15	0.4452	1004.8	6
293.15	0.4843	995.3	6
293.15	0.5433	980.8	6
293.15	0.5894	969.5	6
293.15	0.6555	953.2	6
293.15	0.6983	942.6	6
293.15	0.7452	931	6
293.15	0.7984	917.7	6
293.15	0.8422	906.7	6
293.15	0.9328	884.2	6
293.15	0.9784	872.8	6
303.15	0.0456	1094.5	6.1
303.15	0.1256	1074.7	6
303.15	0.1853	1060	6
303.15	0.2457	1045.2	6
303.15	0.2984	1032.4	6
303.15	0.3486	1020.1	6
303.15	0.3899	1010	6
303.15	0.4452	996.5	6
303.15	0.4843	986.9	6
303.15	0.5433	972.3	6
303.15	0.5894	961	6
303.15	0.6555	944.7	6
303.15	0.6983	934	6
303.15	0.7452	922.4	6
303.15	0.7984	909	6
303.15	0.8422	898	6
303.15	0.9328	875.5	6
303.15	0.9784	864.1	6
313.15	0.0456	1085.9	6.1
313.15	0.1256	1066.2	6
313.15	0.1853	1051.5	6
313.15	0.2457	1036.6	6
313.15	0.2984	1023.7	6
313.15	0.3486	1011.4	6
313.15	0.3899	1001.2	6
313.15	0.4452	987.7	6
313.15	0.4843	978	6
313.15	0.5433	963.5	6
313.15	0.5894	952.1	6
313.15	0.6555	935.8	6
313.15	0.6983	925.1	6
313.15	0.7452	913.5	6
313.15	0.7984	900.2	6
313.15	0.8422	889.3	6
313.15	0.9328	866.7	6
313.15	0.9784	855.2	6
323.15	0.0456	1077.3	6.1
323.15	0.1256	1057.7	6
323.15	0.1853	1042.9	6
323.15	0.2457	1027.9	6
323.15	0.2984	1015	6
323.15	0.3486	1002.6	6
323.15	0.3899	992.4	6
323.15	0.4452	978.9	6
323.15	0.4843	969.2	6
323.15	0.5433	954.6	6
323.15	0.5894	943.2	6
323.15	0.6555	926.9	6
323.15	0.6983	916.2	6
323.15	0.7452	904.6	6
323.15	0.7984	891.2	6
323.15	0.8422	880.4	6
323.15	0.9328	857.8	6
323.15	0.9784	846.2	6
333.15	0.0456	1068.9	6.1
333.15	0.1256	1049.2	6
333.15	0.1853	1034.3	6
333.15	0.2457	1019.4	6
333.15	0.2984	1006.3	6
333.15	0.3486	993.8	6
333.15	0.3899	983.6	6
333.15	0.4452	969.9	6
333.15	0.4843	960.2	6
333.15	0.5433	945.6	6
333.15	0.5894	934.2	6
333.15	0.6555	917.8	6
333.15	0.6983	907.2	6
333.15	0.7452	895.6	6
333.15	0.7984	882.3	6
333.15	0.8422	871.4	6
333.15	0.9328	848.7	6
333.15	0.9784	837.1	6
343.15	0.0456	1060.3	6.1
343.15	0.1256	1040.6	6
343.15	0.1853	1025.7	6
343.15	0.2457	1010.6	6
343.15	0.2984	997.5	6
343.15	0.3486	985	6
343.15	0.3899	974.7	6
343.15	0.4452	960.9	6
343.15	0.4843	951.2	6
343.15	0.5433	936.6	6
343.15	0.5894	925.2	6
343.15	0.6555	908.8	6
343.15	0.6983	898.3	6
343.15	0.7452	886.6	6
343.15	0.7984	873.4	6
343.15	0.8422	862.4	6
343.15	0.9328	839.7	6
343.15	0.9784	828	6

System: 1,3,5-trimethylbenzene + 4-acetylmorpholine; phases: Liquid
Fixed: Pressure, kPa = 101
Property: Mass density, kg/m3 (Liquid); method: Vibrating tube method
Temperature, K	Mole fraction of 1,3,5-trimethylbenzene	Mass density, kg/m3	uncertainty
293.15	0.0654	1094.6	6.1
293.15	0.1128	1081.2	6
293.15	0.1763	1063.5	6
293.15	0.2254	1050.2	6
293.15	0.2845	1034.5	6
293.15	0.3241	1024.2	6
293.15	0.3837	1008.9	6
293.15	0.4266	998.1	6
293.15	0.4978	980.4	6
293.15	0.5436	969.2	6
293.15	0.6116	952.8	6
293.15	0.6984	932.5	6
293.15	0.7452	921.6	6
293.15	0.7944	910.4	6
293.15	0.8541	897	6
293.15	0.8932	888.3	6
293.15	0.9423	877.5	6
293.15	0.9833	868.7	6
303.15	0.0654	1086.8	6.1
303.15	0.1128	1073.4	6
303.15	0.1763	1055.7	6
303.15	0.2254	1042.3	6
303.15	0.2845	1026.5	6
303.15	0.3241	1016.2	6
303.15	0.3837	1000.9	6
303.15	0.4266	990.1	6
303.15	0.4978	972.3	6
303.15	0.5436	961.1	6
303.15	0.6116	944.8	6
303.15	0.6984	924.4	6
303.15	0.7452	913.6	6
303.15	0.7944	902.3	6
303.15	0.8541	889	6
303.15	0.8932	880.2	6
303.15	0.9423	869.5	6
303.15	0.9833	860.6	6
313.15	0.0654	1077.7	6.1
313.15	0.1128	1063.8	6
313.15	0.1763	1045.7	6
313.15	0.2254	1032	6
313.15	0.2845	1015.8	6
313.15	0.3241	1005.2	6
313.15	0.3837	989.5	6
313.15	0.4266	978.3	6
313.15	0.4978	960.2	6
313.15	0.5436	948.8	6
313.15	0.6116	932.1	6
313.15	0.6984	911.4	6
313.15	0.7452	900.4	6
313.15	0.7944	888.9	6
313.15	0.8541	875.4	6
313.15	0.8932	866.5	6
313.15	0.9423	855.6	6
313.15	0.9833	846.5	6
323.15	0.0654	1069.3	6.1
323.15	0.1128	1055.4	6
323.15	0.1763	1037.3	6
323.15	0.2254	1023.5	6
323.15	0.2845	1007.4	6
323.15	0.3241	996.8	6
323.15	0.3837	981	6
323.15	0.4266	969.9	6
323.15	0.4978	951.9	6
323.15	0.5436	940.4	6
323.15	0.6116	923.9	6
323.15	0.6984	903.1	6
323.15	0.7452	892.2	6
323.15	0.7944	880.8	6
323.15	0.8541	867.2	6
323.15	0.8932	858.4	6
323.15	0.9423	847.5	6
323.15	0.9833	838.5	6
333.15	0.0654	1060.8	6.1
333.15	0.1128	1046.9	6
333.15	0.1763	1028.9	6
333.15	0.2254	1015.1	6
333.15	0.2845	999	6
333.15	0.3241	988.4	6
333.15	0.3837	972.7	6
333.15	0.4266	961.6	6
333.15	0.4978	943.5	6
333.15	0.5436	932.1	6
333.15	0.6116	915.6	6
333.15	0.6984	894.9	6
333.15	0.7452	884	6
333.15	0.7944	872.7	6
333.15	0.8541	859.1	6
333.15	0.8932	850.3	6
333.15	0.9423	839.4	6
333.15	0.9833	830.4	6
343.15	0.0654	1052.2	6
343.15	0.1128	1038.5	6
343.15	0.1763	1020.4	6
343.15	0.2254	1006.7	6
343.15	0.2845	990.6	6
343.15	0.3241	980	6
343.15	0.3837	964.3	6
343.15	0.4266	953.2	6
343.15	0.4978	935.2	6
343.15	0.5436	923.8	6
343.15	0.6116	907.3	6
343.15	0.6984	886.8	6
343.15	0.7452	875.9	6
343.15	0.7944	864.6	6
343.15	0.8541	851	6
343.15	0.8932	842.2	6
343.15	0.9423	831.3	6
343.15	0.9833	822.3	6
