Measured thermophysical data. Thermodynamics of solvation and solvophobic effect in formamide
Source: J. Chem. Thermodyn., 2013, 10.1016/j.jct.2013.05.006
Compound 1: formamide, CH3NO, InChI=1S/CH3NO/c2-1-3/h1H,(H2,2,3), purity 99.5%
Compound 2: hexane, C6H14, InChI=1S/C6H14/c1-3-5-6-4-2/h3-6H2,1-2H3, purity 99%
Compound 3: heptane, C7H16, InChI=1S/C7H16/c1-3-5-7-6-4-2/h3-7H2,1-2H3, purity 99%
Compound 4: octane, C8H18, InChI=1S/C8H18/c1-3-5-7-8-6-4-2/h3-8H2,1-2H3, purity 99%
Compound 5: cyclohexane, C6H12, InChI=1S/C6H12/c1-2-4-6-5-3-1/h1-6H2, purity 99%
Compound 6: benzene, C6H6, InChI=1S/C6H6/c1-2-4-6-5-3-1/h1-6H, purity 99%
Compound 7: toluene, C7H8, InChI=1S/C7H8/c1-7-5-3-2-4-6-7/h2-6H,1H3, purity 99%
Compound 8: ethylbenzene, C8H10, InChI=1S/C8H10/c1-2-8-6-4-3-5-7-8/h3-7H,2H2,1H3, purity 99%
Compound 9: fluorobenzene, C6H5F, InChI=1S/C6H5F/c7-6-4-2-1-3-5-6/h1-5H, purity 99%
Compound 10: chlorobenzene, C6H5Cl, InChI=1S/C6H5Cl/c7-6-4-2-1-3-5-6/h1-5H, purity 99%
Compound 11: bromobenzene, C6H5Br, InChI=1S/C6H5Br/c7-6-4-2-1-3-5-6/h1-5H, purity 99%
Compound 12: 1,2-dichlorobenzene, C6H4Cl2, InChI=1S/C6H4Cl2/c7-5-3-1-2-4-6(5)8/h1-4H, purity 99%
Compound 13: naphthalene, C10H8, InChI=1S/C10H8/c1-2-6-10-8-4-3-7-9(10)5-1/h1-8H, purity 99%
Compound 14: biphenyl, C12H10, InChI=1S/C12H10/c1-3-7-11(8-4-1)12-9-5-2-6-10-12/h1-10H, purity 99%

System: formamide + hexane; phases: Liquid
Property: Molar enthalpy of solution, kJ/mol (Liquid); method: ISOPERIBOL
Mole fraction of hexane	Pressure, kPa	Temperature, K	Molar enthalpy of solution, kJ/mol	uncertainty
0	101	298	8.1	1.6

System: formamide + heptane; phases: Liquid
Property: Molar enthalpy of solution, kJ/mol (Liquid); method: ISOPERIBOL
Mole fraction of heptane	Pressure, kPa	Temperature, K	Molar enthalpy of solution, kJ/mol	uncertainty
0	101	298	9.5	1.2

System: formamide + octane; phases: Liquid
Property: Molar enthalpy of solution, kJ/mol (Liquid); method: ISOPERIBOL
Mole fraction of octane	Pressure, kPa	Temperature, K	Molar enthalpy of solution, kJ/mol	uncertainty
0	101	298	10.6	1

System: formamide + cyclohexane; phases: Liquid
Property: Molar enthalpy of solution, kJ/mol (Liquid); method: ISOPERIBOL
Mole fraction of cyclohexane	Pressure, kPa	Temperature, K	Molar enthalpy of solution, kJ/mol	uncertainty
0	101	298	7.3	1.2

System: benzene + formamide; phases: Liquid
Property: Activity coefficient of benzene (Liquid); method: Chromatography
Temperature, K	Pressure, kPa	Mole fraction of benzene	Activity coefficient of benzene	uncertainty
298	101	0	53	6

System: benzene + formamide; phases: Liquid
Property: Molar enthalpy of solution, kJ/mol (Liquid); method: ISOPERIBOL
Mole fraction of benzene	Pressure, kPa	Temperature, K	Molar enthalpy of solution, kJ/mol	uncertainty
0	101	298	4.54	0.2

System: formamide + toluene; phases: Liquid
Property: Activity coefficient of toluene (Liquid); method: Chromatography
Temperature, K	Pressure, kPa	Mole fraction of toluene	Activity coefficient of toluene	uncertainty
298	101	0	81	8

System: formamide + toluene; phases: Liquid
Property: Molar enthalpy of solution, kJ/mol (Liquid); method: ISOPERIBOL
Mole fraction of toluene	Pressure, kPa	Temperature, K	Molar enthalpy of solution, kJ/mol	uncertainty
0	101	298	4.48	0.2

System: formamide + ethylbenzene; phases: Liquid
Property: Molar enthalpy of solution, kJ/mol (Liquid); method: ISOPERIBOL
Mole fraction of ethylbenzene	Pressure, kPa	Temperature, K	Molar enthalpy of solution, kJ/mol	uncertainty
0	101	298	5.6	0.2

System: formamide + fluorobenzene; phases: Liquid
Property: Activity coefficient of fluorobenzene (Liquid); method: Chromatography
Temperature, K	Pressure, kPa	Mole fraction of fluorobenzene	Activity coefficient of fluorobenzene	uncertainty
298	101	0	54	6

System: formamide + fluorobenzene; phases: Liquid
Property: Molar enthalpy of solution, kJ/mol (Liquid); method: ISOPERIBOL
Mole fraction of fluorobenzene	Pressure, kPa	Temperature, K	Molar enthalpy of solution, kJ/mol	uncertainty
0	101	298	3.32	0.2

System: formamide + chlorobenzene; phases: Liquid
Property: Activity coefficient of chlorobenzene (Liquid); method: Chromatography
Temperature, K	Pressure, kPa	Mole fraction of chlorobenzene	Activity coefficient of chlorobenzene	uncertainty
298	101	0	94	16

System: formamide + chlorobenzene; phases: Liquid
Property: Molar enthalpy of solution, kJ/mol (Liquid); method: ISOPERIBOL
Mole fraction of chlorobenzene	Pressure, kPa	Temperature, K	Molar enthalpy of solution, kJ/mol	uncertainty
0	101	298	3.63	0.2

System: formamide + bromobenzene; phases: Liquid
Property: Activity coefficient of bromobenzene (Liquid); method: Chromatography
Temperature, K	Pressure, kPa	Mole fraction of bromobenzene	Activity coefficient of bromobenzene	uncertainty
298	101	0	107	13

System: formamide + bromobenzene; phases: Liquid
Property: Molar enthalpy of solution, kJ/mol (Liquid); method: ISOPERIBOL
Mole fraction of bromobenzene	Pressure, kPa	Temperature, K	Molar enthalpy of solution, kJ/mol	uncertainty
0	101	298	4.54	0.2

System: formamide + 1,2-dichlorobenzene; phases: Liquid
Property: Activity coefficient of 1,2-dichlorobenzene (Liquid); method: Chromatography
Temperature, K	Pressure, kPa	Mole fraction of 1,2-dichlorobenzene	Activity coefficient of 1,2-dichlorobenzene	uncertainty
298	101	0	159	17

System: formamide + naphthalene; phases: Liquid
Property: Activity coefficient of naphthalene (Liquid); method: Chromatography
Temperature, K	Pressure, kPa	Mole fraction of naphthalene	Activity coefficient of naphthalene	uncertainty
298	101	0	533	63

System: formamide + naphthalene; phases: Liquid
Property: Molar enthalpy of solution, kJ/mol (Liquid); method: ISOPERIBOL
Mole fraction of naphthalene	Pressure, kPa	Temperature, K	Molar enthalpy of solution, kJ/mol	uncertainty
0	101	298	22.8	2

System: formamide + biphenyl; phases: Liquid
Property: Activity coefficient of biphenyl (Liquid); method: Chromatography
Temperature, K	Pressure, kPa	Mole fraction of biphenyl	Activity coefficient of biphenyl	uncertainty
298	101	0	1320	147

System: formamide + biphenyl; phases: Liquid
Property: Molar enthalpy of solution, kJ/mol (Liquid); method: ISOPERIBOL
Mole fraction of biphenyl	Pressure, kPa	Temperature, K	Molar enthalpy of solution, kJ/mol	uncertainty
0	101	298	25.3	2
