Measured thermophysical data. Ionic conductivities and diffusion coefficients of alkyl substituted sulfonated resorcinarenes in aqueous solutions
Source: J. Chem. Thermodyn., 2019, 10.1016/j.jct.2019.02.018
Compound 1: water, H2O, InChI=1S/H2O/h1H2, purity 99.8%
Compound 2: tetrasodium 5,11,17,23-tetrakissulfonatemethylen-2,8,14,20-tetra(ethyl)resorcin[4]arene, C40H44Na4O20S4, InChI=1S/C40H48O20S4.4Na/c1-5-17-21-9-23(35(43)29(33(21)41)13-61(49,50)51)18(6-2)25-11-27(39(47)31(37(25)45)15-63(55,56)57)20(8-4)28-12-26(38(46)32(40(28)48)16-64(58,59)60)19(7-3)24-10-22(17)34(42)30(36(24)44)14-62(52,53)54;;;;/h9-12,17-20,41-48H,5-8,13-16H2,1-4H3,(H,49,50,51)(H,52,53,54)(H,55,56,57)(H,58,59,60);;;;/q;4*+1/p-4
Compound 3: tetrasodium 5,11,17,23-tetrakissulfonatemethylen-2,8,14,20-tetra(propyl)resorcin[4]arene, C44H52Na4O20S4, InChI=1S/C44H56O20S4.4Na/c1-5-9-21-25-13-27(39(47)33(37(25)45)17-65(53,54)55)22(10-6-2)29-15-31(43(51)35(41(29)49)19-67(59,60)61)24(12-8-4)32-16-30(42(50)36(44(32)52)20-68(62,63)64)23(11-7-3)28-14-26(21)38(46)34(40(28)48)18-66(56,57)58;;;;/h13-16,21-24,45-52H,5-12,17-20H2,1-4H3,(H,53,54,55)(H,56,57,58)(H,59,60,61)(H,62,63,64);;;;/q;4*+1/p-4

System: water + tetrasodium 5,11,17,23-tetrakissulfonatemethylen-2,8,14,20-tetra(ethyl)resorcin[4]arene; phases: Liquid
Fixed: Temperature, K = 298.15
Fixed: Pressure, kPa = 101.3
Property: Electrical conductivity, S/m (Liquid); method: Alternating current cell with electrodes
Molality, mol/kg of tetrasodium 5,11,17,23-tetrakissulfonatemethylen-2,8,14,20-tetra(ethyl)resorcin[4]arene	Electrical conductivity, S/m	uncertainty
0.00126	0.04977	0.001
0.001447	0.05689	0.00114
0.00163	0.06367	0.00127
0.00182	0.07065	0.00141
0.001998	0.07723	0.00154
0.002178	0.08377	0.00168
0.00235	0.08993	0.0018
0.002498	0.09526	0.00191
0.002676	0.10157	0.00203
0.002843	0.10756	0.00215
0.003	0.11309	0.00226
0.003155	0.11859	0.00237

System: water + tetrasodium 5,11,17,23-tetrakissulfonatemethylen-2,8,14,20-tetra(ethyl)resorcin[4]arene; phases: Liquid
Fixed: Temperature, K = 298.15
Fixed: Pressure, kPa = 101.3
Property: Binary diffusion coefficient, m2/s (Liquid); method: Taylor dispersion method
Molality, mol/kg of tetrasodium 5,11,17,23-tetrakissulfonatemethylen-2,8,14,20-tetra(ethyl)resorcin[4]arene	Binary diffusion coefficient, m2/s	uncertainty
0	8.81e-10	0.045
0.001005	7.8e-10	0.044
0.002513	7.31e-10	0.044
0.00504	7.2e-10	0.044
0.007581	6.9e-10	0.043
0.010143	7e-10	0.043

System: water + tetrasodium 5,11,17,23-tetrakissulfonatemethylen-2,8,14,20-tetra(ethyl)resorcin[4]arene; phases: Liquid
Fixed: Temperature, K = 298.15
Fixed: Pressure, kPa = 101.3
Property: Mass density, kg/m3 (Liquid); method: Vibrating tube method
Molality, mol/kg of tetrasodium 5,11,17,23-tetrakissulfonatemethylen-2,8,14,20-tetra(ethyl)resorcin[4]arene	Mass density, kg/m3	uncertainty
0.00126	997.584	0.303
0.001447	997.666	0.303
0.00163	997.745	0.303
0.00182	997.828	0.303
0.001998	997.905	0.303
0.002178	997.983	0.303
0.00235	998.058	0.303
0.002498	998.123	0.303
0.002676	998.2	0.303
0.002843	998.272	0.303
0.003	998.34	0.303
0.003155	998.408	0.303

System: water + tetrasodium 5,11,17,23-tetrakissulfonatemethylen-2,8,14,20-tetra(propyl)resorcin[4]arene; phases: Liquid
Fixed: Temperature, K = 298.15
Fixed: Pressure, kPa = 101.3
Property: Electrical conductivity, S/m (Liquid); method: Alternating current cell with electrodes
Molality, mol/kg of tetrasodium 5,11,17,23-tetrakissulfonatemethylen-2,8,14,20-tetra(propyl)resorcin[4]arene	Electrical conductivity, S/m	uncertainty
0.000331	12.47	0.25
0.000361	13.55	0.27
0.000391	14.59	0.29
0.000421	15.62	0.31
0.000452	16.7	0.33
0.000482	17.9	0.36
0.000522	19.13	0.38
0.000562	20.4	0.41
0.000753	27.24	0.54
0.000843	29.99	0.6
0.000954	33.79	0.68
0.001064	37.62	0.75

System: water + tetrasodium 5,11,17,23-tetrakissulfonatemethylen-2,8,14,20-tetra(propyl)resorcin[4]arene; phases: Liquid
Fixed: Temperature, K = 298.15
Fixed: Pressure, kPa = 101.3
Property: Binary diffusion coefficient, m2/s (Liquid); method: Taylor dispersion method
Molality, mol/kg of tetrasodium 5,11,17,23-tetrakissulfonatemethylen-2,8,14,20-tetra(propyl)resorcin[4]arene	Binary diffusion coefficient, m2/s	uncertainty
0	8.52e-10	0.044
0.001005	7.6e-10	0.044
0.002515	7.16e-10	0.044
0.005044	6.83e-10	0.043
0.007588	6.36e-10	0.043

System: water + tetrasodium 5,11,17,23-tetrakissulfonatemethylen-2,8,14,20-tetra(propyl)resorcin[4]arene; phases: Liquid
Fixed: Temperature, K = 298.15
Fixed: Pressure, kPa = 101.3
Property: Mass density, kg/m3 (Liquid); method: Vibrating tube method
Molality, mol/kg of tetrasodium 5,11,17,23-tetrakissulfonatemethylen-2,8,14,20-tetra(propyl)resorcin[4]arene	Mass density, kg/m3	uncertainty
0.000331	997.17	0.303
0.000361	997.183	0.303
0.000391	997.196	0.303
0.000421	997.209	0.303
0.000452	997.222	0.303
0.000482	997.237	0.303
0.000522	997.253	0.303
0.000562	997.269	0.303
0.000753	997.356	0.303
0.000843	997.392	0.303
0.000954	997.441	0.303
0.001064	997.492	0.303
