Measured thermophysical data. Thermodynamic properties of 1-aminoadamantane
Source: J. Chem. Thermodyn., 2008, 10.1016/j.jct.2007.08.002
Compound 1: carbon dioxide, CO2, InChI=1S/CO2/c2-1-3
Compound 2: nitrogen, N2, InChI=1S/N2/c1-2
Compound 3: water, H2O, InChI=1S/H2O/h1H2
Compound 4: oxygen, O2, InChI=1S/O2/c1-2
Compound 5: tricyclo(3.3.1.1:3,7)decan-1-amine, C10H17N, InChI=1S/C10H17N/c11-10-4-7-1-8(5-10)3-9(2-7)6-10/h7-9H,1-6,11H2, purity 97%

System: tricyclo(3.3.1.1:3,7)decan-1-amine; phases: Crystal 3, Crystal 2, Gas
Property: Molar enthalpy of transition or fusion, kJ/mol (Crystal 3); method: Adiabatic calorimetry
Molar enthalpy of transition or fusion, kJ/mol	uncertainty
1.716	0.024

System: tricyclo(3.3.1.1:3,7)decan-1-amine; phases: Crystal 2, Crystal 1, Gas
Property: Molar enthalpy of transition or fusion, kJ/mol (Crystal 2); method: Adiabatic calorimetry
Molar enthalpy of transition or fusion, kJ/mol	uncertainty
5.309	0.012

System: tricyclo(3.3.1.1:3,7)decan-1-amine; phases: Crystal 3, Crystal 2, Gas
Property: Triple point temperature, K (Crystal 3); method: Adiabatic calorimetry
Triple point temperature, K	uncertainty
241.4	0.1

System: tricyclo(3.3.1.1:3,7)decan-1-amine; phases: Crystal 2, Crystal 1, Gas
Property: Triple point temperature, K (Crystal 2); method: Adiabatic calorimetry
Triple point temperature, K	uncertainty
284.6	0.1

System: tricyclo(3.3.1.1:3,7)decan-1-amine; phases: Crystal 3
Property: Mass density, kg/m3 (Crystal 3); method: Pycnometric method
Temperature, K	Pressure, kPa	Mass density, kg/m3	uncertainty
298.15	101.325	1100	100

System: tricyclo(3.3.1.1:3,7)decan-1-amine; phases: Crystal 3
Fixed: Pressure, kPa = 101.325
Property: Molar heat capacity at constant pressure, J/K/mol (Crystal 3); method: Small (less than 1 g) adiabatic calorimetry
Temperature, K	Molar heat capacity at constant pressure, J/K/mol	uncertainty
5	0.4688	0.0252
10	3.505	0.062
15	9.163	0.116
20	15.65	0.17
25	21.75	0.19
30	26.96	0.2
35	31.21	0.22
40	34.7	0.24
45	37.68	0.26
50	40.29	0.27
60	44.98	0.29
70	49.57	0.32
80	54.53	0.34
90	59.87	0.39
100	65.39	0.42
110	71.11	0.45
120	77.06	0.47
130	83.31	0.5
140	89.8	0.5
150	96.61	0.58
160	103.8	0.58
170	111.5	0.67
180	119.5	0.67
190	128	0.75
200	136.9	0.75
210	146.4	0.83
220	156.5	0.83
230	167.1	0.92
240	178.3	1
241.4	179.9	1

System: tricyclo(3.3.1.1:3,7)decan-1-amine; phases: Crystal 2
Fixed: Pressure, kPa = 101.325
Property: Molar heat capacity at constant pressure, J/K/mol (Crystal 2); method: Small (less than 1 g) adiabatic calorimetry
Temperature, K	Molar heat capacity at constant pressure, J/K/mol	uncertainty
241.4	179.9	1
250	190.2	1
260	202.7	1.1
270	215.9	1.2
280	230	1.2
284.6	236.6	1.2

System: tricyclo(3.3.1.1:3,7)decan-1-amine; phases: Crystal 1
Fixed: Pressure, kPa = 101.325
Property: Molar heat capacity at constant pressure, J/K/mol (Crystal 1); method: Small (less than 1 g) adiabatic calorimetry
Temperature, K	Molar heat capacity at constant pressure, J/K/mol	uncertainty
284.6	263.6	1.4
290	264.7	1.4
298.15	266.4	1.4
300	266.8	1.4
310	268.9	1.4
320	271.1	1.4
330	273.1	1.4
340	275.5	1.4
350	278.5	1.4
360	282.1	1.5
370	286.4	1.5

System: tricyclo(3.3.1.1:3,7)decan-1-amine; phases: Crystal 3, Gas
Property: Molar heat capacity at saturation pressure, J/K/mol (Crystal 3); method: Small (less than 1 g) adiabatic calorimetry
Temperature, K	Molar heat capacity at saturation pressure, J/K/mol	uncertainty
5.371	0.5825117682	0.0312624072
5.674	0.683449434	0.0330915906
5.933	0.7778186685	0.0345881952
6.225	0.901288548	0.036583668
6.555	1.050117561	0.039078009
6.892	1.221395643	0.042403797
7.234	1.4134599	0.045729585
7.582	1.614670074	0.049055373
7.934	1.846643787	0.053212608
8.29	2.09524644	0.056538396
8.65	2.363803821	0.060695631
9.012	2.653147377	0.065684313
9.378	2.953299744	0.069841548
9.748	3.269249604	0.07483023
10.12	3.610142874	0.079818912
10.59	4.071595959	0.086470488
11.18	4.666912011	0.094784958
11.76	5.291328708	0.103099428
12.35	5.952329073	0.112245345
12.95	6.634115613	0.120559815
13.55	7.353317268	0.129705732
14.16	8.091642204	0.138020202
14.78	8.86322502	0.14966046
15.5	9.79444566	0.15797493
16.34	10.8919557	0.1662894
17.18	12.00609468	0.18291834
18.02	13.09529025	0.19123281
18.87	14.19280029	0.19954728
19.72	15.29031033	0.20786175
20.86	16.73702811	0.21617622
22.27	18.50801022	0.22449069
23.71	20.24573445	0.23280516
25.14	21.90862845	0.24111963
26.57	23.49669222	0.24111963
28.24	25.24273092	0.24111963
29.96	26.91393939	0.23280516
31.58	28.39391505	0.24111963
33.36	29.89051965	0.2494341
35.14	31.32060849	0.25774857
36.93	32.62598028	0.26606304
38.72	33.88146525	0.26606304
40.51	35.03717658	0.27437751
42.4	36.18457344	0.28269198
44.38	37.34028477	0.29100645
46.37	38.42948034	0.29100645
48.36	39.46878909	0.29932092
50.35	40.44989655	0.29932092
52.35	41.43931848	0.30763539
54.34	42.37885359	0.31594986
56.34	43.30175976	0.31594986
58.35	44.19972252	0.32426433
60.36	45.15588657	0.32426433
62.36	46.09542168	0.3325788
64.37	46.99338444	0.3325788
66.38	47.91629061	0.34089327
68.39	48.83088231	0.34089327
70.41	49.74547401	0.34920774
72.42	50.70995253	0.35752221
74.44	51.64948764	0.35752221
76.46	52.68048192	0.36583668
78.49	53.67821832	0.36583668
80.52	54.77572836	0.37415115
82.55	55.81503711	0.38246562
84.59	56.97074844	0.38246562
78.62	53.84450772	0.36583668
80.69	54.93370329	0.37415115
82.5	55.83166605	0.38246562
84.31	56.77120116	0.38246562
86.12	57.74399415	0.39078009
88.91	59.24891322	0.39909456
91	60.41293902	0.44066691
92.82	61.46887671	0.44898138
94.65	62.47492758	0.44898138
96.48	63.44772057	0.45729585
98.3	64.46208591	0.45729585
100.14	65.46813678	0.46561032
101.97	66.49081659	0.46561032
103.81	67.53843981	0.47392479
105.65	68.56111962	0.47392479
107.49	69.55885602	0.48223926
109.33	70.64805159	0.48223926
111.18	71.74556163	0.49055373
113.03	72.82644273	0.49055373
114.88	73.92395277	0.4988682
116.73	75.04640622	0.4988682
118.59	76.13560179	0.50718267
120.45	77.29131312	0.50718267
122.31	78.43870998	0.51549714
124.17	79.61105025	0.51549714
126.03	80.80001946	0.52381161
127.9	82.02224655	0.53212608
129.77	83.2278447	0.4988682
131.64	84.3918705	0.4988682
133.51	85.639041	0.5820129
135.38	86.8030668	0.5820129
137.26	88.0502373	0.5820129
139.13	89.2142631	0.5820129
141.01	90.5445783	0.5820129
142.89	91.7917488	0.5820129
144.78	93.0389193	0.5820129
146.66	94.3692345	0.5820129
148.56	95.616405	0.5820129
150.44	96.9467202	0.5820129
152.33	98.2770354	0.5820129
154.22	99.6073506	0.5820129
156.12	100.9376658	0.5820129
158.01	102.267981	0.5820129
159.9	103.6814409	0.5820129
161.8	105.0949008	0.5820129
163.69	106.5915054	0.6651576
165.59	108.0049653	0.6651576
167.48	109.5015699	0.6651576
169.38	110.9981745	0.6651576
171.28	112.5779238	0.6651576
173.18	114.1576731	0.6651576
175.08	115.7374224	0.6651576
176.98	117.3171717	0.6651576
178.89	119.0632104	0.6651576
180.8	120.7261044	0.6651576
182.71	122.3889984	0.6651576
184.61	124.0518924	0.6651576
186.52	125.7979311	0.6651576
188.43	127.6271145	0.7483023
190.33	129.4562979	0.7483023
192.24	131.368626	0.7483023
194.15	133.3640988	0.7483023
196.06	135.4427163	0.7483023
197.97	137.6044785	0.7483023
199.88	139.7662407	0.7483023
201.79	142.0942923	0.7483023
207.53	149.3278812	0.831447
209.45	152.0716563	0.831447
211.36	154.8985761	0.831447
213.28	157.97493	0.831447
215.2	161.0512839	0.831447
217.12	164.5433613	0.831447
219.04	168.2848728	0.9145917
220.96	172.3589631	0.9145917
222.88	176.7656322	0.9145917
224.8	181.7543142	0.9145917
226.72	187.5744432	0.9145917
228.63	194.1428745	0.9977364
230.54	202.1247657	0.9977364
232.45	211.5201168	1.0808811
234.36	222.3289278	1.0808811
236.25	235.7152245	1.1640258
238.14	251.8452963	1.2471705
240.04	267.1439211	1.2471705
150.6	97.0298649	0.5820129
153.55	99.1084824	0.5820129
156.34	101.1870999	0.5820129
159.13	103.1825727	0.5820129
161.91	105.2611902	0.5820129
164.48	107.1735183	0.6651576
166.66	108.919557	0.6651576
168.73	110.582451	0.6651576
170.79	112.245345	0.6651576
172.85	113.908239	0.6651576
174.91	115.6542777	0.6651576
176.96	117.4003164	0.6651576
179.01	119.2294998	0.6651576
181.05	120.9755385	0.6651576
183.09	122.8047219	0.6651576
185.12	124.6339053	0.6651576
187.15	126.4630887	0.7483023
189.18	128.3754168	0.7483023
191.2	130.3708896	0.7483023
193.21	132.5326518	0.7483023
195.22	134.6112693	0.7483023
197.25	136.8561762	0.7483023
199.25	139.1010831	0.7483023
200.91	140.9302665	0.7483023
202.24	142.5100158	0.7483023
203.56	144.0897651	0.7483023
204.88	145.7526591	0.7483023
206.19	147.5818425	0.831447
207.51	149.2447365	0.831447
208.81	151.1570646	0.831447
210.11	152.9031033	0.831447
211.41	154.8985761	0.831447
212.7	156.7277595	0.831447
213.99	158.8895217	0.831447
215.27	161.0512839	0.831447
216.55	163.2961908	0.831447
217.82	165.7073871	0.831447
219.1	168.2848728	0.9145917
220.36	170.9455032	0.9145917
221.61	173.6061336	0.9145917
222.86	176.5993428	0.9145917
224.1	179.8419861	0.9145917
225.33	183.1677741	0.9145917
226.55	186.9092856	0.9145917
227.76	190.8170865	0.9977364
228.97	195.2237556	0.9977364
230.16	200.2124376	0.9977364
231.34	205.7831325	0.9977364
232.51	211.6864062	1.0808811
233.67	218.0054034	1.0808811
234.81	225.1558476	1.0808811
235.93	233.2208835	1.1640258
237.04	242.2836558	1.1640258
238.14	251.5958622	1.2471705
239.22	261.4900815	1.2471705
240.28	268.6405257	1.2471705
241.32	272.3820372	1.3303152

System: tricyclo(3.3.1.1:3,7)decan-1-amine; phases: Crystal 2, Gas
Property: Molar heat capacity at saturation pressure, J/K/mol (Crystal 2); method: SMALLAD:UFactor:4
Temperature, K	Molar heat capacity at saturation pressure, J/K/mol	uncertainty
241.94	272.2157478	5.1549714
243.89	258.1642935	4.9055373
245.89	240.1218936	4.6561032
247.88	229.2299379	4.4898138
249.84	225.0727029	4.4066691
251.78	223.1603748	4.4066691
253.73	223.3266642	4.4066691
255.66	225.4884264	4.4066691
257.59	226.9018863	4.4066691
259.52	229.9782402	4.4898138
261.45	233.3040282	4.5729585
263.38	237.1286844	4.5729585
265.31	241.6184982	4.6561032
267.23	247.1891931	4.7392479
269.16	252.759888	4.8223926
271.09	258.6631617	4.9055373
273	272.0494584	5.1549714
274.91	282.2762565	5.3212608
276.81	299.5703541	5.5706949
278.68	329.4193014	6.0695631
280.53	365.6703906	6.651576
282.42	373.7354265	8.5639041
242.37	270.5528538	5.1549714
243.42	261.1575027	4.988682
244.49	249.9329682	4.8223926

System: tricyclo(3.3.1.1:3,7)decan-1-amine; phases: Crystal 1, Gas
Property: Molar heat capacity at saturation pressure, J/K/mol (Crystal 1); method: Small (less than 1 g) adiabatic calorimetry
Temperature, K	Molar heat capacity at saturation pressure, J/K/mol	uncertainty
288.85	291.0895947	4.9055373
293.37	265.8967506	1.2471705
295.36	265.8136059	1.2471705
297.3	265.9798953	1.2471705
299.23	266.5619082	1.2471705
301.17	266.894487	1.2471705
303.1	267.4764999	1.2471705
305.04	267.8922234	1.2471705
306.98	268.557381	1.2471705
308.92	268.8899598	1.2471705
310.85	268.8899598	1.2471705
312.79	269.388828	1.2471705
314.73	269.9708409	1.2471705
316.67	270.0539856	1.2471705
318.61	270.8022879	1.2471705
320.55	271.051722	1.2471705
324.44	271.8000243	1.2471705
326.39	272.5483266	1.3303152
328.33	272.714616	1.3303152
330.27	273.0471948	1.3303152
332.22	273.546063	1.3303152
334.16	273.7954971	1.3303152
336.11	274.2112206	1.3303152
338.05	274.8763782	1.3303152
340	275.208957	1.3303152
341.94	275.7909699	1.3303152
343.89	276.5392722	1.3303152
345.84	277.2044298	1.3303152
347.78	277.7864427	1.3303152
349.73	278.3684556	1.3303152
351.68	278.8673238	1.3303152
353.63	279.366192	1.3303152
355.58	280.4470731	1.3303152
357.53	281.029086	1.3303152
359.47	281.860533	1.3303152
361.42	282.6088353	1.3303152
363.37	283.3571376	1.3303152
365.32	284.5211634	1.3303152
367.27	285.5188998	1.3303152
309.23	268.9731045	1.2471705
311.41	269.4719727	1.2471705
313.59	269.9708409	1.2471705
315.77	270.1371303	1.2471705
317.96	270.5528538	1.2471705
320.14	270.9685773	1.2471705
322.32	271.4674455	1.2471705
324.5	272.1326031	1.3303152
326.7	272.0494584	1.3303152
328.88	272.8809054	1.3303152
331.06	273.7123524	1.3303152
333.25	273.8786418	1.3303152
335.43	274.37751	1.3303152
337.62	274.7932335	1.3303152
339.81	275.2921017	1.3303152
342	275.9572593	1.3303152
344.18	276.7887063	1.3303152
346.37	277.4538639	1.3303152
348.56	278.2021662	1.3303152
350.75	279.0336132	1.3303152
352.94	279.7819155	1.3303152
355.12	280.2807837	1.3303152
357.31	281.029086	1.3303152
359.5	282.0268224	1.3303152
361.71	282.5256906	1.3303152
363.9	283.523427	1.3303152
366.08	284.6874528	1.3303152

System: tricyclo(3.3.1.1:3,7)decan-1-amine; phases: Crystal 1, Gas
Property: Vapor or sublimation pressure, kPa (Crystal 1); method: Calculated from knudsen effusion weight loss
Temperature, K	Vapor or sublimation pressure, kPa	uncertainty
291.05	0.00621	0.00087
291.07	0.00627	0.00088
293.54	0.00757	0.00109
293.55	0.00752	0.00108
305.94	0.0211	0.0035
305.98	0.0204	0.0034
308.52	0.0263	0.0045
310.94	0.0309	0.0054
310.94	0.0315	0.0055

System: tricyclo(3.3.1.1:3,7)decan-1-amine; phases: Crystal 1, Gas
Property: Vapor or sublimation pressure, kPa (Crystal 1); method: Transpiration method
Temperature, K	Vapor or sublimation pressure, kPa	uncertainty
291.2	0.00632	0.00032
294.2	0.00832	0.00042
297.1	0.0107	0.0005
300.1	0.0137	0.0007
303.2	0.0186	0.0009
305.6	0.0223	0.0011
308.1	0.027	0.0014
310.4	0.0291	0.0015
313.2	0.0396	0.002
318	0.0535	0.0027
318.3	0.0549	0.0027
323.3	0.0777	0.0039
328.1	0.108	0.005
333.4	0.148	0.007
333.4	0.153	0.008
338.3	0.2	0.01
338.5	0.205	0.01
343.4	0.269	0.014
343.6	0.286	0.014

System: tricyclo(3.3.1.1:3,7)decan-1-amine; phases: Crystal 3
Fixed: Pressure, kPa = 101.325
Property: Molar entropy, J/K/mol (Crystal 3); method: Small (less than 1 g) adiabatic calorimetry
Temperature, K	Molar entropy, J/K/mol	uncertainty
5	0.1563	0.0345
10	1.224	0.06
15	3.654	0.107
20	7.177	0.16
25	11.34	0.2
30	15.78	0.27
35	20.26	0.3
40	24.67	0.33
45	28.93	0.37
50	33.04	0.4
60	40.81	0.46
70	48.08	0.51
80	55.02	0.56
90	61.75	0.67
100	68.34	0.71
110	74.84	0.75
120	81.28	0.79
130	87.72	0.83
140	94.12	0.83
150	100.5	0.92
160	107	0.92
170	113.5	1
180	120.1	1
190	126.8	1.1
200	133.6	1.1
210	140.5	1.2
220	147.5	1.2
230	154.7	1.2
240	162	1.2
241.4	163.1	1.2

System: tricyclo(3.3.1.1:3,7)decan-1-amine; phases: Crystal 2
Fixed: Pressure, kPa = 101.325
Property: Molar entropy, J/K/mol (Crystal 2); method: Small (less than 1 g) adiabatic calorimetry
Temperature, K	Molar entropy, J/K/mol	uncertainty
241.4	170.2	1.3
250	176.7	1.3
260	184.4	1.4
270	192.3	1.4
280	200.4	1.5
284.6	204.2	1.5

System: tricyclo(3.3.1.1:3,7)decan-1-amine; phases: Crystal 1
Fixed: Pressure, kPa = 101.325
Property: Molar entropy, J/K/mol (Crystal 1); method: Small (less than 1 g) adiabatic calorimetry
Temperature, K	Molar entropy, J/K/mol	uncertainty
284.6	222.8	1.7
290	227.8	1.7
298.15	235.2	1.7
300	236.8	1.7
310	245.6	1.7
320	254.2	1.8
330	262.6	1.9
340	270.7	1.9
350	278.8	2
360	286.7	2
370	294.4	2.1

System: tricyclo(3.3.1.1:3,7)decan-1-amine; phases: Crystal 3
Fixed: Pressure, kPa = 101.325
Property: Molar enthalpy function {Hm(T)-Hm(0)}/T, J/K/mol (Crystal 3); method: Small (less than 1 g) adiabatic calorimetry
Temperature, K	Molar enthalpy function {Hm(T)-Hm(0)}/T, J/K/mol	uncertainty
5	0.117234027	0.0223659243
10	0.913760253	0.034920774
15	2.670607764	0.05820129
20	5.103421686	0.081481806
25	7.835556528	0.098942193
30	10.60094925	0.14966046
35	13.25326518	0.1662894
40	15.72266277	0.18291834
45	18.00082755	0.19123281
50	20.10438846	0.19954728
60	23.8625289	0.21617622
70	27.20494584	0.23280516
80	30.30624315	0.2494341
90	33.29113788	0.3325788
100	36.22614579	0.34089327
110	39.13621029	0.35752221
120	42.04627479	0.36583668
130	44.97296823	0.38246562
140	47.94123402	0.39078009
150	50.95938663	0.40740903
160	54.03574053	0.4157235
170	57.18692466	0.43235244
180	60.42125349	0.44066691
190	63.75535596	0.45729585
200	67.18923207	0.46561032
210	70.73119629	0.48223926
220	74.39787756	0.4988682
230	78.19759035	0.51549714
240	82.13033466	0.53212608
241.4	82.69571862	0.53212608

System: tricyclo(3.3.1.1:3,7)decan-1-amine; phases: Crystal 2
Fixed: Pressure, kPa = 101.325
Property: Molar enthalpy function {Hm(T)-Hm(0)}/T, J/K/mol (Crystal 2); method: Small (less than 1 g) adiabatic calorimetry
Temperature, K	Molar enthalpy function {Hm(T)-Hm(0)}/T, J/K/mol	uncertainty
241.4	89.796276	0.5820129
250	93.0389193	0.5820129
260	97.0298649	0.5820129
270	101.1870999	0.5820129
280	105.593769	0.6651576
284.6	107.5892418	0.6651576

System: tricyclo(3.3.1.1:3,7)decan-1-amine; phases: Crystal 1
Fixed: Pressure, kPa = 101.325
Property: Molar enthalpy function {Hm(T)-Hm(0)}/T, J/K/mol (Crystal 1); method: Small (less than 1 g) adiabatic calorimetry
Temperature, K	Molar enthalpy function {Hm(T)-Hm(0)}/T, J/K/mol	uncertainty
284.6	126.2967993	0.7483023
290	128.874285	0.7483023
298.15	132.6157965	0.7483023
300	133.3640988	0.7483023
310	137.7707679	0.7483023
320	141.8448582	0.7483023
330	145.8358038	0.7483023
340	149.5773153	0.831447
350	153.2356821	0.831447
360	156.7277595	0.831447
370	160.2198369	0.831447

Reaction: -1 tricyclo(3.3.1.1:3,7)decan-1-amine + 10 carbon dioxide + .5 nitrogen + 8.5 water + -14.25 oxygen
Property: Molar internal energy of reaction at constant volume, kJ/mol
-6159.9
