Measured thermophysical data. Ultrasonic study of molecular interactions in binary mixtures of methyl acrylate with 1-alkanols (C4 to C10) at temperatures from (288.15 to 318.15) K
Source: J. Chem. Thermodyn., 2013, 10.1016/j.jct.2012.11.027
Compound 1: methyl propenoate, C4H6O2, InChI=1S/C4H6O2/c1-3-4(5)6-2/h3H,1H2,2H3, purity 99%
Compound 2: butan-1-ol, C4H10O, InChI=1S/C4H10O/c1-2-3-4-5/h5H,2-4H2,1H3, purity 99%
Compound 3: hexan-1-ol, C6H14O, InChI=1S/C6H14O/c1-2-3-4-5-6-7/h7H,2-6H2,1H3, purity 99%
Compound 4: octan-1-ol, C8H18O, InChI=1S/C8H18O/c1-2-3-4-5-6-7-8-9/h9H,2-8H2,1H3, purity 99%
Compound 5: decan-1-ol, C10H22O, InChI=1S/C10H22O/c1-2-3-4-5-6-7-8-9-10-11/h11H,2-10H2,1H3, purity 99%

System: methyl propenoate; phases: Liquid
Fixed: Pressure, kPa = 101
Property: Speed of sound, m/s (Liquid); method: Linear variable-path acoustic interferometer
Temperature, K	Speed of sound, m/s	uncertainty
288.15	1226.6	1.8
293.15	1204.6	1.8
298.15	1183.6	1.8
303.15	1162.2	1.7
308.15	1139.1	1.7
313.15	1117.8	1.7
318.15	1095.7	1.7

System: butan-1-ol; phases: Liquid
Fixed: Pressure, kPa = 101
Property: Speed of sound, m/s (Liquid); method: Linear variable-path acoustic interferometer
Temperature, K	Speed of sound, m/s	uncertainty
288.15	1282.2	1.9
293.15	1262.4	1.9
298.15	1242.6	1.8
303.15	1225.8	1.8
308.15	1207.6	1.8
313.15	1189.2	1.8
318.15	1170	1.8

System: hexan-1-ol; phases: Liquid
Fixed: Pressure, kPa = 101
Property: Speed of sound, m/s (Liquid); method: Linear variable-path acoustic interferometer
Temperature, K	Speed of sound, m/s	uncertainty
288.15	1339.2	1.9
293.15	1321.2	1.9
298.15	1306.9	1.9
303.15	1289.5	1.9
308.15	1275.7	1.9
313.15	1256.3	1.9
318.15	1237.5	1.8

System: octan-1-ol; phases: Liquid
Fixed: Pressure, kPa = 101
Property: Speed of sound, m/s (Liquid); method: Linear variable-path acoustic interferometer
Temperature, K	Speed of sound, m/s	uncertainty
288.15	1390.2	2
293.15	1371.5	2
298.15	1352.4	2
303.15	1333.1	2
308.15	1315.7	2
313.15	1298.9	1.9
318.15	1282.9	1.9

System: decan-1-ol; phases: Liquid
Fixed: Pressure, kPa = 101
Property: Speed of sound, m/s (Liquid); method: Linear variable-path acoustic interferometer
Temperature, K	Speed of sound, m/s	uncertainty
288.15	1410.6	2
293.15	1393.6	2
298.15	1377.3	2
303.15	1359.8	2
308.15	1345.7	2
313.15	1326.7	2
318.15	1312.1	1.9

System: butan-1-ol + methyl propenoate; phases: Liquid
Fixed: Pressure, kPa = 101
Property: Speed of sound, m/s (Liquid); method: Linear variable-path acoustic interferometer
Mole fraction of methyl propenoate	Temperature, K	Speed of sound, m/s	uncertainty
0	288.15	1282.2	1.9
0.0777	288.15	1271.2	1.9
0.1555	288.15	1261.3	1.9
0.2273	288.15	1253.3	1.9
0.299	288.15	1247	1.8
0.3791	288.15	1241.3	1.8
0.4593	288.15	1236.9	1.8
0.5344	288.15	1233.9	1.8
0.6095	288.15	1231.7	1.8
0.6789	288.15	1230.3	1.8
0.7483	288.15	1229.2	1.8
0.8099	288.15	1228.5	1.8
0.8715	288.15	1228	1.8
0.9358	288.15	1227.4	1.8
1	288.15	1226.6	1.8
0	293.15	1262.4	1.9
0.0777	293.15	1250.8	1.9
0.1555	293.15	1240.6	1.8
0.2273	293.15	1232.6	1.8
0.299	293.15	1226.3	1.8
0.3791	293.15	1220.5	1.8
0.4593	293.15	1216.1	1.8
0.5344	293.15	1212.8	1.8
0.6095	293.15	1210.5	1.8
0.6789	293.15	1208.9	1.8
0.7483	293.15	1207.7	1.8
0.8099	293.15	1206.9	1.8
0.8715	293.15	1206.2	1.8
0.9358	293.15	1205.5	1.8
1	293.15	1204.6	1.8
0	298.15	1242.6	1.8
0.0777	298.15	1230.5	1.8
0.1555	298.15	1220.1	1.8
0.2273	298.15	1212.2	1.8
0.299	298.15	1205.9	1.8
0.3791	298.15	1200.2	1.8
0.4593	298.15	1195.7	1.8
0.5344	298.15	1192.4	1.8
0.6095	298.15	1189.9	1.8
0.6789	298.15	1188.2	1.8
0.7483	298.15	1186.9	1.8
0.8099	298.15	1186	1.8
0.8715	298.15	1185.3	1.8
0.9358	298.15	1184.5	1.8
1	298.15	1183.6	1.8
0	303.15	1225.8	1.8
0.0777	303.15	1212.8	1.8
0.1555	303.15	1202.2	1.8
0.2273	303.15	1194.2	1.8
0.299	303.15	1187.7	1.8
0.3791	303.15	1181.7	1.8
0.4593	303.15	1176.8	1.8
0.5344	303.15	1173.1	1.8
0.6095	303.15	1170.3	1.8
0.6789	303.15	1168.2	1.8
0.7483	303.15	1166.6	1.8
0.8099	303.15	1165.4	1.8
0.8715	303.15	1164.4	1.8
0.9358	303.15	1163.4	1.7
1	303.15	1162.2	1.7
0	308.15	1207.6	1.8
0.0777	308.15	1193.9	1.8
0.1555	308.15	1182.9	1.8
0.2273	308.15	1174.7	1.8
0.299	308.15	1167.9	1.8
0.3791	308.15	1161.6	1.8
0.4593	308.15	1156.4	1.8
0.5344	308.15	1152.4	1.7
0.6095	308.15	1149.2	1.7
0.6789	308.15	1146.7	1.7
0.7483	308.15	1144.6	1.7
0.8099	308.15	1143.1	1.7
0.8715	308.15	1141.7	1.7
0.9358	308.15	1140.4	1.7
1	308.15	1139.1	1.7
0	313.15	1189.2	1.8
0.0777	313.15	1174.9	1.8
0.1555	313.15	1163.7	1.8
0.2273	313.15	1155.5	1.8
0.299	313.15	1148.7	1.8
0.3791	313.15	1142.2	1.7
0.4593	313.15	1136.8	1.7
0.5344	313.15	1132.5	1.7
0.6095	313.15	1128.9	1.7
0.6789	313.15	1126.2	1.7
0.7483	313.15	1123.8	1.7
0.8099	313.15	1122.1	1.7
0.8715	313.15	1120.6	1.7
0.9358	313.15	1119	1.7
1	313.15	1117.8	1.7
0	318.15	1170	1.8
0.0777	318.15	1155	1.8
0.1555	318.15	1143.8	1.8
0.2273	318.15	1135.6	1.7
0.299	318.15	1128.7	1.7
0.3791	318.15	1122.1	1.7
0.4593	318.15	1116.5	1.7
0.5344	318.15	1111.9	1.7
0.6095	318.15	1108	1.7
0.6789	318.15	1104.9	1.7
0.7483	318.15	1102.3	1.7
0.8099	318.15	1100.4	1.7
0.8715	318.15	1098.6	1.7
0.9358	318.15	1096.9	1.7
1	318.15	1095.7	1.7

System: methyl propenoate + hexan-1-ol; phases: Liquid
Fixed: Pressure, kPa = 101
Property: Speed of sound, m/s (Liquid); method: Linear variable-path acoustic interferometer
Mole fraction of methyl propenoate	Temperature, K	Speed of sound, m/s	uncertainty
0	288.15	1339.2	1.9
0.077	288.15	1325.5	1.9
0.1542	288.15	1311.1	1.9
0.2299	288.15	1297.1	1.9
0.3057	288.15	1284.1	1.9
0.3834	288.15	1272	1.9
0.4612	288.15	1261.7	1.9
0.534	288.15	1253.5	1.8
0.6068	288.15	1246.6	1.8
0.672	288.15	1241.3	1.8
0.737	288.15	1237.3	1.8
0.8046	288.15	1233.9	1.8
0.8722	288.15	1231.2	1.8
0.9361	288.15	1229.1	1.8
1	288.15	1226.6	1.8
0	293.15	1321.2	1.9
0.077	293.15	1306.4	1.9
0.1542	293.15	1291.6	1.9
0.2299	293.15	1277.5	1.9
0.3057	293.15	1264.4	1.9
0.3834	293.15	1252.3	1.8
0.4612	293.15	1242	1.8
0.534	293.15	1233.6	1.8
0.6068	293.15	1226.4	1.8
0.672	293.15	1220.8	1.8
0.737	293.15	1216.6	1.8
0.8046	293.15	1212.9	1.8
0.8722	293.15	1209.8	1.8
0.9361	293.15	1207.4	1.8
1	293.15	1204.6	1.8
0	298.15	1306.9	1.9
0.077	298.15	1290.5	1.9
0.1542	298.15	1275.3	1.9
0.2299	298.15	1260.7	1.9
0.3057	298.15	1247.4	1.8
0.3834	298.15	1235.1	1.8
0.4612	298.15	1224.5	1.8
0.534	298.15	1215.9	1.8
0.6068	298.15	1208.2	1.8
0.672	298.15	1202.2	1.8
0.737	298.15	1197.5	1.8
0.8046	298.15	1193.4	1.8
0.8722	298.15	1189.8	1.8
0.9361	298.15	1186.7	1.8
1	298.15	1183.6	1.8
0	303.15	1289.5	1.9
0.077	303.15	1272	1.9
0.1542	303.15	1256.1	1.9
0.2299	303.15	1241.8	1.8
0.3057	303.15	1228.5	1.8
0.3834	303.15	1216.4	1.8
0.4612	303.15	1205.6	1.8
0.534	303.15	1196.7	1.8
0.6068	303.15	1188.7	1.8
0.672	303.15	1182.4	1.8
0.737	303.15	1177.4	1.8
0.8046	303.15	1172.8	1.8
0.8722	303.15	1168.7	1.8
0.9361	303.15	1165.4	1.8
1	303.15	1162.2	1.7
0	308.15	1275.7	1.9
0.077	308.15	1256.5	1.9
0.1542	308.15	1240.1	1.8
0.2299	308.15	1225.1	1.8
0.3057	308.15	1211.6	1.8
0.3834	308.15	1199.1	1.8
0.4612	308.15	1187.9	1.8
0.534	308.15	1178.5	1.8
0.6068	308.15	1169.8	1.8
0.672	308.15	1162.8	1.8
0.737	308.15	1157	1.7
0.8046	308.15	1151.6	1.7
0.8722	308.15	1146.7	1.7
0.9361	308.15	1142.6	1.7
1	308.15	1139.1	1.7
0	313.15	1256.3	1.9
0.077	313.15	1236.3	1.8
0.1542	313.15	1219.7	1.8
0.2299	313.15	1204.8	1.8
0.3057	313.15	1191.6	1.8
0.3834	313.15	1179.4	1.8
0.4612	313.15	1168.1	1.8
0.534	313.15	1158.6	1.8
0.6068	313.15	1149.7	1.7
0.672	313.15	1142.4	1.7
0.737	313.15	1136.3	1.7
0.8046	313.15	1130.6	1.7
0.8722	313.15	1125.4	1.7
0.9361	313.15	1121.2	1.7
1	313.15	1117.8	1.7
0	318.15	1237.5	1.8
0.077	318.15	1216.5	1.8
0.1542	318.15	1199.7	1.8
0.2299	318.15	1185.1	1.8
0.3057	318.15	1171.8	1.8
0.3834	318.15	1159.6	1.8
0.4612	318.15	1148.2	1.7
0.534	318.15	1138.4	1.7
0.6068	318.15	1129.3	1.7
0.672	318.15	1121.7	1.7
0.737	318.15	1115.2	1.7
0.8046	318.15	1109.1	1.7
0.8722	318.15	1103.5	1.7
0.9361	318.15	1099.4	1.7
1	318.15	1095.7	1.7

System: methyl propenoate + octan-1-ol; phases: Liquid
Fixed: Pressure, kPa = 101
Property: Speed of sound, m/s (Liquid); method: Linear variable-path acoustic interferometer
Mole fraction of methyl propenoate	Temperature, K	Speed of sound, m/s	uncertainty
0	288.15	1390.2	2
0.077	288.15	1371.5	2
0.1554	288.15	1352.2	2
0.2304	288.15	1333.7	2
0.3053	288.15	1316.3	1.9
0.383	288.15	1299.9	1.9
0.4603	288.15	1285	1.9
0.5321	288.15	1272.6	1.9
0.6038	288.15	1262.4	1.9
0.6724	288.15	1253.7	1.9
0.741	288.15	1246.5	1.8
0.8052	288.15	1241.4	1.8
0.8698	288.15	1236.3	1.8
0.935	288.15	1231.8	1.8
1	288.15	1226.6	1.8
0	293.15	1371.5	2
0.077	293.15	1352.2	2
0.1554	293.15	1331.8	2
0.2304	293.15	1313.6	1.9
0.3053	293.15	1296.3	1.9
0.383	293.15	1280	1.9
0.4603	293.15	1265.1	1.9
0.5321	293.15	1252.5	1.9
0.6038	293.15	1242	1.8
0.6724	293.15	1233.3	1.8
0.741	293.15	1225.8	1.8
0.8052	293.15	1220.1	1.8
0.8698	293.15	1214.7	1.8
0.935	293.15	1209.6	1.8
1	293.15	1204.6	1.8
0	298.15	1352.4	2
0.077	298.15	1331.5	2
0.1554	298.15	1311.5	1.9
0.2304	298.15	1293.4	1.9
0.3053	298.15	1276	1.9
0.383	298.15	1259.7	1.9
0.4603	298.15	1244.7	1.9
0.5321	298.15	1232.1	1.8
0.6038	298.15	1221.6	1.8
0.6724	298.15	1212.9	1.8
0.741	298.15	1205.4	1.8
0.8052	298.15	1199.4	1.8
0.8698	298.15	1193.7	1.8
0.935	298.15	1188.3	1.8
1	298.15	1183.6	1.8
0	303.15	1333.1	2
0.077	303.15	1310.8	1.9
0.1554	303.15	1290.9	1.9
0.2304	303.15	1273.1	1.9
0.3053	303.15	1255.8	1.9
0.383	303.15	1239.6	1.9
0.4603	303.15	1224.5	1.8
0.5321	303.15	1212.1	1.8
0.6038	303.15	1201.3	1.8
0.6724	303.15	1192.3	1.8
0.741	303.15	1184.7	1.8
0.8052	303.15	1178.5	1.8
0.8698	303.15	1172.5	1.8
0.935	303.15	1166.8	1.8
1	303.15	1162.2	1.7
0	308.15	1315.7	2
0.077	308.15	1292.2	1.9
0.1554	308.15	1271.8	1.9
0.2304	308.15	1253.6	1.9
0.3053	308.15	1236	1.9
0.383	308.15	1219.7	1.8
0.4603	308.15	1204.5	1.8
0.5321	308.15	1192.1	1.8
0.6038	308.15	1181.1	1.8
0.6724	308.15	1171.7	1.8
0.741	308.15	1163.6	1.8
0.8052	308.15	1156.7	1.8
0.8698	308.15	1150.2	1.7
0.935	308.15	1144.2	1.7
1	308.15	1139.1	1.7
0	313.15	1298.9	1.9
0.077	313.15	1274.2	1.9
0.1554	313.15	1253.4	1.9
0.2304	313.15	1234.9	1.9
0.3053	313.15	1217.5	1.8
0.383	313.15	1200.9	1.8
0.4603	313.15	1185.9	1.8
0.5321	313.15	1173.4	1.8
0.6038	313.15	1162.1	1.8
0.6724	313.15	1152.5	1.8
0.741	313.15	1143.8	1.7
0.8052	313.15	1136.5	1.7
0.8698	313.15	1129.6	1.7
0.935	313.15	1123.1	1.7
1	313.15	1117.8	1.7
0	318.15	1282.9	1.9
0.077	318.15	1256.8	1.9
0.1554	318.15	1235.1	1.9
0.2304	318.15	1216.4	1.8
0.3053	318.15	1198.9	1.8
0.383	318.15	1182.4	1.8
0.4603	318.15	1167.5	1.8
0.5321	318.15	1154.8	1.8
0.6038	318.15	1143.1	1.7
0.6724	318.15	1132.8	1.7
0.741	318.15	1123.6	1.7
0.8052	318.15	1115.7	1.7
0.8698	318.15	1108.3	1.7
0.935	318.15	1101.5	1.7
1	318.15	1095.7	1.7

System: methyl propenoate + decan-1-ol; phases: Liquid
Fixed: Pressure, kPa = 101
Property: Speed of sound, m/s (Liquid); method: Linear variable-path acoustic interferometer
Mole fraction of methyl propenoate	Temperature, K	Speed of sound, m/s	uncertainty
0	288.15	1410.6	2
0.0762	288.15	1388.2	2
0.1523	288.15	1366.7	2
0.2225	288.15	1346.9	2
0.3073	288.15	1324.4	1.9
0.3848	288.15	1304.7	1.9
0.4622	288.15	1286.4	1.9
0.5356	288.15	1270.8	1.9
0.6092	288.15	1257.7	1.9
0.6768	288.15	1247.2	1.8
0.7443	288.15	1238.8	1.8
0.8089	288.15	1233.4	1.8
0.8736	288.15	1229.8	1.8
0.9412	288.15	1227.4	1.8
1	288.15	1226.6	1.8
0	293.15	1393.6	2
0.0762	293.15	1370.2	2
0.1523	293.15	1348.2	2
0.2225	293.15	1328.3	1.9
0.3073	293.15	1304.9	1.9
0.3848	293.15	1285.2	1.9
0.4622	293.15	1267	1.9
0.5356	293.15	1251.3	1.9
0.6092	293.15	1238.3	1.8
0.6768	293.15	1227.9	1.8
0.7443	293.15	1219.3	1.8
0.8089	293.15	1213.4	1.8
0.8736	293.15	1209.1	1.8
0.9412	293.15	1206.1	1.8
1	293.15	1204.6	1.8
0	298.15	1377.3	2
0.0762	298.15	1352.1	2
0.1523	298.15	1330.6	2
0.2225	298.15	1310.1	1.9
0.3073	298.15	1286.5	1.9
0.3848	298.15	1267	1.9
0.4622	298.15	1248.9	1.9
0.5356	298.15	1233	1.8
0.6092	298.15	1219.8	1.8
0.6768	298.15	1209.4	1.8
0.7443	298.15	1200.6	1.8
0.8089	298.15	1193.9	1.8
0.8736	298.15	1189.2	1.8
0.9412	298.15	1185.6	1.8
1	298.15	1183.6	1.8
0	303.15	1359.8	2
0.0762	303.15	1333.5	2
0.1523	303.15	1312.1	1.9
0.2225	303.15	1291.2	1.9
0.3073	303.15	1268.1	1.9
0.3848	303.15	1248.2	1.9
0.4622	303.15	1230	1.8
0.5356	303.15	1214.6	1.8
0.6092	303.15	1201.2	1.8
0.6768	303.15	1190.4	1.8
0.7443	303.15	1181.3	1.8
0.8089	303.15	1174.3	1.8
0.8736	303.15	1169.1	1.8
0.9412	303.15	1164.6	1.8
1	303.15	1162.2	1.7
0	308.15	1345.7	2
0.0762	308.15	1318.1	1.9
0.1523	308.15	1295.8	1.9
0.2225	308.15	1275.1	1.9
0.3073	308.15	1251.5	1.9
0.3848	308.15	1231.2	1.8
0.4622	308.15	1212.8	1.8
0.5356	308.15	1197	1.8
0.6092	308.15	1183	1.8
0.6768	308.15	1171.8	1.8
0.7443	308.15	1161.9	1.8
0.8089	308.15	1154.1	1.7
0.8736	308.15	1147.8	1.7
0.9412	308.15	1142.5	1.7
1	308.15	1139.1	1.7
0	313.15	1326.7	2
0.0762	313.15	1299.5	1.9
0.1523	313.15	1276.3	1.9
0.2225	313.15	1255.2	1.9
0.3073	313.15	1231.5	1.9
0.3848	313.15	1211.3	1.8
0.4622	313.15	1193.1	1.8
0.5356	313.15	1177.4	1.8
0.6092	313.15	1163.6	1.8
0.6768	313.15	1152.1	1.8
0.7443	313.15	1141.8	1.7
0.8089	313.15	1134	1.7
0.8736	313.15	1127.2	1.7
0.9412	313.15	1121.4	1.7
1	313.15	1117.8	1.7
0	318.15	1312.1	1.9
0.0762	318.15	1284	1.9
0.1523	318.15	1259.4	1.9
0.2225	318.15	1238.1	1.9
0.3073	318.15	1214.4	1.8
0.3848	318.15	1194.3	1.8
0.4622	318.15	1175.6	1.8
0.5356	318.15	1160	1.8
0.6092	318.15	1145.6	1.8
0.6768	318.15	1133.7	1.7
0.7443	318.15	1123.2	1.7
0.8089	318.15	1114.4	1.7
0.8736	318.15	1106.9	1.7
0.9412	318.15	1100.4	1.7
1	318.15	1095.7	1.7
