Measured thermophysical data. Liquid-liquid equilibrium for (water + 5-hydroxymethylfurfural + 1-pentanol/1-hexanol/1-heptanol) systems at 298.15 K
Source: J. Chem. Thermodyn., 2019, 10.1016/j.jct.2019.06.010
Compound 1: water, H2O, InChI=1S/H2O/h1H2
Compound 2: 5-(hydroxymethyl)furan-2-carbaldehyde, C6H6O3, InChI=1S/C6H6O3/c7-3-5-1-2-6(4-8)9-5/h1-3,8H,4H2, purity 99%
Compound 3: pentan-1-ol, C5H12O, InChI=1S/C5H12O/c1-2-3-4-5-6/h6H,2-5H2,1H3, purity 99%
Compound 4: hexan-1-ol, C6H14O, InChI=1S/C6H14O/c1-2-3-4-5-6-7/h7H,2-6H2,1H3, purity 99%
Compound 5: heptan-1-ol, C7H16O, InChI=1S/C7H16O/c1-2-3-4-5-6-7-8/h8H,2-7H2,1H3, purity 98%

System: pentan-1-ol; phases: Liquid
Property: Refractive index (Na D-line) (Liquid); method: Standard Abbe refractometry
Temperature, K	Pressure, kPa	Refractive index (Na D-line)	uncertainty
298.15	101.325	1.4071	0.004

System: hexan-1-ol; phases: Liquid
Property: Refractive index (Na D-line) (Liquid); method: Standard Abbe refractometry
Temperature, K	Pressure, kPa	Refractive index (Na D-line)	uncertainty
298.15	101.325	1.416	0.004

System: heptan-1-ol; phases: Liquid
Property: Refractive index (Na D-line) (Liquid); method: Standard Abbe refractometry
Temperature, K	Pressure, kPa	Refractive index (Na D-line)	uncertainty
298.15	101.325	1.4223	0.006

System: water + 5-(hydroxymethyl)furan-2-carbaldehyde + pentan-1-ol; phases: Liquid
Fixed: Temperature, K = 298.15
Fixed: Pressure, kPa = 100
Property: Refractive index (Na D-line) (Liquid); method: Standard Abbe refractometry
Mass fraction of water	Mass fraction of 5-(hydroxymethyl)furan-2-carbaldehyde	Refractive index (Na D-line)	uncertainty
0.1014	0	1.4019	0.0041
0.1162	0.0889	1.4101	0.0043
0.1378	0.1725	1.4184	0.0043
0.1773	0.2466	1.4247	0.0043
0.2212	0.3115	1.4302	0.0044
0.2504	0.3372	1.4317	0.0044
0.2916	0.354	1.4312	0.0045
0.3332	0.3653	1.4298	0.0045
0.3664	0.3628	1.4266	0.0044
0.3976	0.3611	1.4248	0.0043
0.5088	0.3416	1.4137	0.0044
0.5861	0.3117	1.4038	0.0044
0.6467	0.2743	1.3946	0.0042
0.6599	0.2721	1.3926	0.0042
0.8734	0.0965	1.3542	0.0043
0.9757	0	1.3348	0.0041

System: water + 5-(hydroxymethyl)furan-2-carbaldehyde + pentan-1-ol; phases: Liquid mixture 1, Liquid mixture 2
Fixed: Pressure, kPa = 100
Fixed: Temperature, K = 298.15
Property: Mass fraction of 5-(hydroxymethyl)furan-2-carbaldehyde (Liquid mixture 1); method: Titration method
Mass fraction of water	Mass fraction of 5-(hydroxymethyl)furan-2-carbaldehyde	uncertainty
0.1014	0	
0.1162	0.0889	0.037
0.1378	0.1725	0.023
0.1773	0.2466	0.0191
0.2212	0.3115	0.0181
0.2504	0.3372	0.0166
0.2916	0.354	0.0164
0.3332	0.3653	0.0165
0.3664	0.3628	0.0164
0.3976	0.3611	0.0164
0.5088	0.3416	0.0161
0.5861	0.3117	0.0159
0.6467	0.2743	0.015
0.6599	0.2721	0.015
0.8734	0.0965	0.0145
0.9757	0	

System: water + 5-(hydroxymethyl)furan-2-carbaldehyde + pentan-1-ol; phases: Liquid mixture 2, Liquid mixture 1
Fixed: Temperature, K = 298.15
Fixed: Pressure, kPa = 100
Property: Mass fraction of water (Liquid mixture 2); method: Titration method
Property: Mass fraction of water (Liquid mixture 1); method: Titration method
Property: Mass fraction of 5-(hydroxymethyl)furan-2-carbaldehyde (Liquid mixture 1); method: Titration method
Mass fraction of 5-(hydroxymethyl)furan-2-carbaldehyde	Mass fraction of water	uncertainty	Mass fraction of water	uncertainty	Mass fraction of 5-(hydroxymethyl)furan-2-carbaldehyde	uncertainty
0.0289	0.9186	0.018	0.1249	0.0113	0.073	
0.0687	0.8766	0.0211	0.1406	0.0113	0.1282	
0.1029	0.8219	0.0182	0.1549	0.0116	0.1905	
0.1567	0.7837	0.0173	0.1715	0.0125	0.2381	
0.1958	0.7359	0.0212	0.1972	0.0132	0.2935	

System: water + 5-(hydroxymethyl)furan-2-carbaldehyde + hexan-1-ol; phases: Liquid
Fixed: Temperature, K = 298.15
Fixed: Pressure, kPa = 100
Property: Refractive index (Na D-line) (Liquid); method: Standard Abbe refractometry
Mass fraction of water	Mass fraction of 5-(hydroxymethyl)furan-2-carbaldehyde	Refractive index (Na D-line)	uncertainty
0.0793	0	1.4109	0.0041
0.1038	0.0901	1.4182	0.0042
0.1124	0.1773	1.425	0.0043
0.1327	0.2603	1.4343	0.0044
0.1627	0.3346	1.4386	0.0042
0.2338	0.4211	1.4406	0.0044
0.2611	0.4429	1.4424	0.0041
0.3069	0.4557	1.4441	0.0042
0.3905	0.4723	1.4415	0.0042
0.4611	0.4561	1.4337	0.0042
0.5347	0.4063	1.4234	0.0056
0.577	0.3806	1.4137	0.0056
0.6846	0.2904	1.3918	0.0043
0.7891	0.1956	1.3723	0.0043
0.8889	0.0978	1.3522	0.0043
0.9945	0	1.3334	0.004

System: water + 5-(hydroxymethyl)furan-2-carbaldehyde + hexan-1-ol; phases: Liquid mixture 1, Liquid mixture 2
Fixed: Pressure, kPa = 100
Fixed: Temperature, K = 298.15
Property: Mass fraction of 5-(hydroxymethyl)furan-2-carbaldehyde (Liquid mixture 1); method: Titration method
Mass fraction of water	Mass fraction of 5-(hydroxymethyl)furan-2-carbaldehyde	uncertainty
0.0793	0	
0.1038	0.0901	0.039
0.1124	0.1773	0.0433
0.1327	0.2603	0.027
0.1627	0.3346	0.0192
0.2338	0.4211	0.0191
0.2611	0.4429	0.0179
0.3069	0.4557	0.018
0.3905	0.4723	0.0182
0.4611	0.4561	0.0182
0.5347	0.4063	0.0176
0.577	0.3806	0.0174
0.6846	0.2904	0.0162
0.7891	0.1956	0.0153
0.8889	0.0978	0.0145
0.9945	0	

System: water + 5-(hydroxymethyl)furan-2-carbaldehyde + hexan-1-ol; phases: Liquid mixture 2, Liquid mixture 1
Fixed: Temperature, K = 298.15
Fixed: Pressure, kPa = 100
Property: Mass fraction of water (Liquid mixture 2); method: Titration method
Property: Mass fraction of water (Liquid mixture 1); method: Titration method
Property: Mass fraction of 5-(hydroxymethyl)furan-2-carbaldehyde (Liquid mixture 1); method: Titration method
Mass fraction of 5-(hydroxymethyl)furan-2-carbaldehyde	Mass fraction of water	uncertainty	Mass fraction of water	uncertainty	Mass fraction of 5-(hydroxymethyl)furan-2-carbaldehyde	uncertainty
0.1025	0.8698	0.0161	0.0911	0.0087	0.0958	
0.1513	0.8229	0.0173	0.1001	0.0091	0.1489	
0.251	0.7172	0.0189	0.1263	0.0095	0.2515	
0.3042	0.6571	0.0199	0.1392	0.0103	0.2911	
0.3644	0.5922	0.0206	0.1546	0.0108	0.3286	

System: water + 5-(hydroxymethyl)furan-2-carbaldehyde + heptan-1-ol; phases: Liquid
Fixed: Temperature, K = 298.15
Fixed: Pressure, kPa = 100
Property: Refractive index (Na D-line) (Liquid); method: Standard Abbe refractometry
Mass fraction of water	Mass fraction of 5-(hydroxymethyl)furan-2-carbaldehyde	Refractive index (Na D-line)	uncertainty
0.065	0	1.4176	0.0061
0.0739	0.0944	1.4254	0.0062
0.0896	0.1838	1.4327	0.0064
0.1079	0.2697	1.4477	0.0065
0.1307	0.3928	1.4646	0.0064
0.1747	0.4968	1.469	0.0063
0.2151	0.551	1.4711	0.0061
0.2312	0.5771	1.4706	0.006
0.2551	0.587	1.4704	0.0062
0.3266	0.597	1.4646	0.0063
0.3799	0.5643	1.4541	0.0062
0.4294	0.5163	1.445	0.0062
0.4823	0.4775	1.4336	0.0064
0.5849	0.385	1.4118	0.0062
0.6856	0.2879	1.3905	0.0063
0.7862	0.1951	1.3709	0.0062
0.8858	0.0975	1.3515	0.0062
0.9986	0	1.3327	0.006

System: water + 5-(hydroxymethyl)furan-2-carbaldehyde + heptan-1-ol; phases: Liquid mixture 1, Liquid mixture 2
Fixed: Pressure, kPa = 100
Fixed: Temperature, K = 298.15
Property: Mass fraction of 5-(hydroxymethyl)furan-2-carbaldehyde (Liquid mixture 1); method: Titration method
Mass fraction of water	Mass fraction of 5-(hydroxymethyl)furan-2-carbaldehyde	uncertainty
0.065	0	
0.0739	0.0944	0.0626
0.0896	0.1838	0.0455
0.1079	0.2697	0.0455
0.1307	0.3928	0.0324
0.1747	0.4968	0.025
0.2151	0.551	0.0219
0.2312	0.5771	0.0194
0.2551	0.587	0.0179
0.3266	0.597	0.0176
0.3799	0.5643	0.0194
0.4294	0.5163	0.0204
0.4823	0.4775	0.0203
0.5849	0.385	0.019
0.6856	0.2879	0.0176
0.7862	0.1951	0.0165
0.8858	0.0975	0.0157
0.9986	0	

System: water + 5-(hydroxymethyl)furan-2-carbaldehyde + heptan-1-ol; phases: Liquid mixture 2, Liquid mixture 1
Fixed: Temperature, K = 298.15
Fixed: Pressure, kPa = 100
Property: Mass fraction of water (Liquid mixture 2); method: Titration method
Property: Mass fraction of water (Liquid mixture 1); method: Titration method
Property: Mass fraction of 5-(hydroxymethyl)furan-2-carbaldehyde (Liquid mixture 1); method: Titration method
Mass fraction of 5-(hydroxymethyl)furan-2-carbaldehyde	Mass fraction of water	uncertainty	Mass fraction of water	uncertainty	Mass fraction of 5-(hydroxymethyl)furan-2-carbaldehyde	uncertainty
0.0594	0.9376	0.0245	0.0642	0.0106	0.0463	
0.107	0.8712	0.0213	0.0693	0.0107	0.0749	
0.2247	0.7437	0.0213	0.0789	0.011	0.1201	
0.3494	0.6091	0.022	0.0879	0.011	0.1509	
0.4488	0.5171	0.024	0.0927	0.011	0.1777	
0.543	0.4037	0.0245	0.1051	0.0112	0.2281	

System: water + pentan-1-ol; phases: Liquid
Fixed: Temperature, K = 298.15
Fixed: Pressure, kPa = 100
Property: Refractive index (Na D-line) (Liquid); method: Standard Abbe refractometry
Mass fraction of water	Refractive index (Na D-line)	uncertainty
0.1014	1.4019	0.004
0.9757	1.3348	0.004

System: water + pentan-1-ol; phases: Liquid mixture 1, Liquid mixture 2
Fixed: Pressure, kPa = 100
Fixed: Temperature, K = 298.15
Property: Mass fraction of water (Liquid mixture 1); method: Titration method
Mass fraction of water	uncertainty
0.1014	0.0075
0.9757	0.0074

System: water + hexan-1-ol; phases: Liquid
Fixed: Temperature, K = 298.15
Fixed: Pressure, kPa = 100
Property: Refractive index (Na D-line) (Liquid); method: Standard Abbe refractometry
Mass fraction of water	Refractive index (Na D-line)	uncertainty
0.0793	1.4109	0.004
0.9945	1.3334	0.004

System: water + hexan-1-ol; phases: Liquid mixture 1, Liquid mixture 2
Fixed: Pressure, kPa = 100
Fixed: Temperature, K = 298.15
Property: Mass fraction of water (Liquid mixture 1); method: Titration method
Mass fraction of water	uncertainty
0.0793	0.0075
0.9945	0.0055

System: water + heptan-1-ol; phases: Liquid
Fixed: Temperature, K = 298.15
Fixed: Pressure, kPa = 100
Property: Refractive index (Na D-line) (Liquid); method: Standard Abbe refractometry
Mass fraction of water	Refractive index (Na D-line)	uncertainty
0.065	1.4176	0.006
0.9986	1.3327	0.006

System: water + heptan-1-ol; phases: Liquid mixture 1, Liquid mixture 2
Fixed: Pressure, kPa = 100
Fixed: Temperature, K = 298.15
Property: Mass fraction of water (Liquid mixture 1); method: Titration method
Mass fraction of water	uncertainty
0.065	0.0085
0.9986	0.0014
