Measured thermophysical data. Solubility measurement and thermodynamic modeling of solid-liquid equilibria in quaternary system NaCl-CaCl2-SrCl2-H2O at 323.15 K
Source: J. Chem. Thermodyn., 2019, 10.1016/j.jct.2019.04.015
Compound 1: sodium chloride, ClNa, InChI=1S/ClH.Na/h1H;/q;+1/p-1, purity 99.5%
Compound 2: calcium chloride, CaCl2, InChI=1S/Ca.2ClH/h;2*1H/q+2;;/p-2, purity 96%
Compound 3: strontium chloride, Cl2Sr, InChI=1S/2ClH.Sr/h2*1H;/q;;+2/p-2, purity 99.5%
Compound 4: water, H2O, InChI=1S/H2O/h1H2

System: sodium chloride + strontium chloride + water; phases: Liquid, Crystal
Fixed: Temperature, K = 323.15
Fixed: Pressure, kPa = 101.3
Property: Mass fraction of sodium chloride (Liquid); method: Titration method
Mass fraction of strontium chloride	Mass fraction of sodium chloride	uncertainty
0	0.2683	0.0027
0.1524	0.1651	0.0018
0.217	0.1231	0.0014
0.3248	0.0743	0.0012
0.3839	0.0457	0.002
0.3929	0.038	0.0018
0.3986	0.0347	0.0014

System: sodium chloride + strontium chloride + water; phases: Liquid, Crystal of intercomponent compound 1
Fixed: Temperature, K = 323.15
Fixed: Pressure, kPa = 101.3
Property: Mass fraction of strontium chloride (Liquid); method: Titration method
Mass fraction of sodium chloride	Mass fraction of strontium chloride	uncertainty
0.0347	0.3986	0.0025
0.0301	0.4013	0.0026
0.0135	0.4107	0.0026
0	0.4211	0.0027

System: sodium chloride + calcium chloride + water; phases: Liquid, Crystal, Crystal of intercomponent compound 1
Property: Mass fraction of calcium chloride (Liquid); method: Titration method
Temperature, K	Pressure, kPa	Mass fraction of calcium chloride	uncertainty
323.15	101.3	0.5644	0.0045

System: sodium chloride + calcium chloride + water; phases: Liquid, Crystal, Crystal of intercomponent compound 1
Property: Mass fraction of sodium chloride (Liquid); method: Titration method
Temperature, K	Pressure, kPa	Mass fraction of sodium chloride	uncertainty
323.15	101.3	0.0064	0.0001

System: sodium chloride + water; phases: Liquid, Crystal
Property: Mass fraction of sodium chloride (Liquid); method: Titration method
Temperature, K	Pressure, kPa	Mass fraction of sodium chloride	uncertainty
323.15	101.3	0.2683	0.0027

System: strontium chloride + water; phases: Liquid, Crystal of intercomponent compound 1
Property: Mass fraction of strontium chloride (Liquid); method: Titration method
Temperature, K	Pressure, kPa	Mass fraction of strontium chloride	uncertainty
323.15	101.3	0.4211	0.0027
