Measured thermophysical data. Heat of adsorption of surfactants and its role on nanoparticle stabilization
Source: J. Chem. Thermodyn., 2015, 10.1016/j.jct.2015.08.002
Compound 1: sodium oleate, C18H33NaO2, InChI=1S/C18H34O2.Na/c1-2-3-4-5-6-7-8-9-10-11-12-13-14-15-16-17-18(19)20;/h9-10H,2-8,11-17H2,1H3,(H,19,20);/q;+1/p-1/b10-9-;, purity 85%
Compound 2: sodium dodecanoate, C12H23NaO2, InChI=1S/C12H24O2.Na/c1-2-3-4-5-6-7-8-9-10-11-12(13)14;/h2-11H2,1H3,(H,13,14);/q;+1/p-1, purity 93%
Compound 3: sodium dodecylphosphonate, C12H25Na2O3P, InChI=1S/C12H27O3P.2Na/c1-2-3-4-5-6-7-8-9-10-11-12-16(13,14)15;;/h2-12H2,1H3,(H2,13,14,15);;/q;2*+1/p-2, purity 90%
Compound 4: water, H2O, InChI=1S/H2O/h1H2, purity 99.8%

System: sodium oleate + water; phases: Liquid, Air at 1 atmosphere
Fixed: Temperature, K = 298
Property: Surface tension liquid-gas, N/m (Liquid); method: Wilhelmi plate tensiometer
Molality, mol/kg of sodium oleate	Surface tension liquid-gas, N/m	uncertainty
5e-06	0.0628	0.002
1e-05	0.058	0.002
2e-05	0.0518	0.002
3e-05	0.0512	0.002
4e-05	0.0507	0.002
5e-05	0.0499	0.002
0.0001	0.042	0.002
0.0003	0.0329	0.002
0.0005	0.0294	0.002
0.0009	0.0266	0.002
0.0013	0.0256	0.002
0.0015	0.0254	0.002
0.0018	0.0251	0.002
0.002	0.0252	0.002
0.003	0.0251	0.002

System: sodium dodecanoate + water; phases: Liquid, Air at 1 atmosphere
Fixed: Temperature, K = 298
Property: Surface tension liquid-gas, N/m (Liquid); method: Wilhelmi plate tensiometer
Molality, mol/kg of sodium dodecanoate	Surface tension liquid-gas, N/m	uncertainty
0.001	0.0641	0.002
0.002	0.0622	0.002
0.003	0.0576	0.002
0.004	0.0544	0.002
0.005	0.0545	0.002
0.006	0.0499	0.002
0.007	0.0458	0.002
0.008	0.0449	0.002
0.009	0.044	0.002
0.01	0.0442	0.002
0.0105	0.0417	0.002
0.011	0.0416	0.002
0.012	0.0409	0.002
0.013	0.0374	0.002
0.014	0.0373	0.002
0.015	0.0379	0.002

System: water + sodium dodecylphosphonate; phases: Liquid, Air at 1 atmosphere
Fixed: Temperature, K = 298
Property: Surface tension liquid-gas, N/m (Liquid); method: Wilhelmi plate tensiometer
Molality, mol/kg of sodium dodecylphosphonate	Surface tension liquid-gas, N/m	uncertainty
0.002	0.0666	0.002
0.004	0.0585	0.002
0.006	0.0529	0.002
0.008	0.0535	0.002
0.01	0.0524	0.002
0.012	0.0496	0.002
0.014	0.0474	0.002
0.016	0.0444	0.002
0.017	0.044	0.002
0.0175	0.0409	0.002
0.018	0.0401	0.002
0.0185	0.0394	0.002
0.019	0.0404	0.002
0.02	0.0393	0.002
0.021	0.0396	0.002
0.025	0.0382	0.002
0.04	0.0369	0.002
0.05	0.0393	0.002
