Measured thermophysical data. Apparent molar volumes and apparent molar heat capacities of aqueous D-lactose.H2O at temperatures from (278.15 to 393.15) K and at the pressure 0.35 MPa
Source: J. Chem. Thermodyn., 2004, 10.1016/j.jct.2004.03.018
Compound 1: .alpha.-D-lactose hydrate, C12H24O12, InChI=1S/C12H22O11.H2O/c13-1-3-5(15)6(16)9(19)12(22-3)23-10-4(2-14)21-11(20)8(18)7(10)17;/h3-20H,1-2H2;1H2/t3-,4-,5+,6+,7-,8-,9-,10-,11+,12+;/m1./s1
Compound 2: water, H2O, InChI=1S/H2O/h1H2

System: .alpha.-D-lactose hydrate + water; phases: Liquid
Fixed: Pressure, kPa = 350
Property: Apparent molar heat capacity, J/K/mol (Liquid); method: Differential flow calorimetry
Molality, mol/kg of .alpha.-D-lactose hydrate	Temperature, K	Apparent molar heat capacity, J/K/mol	uncertainty
0.01009	278.15	603	59
0.01009	283.15	644	57
0.01009	288.15	680	55
0.01009	293.15	708	53
0.01009	298.15	731	52
0.01009	303.15	754	51
0.01009	308.15	772	50
0.01009	313.15	785	48
0.01009	318.15	799	47
0.01009	323.15	809	46
0.01009	328.15	819	45
0.01009	333.15	830	44
0.01009	338.15	837	43
0.01009	343.15	842	43
0.01009	348.15	849	41
0.01009	353.15	853	41
0.01009	358.15	858	42
0.01009	363.15	865	42
0.01009	368.15	872	42
0.01009	373.15	878.6	42.6
0.01009	378.15	885.4	43
0.01009	383.15	893.7	43.4
0.01009	388.15	903.4	43.9
0.01009	393.15	915	44
0.02019	278.15	622	30
0.02019	283.15	657	30
0.02019	288.15	684	29
0.02019	293.15	707	28
0.02019	298.15	727	28
0.02019	303.15	745	27
0.02019	308.15	761	27
0.02019	313.15	775	27
0.02019	318.15	788	26
0.02019	323.15	800	25
0.02019	328.15	811	26
0.02019	333.15	822	25
0.02019	338.15	831	25
0.02019	343.15	840	25
0.02019	348.15	849.5	25.5
0.02019	353.15	855.6	25.9
0.02019	358.15	863.3	26.2
0.02019	363.15	870.8	26.6
0.02019	368.15	877.4	27
0.02019	373.15	884	27
0.02019	378.15	889.2	27.7
0.02019	383.15	894.4	28
0.02019	388.15	899.4	28.4
0.02019	393.15	903.3	28.8
0.03028	278.15	621	22
0.03028	283.15	656	21
0.03028	288.15	684	21
0.03028	293.15	708	21
0.03028	298.15	728	20
0.03028	303.15	745	20
0.03028	308.15	762	20
0.03028	313.15	776	20
0.03028	318.15	788	19
0.03028	323.15	800	20
0.03028	328.15	811.2	19.5
0.03028	333.15	821.9	19.5
0.03028	338.15	831.4	19.7
0.03028	343.15	839.9	20.1
0.03028	348.15	849	20
0.03028	353.15	856.2	20.8
0.03028	358.15	863.9	21.1
0.03028	363.15	871.4	21.5
0.03028	368.15	877.6	21.8
0.03028	373.15	884.7	22.2
0.03028	378.15	889.7	22.6
0.03028	383.15	895.4	22.9
0.03028	388.15	900.9	23.3
0.03028	393.15	904.5	23.7
0.05047	278.15	622	14
0.05047	283.15	656	14
0.05047	288.15	683.8	14.3
0.05047	293.15	707.3	14.2
0.05047	298.15	727.6	14.1
0.05047	303.15	745.3	14.1
0.05047	308.15	761.2	14.2
0.05047	313.15	775.7	14.3
0.05047	318.15	788.4	14.4
0.05047	323.15	800.7	14.6
0.05047	328.15	811.5	14.9
0.05047	333.15	821.6	15.3
0.05047	338.15	831.3	15.6
0.05047	343.15	840.2	16
0.05047	348.15	848.5	16.3
0.05047	353.15	856.1	16.7
0.05047	358.15	863.7	17
0.05047	363.15	871	17
0.05047	368.15	877.6	17.7
0.05047	373.15	883.5	18.1
0.05047	378.15	889.4	18.5
0.05047	383.15	894.5	18.8
0.05047	388.15	900	19
0.05047	393.15	904.1	19.6
0.10079	278.15	623.3	9.5
0.10079	283.15	657.5	9.6
0.10079	288.15	684.8	9.7
0.10079	293.15	708	10
0.10079	298.15	727.8	9.8
0.10079	303.15	745.4	10.1
0.10079	308.15	761.2	10.5
0.10079	313.15	775.3	10.8
0.10079	318.15	788.1	11.2
0.10079	323.15	800.1	11.5
0.10079	328.15	811	12
0.10079	333.15	821.3	12.2
0.10079	338.15	830.9	12.5
0.10079	343.15	839.7	12.9
0.10079	348.15	848	13
0.10079	353.15	855.8	13.6
0.10079	358.15	863.5	14
0.10079	363.15	870.6	14.3
0.10079	368.15	877.1	14.7
0.10079	373.15	883.1	15
0.10079	378.15	888.8	15.4
0.10079	383.15	894.1	15.8
0.10079	388.15	900	16
0.10079	393.15	903.9	16.5
0.2026	278.15	626.1	7.4
0.2026	283.15	659.5	7.7
0.2026	288.15	686.3	7.9
0.2026	293.15	709	8
0.2026	298.15	728.5	8.3
0.2026	303.15	745.9	8.6
0.2026	308.15	761.4	8.9
0.2026	313.15	775.4	9.3
0.2026	318.15	788.1	9.6
0.2026	323.15	800	10
0.2026	328.15	810.8	10.3
0.2026	333.15	821.1	10.7
0.2026	338.15	830.7	11
0.2026	343.15	839.5	11.3
0.2026	348.15	847.9	11.7
0.2026	353.15	855.7	12
0.2026	358.15	863.3	12.4
0.2026	363.15	870.4	12.8
0.2026	368.15	876.8	13.1
0.2026	373.15	883	13
0.2026	378.15	888.7	13.9
0.2026	383.15	894.1	14.2
0.2026	388.15	899.1	14.6
0.2026	393.15	903	15
0.33627	278.15	629.4	6.8
0.33627	283.15	661.7	7.1
0.33627	288.15	687.9	7.3
0.33627	293.15	710.1	7.5
0.33627	298.15	729.2	7.7
0.33627	303.15	746.5	8
0.33627	308.15	761.7	8.3
0.33627	313.15	775.5	8.7
0.33627	318.15	788	9
0.33627	323.15	799.8	9.4
0.33627	328.15	810.6	9.7
0.33627	333.15	820.8	10
0.33627	338.15	830.4	10.4
0.33627	343.15	839.3	10.7
0.33627	348.15	847.6	11.1
0.33627	353.15	855.5	11.4
0.33627	358.15	863	12
0.33627	363.15	870.1	12.2
0.33627	368.15	876.6	12.5
0.33627	373.15	882.8	12.9
0.33627	378.15	888.5	13.2
0.33627	383.15	893.7	13.6
0.33627	388.15	898.6	14
0.33627	393.15	902.7	14.3

System: .alpha.-D-lactose hydrate + water; phases: Liquid
Fixed: Pressure, kPa = 350
Property: Apparent molar volume, m3/mol (Liquid); method: Calculated with densities of this investigation
Molality, mol/kg of .alpha.-D-lactose hydrate	Temperature, K	Apparent molar volume, m3/mol	uncertainty
0.01009	278.15	0.000232	5.2e-05
0.01009	283.15	0.000227	6.8e-05
0.01009	288.15	0.000229	5.8e-05
0.01009	298.15	0.000231	4.6e-05
0.01009	308.15	0.000234	3.8e-05
0.01009	318.15	0.00024	4.4e-05
0.01009	328.15	0.000233	2.7e-05
0.01009	338.15	0.000239	2.3e-05
0.01009	348.15	0.0002393	1.99e-05
0.01009	358.15	0.0002376	1.71e-05
0.01009	368.15	0.0002393	9.2e-06
0.02019	278.15	0.000223	2.8e-05
0.02019	283.15	0.000229	2.6e-05
0.02019	288.15	0.000229	2.2e-05
0.02019	298.15	0.0002293	1.62e-05
0.02019	308.15	0.0002314	1.13e-05
0.02019	318.15	0.0002329	1.13e-05
0.02019	328.15	0.0002298	2.7e-06
0.02019	338.15	0.0002317	3.2e-06
0.02019	348.15	0.0002329	5.3e-06
0.02019	358.15	0.0002312	9.5e-06
0.02019	368.15	0.000235	1.6e-05
0.03028	278.15	0.0002227	8e-06
0.03028	283.15	0.0002211	1.09e-05
0.03028	288.15	0.0002227	8.5e-06
0.03028	298.15	0.0002247	5.8e-06
0.03028	308.15	0.0002264	5.8e-06
0.03028	318.15	0.0002256	8e-06
0.03028	328.15	0.0002289	2.7e-06
0.03028	338.15	0.0002308	2e-06
0.03028	348.15	0.0002323	2.1e-06
0.03028	358.15	0.0002333	1.9e-06
0.03028	368.15	0.0002348	1.8e-06
0.05047	278.15	0.0002224	2e-06
0.05047	283.15	0.0002232	1.7e-06
0.05047	288.15	0.0002242	1.7e-06
0.05047	298.15	0.0002258	2e-06
0.05047	308.15	0.0002274	1.4e-06
0.05047	318.15	0.0002295	1.4e-06
0.05047	328.15	0.0002311	2.6e-06
0.05047	338.15	0.0002312	2.8e-06
0.05047	348.15	0.0002324	2.2e-06
0.05047	358.15	0.0002327	2.2e-06
0.05047	368.15	0.0002352	2.2e-06
0.10079	278.15	0.0002226	2.6e-06
0.10079	283.15	0.0002236	2.1e-06
0.10079	288.15	0.0002247	1.9e-06
0.10079	298.15	0.0002264	1.7e-06
0.10079	308.15	0.0002279	1.5e-06
0.10079	318.15	0.0002296	1.3e-06
0.10079	328.15	0.0002307	1.5e-06
0.10079	338.15	0.0002322	1.5e-06
0.10079	348.15	0.000233	1e-06
0.10079	358.15	0.0002338	1.5e-06
0.10079	368.15	0.0002351	1.1e-06
0.2026	278.15	0.0002225	1.8e-06
0.2026	283.15	0.0002237	1.4e-06
0.2026	288.15	0.0002248	1.2e-06
0.2026	298.15	0.0002266	1.2e-06
0.2026	308.15	0.0002281	1e-06
0.2026	318.15	0.0002289	1e-06
0.2026	328.15	0.0002309	1e-06
0.2026	338.15	0.0002319	1e-06
0.2026	348.15	0.000233	1e-06
0.2026	358.15	0.0002339	1e-06
0.2026	368.15	0.0002352	8e-07
0.33627	278.15	0.0002225	1.4e-06
0.33627	283.15	0.0002237	1.4e-06
0.33627	288.15	0.0002248	1.2e-06
0.33627	298.15	0.0002265	1e-06
0.33627	308.15	0.000228	1e-06
0.33627	318.15	0.0002293	1e-06
0.33627	328.15	0.0002308	1e-06
0.33627	338.15	0.0002319	8e-07
0.33627	348.15	0.0002331	8e-07
0.33627	358.15	0.000234	1e-06
0.33627	368.15	0.0002351	8e-07
