Measured thermophysical data. Thermal properties and reliability of eutectic mixture of stearic acid-acetamide as phase change material for latent heat storage
Source: J. Chem. Thermodyn., 2017, 10.1016/j.jct.2016.11.022
Compound 1: octadecanoic acid, C18H36O2, InChI=1S/C18H36O2/c1-2-3-4-5-6-7-8-9-10-11-12-13-14-15-16-17-18(19)20/h2-17H2,1H3,(H,19,20), purity 98%
Compound 2: ethanamide, C2H5NO, InChI=1S/C2H5NO/c1-2(3)4/h1H3,(H2,3,4), purity 98%

System: octadecanoic acid; phases: Crystal, Liquid, Air at 1 atmosphere
Property: Normal melting temperature, K (Crystal); method: DTA
Normal melting temperature, K	uncertainty
342.62	1.06

System: octadecanoic acid; phases: Crystal, Liquid, Air at 1 atmosphere
Property: Molar enthalpy of transition or fusion, kJ/mol (Crystal); method: DSC
Molar enthalpy of transition or fusion, kJ/mol	uncertainty
60.3717598728	6.144708384

System: ethanamide; phases: Crystal, Liquid, Air at 1 atmosphere
Property: Normal melting temperature, K (Crystal); method: DTA
Normal melting temperature, K	uncertainty
353.77	1.06

System: ethanamide; phases: Metastable crystal, Liquid, Air at 1 atmosphere
Property: Normal melting temperature, K (Metastable crystal); method: DTA
Normal melting temperature, K	uncertainty
343.29	1.06

System: ethanamide; phases: Crystal, Liquid, Air at 1 atmosphere
Property: Molar enthalpy of transition or fusion, kJ/mol (Crystal); method: DSC
Molar enthalpy of transition or fusion, kJ/mol	uncertainty
13.6486671468	1.4034376224

System: ethanamide; phases: Metastable crystal, Liquid, Air at 1 atmosphere
Property: Molar enthalpy of transition or fusion, kJ/mol (Metastable crystal); method: DSC
Molar enthalpy of transition or fusion, kJ/mol	uncertainty
11.6279768664	1.199064972

System: octadecanoic acid + ethanamide; phases: Crystal of intercomponent compound 1, Crystal, Liquid, Air at 1 atmosphere
Property: Eutectic temperature, K (Crystal of intercomponent compound 1); method: DTA
Eutectic temperature, K	uncertainty
337.66	1.06

System: octadecanoic acid + ethanamide; phases: Crystal, Crystal of intercomponent compound 1, Liquid, Air at 1 atmosphere
Property: Eutectic temperature, K (Crystal); method: DTA
Eutectic temperature, K	uncertainty
337.55	1.06

System: octadecanoic acid + ethanamide; phases: Crystal of intercomponent compound 1, Metastable crystal, Liquid, Air at 1 atmosphere
Property: Eutectic temperature, K (Crystal of intercomponent compound 1); method: DTA
Eutectic temperature, K	uncertainty
335.67	1.06

System: octadecanoic acid + ethanamide; phases: Crystal, Crystal of intercomponent compound 2, Liquid, Air at 1 atmosphere
Property: Eutectic temperature, K (Crystal); method: DTA
Eutectic temperature, K	uncertainty
335.28	1.06

System: octadecanoic acid + ethanamide; phases: Liquid, Crystal
Fixed: Pressure, kPa = 101
Property: Solid-liquid equilibrium temperature, K (Liquid); method: DTA
Mole fraction of octadecanoic acid	Solid-liquid equilibrium temperature, K	uncertainty
0	353.77	1.06
0.023	353.59	1.06
0.049	353.47	1.06
0.082	353.41	1.06
0.122	353.17	1.07
0.172	352.42	1.07
0.237	351.96	1.07
0.278	351.3	1.08
0.326	350.16	1.11
0.348	348.96	1.15
0.371	348.1	1.28
0.397	345.5	1.73
0.424	340.87	1.58
0.454	338.75	1.27

System: octadecanoic acid + ethanamide; phases: Liquid, Crystal
Fixed: Pressure, kPa = 101
Property: Solid-liquid equilibrium temperature, K (Liquid); method: DTA
Mole fraction of octadecanoic acid	Solid-liquid equilibrium temperature, K	uncertainty
0.604	337.7	1.07
0.651	338.46	1.07
0.705	339.06	1.07
0.765	339.67	1.07
0.833	340.79	1.07
0.911	341.86	1.07
1	342.62	1.06
0.604	335.69	1.21
0.651	336	1.07
0.705	337.54	1.07
0.765	338.92	1.07
0.833	339.48	1.07
0.911	340.79	1.07

System: octadecanoic acid + ethanamide; phases: Liquid, Crystal of intercomponent compound 1
Fixed: Pressure, kPa = 101
Property: Solid-liquid equilibrium temperature, K (Liquid); method: DTA
Mole fraction of octadecanoic acid	Solid-liquid equilibrium temperature, K	uncertainty
0.454	338.75	1.06
0.486	338.81	1.06
0.522	338.52	1.06
0.561	338.12	1.07
0.604	337.7	1.07

System: octadecanoic acid + ethanamide; phases: Liquid, Metastable crystal
Fixed: Pressure, kPa = 101
Property: Solid-liquid equilibrium temperature, K (Liquid); method: DTA
Mole fraction of octadecanoic acid	Solid-liquid equilibrium temperature, K	uncertainty
0	343.29	1.06
0.023	343.27	1.06
0.049	343.19	1.06
0.082	343.15	1.06
0.122	343.11	1.06
0.172	342.64	1.07
0.237	341.69	1.07
0.278	341.27	1.08
0.326	339.79	1.11
0.348	339	1.12
0.371	338.16	1.3
0.397	335.38	1.51

System: octadecanoic acid + ethanamide; phases: Liquid, Crystal of intercomponent compound 2
Fixed: Pressure, kPa = 101
Property: Solid-liquid equilibrium temperature, K (Liquid); method: DTA
Mole fraction of octadecanoic acid	Solid-liquid equilibrium temperature, K	uncertainty
0.397	335.38	1.14
0.424	336.49	1.08
0.454	336.66	1.06
0.486	336.57	1.06
0.522	336.4	1.06
0.561	335.91	1.07
