Measured thermophysical data. Vapour-liquid equilibria for (water + ethanol + fructose): Experimental data and thermodynamic modelling
Source: J. Chem. Thermodyn., 2017, 10.1016/j.jct.2017.07.021
Compound 1: water, H2O, InChI=1S/H2O/h1H2, purity 99.9%
Compound 2: D-fructose, C6H12O6, InChI=1S/C6H12O6/c7-1-3(9)5(11)6(12)4(10)2-8/h3,5-9,11-12H,1-2H2/t3-,5-,6-/m1/s1, purity 99.49%
Compound 3: ethanol, C2H6O, InChI=1S/C2H6O/c1-2-3/h3H,2H2,1H3, purity 99.4%

System: water; phases: Liquid, Gas
Property: Vapor or sublimation pressure, kPa (Liquid); method: Ebulliometric method (Recirculating still)
Temperature, K	Vapor or sublimation pressure, kPa	uncertainty
371.5	93.792	4.795

System: ethanol; phases: Liquid, Gas
Property: Vapor or sublimation pressure, kPa (Liquid); method: Ebulliometric method (Recirculating still)
Temperature, K	Vapor or sublimation pressure, kPa	uncertainty
349.94	93.326	4.773

System: ethanol + water; phases: Gas, Liquid
Property: Mole fraction of ethanol (Gas); method: Index of refraction calibration data
Mole fraction of ethanol	Pressure, kPa	Mole fraction of ethanol	uncertainty
0	93.792	0	
0.0043	94.192	0.0632	0.014
0.0117	94.059	0.1429	0.0141
0.0131	93.792	0.1677	0.0142
0.0178	93.926	0.2142	0.0143
0.0261	93.926	0.2679	0.0145
0.0351	93.926	0.3089	0.0147
0.0727	93.792	0.4371	0.0153
0.1199	93.726	0.4988	0.0157
0.1708	93.726	0.5371	0.0155
0.277	94.259	0.5832	0.0152
0.3791	93.992	0.6282	0.015
0.4694	94.126	0.6462	0.0149
0.5521	93.659	0.6851	0.0148
0.6404	93.926	0.7148	0.0146
0.6639	93.992	0.7355	0.0145
0.7097	93.926	0.7595	0.0145
0.7586	93.592	0.8025	0.0143
0.7876	93.992	0.8191	0.0143
0.7982	93.659	0.8242	0.0143
0.8386	93.859	0.8476	0.0142
0.8814	93.726	0.879	0.0141
0.9267	93.792	0.9263	0.014
1	93.326	1	

System: ethanol + water; phases: Liquid, Gas
Property: Boiling temperature at pressure P, K (Liquid); method: Ebulliometric method (Recirculating still)
Mole fraction of ethanol	Pressure, kPa	Boiling temperature at pressure P, K	uncertainty
0	93.792	371.5	1.03
0.0043	94.192	369.86	1.03
0.0117	94.059	367.92	1.03
0.0131	93.792	366.9	1.03
0.0178	93.926	365.98	1.03
0.0261	93.926	364.65	1.03
0.0351	93.926	363.12	1.03
0.0727	93.792	358.32	1.03
0.1199	93.726	355.77	1.03
0.1708	93.726	354.54	1.03
0.277	94.259	352.5	1.03
0.3791	93.992	351.88	1.03
0.4694	94.126	351.37	1.03
0.5521	93.659	350.86	1.03
0.6404	93.926	350.66	1.03
0.6639	93.992	350.45	1.03
0.7097	93.926	350.35	1.03
0.7586	93.592	350.15	1.03
0.7876	93.992	350.05	1.03
0.7982	93.659	350.05	1.03
0.8386	93.859	350.05	1.03
0.8814	93.726	349.94	1.03
0.9267	93.792	349.94	1.03
1	93.326	349.94	1.03

System: D-fructose + ethanol + water; phases: Liquid, Gas
Property: Mole fraction of D-fructose (Liquid); method: Index of refraction calibration data
Property: Mole fraction of D-fructose (Gas); method: Index of refraction calibration data
Property: Mole fraction of ethanol (Gas); method: Index of refraction calibration data
Temperature, K	Pressure, kPa	Mole fraction of ethanol	Mole fraction of D-fructose	uncertainty	Mole fraction of D-fructose	uncertainty	Mole fraction of ethanol	uncertainty
372.11	94.059	0	0.0114	0.004	0		0	
370.17	93.793	0.0051	0.0115	0.004	0		0.074	
366.08	93.592	0.0186	0.0117	0.004	0		0.2184	
364.35	93.926	0.0317	0.012	0.004	0		0.2747	
361.49	94.059	0.0442	0.0122	0.004	0		0.3529	
358.83	93.926	0.0657	0.0126	0.004	0		0.4284	
354.13	94.126	0.152	0.0142	0.004	0		0.5517	
353.52	94.459	0.1666	0.0145	0.004	0		0.5466	
353.52	93.992	0.1905	0.0148	0.004	0		0.5717	
353.3	93.859	0.2208	0.0154	0.004	0		0.5751	
352.91	94.059	0.256	0.0159	0.004	0		0.5791	
352.29	93.926	0.2795	0.0163	0.004	0		0.6304	
352.09	94.126	0.3291	0.0172	0.004	0		0.6276	
351.68	94.126	0.3643	0.0179	0.004	0		0.6382	
351.58	93.992	0.3925	0.0184	0.004	0		0.641	
351.48	94.059	0.4206	0.0189	0.004	0		0.6565	
351.37	93.926	0.4505	0.0194	0.004	0		0.672	
351.07	93.992	0.481	0.02	0.004	0		0.7312	
350.86	94.592	0.5534	0.0213	0.004	0		0.7177	
350.66	94.859	0.6148	0.0223	0.004	0		0.7452	
350.45	94.126	0.6755	0.0234	0.004	0		0.7851	
350.15	93.992	0.7231	0.0242	0.004	0		0.8146	
372.11	93.792	0	0.0255	0.004	0		0	
369.45	93.992	0.0115	0.026	0.004	0		0.1008	
366.59	93.859	0.0149	0.0261	0.004	0		0.2105	
354.03	93.992	0.1332	0.0307	0.004	0		0.572	
353.52	93.726	0.1418	0.031	0.004	0		0.5671	
353.11	93.992	0.1623	0.0318	0.004	0		0.5883	
352.91	93.992	0.1769	0.0325	0.004	0		0.612	
352.6	94.392	0.2056	0.0336	0.004	0		0.6355	
352.29	93.926	0.2162	0.0338	0.004	0		0.6033	
352.29	94.459	0.2454	0.0351	0.004	0		0.6387	
351.99	94.192	0.2674	0.036	0.004	0		0.6234	
351.78	94.259	0.2924	0.0367	0.004	0		0.618	
351.58	94.059	0.3182	0.038	0.004	0		0.6605	
351.48	94.459	0.3479	0.0391	0.004	0		0.6673	
351.17	94.326	0.3894	0.0411	0.004	0		0.6828	
350.86	94.459	0.4433	0.0428	0.004	0		0.7053	
350.76	94.259	0.4891	0.0447	0.004	0		0.7201	
350.66	94.126	0.5196	0.0459	0.004	0		0.7532	
350.56	94.526	0.5504	0.0471	0.004	0		0.7754	
350.35	94.326	0.5974	0.0488	0.004	0		0.7731	
350.35	94.726	0.6364	0.0507	0.004	0		0.8283	
372.11	93.992	0	0.043	0.004	0		0	
369.15	93.792	0.0095	0.0436	0.004	0		0.1077	
363.22	94.126	0.0282	0.0449	0.004	0		0.3234	
363.22	93.726	0.0319	0.0453	0.004	0		0.3039	
358.12	94.126	0.0625	0.0469	0.004	0		0.4517	
355.25	93.859	0.0886	0.0488	0.004	0		0.5273	
354.13	93.592	0.1051	0.0498	0.004	0		0.5607	
353.52	93.859	0.1344	0.0519	0.004	0		0.5951	
353.11	93.659	0.1345	0.0518	0.004	0		0.5971	
352.6	93.726	0.1498	0.053	0.004	0		0.6018	
352.29	93.659	0.1842	0.0551	0.004	0		0.6108	
351.99	94.059	0.2102	0.0569	0.004	0		0.6466	
351.99	94.126	0.2174	0.0572	0.004	0		0.6616	
351.27	92.926	0.2689	0.061	0.004	0		0.6783	
351.27	93.526	0.2937	0.0625	0.004	0		0.7268	
350.86	93.326	0.3128	0.0638	0.004	0		0.708	
350.96	93.859	0.3188	0.064	0.004	0		0.7323	
350.86	94.059	0.3429	0.0658	0.004	0		0.7294	
350.86	93.592	0.3807	0.0683	0.004	0		0.7439	
350.56	93.792	0.5112	0.0774	0.004	0		0.8051	
350.45	93.992	0.5432	0.0791	0.004	0		0.8203	

System: D-fructose + water; phases: Liquid, Gas
Property: Boiling temperature at pressure P, K (Liquid); method: Ebulliometric method (Recirculating still)
Mole fraction of D-fructose	Pressure, kPa	Boiling temperature at pressure P, K	uncertainty
0.0114	94.059	372.11	1.03
0.0255	93.792	372.11	1.03
0.043	93.992	372.11	1.03
