Measured thermophysical data. Vapour pressures, enthalpies and Gibbs energies of formation and sublimation of fluorene-2-carboxaldehyde
Source: J. Chem. Thermodyn., 2017, 10.1016/j.jct.2017.03.021
Compound 1: carbon dioxide, CO2, InChI=1S/CO2/c2-1-3
Compound 2: water, H2O, InChI=1S/H2O/h1H2
Compound 3: oxygen, O2, InChI=1S/O2/c1-2
Compound 4: 9H-fluorene-2-carbaldehyde, C14H10O, InChI=1S/C14H10O/c15-9-10-5-6-14-12(7-10)8-11-3-1-2-4-13(11)14/h1-7,9H,8H2

System: 9H-fluorene-2-carbaldehyde; phases: Crystal, Liquid, Air at 1 atmosphere
Property: Normal melting temperature, K (Crystal); method: DTA
Normal melting temperature, K	uncertainty
357.6	0.4

System: 9H-fluorene-2-carbaldehyde; phases: Crystal, Liquid, Air at 1 atmosphere
Property: Molar enthalpy of transition or fusion, kJ/mol (Crystal); method: DSC
Molar enthalpy of transition or fusion, kJ/mol	uncertainty
22	0.6

System: 9H-fluorene-2-carbaldehyde; phases: Crystal, Gas
Property: Vapor or sublimation pressure, kPa (Crystal); method: Calculated from knudsen effusion weight loss
Temperature, K	Vapor or sublimation pressure, kPa	uncertainty
335.16	0.000121	2e-05
337.16	0.000149	2.1e-05
339.09	0.000185	2.1e-05
341.11	0.000233	2.2e-05
343.08	0.000289	2.2e-05
345.09	0.000364	2.4e-05
347.16	0.000463	2.6e-05
349.11	0.000557	2.8e-05
351.09	0.000681	3.1e-05
353.1	0.000859	3.6e-05
355.09	0.001048	8.2e-05
335.16	0.00012	2e-05
337.16	0.000147	2.1e-05
339.09	0.000186	2.1e-05
341.11	0.000231	2.2e-05
343.08	0.000288	2.2e-05
345.09	0.00036	2.4e-05
347.16	0.000444	2.5e-05
349.11	0.000553	2.8e-05
351.09	0.000685	3.1e-05
353.1	0.000861	3.6e-05
355.09	0.001057	8.3e-05
335.16	0.00012	2e-05
337.16	0.000144	2.1e-05
339.09	0.000185	2.1e-05
341.16	0.000227	2.2e-05
343.14	0.000288	2.2e-05
345.09	0.000361	2.4e-05
347.16	0.000444	2.5e-05
349.11	0.00054	2.8e-05
351.09	0.000687	3.2e-05
353.1	0.000847	3.6e-05
355.09	0.001075	8.5e-05

Reaction: -1 9H-fluorene-2-carbaldehyde + 14 carbon dioxide + 5 water + -16 oxygen
Property: Specific internal energy of reaction at constant volume, J/g
-35461.83
