Measured thermophysical data. The study of activity coefficients at infinite dilution for organic solutes and water in 1-butyl-4-methylpyridinium dicyanamide, [B4MPy][DCA] using GLC
Source: J. Chem. Thermodyn., 2014, 10.1016/j.jct.2013.09.007
Compound 1: hexane, C6H14, InChI=1S/C6H14/c1-3-5-6-4-2/h3-6H2,1-2H3, purity 99%
Compound 2: 3-methylpentane, C6H14, InChI=1S/C6H14/c1-4-6(3)5-2/h6H,4-5H2,1-3H3, purity 99%
Compound 3: 2,2-dimethylbutane, C6H14, InChI=1S/C6H14/c1-5-6(2,3)4/h5H2,1-4H3, purity 99%
Compound 4: heptane, C7H16, InChI=1S/C7H16/c1-3-5-7-6-4-2/h3-7H2,1-2H3, purity 99.5%
Compound 5: octane, C8H18, InChI=1S/C8H18/c1-3-5-7-8-6-4-2/h3-8H2,1-2H3, purity 99%
Compound 6: 2,2,4-trimethylpentane, C8H18, InChI=1S/C8H18/c1-7(2)6-8(3,4)5/h7H,6H2,1-5H3, purity 99%
Compound 7: nonane, C9H20, InChI=1S/C9H20/c1-3-5-7-9-8-6-4-2/h3-9H2,1-2H3, purity 99%
Compound 8: decane, C10H22, InChI=1S/C10H22/c1-3-5-7-9-10-8-6-4-2/h3-10H2,1-2H3, purity 99%
Compound 9: cyclopentane, C5H10, InChI=1S/C5H10/c1-2-4-5-3-1/h1-5H2, purity 99%
Compound 10: cyclohexane, C6H12, InChI=1S/C6H12/c1-2-4-6-5-3-1/h1-6H2, purity 99%
Compound 11: methylcyclohexane, C7H14, InChI=1S/C7H14/c1-7-5-3-2-4-6-7/h7H,2-6H2,1H3, purity 99%
Compound 12: cycloheptane, C7H14, InChI=1S/C7H14/c1-2-4-6-7-5-3-1/h1-7H2, purity 98%
Compound 13: cyclooctane, C8H16, InChI=1S/C8H16/c1-2-4-6-8-7-5-3-1/h1-8H2, purity 99%
Compound 14: 1-pentene, C5H10, InChI=1S/C5H10/c1-3-5-4-2/h3H,1,4-5H2,2H3, purity 98.5%
Compound 15: hex-1-ene, C6H12, InChI=1S/C6H12/c1-3-5-6-4-2/h3H,1,4-6H2,2H3, purity 99%
Compound 16: cyclohexene, C6H10, InChI=1S/C6H10/c1-2-4-6-5-3-1/h1-2H,3-6H2, purity 99%
Compound 17: 1-heptene, C7H14, InChI=1S/C7H14/c1-3-5-7-6-4-2/h3H,1,4-7H2,2H3, purity 99%
Compound 18: oct-1-ene, C8H16, InChI=1S/C8H16/c1-3-5-7-8-6-4-2/h3H,1,4-8H2,2H3, purity 98%
Compound 19: 1-decene, C10H20, InChI=1S/C10H20/c1-3-5-7-9-10-8-6-4-2/h3H,1,4-10H2,2H3, purity 97%
Compound 20: 1-pentyne, C5H8, InChI=1S/C5H8/c1-3-5-4-2/h1H,4-5H2,2H3, purity 99%
Compound 21: 1-hexyne, C6H10, InChI=1S/C6H10/c1-3-5-6-4-2/h1H,4-6H2,2H3, purity 97%
Compound 22: 1-heptyne, C7H12, InChI=1S/C7H12/c1-3-5-7-6-4-2/h1H,4-7H2,2H3, purity 98%
Compound 23: 1-octyne, C8H14, InChI=1S/C8H14/c1-3-5-7-8-6-4-2/h1H,4-8H2,2H3, purity 97%
Compound 24: benzene, C6H6, InChI=1S/C6H6/c1-2-4-6-5-3-1/h1-6H, purity 99.8%
Compound 25: toluene, C7H8, InChI=1S/C7H8/c1-7-5-3-2-4-6-7/h2-6H,1H3, purity 99.8%
Compound 26: ethylbenzene, C8H10, InChI=1S/C8H10/c1-2-8-6-4-3-5-7-8/h3-7H,2H2,1H3, purity 99.8%
Compound 27: 1,2-dimethylbenzene, C8H10, InChI=1S/C8H10/c1-7-5-3-4-6-8(7)2/h3-6H,1-2H3, purity 99%
Compound 28: 1,3-dimethylbenzene, C8H10, InChI=1S/C8H10/c1-7-4-3-5-8(2)6-7/h3-6H,1-2H3, purity 99%
Compound 29: 1,4-dimethylbenzene, C8H10, InChI=1S/C8H10/c1-7-3-5-8(2)6-4-7/h3-6H,1-2H3, purity 99%
Compound 30: styrene, C8H8, InChI=1S/C8H8/c1-2-8-6-4-3-5-7-8/h2-7H,1H2, purity 99%
Compound 31: (1-methylethenyl)benzene, C9H10, InChI=1S/C9H10/c1-8(2)9-6-4-3-5-7-9/h3-7H,1H2,2H3, purity 99%
Compound 32: ethanol, C2H6O, InChI=1S/C2H6O/c1-2-3/h3H,2H2,1H3, purity 99.8%
Compound 33: propan-1-ol, C3H8O, InChI=1S/C3H8O/c1-2-3-4/h4H,2-3H2,1H3, purity 99.9%
Compound 34: butan-1-ol, C4H10O, InChI=1S/C4H10O/c1-2-3-4-5/h5H,2-4H2,1H3, purity 99.8%
Compound 35: water, H2O, InChI=1S/H2O/h1H2
Compound 36: thiophene, C4H4S, InChI=1S/C4H4S/c1-2-4-5-3-1/h1-4H, purity 99%
Compound 37: tetrahydrofuran, C4H8O, InChI=1S/C4H8O/c1-2-4-5-3-1/h1-4H2, purity 99.9%
Compound 38: 1,4-dioxane, C4H8O2, InChI=1S/C4H8O2/c1-2-6-4-3-5-1/h1-4H2, purity 99.8%
Compound 39: 2-methoxy-2-methylpropane, C5H12O, InChI=1S/C5H12O/c1-5(2,3)6-4/h1-4H3, purity 99.8%
Compound 40: 2-ethoxy-2-methylpropane, C6H14O, InChI=1S/C6H14O/c1-5-7-6(2,3)4/h5H2,1-4H3, purity 99%
Compound 41: 2-methoxy-2-methylbutane, C6H14O, InChI=1S/C6H14O/c1-5-6(2,3)7-4/h5H2,1-4H3, purity 97%
Compound 42: diethyl ether, C4H10O, InChI=1S/C4H10O/c1-3-5-4-2/h3-4H2,1-2H3, purity 99.9%
Compound 43: dipropyl ether, C6H14O, InChI=1S/C6H14O/c1-3-5-7-6-4-2/h3-6H2,1-2H3, purity 99%
Compound 44: dibutyl ether, C8H18O, InChI=1S/C8H18O/c1-3-5-7-9-8-6-4-2/h3-8H2,1-2H3, purity 99.3%
Compound 45: acetone, C3H6O, InChI=1S/C3H6O/c1-3(2)4/h1-2H3, purity 99.9%
Compound 46: pentan-2-one, C5H10O, InChI=1S/C5H10O/c1-3-4-5(2)6/h3-4H2,1-2H3, purity 99%
Compound 47: pentan-3-one, C5H10O, InChI=1S/C5H10O/c1-3-5(6)4-2/h3-4H2,1-2H3, purity 99%
Compound 48: 2-hexanone, C6H12O, InChI=1S/C6H12O/c1-3-4-5-6(2)7/h3-5H2,1-2H3, purity 99%
Compound 49: cyclohexanone, C6H10O, InChI=1S/C6H10O/c7-6-4-2-1-3-5-6/h1-5H2, purity 99%
Compound 50: acetonitrile, C2H3N, InChI=1S/C2H3N/c1-2-3/h1H3, purity 99.9%
Compound 51: pyridine, C5H5N, InChI=1S/C5H5N/c1-2-4-6-5-3-1/h1-5H, purity 99.8%
Compound 52: 1-nitropropane, C3H7NO2, InChI=1S/C3H7NO2/c1-2-3-4(5)6/h2-3H2,1H3, purity 98.5%
Compound 53: 1-butyl-3-methylpyridinium dicyanamide, C12H16N4, InChI=1S/C10H16N.C2N3/c1-3-4-7-11-8-5-6-10(2)9-11;3-1-5-2-4/h5-6,8-9H,3-4,7H2,1-2H3;/q+1;-1, purity 97%
Compound 54: 3-hexanone, C6H12O, InChI=1S/C6H12O/c1-3-5-6(7)4-2/h3-5H2,1-2H3

System: 1-butyl-3-methylpyridinium dicyanamide; phases: Liquid
Fixed: Pressure, kPa = 101.325
Property: Mass density, kg/m3 (Liquid); method: Vibrating tube method
Temperature, K	Mass density, kg/m3	uncertainty
308.15	1040.66	2.12
318.15	1034.63	2.1
328.15	1028.66	2.08
338.15	1022.75	2.06
348.15	1016.77	2.04
358.15	1010.8	2.02

System: hexane + 1-butyl-3-methylpyridinium dicyanamide; phases: Liquid
Fixed: Pressure, kPa = 101
Fixed: Mole fraction of hexane = 0
Property: Activity coefficient of hexane (Liquid); method: Chromatography
Temperature, K	Activity coefficient of hexane	uncertainty
308.15	56.1	3.8
318.15	51.7	3.5
328.15	47.8	3.3
338.15	44.3	3
348.15	41.3	2.8
358.15	38.6	2.6
368.15	36	2.5

System: 3-methylpentane + 1-butyl-3-methylpyridinium dicyanamide; phases: Liquid
Fixed: Pressure, kPa = 101
Fixed: Mole fraction of 3-methylpentane = 0
Property: Activity coefficient of 3-methylpentane (Liquid); method: Chromatography
Temperature, K	Activity coefficient of 3-methylpentane	uncertainty
308.15	50.9	3.5
318.15	47	3.2
328.15	43.1	3
338.15	39.8	2.7
348.15	36.9	2.5
358.15	34.7	2.4
368.15	32.4	2.2

System: 2,2-dimethylbutane + 1-butyl-3-methylpyridinium dicyanamide; phases: Liquid
Fixed: Pressure, kPa = 101
Fixed: Mole fraction of 2,2-dimethylbutane = 0
Property: Activity coefficient of 2,2-dimethylbutane (Liquid); method: Chromatography
Temperature, K	Activity coefficient of 2,2-dimethylbutane	uncertainty
308.15	57.3	3.9
318.15	52	3.6
328.15	47.4	3.2
338.15	42.9	2.9
348.15	39.4	2.7
358.15	36.4	2.5
368.15	33.6	2.3

System: heptane + 1-butyl-3-methylpyridinium dicyanamide; phases: Liquid
Fixed: Pressure, kPa = 101
Fixed: Mole fraction of heptane = 0
Property: Activity coefficient of heptane (Liquid); method: Chromatography
Temperature, K	Activity coefficient of heptane	uncertainty
308.15	82.8	5.7
318.15	75.7	5.2
328.15	69.9	4.8
338.15	64.3	4.4
348.15	59.4	4.1
358.15	55.4	3.8
368.15	51.7	3.5

System: octane + 1-butyl-3-methylpyridinium dicyanamide; phases: Liquid
Fixed: Pressure, kPa = 101
Fixed: Mole fraction of octane = 0
Property: Activity coefficient of octane (Liquid); method: Chromatography
Temperature, K	Activity coefficient of octane	uncertainty
308.15	123	8
318.15	111	8
328.15	101	7
338.15	92.7	6.4
348.15	85.2	5.8
358.15	79	5.4
368.15	73.3	5

System: 2,2,4-trimethylpentane + 1-butyl-3-methylpyridinium dicyanamide; phases: Liquid
Fixed: Pressure, kPa = 101
Fixed: Mole fraction of 2,2,4-trimethylpentane = 0
Property: Activity coefficient of 2,2,4-trimethylpentane (Liquid); method: Chromatography
Temperature, K	Activity coefficient of 2,2,4-trimethylpentane	uncertainty
308.15	104	7
318.15	93.3	6.4
328.15	85.8	5.9
338.15	78.3	5.4
348.15	72.6	5
358.15	67	4.6
368.15	61.7	4.2

System: nonane + 1-butyl-3-methylpyridinium dicyanamide; phases: Liquid
Fixed: Pressure, kPa = 101
Fixed: Mole fraction of nonane = 0
Property: Activity coefficient of nonane (Liquid); method: Chromatography
Temperature, K	Activity coefficient of nonane	uncertainty
308.15	182	13
318.15	162	11
328.15	148	10
338.15	134	9
348.15	122	8
358.15	112	8
368.15	103	7

System: decane + 1-butyl-3-methylpyridinium dicyanamide; phases: Liquid
Fixed: Pressure, kPa = 101
Fixed: Mole fraction of decane = 0
Property: Activity coefficient of decane (Liquid); method: Chromatography
Temperature, K	Activity coefficient of decane	uncertainty
308.15	275	19
318.15	244	17
328.15	219	15
338.15	198	14
348.15	179	12
358.15	163	11
368.15	149	10

System: cyclopentane + 1-butyl-3-methylpyridinium dicyanamide; phases: Liquid
Fixed: Pressure, kPa = 101
Fixed: Mole fraction of cyclopentane = 0
Property: Activity coefficient of cyclopentane (Liquid); method: Chromatography
Temperature, K	Activity coefficient of cyclopentane	uncertainty
308.15	15.1	1
318.15	14.2	1
328.15	13.4	0.9
338.15	12.6	0.9
348.15	11.9	0.8
358.15	11.3	0.8
368.15	10.9	0.7

System: cyclohexane + 1-butyl-3-methylpyridinium dicyanamide; phases: Liquid
Fixed: Pressure, kPa = 101
Fixed: Mole fraction of cyclohexane = 0
Property: Activity coefficient of cyclohexane (Liquid); method: Chromatography
Temperature, K	Activity coefficient of cyclohexane	uncertainty
308.15	23	1.6
318.15	21.2	1.4
328.15	19.8	1.4
338.15	18.5	1.3
348.15	17.4	1.2
358.15	16.5	1.1
368.15	15.6	1.1

System: methylcyclohexane + 1-butyl-3-methylpyridinium dicyanamide; phases: Liquid
Fixed: Pressure, kPa = 101
Fixed: Mole fraction of methylcyclohexane = 0
Property: Activity coefficient of methylcyclohexane (Liquid); method: Chromatography
Temperature, K	Activity coefficient of methylcyclohexane	uncertainty
308.15	34.1	2.3
318.15	31.5	2.2
328.15	29.3	2
338.15	27.3	1.9
348.15	25.5	1.7
358.15	23.9	1.6
368.15	22.6	1.5

System: cycloheptane + 1-butyl-3-methylpyridinium dicyanamide; phases: Liquid
Fixed: Pressure, kPa = 101
Fixed: Mole fraction of cycloheptane = 0
Property: Activity coefficient of cycloheptane (Liquid); method: Chromatography
Temperature, K	Activity coefficient of cycloheptane	uncertainty
308.15	27.3	1.9
318.15	25.2	1.7
328.15	23.6	1.6
338.15	22.1	1.5
348.15	20.7	1.4
358.15	19.5	1.3
368.15	18.5	1.3

System: cyclooctane + 1-butyl-3-methylpyridinium dicyanamide; phases: Liquid
Fixed: Pressure, kPa = 101
Fixed: Mole fraction of cyclooctane = 0
Property: Activity coefficient of cyclooctane (Liquid); method: Chromatography
Temperature, K	Activity coefficient of cyclooctane	uncertainty
308.15	35.1	2.4
318.15	32	2.2
328.15	29.7	2
338.15	27.8	1.9
348.15	25.8	1.8
358.15	24.2	1.7
368.15	22.7	1.6

System: 1-pentene + 1-butyl-3-methylpyridinium dicyanamide; phases: Liquid
Fixed: Pressure, kPa = 101
Fixed: Mole fraction of 1-pentene = 0
Property: Activity coefficient of 1-pentene (Liquid); method: Chromatography
Temperature, K	Activity coefficient of 1-pentene	uncertainty
308.15	15.3	1
318.15	14.7	1
328.15	14.1	1
338.15	13.7	0.9
348.15	13.1	0.9
358.15	12.6	0.9
368.15	12.2	0.8

System: hex-1-ene + 1-butyl-3-methylpyridinium dicyanamide; phases: Liquid
Fixed: Pressure, kPa = 101
Fixed: Mole fraction of hex-1-ene = 0
Property: Activity coefficient of hex-1-ene (Liquid); method: Chromatography
Temperature, K	Activity coefficient of hex-1-ene	uncertainty
308.15	22.4	1.5
318.15	21.4	1.5
328.15	20.4	1.4
338.15	19.5	1.3
348.15	18.7	1.3
358.15	17.8	1.2
368.15	17.1	1.2

System: cyclohexene + 1-butyl-3-methylpyridinium dicyanamide; phases: Liquid
Fixed: Pressure, kPa = 101
Fixed: Mole fraction of cyclohexene = 0
Property: Activity coefficient of cyclohexene (Liquid); method: Chromatography
Temperature, K	Activity coefficient of cyclohexene	uncertainty
308.15	9.2	0.63
318.15	8.87	0.61
328.15	8.55	0.58
338.15	8.27	0.56
348.15	7.99	0.54
358.15	7.76	0.53
368.15	7.54	0.51

System: 1-heptene + 1-butyl-3-methylpyridinium dicyanamide; phases: Liquid
Fixed: Pressure, kPa = 101
Fixed: Mole fraction of 1-heptene = 0
Property: Activity coefficient of 1-heptene (Liquid); method: Chromatography
Temperature, K	Activity coefficient of 1-heptene	uncertainty
308.15	33.1	2.3
318.15	31.2	2.1
328.15	29.7	2
338.15	28.3	1.9
348.15	27	1.8
358.15	25.9	1.8
368.15	24.8	1.7

System: oct-1-ene + 1-butyl-3-methylpyridinium dicyanamide; phases: Liquid
Fixed: Pressure, kPa = 101
Fixed: Mole fraction of oct-1-ene = 0
Property: Activity coefficient of oct-1-ene (Liquid); method: Chromatography
Temperature, K	Activity coefficient of oct-1-ene	uncertainty
308.15	49.7	3.4
318.15	46.7	3.2
328.15	44	3
338.15	41.8	2.9
348.15	39.5	2.7
358.15	37.6	2.6
368.15	35.7	2.4

System: 1-decene + 1-butyl-3-methylpyridinium dicyanamide; phases: Liquid
Fixed: Pressure, kPa = 101
Fixed: Mole fraction of 1-decene = 0
Property: Activity coefficient of 1-decene (Liquid); method: Chromatography
Temperature, K	Activity coefficient of 1-decene	uncertainty
308.15	109	7
318.15	101	7
328.15	93.8	6.4
338.15	88.4	6.1
348.15	83.2	5.7
358.15	78.1	5.4
368.15	73.9	5.1

System: 1-pentyne + 1-butyl-3-methylpyridinium dicyanamide; phases: Liquid
Fixed: Pressure, kPa = 101
Fixed: Mole fraction of 1-pentyne = 0
Property: Activity coefficient of 1-pentyne (Liquid); method: Chromatography
Temperature, K	Activity coefficient of 1-pentyne	uncertainty
308.15	2.9	0.2
318.15	2.97	0.2
328.15	3.05	0.21
338.15	3.14	0.21
348.15	3.21	0.22
358.15	3.28	0.22
368.15	3.35	0.23

System: 1-hexyne + 1-butyl-3-methylpyridinium dicyanamide; phases: Liquid
Fixed: Pressure, kPa = 101
Fixed: Mole fraction of 1-hexyne = 0
Property: Activity coefficient of 1-hexyne (Liquid); method: Chromatography
Temperature, K	Activity coefficient of 1-hexyne	uncertainty
308.15	4.13	0.28
318.15	4.25	0.29
328.15	4.35	0.3
338.15	4.45	0.3
348.15	4.55	0.31
358.15	4.62	0.31
368.15	4.72	0.32

System: 1-heptyne + 1-butyl-3-methylpyridinium dicyanamide; phases: Liquid
Fixed: Pressure, kPa = 101
Fixed: Mole fraction of 1-heptyne = 0
Property: Activity coefficient of 1-heptyne (Liquid); method: Chromatography
Temperature, K	Activity coefficient of 1-heptyne	uncertainty
308.15	6.16	0.42
318.15	6.27	0.43
328.15	6.38	0.43
338.15	6.48	0.44
348.15	6.58	0.45
358.15	6.67	0.45
368.15	6.78	0.46

System: 1-octyne + 1-butyl-3-methylpyridinium dicyanamide; phases: Liquid
Fixed: Pressure, kPa = 101
Fixed: Mole fraction of 1-octyne = 0
Property: Activity coefficient of 1-octyne (Liquid); method: Chromatography
Temperature, K	Activity coefficient of 1-octyne	uncertainty
308.15	9.22	0.63
318.15	9.32	0.64
328.15	9.42	0.64
338.15	9.52	0.65
348.15	9.6	0.65
358.15	9.68	0.66
368.15	9.75	0.67

System: benzene + 1-butyl-3-methylpyridinium dicyanamide; phases: Liquid
Fixed: Pressure, kPa = 101
Fixed: Mole fraction of benzene = 0
Property: Activity coefficient of benzene (Liquid); method: Chromatography
Temperature, K	Activity coefficient of benzene	uncertainty
328.15	1.37	0.09
338.15	1.4	0.09
348.15	1.43	0.09
358.15	1.47	0.1
368.15	1.5	0.1

System: toluene + 1-butyl-3-methylpyridinium dicyanamide; phases: Liquid
Fixed: Pressure, kPa = 101
Fixed: Mole fraction of toluene = 0
Property: Activity coefficient of toluene (Liquid); method: Chromatography
Temperature, K	Activity coefficient of toluene	uncertainty
328.15	2.01	0.14
338.15	2.05	0.14
348.15	2.1	0.14
358.15	2.15	0.15
368.15	2.2	0.15

System: ethylbenzene + 1-butyl-3-methylpyridinium dicyanamide; phases: Liquid
Fixed: Pressure, kPa = 101
Fixed: Mole fraction of ethylbenzene = 0
Property: Activity coefficient of ethylbenzene (Liquid); method: Chromatography
Temperature, K	Activity coefficient of ethylbenzene	uncertainty
328.15	3.21	0.22
338.15	3.26	0.22
348.15	3.32	0.23
358.15	3.35	0.23
368.15	3.41	0.23

System: 1,2-dimethylbenzene + 1-butyl-3-methylpyridinium dicyanamide; phases: Liquid
Fixed: Pressure, kPa = 101
Fixed: Mole fraction of 1,2-dimethylbenzene = 0
Property: Activity coefficient of 1,2-dimethylbenzene (Liquid); method: Chromatography
Temperature, K	Activity coefficient of 1,2-dimethylbenzene	uncertainty
328.15	2.47	0.17
338.15	2.51	0.17
348.15	2.58	0.18
358.15	2.64	0.18
368.15	2.71	0.18

System: 1,4-dimethylbenzene + 1-butyl-3-methylpyridinium dicyanamide; phases: Liquid
Fixed: Pressure, kPa = 101
Fixed: Mole fraction of 1,4-dimethylbenzene = 0
Property: Activity coefficient of 1,4-dimethylbenzene (Liquid); method: Chromatography
Temperature, K	Activity coefficient of 1,4-dimethylbenzene	uncertainty
328.15	2.86	0.19
338.15	2.92	0.2
348.15	3.02	0.21
358.15	3.08	0.21
368.15	3.17	0.22

System: 1,3-dimethylbenzene + 1-butyl-3-methylpyridinium dicyanamide; phases: Liquid
Fixed: Pressure, kPa = 101
Fixed: Mole fraction of 1,3-dimethylbenzene = 0
Property: Activity coefficient of 1,3-dimethylbenzene (Liquid); method: Chromatography
Temperature, K	Activity coefficient of 1,3-dimethylbenzene	uncertainty
328.15	3.01	0.2
338.15	3.06	0.21
348.15	3.14	0.21
358.15	3.2	0.22
368.15	3.28	0.22

System: styrene + 1-butyl-3-methylpyridinium dicyanamide; phases: Liquid
Fixed: Pressure, kPa = 101
Fixed: Mole fraction of styrene = 0
Property: Activity coefficient of styrene (Liquid); method: Chromatography
Temperature, K	Activity coefficient of styrene	uncertainty
328.15	1.39	0.09
338.15	1.44	0.09
348.15	1.49	0.1
358.15	1.54	0.1
368.15	1.59	0.11

System: (1-methylethenyl)benzene + 1-butyl-3-methylpyridinium dicyanamide; phases: Liquid
Fixed: Pressure, kPa = 101
Fixed: Mole fraction of (1-methylethenyl)benzene = 0
Property: Activity coefficient of (1-methylethenyl)benzene (Liquid); method: Chromatography
Temperature, K	Activity coefficient of (1-methylethenyl)benzene	uncertainty
328.15	2.1	0.14
338.15	2.21	0.15
348.15	2.33	0.16
358.15	2.44	0.17
368.15	2.55	0.17

System: ethanol + 1-butyl-3-methylpyridinium dicyanamide; phases: Liquid
Fixed: Pressure, kPa = 101
Fixed: Mole fraction of ethanol = 0
Property: Activity coefficient of ethanol (Liquid); method: Chromatography
Temperature, K	Activity coefficient of ethanol	uncertainty
338.15	0.549	0.04
348.15	0.545	0.04
358.15	0.541	0.04
368.15	0.537	0.039

System: propan-1-ol + 1-butyl-3-methylpyridinium dicyanamide; phases: Liquid
Fixed: Pressure, kPa = 101
Fixed: Mole fraction of propan-1-ol = 0
Property: Activity coefficient of propan-1-ol (Liquid); method: Chromatography
Temperature, K	Activity coefficient of propan-1-ol	uncertainty
338.15	0.678	0.046
348.15	0.663	0.045
358.15	0.65	0.044
368.15	0.638	0.044

System: butan-1-ol + 1-butyl-3-methylpyridinium dicyanamide; phases: Liquid
Fixed: Pressure, kPa = 101
Fixed: Mole fraction of butan-1-ol = 0
Property: Activity coefficient of butan-1-ol (Liquid); method: Chromatography
Temperature, K	Activity coefficient of butan-1-ol	uncertainty
338.15	0.88	0.056
348.15	0.855	0.055
358.15	0.84	0.054
368.15	0.814	0.053

System: water + 1-butyl-3-methylpyridinium dicyanamide; phases: Liquid
Fixed: Pressure, kPa = 101
Fixed: Mole fraction of water = 0
Property: Activity coefficient of water (Liquid); method: Chromatography
Temperature, K	Activity coefficient of water	uncertainty
338.15	0.294	0.031
348.15	0.302	0.031
358.15	0.307	0.031
368.15	0.314	0.031

System: thiophene + 1-butyl-3-methylpyridinium dicyanamide; phases: Liquid
Fixed: Pressure, kPa = 101
Fixed: Mole fraction of thiophene = 0
Property: Activity coefficient of thiophene (Liquid); method: Chromatography
Temperature, K	Activity coefficient of thiophene	uncertainty
308.15	0.822	0.053
318.15	0.844	0.054
328.15	0.868	0.055
338.15	0.89	0.057
348.15	0.911	0.058
358.15	0.937	0.059
368.15	0.955	0.06

System: tetrahydrofuran + 1-butyl-3-methylpyridinium dicyanamide; phases: Liquid
Fixed: Pressure, kPa = 101
Fixed: Mole fraction of tetrahydrofuran = 0
Property: Activity coefficient of tetrahydrofuran (Liquid); method: Chromatography
Temperature, K	Activity coefficient of tetrahydrofuran	uncertainty
308.15	1.38	0.09
318.15	1.4	0.09
328.15	1.43	0.09
338.15	1.45	0.1
348.15	1.47	0.1
358.15	1.5	0.1
368.15	1.53	0.1

System: 1,4-dioxane + 1-butyl-3-methylpyridinium dicyanamide; phases: Liquid
Fixed: Pressure, kPa = 101
Fixed: Mole fraction of 1,4-dioxane = 0
Property: Activity coefficient of 1,4-dioxane (Liquid); method: Chromatography
Temperature, K	Activity coefficient of 1,4-dioxane	uncertainty
338.15	1.01	0.06
348.15	1.05	0.07
358.15	1.08	0.07
368.15	1.11	0.07

System: 2-methoxy-2-methylpropane + 1-butyl-3-methylpyridinium dicyanamide; phases: Liquid
Fixed: Pressure, kPa = 101
Fixed: Mole fraction of 2-methoxy-2-methylpropane = 0
Property: Activity coefficient of 2-methoxy-2-methylpropane (Liquid); method: Chromatography
Temperature, K	Activity coefficient of 2-methoxy-2-methylpropane	uncertainty
308.15	6.76	0.46
318.15	6.77	0.46
328.15	6.78	0.46
338.15	6.78	0.46
348.15	6.79	0.46
358.15	6.8	0.46
368.15	6.8	0.46

System: 2-ethoxy-2-methylpropane + 1-butyl-3-methylpyridinium dicyanamide; phases: Liquid
Fixed: Pressure, kPa = 101
Fixed: Mole fraction of 2-ethoxy-2-methylpropane = 0
Property: Activity coefficient of 2-ethoxy-2-methylpropane (Liquid); method: Chromatography
Temperature, K	Activity coefficient of 2-ethoxy-2-methylpropane	uncertainty
308.15	18	1.2
318.15	17.5	1.2
328.15	17	1.2
338.15	16.7	1.1
348.15	16.3	1.1
358.15	15.9	1.1
368.15	15.6	1.1

System: 2-methoxy-2-methylbutane + 1-butyl-3-methylpyridinium dicyanamide; phases: Liquid
Fixed: Pressure, kPa = 101
Fixed: Mole fraction of 2-methoxy-2-methylbutane = 0
Property: Activity coefficient of 2-methoxy-2-methylbutane (Liquid); method: Chromatography
Temperature, K	Activity coefficient of 2-methoxy-2-methylbutane	uncertainty
308.15	9.8	0.67
318.15	9.71	0.66
328.15	9.59	0.65
338.15	9.51	0.65
348.15	9.44	0.64
358.15	9.35	0.64
368.15	9.27	0.63

System: diethyl ether + 1-butyl-3-methylpyridinium dicyanamide; phases: Liquid
Fixed: Pressure, kPa = 101
Fixed: Mole fraction of diethyl ether = 0
Property: Activity coefficient of diethyl ether (Liquid); method: Chromatography
Temperature, K	Activity coefficient of diethyl ether	uncertainty
308.15	6.37	0.43
318.15	6.33	0.43
328.15	6.29	0.43
338.15	6.26	0.43
348.15	6.22	0.42
358.15	6.19	0.42
368.15	6.15	0.42

System: dipropyl ether + 1-butyl-3-methylpyridinium dicyanamide; phases: Liquid
Fixed: Pressure, kPa = 101
Fixed: Mole fraction of dipropyl ether = 0
Property: Activity coefficient of dipropyl ether (Liquid); method: Chromatography
Temperature, K	Activity coefficient of dipropyl ether	uncertainty
308.15	18.3	1.3
318.15	17.7	1.2
328.15	17.2	1.2
338.15	16.6	1.1
348.15	16.3	1.1
358.15	15.6	1.1
368.15	15.2	1

System: dibutyl ether + 1-butyl-3-methylpyridinium dicyanamide; phases: Liquid
Fixed: Pressure, kPa = 101
Fixed: Mole fraction of dibutyl ether = 0
Property: Activity coefficient of dibutyl ether (Liquid); method: Chromatography
Temperature, K	Activity coefficient of dibutyl ether	uncertainty
308.15	41.9	2.9
318.15	39.2	2.7
328.15	37.1	2.5
338.15	35.1	2.4
348.15	34	2.3
358.15	32	2.2
368.15	30.8	2.1

System: acetone + 1-butyl-3-methylpyridinium dicyanamide; phases: Liquid
Fixed: Pressure, kPa = 101
Fixed: Mole fraction of acetone = 0
Property: Activity coefficient of acetone (Liquid); method: Chromatography
Temperature, K	Activity coefficient of acetone	uncertainty
328.15	0.946	0.06
338.15	0.968	0.061
348.15	0.999	0.062
358.15	1.03	0.06
368.15	1.04	0.07

System: pentan-2-one + 1-butyl-3-methylpyridinium dicyanamide; phases: Liquid
Fixed: Pressure, kPa = 101
Fixed: Mole fraction of pentan-2-one = 0
Property: Activity coefficient of pentan-2-one (Liquid); method: Chromatography
Temperature, K	Activity coefficient of pentan-2-one	uncertainty
328.15	1.81	0.12
338.15	1.84	0.12
348.15	1.89	0.13
358.15	1.93	0.13
368.15	1.96	0.13

System: pentan-3-one + 1-butyl-3-methylpyridinium dicyanamide; phases: Liquid
Fixed: Pressure, kPa = 101
Fixed: Mole fraction of pentan-3-one = 0
Property: Activity coefficient of pentan-3-one (Liquid); method: Chromatography
Temperature, K	Activity coefficient of pentan-3-one	uncertainty
328.15	1.84	0.12
338.15	1.89	0.13
348.15	1.94	0.13
358.15	1.97	0.13
368.15	2.01	0.14

System: 2-hexanone + 1-butyl-3-methylpyridinium dicyanamide; phases: Liquid
Fixed: Pressure, kPa = 101
Fixed: Mole fraction of 2-hexanone = 0
Property: Activity coefficient of 2-hexanone (Liquid); method: Chromatography
Temperature, K	Activity coefficient of 2-hexanone	uncertainty
328.15	2.44	0.17
338.15	2.48	0.17
348.15	2.54	0.17
358.15	2.59	0.18
368.15	2.63	0.18

System: cyclohexanone + 1-butyl-3-methylpyridinium dicyanamide; phases: Liquid
Fixed: Pressure, kPa = 101
Fixed: Mole fraction of cyclohexanone = 0
Property: Activity coefficient of cyclohexanone (Liquid); method: Chromatography
Temperature, K	Activity coefficient of cyclohexanone	uncertainty
338.15	0.928	0.059
348.15	0.96	0.06
358.15	0.988	0.062
368.15	1.01	0.06

System: acetonitrile + 1-butyl-3-methylpyridinium dicyanamide; phases: Liquid
Fixed: Pressure, kPa = 101
Fixed: Mole fraction of acetonitrile = 0
Property: Activity coefficient of acetonitrile (Liquid); method: Chromatography
Temperature, K	Activity coefficient of acetonitrile	uncertainty
338.15	0.736	0.049
348.15	0.748	0.049
358.15	0.76	0.05
368.15	0.764	0.05

System: pyridine + 1-butyl-3-methylpyridinium dicyanamide; phases: Liquid
Fixed: Pressure, kPa = 101
Fixed: Mole fraction of pyridine = 0
Property: Activity coefficient of pyridine (Liquid); method: Chromatography
Temperature, K	Activity coefficient of pyridine	uncertainty
338.15	0.718	0.048
348.15	0.731	0.048
358.15	0.754	0.05
368.15	0.768	0.05

System: 1-nitropropane + 1-butyl-3-methylpyridinium dicyanamide; phases: Liquid
Fixed: Pressure, kPa = 101
Fixed: Mole fraction of 1-nitropropane = 0
Property: Activity coefficient of 1-nitropropane (Liquid); method: Chromatography
Temperature, K	Activity coefficient of 1-nitropropane	uncertainty
338.15	1.13	0.07
348.15	1.14	0.07
358.15	1.15	0.07
368.15	1.15	0.07

System: 3-hexanone + 1-butyl-3-methylpyridinium dicyanamide; phases: Liquid
Fixed: Pressure, kPa = 101
Fixed: Mole fraction of 3-hexanone = 0
Property: Activity coefficient of 3-hexanone (Liquid); method: Chromatography
Temperature, K	Activity coefficient of 3-hexanone	uncertainty
338.15	2.77	0.19
348.15	2.82	0.19
358.15	2.87	0.2
368.15	2.89	0.2
