Measured thermophysical data. The role of water in cholinium carboxylate ionic liquid's aqueous solutions
Source: J. Chem. Thermodyn., 2015, 10.1016/j.jct.2014.12.020
Compound 1: cholinium propanoate, C8H19NO3, InChI=1S/C5H14NO.C3H6O2/c1-6(2,3)4-5-7;1-2-3(4)5/h7H,4-5H2,1-3H3;2H2,1H3,(H,4,5)/q+1;/p-1
Compound 2: 2-hydroxy-N,N,N-trimethylethanaminium (S)-2-hydroxypropanoate, C8H19NO4, InChI=1S/C5H14NO.C3H6O3/c1-6(2,3)4-5-7;1-2(4)3(5)6/h7H,4-5H2,1-3H3;2,4H,1H3,(H,5,6)/q+1;/p-1/t;2-/m.0/s1
Compound 3: cholinium malonate, C8H17NO5, InChI=1S/C5H14NO.C3H4O4/c1-6(2,3)4-5-7;4-2(5)1-3(6)7/h7H,4-5H2,1-3H3;1H2,(H,4,5)(H,6,7)/q+1;/p-1
Compound 4: water, H2O, InChI=1S/H2O/h1H2, purity 99.8%
Compound 5: 2-hydroxy-N,N,N-trimethylethanaminium hexanoate, C11H25NO3, InChI=1S/C6H12O2.C5H14NO/c1-2-3-4-5-6(7)8;1-6(2,3)4-5-7/h2-5H2,1H3,(H,7,8);7H,4-5H2,1-3H3/q;+1/p-1

System: water + cholinium propanoate; phases: Liquid
Fixed: Pressure, kPa = 100
Property: Viscosity, Pa*s (Liquid); method: Concentric cylinders viscometry
Temperature, K	Mass fraction of water	Viscosity, Pa*s	uncertainty
293.15	0.003	4.6	0.284
298.15	0.003	2.9186	0.1628
303.15	0.003	1.9096	0.0958
308.15	0.003	1.285	0.0589
313.15	0.003	0.8881	0.0373
318.15	0.003	0.6288	0.0242
323.15	0.003	0.4554	0.0161
328.15	0.003	0.3367	0.011
333.15	0.003	0.2538	0.0076
338.15	0.003	0.1948	0.0055
343.15	0.003	0.1519	0.004
293.15	0.01	3.3164	0.1905
298.15	0.01	2.1122	0.1088
303.15	0.01	1.41	0.0661
308.15	0.01	0.967	0.0414
313.15	0.01	0.6802	0.0267
318.15	0.01	0.4896	0.0176
323.15	0.01	0.36	0.0119
328.15	0.01	0.27	0.0083
333.15	0.01	0.2062	0.0059
338.15	0.01	0.1601	0.0043
343.15	0.01	0.1262	0.0032
293.15	0.021	2.1304	0.1098
298.15	0.021	1.4166	0.0664
303.15	0.021	0.9682	0.0415
308.15	0.021	0.6789	0.0266
313.15	0.021	0.4873	0.0175
318.15	0.021	0.3574	0.0118
323.15	0.021	0.2674	0.0082
328.15	0.021	0.2038	0.0058
333.15	0.021	0.1581	0.0042
338.15	0.021	0.1245	0.0031
343.15	0.021	0.0993	0.0024
293.15	0.025	1.8264	0.0906
298.15	0.025	1.2272	0.0556
303.15	0.025	0.8475	0.0351
308.15	0.025	0.5999	0.0228
313.15	0.025	0.4343	0.0151
318.15	0.025	0.3211	0.0103
323.15	0.025	0.2419	0.0072
328.15	0.025	0.1855	0.0051
333.15	0.025	0.1446	0.0038
338.15	0.025	0.1144	0.0028
343.15	0.025	0.0918	0.0022
293.15	0.046	0.9803	0.0421
298.15	0.046	0.6811	0.0267
303.15	0.046	0.4848	0.0174
308.15	0.046	0.353	0.0116
313.15	0.046	0.2623	0.0079
318.15	0.046	0.1987	0.0056
323.15	0.046	0.1531	0.004
328.15	0.046	0.1199	0.003
333.15	0.046	0.0953	0.0023
338.15	0.046	0.0767	0.0018
343.15	0.046	0.0625	0.0014
293.15	0.064	0.607	0.0231
298.15	0.064	0.4329	0.015
303.15	0.064	0.3157	0.01
308.15	0.064	0.2351	0.0069
313.15	0.064	0.1784	0.0049
318.15	0.064	0.1377	0.0035
323.15	0.064	0.108	0.0026
328.15	0.064	0.086	0.002
333.15	0.064	0.0694	0.0016
338.15	0.064	0.0567	0.0013
343.15	0.064	0.0468	0.001
293.15	0.1	0.286	0.0089
298.15	0.1	0.2118	0.006
303.15	0.1	0.1599	0.0042
308.15	0.1	0.123	0.0031
313.15	0.1	0.0961	0.0023
318.15	0.1	0.0762	0.0017
323.15	0.1	0.0613	0.0014
328.15	0.1	0.05	0.0011
333.15	0.1	0.0412	0.0009
338.15	0.1	0.0343	0.0008
343.15	0.1	0.0288	0.0006
293.15	0.127	0.1933	0.0054
298.15	0.127	0.1454	0.0037
303.15	0.127	0.1114	0.0027
308.15	0.127	0.0868	0.002
313.15	0.127	0.0687	0.0015
318.15	0.127	0.0551	0.0012
323.15	0.127	0.0448	0.001
328.15	0.127	0.0369	0.0008
333.15	0.127	0.0307	0.0007
338.15	0.127	0.0258	0.0006
343.15	0.127	0.0219	0.0005
293.15	0.208	0.0745	0.0017
298.15	0.208	0.0579	0.0013
303.15	0.208	0.0458	0.001
308.15	0.208	0.0367	0.0008
313.15	0.208	0.0298	0.0007
318.15	0.208	0.0245	0.0005
323.15	0.208	0.0204	0.0005
328.15	0.208	0.0172	0.0004
333.15	0.208	0.0146	0.0003
338.15	0.208	0.0125	0.0003
343.15	0.208	0.0108	0.0002
293.15	0.262	0.0496	0.0011
298.15	0.262	0.0391	0.0009
303.15	0.262	0.0314	0.0007
308.15	0.262	0.0255	0.0006
313.15	0.262	0.0208	0.0005
318.15	0.262	0.0175	0.0004
323.15	0.262	0.0147	0.0003
328.15	0.262	0.0125	0.0003
333.15	0.262	0.0106	0.0002
338.15	0.262	0.0093	0.0002
343.15	0.262	0.0081	0.0002

System: water + cholinium propanoate; phases: Liquid
Fixed: Pressure, kPa = 100
Property: Mass density, kg/m3 (Liquid); method: Vibrating tube method
Temperature, K	Mass fraction of water	Mass density, kg/m3	uncertainty
293.15	0.003	1070.1	1.3
298.15	0.003	1067.4	1.3
303.15	0.003	1064.6	1.3
308.15	0.003	1061.9	1.3
313.15	0.003	1059.2	1.3
318.15	0.003	1056.4	1.3
323.15	0.003	1053.6	1.3
328.15	0.003	1050.9	1.3
333.15	0.003	1048.2	1.3
338.15	0.003	1045.5	1.3
343.15	0.003	1042.9	1.3
293.15	0.01	1070.9	1.3
298.15	0.01	1068.1	1.3
303.15	0.01	1065.3	1.3
308.15	0.01	1062.5	1.3
313.15	0.01	1059.8	1.3
318.15	0.01	1057	1.3
323.15	0.01	1054.3	1.3
328.15	0.01	1051.6	1.3
333.15	0.01	1049	1.3
338.15	0.01	1046.3	1.3
343.15	0.01	1043.7	1.3
293.15	0.021	1072.1	1.3
298.15	0.021	1069.2	1.3
303.15	0.021	1066.4	1.3
308.15	0.021	1063.6	1.3
313.15	0.021	1060.8	1.3
318.15	0.021	1058.1	1.3
323.15	0.021	1055.4	1.3
328.15	0.021	1052.7	1.3
333.15	0.021	1050.1	1.3
338.15	0.021	1047.5	1.3
343.15	0.021	1044.8	1.3
293.15	0.025	1072.3	1.3
298.15	0.025	1069.5	1.3
303.15	0.025	1066.7	1.3
308.15	0.025	1063.8	1.3
313.15	0.025	1061	1.3
318.15	0.025	1058.3	1.3
323.15	0.025	1055.7	1.3
328.15	0.025	1053	1.3
333.15	0.025	1050.3	1.3
338.15	0.025	1047.8	1.3
343.15	0.025	1045.1	1.3
293.15	0.046	1074	1.3
298.15	0.046	1071.1	1.3
303.15	0.046	1068.2	1.3
308.15	0.046	1065.4	1.3
313.15	0.046	1062.6	1.3
318.15	0.046	1059.9	1.3
323.15	0.046	1057.3	1.3
328.15	0.046	1054.6	1.3
333.15	0.046	1052.1	1.3
338.15	0.046	1049.4	1.3
343.15	0.046	1046.7	1.3
293.15	0.064	1075.3	1.3
298.15	0.064	1072.3	1.3
303.15	0.064	1069.5	1.3
308.15	0.064	1066.7	1.3
313.15	0.064	1063.9	1.3
318.15	0.064	1061.2	1.3
323.15	0.064	1058.7	1.3
328.15	0.064	1056	1.3
333.15	0.064	1053.3	1.3
338.15	0.064	1050.7	1.3
343.15	0.064	1047.9	1.3
293.15	0.1	1076.9	1.3
298.15	0.1	1074	1.3
303.15	0.1	1071.2	1.3
308.15	0.1	1068.4	1.2
313.15	0.1	1065.7	1.2
318.15	0.1	1062.9	1.2
323.15	0.1	1060.2	1.2
328.15	0.1	1057.5	1.2
333.15	0.1	1054.8	1.2
338.15	0.1	1052.1	1.2
343.15	0.1	1049.3	1.2
293.15	0.127	1077.5	1.2
298.15	0.127	1074.6	1.2
303.15	0.127	1071.9	1.2
308.15	0.127	1069.1	1.2
313.15	0.127	1066.4	1.2
318.15	0.127	1063.6	1.2
323.15	0.127	1060.8	1.2
328.15	0.127	1058	1.2
333.15	0.127	1055.4	1.2
338.15	0.127	1052.6	1.2
343.15	0.127	1049.7	1.2
293.15	0.208	1077.7	1.2
298.15	0.208	1074.9	1.2
303.15	0.208	1072	1.2
308.15	0.208	1069.2	1.2
313.15	0.208	1066.3	1.2
318.15	0.208	1063.4	1.2
323.15	0.208	1060.6	1.2
328.15	0.208	1057.8	1.2
333.15	0.208	1054.9	1.2
338.15	0.208	1052	1.2
343.15	0.208	1049.1	1.2
293.15	0.262	1075.4	1.1
298.15	0.262	1072.3	1.1
303.15	0.262	1069.4	1.1
308.15	0.262	1066.5	1.1
313.15	0.262	1063.6	1.1
318.15	0.262	1060.7	1.1
323.15	0.262	1057.8	1.1
328.15	0.262	1054.9	1.1
333.15	0.262	1051.9	1.1
338.15	0.262	1048.9	1.1
343.15	0.262	1045.8	1.1

System: water + 2-hydroxy-N,N,N-trimethylethanaminium (S)-2-hydroxypropanoate; phases: Liquid
Fixed: Pressure, kPa = 100
Property: Viscosity, Pa*s (Liquid); method: Concentric cylinders viscometry
Temperature, K	Mass fraction of water	Viscosity, Pa*s	uncertainty
293.15	0.004	3.6613	0.215
298.15	0.004	2.3101	0.1217
303.15	0.004	1.5101	0.0719
308.15	0.004	1.0194	0.0442
313.15	0.004	0.7084	0.0281
318.15	0.004	0.5054	0.0183
323.15	0.004	0.3694	0.0123
328.15	0.004	0.2759	0.0085
333.15	0.004	0.2102	0.006
338.15	0.004	0.1631	0.0044
343.15	0.004	0.1287	0.0033
293.15	0.011	2.703	0.1479
298.15	0.011	1.7321	0.085
303.15	0.011	1.1501	0.0514
308.15	0.011	0.7876	0.0321
313.15	0.011	0.5547	0.0206
318.15	0.011	0.4007	0.0137
323.15	0.011	0.2962	0.0093
328.15	0.011	0.2235	0.0065
333.15	0.011	0.1719	0.0047
338.15	0.011	0.1346	0.0034
343.15	0.011	0.1069	0.0026
293.15	0.02	1.5433	0.1683
298.15	0.02	1.021	0.1094
303.15	0.02	0.6975	0.0737
308.15	0.02	0.4906	0.0512
313.15	0.02	0.3541	0.0366
318.15	0.02	0.2616	0.0268
323.15	0.02	0.1974	0.0201
328.15	0.02	0.1518	0.0154
333.15	0.02	0.1189	0.012
338.15	0.02	0.0946	0.0095
343.15	0.02	0.0763	0.0077
293.15	0.029	1.4083	0.0658
298.15	0.029	0.9365	0.0398
303.15	0.029	0.6423	0.0248
308.15	0.029	0.4535	0.016
313.15	0.029	0.3284	0.0106
318.15	0.029	0.2435	0.0072
323.15	0.029	0.1844	0.0051
328.15	0.029	0.1423	0.0037
333.15	0.029	0.1117	0.0027
338.15	0.029	0.089	0.0021
343.15	0.029	0.072	0.0016
293.15	0.045	0.888	0.0372
298.15	0.045	0.6043	0.023
303.15	0.045	0.4236	0.0146
308.15	0.045	0.305	0.0096
313.15	0.045	0.225	0.0065
318.15	0.045	0.1697	0.0046
323.15	0.045	0.1306	0.0033
328.15	0.045	0.1023	0.0025
333.15	0.045	0.0814	0.0019
338.15	0.045	0.0658	0.0015
343.15	0.045	0.0538	0.0012
293.15	0.066	0.5463	0.0202
298.15	0.066	0.3806	0.0128
303.15	0.066	0.2727	0.0083
308.15	0.066	0.2004	0.0056
313.15	0.066	0.1507	0.0039
318.15	0.066	0.1156	0.0028
323.15	0.066	0.0904	0.0021
328.15	0.066	0.0719	0.0016
333.15	0.066	0.058	0.0013
338.15	0.066	0.0475	0.0011
343.15	0.066	0.0393	0.0009
293.15	0.077	0.4214	0.0145
298.15	0.077	0.2971	0.0093
303.15	0.077	0.2152	0.0062
308.15	0.077	0.1598	0.0042
313.15	0.077	0.1214	0.003
318.15	0.077	0.094	0.0022
323.15	0.077	0.0741	0.0017
328.15	0.077	0.0593	0.0013
333.15	0.077	0.0482	0.0011
338.15	0.077	0.0397	0.0009
343.15	0.077	0.0331	0.0007
293.15	0.121	0.2013	0.0057
298.15	0.121	0.1467	0.0038
303.15	0.121	0.1094	0.0026
308.15	0.121	0.0835	0.0019
313.15	0.121	0.065	0.0014
318.15	0.121	0.0515	0.0011
323.15	0.121	0.0415	0.0009
328.15	0.121	0.0339	0.0008
333.15	0.121	0.0281	0.0006
338.15	0.121	0.0235	0.0005
343.15	0.121	0.0199	0.0004
293.15	0.167	0.1198	0.0029
298.15	0.167	0.0891	0.0021
303.15	0.167	0.0678	0.0015
308.15	0.167	0.0526	0.0012
313.15	0.167	0.0417	0.0009
318.15	0.167	0.0336	0.0007
323.15	0.167	0.0274	0.0006
328.15	0.167	0.0227	0.0005
333.15	0.167	0.019	0.0004
338.15	0.167	0.0161	0.0004
343.15	0.167	0.0138	0.0003
293.15	0.218	0.0705	0.0016
298.15	0.218	0.0536	0.0012
303.15	0.218	0.0416	0.0009
308.15	0.218	0.0329	0.0007
313.15	0.218	0.0264	0.0006
318.15	0.218	0.0216	0.0005
323.15	0.218	0.0179	0.0004
328.15	0.218	0.015	0.0003
333.15	0.218	0.0127	0.0003
338.15	0.218	0.011	0.0002
343.15	0.218	0.0095	0.0002
293.15	0.24	0.048	0.0011
298.15	0.24	0.0371	0.0008
303.15	0.24	0.0292	0.0007
308.15	0.24	0.0234	0.0005
313.15	0.24	0.0189	0.0004
318.15	0.24	0.0158	0.0004
323.15	0.24	0.0132	0.0003
328.15	0.24	0.0112	0.0003
333.15	0.24	0.0095	0.0002
338.15	0.24	0.0083	0.0002
343.15	0.24	0.0073	0.0002

System: water + 2-hydroxy-N,N,N-trimethylethanaminium (S)-2-hydroxypropanoate; phases: Liquid
Fixed: Pressure, kPa = 100
Property: Mass density, kg/m3 (Liquid); method: Vibrating tube method
Temperature, K	Mass fraction of water	Mass density, kg/m3	uncertainty
293.15	0.004	1140.9	1.4
298.15	0.004	1137.8	1.4
303.15	0.004	1134.7	1.4
308.15	0.004	1131.7	1.4
313.15	0.004	1128.6	1.4
318.15	0.004	1125.4	1.4
323.15	0.004	1122.3	1.4
328.15	0.004	1119.2	1.4
333.15	0.004	1116.3	1.4
338.15	0.004	1113.3	1.4
343.15	0.004	1110.2	1.4
293.15	0.011	1142	1.4
298.15	0.011	1138.8	1.4
303.15	0.011	1135.6	1.4
308.15	0.011	1132.4	1.4
313.15	0.011	1129.1	1.4
318.15	0.011	1125.9	1.4
323.15	0.011	1122.7	1.4
328.15	0.011	1119.8	1.4
333.15	0.011	1116.8	1.4
338.15	0.011	1114	1.4
343.15	0.011	1111	1.4
293.15	0.02	1142.3	1.4
298.15	0.02	1139	1.4
303.15	0.02	1135.7	1.4
308.15	0.02	1132.4	1.4
313.15	0.02	1129.2	1.4
318.15	0.02	1126.1	1.4
323.15	0.02	1123	1.4
328.15	0.02	1120.1	1.4
333.15	0.02	1117.1	1.4
338.15	0.02	1114.2	1.4
343.15	0.02	1111.3	1.4
293.15	0.029	1141.9	1.4
298.15	0.029	1138.5	1.4
303.15	0.029	1135.2	1.4
308.15	0.029	1131.8	1.4
313.15	0.029	1128.6	1.4
318.15	0.029	1125.5	1.4
323.15	0.029	1122.4	1.4
328.15	0.029	1119.4	1.4
333.15	0.029	1116.5	1.4
338.15	0.029	1113.6	1.4
343.15	0.029	1110.7	1.4
293.15	0.045	1140.9	1.4
298.15	0.045	1137.5	1.4
303.15	0.045	1134.2	1.4
308.15	0.045	1130.9	1.4
313.15	0.045	1127.8	1.4
318.15	0.045	1124.7	1.4
323.15	0.045	1121.6	1.4
328.15	0.045	1118.6	1.4
333.15	0.045	1115.6	1.4
338.15	0.045	1112.6	1.4
343.15	0.045	1109.8	1.3
293.15	0.066	1139.9	1.4
298.15	0.066	1136.5	1.4
303.15	0.066	1133.3	1.4
308.15	0.066	1130.1	1.3
313.15	0.066	1126.9	1.3
318.15	0.066	1123.8	1.3
323.15	0.066	1120.8	1.3
328.15	0.066	1117.7	1.3
333.15	0.066	1114.7	1.3
338.15	0.066	1111.8	1.3
343.15	0.066	1108.8	1.3
293.15	0.077	1139.3	1.3
298.15	0.077	1136	1.3
303.15	0.077	1132.7	1.3
308.15	0.077	1129.6	1.3
313.15	0.077	1126.4	1.3
318.15	0.077	1123.3	1.3
323.15	0.077	1120.2	1.3
328.15	0.077	1117.1	1.3
333.15	0.077	1114.1	1.3
338.15	0.077	1111.2	1.3
343.15	0.077	1108.1	1.3
293.15	0.121	1137	1.3
298.15	0.121	1133.7	1.3
303.15	0.121	1130.5	1.3
308.15	0.121	1127.3	1.3
313.15	0.121	1124.2	1.3
318.15	0.121	1121	1.3
323.15	0.121	1118	1.3
328.15	0.121	1114.9	1.3
333.15	0.121	1111.8	1.3
338.15	0.121	1108.6	1.3
343.15	0.121	1105.5	1.3
293.15	0.167	1135.4	1.3
298.15	0.167	1132.1	1.3
303.15	0.167	1128.9	1.3
308.15	0.167	1125.8	1.2
313.15	0.167	1122.6	1.2
318.15	0.167	1119.5	1.2
323.15	0.167	1116.3	1.2
328.15	0.167	1113.2	1.2
333.15	0.167	1110	1.2
338.15	0.167	1106.8	1.2
343.15	0.167	1103.7	1.2
293.15	0.218	1131.4	1.2
298.15	0.218	1128.1	1.2
303.15	0.218	1124.8	1.2
308.15	0.218	1121.6	1.2
313.15	0.218	1118.5	1.2
318.15	0.218	1115.2	1.2
323.15	0.218	1112	1.2
328.15	0.218	1108.8	1.2
333.15	0.218	1105.6	1.2
338.15	0.218	1102.4	1.2
343.15	0.218	1099.2	1.2
293.15	0.24	1127.4	1.2
298.15	0.24	1124.1	1.2
303.15	0.24	1120.8	1.2
308.15	0.24	1117.6	1.2
313.15	0.24	1114.5	1.2
318.15	0.24	1111.2	1.2
323.15	0.24	1108	1.2
328.15	0.24	1104.8	1.2
333.15	0.24	1101.5	1.2
338.15	0.24	1098.3	1.2
343.15	0.24	1095	1.2

System: water + cholinium malonate; phases: Liquid
Fixed: Pressure, kPa = 100
Property: Viscosity, Pa*s (Liquid); method: Concentric cylinders viscometry
Temperature, K	Mass fraction of water	Viscosity, Pa*s	uncertainty
293.15	0.001	12.053	0.8986
298.15	0.001	7.43	0.5064
303.15	0.001	4.675	0.2899
308.15	0.001	3.0764	0.1737
313.15	0.001	2.0886	0.1072
318.15	0.001	1.4532	0.0685
323.15	0.001	1.034	0.045
328.15	0.001	0.7529	0.0303
333.15	0.001	0.5566	0.0207
338.15	0.001	0.4198	0.0145
343.15	0.001	0.3215	0.0103
293.15	0.018	4.3812	0.2681
298.15	0.018	2.8499	0.158
303.15	0.018	1.908	0.0957
308.15	0.018	1.3118	0.0604
313.15	0.018	0.9245	0.0392
318.15	0.018	0.6667	0.026
323.15	0.018	0.491	0.0177
328.15	0.018	0.3687	0.0123
333.15	0.018	0.282	0.0087
338.15	0.018	0.2198	0.0064
343.15	0.018	0.1753	0.0048
293.15	0.024	3.5654	0.208
298.15	0.024	2.3162	0.122
303.15	0.024	1.5634	0.0749
308.15	0.024	1.084	0.0477
313.15	0.024	0.77	0.0311
318.15	0.024	0.5597	0.0208
323.15	0.024	0.4152	0.0143
328.15	0.024	0.3146	0.01
333.15	0.024	0.2423	0.0072
338.15	0.024	0.1895	0.0053
343.15	0.024	0.1524	0.004
293.15	0.051	1.377	0.0644
298.15	0.051	0.9412	0.04
303.15	0.051	0.651	0.0252
308.15	0.051	0.4679	0.0166
313.15	0.051	0.3439	0.0112
318.15	0.051	0.2576	0.0078
323.15	0.051	0.1997	0.0056
328.15	0.051	0.1558	0.0041
333.15	0.051	0.1242	0.0031
338.15	0.051	0.1003	0.0024
343.15	0.051	0.0803	0.0018
293.15	0.079	0.6221	0.0239
298.15	0.079	0.4387	0.0153
303.15	0.079	0.3171	0.0101
308.15	0.079	0.2345	0.0069
313.15	0.079	0.1771	0.0048
318.15	0.079	0.1363	0.0035
323.15	0.079	0.1068	0.0026
328.15	0.079	0.0851	0.002
333.15	0.079	0.069	0.0016
338.15	0.079	0.0575	0.0013
343.15	0.079	0.0486	0.0011
293.15	0.107	0.3128	0.01
298.15	0.107	0.227	0.0066
303.15	0.107	0.1685	0.0045
308.15	0.107	0.1277	0.0032
313.15	0.107	0.0986	0.0023
318.15	0.107	0.0775	0.0018
323.15	0.107	0.0618	0.0014
328.15	0.107	0.0501	0.0011
333.15	0.107	0.0411	0.0009
338.15	0.107	0.0339	0.0008
343.15	0.107	0.0286	0.0006
293.15	0.13	0.2063	0.0058
298.15	0.13	0.1522	0.004
303.15	0.13	0.1147	0.0028
308.15	0.13	0.0882	0.002
313.15	0.13	0.069	0.0015
318.15	0.13	0.0549	0.0012
323.15	0.13	0.0444	0.001
328.15	0.13	0.0363	0.0008
333.15	0.13	0.0302	0.0007
338.15	0.13	0.0254	0.0006
343.15	0.13	0.0214	0.0005
293.15	0.152	0.1454	0.0037
298.15	0.152	0.1089	0.0026
303.15	0.152	0.0832	0.0019
308.15	0.152	0.0648	0.0014
313.15	0.152	0.0513	0.0011
318.15	0.152	0.0412	0.0009
323.15	0.152	0.0336	0.0007
328.15	0.152	0.0278	0.0006
333.15	0.152	0.0232	0.0005
338.15	0.152	0.0196	0.0004
343.15	0.152	0.0167	0.0004
293.15	0.355	0.0143	0.0004
298.15	0.355	0.0119	0.0003
303.15	0.355	0.0099	0.0003
308.15	0.355	0.0084	0.0002
313.15	0.355	0.007	0.0002
318.15	0.355	0.0062	0.0002
323.15	0.355	0.0054	0.0001
328.15	0.355	0.0048	0.0001
333.15	0.355	0.004	0.0001
338.15	0.355	0.0038	0.0001
343.15	0.355	0.0034	0.0001

System: water + cholinium malonate; phases: Liquid
Fixed: Pressure, kPa = 100
Property: Mass density, kg/m3 (Liquid); method: Vibrating tube method
Temperature, K	Mass fraction of water	Mass density, kg/m3	uncertainty
293.15	0.001	1205	1.5
298.15	0.001	1202.1	1.5
303.15	0.001	1199.1	1.5
308.15	0.001	1196.2	1.5
313.15	0.001	1193.1	1.5
318.15	0.001	1190	1.5
323.15	0.001	1186.8	1.5
328.15	0.001	1183.6	1.5
333.15	0.001	1180.4	1.5
338.15	0.001	1177.1	1.5
343.15	0.001	1173.7	1.5
293.15	0.018	1202.9	1.5
298.15	0.018	1199.7	1.5
303.15	0.018	1196.5	1.5
308.15	0.018	1193.4	1.5
313.15	0.018	1190.2	1.5
318.15	0.018	1187	1.5
323.15	0.018	1183.7	1.5
328.15	0.018	1180.5	1.5
333.15	0.018	1177.3	1.5
338.15	0.018	1174.1	1.5
343.15	0.018	1170.9	1.5
293.15	0.024	1201.8	1.5
298.15	0.024	1198.6	1.5
303.15	0.024	1195.3	1.5
308.15	0.024	1192.1	1.5
313.15	0.024	1188.8	1.5
318.15	0.024	1185.6	1.5
323.15	0.024	1182.3	1.5
328.15	0.024	1179.6	1.5
333.15	0.024	1176.5	1.5
338.15	0.024	1173.4	1.5
343.15	0.024	1170.4	1.5
293.15	0.051	1196.4	1.5
298.15	0.051	1193.1	1.5
303.15	0.051	1191.2	1.4
308.15	0.051	1187.8	1.4
313.15	0.051	1184.5	1.4
318.15	0.051	1181.3	1.4
323.15	0.051	1178.1	1.4
328.15	0.051	1175.1	1.4
333.15	0.051	1172	1.4
338.15	0.051	1169	1.4
343.15	0.051	1166	1.4
293.15	0.079	1191.9	1.4
298.15	0.079	1188.4	1.4
303.15	0.079	1185.1	1.4
308.15	0.079	1181.7	1.4
313.15	0.079	1178.5	1.4
318.15	0.079	1175.2	1.4
323.15	0.079	1172	1.4
328.15	0.079	1168.7	1.4
333.15	0.079	1165.9	1.4
338.15	0.079	1163.8	1.4
343.15	0.079	1160.5	1.4
293.15	0.107	1186.6	1.4
298.15	0.107	1183.2	1.4
303.15	0.107	1179.9	1.4
308.15	0.107	1176.6	1.4
313.15	0.107	1173.4	1.4
318.15	0.107	1170	1.4
323.15	0.107	1166.7	1.3
328.15	0.107	1164.9	1.3
333.15	0.107	1162	1.3
338.15	0.107	1158.8	1.3
343.15	0.107	1155.5	1.3
293.15	0.13	1182.6	1.3
298.15	0.13	1179.4	1.3
303.15	0.13	1176.1	1.3
308.15	0.13	1172.9	1.3
313.15	0.13	1169.7	1.3
318.15	0.13	1166.3	1.3
323.15	0.13	1163	1.3
328.15	0.13	1159.7	1.3
333.15	0.13	1156.3	1.3
338.15	0.13	1154.2	1.3
343.15	0.13	1151	1.3
293.15	0.152	1178.9	1.3
298.15	0.152	1175.7	1.3
303.15	0.152	1172.6	1.3
308.15	0.152	1169.4	1.3
313.15	0.152	1166.2	1.3
318.15	0.152	1163	1.3
323.15	0.152	1159.8	1.3
328.15	0.152	1156.7	1.3
333.15	0.152	1153.5	1.3
338.15	0.152	1150.4	1.3
343.15	0.152	1147.1	1.3
293.15	0.355	1146.5	1.1
298.15	0.355	1143.2	1.1
303.15	0.355	1140	1.1
308.15	0.355	1136.9	1.1
313.15	0.355	1133.7	1.1
318.15	0.355	1130.4	1.1
323.15	0.355	1127.1	1.1
328.15	0.355	1123.8	1.1
333.15	0.355	1120.5	1.1
338.15	0.355	1117.2	1.1
343.15	0.355	1113.8	1.1

System: water + 2-hydroxy-N,N,N-trimethylethanaminium hexanoate; phases: Liquid
Fixed: Pressure, kPa = 100
Property: Mass density, kg/m3 (Liquid); method: Vibrating tube method
Temperature, K	Mass fraction of water	Mass density, kg/m3	uncertainty
293.15	0.058	1018	1
298.15	0.058	1015	1
303.15	0.058	1012	1
308.15	0.058	1009	1
313.15	0.058	1007	1
318.15	0.058	1004	1
323.15	0.058	1001	1
328.15	0.058	998	1
333.15	0.058	996	1
338.15	0.058	993	1
343.15	0.058	990	1
293.15	0.091	1021	1
298.15	0.091	1018	1
303.15	0.091	1015	1
308.15	0.091	1012	1
313.15	0.091	1009	1
318.15	0.091	1006	1
323.15	0.091	1003	1
328.15	0.091	1001	1
333.15	0.091	998	1
338.15	0.091	995	1
343.15	0.091	992	1
293.15	0.161	1026	1
298.15	0.161	1023	1
303.15	0.161	1020	1
308.15	0.161	1017	1
313.15	0.161	1014	1
318.15	0.161	1011	1
323.15	0.161	1008	1
328.15	0.161	1005	1
333.15	0.161	1003	1
338.15	0.161	1000	1
343.15	0.161	997	1
293.15	0.198	1026	1
298.15	0.198	1023	1
303.15	0.198	1021	1
308.15	0.198	1018	1
313.15	0.198	1015	1
318.15	0.198	1012	1
323.15	0.198	1009	1
328.15	0.198	1006	1
333.15	0.198	1003	1
338.15	0.198	1000	1
343.15	0.198	997	1

System: water + 2-hydroxy-N,N,N-trimethylethanaminium hexanoate; phases: Liquid
Fixed: Pressure, kPa = 100
Property: Viscosity, Pa*s (Liquid); method: Concentric cylinders viscometry
Temperature, K	Mass fraction of water	Viscosity, Pa*s	uncertainty
293.15	0.058	1.1874	0.0533
298.15	0.058	0.8319	0.0343
303.15	0.058	0.5981	0.0226
308.15	0.058	0.439	0.0153
313.15	0.058	0.3284	0.0106
318.15	0.058	0.2491	0.0074
323.15	0.058	0.1923	0.0053
328.15	0.058	0.1504	0.0039
333.15	0.058	0.1195	0.003
338.15	0.058	0.0956	0.0023
343.15	0.058	0.0776	0.0018
293.15	0.091	0.6403	0.0247
298.15	0.091	0.4626	0.0163
303.15	0.091	0.3407	0.011
308.15	0.091	0.2555	0.0076
313.15	0.091	0.1953	0.0054
318.15	0.091	0.1508	0.0039
323.15	0.091	0.1184	0.0029
328.15	0.091	0.0941	0.0022
333.15	0.091	0.076	0.0017
338.15	0.091	0.0617	0.0014
343.15	0.091	0.0507	0.0011
293.15	0.161	0.2021	0.0058
298.15	0.161	0.1512	0.0039
303.15	0.161	0.1148	0.0028
308.15	0.161	0.0886	0.0021
313.15	0.161	0.0697	0.0016
318.15	0.161	0.0551	0.0012
323.15	0.161	0.0443	0.001
328.15	0.161	0.0361	0.0008
333.15	0.161	0.0298	0.0007
338.15	0.161	0.0247	0.0006
343.15	0.161	0.0207	0.0005
293.15	0.198	0.1668	0.0044
298.15	0.198	0.1253	0.0031
303.15	0.198	0.0956	0.0022
308.15	0.198	0.0741	0.0017
313.15	0.198	0.0584	0.0013
318.15	0.198	0.0464	0.001
323.15	0.198	0.0375	0.0008
328.15	0.198	0.0306	0.0007
333.15	0.198	0.0253	0.0006
338.15	0.198	0.021	0.0005
343.15	0.198	0.0177	0.0004
