Measured thermophysical data. The partial molar volumes for water dissolved in high-pressure carbon dioxide from T = (318.28 to 369.40) K and pressures to p = 35 MPa
Source: J. Chem. Thermodyn., 2016, 10.1016/j.jct.2015.07.013
Compound 1: carbon dioxide, CO2, InChI=1S/CO2/c2-1-3, purity 99.9995%
Compound 2: water, H2O, InChI=1S/H2O/h1H2

System: carbon dioxide + water; phases: Fluid (supercritical or subcritical phases)
Property: Mass density, kg/m3 (Fluid (supercritical or subcritical phases)); method: Vibrating tube method
Temperature, K	Pressure, kPa	Molality, mol/kg of water	Mass density, kg/m3	uncertainty
318.279	9989	0.05325	498.45	0.52
318.279	9993	0.05325	499.44	0.55
318.279	12511	0.05325	678.8	0.31
318.279	12514	0.05325	679.01	0.32
318.279	15013	0.05325	742.96	0.28
318.279	15016	0.05325	743.08	0.28
318.279	17505	0.05325	783.08	0.26
318.279	17506	0.05325	783.21	0.26
318.279	20002	0.05325	813.13	0.25
318.279	20006	0.05325	813.07	0.25
318.279	22468	0.05325	836.88	0.24
318.279	22488	0.05325	836.95	0.24
318.279	24951	0.05325	856.98	0.22
318.279	24969	0.05325	857.06	0.22
318.279	27491	0.05325	874.81	0.21
318.279	27509	0.05325	874.88	0.21
318.279	30000	0.05325	890.43	0.2
318.279	30005	0.05325	890.38	0.2
318.279	32490	0.05325	904.36	0.19
318.279	32493	0.05325	904.28	0.19
318.279	35031	0.05325	917.3	0.18
318.279	35034	0.05325	917.22	0.18
322.904	10023	0.06468	394.72	0.34
322.904	10056	0.06468	398.16	0.35
322.904	12506	0.06468	620.56	0.36
322.904	12536	0.06468	621.74	0.36
322.904	15005	0.06468	704.42	0.32
322.904	15011	0.06468	704.76	0.32
322.904	17499	0.06468	752.63	0.29
322.904	17533	0.06468	753.35	0.29
322.904	20016	0.06468	787.31	0.28
322.904	20019	0.06468	787.47	0.28
322.904	22532	0.06468	814.42	0.26
322.904	22532	0.06468	814.49	0.26
322.904	25026	0.06468	836.65	0.25
322.904	25044	0.06468	836.81	0.25
322.904	27532	0.06468	855.8	0.24
322.904	27550	0.06468	855.87	0.24
322.904	30053	0.06468	872.7	0.23
322.904	30070	0.06468	872.77	0.23
322.904	32528	0.06468	887.5	0.22
322.904	32569	0.06468	887.74	0.22
322.904	35000	0.06468	900.9	0.2
322.904	35046	0.06468	901.14	0.2
346.236	2500	0.06468	41.49	0.05
346.236	2505	0.06468	41.54	0.05
346.236	5009	0.06468	91.61	0.09
346.236	5021	0.06468	91.91	0.08
346.236	7512	0.06468	153.2	0.14
346.236	10022	0.06468	240.2	0.22
346.236	10023	0.06468	240.16	0.22
346.236	12428	0.06468	350.16	0.34
346.236	12433	0.06468	350.39	0.34
346.236	12437	0.06468	350.58	0.34
346.236	12456	0.06468	351.5	0.34
346.236	12502	0.06468	353.96	0.34
346.236	14999	0.06468	479.98	0.5
346.236	15012	0.06468	480.38	0.5
346.236	17497	0.06468	575.26	0.48
346.236	17511	0.06468	575.61	0.48
346.236	20006	0.06468	640.02	0.45
346.236	20019	0.06468	640.33	0.45
346.236	22503	0.06468	686.44	0.43
346.236	22515	0.06468	686.68	0.43
346.236	25008	0.06468	722.35	0.41
346.236	25019	0.06468	722.55	0.41
346.236	27505	0.06468	751.33	0.39
346.236	27513	0.06468	751.48	0.39
346.236	30006	0.06468	775.71	0.38
346.236	30013	0.06468	775.84	0.38
346.236	32500	0.06468	796.76	0.37
346.236	32501	0.06468	796.72	0.37
346.236	35024	0.06468	815.51	0.35
346.236	35025	0.06468	815.42	0.35
346.72	2108	0.06597	34.53	0.05
346.72	4958	0.06597	90.32	0.08
346.72	5004	0.06597	91.34	0.08
346.72	7552	0.06597	153.23	0.14
346.72	7613	0.06597	154.71	0.14
346.72	10006	0.06597	238.25	0.22
346.72	10015	0.06597	238.62	0.22
346.72	12507	0.06597	351.57	0.34
346.72	12524	0.06597	352.45	0.34
346.72	14991	0.06597	476.26	0.49
346.72	15018	0.06597	477.4	0.49
346.72	17482	0.06597	571.7	0.49
346.72	17535	0.06597	573.3	0.49
346.72	20027	0.06597	638.01	0.45
346.72	22395	0.06597	682.42	0.43
346.72	25005	0.06597	720.26	0.41
346.72	25007	0.06597	720.35	0.41
346.72	27513	0.06597	749.6	0.39
346.72	27531	0.06597	749.73	0.39
346.72	30001	0.06597	773.97	0.38
346.72	30002	0.06597	774.03	0.38
346.72	32489	0.06597	795.06	0.37
346.72	32496	0.06597	795.17	0.37
346.72	35020	0.06597	813.96	0.36
346.72	35022	0.06597	814.05	0.36
346.776	2480	0.06597	41.06	0.05
346.776	2496	0.06597	41.27	0.05
346.776	4972	0.06597	90.54	0.08
346.776	7510	0.06597	152.16	0.13
346.776	7611	0.06597	154.54	0.14
346.776	9995	0.06597	237.78	0.22
346.776	10000	0.06597	237.94	0.22
346.776	15022	0.06597	477.42	0.49
346.776	17370	0.06597	568.06	0.49
346.776	17505	0.06597	571.92	0.49
346.776	20044	0.06597	638.21	0.45
346.776	22309	0.06597	680.92	0.43
346.776	22465	0.06597	683.45	0.43
346.776	25024	0.06597	720.41	0.41
346.776	25052	0.06597	720.76	0.41
346.776	27467	0.06597	748.97	0.4
346.776	27506	0.06597	749.37	0.4
346.776	29172	0.06597	766.16	0.39
346.776	29994	0.06597	773.81	0.38
346.776	32359	0.06597	793.94	0.37
346.776	32436	0.06597	794.55	0.37
346.776	34881	0.06597	812.93	0.36
346.776	35065	0.06597	814.2	0.36
369.406	2506	0.06468	38.26	0.05
369.406	2508	0.06468	38.4	0.05
369.406	5008	0.06468	82.15	0.08
369.406	5009	0.06468	82.28	0.08
369.406	7446	0.06468	131.89	0.12
369.406	7500	0.06468	132.75	0.12
369.406	10015	0.06468	193.18	0.18
369.406	10026	0.06468	194.28	0.22
369.406	10675	0.06468	211.9	0.2
369.406	12402	0.06468	262.47	0.26
369.406	12448	0.06468	263.93	0.26
369.406	14937	0.06468	343.84	0.36
369.406	14980	0.06468	345.18	0.37
369.406	17455	0.06468	426.01	0.48
369.406	17493	0.06468	427.15	0.49
369.406	19982	0.06468	499.25	0.61
369.406	19996	0.06468	499.57	0.61
369.406	22488	0.06468	558.75	0.59
369.406	22511	0.06468	559.2	0.59
369.406	24999	0.06468	606.67	0.56
369.406	24999	0.06468	606.66	0.56
369.406	27507	0.06468	645.63	0.55
369.406	27511	0.06468	645.69	0.55
369.406	30012	0.06468	678.12	0.53
369.406	30014	0.06468	678.08	0.53
369.406	32510	0.06468	705.66	0.52
369.406	32519	0.06468	705.69	0.52
369.406	35017	0.06468	729.64	0.5
369.406	35025	0.06468	729.77	0.5
