Measured thermophysical data. Extraction of toluene from aliphatic compounds using an ionic liquid as solvent: Influence of the alkane on the (liquid + liquid) equilibrium
Source: J. Chem. Thermodyn., 2011, 10.1016/j.jct.2010.11.013
Compound 1: hexane, C6H14, InChI=1S/C6H14/c1-3-5-6-4-2/h3-6H2,1-2H3, purity 99%
Compound 2: heptane, C7H16, InChI=1S/C7H16/c1-3-5-7-6-4-2/h3-7H2,1-2H3, purity 99.5%
Compound 3: octane, C8H18, InChI=1S/C8H18/c1-3-5-7-8-6-4-2/h3-8H2,1-2H3, purity 99.5%
Compound 4: nonane, C9H20, InChI=1S/C9H20/c1-3-5-7-9-8-6-4-2/h3-9H2,1-2H3, purity 99%
Compound 5: toluene, C7H8, InChI=1S/C7H8/c1-7-5-3-2-4-6-7/h2-6H,1H3, purity 99.9%
Compound 6: 1-ethyl-3-methylimidazolium ethyl sulfate, C8H16N2O4S, InChI=1S/C6H11N2.C2H6O4S/c1-3-8-5-4-7(2)6-8;1-2-6-7(3,4)5/h4-6H,3H2,1-2H3;2H2,1H3,(H,3,4,5)/q+1;/p-1, purity 99%

System: hexane; phases: Liquid
Property: Refractive index (Na D-line) (Liquid); method: Standard Abbe refractometry
Temperature, K	Pressure, kPa	Refractive index (Na D-line)	uncertainty
298.15	101.325	1.37234	0.0007

System: hexane; phases: Liquid
Property: Mass density, kg/m3 (Liquid); method: Vibrating tube method
Temperature, K	Pressure, kPa	Mass density, kg/m3	uncertainty
298.15	101.325	655.19	0.26

System: heptane; phases: Liquid
Property: Refractive index (Na D-line) (Liquid); method: Standard Abbe refractometry
Temperature, K	Pressure, kPa	Refractive index (Na D-line)	uncertainty
298.15	101.325	1.38515	0.00068

System: heptane; phases: Liquid
Property: Mass density, kg/m3 (Liquid); method: Vibrating tube method
Temperature, K	Pressure, kPa	Mass density, kg/m3	uncertainty
298.15	101.325	679.56	0.19

System: octane; phases: Liquid
Property: Refractive index (Na D-line) (Liquid); method: Standard Abbe refractometry
Temperature, K	Pressure, kPa	Refractive index (Na D-line)	uncertainty
298.15	101.325	1.39519	0.00068

System: octane; phases: Liquid
Property: Mass density, kg/m3 (Liquid); method: Vibrating tube method
Temperature, K	Pressure, kPa	Mass density, kg/m3	uncertainty
298.15	101.325	698.6	0.18

System: nonane; phases: Liquid
Property: Refractive index (Na D-line) (Liquid); method: Standard Abbe refractometry
Temperature, K	Pressure, kPa	Refractive index (Na D-line)	uncertainty
298.15	101.325	1.40326	0.0007

System: nonane; phases: Liquid
Property: Mass density, kg/m3 (Liquid); method: Vibrating tube method
Temperature, K	Pressure, kPa	Mass density, kg/m3	uncertainty
298.15	101.325	713.99	0.25

System: toluene; phases: Liquid
Property: Refractive index (Na D-line) (Liquid); method: Standard Abbe refractometry
Temperature, K	Pressure, kPa	Refractive index (Na D-line)	uncertainty
298.15	101.325	1.49399	0.00068

System: toluene; phases: Liquid
Property: Mass density, kg/m3 (Liquid); method: Vibrating tube method
Temperature, K	Pressure, kPa	Mass density, kg/m3	uncertainty
298.15	101.325	862.17	0.11

System: 1-ethyl-3-methylimidazolium ethyl sulfate; phases: Liquid
Property: Refractive index (Na D-line) (Liquid); method: Standard Abbe refractometry
Temperature, K	Pressure, kPa	Refractive index (Na D-line)	uncertainty
298.15	101.325	1.4791	0.0007

System: 1-ethyl-3-methylimidazolium ethyl sulfate; phases: Liquid
Property: Mass density, kg/m3 (Liquid); method: Vibrating tube method
Temperature, K	Pressure, kPa	Mass density, kg/m3	uncertainty
298.15	101.325	1237.23	0.43

System: toluene + hexane + 1-ethyl-3-methylimidazolium ethyl sulfate; phases: Liquid mixture 1, Liquid mixture 2
Fixed: Temperature, K = 298.15
Property: Mass density, kg/m3 (Liquid mixture 1); method: Vibrating tube method
Mole fraction of hexane	Mole fraction of toluene	Mass density, kg/m3	uncertainty
0.003	0.182	1202.84	1.29
0.006	0.136	1211.29	1.83
0.009	0.085	1220.56	1.68

System: toluene + hexane + 1-ethyl-3-methylimidazolium ethyl sulfate; phases: Liquid mixture 1, Liquid mixture 2
Fixed: Temperature, K = 298.15
Property: Mass density, kg/m3 (Liquid mixture 1); method: Vibrating tube method
Mole fraction of hexane	Mole fraction of toluene	Mass density, kg/m3	uncertainty
0	0.248	1189.13	1.22
0.001	0.176	1203.63	2.06
0.003	0.217	1194.45	2.11
0.004	0.139	1209.91	1.3
0.006	0.116	1214.29	1.09
0.008	0.099	1218.23	1.33
0.009	0.077	1221.33	1.5
0.011	0.041	1228.29	2.82
0.015	0	1234.45	1.31

System: toluene + hexane + 1-ethyl-3-methylimidazolium ethyl sulfate; phases: Liquid mixture 1, Liquid mixture 2
Fixed: Temperature, K = 298.15
Fixed: Pressure, kPa = 101.3
Property: Mole fraction of hexane (Liquid mixture 1); method: Density calibration data
Property: Mole fraction of hexane (Liquid mixture 2); method: Density calibration data
Property: Mole fraction of toluene (Liquid mixture 2); method: Density calibration data
Mole fraction of toluene	Mole fraction of hexane	uncertainty	Mole fraction of hexane	uncertainty	Mole fraction of toluene	uncertainty
0.065	0.935	0.01	0.012	0.01	0.018	
0.127	0.873	0.014	0.011	0.01	0.036	
0.191	0.809	0.014	0.01	0.01	0.053	
0.25	0.75	0.014	0.009	0.009	0.067	
0.383	0.617	0.014	0.007	0.007	0.099	
0.518	0.482	0.014	0.005	0.005	0.129	
0.638	0.362	0.014	0.004	0.004	0.157	
0.774	0.226	0.014	0.003	0.003	0.186	
0.892	0.108	0.01	0.002	0.002	0.217	

System: toluene + heptane + 1-ethyl-3-methylimidazolium ethyl sulfate; phases: Liquid mixture 1, Liquid mixture 2
Fixed: Temperature, K = 298.15
Property: Mass density, kg/m3 (Liquid mixture 1); method: Vibrating tube method
Mole fraction of heptane	Mole fraction of toluene	Mass density, kg/m3	uncertainty
0	0.248	1189.13	1.22
0.001	0.219	1195.81	2.69
0.003	0.113	1215.63	1.32
0.003	0.181	1202.83	2.1
0.003	0.197	1199.56	2.1
0.006	0.076	1222.45	1.99
0.006	0.101	1217.93	1.98
0.008	0	1235.41	1.08
0.008	0.041	1228.33	2.03

System: toluene + heptane + 1-ethyl-3-methylimidazolium ethyl sulfate; phases: Liquid mixture 1, Liquid mixture 2
Fixed: Temperature, K = 298.15
Property: Mass density, kg/m3 (Liquid mixture 1); method: Vibrating tube method
Mole fraction of heptane	Mole fraction of toluene	Mass density, kg/m3	uncertainty
0.002	0.185	1201.91	1.26
0.003	0.156	1207.07	3.05
0.006	0.057	1226.16	1.48

System: toluene + heptane + 1-ethyl-3-methylimidazolium ethyl sulfate; phases: Liquid mixture 1, Liquid mixture 2
Fixed: Temperature, K = 298.15
Fixed: Pressure, kPa = 101.3
Property: Mole fraction of toluene (Liquid mixture 1); method: Density calibration data
Property: Mole fraction of heptane (Liquid mixture 2); method: Density calibration data
Property: Mole fraction of toluene (Liquid mixture 2); method: Density calibration data
Mole fraction of heptane	Mole fraction of toluene	uncertainty	Mole fraction of heptane	uncertainty	Mole fraction of toluene	uncertainty
0.874	0.126	0.01	0.007	0.007	0.031	
0.81	0.19	0.014	0.007	0.007	0.048	
0.745	0.255	0.014	0.007	0.007	0.065	
0.617	0.383	0.014	0.006	0.006	0.096	
0.477	0.523	0.014	0.005	0.005	0.12	
0.337	0.663	0.014	0.004	0.004	0.147	
0.214	0.786	0.014	0.003	0.003	0.167	
0.077	0.923	0.01	0.002	0.002	0.202	

System: toluene + octane + 1-ethyl-3-methylimidazolium ethyl sulfate; phases: Liquid mixture 1, Liquid mixture 2
Fixed: Temperature, K = 298.15
Property: Mass density, kg/m3 (Liquid mixture 1); method: Vibrating tube method
Mole fraction of octane	Mole fraction of toluene	Mass density, kg/m3	uncertainty
0	0.248	1189.13	1.22
0.002	0.041	1229.53	1.81
0.002	0.117	1215.34	1.95
0.002	0.15	1209.05	1.86
0.002	0.18	1203.93	1.75
0.003	0	1236.42	0.57
0.003	0.198	1199.68	2.29
0.004	0.08	1222.2	1.97

System: toluene + octane + 1-ethyl-3-methylimidazolium ethyl sulfate; phases: Liquid mixture 1, Liquid mixture 2
Fixed: Temperature, K = 298.15
Property: Mass density, kg/m3 (Liquid mixture 1); method: Vibrating tube method
Mole fraction of octane	Mole fraction of toluene	Mass density, kg/m3	uncertainty
0.001	0.187	1202.54	1.25
0.002	0.138	1211.37	2.05
0.003	0.06	1226.02	1.34

System: toluene + octane + 1-ethyl-3-methylimidazolium ethyl sulfate; phases: Liquid mixture 1, Liquid mixture 2
Fixed: Temperature, K = 298.15
Fixed: Pressure, kPa = 101.3
Property: Mole fraction of toluene (Liquid mixture 1); method: Density calibration data
Property: Mole fraction of octane (Liquid mixture 2); method: Density calibration data
Property: Mole fraction of toluene (Liquid mixture 2); method: Density calibration data
Mole fraction of octane	Mole fraction of toluene	uncertainty	Mole fraction of octane	uncertainty	Mole fraction of toluene	uncertainty
0.872	0.128	0.01	0.003	0.003	0.03	
0.809	0.191	0.014	0.003	0.003	0.047	
0.746	0.254	0.014	0.003	0.003	0.064	
0.617	0.383	0.014	0.003	0.003	0.094	
0.488	0.512	0.014	0.003	0.003	0.124	
0.357	0.643	0.014	0.003	0.003	0.155	
0.229	0.771	0.01	0.002	0.002	0.185	

System: toluene + nonane + 1-ethyl-3-methylimidazolium ethyl sulfate; phases: Liquid mixture 1, Liquid mixture 2
Fixed: Temperature, K = 298.15
Property: Mass density, kg/m3 (Liquid mixture 1); method: Vibrating tube method
Mole fraction of nonane	Mole fraction of toluene	Mass density, kg/m3	uncertainty
0	0.248	1189.13	1.22
0.002	0	1236.02	0.49
0.002	0.184	1203.95	4.5
0.003	0.082	1222.94	1.86
0.003	0.158	1208.67	2.02
0.004	0.041	1229.92	1.75
0.004	0.116	1216.53	1.97

System: toluene + nonane + 1-ethyl-3-methylimidazolium ethyl sulfate; phases: Liquid mixture 1, Liquid mixture 2
Fixed: Temperature, K = 298.15
Property: Mass density, kg/m3 (Liquid mixture 1); method: Vibrating tube method
Mole fraction of nonane	Mole fraction of toluene	Mass density, kg/m3	uncertainty
0.002	0.097	1220.21	1.3
0.002	0.192	1202.54	1.26
0.004	0.147	1210.73	1.95

System: toluene + nonane + 1-ethyl-3-methylimidazolium ethyl sulfate; phases: Liquid mixture 1, Liquid mixture 2
Fixed: Temperature, K = 298.15
Fixed: Pressure, kPa = 101.3
Property: Mole fraction of toluene (Liquid mixture 1); method: Density calibration data
Property: Mole fraction of nonane (Liquid mixture 2); method: Density calibration data
Property: Mole fraction of toluene (Liquid mixture 2); method: Density calibration data
Mole fraction of nonane	Mole fraction of toluene	uncertainty	Mole fraction of nonane	uncertainty	Mole fraction of toluene	uncertainty
0.935	0.065	0.01	0.003	0.003	0.023	
0.804	0.196	0.014	0.003	0.003	0.055	
0.738	0.262	0.014	0.004	0.004	0.072	
0.612	0.388	0.014	0.004	0.004	0.102	
0.491	0.509	0.014	0.004	0.004	0.13	
0.367	0.633	0.014	0.003	0.003	0.158	
0.241	0.759	0.01	0.002	0.002	0.185	
