Measured thermophysical data. Density and vapour pressure of mixed-solvent desiccant systems (propylene glycol or dipropylene glycol or tripropylene glycol + magnesium chloride + water)
Source: J. Chem. Thermodyn., 2014, 10.1016/j.jct.2014.08.005
Compound 1: 1,2-propanediol, C3H8O2, InChI=1S/C3H8O2/c1-3(5)2-4/h3-5H,2H2,1H3, purity 99%
Compound 2: 4-oxa-1,7-heptanediol, C6H14O3, InChI=1S/C6H14O3/c7-3-1-5-9-6-2-4-8/h7-8H,1-6H2, purity 99%
Compound 3: 2-[2-(2-hydroxypropoxy)propoxy]-1-propanol, C9H20O4, InChI=1S/C9H20O4/c1-7(11)5-12-9(3)6-13-8(2)4-10/h7-11H,4-6H2,1-3H3, purity 99%
Compound 4: water, H2O, InChI=1S/H2O/h1H2, purity 99.9%
Compound 5: magnesium chloride, Cl2Mg, InChI=1S/2ClH.Mg/h2*1H;/q;;+2/p-2, purity 99%
Compound 6: triethylene glycol, C6H14O4, InChI=1S/C6H14O4/c7-1-3-9-5-6-10-4-2-8/h7-8H,1-6H2, purity 99%

System: 2-[2-(2-hydroxypropoxy)propoxy]-1-propanol; phases: Liquid
Fixed: Pressure, kPa = 101
Property: Mass density, kg/m3 (Liquid); method: Vibrating tube method
Temperature, K	Mass density, kg/m3	uncertainty
293.15	1017.5	1
303.15	1009.5	1
313.15	1001.5	1
323.15	993.4	1
333.15	985.2	1
343.15	976.9	1

System: triethylene glycol; phases: Liquid
Fixed: Pressure, kPa = 101.325
Property: Mass density, kg/m3 (Liquid); method: Vibrating tube method
Temperature, K	Mass density, kg/m3	uncertainty
293.15	1124.7	1
303.15	1117	1
313.15	1109.2	1
323.15	1101.5	1
333.15	1093.7	1
343.15	1085.9	1

System: 1,2-propanediol + water + magnesium chloride; phases: Liquid
Fixed: Pressure, kPa = 101
Property: Mass density, kg/m3 (Liquid); method: Vibrating tube method
Mass fraction of 1,2-propanediol	Mass fraction of magnesium chloride	Temperature, K	Mass density, kg/m3	uncertainty
0.400012	0.040006	293.15	1075	1
0.400012	0.040006	303.15	1068.9	1
0.400012	0.040006	313.15	1062.6	1
0.400012	0.040006	323.15	1056.1	1
0.400012	0.040006	333.15	1049.2	1
0.400012	0.040006	343.15	1042.1	1
0.400022	0.090008	293.15	1113.2	1
0.400022	0.090008	303.15	1107.5	1
0.400022	0.090008	313.15	1101.6	1
0.400022	0.090008	323.15	1095.5	1
0.400022	0.090008	333.15	1089.1	1
0.400022	0.090008	343.15	1082.5	1
0.400018	0.159989	293.15	1175	1
0.400018	0.159989	303.15	1169.4	1
0.400018	0.159989	313.15	1163.7	1
0.400018	0.159989	323.15	1157.9	1
0.400018	0.159989	333.15	1152	1
0.400018	0.159989	343.15	1145.9	1

System: 1,2-propanediol + water + magnesium chloride; phases: Liquid, Gas
Property: Vapor or sublimation pressure, kPa (Liquid); method: CCELL:UFactor:2
Mass fraction of 1,2-propanediol	Mass fraction of magnesium chloride	Temperature, K	Vapor or sublimation pressure, kPa	uncertainty
0.400012	0.040006	303.15	3.37	0.07
0.400012	0.040006	313.15	5.93	0.09
0.400012	0.040006	323.15	9.61	0.13
0.400012	0.040006	333.15	15.03	0.18
0.400012	0.040006	343.15	23.86	0.25
0.400022	0.090008	303.15	3.01	0.07
0.400022	0.090008	313.15	5.35	0.09
0.400022	0.090008	323.15	8.56	0.12
0.400022	0.090008	333.15	13.39	0.16
0.400022	0.090008	343.15	21.84	0.23
0.400018	0.159989	303.15	2.71	0.07
0.400018	0.159989	313.15	4.67	0.08
0.400018	0.159989	323.15	7.4	0.11
0.400018	0.159989	333.15	11.99	0.15
0.400018	0.159989	343.15	17.92	0.19

System: water + magnesium chloride + 4-oxa-1,7-heptanediol; phases: Liquid
Fixed: Pressure, kPa = 101
Property: Mass density, kg/m3 (Liquid); method: Vibrating tube method
Mass fraction of 4-oxa-1,7-heptanediol	Mass fraction of magnesium chloride	Temperature, K	Mass density, kg/m3	uncertainty
0.400012	0.040006	293.15	1069	1
0.400012	0.040006	303.15	1062.8	1
0.400012	0.040006	313.15	1056.3	1
0.400012	0.040006	323.15	1049.5	1
0.400012	0.040006	333.15	1042.5	1
0.400012	0.040006	343.15	1035.2	1
0.400022	0.090008	293.15	1112.5	1
0.400022	0.090008	303.15	1106.3	1
0.400022	0.090008	313.15	1099.9	1
0.400022	0.090008	323.15	1093.3	1
0.400022	0.090008	333.15	1086.7	1
0.400022	0.090008	343.15	1079.6	1
0.400018	0.159989	293.15	1176.7	1
0.400018	0.159989	303.15	1170.5	1
0.400018	0.159989	313.15	1164.3	1
0.400018	0.159989	323.15	1158.1	1
0.400018	0.159989	333.15	1151.7	1
0.400018	0.159989	343.15	1145.4	1

System: water + magnesium chloride + 4-oxa-1,7-heptanediol; phases: Liquid, Gas
Property: Vapor or sublimation pressure, kPa (Liquid); method: CCELL:UFactor:2
Mass fraction of 4-oxa-1,7-heptanediol	Mass fraction of magnesium chloride	Temperature, K	Vapor or sublimation pressure, kPa	uncertainty
0.400012	0.040006	303.15	3.77	0.07
0.400012	0.040006	313.15	6.24	0.1
0.400012	0.040006	323.15	10.56	0.14
0.400012	0.040006	333.15	16.68	0.19
0.400012	0.040006	343.15	25.61	0.26
0.400022	0.090008	303.15	2.91	0.07
0.400022	0.090008	313.15	4.85	0.08
0.400022	0.090008	323.15	8.28	0.11
0.400022	0.090008	333.15	12.67	0.15
0.400022	0.090008	343.15	19.99	0.21
0.400018	0.159989	303.15	2.29	0.06
0.400018	0.159989	313.15	3.99	0.08
0.400018	0.159989	323.15	6.76	0.1
0.400018	0.159989	333.15	10.92	0.14
0.400018	0.159989	343.15	16.68	0.18

System: water + magnesium chloride + 2-[2-(2-hydroxypropoxy)propoxy]-1-propanol; phases: Liquid
Fixed: Pressure, kPa = 101
Property: Mass density, kg/m3 (Liquid); method: Vibrating tube method
Mass fraction of 2-[2-(2-hydroxypropoxy)propoxy]-1-propanol	Mass fraction of magnesium chloride	Temperature, K	Mass density, kg/m3	uncertainty
0.400012	0.040006	293.15	1070.6	1
0.400012	0.040006	303.15	1063.9	1
0.400012	0.040006	313.15	1057	1
0.400012	0.040006	323.15	1049.4	1
0.400012	0.040006	333.15	1042.5	1
0.400012	0.040006	343.15	1034.9	1
0.400022	0.090008	293.15	1111.8	1.1
0.400022	0.090008	303.15	1105.1	1.1
0.400022	0.090008	313.15	1098.3	1.1
0.400022	0.090008	323.15	1091.3	1.1
0.400022	0.090008	333.15	1084.1	1
0.400022	0.090008	343.15	1076.7	1
0.400018	0.159989	293.15	1181.7	1
0.400018	0.159989	303.15	1174.7	1
0.400018	0.159989	313.15	1167.8	1
0.400018	0.159989	323.15	1160.9	1
0.400018	0.159989	333.15	1153.9	1
0.400018	0.159989	343.15	1146.7	1

System: water + magnesium chloride + 2-[2-(2-hydroxypropoxy)propoxy]-1-propanol; phases: Liquid, Gas
Property: Vapor or sublimation pressure, kPa (Liquid); method: CCELL:UFactor:2
Mass fraction of 2-[2-(2-hydroxypropoxy)propoxy]-1-propanol	Mass fraction of magnesium chloride	Temperature, K	Vapor or sublimation pressure, kPa	uncertainty
0.400012	0.040006	303.15	3.88	0.08
0.400012	0.040006	313.15	6.92	0.1
0.400012	0.040006	323.15	11.65	0.15
0.400012	0.040006	333.15	18.59	0.21
0.400012	0.040006	343.15	28.54	0.29
0.400022	0.090008	303.15	3.53	0.07
0.400022	0.090008	313.15	6.01	0.09
0.400022	0.090008	323.15	10.21	0.13
0.400022	0.090008	333.15	16.45	0.19
0.400022	0.090008	343.15	25.54	0.26
0.400018	0.159989	303.15	2.45	0.06
0.400018	0.159989	313.15	4.24	0.08
0.400018	0.159989	323.15	7.41	0.11
0.400018	0.159989	333.15	11.56	0.14
0.400018	0.159989	343.15	18.23	0.2

System: water + 2-[2-(2-hydroxypropoxy)propoxy]-1-propanol; phases: Liquid
Fixed: Pressure, kPa = 101
Property: Mass density, kg/m3 (Liquid); method: Vibrating tube method
Mass fraction of 2-[2-(2-hydroxypropoxy)propoxy]-1-propanol	Temperature, K	Mass density, kg/m3	uncertainty
0.200015	293.15	1019.4	1
0.200015	303.15	1015.2	1
0.200015	313.15	1010.2	1
0.200015	323.15	1004.5	1
0.200015	333.15	998.4	1
0.200015	343.15	991.6	1
0.399985	293.15	1037.1	1
0.399985	303.15	1030.1	1
0.399985	313.15	1022.9	1
0.399985	323.15	1015.5	1
0.399985	333.15	1007.7	1
0.399985	343.15	999.6	1
0.600019	293.15	1041.1	1
0.600019	303.15	1033.2	1
0.600019	313.15	1025.2	1
0.600019	323.15	1017.2	1
0.600019	333.15	1008.7	1
0.600019	343.15	1000.2	1
0.799957	293.15	1030.7	1
0.799957	303.15	1023.1	1
0.799957	313.15	1015.4	1
0.799957	323.15	1007.6	1
0.799957	333.15	999.5	1
0.799957	343.15	990.9	1
1	293.15	1017.5	1
1	303.15	1009.5	1
1	313.15	1001.5	1
1	323.15	993.4	1
1	333.15	985.2	1
1	343.15	976.9	1

System: water + 2-[2-(2-hydroxypropoxy)propoxy]-1-propanol; phases: Liquid, Gas
Property: Vapor or sublimation pressure, kPa (Liquid); method: CCELL:UFactor:2
Temperature, K	Mass fraction of 2-[2-(2-hydroxypropoxy)propoxy]-1-propanol	Vapor or sublimation pressure, kPa	uncertainty
303.15	0.199986	4.08	0.08
313.15	0.199986	7.24	0.11
323.15	0.199986	12.15	0.15
333.15	0.199986	19.84	0.22
343.15	0.199986	31.08	0.31
303.15	0.400019	3.92	0.08
313.15	0.400019	7.17	0.11
323.15	0.400019	11.93	0.15
333.15	0.400019	19.44	0.22
343.15	0.400019	30.21	0.3
303.15	0.600013	3.72	0.08
313.15	0.600013	6.56	0.1
323.15	0.600013	11.04	0.14
333.15	0.600013	17.81	0.2
343.15	0.600013	27.64	0.28
303.15	0.799989	2.72	0.06
313.15	0.799989	4.61	0.08
323.15	0.799989	7.96	0.11
333.15	0.799989	13.25	0.16
343.15	0.799989	19.49	0.21

System: water + 4-oxa-1,7-heptanediol; phases: Liquid, Gas
Property: Vapor or sublimation pressure, kPa (Liquid); method: CCELL:UFactor:2
Mass fraction of 4-oxa-1,7-heptanediol	Temperature, K	Vapor or sublimation pressure, kPa	uncertainty
0.199986	303.15	4.11	0.08
0.199986	313.15	7.12	0.1
0.199986	323.15	11.93	0.15
0.199986	333.15	19.34	0.22
0.199986	343.15	30.36	0.3
0.400019	303.15	3.97	0.08
0.400019	313.15	6.9	0.1
0.400019	323.15	11.5	0.14
0.400019	333.15	18.56	0.21
0.400019	343.15	29.11	0.29
0.600013	303.15	3.69	0.08
0.600013	313.15	6.45	0.1
0.600013	323.15	10.66	0.14
0.600013	333.15	17.12	0.2
0.600013	343.15	26.86	0.27
0.799989	303.15	2.87	0.07
0.799989	313.15	5.13	0.09
0.799989	323.15	8.51	0.12
0.799989	333.15	13.82	0.17
0.799989	343.15	22.09	0.23
