Measured thermophysical data. Measurement and correlation of solubilities of apigenin and apigenin  7-O-rhamnosylglucoside in seven solvents at different temperatures
Source: J. Chem. Thermodyn., 2011, 10.1016/j.jct.2010.09.013
Compound 1: 5,7-dihydroxy-2-(4-hydroxyphenyl)-4H-chromen-4-one, C15H10O5, InChI=1S/C15H10O5/c16-9-3-1-8(2-4-9)13-7-12(19)15-11(18)5-10(17)6-14(15)20-13/h1-7,16-18H, purity 97%
Compound 2: apigenin 7-rhamnoside, C21H20O9, InChI=1S/C21H20O9/c1-9-18(25)19(26)20(27)21(28-9)29-12-6-13(23)17-14(24)8-15(30-16(17)7-12)10-2-4-11(22)5-3-10/h2-9,18-23,25-27H,1H3/t9-,18-,19+,20+,21-/m0/s1, purity 96%
Compound 3: water, H2O, InChI=1S/H2O/h1H2
Compound 4: methanol, CH4O, InChI=1S/CH4O/c1-2/h2H,1H3
Compound 5: ethanol, C2H6O, InChI=1S/C2H6O/c1-2-3/h3H,2H2,1H3
Compound 6: propan-1-ol, C3H8O, InChI=1S/C3H8O/c1-2-3-4/h4H,2-3H2,1H3
Compound 7: butan-1-ol, C4H10O, InChI=1S/C4H10O/c1-2-3-4-5/h5H,2-4H2,1H3
Compound 8: acetone, C3H6O, InChI=1S/C3H6O/c1-3(2)4/h1-2H3
Compound 9: ethyl acetate, C4H8O2, InChI=1S/C4H8O2/c1-3-6-4(2)5/h3H2,1-2H3

System: 5,7-dihydroxy-2-(4-hydroxyphenyl)-4H-chromen-4-one + water; phases: Liquid, Crystal
Fixed: Pressure, kPa = 101
Property: Mole fraction of 5,7-dihydroxy-2-(4-hydroxyphenyl)-4H-chromen-4-one (Liquid); method: Chromatography
Temperature, K	Mole fraction of 5,7-dihydroxy-2-(4-hydroxyphenyl)-4H-chromen-4-one	uncertainty
288.2	7e-07	1.4e-07
298.2	1.03e-06	2.1e-07
308.2	1.57e-06	3.1e-07
318.2	2.11e-06	4.2e-07
328.2	2.81e-06	5.6e-07

System: methanol + 5,7-dihydroxy-2-(4-hydroxyphenyl)-4H-chromen-4-one; phases: Liquid, Crystal
Fixed: Pressure, kPa = 101
Property: Mole fraction of 5,7-dihydroxy-2-(4-hydroxyphenyl)-4H-chromen-4-one (Liquid); method: Chromatography
Temperature, K	Mole fraction of 5,7-dihydroxy-2-(4-hydroxyphenyl)-4H-chromen-4-one	uncertainty
288.2	0.000118	1e-05
298.2	0.000148	5e-06
308.2	0.000179	5e-06
318.2	0.000219	4e-06
328.2	0.000254	9e-06

System: ethanol + 5,7-dihydroxy-2-(4-hydroxyphenyl)-4H-chromen-4-one; phases: Liquid, Crystal
Fixed: Pressure, kPa = 101
Property: Mole fraction of 5,7-dihydroxy-2-(4-hydroxyphenyl)-4H-chromen-4-one (Liquid); method: Chromatography
Temperature, K	Mole fraction of 5,7-dihydroxy-2-(4-hydroxyphenyl)-4H-chromen-4-one	uncertainty
288.2	0.000244	4.9e-05
298.2	0.000295	5.9e-05
308.2	0.000346	6.9e-05
318.2	0.000397	7.9e-05
328.2	0.000449	9e-05

System: propan-1-ol + 5,7-dihydroxy-2-(4-hydroxyphenyl)-4H-chromen-4-one; phases: Liquid, Crystal
Fixed: Pressure, kPa = 101
Property: Mole fraction of 5,7-dihydroxy-2-(4-hydroxyphenyl)-4H-chromen-4-one (Liquid); method: Chromatography
Temperature, K	Mole fraction of 5,7-dihydroxy-2-(4-hydroxyphenyl)-4H-chromen-4-one	uncertainty
288.2	0.000343	6.9e-05
298.2	0.000401	8e-05
308.2	0.000473	9.5e-05
318.2	0.000564	0.000113
328.2	0.000677	0.000135

System: butan-1-ol + 5,7-dihydroxy-2-(4-hydroxyphenyl)-4H-chromen-4-one; phases: Liquid, Crystal
Fixed: Pressure, kPa = 101
Property: Mole fraction of 5,7-dihydroxy-2-(4-hydroxyphenyl)-4H-chromen-4-one (Liquid); method: Chromatography
Temperature, K	Mole fraction of 5,7-dihydroxy-2-(4-hydroxyphenyl)-4H-chromen-4-one	uncertainty
288.2	0.000478	9.6e-05
298.2	0.000568	0.000114
308.2	0.0007	0.00014
318.2	0.000822	0.000164
328.2	0.000934	0.000187

System: acetone + 5,7-dihydroxy-2-(4-hydroxyphenyl)-4H-chromen-4-one; phases: Liquid, Crystal
Fixed: Pressure, kPa = 101
Property: Mole fraction of 5,7-dihydroxy-2-(4-hydroxyphenyl)-4H-chromen-4-one (Liquid); method: Chromatography
Temperature, K	Mole fraction of 5,7-dihydroxy-2-(4-hydroxyphenyl)-4H-chromen-4-one	uncertainty
288.2	0.000338	6.8e-05
298.2	0.000367	7.3e-05
308.2	0.000451	9e-05
318.2	0.00054	0.000108
328.2	0.000654	0.000131

System: ethyl acetate + 5,7-dihydroxy-2-(4-hydroxyphenyl)-4H-chromen-4-one; phases: Liquid, Crystal
Fixed: Pressure, kPa = 101
Property: Mole fraction of 5,7-dihydroxy-2-(4-hydroxyphenyl)-4H-chromen-4-one (Liquid); method: Chromatography
Temperature, K	Mole fraction of 5,7-dihydroxy-2-(4-hydroxyphenyl)-4H-chromen-4-one	uncertainty
288.2	0.000172	3.4e-05
298.2	0.000239	4.8e-05
308.2	0.000323	6.5e-05
318.2	0.000442	8.8e-05
328.2	0.000548	0.00011

System: water + apigenin 7-rhamnoside; phases: Liquid, Crystal
Fixed: Pressure, kPa = 101
Property: Mole fraction of water (Liquid); method: Chromatography
Temperature, K	Mole fraction of water	uncertainty
288.2	2e-07	4e-08
298.2	3.2e-07	6e-08
308.2	5.1e-07	1e-07
318.2	7.5e-07	1.5e-07
328.2	1.08e-06	2.2e-07

System: methanol + apigenin 7-rhamnoside; phases: Liquid, Crystal
Fixed: Pressure, kPa = 101
Property: Mole fraction of methanol (Liquid); method: Chromatography
Temperature, K	Mole fraction of methanol	uncertainty
288.2	0.0001349	2.7e-05
298.2	0.0002348	4.7e-05
308.2	0.0004022	8.05e-05
318.2	0.0005786	0.0001157
328.2	0.0007718	0.0001544

System: ethanol + apigenin 7-rhamnoside; phases: Liquid, Crystal
Fixed: Pressure, kPa = 101
Property: Mole fraction of ethanol (Liquid); method: Chromatography
Temperature, K	Mole fraction of ethanol	uncertainty
288.2	6.39e-05	1.28e-05
298.2	9.73e-05	1.95e-05
308.2	0.0001466	2.93e-05
318.2	0.0002548	5.1e-05
328.2	0.0004282	8.57e-05

System: propan-1-ol + apigenin 7-rhamnoside; phases: Liquid, Crystal
Fixed: Pressure, kPa = 101
Property: Mole fraction of propan-1-ol (Liquid); method: Chromatography
Temperature, K	Mole fraction of propan-1-ol	uncertainty
288.2	1.76e-05	3.5e-06
298.2	2.62e-05	5.2e-06
308.2	3.47e-05	6.9e-06
318.2	4.94e-05	9.9e-06
328.2	6.5e-05	1.3e-05

System: butan-1-ol + apigenin 7-rhamnoside; phases: Liquid, Crystal
Fixed: Pressure, kPa = 101
Property: Mole fraction of butan-1-ol (Liquid); method: Chromatography
Temperature, K	Mole fraction of butan-1-ol	uncertainty
288.2	9e-06	1.8e-06
298.2	1.66e-05	3.3e-06
308.2	2.39e-05	4.8e-06
318.2	3.21e-05	6.4e-06
328.2	4.54e-05	9.1e-06

System: acetone + apigenin 7-rhamnoside; phases: Liquid, Crystal
Fixed: Pressure, kPa = 101
Property: Mole fraction of acetone (Liquid); method: Chromatography
Temperature, K	Mole fraction of acetone	uncertainty
288.2	8.1e-06	1.6e-06
298.2	1.24e-05	2.5e-06
308.2	1.94e-05	3.9e-06
318.2	2.75e-05	5.5e-06
328.2	3.66e-05	7.3e-06

System: ethyl acetate + apigenin 7-rhamnoside; phases: Liquid, Crystal
Fixed: Pressure, kPa = 101
Property: Mole fraction of ethyl acetate (Liquid); method: Chromatography
Temperature, K	Mole fraction of ethyl acetate	uncertainty
288.2	1.4e-06	3e-07
298.2	1.8e-06	4e-07
308.2	2.2e-06	4e-07
318.2	2.4e-06	5e-07
328.2	3.4e-06	7e-07
