Measured thermophysical data. Heat capacity and thermodynamic functions of brookite TiO2
Source: J. Chem. Thermodyn., 2016, 10.1016/j.jct.2015.09.018
Compound 1: titanium(IV) oxide, O2Ti, InChI=1S/2O.Ti/q2*-2;+4, purity 99.9%

System: titanium(IV) oxide; phases: Crystal 3
Property: Mass density, kg/m3 (Crystal 3); method: X-ray diffraction
Temperature, K	Pressure, kPa	Mass density, kg/m3	uncertainty
298.15	101.325	4130	20

System: titanium(IV) oxide; phases: Crystal 3
Fixed: Pressure, kPa = 101.325
Property: Molar heat capacity at constant pressure, J/K/mol (Crystal 3); method: RELAXCAL
Temperature, K	Molar heat capacity at constant pressure, J/K/mol	uncertainty
2.01	0.00218	0.00019
2.35	0.00327	0.00019
2.47	0.00544	0.00033
2.88	0.00862	0.00048
3.72	0.01489	0.00081
4.31	0.02048	0.00111
4.54	0.02277	0.00124
4.77	0.02538	0.00138
5.03	0.02844	0.00155
5.32	0.03402	0.00184
5.56	0.03861	0.00209
5.85	0.04314	0.00233
6.14	0.04818	0.0026
6.46	0.05442	0.00294
6.84	0.06161	0.00332
7.16	0.06852	0.00369
7.53	0.07958	0.00428
7.93	0.08951	0.00481
8.34	0.10051	0.00539
8.78	0.11237	0.00603
9.23	0.12635	0.00677
9.74	0.14405	0.00772
10.23	0.16029	0.00859
10.79	0.1786	0.0096
11.34	0.20031	0.01072
11.93	0.22559	0.01207
12.55	0.25047	0.0134
13.2	0.27934	0.01494
13.91	0.31358	0.01677
14.6	0.34929	0.01868
15.37	0.39234	0.02098
16.16	0.43715	0.02337
16.99	0.49053	0.02622
17.87	0.54933	0.02936
18.78	0.61582	0.03291
19.77	0.69285	0.03703
20.78	0.78112	0.04174
21.84	0.87732	0.04687
23.01	0.9887	0.0528
24.2	1.12	0.06
25.43	1.26	0.07
26.78	1.42	0.08
28.14	1.6	0.09
29.6	1.8	0.1
31.12	2.01	0.11
32.74	2.25	0.12
34.45	2.52	0.13
36.24	2.82	0.15
38.12	3.16	0.17
40.1	3.54	0.19
42.19	3.95	0.21
44.41	4.41	0.24
46.71	4.93	0.26
49.16	5.48	0.29
51.71	6.07	0.32
54.41	6.71	0.36
57.24	7.42	0.4
60.22	8.18	0.44
63.37	8.97	0.48
66.7	9.78	0.52
70.19	10.75	0.57
73.8	11.78	0.63
77.13	12.82	0.68
81.7	13.98	0.75
85.33	15.22	0.81
89.74	16.6	0.89
94.38	17.97	0.96
99.29	19.28	1.03
104.43	20.84	1.11
109.84	22.53	1.2
115.54	24.21	1.29
121.46	25.88	1.38
128.44	27.05	1.44
134.65	29.35	1.57
141.61	31.35	1.67
148.86	33.43	1.78
156.57	35.12	1.87
165.09	36.06	1.93
173.67	37.71	2.01
182.65	39.71	2.12
192.19	41.35	2.21
201.69	44.69	2.39
212.16	46.49	2.48
223.15	48.5	2.59
234.7	50.34	2.69
246.88	52.02	2.78
259.67	53.63	2.86
273.07	55.28	2.95
287.77	56.22	3
302.73	58.1	3.1

System: titanium(IV) oxide; phases: Crystal 3
Fixed: Pressure, kPa = 101.325
Property: Molar heat capacity at constant pressure, J/K/mol (Crystal 3); method: RELAXCAL
Temperature, K	Molar heat capacity at constant pressure, J/K/mol	uncertainty
0.5	0.000432	3.8e-05
1	0.00103	7e-05
1.5	0.00196	0.00012
2	0.00337	0.00019
2.5	0.00541	0.00031
3	0.00821	0.00046
3.5	0.0119	0.0007
4	0.0165	0.0009
4.5	0.0221	0.0012
5	0.0288	0.0016
5.5	0.0365	0.002
6	0.0454	0.0025
6.5	0.0553	0.003
7	0.0662	0.0036
7.5	0.0782	0.0042
8	0.0911	0.0049
8.5	0.105	0.006
9	0.12	0.006
9.5	0.135	0.007
10	0.152	0.008
11	0.187	0.01
12	0.227	0.012
13	0.271	0.015
14	0.318	0.017
15	0.37	0.02
16	0.428	0.023
17	0.491	0.026
18	0.559	0.03
19	0.634	0.034
20	0.714	0.038
25	1.21	0.06
30	1.85	0.1
35	2.62	0.14
40	3.52	0.19
45	4.54	0.24
50	5.66	0.3
55	6.87	0.37
60	8.12	0.43
65	9.38	0.5
70	10.75	0.57
75	12.2	0.65
80	13.67	0.73
85	15.16	0.81
90	16.65	0.89
95	18.14	0.97
100	19.6	1.05
110	22.48	1.2
120	25.26	1.35
130	27.96	1.49
140	30.55	1.63
150	33.04	1.76
160	35.43	1.89
170	37.72	2.01
180	39.89	2.13
190	41.95	2.24
200	43.91	2.34
210	45.75	2.44
220	47.49	2.54
230	49.13	2.62
240	50.66	2.7
250	52.11	2.78
260	53.46	2.85
270	54.73	2.92
273.15	55.11	2.94
280	55.92	2.99
290	57.04	3.05
298.15	57.89	3.09
300	58.08	3.1
305	58.58	3.13

System: titanium(IV) oxide; phases: Crystal 3
Fixed: Pressure, kPa = 101.325
Property: Molar entropy, J/K/mol (Crystal 3); method: relaxation calorimeter
Temperature, K	Molar entropy, J/K/mol	uncertainty
0.5	0.000413	3.9e-05
1	0.000882	7.5e-05
1.5	0.00146	0.00012
2	0.00221	0.00018
2.5	0.00316	0.00026
3	0.00439	0.00036
3.5	0.00591	0.00048
4	0.00779	0.00063
4.5	0.01	0.0008
5	0.0127	0.001
5.5	0.0158	0.0013
6	0.0194	0.0016
6.5	0.0234	0.0019
7	0.0279	0.0022
7.5	0.0328	0.0026
8	0.0383	0.0031
8.5	0.0442	0.0035
9	0.0506	0.0041
9.5	0.0575	0.0046
10	0.0649	0.0052
11	0.081	0.0065
12	0.0989	0.0079
13	0.119	0.01
14	0.141	0.011
15	0.164	0.013
16	0.19	0.015
17	0.218	0.017
18	0.248	0.02
19	0.28	0.022
20	0.314	0.025
25	0.524	0.042
30	0.798	0.064
35	1.14	0.09
40	1.55	0.12
45	2.02	0.16
50	2.55	0.2
55	3.15	0.25
60	3.8	0.3
65	4.5	0.36
70	5.25	0.42
75	6.04	0.48
80	6.87	0.55
85	7.74	0.62
90	8.65	0.69
95	9.59	0.77
100	10.56	0.85
110	12.56	1.01
120	14.64	1.17
130	16.77	1.34
140	18.94	1.52
150	21.13	1.69
160	23.34	1.87
170	25.56	2.05
180	27.77	2.22
190	29.99	2.4
200	32.19	2.58
210	34.38	2.75
220	36.55	2.93
230	38.69	3.1
240	40.82	3.27
250	42.91	3.44
260	44.98	3.6
270	47.03	3.77
273.15	47.66	3.82
280	49.04	3.93
290	51.02	4.09
298.15	52.61	4.21
300	52.97	4.24
305	53.94	4.32

System: titanium(IV) oxide; phases: Crystal 3
Fixed: Pressure, kPa = 101.325
Property: Molar enthalpy, kJ/mol (Crystal 3); method: relaxation calorimeter
Temperature, K	Molar enthalpy, kJ/mol	uncertainty
0.5	1.04e-07	2.2e-08
1	4.59e-07	4.1e-08
1.5	1.19e-06	8e-08
2	2.5e-06	1.5e-07
2.5	4.67e-06	2.8e-07
3	8.04e-06	4.6e-07
3.5	1.3e-05	7e-07
4	2.01e-05	1.1e-06
4.5	2.96e-05	1.6e-06
5	4.23e-05	2.3e-06
5.5	5.86e-05	3.2e-06
6	7.9e-05	4.3e-06
6.5	0.000104	6e-06
7	0.000134	7e-06
7.5	0.00017	9e-06
8	0.000213	1.2e-05
8.5	0.000262	1.4e-05
9	0.000318	1.7e-05
9.5	0.000382	2.1e-05
10	0.000453	2.4e-05
11	0.000623	3.3e-05
12	0.00083	4.5e-05
13	0.00108	6e-05
14	0.00137	7e-05
15	0.00172	9e-05
16	0.00211	0.00011
17	0.00257	0.00014
18	0.0031	0.00017
19	0.00369	0.0002
20	0.00437	0.00023
25	0.00911	0.00049
30	0.0167	0.0009
35	0.0278	0.0015
40	0.0431	0.0023
45	0.0632	0.0034
50	0.0886	0.0047
55	0.12	0.006
60	0.157	0.008
65	0.201	0.011
70	0.251	0.013
75	0.309	0.017
80	0.373	0.02
85	0.446	0.024
90	0.525	0.028
95	0.612	0.033
100	0.706	0.038
110	0.917	0.049
120	1.16	0.06
130	1.42	0.08
140	1.71	0.09
150	2.03	0.11
160	2.38	0.13
170	2.74	0.15
180	3.13	0.17
190	3.54	0.19
200	3.97	0.21
210	4.42	0.24
220	4.88	0.26
230	5.37	0.29
240	5.86	0.31
250	6.38	0.34
260	6.91	0.37
270	7.45	0.4
273.15	7.62	0.41
280	8	0.43
290	8.57	0.46
298.15	9.03	0.48
300	9.14	0.49
305	9.43	0.5
