Measured thermophysical data. Excess molar enthalpies and volumes of binary mixtures of nonafluorobutylmethylether with ketones at T = 298.15 K
Source: J. Chem. Thermodyn., 2006, 10.1016/j.jct.2006.03.003
Compound 1: methyl nonafluoroisobutyl ether, C5H3F9O, InChI=1S/C5H3F9O/c1-15-5(13,14)2(6,3(7,8)9)4(10,11)12/h1H3
Compound 2: 1-methoxy-nonafluorobutane, C5H3F9O, InChI=1S/C5H3F9O/c1-15-5(13,14)3(8,9)2(6,7)4(10,11)12/h1H3
Compound 3: acetone, C3H6O, InChI=1S/C3H6O/c1-3(2)4/h1-2H3
Compound 4: butanone, C4H8O, InChI=1S/C4H8O/c1-3-4(2)5/h3H2,1-2H3
Compound 5: pentan-3-one, C5H10O, InChI=1S/C5H10O/c1-3-5(6)4-2/h3-4H2,1-2H3

System: acetone; phases: Liquid
Property: Mass density, kg/m3 (Liquid); method: VIBTUB:UFactor:2
Temperature, K	Pressure, kPa	Mass density, kg/m3	uncertainty
298.15	101.325	784.65	0.31

System: butanone; phases: Liquid
Property: Mass density, kg/m3 (Liquid); method: VIBTUB:UFactor:2
Temperature, K	Pressure, kPa	Mass density, kg/m3	uncertainty
298.15	101.325	799.75	0.29

System: pentan-3-one; phases: Liquid
Property: Mass density, kg/m3 (Liquid); method: VIBTUB:UFactor:2
Temperature, K	Pressure, kPa	Mass density, kg/m3	uncertainty
298.15	101.325	809.09	0.28

System: 1-methoxy-nonafluorobutane + methyl nonafluoroisobutyl ether; phases: Liquid
Property: Mass density, kg/m3 (Liquid); method: VIBTUB:UFactor:4
Mole fraction of methyl nonafluoroisobutyl ether	Temperature, K	Pressure, kPa	Mass density, kg/m3	uncertainty
0.61	298.15	101	1516.5	1.79

System: butanone + 1-methoxy-nonafluorobutane + methyl nonafluoroisobutyl ether; phases: Liquid
Fixed: Temperature, K = 298.15
Fixed: Pressure, kPa = 101
Fixed: Solvent: Mole fraction of methyl nonafluoroisobutyl ether = 0.61
Property: Excess molar enthalpy (molar enthalpy of mixing), kJ/mol (Liquid); method: FLOW:UFactor:2
Mole fraction of butanone	Excess molar enthalpy (molar enthalpy of mixing), kJ/mol	uncertainty
0.00743	0.0157	0.0018
0.00746	0.0159	0.0018
0.02213	0.0466	0.0023
0.025	0.0556	0.0024
0.02952	0.063	0.0025
0.04381	0.0937	0.003
0.04999	0.1042	0.0032
0.05095	0.1089	0.0032
0.09998	0.2106	0.0048
0.14998	0.3034	0.0063
0.19997	0.3869	0.0075
0.24997	0.4589	0.0087
0.29996	0.5251	0.0097
0.34996	0.5818	0.0106
0.39996	0.6307	0.0113
0.44995	0.6698	0.0119
0.49995	0.6962	0.0123
0.54995	0.7134	0.0126
0.59996	0.7164	0.0126
0.64996	0.7073	0.0125
0.69996	0.6848	0.0122
0.74997	0.6443	0.0115
0.79997	0.5841	0.0106
0.84998	0.5053	0.0094
0.89998	0.3817	0.0075
0.94892	0.2292	0.0051
0.94999	0.2277	0.0051
0.96091	0.1834	0.0044
0.97033	0.1429	0.0038
0.975	0.1238	0.0035
0.97962	0.1018	0.0031
0.98881	0.0565	0.0024
0.99553	0.0231	0.0019

System: butanone + 1-methoxy-nonafluorobutane + methyl nonafluoroisobutyl ether; phases: Liquid
Fixed: Temperature, K = 298.15
Fixed: Pressure, kPa = 101
Fixed: Solvent: Mole fraction of methyl nonafluoroisobutyl ether = 0.61
Property: Mass density, kg/m3 (Liquid); method: VIBTUB:UFactor:2
Mole fraction of butanone	Mass density, kg/m3	uncertainty
0.00508	1514.14	0.87
0.01	1511.97	0.87
0.0201	1507.4	0.86
0.03019	1502.92	0.86
0.04019	1498.34	0.85
0.04983	1493.93	0.85
0.1086	1466.37	0.81
0.20028	1421.27	0.75
0.30035	1368.41	0.7
0.40071	1310.68	0.65
0.50042	1248.13	0.61
0.60048	1178.73	0.52
0.70038	1101.53	0.41
0.80054	1013.87	0.29
0.90025	914.55	0.29
0.95008	859.41	0.32
0.96015	847.88	0.32
0.97001	836.17	0.33
0.97971	824.66	0.34
0.98982	812.43	0.35
0.99471	806.43	0.35

System: pentan-3-one + 1-methoxy-nonafluorobutane + methyl nonafluoroisobutyl ether; phases: Liquid
Fixed: Temperature, K = 298.15
Fixed: Pressure, kPa = 101
Fixed: Solvent: Mole fraction of methyl nonafluoroisobutyl ether = 0.61
Property: Excess molar enthalpy (molar enthalpy of mixing), kJ/mol (Liquid); method: FLOW:UFactor:3
Mole fraction of pentan-3-one	Excess molar enthalpy (molar enthalpy of mixing), kJ/mol	uncertainty
0.0063	0.0165	0.0027
0.01256	0.0323	0.0031
0.01888	0.0481	0.0034
0.02498	0.0647	0.0038
0.0312	0.0787	0.0042
0.03751	0.094	0.0045
0.04979	0.1232	0.0052
0.04997	0.1218	0.0052
0.09994	0.2343	0.0078
0.14991	0.3381	0.0102
0.19989	0.4277	0.0123
0.24987	0.5061	0.0141
0.29986	0.5762	0.0157
0.34984	0.6324	0.017
0.39984	0.6763	0.018
0.44983	0.7101	0.0188
0.49983	0.7288	0.0193
0.54983	0.743	0.0196
0.59984	0.7394	0.0195
0.64984	0.7198	0.0191
0.69986	0.6904	0.0184
0.74987	0.6413	0.0172
0.79989	0.5978	0.0162
0.84991	0.4946	0.0138
0.89994	0.3733	0.011
0.94884	0.2138	0.0073
0.94997	0.2107	0.0072
0.95968	0.1717	0.0063
0.97061	0.1269	0.0053
0.97498	0.109	0.0049
0.97872	0.0934	0.0045
0.98942	0.047	0.0034
0.99473	0.0229	0.0029

System: pentan-3-one + 1-methoxy-nonafluorobutane + methyl nonafluoroisobutyl ether; phases: Liquid
Fixed: Temperature, K = 298.15
Fixed: Pressure, kPa = 101
Fixed: Solvent: Mole fraction of methyl nonafluoroisobutyl ether = 0.61
Property: Mass density, kg/m3 (Liquid); method: VIBTUB:UFactor:2
Mole fraction of pentan-3-one	Mass density, kg/m3	uncertainty
0.0046	1514.13	0.87
0.00952	1511.64	0.87
0.02004	1506.13	0.86
0.02998	1500.96	0.86
0.03955	1496.14	0.85
0.05017	1490.49	0.84
0.09178	1468.36	0.81
0.1917	1413.34	0.74
0.29749	1352.96	0.68
0.35049	1321	0.65
0.39983	1290.5	0.63
0.40058	1289.95	0.63
0.45136	1257.47	0.61
0.50118	1224.49	0.59
0.54991	1190.97	0.54
0.60243	1153.84	0.5
0.60572	1151.32	0.5
0.70022	1079.9	0.39
0.80028	997.65	0.27
0.90049	907.66	0.29
0.95034	859.66	0.32
0.96055	849.39	0.32
0.97014	839.74	0.33
0.98194	827.8	0.34
0.99012	819.4	0.34
0.99528	814.07	0.35

System: acetone + 1-methoxy-nonafluorobutane + methyl nonafluoroisobutyl ether; phases: Liquid
Fixed: Temperature, K = 298.15
Fixed: Pressure, kPa = 101
Fixed: Solvent: Mole fraction of methyl nonafluoroisobutyl ether = 0.61
Property: Excess molar enthalpy (molar enthalpy of mixing), kJ/mol (Liquid); method: FLOW:UFactor:2
Mole fraction of acetone	Excess molar enthalpy (molar enthalpy of mixing), kJ/mol	uncertainty
0.00903	0.0206	0.0019
0.00907	0.0215	0.0019
0.01804	0.0447	0.0022
0.025	0.0587	0.0025
0.02693	0.0614	0.0025
0.04427	0.1002	0.0031
0.05	0.1128	0.0033
0.05286	0.1201	0.0034
0.10001	0.2142	0.0049
0.15001	0.3102	0.0064
0.20001	0.3969	0.0077
0.25001	0.4742	0.0089
0.30002	0.5457	0.01
0.35002	0.6076	0.011
0.40002	0.6645	0.0118
0.45002	0.709	0.0125
0.50002	0.7493	0.0132
0.55002	0.7632	0.0134
0.60002	0.7737	0.0135
0.65002	0.77	0.0135
0.70002	0.7511	0.0132
0.75001	0.7123	0.0126
0.80001	0.6515	0.0116
0.85001	0.5603	0.0102
0.90001	0.4341	0.0083
0.94951	0.2577	0.0055
0.95	0.2568	0.0055
0.9597	0.2153	0.0049
0.96965	0.1677	0.0041
0.975	0.1424	0.0038
0.97938	0.1184	0.0034
0.99075	0.0543	0.0024
0.99448	0.0331	0.0021

System: acetone + 1-methoxy-nonafluorobutane + methyl nonafluoroisobutyl ether; phases: Liquid
Fixed: Temperature, K = 298.15
Fixed: Pressure, kPa = 101
Fixed: Solvent: Mole fraction of methyl nonafluoroisobutyl ether = 0.61
Property: Mass density, kg/m3 (Liquid); method: VIBTUB:UFactor:2
Mole fraction of acetone	Mass density, kg/m3	uncertainty
0.01107	1512.36	0.9
0.0212	1508.62	0.9
0.03123	1504.75	0.89
0.04081	1501.07	0.89
0.05057	1497.25	0.88
0.06042	1493.41	0.88
0.07159	1488.89	0.87
0.08018	1485.38	0.87
0.09014	1481.46	0.86
0.10055	1477.17	0.85
0.2	1434.54	0.8
0.30066	1386.77	0.74
0.40107	1333.12	0.69
0.50009	1273.87	0.66
0.60032	1205.35	0.57
0.70049	1126.46	0.46
0.80023	1033.81	0.33
0.90036	921.84	0.3
0.91011	909.71	0.31
0.92015	897.27	0.31
0.93052	883.56	0.32
0.9401	870.95	0.32
0.94943	858.24	0.33
0.96012	843.46	0.34
0.97	829.41	0.35
0.98003	814.79	0.36
0.99014	799.69	0.37
0.99504	792.31	0.38
