Measured thermophysical data. Thermodynamic properties of peptide solutions 20. Partial molar volumes and isothermal compressions for some tripeptides of sequence gly-X-gly (X = gly, ala, leu, asn, thr, and tyr) in aqueous solution at T = 298.15 K and p = (10-120) MPa
Source: J. Chem. Thermodyn., 2016, 10.1016/j.jct.2016.03.032
Compound 1: glycylglycylglycine, C6H11N3O4, InChI=1S/C6H11N3O4/c7-1-4(10)8-2-5(11)9-3-6(12)13/h1-3,7H2,(H,8,10)(H,9,11)(H,12,13)
Compound 2: glycylalanylglycine, C7H13N3O4, InChI=1S/C7H13N3O4/c1-4(10-5(11)2-8)7(14)9-3-6(12)13/h4H,2-3,8H2,1H3,(H,9,14)(H,10,11)(H,12,13)
Compound 3: glycyl-L-leucylglycine, C10H19N3O4, InChI=1S/C10H19N3O4/c1-6(2)3-7(13-8(14)4-11)10(17)12-5-9(15)16/h6-7H,3-5,11H2,1-2H3,(H,12,17)(H,13,14)(H,15,16)/t7-/m0/s1
Compound 4: glycyl-L-asparaginylglycine, C8H14N4O5, InChI=1S/C8H14N4O5/c9-2-6(14)12-4(1-5(10)13)8(17)11-3-7(15)16/h4H,1-3,9H2,(H2,10,13)(H,11,17)(H,12,14)(H,15,16)/t4-/m0/s1
Compound 5: glycyl-L-threonylglycine, C8H15N3O5, InChI=1S/C8H15N3O5/c1-4(12)7(11-5(13)2-9)8(16)10-3-6(14)15/h4,7,12H,2-3,9H2,1H3,(H,10,16)(H,11,13)(H,14,15)/t4?,7-/m0/s1
Compound 6: glycyl-L-tyrosylglycine, C13H17N3O5, InChI=1S/C13H17N3O5/c14-6-11(18)16-10(13(21)15-7-12(19)20)5-8-1-3-9(17)4-2-8/h1-4,10,17H,5-7,14H2,(H,15,21)(H,16,18)(H,19,20)/t10-/m0/s1
Compound 7: water, H2O, InChI=1S/H2O/h1H2

System: glycylglycylglycine + water; phases: Liquid
Fixed: Temperature, K = 298.15
Fixed: Frequency, MHz = 10
Property: Speed of sound, m/s (Liquid); method: Single path-length method
Pressure, kPa	Molality, mol/kg of glycylglycylglycine	Speed of sound, m/s	uncertainty
10000	0.10046	1523.35	0.71
10000	0.08705	1522.07	0.71
10000	0.07503	1520.84	0.71
10000	0.06185	1519.49	0.71
10000	0.0487	1518.2	0.71
10000	0.03621	1516.93	0.71
20000	0.10046	1540.18	0.71
20000	0.08705	1538.88	0.71
20000	0.07503	1537.66	0.71
20000	0.06185	1536.31	0.71
20000	0.0487	1535	0.71
20000	0.03621	1533.77	0.71
40000	0.10046	1573.83	0.71
40000	0.08705	1572.55	0.71
40000	0.07503	1571.27	0.71
40000	0.06185	1569.98	0.71
40000	0.0487	1568.64	0.71
40000	0.03621	1567.41	0.71
60000	0.10046	1607.37	0.71
60000	0.08705	1606.06	0.71
60000	0.07503	1604.85	0.71
60000	0.06185	1603.44	0.71
60000	0.0487	1602.14	0.71
60000	0.03621	1600.82	0.71
80000	0.10046	1640.71	0.71
80000	0.08705	1639.4	0.7
80000	0.07503	1638.16	0.7
80000	0.06185	1636.8	0.7
80000	0.0487	1635.52	0.7
80000	0.03621	1634.22	0.7
100000	0.10046	1673.8	0.7
100000	0.08705	1672.49	0.7
100000	0.07503	1671.28	0.7
100000	0.06185	1669.93	0.7
100000	0.0487	1668.59	0.7
100000	0.03621	1667.43	0.7
120000	0.10046	1706.58	0.7
120000	0.08705	1705.24	0.7
120000	0.07503	1704.04	0.7
120000	0.06185	1702.75	0.7
120000	0.0487	1701.43	0.7
120000	0.03621	1700.18	0.69

System: water + glycylalanylglycine; phases: Liquid
Fixed: Temperature, K = 298.15
Fixed: Frequency, MHz = 10
Property: Speed of sound, m/s (Liquid); method: Single path-length method
Pressure, kPa	Molality, mol/kg of glycylalanylglycine	Speed of sound, m/s	uncertainty
10000	0.09937	1524.19	0.71
10000	0.08586	1522.74	0.71
10000	0.075	1521.58	0.71
10000	0.06154	1520.09	0.71
10000	0.04935	1518.76	0.71
10000	0.03589	1517.25	0.71
20000	0.09937	1541.01	0.71
20000	0.08586	1539.55	0.71
20000	0.075	1538.32	0.71
20000	0.06154	1536.88	0.71
20000	0.04935	1535.54	0.71
20000	0.03589	1534.06	0.71
40000	0.09937	1574.55	0.71
40000	0.08586	1573.12	0.71
40000	0.075	1571.91	0.71
40000	0.06154	1570.47	0.71
40000	0.04935	1569.11	0.71
40000	0.03589	1567.58	0.71
60000	0.09937	1607.97	0.71
60000	0.08586	1606.5	0.71
60000	0.075	1605.34	0.71
60000	0.06154	1603.89	0.71
60000	0.04935	1602.59	0.71
60000	0.03589	1601.05	0.71
80000	0.09937	1641.22	0.7
80000	0.08586	1639.82	0.7
80000	0.075	1638.6	0.7
80000	0.06154	1637.23	0.7
80000	0.04935	1635.85	0.7
80000	0.03589	1634.36	0.7
100000	0.09937	1674.24	0.7
100000	0.08586	1672.84	0.7
100000	0.075	1671.66	0.7
100000	0.06154	1670.3	0.7
100000	0.04935	1668.99	0.7
100000	0.03589	1667.54	0.7
120000	0.09937	1706.99	0.7
120000	0.08586	1705.59	0.7
120000	0.075	1704.44	0.7
120000	0.06154	1703.06	0.7
120000	0.04935	1701.78	0.7
120000	0.03589	1700.33	0.69

System: glycyl-L-leucylglycine + water; phases: Liquid
Fixed: Temperature, K = 298.15
Fixed: Frequency, MHz = 10
Property: Speed of sound, m/s (Liquid); method: Single path-length method
Pressure, kPa	Molality, mol/kg of glycyl-L-leucylglycine	Speed of sound, m/s	uncertainty
10000	0.07978	1525.22	0.71
10000	0.06956	1523.74	0.71
10000	0.05878	1522.13	0.71
10000	0.04618	1520.24	0.71
10000	0.03524	1518.59	0.71
10000	0.02682	1517.47	0.71
20000	0.07978	1541.96	0.71
20000	0.06956	1540.5	0.71
20000	0.05878	1538.88	0.71
20000	0.04618	1536.99	0.71
20000	0.03524	1535.37	0.71
20000	0.02682	1534.15	0.71
40000	0.07978	1575.46	0.71
40000	0.06956	1574.01	0.71
40000	0.05878	1572.41	0.71
40000	0.04618	1570.6	0.71
40000	0.03524	1568.87	0.71
40000	0.02682	1567.69	0.71
60000	0.07978	1608.79	0.71
60000	0.06956	1607.31	0.71
60000	0.05878	1605.75	0.71
60000	0.04618	1603.95	0.71
60000	0.03524	1602.32	0.71
60000	0.02682	1601.06	0.71
80000	0.07978	1642.01	0.7
80000	0.06956	1640.56	0.7
80000	0.05878	1638.97	0.7
80000	0.04618	1637.2	0.7
80000	0.03524	1635.6	0.7
80000	0.02682	1634.41	0.7
100000	0.07978	1674.91	0.7
100000	0.06956	1673.5	0.7
100000	0.05878	1671.96	0.7
100000	0.04618	1670.16	0.7
100000	0.03524	1668.67	0.7
100000	0.02682	1667.45	0.7
120000	0.07978	1707.54	0.69
120000	0.06956	1706.16	0.69
120000	0.05878	1704.66	0.69
120000	0.04618	1702.93	0.7
120000	0.03524	1701.43	0.69
120000	0.02682	1700.22	0.69

System: water + glycyl-L-asparaginylglycine; phases: Liquid
Fixed: Temperature, K = 298.15
Fixed: Frequency, MHz = 10
Property: Speed of sound, m/s (Liquid); method: Single path-length method
Pressure, kPa	Molality, mol/kg of glycyl-L-asparaginylglycine	Speed of sound, m/s	uncertainty
10000	0.03983	1517.81	0.71
10000	0.03507	1517.29	0.71
10000	0.02894	1516.6	0.71
10000	0.02619	1516.29	0.71
10000	0.01982	1515.56	0.71
20000	0.03983	1534.62	0.71
20000	0.03507	1534.08	0.71
20000	0.02894	1533.43	0.71
20000	0.02619	1533.07	0.71
20000	0.01982	1532.36	0.71
40000	0.03983	1568.28	0.71
40000	0.03507	1567.75	0.71
40000	0.02894	1567.06	0.71
40000	0.02619	1566.7	0.71
40000	0.01982	1565.95	0.71
60000	0.03983	1601.79	0.71
60000	0.03507	1601.26	0.71
60000	0.02894	1600.5	0.71
60000	0.02619	1600.19	0.71
60000	0.01982	1599.45	0.71
80000	0.03983	1635.13	0.7
80000	0.03507	1634.58	0.7
80000	0.02894	1633.88	0.7
80000	0.02619	1633.54	0.7
80000	0.01982	1632.82	0.7
100000	0.03983	1668.27	0.7
100000	0.03507	1667.82	0.7
100000	0.02894	1666.99	0.7
100000	0.02619	1666.72	0.7
100000	0.01982	1665.99	0.7
120000	0.02894	1699.88	0.7
120000	0.02619	1699.59	0.7
120000	0.01982	1698.8	0.69

System: water + glycyl-L-threonylglycine; phases: Liquid
Fixed: Temperature, K = 298.15
Fixed: Frequency, MHz = 10
Property: Speed of sound, m/s (Liquid); method: Single path-length method
Pressure, kPa	Molality, mol/kg of glycyl-L-threonylglycine	Speed of sound, m/s	uncertainty
10000	0.08248	1523.12	0.71
10000	0.07018	1521.66	0.71
10000	0.05747	1520.17	0.71
10000	0.04456	1518.62	0.71
10000	0.03411	1517.36	0.71
10000	0.02479	1516.25	0.71
20000	0.08248	1539.85	0.71
20000	0.07018	1538.46	0.71
20000	0.05747	1536.88	0.71
20000	0.04456	1535.36	0.71
20000	0.03411	1534.15	0.71
20000	0.02479	1533.09	0.71
40000	0.08248	1573.46	0.71
40000	0.07018	1572.07	0.71
40000	0.05747	1570.57	0.71
40000	0.04456	1569.01	0.71
40000	0.03411	1567.74	0.71
40000	0.02479	1566.62	0.71
60000	0.08248	1606.92	0.71
60000	0.07018	1605.53	0.71
60000	0.05747	1604.03	0.71
60000	0.04456	1602.52	0.71
60000	0.03411	1601.23	0.71
60000	0.02479	1600.09	0.71
80000	0.08248	1640.26	0.7
80000	0.07018	1638.84	0.7
80000	0.05747	1637.3	0.7
80000	0.04456	1635.79	0.7
80000	0.03411	1634.53	0.7
80000	0.02479	1633.51	0.7
100000	0.08248	1673.3	0.7
100000	0.07018	1671.85	0.7
100000	0.05747	1670.33	0.7
100000	0.04456	1668.89	0.7
100000	0.03411	1667.7	0.7
100000	0.02479	1666.6	0.7
120000	0.08248	1706.01	0.7
120000	0.07018	1704.65	0.7
120000	0.05747	1703.18	0.7
120000	0.04456	1701.72	0.7
120000	0.03411	1700.49	0.69
120000	0.02479	1699.36	0.69

System: glycyl-L-tyrosylglycine + water; phases: Liquid
Fixed: Temperature, K = 298.15
Fixed: Frequency, MHz = 10
Property: Speed of sound, m/s (Liquid); method: Single path-length method
Pressure, kPa	Molality, mol/kg of glycyl-L-tyrosylglycine	Speed of sound, m/s	uncertainty
10000	0.02905	1517.03	0.71
10000	0.02756	1516.86	0.71
10000	0.02676	1516.79	0.71
10000	0.02562	1516.66	0.71
10000	0.02401	1516.45	0.71
10000	0.02297	1516.31	0.71
20000	0.02905	1533.87	0.71
20000	0.02756	1533.67	0.71
20000	0.02676	1533.6	0.71
20000	0.02562	1533.48	0.71
20000	0.02401	1533.23	0.71
20000	0.02297	1533.14	0.71
40000	0.02905	1567.44	0.71
40000	0.02756	1567.28	0.71
40000	0.02676	1567.2	0.71
40000	0.02562	1567.05	0.71
40000	0.02401	1566.84	0.71
40000	0.02297	1566.71	0.71
60000	0.02905	1600.98	0.71
60000	0.02756	1600.78	0.71
60000	0.02676	1600.66	0.71
60000	0.02562	1600.51	0.71
60000	0.02401	1600.3	0.71
60000	0.02297	1600.14	0.71
80000	0.02905	1634.28	0.7
80000	0.02756	1634.14	0.7
80000	0.02676	1634	0.7
80000	0.02562	1633.93	0.7
80000	0.02401	1633.64	0.7
80000	0.02297	1633.52	0.7
100000	0.02905	1667.49	0.7
100000	0.02756	1667.31	0.7
100000	0.02676	1667.14	0.7
100000	0.02562	1667	0.7
100000	0.02401	1666.83	0.7
100000	0.02297	1666.64	0.7
120000	0.02905	1700.3	0.7
120000	0.02756	1700.12	0.69
120000	0.02676	1699.96	0.7
120000	0.02562	1699.83	0.7
120000	0.02401	1699.64	0.69
120000	0.02297	1699.49	0.7
