Measured thermophysical data. Determination and correlation of solubility and solution thermodynamics of musk xylene in different pure solvents
Source: J. Chem. Thermodyn., 2019, 10.1016/j.jct.2019.03.029
Compound 1: 2,4,6-trinitro-3,5-dimethyl-tert-butylbenzene, C12H15N3O6, InChI=1S/C12H15N3O6/c1-6-9(13(16)17)7(2)11(15(20)21)8(12(3,4)5)10(6)14(18)19/h1-5H3, purity 99.8%
Compound 2: N,N-dimethylethanamide, C4H9NO, InChI=1S/C4H9NO/c1-4(6)5(2)3/h1-3H3, purity 99.5%
Compound 3: methanol, CH4O, InChI=1S/CH4O/c1-2/h2H,1H3, purity 99.5%
Compound 4: ethanol, C2H6O, InChI=1S/C2H6O/c1-2-3/h3H,2H2,1H3, purity 99.5%
Compound 5: propan-2-ol, C3H8O, InChI=1S/C3H8O/c1-3(2)4/h3-4H,1-2H3, purity 99.5%
Compound 6: butan-1-ol, C4H10O, InChI=1S/C4H10O/c1-2-3-4-5/h5H,2-4H2,1H3, purity 99.5%
Compound 7: cyclohexane, C6H12, InChI=1S/C6H12/c1-2-4-6-5-3-1/h1-6H2, purity 99.5%
Compound 8: hexane, C6H14, InChI=1S/C6H14/c1-3-5-6-4-2/h3-6H2,1-2H3, purity 99.5%
Compound 9: heptane, C7H16, InChI=1S/C7H16/c1-3-5-7-6-4-2/h3-7H2,1-2H3, purity 99.5%
Compound 10: ethyl acetate, C4H8O2, InChI=1S/C4H8O2/c1-3-6-4(2)5/h3H2,1-2H3, purity 99.5%
Compound 11: tetrahydrofuran, C4H8O, InChI=1S/C4H8O/c1-2-4-5-3-1/h1-4H2, purity 99.5%

System: 2,4,6-trinitro-3,5-dimethyl-tert-butylbenzene + methanol; phases: Liquid, Crystal
Fixed: Pressure, kPa = 101.3
Property: Mole fraction of 2,4,6-trinitro-3,5-dimethyl-tert-butylbenzene (Liquid); method: Chromatography
Temperature, K	Mole fraction of 2,4,6-trinitro-3,5-dimethyl-tert-butylbenzene	uncertainty
278.15	0.001851	7.4e-05
283.15	0.002343	9.4e-05
288.15	0.002947	0.000118
293.15	0.003687	0.000148
298.15	0.004591	0.000184
303.15	0.005693	0.000228
308.15	0.007037	0.000282
313.15	0.008678	0.000348

System: 2,4,6-trinitro-3,5-dimethyl-tert-butylbenzene + ethanol; phases: Liquid, Crystal
Fixed: Pressure, kPa = 101.3
Property: Mole fraction of 2,4,6-trinitro-3,5-dimethyl-tert-butylbenzene (Liquid); method: Chromatography
Temperature, K	Mole fraction of 2,4,6-trinitro-3,5-dimethyl-tert-butylbenzene	uncertainty
278.15	0.001675	6.7e-05
283.15	0.002071	8.3e-05
288.15	0.002545	0.000102
293.15	0.00311	0.000125
298.15	0.003783	0.000152
303.15	0.004578	0.000183
308.15	0.005519	0.000221
313.15	0.006627	0.000265

System: 2,4,6-trinitro-3,5-dimethyl-tert-butylbenzene + propan-2-ol; phases: Liquid, Crystal
Fixed: Pressure, kPa = 101.3
Property: Mole fraction of 2,4,6-trinitro-3,5-dimethyl-tert-butylbenzene (Liquid); method: Chromatography
Temperature, K	Mole fraction of 2,4,6-trinitro-3,5-dimethyl-tert-butylbenzene	uncertainty
278.15	0.001281	5.1e-05
283.15	0.001647	6.6e-05
288.15	0.002111	8.5e-05
293.15	0.002694	0.000108
298.15	0.003432	0.000138
303.15	0.004372	0.000175
308.15	0.005572	0.000223
313.15	0.007135	0.000286

System: 2,4,6-trinitro-3,5-dimethyl-tert-butylbenzene + butan-1-ol; phases: Liquid, Crystal
Fixed: Pressure, kPa = 101.3
Property: Mole fraction of 2,4,6-trinitro-3,5-dimethyl-tert-butylbenzene (Liquid); method: Chromatography
Temperature, K	Mole fraction of 2,4,6-trinitro-3,5-dimethyl-tert-butylbenzene	uncertainty
278.15	0.002446	9.8e-05
283.15	0.003079	0.000123
288.15	0.003744	0.00015
293.15	0.004498	0.00018
298.15	0.00553	0.000222
303.15	0.006656	0.000267
308.15	0.008057	0.000323
313.15	0.009742	0.00039

System: 2,4,6-trinitro-3,5-dimethyl-tert-butylbenzene + cyclohexane; phases: Liquid, Crystal
Fixed: Pressure, kPa = 101.3
Property: Mole fraction of 2,4,6-trinitro-3,5-dimethyl-tert-butylbenzene (Liquid); method: Chromatography
Temperature, K	Mole fraction of 2,4,6-trinitro-3,5-dimethyl-tert-butylbenzene	uncertainty
278.15	0.004668	0.000187
283.15	0.005884	0.000236
288.15	0.007389	0.000296
293.15	0.009255	0.000371
298.15	0.01161	0.00047
303.15	0.01453	0.00058
308.15	0.01824	0.00073
313.15	0.02293	0.00092

System: 2,4,6-trinitro-3,5-dimethyl-tert-butylbenzene + hexane; phases: Liquid, Crystal
Fixed: Pressure, kPa = 101.3
Property: Mole fraction of 2,4,6-trinitro-3,5-dimethyl-tert-butylbenzene (Liquid); method: Chromatography
Temperature, K	Mole fraction of 2,4,6-trinitro-3,5-dimethyl-tert-butylbenzene	uncertainty
278.15	0.002251	9e-05
283.15	0.002844	0.000114
288.15	0.003594	0.000144
293.15	0.004372	0.000175
298.15	0.00557	0.000223
303.15	0.006846	0.000274
308.15	0.008418	0.000337
313.15	0.01036	0.00042

System: 2,4,6-trinitro-3,5-dimethyl-tert-butylbenzene + heptane; phases: Liquid, Crystal
Fixed: Pressure, kPa = 101.3
Property: Mole fraction of 2,4,6-trinitro-3,5-dimethyl-tert-butylbenzene (Liquid); method: Chromatography
Temperature, K	Mole fraction of 2,4,6-trinitro-3,5-dimethyl-tert-butylbenzene	uncertainty
278.15	0.002622	0.000105
283.15	0.003212	0.000129
288.15	0.004016	0.000161
293.15	0.004955	0.000199
298.15	0.006088	0.000244
303.15	0.007522	0.000301
308.15	0.009312	0.000373
313.15	0.01141	0.00046

System: 2,4,6-trinitro-3,5-dimethyl-tert-butylbenzene + N,N-dimethylethanamide; phases: Liquid, Crystal
Fixed: Pressure, kPa = 101.3
Property: Mole fraction of 2,4,6-trinitro-3,5-dimethyl-tert-butylbenzene (Liquid); method: Chromatography
Temperature, K	Mole fraction of 2,4,6-trinitro-3,5-dimethyl-tert-butylbenzene	uncertainty
278.15	0.0918	0.00368
283.15	0.112	0.0045
288.15	0.1335	0.0053
293.15	0.1556	0.0062
298.15	0.1795	0.0072
303.15	0.2053	0.0082
308.15	0.2318	0.0093
313.15	0.2634	0.0106

System: 2,4,6-trinitro-3,5-dimethyl-tert-butylbenzene + ethyl acetate; phases: Liquid, Crystal
Fixed: Pressure, kPa = 101.3
Property: Mole fraction of 2,4,6-trinitro-3,5-dimethyl-tert-butylbenzene (Liquid); method: Chromatography
Temperature, K	Mole fraction of 2,4,6-trinitro-3,5-dimethyl-tert-butylbenzene	uncertainty
278.15	0.09532	0.00382
283.15	0.1151	0.0046
288.15	0.1359	0.0054
293.15	0.1582	0.0063
298.15	0.1816	0.0073
303.15	0.2067	0.0083
308.15	0.2333	0.0093
313.15	0.2617	0.0105

System: 2,4,6-trinitro-3,5-dimethyl-tert-butylbenzene + tetrahydrofuran; phases: Liquid, Crystal
Fixed: Pressure, kPa = 101.3
Property: Mole fraction of 2,4,6-trinitro-3,5-dimethyl-tert-butylbenzene (Liquid); method: Chromatography
Temperature, K	Mole fraction of 2,4,6-trinitro-3,5-dimethyl-tert-butylbenzene	uncertainty
278.15	0.0786	0.00315
283.15	0.0889	0.00356
288.15	0.1001	0.004
293.15	0.1124	0.0045
298.15	0.1257	0.005
303.15	0.1393	0.0056
308.15	0.156	0.0062
313.15	0.1732	0.0069
