Measured thermophysical data. Formation enthalpy of Ga-Li intermetallic phases. Experiment vs. calculations
Source: J. Chem. Thermodyn., 2018, 10.1016/j.jct.2018.05.009
Compound 1: gallium, Ga, InChI=1S/Ga, purity 99.999%
Compound 2: tin, Sn, InChI=1S/Sn, purity 99.999%

System: gallium + tin; phases: Liquid
Fixed: Pressure, kPa = 100
Fixed: Mole fraction of gallium = 0
Property: Molar enthalpy of solution, kJ/mol (Liquid); method: Calvet calorimetry
Temperature, K	Molar enthalpy of solution, kJ/mol	uncertainty
923	3.45	0.58
823	3.3	0.16
