Measured thermophysical data. Density, viscosity, refractive index, excess molar enthalpy, viscosity, and refractive index deviations for the (1-butanol + 2-butanone) binary system at T = 303 K. A new adiabatic calorimeter for heat of mixing
Source: J. Chem. Thermodyn., 2008, 10.1016/j.jct.2007.06.009
Compound 1: butan-1-ol, C4H10O, InChI=1S/C4H10O/c1-2-3-4-5/h5H,2-4H2,1H3
Compound 2: butanone, C4H8O, InChI=1S/C4H8O/c1-3-4(2)5/h3H2,1-2H3

System: butan-1-ol; phases: Liquid
Property: Refractive index (Na D-line) (Liquid); method: Standard Abbe refractometry
Temperature, K	Pressure, kPa	Refractive index (Na D-line)	uncertainty
303.15	101.325	1.39479	0.00031

System: butan-1-ol; phases: Liquid
Property: Viscosity, Pa*s (Liquid); method: CAPTUB::UFactor:4
Pressure, kPa	Temperature, K	Viscosity, Pa*s	uncertainty
101	303.15	0.002195	5e-05

System: butan-1-ol; phases: Liquid
Property: Mass density, kg/m3 (Liquid); method: VIBTUB:UFactor:2
Pressure, kPa	Temperature, K	Mass density, kg/m3	uncertainty
101	303.15	802.2	0.3

System: butanone; phases: Liquid
Property: Refractive index (Na D-line) (Liquid); method: Standard Abbe refractometry
Temperature, K	Pressure, kPa	Refractive index (Na D-line)	uncertainty
303.15	101.325	1.37383	0.00031

System: butanone; phases: Liquid
Property: Viscosity, Pa*s (Liquid); method: CAPTUB::UFactor:4
Pressure, kPa	Temperature, K	Viscosity, Pa*s	uncertainty
101	303.15	0.000347	1.4e-05

System: butanone; phases: Liquid
Property: Mass density, kg/m3 (Liquid); method: VIBTUB::UFactor:2
Pressure, kPa	Temperature, K	Mass density, kg/m3	uncertainty
101	303.15	794.5	0.3

System: butan-1-ol + butanone; phases: Liquid
Fixed: Temperature, K = 303
Fixed: Pressure, kPa = 101
Property: Excess molar enthalpy (molar enthalpy of mixing), kJ/mol (Liquid); method: CALVET:UFactor:8
Mole fraction of butan-1-ol	Excess molar enthalpy (molar enthalpy of mixing), kJ/mol	uncertainty
0	0	0.008
0.134	0.643	0.066
0.193	0.919	0.084
0.289	1.177	0.104
0.35	1.356	0.117
0.425	1.472	0.126
0.514	1.467	0.125
0.619	1.411	0.121
0.7	1.228	0.107
0.769	1.123	0.1
0.82	0.849	0.079
0.911	0.591	0.062
1	0	0.008

System: butan-1-ol + butanone; phases: Liquid
Fixed: Pressure, kPa = 101
Fixed: Temperature, K = 303.15
Property: Viscosity, Pa*s (Liquid); method: CAPTUB:UFactor:4
Mole fraction of butan-1-ol	Viscosity, Pa*s	uncertainty
0	0.000347	1.4e-05
0.0704	0.000364	1.4e-05
0.1468	0.000388	1.5e-05
0.2163	0.000421	1.5e-05
0.2818	0.000455	1.5e-05
0.3429	0.000479	1.6e-05
0.4244	0.000553	1.7e-05
0.4988	0.000615	1.8e-05
0.5755	0.000704	1.9e-05
0.6474	0.000813	2.1e-05
0.7105	0.000925	2.3e-05
0.7799	0.001091	2.7e-05
0.8596	0.001342	3.2e-05
0.9263	0.001645	3.9e-05
1	0.002195	5e-05

System: butan-1-ol + butanone; phases: Liquid
Fixed: Temperature, K = 303.15
Fixed: Pressure, kPa = 101
Property: Refractive index (Na D-line) (Liquid); method: Standard Abbe refractometry
Mole fraction of butan-1-ol	Refractive index (Na D-line)	uncertainty
0	1.37383	0.00031
0.0765	1.37557	0.00031
0.1392	1.37702	0.00031
0.2097	1.37867	0.00031
0.2775	1.3802	0.00031
0.3488	1.3819	0.00031
0.442	1.38402	0.00031
0.4933	1.38514	0.00031
0.5008	1.38533	0.00031
0.5577	1.3866	0.00031
0.6404	1.38835	0.00031
0.6474	1.38848	0.00031
0.7257	1.39011	0.00031
0.7944	1.39145	0.00031
0.8562	1.3926	0.00031
0.9307	1.39387	0.00031
1	1.39479	0.00031

System: butan-1-ol + butanone; phases: Liquid
Fixed: Pressure, kPa = 101
Fixed: Temperature, K = 303.15
Property: Mass density, kg/m3 (Liquid); method: VIBTUB:UFactor:2
Mole fraction of butan-1-ol	Mass density, kg/m3	uncertainty
0	794.5	0.3
0.0765	795	0.3
0.1392	795.4	0.3
0.2097	795.9	0.3
0.2775	796.4	0.3
0.3488	796.9	0.3
0.442	797.6	0.3
0.4933	798	0.3
0.5008	798.1	0.3
0.5577	798.5	0.3
0.6404	799.2	0.3
0.6474	799.3	0.3
0.7257	799.9	0.3
0.7944	800.5	0.3
0.8562	801	0.3
0.9307	801.6	0.3
1	802.2	0.3
