Measured thermophysical data. Separation of azeotrope (allyl alcohol + water): Isobaric vapour-liquid phase equilibrium measurements and extractive distillation
Source: J. Chem. Thermodyn., 2018, 10.1016/j.jct.2017.11.009
Compound 1: 2-propenol, C3H6O, InChI=1S/C3H6O/c1-2-3-4/h2,4H,1,3H2, purity 99%
Compound 2: N-methylpyrrolidone, C5H9NO, InChI=1S/C5H9NO/c1-6-4-2-3-5(6)7/h2-4H2,1H3, purity 99%
Compound 3: N-methylformamide, C2H5NO, InChI=1S/C2H5NO/c1-3-2-4/h2H,1H3,(H,3,4), purity 99%
Compound 4: 1,2-ethanediol, C2H6O2, InChI=1S/C2H6O2/c3-1-2-4/h3-4H,1-2H2, purity 99%

System: 2-propenol; phases: Liquid, Gas
Property: Boiling temperature at pressure P, K (Liquid); method: Ebulliometric method (Recirculating still)
Pressure, kPa	Boiling temperature at pressure P, K	uncertainty
101.3	369.95	0.4

System: N-methylpyrrolidone; phases: Liquid, Gas
Property: Boiling temperature at pressure P, K (Liquid); method: Ebulliometric method (Recirculating still)
Pressure, kPa	Boiling temperature at pressure P, K	uncertainty
101.3	475.44	0.4

System: N-methylformamide; phases: Liquid, Gas
Property: Boiling temperature at pressure P, K (Liquid); method: Ebulliometric method (Recirculating still)
Pressure, kPa	Boiling temperature at pressure P, K	uncertainty
101.3	472.25	0.4

System: 1,2-ethanediol; phases: Liquid, Gas
Property: Boiling temperature at pressure P, K (Liquid); method: Ebulliometric method (Recirculating still)
Pressure, kPa	Boiling temperature at pressure P, K	uncertainty
101.3	470.32	0.4

System: 2-propenol + N-methylpyrrolidone; phases: Liquid, Gas
Fixed: Pressure, kPa = 101.3
Property: Boiling temperature at pressure P, K (Liquid); method: Ebulliometric method (Recirculating still)
Mole fraction of 2-propenol	Boiling temperature at pressure P, K	uncertainty
0.949	371	0.43
0.6399	380.73	0.46
0.4399	389.64	0.5
0.3151	397.17	0.59
0.2617	403.11	0.76
0.1932	410.71	0.84
0.1574	416.48	1.17
0.1217	424.19	1.53
0.079	436.3	1.78
0.0614	442.43	2.17
0.0454	448.66	2.41
0.032	454.49	2.92
0.0189	461.87	3.61
0.0114	467.37	4.18
0.0066	470.91	4.2
0	475.44	0.41
1	369.95	0.41

System: 2-propenol + N-methylpyrrolidone; phases: Gas, Liquid
Fixed: Pressure, kPa = 101.3
Property: Mole fraction of 2-propenol (Gas); method: Chromatography
Mole fraction of 2-propenol	Mole fraction of 2-propenol	uncertainty
0.949	0.9983	0.0017
0.6399	0.9828	0.0058
0.4399	0.959	0.0059
0.3151	0.9297	0.0061
0.2617	0.9044	0.0067
0.1932	0.8684	0.0071
0.1574	0.8369	0.0091
0.1217	0.7872	0.0131
0.079	0.684	0.0173
0.0614	0.6185	0.0258
0.0454	0.5408	0.0329
0.032	0.4557	0.0466
0.0189	0.3307	0.0645
0.0114	0.224	0.1027
0.0066	0.1475	0.0997
0	0	
1	1	

System: 2-propenol + N-methylformamide; phases: Liquid, Gas
Fixed: Pressure, kPa = 101.3
Property: Boiling temperature at pressure P, K (Liquid); method: Ebulliometric method (Recirculating still)
Mole fraction of 2-propenol	Boiling temperature at pressure P, K	uncertainty
0.9052	372.35	0.44
0.784	375.67	0.44
0.6843	378.63	0.46
0.595	382.18	0.47
0.5351	384.67	0.52
0.4153	391.95	0.54
0.3638	395.1	0.6
0.3002	400.67	0.68
0.2655	404.24	0.76
0.2199	409.46	0.89
0.1602	418.5	1.02
0.1138	426.54	1.26
0.0839	434.45	1.7
0.0654	440.4	2.02
0.0451	447.65	2.33
0.0278	455.34	2.78
0.0136	462.64	3.5
0.0028	470.43	2.06
0	472.25	0.41
1	369.95	0.41

System: 2-propenol + N-methylformamide; phases: Gas, Liquid
Fixed: Pressure, kPa = 101.3
Property: Mole fraction of 2-propenol (Gas); method: Chromatography
Mole fraction of 2-propenol	Mole fraction of 2-propenol	uncertainty
0.9052	0.996	0.004
0.784	0.9902	0.0058
0.6843	0.9846	0.0058
0.595	0.977	0.0058
0.5351	0.9713	0.0059
0.4153	0.9527	0.0059
0.3638	0.9435	0.006
0.3002	0.925	0.0062
0.2655	0.9112	0.0066
0.2199	0.887	0.0074
0.1602	0.834	0.0088
0.1138	0.7723	0.0123
0.0839	0.6946	0.0188
0.0654	0.625	0.0268
0.0451	0.5228	0.0366
0.0278	0.3921	0.0515
0.0136	0.244	0.0762
0.0028	0.0611	0.0478
0	0	
1	1	

System: 2-propenol + 1,2-ethanediol; phases: Liquid, Gas
Fixed: Pressure, kPa = 101.3
Property: Boiling temperature at pressure P, K (Liquid); method: Ebulliometric method (Recirculating still)
Mole fraction of 2-propenol	Boiling temperature at pressure P, K	uncertainty
0.8721	372.93	0.44
0.7718	376.27	0.44
0.6584	379.17	0.45
0.5308	383.96	0.47
0.4454	387.16	0.5
0.3599	392.16	0.57
0.311	396.45	0.69
0.266	401.16	0.78
0.2216	406.6	0.86
0.1901	411.13	1.01
0.153	417.52	1.21
0.1103	426.76	1.42
0.0852	433.5	1.67
0.0722	437.49	1.94
0.0588	442.15	2.19
0.0418	448.76	2.45
0.026	455.8	2.69
0.0184	459.55	3.15
0.0046	467.25	2.6
0.0012	469.4	0.8
0	470.32	0.41
1	369.95	0.41

System: 2-propenol + 1,2-ethanediol; phases: Gas, Liquid
Fixed: Pressure, kPa = 101.3
Property: Mole fraction of 2-propenol (Gas); method: Chromatography
Mole fraction of 2-propenol	Mole fraction of 2-propenol	uncertainty
0.8721	0.995	0.005
0.7718	0.9905	0.0058
0.6584	0.9863	0.0058
0.5308	0.9786	0.0058
0.4454	0.9733	0.0058
0.3599	0.9638	0.0059
0.311	0.9532	0.006
0.266	0.9387	0.0063
0.2216	0.9186	0.0067
0.1901	0.8978	0.0077
0.153	0.8622	0.0098
0.1103	0.7927	0.0131
0.0852	0.7261	0.0183
0.0722	0.6795	0.0248
0.0588	0.618	0.0329
0.0418	0.5124	0.0435
0.026	0.3755	0.0547
0.0184	0.2906	0.0793
0.0046	0.0872	0.0681
0.0012	0.0235	0.0195
0	0	
1	1	
