Measured thermophysical data. Tensiometric, fluorescence and 1H NMR study of mixed micellization of non-steroidal anti-inflammatory drug sodium salt of ibuprofen in the presence of non-ionic surfactant in aqueous/urea solutions
Source: J. Chem. Thermodyn., 2016, 10.1016/j.jct.2016.01.001
Compound 1: water, H2O, InChI=1S/H2O/h1H2
Compound 2: sodium ibuprofen, C13H17NaO2, InChI=1S/C13H18O2.Na/c1-9(2)8-11-4-6-12(7-5-11)10(3)13(14)15;/h4-7,9-10H,8H2,1-3H3,(H,14,15);/q;+1/p-1, purity 98%
Compound 3: urea, CH4N2O, InChI=1S/CH4N2O/c2-1(3)4/h(H4,2,3,4), purity 98%

System: water + sodium ibuprofen; phases: Liquid, Air at 1 atmosphere
Fixed: Temperature, K = 298.15
Property: Surface tension liquid-gas, N/m (Liquid); method: Ring tensiometer
Molality, mol/kg of sodium ibuprofen	Surface tension liquid-gas, N/m	uncertainty
0.0022	0.06235	0.00124
0.00438	0.06076	0.00123
0.00873	0.05891	0.00123
0.0216	0.05452	0.00122
0.032	0.05162	0.00124
0.0423	0.04838	0.00127
0.0524	0.04551	0.00125
0.0671	0.04239	0.00123
0.0815	0.04024	0.00119
0.1	0.03827	0.0012
0.118	0.03611	0.00119
0.135	0.03485	0.00116
0.16	0.03301	0.00115
0.183	0.03202	0.0011
0.206	0.03174	0.00108
0.227	0.03172	0.00108
0.247	0.03173	0.00108
0.267	0.03172	0.00108

System: urea + water + sodium ibuprofen; phases: Liquid, Air at 1 atmosphere
Fixed: Temperature, K = 298.15
Fixed: Solvent: Molality, mol/kg of urea = 0.25
Property: Surface tension liquid-gas, N/m (Liquid); method: Ring tensiometer
Molality, mol/kg of sodium ibuprofen	Surface tension liquid-gas, N/m	uncertainty
0.0026	0.06335	0.00132
0.00518	0.06176	0.00131
0.0103	0.05991	0.0013
0.0255	0.05552	0.00129
0.0379	0.05262	0.00129
0.05	0.04938	0.00132
0.0619	0.04651	0.00129
0.0793	0.04339	0.00127
0.0963	0.04124	0.00123
0.118	0.03927	0.00123
0.139	0.03711	0.00122
0.16	0.03585	0.00119
0.189	0.03401	0.00118
0.217	0.03302	0.00113
0.243	0.03272	0.00111
0.268	0.03273	0.00111
0.292	0.03272	0.00111
0.315	0.03273	0.00111
