Measured thermophysical data. Activity coefficients at infinite dilution measurements for organic solutes and  water in the ionic liquid triethylsulphonium bis(trifluoromethylsulfonyl)imide
Source: J. Chem. Thermodyn., 2009, 10.1016/j.jct.2008.12.005
Compound 1: triethylsulfonium bis((trifluoromethyl)sulfonyl)imide, C8H15F6NO4S3, InChI=1S/C6H15S.C2F6NO4S2/c1-4-7(5-2)6-3;3-1(4,5)14(10,11)9-15(12,13)2(6,7)8/h4-6H2,1-3H3;/q+1;-1, purity 98%
Compound 2: pentane, C5H12, InChI=1S/C5H12/c1-3-5-4-2/h3-5H2,1-2H3, purity 99%
Compound 3: hexane, C6H14, InChI=1S/C6H14/c1-3-5-6-4-2/h3-6H2,1-2H3, purity 99%
Compound 4: heptane, C7H16, InChI=1S/C7H16/c1-3-5-7-6-4-2/h3-7H2,1-2H3, purity 99%
Compound 5: octane, C8H18, InChI=1S/C8H18/c1-3-5-7-8-6-4-2/h3-8H2,1-2H3, purity 99%
Compound 6: nonane, C9H20, InChI=1S/C9H20/c1-3-5-7-9-8-6-4-2/h3-9H2,1-2H3, purity 99%
Compound 7: decane, C10H22, InChI=1S/C10H22/c1-3-5-7-9-10-8-6-4-2/h3-10H2,1-2H3, purity 99%
Compound 8: cyclopentane, C5H10, InChI=1S/C5H10/c1-2-4-5-3-1/h1-5H2, purity 99%
Compound 9: cyclohexane, C6H12, InChI=1S/C6H12/c1-2-4-6-5-3-1/h1-6H2, purity 99%
Compound 10: cycloheptane, C7H14, InChI=1S/C7H14/c1-2-4-6-7-5-3-1/h1-7H2, purity 99%
Compound 11: cyclooctane, C8H16, InChI=1S/C8H16/c1-2-4-6-8-7-5-3-1/h1-8H2, purity 99%
Compound 12: 1-pentene, C5H10, InChI=1S/C5H10/c1-3-5-4-2/h3H,1,4-5H2,2H3, purity 99%
Compound 13: hex-1-ene, C6H12, InChI=1S/C6H12/c1-3-5-6-4-2/h3H,1,4-6H2,2H3, purity 99%
Compound 14: 1-heptene, C7H14, InChI=1S/C7H14/c1-3-5-7-6-4-2/h3H,1,4-7H2,2H3, purity 99%
Compound 15: oct-1-ene, C8H16, InChI=1S/C8H16/c1-3-5-7-8-6-4-2/h3H,1,4-8H2,2H3, purity 99%
Compound 16: 1-pentyne, C5H8, InChI=1S/C5H8/c1-3-5-4-2/h1H,4-5H2,2H3, purity 99%
Compound 17: 1-hexyne, C6H10, InChI=1S/C6H10/c1-3-5-6-4-2/h1H,4-6H2,2H3, purity 99%
Compound 18: 1-heptyne, C7H12, InChI=1S/C7H12/c1-3-5-7-6-4-2/h1H,4-7H2,2H3, purity 99%
Compound 19: 1-octyne, C8H14, InChI=1S/C8H14/c1-3-5-7-8-6-4-2/h1H,4-8H2,2H3, purity 99%
Compound 20: benzene, C6H6, InChI=1S/C6H6/c1-2-4-6-5-3-1/h1-6H, purity 99%
Compound 21: toluene, C7H8, InChI=1S/C7H8/c1-7-5-3-2-4-6-7/h2-6H,1H3, purity 99%
Compound 22: ethylbenzene, C8H10, InChI=1S/C8H10/c1-2-8-6-4-3-5-7-8/h3-7H,2H2,1H3, purity 99%
Compound 23: 1,2-dimethylbenzene, C8H10, InChI=1S/C8H10/c1-7-5-3-4-6-8(7)2/h3-6H,1-2H3, purity 99%
Compound 24: 1,3-dimethylbenzene, C8H10, InChI=1S/C8H10/c1-7-4-3-5-8(2)6-7/h3-6H,1-2H3, purity 99%
Compound 25: 1,4-dimethylbenzene, C8H10, InChI=1S/C8H10/c1-7-3-5-8(2)6-4-7/h3-6H,1-2H3, purity 99%
Compound 26: methanol, CH4O, InChI=1S/CH4O/c1-2/h2H,1H3, purity 99%
Compound 27: ethanol, C2H6O, InChI=1S/C2H6O/c1-2-3/h3H,2H2,1H3, purity 99%
Compound 28: propan-1-ol, C3H8O, InChI=1S/C3H8O/c1-2-3-4/h4H,2-3H2,1H3, purity 99%
Compound 29: butan-1-ol, C4H10O, InChI=1S/C4H10O/c1-2-3-4-5/h5H,2-4H2,1H3, purity 99%
Compound 30: water, H2O, InChI=1S/H2O/h1H2, purity 99%
Compound 31: tetrahydrofuran, C4H8O, InChI=1S/C4H8O/c1-2-4-5-3-1/h1-4H2, purity 99%
Compound 32: thiophene, C4H4S, InChI=1S/C4H4S/c1-2-4-5-3-1/h1-4H, purity 99%
Compound 33: 2-methoxy-2-methylpropane, C5H12O, InChI=1S/C5H12O/c1-5(2,3)6-4/h1-4H3, purity 99%

System: pentane + triethylsulfonium bis((trifluoromethyl)sulfonyl)imide; phases: Liquid
Fixed: Pressure, kPa = 101
Fixed: Mole fraction of pentane = 0
Property: Activity coefficient of pentane (Liquid); method: Chromatography
Temperature, K	Activity coefficient of pentane	uncertainty
298.15	21.6	1.5
308.15	19.9	1.4
318.15	18.3	1.3
328.15	16.8	1.1
338.15	15.6	1.1
348.15	14.6	1
358.15	13.5	0.9
368.15	12.7	0.9

System: hexane + triethylsulfonium bis((trifluoromethyl)sulfonyl)imide; phases: Liquid
Fixed: Pressure, kPa = 101
Fixed: Mole fraction of hexane = 0
Property: Activity coefficient of hexane (Liquid); method: Chromatography
Temperature, K	Activity coefficient of hexane	uncertainty
298.15	28.6	2
308.15	26.2	1.8
318.15	24	1.6
328.15	22.1	1.5
338.15	20.7	1.4
348.15	19.2	1.3
358.15	18	1.2
368.15	16.9	1.2

System: heptane + triethylsulfonium bis((trifluoromethyl)sulfonyl)imide; phases: Liquid
Fixed: Pressure, kPa = 101
Fixed: Mole fraction of heptane = 0
Property: Activity coefficient of heptane (Liquid); method: Chromatography
Temperature, K	Activity coefficient of heptane	uncertainty
298.15	40.4	2.8
308.15	36.9	2.5
318.15	33.5	2.3
328.15	30.5	2.1
338.15	28.1	1.9
348.15	26	1.8
358.15	24.1	1.6
368.15	22.5	1.5

System: octane + triethylsulfonium bis((trifluoromethyl)sulfonyl)imide; phases: Liquid
Fixed: Pressure, kPa = 101
Fixed: Mole fraction of octane = 0
Property: Activity coefficient of octane (Liquid); method: Chromatography
Temperature, K	Activity coefficient of octane	uncertainty
298.15	59.6	4.1
308.15	53.3	3.7
318.15	47.9	3.3
328.15	43.6	3
338.15	39.6	2.7
348.15	36.3	2.5
358.15	33.5	2.3
368.15	30.8	2.1

System: nonane + triethylsulfonium bis((trifluoromethyl)sulfonyl)imide; phases: Liquid
Fixed: Pressure, kPa = 101
Fixed: Mole fraction of nonane = 0
Property: Activity coefficient of nonane (Liquid); method: Chromatography
Temperature, K	Activity coefficient of nonane	uncertainty
298.15	87.2	6
308.15	77.6	5.3
318.15	68.6	4.7
328.15	61.8	4.2
338.15	55.5	3.8
348.15	50.5	3.5
358.15	46	3.1
368.15	42.4	2.9

System: decane + triethylsulfonium bis((trifluoromethyl)sulfonyl)imide; phases: Liquid
Fixed: Pressure, kPa = 101
Fixed: Mole fraction of decane = 0
Property: Activity coefficient of decane (Liquid); method: Chromatography
Temperature, K	Activity coefficient of decane	uncertainty
298.15	131	9
308.15	114	8
318.15	101	7
328.15	89.6	6.1
338.15	80	5.5
348.15	72.5	5
358.15	65.8	4.5
368.15	59.7	4.1

System: cyclopentane + triethylsulfonium bis((trifluoromethyl)sulfonyl)imide; phases: Liquid
Fixed: Pressure, kPa = 101
Fixed: Mole fraction of cyclopentane = 0
Property: Activity coefficient of cyclopentane (Liquid); method: Chromatography
Temperature, K	Activity coefficient of cyclopentane	uncertainty
298.15	10.8	0.7
308.15	10.1	0.7
318.15	9.31	0.64
328.15	8.72	0.59
338.15	8.17	0.56
348.15	7.7	0.53
358.15	7.29	0.5
368.15	6.94	0.47

System: cyclohexane + triethylsulfonium bis((trifluoromethyl)sulfonyl)imide; phases: Liquid
Fixed: Pressure, kPa = 101
Fixed: Mole fraction of cyclohexane = 0
Property: Activity coefficient of cyclohexane (Liquid); method: Chromatography
Temperature, K	Activity coefficient of cyclohexane	uncertainty
298.15	16.1	1.1
308.15	14.7	1
318.15	13.5	0.9
328.15	12.4	0.8
338.15	11.6	0.8
348.15	10.7	0.7
358.15	10	0.7
368.15	9.43	0.64

System: cycloheptane + triethylsulfonium bis((trifluoromethyl)sulfonyl)imide; phases: Liquid
Fixed: Pressure, kPa = 101
Fixed: Mole fraction of cycloheptane = 0
Property: Activity coefficient of cycloheptane (Liquid); method: Chromatography
Temperature, K	Activity coefficient of cycloheptane	uncertainty
298.15	21.7	1.5
308.15	19.8	1.4
318.15	18	1.2
328.15	16.5	1.1
338.15	15.2	1
348.15	14.1	1
358.15	13.1	0.9
368.15	12.2	0.8

System: cyclooctane + triethylsulfonium bis((trifluoromethyl)sulfonyl)imide; phases: Liquid
Fixed: Pressure, kPa = 101
Fixed: Mole fraction of cyclooctane = 0
Property: Activity coefficient of cyclooctane (Liquid); method: Chromatography
Temperature, K	Activity coefficient of cyclooctane	uncertainty
298.15	30.3	2.1
308.15	27.2	1.9
318.15	24.5	1.7
328.15	22.4	1.5
338.15	20.4	1.4
348.15	18.7	1.3
358.15	17.2	1.2
368.15	16	1.1

System: 1-pentene + triethylsulfonium bis((trifluoromethyl)sulfonyl)imide; phases: Liquid
Fixed: Pressure, kPa = 101
Fixed: Mole fraction of 1-pentene = 0
Property: Activity coefficient of 1-pentene (Liquid); method: Chromatography
Temperature, K	Activity coefficient of 1-pentene	uncertainty
298.15	8.81	0.6
308.15	8.41	0.57
318.15	8.06	0.55
328.15	7.72	0.53
338.15	7.4	0.5
348.15	7.17	0.49
358.15	6.89	0.47
368.15	6.69	0.46

System: hex-1-ene + triethylsulfonium bis((trifluoromethyl)sulfonyl)imide; phases: Liquid
Fixed: Pressure, kPa = 101
Fixed: Mole fraction of hex-1-ene = 0
Property: Activity coefficient of hex-1-ene (Liquid); method: Chromatography
Temperature, K	Activity coefficient of hex-1-ene	uncertainty
298.15	12.5	0.9
308.15	11.8	0.8
318.15	11.3	0.8
328.15	10.6	0.7
338.15	10.1	0.7
348.15	9.69	0.66
358.15	9.3	0.63
368.15	8.94	0.61

System: 1-heptene + triethylsulfonium bis((trifluoromethyl)sulfonyl)imide; phases: Liquid
Fixed: Pressure, kPa = 101
Fixed: Mole fraction of 1-heptene = 0
Property: Activity coefficient of 1-heptene (Liquid); method: Chromatography
Temperature, K	Activity coefficient of 1-heptene	uncertainty
298.15	18.3	1.3
308.15	17.2	1.2
318.15	16.1	1.1
328.15	15.2	1
338.15	14.4	1
348.15	13.7	0.9
358.15	12.9	0.9
368.15	12.4	0.8

System: oct-1-ene + triethylsulfonium bis((trifluoromethyl)sulfonyl)imide; phases: Liquid
Fixed: Pressure, kPa = 101
Fixed: Mole fraction of oct-1-ene = 0
Property: Activity coefficient of oct-1-ene (Liquid); method: Chromatography
Temperature, K	Activity coefficient of oct-1-ene	uncertainty
298.15	27	1.8
308.15	25	1.7
318.15	23.2	1.6
328.15	21.8	1.5
338.15	20.4	1.4
348.15	19.2	1.3
358.15	18.2	1.2
368.15	17.3	1.2

System: 1-pentyne + triethylsulfonium bis((trifluoromethyl)sulfonyl)imide; phases: Liquid
Fixed: Pressure, kPa = 101
Fixed: Mole fraction of 1-pentyne = 0
Property: Activity coefficient of 1-pentyne (Liquid); method: Chromatography
Temperature, K	Activity coefficient of 1-pentyne	uncertainty
298.15	2.52	0.17
308.15	2.52	0.17
318.15	2.53	0.17
328.15	2.54	0.17
338.15	2.54	0.17
348.15	2.55	0.17
358.15	2.55	0.17
368.15	2.55	0.17

System: 1-hexyne + triethylsulfonium bis((trifluoromethyl)sulfonyl)imide; phases: Liquid
Fixed: Pressure, kPa = 101
Fixed: Mole fraction of 1-hexyne = 0
Property: Activity coefficient of 1-hexyne (Liquid); method: Chromatography
Temperature, K	Activity coefficient of 1-hexyne	uncertainty
298.15	3.63	0.25
308.15	3.62	0.25
318.15	3.6	0.25
328.15	3.58	0.24
338.15	3.57	0.24
348.15	3.56	0.24
358.15	3.54	0.24
368.15	3.53	0.24

System: 1-heptyne + triethylsulfonium bis((trifluoromethyl)sulfonyl)imide; phases: Liquid
Fixed: Pressure, kPa = 101
Fixed: Mole fraction of 1-heptyne = 0
Property: Activity coefficient of 1-heptyne (Liquid); method: Chromatography
Temperature, K	Activity coefficient of 1-heptyne	uncertainty
298.15	5.34	0.36
308.15	5.28	0.36
318.15	5.21	0.36
328.15	5.14	0.35
338.15	5.08	0.35
348.15	5.04	0.34
358.15	4.98	0.34
368.15	4.93	0.34

System: 1-octyne + triethylsulfonium bis((trifluoromethyl)sulfonyl)imide; phases: Liquid
Fixed: Pressure, kPa = 101
Fixed: Mole fraction of 1-octyne = 0
Property: Activity coefficient of 1-octyne (Liquid); method: Chromatography
Temperature, K	Activity coefficient of 1-octyne	uncertainty
298.15	7.87	0.54
308.15	7.68	0.52
318.15	7.51	0.51
328.15	7.35	0.5
338.15	7.2	0.49
348.15	7.06	0.48
358.15	6.93	0.47
368.15	6.81	0.46

System: benzene + triethylsulfonium bis((trifluoromethyl)sulfonyl)imide; phases: Liquid
Fixed: Pressure, kPa = 101
Fixed: Mole fraction of benzene = 0
Property: Activity coefficient of benzene (Liquid); method: Chromatography
Temperature, K	Activity coefficient of benzene	uncertainty
298.15	1.08	0.07
308.15	1.1	0.07
318.15	1.11	0.07
328.15	1.12	0.07
338.15	1.13	0.07
348.15	1.13	0.07
358.15	1.14	0.07
368.15	1.15	0.07

System: toluene + triethylsulfonium bis((trifluoromethyl)sulfonyl)imide; phases: Liquid
Fixed: Pressure, kPa = 101
Fixed: Mole fraction of toluene = 0
Property: Activity coefficient of toluene (Liquid); method: Chromatography
Temperature, K	Activity coefficient of toluene	uncertainty
298.15	1.54	0.1
308.15	1.56	0.1
318.15	1.58	0.1
328.15	1.6	0.11
338.15	1.62	0.11
348.15	1.63	0.11
358.15	1.65	0.11
368.15	1.66	0.11

System: ethylbenzene + triethylsulfonium bis((trifluoromethyl)sulfonyl)imide; phases: Liquid
Fixed: Pressure, kPa = 101
Fixed: Mole fraction of ethylbenzene = 0
Property: Activity coefficient of ethylbenzene (Liquid); method: Chromatography
Temperature, K	Activity coefficient of ethylbenzene	uncertainty
298.15	2.42	0.16
308.15	2.43	0.17
318.15	2.43	0.17
328.15	2.44	0.17
338.15	2.44	0.17
348.15	2.45	0.17
358.15	2.45	0.17
368.15	2.45	0.17

System: 1,2-dimethylbenzene + triethylsulfonium bis((trifluoromethyl)sulfonyl)imide; phases: Liquid
Fixed: Pressure, kPa = 101
Fixed: Mole fraction of 1,2-dimethylbenzene = 0
Property: Activity coefficient of 1,2-dimethylbenzene (Liquid); method: Chromatography
Temperature, K	Activity coefficient of 1,2-dimethylbenzene	uncertainty
308.15	2.05	0.14
318.15	2.07	0.14
328.15	2.09	0.14
338.15	2.1	0.14
348.15	2.12	0.14
358.15	2.13	0.14
368.15	2.15	0.15

System: 1,3-dimethylbenzene + triethylsulfonium bis((trifluoromethyl)sulfonyl)imide; phases: Liquid
Fixed: Pressure, kPa = 101
Fixed: Mole fraction of 1,3-dimethylbenzene = 0
Property: Activity coefficient of 1,3-dimethylbenzene (Liquid); method: Chromatography
Temperature, K	Activity coefficient of 1,3-dimethylbenzene	uncertainty
308.15	2.29	0.16
318.15	2.31	0.16
328.15	2.33	0.16
338.15	2.34	0.16
348.15	2.36	0.16
358.15	2.38	0.16
368.15	2.39	0.16

System: 1,4-dimethylbenzene + triethylsulfonium bis((trifluoromethyl)sulfonyl)imide; phases: Liquid
Fixed: Pressure, kPa = 101
Fixed: Mole fraction of 1,4-dimethylbenzene = 0
Property: Activity coefficient of 1,4-dimethylbenzene (Liquid); method: Chromatography
Temperature, K	Activity coefficient of 1,4-dimethylbenzene	uncertainty
308.15	2.27	0.15
318.15	2.3	0.16
328.15	2.32	0.16
338.15	2.34	0.16
348.15	2.36	0.16
358.15	2.38	0.16
368.15	2.4	0.16

System: methanol + triethylsulfonium bis((trifluoromethyl)sulfonyl)imide; phases: Liquid
Fixed: Pressure, kPa = 101
Fixed: Mole fraction of methanol = 0
Property: Activity coefficient of methanol (Liquid); method: Chromatography
Temperature, K	Activity coefficient of methanol	uncertainty
298.15	1.62	0.11
308.15	1.48	0.1
318.15	1.35	0.09
328.15	1.25	0.08
338.15	1.15	0.07
348.15	1.07	0.07
358.15	1	0.06
368.15	0.935	0.059

System: ethanol + triethylsulfonium bis((trifluoromethyl)sulfonyl)imide; phases: Liquid
Fixed: Pressure, kPa = 101
Fixed: Mole fraction of ethanol = 0
Property: Activity coefficient of ethanol (Liquid); method: Chromatography
Temperature, K	Activity coefficient of ethanol	uncertainty
298.15	2.15	0.15
308.15	1.95	0.13
318.15	1.77	0.12
328.15	1.61	0.11
338.15	1.48	0.1
348.15	1.36	0.09
358.15	1.27	0.08
368.15	1.18	0.08

System: propan-1-ol + triethylsulfonium bis((trifluoromethyl)sulfonyl)imide; phases: Liquid
Fixed: Pressure, kPa = 101
Fixed: Mole fraction of propan-1-ol = 0
Property: Activity coefficient of propan-1-ol (Liquid); method: Chromatography
Temperature, K	Activity coefficient of propan-1-ol	uncertainty
308.15	2.49	0.17
318.15	2.24	0.15
328.15	2.04	0.14
338.15	1.85	0.12
348.15	1.7	0.11
358.15	1.57	0.1
368.15	1.46	0.1

System: butan-1-ol + triethylsulfonium bis((trifluoromethyl)sulfonyl)imide; phases: Liquid
Fixed: Pressure, kPa = 101
Fixed: Mole fraction of butan-1-ol = 0
Property: Activity coefficient of butan-1-ol (Liquid); method: Chromatography
Temperature, K	Activity coefficient of butan-1-ol	uncertainty
308.15	3.32	0.23
318.15	2.96	0.2
328.15	2.66	0.18
338.15	2.41	0.16
348.15	2.2	0.15
358.15	2	0.14
368.15	1.84	0.12

System: water + triethylsulfonium bis((trifluoromethyl)sulfonyl)imide; phases: Liquid
Fixed: Pressure, kPa = 101
Fixed: Mole fraction of water = 0
Property: Activity coefficient of water (Liquid); method: Chromatography
Temperature, K	Activity coefficient of water	uncertainty
308.15	3.91	0.27
318.15	3.39	0.23
328.15	2.97	0.2
338.15	2.63	0.18
348.15	2.33	0.16
358.15	2.08	0.14
368.15	1.88	0.13

System: tetrahydrofuran + triethylsulfonium bis((trifluoromethyl)sulfonyl)imide; phases: Liquid
Fixed: Pressure, kPa = 101
Fixed: Mole fraction of tetrahydrofuran = 0
Property: Activity coefficient of tetrahydrofuran (Liquid); method: Chromatography
Temperature, K	Activity coefficient of tetrahydrofuran	uncertainty
298.15	0.788	0.051
308.15	0.803	0.052
318.15	0.82	0.053
328.15	0.834	0.054
338.15	0.846	0.054
348.15	0.859	0.055
358.15	0.872	0.056
368.15	0.885	0.056

System: thiophene + triethylsulfonium bis((trifluoromethyl)sulfonyl)imide; phases: Liquid
Fixed: Pressure, kPa = 101
Fixed: Mole fraction of thiophene = 0
Property: Activity coefficient of thiophene (Liquid); method: Chromatography
Temperature, K	Activity coefficient of thiophene	uncertainty
298.15	0.926	0.059
308.15	0.935	0.059
318.15	0.943	0.059
328.15	0.951	0.06
338.15	0.958	0.06
348.15	0.965	0.061
358.15	0.971	0.061
368.15	0.977	0.061

System: 2-methoxy-2-methylpropane + triethylsulfonium bis((trifluoromethyl)sulfonyl)imide; phases: Liquid
Fixed: Pressure, kPa = 101
Fixed: Mole fraction of 2-methoxy-2-methylpropane = 0
Property: Activity coefficient of 2-methoxy-2-methylpropane (Liquid); method: Chromatography
Temperature, K	Activity coefficient of 2-methoxy-2-methylpropane	uncertainty
298.15	2.92	0.2
308.15	2.94	0.2
318.15	2.96	0.2
328.15	2.98	0.2
338.15	3	0.2
348.15	3.02	0.21
358.15	3.03	0.21
368.15	3.05	0.21
