Measured thermophysical data. Measurement of the (p,.rho.,T) relation of propane, propylene, n-butane, and isobutane in the temperature range from (95 to 340) K at pressures up to 12 MPa using an accurate two-sinker densimeter
Source: J. Chem. Thermodyn., 2004, 10.1016/j.jct.2004.07.017
Compound 1: propane, C3H8, InChI=1S/C3H8/c1-3-2/h3H2,1-2H3, purity 99.99%
Compound 2: propene, C3H6, InChI=1S/C3H6/c1-3-2/h3H,1H2,2H3, purity 99.97%
Compound 3: butane, C4H10, InChI=1S/C4H10/c1-3-4-2/h3-4H2,1-2H3, purity 99.98%
Compound 4: 2-methylpropane, C4H10, InChI=1S/C4H10/c1-4(2)3/h4H,1-3H3, purity 99.92%

System: propane; phases: Liquid, Gas
Property: Vapor or sublimation pressure, kPa (Liquid); method: Closed cell (Static) method
Temperature, K	Vapor or sublimation pressure, kPa	uncertainty
110	0.0006	0.0006
120	0.0032	0.0016
130	0.018	0.0011
140	0.078	0.0031
150	0.283	0.005
160	0.851	0.009
170	2.205	0.01
180	5.068	0.011
190	10.547	0.016
200	20.193	0.019
210	36.032	0.023
220	60.574	0.019
230	96.775	0.024
240	148	0.033
250	217.964	0.037
260	310.685	0.05
270	430.425	0.065
280	581.684	0.07
290	769.143	0.077
300	997.682	0.09
310	1272.43	0.1
320	1598.87	0.11
330	1983	0.14
340	2431.45	0.17

System: propane; phases: Liquid, Gas
Property: Mass density, kg/m3 (Liquid); method: Buoyancy - hydrostatic balance with magnetic suspension - two sinkers
Temperature, K	Mass density, kg/m3	uncertainty
90	728.457	0.137
95	723.3	0.136
100	718.169	0.135
110	707.968	0.133
120	697.825	0.131
130	687.713	0.13
140	677.601	0.128
150	667.462	0.127
160	657.272	0.125
170	647.004	0.124
180	636.628	0.122
190	626.123	0.121
200	615.456	0.119
210	604.594	0.118
220	593.499	0.117
230	582.132	0.116
240	570.444	0.115
250	558.383	0.114
260	545.88	0.113
270	532.853	0.113
280	519.198	0.113
290	504.796	0.114
300	489.465	0.115
310	472.968	0.118
320	454.951	0.124
330	434.869	0.132
340	411.772	0.138

System: propane; phases: Gas, Liquid
Property: Mass density, kg/m3 (Gas); method: Buoyancy - hydrostatic balance with magnetic suspension - two sinkers
Temperature, K	Mass density, kg/m3	uncertainty
230	2.3148	0.0051
240	3.4379	0.0063
250	4.9398	0.0081
260	6.9029	0.0098
270	9.423	0.0125
280	12.6155	0.0158
290	16.6231	0.0201
300	21.6299	0.0257
310	27.8854	0.0331
320	35.7463	0.043
330	45.7626	0.057
340	58.878	0.0666

System: propane; phases: Fluid (supercritical or subcritical phases)
Property: Mass density, kg/m3 (Fluid (supercritical or subcritical phases)); method: Buoyancy - hydrostatic balance with magnetic suspension - two sinkers
Temperature, K	Pressure, kPa	Mass density, kg/m3	uncertainty
95	2018.52	723.965	0.113
95	4019.77	724.621	0.114
95	6009.41	725.268	0.114
95	8013.68	725.915	0.114
95	10019.24	726.557	0.114
95	12024.92	727.196	0.114
120	2034.61	698.638	0.11
120	4030.4	699.434	0.11
120	6017.02	700.218	0.11
120	8030.22	701.005	0.111
120	10030.81	701.78	0.111
120	12034.05	702.549	0.111
150	2034.19	668.504	0.107
150	3985.52	669.497	0.107
150	6079.85	670.519	0.107
150	8045.78	671.522	0.107
150	9997.21	672.478	0.107
150	12046.42	673.466	0.107
180	2022.82	637.975	0.103
180	4024.03	639.296	0.103
180	6008.72	640.582	0.104
180	8016.78	641.86	0.104
180	10001.79	643.1	0.104
180	12008.74	644.334	0.104
210	2039.56	606.383	0.101
210	3984.99	608.092	0.101
210	6031.75	609.837	0.101
210	8003.14	611.478	0.101
210	10036.54	613.131	0.101
210	11921.53	614.626	0.101
240	2021.84	572.782	0.099
240	4023.16	575.197	0.099
240	6039.1	577.54	0.099
240	8010.76	579.747	0.099
240	10020.52	581.921	0.099
240	12021.87	584.014	0.099
260	281.101	6.1882	0.0449
270	2021.31	535.813	0.1
270	4020.15	539.344	0.099
270	5980.75	542.605	0.098
270	8002.59	545.786	0.098
270	10019.59	548.799	0.099
270	11994.01	551.611	0.098
280	289.38	5.8226	0.0053
280	481.073	10.1469	0.0075
300	399.559	7.5585	0.0065
300	798.263	16.4261	0.3211
300	2021.31	492.677	0.204
300	4026.01	498.457	0.101
300	6039.71	503.672	0.1
300	8061.27	508.44	0.1
300	10049.85	512.763	0.1
300	12057.77	516.82	0.1
320	200.937	3.4188	0.0042
320	501.424	8.906	0.0071
320	1001.23	19.3717	0.0158
320	1500.46	32.5852	0.513
320	2000.4	457.032	0.887
320	4015.65	466.162	0.113
320	6007.61	473.71	0.108
320	8017.26	480.331	0.106
320	10010.32	486.169	0.105
320	12015.49	491.478	0.104
340	496.086	8.1794	0.0067
340	986.726	17.3458	0.0129
340	1504.15	28.7186	0.0243
340	2008.14	42.6317	0.9601
340	4013.39	425.721	0.507
340	6047.95	438.673	0.117
340	8023.98	448.514	0.113
340	10059.88	456.968	0.112
340	12014.74	463.99	0.113

System: propane; phases: Fluid (supercritical or subcritical phases)
Property: Mass density, kg/m3 (Fluid (supercritical or subcritical phases)); method: Buoyancy - hydrostatic balance with magnetic suspension - one sinker
Temperature, K	Pressure, kPa	Mass density, kg/m3	uncertainty
340	8126.28	448.967	0.123
340	10113.4	457.153	0.117
340	12090.5	464.241	0.116
340	14016.8	470.367	0.116
340	16039.1	476.169	0.118
340	18052.6	481.437	0.12
340	21172	488.804	0.127
340	24013.9	494.854	0.134
340	27063.3	500.781	0.142
340	30150.3	506.296	0.155
360	2009.53	37.2391	0.0414
360	2996.41	68.3667	0.6163
360	3954.33	359.479	0.758
360	5000.54	380.052	0.36
360	6035.77	393.057	0.169
360	7940.9	409.907	0.136
360	10028.3	423.353	0.129
360	12020.6	433.58	0.127
360	14041.3	442.308	0.129
360	16029.2	449.771	0.131
360	17975.7	456.303	0.132
360	21074.3	465.411	0.14
360	24003.1	472.975	0.148
360	27065.6	480.066	0.158
360	30000.7	486.236	0.17
369.9	1994.55	34.9738	0.0361
369.9	3016.21	62.4727	0.07
369.9	3513.83	82.3679	0.7228
369.9	7081.1	377.745	0.471
369.9	8075.79	388.617	0.163
369.9	10115.2	405.271	0.148
369.9	12088.9	417.508	0.144
380	2076.58	34.9899	0.0319
380	2833.95	52.6877	0.0526
380	7033.61	344.65	0.299
380	8043.79	361.606	0.217
380	10120	384.517	0.177
380	11981.6	398.933	0.158
380	14097.5	411.762	0.153
380	16059.9	421.573	0.151
380	18086	430.272	0.151
380	21048.1	441.149	0.159
380	24092.2	450.713	0.168
380	27096.4	458.982	0.176
380	30166.9	466.525	0.193
400	1987.17	30.434	0.0264
400	2967.88	49.8497	0.0464
400	3936.75	74.2171	0.0967
400	4992.01	111.806	0.441
400	5417.38	132.937	0.534
400	5940.69	166.333	0.387
400	6450	205.521	0.447
400	6985.05	243.457	0.316
400	7619.43	275.664	0.374
400	7995.91	289.629	0.32
400	8999.24	316.254	0.318
400	10018	334.756	0.225
400	12025	359.749	0.205
400	14049.6	377.452	0.188
400	16124.2	391.417	0.183
400	18014.2	401.94	0.175
400	20999.5	415.722	0.185
400	24031.7	427.317	0.191
400	27059.2	437.238	0.2
400	30062.6	445.873	0.218
420	2038.98	29.0752	0.026
420	3932.08	65.0217	0.0753
420	6041.99	125.611	0.21
420	8047.29	211.318	0.358
420	10062	278.315	0.337
420	12085.4	316.302	0.272
420	14086.8	340.792	0.238
420	16053.2	358.557	0.222
420	18083.1	373.068	0.208
420	21112.2	390.3	0.217
420	24046.1	403.759	0.219
420	27104.7	415.547	0.229
420	29851.6	424.74	0.246
440	2067.4	27.6235	0.0233
440	4077.61	61.5203	0.063
440	5993.06	104.047	0.144
440	8022.24	163.07	0.263
440	10092.6	225.978	0.336
440	11985.3	269.357	0.315
440	14017.5	301.711	0.289
440	16017.5	324.778	0.267
440	17998.6	342.471	0.242
440	21085.4	363.858	0.252
440	24115.1	380.282	0.252
440	27002	393.225	0.255
440	30002.1	404.732	0.282
460	4039.66	55.8061	0.0576
460	6015.18	92.3718	0.1123
460	8042.45	137.863	0.197
460	10078.9	187.736	0.278
460	12023.6	230.703	0.309
460	14028.1	265.637	0.311
460	16034.6	292.415	0.298
460	18094.5	313.762	0.273
460	21117.4	338.028	0.284
460	24084.3	356.572	0.281
460	27157.2	372.227	0.287
460	30103.2	384.889	0.318
490	2067.95	23.9424	0.0191
490	3990.76	49.4189	0.045
490	6002.29	79.9763	0.0885
490	8062.61	115.445	0.15
490	10042.6	152.131	0.216
490	11966.8	187.331	0.275
490	13987.3	220.71	0.308
490	15999.7	248.919	0.321
490	17951.8	271.702	0.308
490	21036.8	300.482	0.328
490	23885.6	321.421	0.322
490	26974.8	339.951	0.329
490	29957.3	354.92	0.357
520	4168.95	47.3908	0.0439
520	6051.73	72.2457	0.0758
520	8048.65	100.814	0.123
520	10050.8	130.952	0.177

System: propane; phases: Fluid (supercritical or subcritical phases)
Property: Mass density, kg/m3 (Fluid (supercritical or subcritical phases)); method: Buoyancy - hydrostatic balance with magnetic suspension - one sinker
Temperature, K	Pressure, kPa	Mass density, kg/m3	uncertainty
369.9	4000.31	115.491	1.357
369.9	4409.09	302.81	0.676
369.9	5046.96	339.003	0.426
369.9	5987.18	361.539	0.649
380	4016.86	94.4148	0.2217
380	4428.38	119.994	0.448
380	5019.86	213.522	0.785
380	5257.94	263.476	0.696
380	5537.04	291.554	0.481
380	6028.43	317.197	0.592

System: propene; phases: Liquid, Gas
Property: Vapor or sublimation pressure, kPa (Liquid); method: Closed cell (Static) method
Temperature, K	Vapor or sublimation pressure, kPa	uncertainty
110	0.0011	0.0011
120	0.0052	0.0026
130	0.027	0.001
140	0.118	0.004
150	0.411	0.005
160	1.207	0.007
170	3.067	0.009
180	6.928	0.01
190	14.184	0.011
200	26.757	0.017
210	47.109	0.021
220	78.233	0.022
230	123.607	0.027
240	187.143	0.037
250	273.125	0.044
260	386.135	0.058
270	531.013	0.069
280	712.831	0.071
290	936.861	0.084
300	1208.64	0.1
310	1533.97	0.12
320	1919.12	0.13
330	2370.92	0.17
340	2897.31	0.17

System: propene; phases: Liquid, Gas
Property: Mass density, kg/m3 (Liquid); method: Buoyancy - hydrostatic balance with magnetic suspension - two sinkers
Temperature, K	Mass density, kg/m3	uncertainty
95	759.937	0.143
100	754.101	0.142
110	742.594	0.14
120	731.251	0.138
130	720.011	0.136
140	708.83	0.134
150	697.661	0.133
160	686.471	0.131
170	675.224	0.129
180	663.884	0.128
190	652.417	0.126
200	640.787	0.125
210	628.954	0.123
220	616.876	0.122
230	604.501	0.121
240	591.777	0.12
250	578.633	0.119
260	564.994	0.119
270	550.764	0.118
280	535.814	0.119
290	519.987	0.12
300	503.063	0.122
310	484.734	0.126
320	464.523	0.133
330	441.682	0.146
340	414.757	0.155

System: propene; phases: Gas, Liquid
Property: Mass density, kg/m3 (Gas); method: Buoyancy - hydrostatic balance with magnetic suspension - two sinkers
Temperature, K	Mass density, kg/m3	uncertainty
230	2.8371	0.0056
240	4.1778	0.0065
250	5.959	0.0085
260	8.2753	0.011
270	11.2387	0.0142
280	14.986	0.0183
290	19.6888	0.0235
300	25.5746	0.0302
310	32.9595	0.0392
320	42.316	0.0515
330	54.4118	0.0697
340	70.6681	0.0824

System: propene; phases: Fluid (supercritical or subcritical phases)
Property: Mass density, kg/m3 (Fluid (supercritical or subcritical phases)); method: Buoyancy - hydrostatic balance with magnetic suspension - two sinkers
Temperature, K	Pressure, kPa	Mass density, kg/m3	uncertainty
95	2034.25	760.628	0.119
95	4005.14	761.302	0.119
95	6018.48	761.978	0.12
95	8013.06	762.654	0.12
95	10023.75	763.325	0.12
95	12006.22	763.985	0.12
120	2017.53	732.089	0.116
120	4023.2	732.924	0.116
120	6009.04	733.742	0.116
120	7989.9	734.548	0.116
120	10028.36	735.372	0.116
120	12029.71	736.172	0.117
150	2008.36	698.735	0.112
150	4017.65	699.803	0.112
150	6005.97	700.844	0.112
150	8003.6	701.881	0.112
150	10014.43	702.906	0.112
150	12010.24	703.914	0.113
180	2004.17	665.284	0.108
180	4004.61	666.666	0.108
180	6008.3	668.025	0.108
180	8026.66	669.369	0.109
180	10031.93	670.682	0.109
180	12007.05	671.954	0.109
210	2004.01	630.804	0.105
210	4016.59	632.657	0.105
210	6010.13	634.447	0.105
210	8012.78	636.201	0.106
210	10007.69	637.905	0.106
210	12008.16	639.575	0.106
240	2003.58	594.19	0.103
240	4006.63	596.754	0.103
240	6016.87	599.229	0.103
240	8018.76	601.603	0.103
240	10018.29	603.896	0.104
240	12008.09	606.102	0.104
260	360.778	7.6761	0.0717
260	2008.98	567.809	0.208
260	4006.16	571.102	0.103
260	6006.38	574.231	0.103
260	8025.39	577.241	0.103
260	10011.2	580.069	0.103
260	12007.75	582.793	0.103
280	307.467	5.8839	0.0053
280	504.474	10.0711	0.0074
280	2004.35	538.877	0.201
280	4006.16	543.322	0.105
280	6005.32	547.441	0.104
280	8008.9	551.302	0.104
280	10007.17	554.922	0.104
280	12018.35	558.369	0.104
300	306.563	5.4094	0.0051
300	505.331	9.2105	0.0074
300	999.211	20.0694	0.3006
300	2003.32	505.865	0.397
300	4005.88	512.29	0.11
300	6004.45	518.014	0.108
300	8008.55	523.216	0.107
300	10005.89	527.975	0.107
300	12006.21	532.392	0.106
320	500.782	8.4193	0.0068
320	1003.76	18.1623	0.0139
320	1500.64	29.7694	0.0233
320	4008.1	475.759	0.34
320	6009.6	484.486	0.118
320	8011.68	491.948	0.114
320	10009.09	498.502	0.113
320	12009.14	504.389	0.111
340	501.004	7.8378	0.0064
340	1000.66	16.5669	0.0122
340	1501.54	26.5778	0.0216
340	1999.3	38.3975	0.5813
340	2505.34	53.74	0.7125
340	4008.21	427.581	0.561
340	6013.78	443.741	0.131
340	8008.78	455.655	0.124
340	10017.25	465.379	0.121
340	12018.23	473.612	0.123

System: butane; phases: Liquid, Gas
Property: Vapor or sublimation pressure, kPa (Liquid); method: Closed cell (Static) method
Temperature, K	Vapor or sublimation pressure, kPa	uncertainty
135	0.0013	0.0013
140	0.0021	0.0011
150	0.0093	0.0033
160	0.035	0.004
170	0.116	0.006
180	0.335	0.005
190	0.849	0.006
200	1.937	0.011
210	4.04	0.011
220	7.803	0.012
230	14.105	0.016
240	24.087	0.017
250	39.157	0.018
260	60.986	0.018
270	91.499	0.023
275	110.673	0.025
285	158.306	0.035
290	187.371	0.037
300	257.622	0.044
310	346.298	0.055
320	456.235	0.068
330	590.396	0.071
340	751.896	0.075

System: butane; phases: Liquid, Gas
Property: Mass density, kg/m3 (Liquid); method: Buoyancy - hydrostatic balance with magnetic suspension - two sinkers
Temperature, K	Mass density, kg/m3	uncertainty
135	734.916	0.138
140	730.233	0.137
150	720.898	0.136
160	711.571	0.134
170	702.242	0.133
180	692.884	0.132
190	683.479	0.13
200	674.009	0.129
210	664.456	0.127
220	654.796	0.126
230	645.011	0.125
240	635.071	0.124
250	624.967	0.122
260	614.653	0.121
270	604.104	0.12
275	598.73	0.12
285	587.763	0.119
290	582.156	0.119
300	570.664	0.118
310	558.754	0.118
320	546.353	0.118
330	533.376	0.118
340	519.707	0.118

System: butane; phases: Gas, Liquid
Property: Mass density, kg/m3 (Gas); method: Buoyancy - hydrostatic balance with magnetic suspension - two sinkers
Temperature, K	Mass density, kg/m3	uncertainty
270	2.4628	0.0048
275	2.9414	0.0054
285	4.1131	0.0061
290	4.8201	0.0076
300	6.5149	0.0092
310	8.6426	0.0115
320	11.284	0.0144
330	14.5357	0.0181
340	18.5183	0.0205

System: butane; phases: Fluid (supercritical or subcritical phases)
Property: Mass density, kg/m3 (Fluid (supercritical or subcritical phases)); method: Buoyancy - hydrostatic balance with magnetic suspension - two sinkers
Temperature, K	Pressure, kPa	Mass density, kg/m3	uncertainty
140	2002.48	731.069	0.115
140	4003.68	731.913	0.115
140	6004.32	732.746	0.115
140	8005.22	733.572	0.115
140	10005.76	734.386	0.116
140	12006.41	735.195	0.116
170	2003.08	703.28	0.112
170	4004.35	704.327	0.112
170	6005.75	705.36	0.112
170	8006.67	706.38	0.112
170	10007.6	707.386	0.112
170	12008.61	708.378	0.112
200	2002.51	675.323	0.109
200	4005.54	676.638	0.109
200	6003.88	677.928	0.109
200	8006.36	679.195	0.109
200	10009.62	680.443	0.109
200	12008.82	681.665	0.109
230	2002.79	646.694	0.106
230	4003.12	648.369	0.106
230	6004.52	650.003	0.106
230	8004.68	651.599	0.106
230	10004.63	653.164	0.107
230	12005.03	654.692	0.107
260	2019.52	616.844	0.104
260	4006.49	619.013	0.104
260	6006.68	621.134	0.104
260	8007.61	623.188	0.104
260	10004.15	625.174	0.104
260	12005.53	627.108	0.105
280	2002.79	595.863	0.229
280	6002.99	601.077	0.103
280	8007.89	603.537	0.103
280	10004.44	605.897	0.103
280	12005.49	608.181	0.104
280	2002.79	598.524	0.23
290	170.308	4.353	0.0478
300	200.575	4.9721	0.0387
300	2003.9	573.693	0.208
300	4005.12	577.002	0.102
300	6006.81	580.137	0.102
300	8047.33	583.175	0.102
300	10092.22	586.078	0.103
300	12036.9	588.722	0.103
310	202.029	4.8154	0.0316
320	200.863	4.6087	0.0047
320	298.455	7.0328	0.0058
320	399.703	9.7079	0.008
320	2002.38	549.841	0.203
320	4003.41	554.071	0.103
320	6005.32	558.008	0.103
320	8005.6	561.695	0.103
320	10010.9	565.181	0.103
320	12007.86	568.462	0.103
330	206.698	4.4515	0.0044
330	401.468	8.9808	0.0071
330	501.526	12.0126	0.0103
340	201.081	4.4272	0.0044
340	401.468	8.9808	0.0068
340	600.354	14.1335	0.01
340	2003.06	523.546	0.586
340	4002.69	529.184	0.104
340	6003.59	534.286	0.103
340	8004.56	538.959	0.103
340	10005.37	543.286	0.103
340	12005.95	547.319	0.104

System: 2-methylpropane; phases: Liquid, Gas
Property: Vapor or sublimation pressure, kPa (Liquid); method: Closed cell (Static) method
Temperature, K	Vapor or sublimation pressure, kPa	uncertainty
120	0.0013	0.0013
130	0.0023	0.0012
140	0.006	0.0024
150	0.024	0.004
160	0.089	0.004
170	0.276	0.003
180	0.738	0.004
190	1.762	0.005
200	3.814	0.008
210	7.581	0.012
220	14.021	0.014
230	24.385	0.017
240	40.217	0.019
250	63.346	0.022
260	95.88	0.024
270.5	142.733	0.031
280	198.76	0.034
290	274.406	0.041
300	370.007	0.052
310	488.615	0.064
320	633.377	0.076
330	807.636	0.081
340	1014.842	0.091

System: 2-methylpropane; phases: Liquid, Gas
Property: Mass density, kg/m3 (Liquid); method: Buoyancy - hydrostatic balance with magnetic suspension - two sinkers
Temperature, K	Mass density, kg/m3	uncertainty
115	739.142	0.139
120	734.41	0.138
130	724.961	0.137
140	715.512	0.135
150	706.043	0.134
160	696.531	0.132
170	686.964	0.131
180	677.318	0.129
190	667.588	0.128
200	657.753	0.126
210	647.795	0.125
220	637.695	0.124
230	627.433	0.122
240	616.977	0.121
250	606.306	0.12
260	595.382	0.119
270.5	584.169	0.118
280	572.621	0.118
290	560.685	0.117
300	548.29	0.117
310	535.357	0.117
320	521.775	0.117
330	507.415	0.119
340	492.089	0.119

System: 2-methylpropane; phases: Gas, Liquid
Property: Mass density, kg/m3 (Gas); method: Buoyancy - hydrostatic balance with magnetic suspension - two sinkers
Temperature, K	Mass density, kg/m3	uncertainty
260	2.6847	0.0054
270.5	3.8941	0.0061
280	5.3164	0.0079
290	7.2171	0.0099
300	9.6098	0.0126
310	12.5887	0.0158
320	16.2689	0.0199
330	20.7958	0.0251
340	26.3601	0.0285

System: 2-methylpropane; phases: Fluid (supercritical or subcritical phases)
Property: Mass density, kg/m3 (Fluid (supercritical or subcritical phases)); method: Buoyancy - hydrostatic balance with magnetic suspension - two sinkers
Temperature, K	Pressure, kPa	Mass density, kg/m3	uncertainty
120	2003.62	735.167	0.116
120	4005.02	735.927	0.116
120	6006.38	736.69	0.116
120	8007.56	737.439	0.116
120	10008.08	738.181	0.117
120	12009.01	738.918	0.117
140	2003.91	716.399	0.114
140	4004.44	717.288	0.114
140	6004.65	718.168	0.114
140	8006.05	719.037	0.114
140	10007.15	719.897	0.114
140	12007.16	720.746	0.114
170	2004.09	688.095	0.11
170	4004.79	689.221	0.11
170	6005.28	690.331	0.111
170	8006.14	691.424	0.111
170	10007.35	692.503	0.111
170	12007.63	693.564	0.111
200	2000.83	659.21	0.107
200	4001.8	660.656	0.107
200	6002.47	662.071	0.108
200	8003.22	663.459	0.108
200	10004.33	664.821	0.108
200	12004.92	666.155	0.108
230	2002.79	629.331	0.105
230	4003.39	631.216	0.105
230	6004.52	633.05	0.105
230	8004.89	634.833	0.105
230	10006.16	636.573	0.105
230	12006.65	638.266	0.105
260	2002.8	597.871	0.102
260	4007.01	600.403	0.102
260	6004.73	602.826	0.102
260	8006.58	605.166	0.103
260	10006.22	607.421	0.103
260	12006.56	609.6	0.103
280	150.733	3.9597	0.0239
280	2004.15	575.587	0.208
280	4004.96	578.727	0.102
280	6006.04	581.709	0.102
280	8006.6	584.553	0.102
280	10013.6	587.279	0.102
280	12012.29	589.884	0.103
290	150.606	3.7969	0.0042
290	201.273	5.1593	0.0048
290	251.684	6.5654	0.0055
300	200.233	4.9252	0.0047
300	300.33	7.6193	0.0061
300	350.008	9.0276	0.0069
300	2007.93	551.782	0.204
300	4008.33	555.786	0.102
300	6009.418	559.529	0.102
300	8008.26	563.043	0.102
300	10019.81	566.383	0.102
300	12009.83	569.518	0.102
310	200.31	4.7403	0.0046
310	300.25	7.2998	0.0058
310	400.292	10.0227	0.0075
320	200.682	4.578	0.0046
320	400.635	9.6027	0.0074
320	600.55	15.2609	0.0111
320	2018.3	525.7756	0.1972
320	4015.5	531.0729	0.1036
320	6005.32	535.879	0.103
320	8013.19	540.343	0.102
320	10010.9	544.469	0.103
320	12012	548.333	0.103
330	201.884	4.4478	0.0045
330	401.285	9.2357	0.0071
330	600.809	14.54	0.011
330	800.28	20.5563	0.0155
340	200.931	4.2797	0.0044
340	401.235	8.8864	0.0067
340	600.847	13.9034	0.0102
340	801.725	19.5196	0.0147
340	900.441	22.5521	0.0175
340	2004.73	496.243	0.588
340	4006.73	503.721	0.105
340	6013.37	510.249	0.104
340	8005.42	516.026	0.104
340	10030.05	521.341	0.104
340	12008.33	526.104	0.105
