Measured thermophysical data. Experimental and computational thermochemical study of 3-hydroxypropanenitrile
Source: J. Chem. Thermodyn., 2007, 10.1016/j.jct.2007.03.011
Compound 1: carbon dioxide, CO2, InChI=1S/CO2/c2-1-3
Compound 2: nitrogen, N2, InChI=1S/N2/c1-2
Compound 3: water, H2O, InChI=1S/H2O/h1H2
Compound 4: oxygen, O2, InChI=1S/O2/c1-2
Compound 5: 3-hydroxypropanenitrile, C3H5NO, InChI=1S/C3H5NO/c4-2-1-3-5/h5H,1,3H2, purity 99%

System: 3-hydroxypropanenitrile; phases: Liquid, Gas
Property: Vapor or sublimation pressure, kPa (Liquid); method: Transpiration method
Temperature, K	Vapor or sublimation pressure, kPa	uncertainty
306.3	0.01564	0.00078
311.3	0.02299	0.00115
314.3	0.02755	0.00138
317.3	0.03639	0.00182
318.6	0.03759	0.00188
321.4	0.04504	0.00227
321.7	0.04955	0.0025
323.3	0.05382	0.00269
325.4	0.06297	0.00315
326.3	0.06361	0.00318
328.6	0.07507	0.00376
331.4	0.08563	0.00428
331.4	0.09147	0.00458
333.4	0.1054	0.0053
336.3	0.1286	0.0065
336.4	0.1232	0.0063
338.5	0.1442	0.0072
340.4	0.1598	0.008
341.5	0.1816	0.0091
343.4	0.2025	0.0101
346.6	0.2592	0.013
351.7	0.3404	0.017
356.8	0.4425	0.0221
361.8	0.5765	0.0288

Reaction: -1 3-hydroxypropanenitrile + 3 carbon dioxide + .5 nitrogen + 2.5 water + -3.75 oxygen
Property: Specific internal energy of reaction at constant volume, J/g
-24493.8
