Measured thermophysical data. Calorimetric study of methyl and ethyl 2-thiophenecarboxylates and ethyl 2- and 3-thiopheneacetates
Source: J. Chem. Thermodyn., 2009, 10.1016/j.jct.2009.03.007
Compound 1: sulfuric acid, H2O4S, InChI=1S/H2O4S/c1-5(2,3)4/h(H2,1,2,3,4)
Compound 2: carbon dioxide, CO2, InChI=1S/CO2/c2-1-3
Compound 3: water, H2O, InChI=1S/H2O/h1H2
Compound 4: oxygen, O2, InChI=1S/O2/c1-2
Compound 5: ethyl 2-thiophenecarboxylate, C7H8O2S, InChI=1S/C7H8O2S/c1-2-9-7(8)6-4-3-5-10-6/h3-5H,2H2,1H3, purity 97%
Compound 6: ethyl 2-thiopheneacetate, C8H10O2S, InChI=1S/C8H10O2S/c1-2-10-8(9)6-7-4-3-5-11-7/h3-5H,2,6H2,1H3, purity 98%
Compound 7: ethyl 3-thiopheneacetate, C8H10O2S, InChI=1S/C8H10O2S/c1-2-10-8(9)5-7-3-4-11-6-7/h3-4,6H,2,5H2,1H3, purity 99%
Compound 8: methyl 2-thiophenecarboxylate, C6H6O2S, InChI=1S/C6H6O2S/c1-8-6(7)5-3-2-4-9-5/h2-4H,1H3, purity 97%

System: ethyl 2-thiophenecarboxylate; phases: Liquid, Gas
Property: Molar enthalpy, kJ/mol (Liquid); method: Drop calorimetry
Temperature, K	Molar enthalpy, kJ/mol	uncertainty
365	69.3	1.6

System: ethyl 2-thiophenecarboxylate; phases: Liquid, Gas
Property: Molar enthalpy of transition or fusion, kJ/mol (Liquid); method: Calvet microcalorimetry
Temperature, K	Molar enthalpy of transition or fusion, kJ/mol	uncertainty
298.15	56.6	2.6

System: ethyl 2-thiopheneacetate; phases: Liquid, Gas
Property: Molar enthalpy, kJ/mol (Liquid); method: Drop calorimetry
Temperature, K	Molar enthalpy, kJ/mol	uncertainty
365	76.1	1.8

System: ethyl 2-thiopheneacetate; phases: Liquid, Gas
Property: Molar enthalpy of transition or fusion, kJ/mol (Liquid); method: Calvet microcalorimetry
Temperature, K	Molar enthalpy of transition or fusion, kJ/mol	uncertainty
298.15	61.8	2.6

System: ethyl 3-thiopheneacetate; phases: Liquid, Gas
Property: Molar enthalpy, kJ/mol (Liquid); method: Drop calorimetry
Temperature, K	Molar enthalpy, kJ/mol	uncertainty
364.9	77.5	1.8

System: ethyl 3-thiopheneacetate; phases: Liquid, Gas
Property: Molar enthalpy of transition or fusion, kJ/mol (Liquid); method: Calvet microcalorimetry
Temperature, K	Molar enthalpy of transition or fusion, kJ/mol	uncertainty
298.15	63.2	2.6

System: methyl 2-thiophenecarboxylate; phases: Liquid, Gas
Property: Molar enthalpy, kJ/mol (Liquid); method: Drop calorimetry
Temperature, K	Molar enthalpy, kJ/mol	uncertainty
349.9	65.5	1.5

System: methyl 2-thiophenecarboxylate; phases: Liquid, Gas
Property: Molar enthalpy of transition or fusion, kJ/mol (Liquid); method: Calvet microcalorimetry
Temperature, K	Molar enthalpy of transition or fusion, kJ/mol	uncertainty
298.15	57.6	2.4

Reaction: -1 methyl 2-thiophenecarboxylate + 1 sulfuric acid + 6 carbon dioxide + 2 water + -8 oxygen
Property: Specific internal energy of reaction at constant volume, J/g
-24718

Reaction: -1 ethyl 2-thiophenecarboxylate + 1 sulfuric acid + 7 carbon dioxide + 3 water + -9.5 oxygen
Property: Specific internal energy of reaction at constant volume, J/g
-26673.5

Reaction: 1 sulfuric acid + -1 ethyl 2-thiopheneacetate + 8 carbon dioxide + 4 water + -11 oxygen
Property: Specific internal energy of reaction at constant volume, J/g
-28255.8

Reaction: 1 sulfuric acid + -1 ethyl 3-thiopheneacetate + 8 carbon dioxide + 4 water + -11 oxygen
Property: Specific internal energy of reaction at constant volume, J/g
-28273.4
