Measured thermophysical data. Measurement and correlation of the (vapor + liquid) equilibria of pure 4-ethylmorpholine, 1,2-dimethylisopropylamine and N,N-dimethylethanolamine, and their binary aqueous solutions
Source: J. Chem. Thermodyn., 2013, 10.1016/j.jct.2013.03.020
Compound 1: 4-ethylmorpholine, C6H13NO, InChI=1S/C6H13NO/c1-2-7-3-5-8-6-4-7/h2-6H2,1H3, purity 97%
Compound 2: N,N-dimethylisopropylamine, C5H13N, InChI=1S/C5H13N/c1-5(2)6(3)4/h5H,1-4H3, purity 99%
Compound 3: 2-(N,N-dimethylamino)ethanol, C4H11NO, InChI=1S/C4H11NO/c1-5(2)3-4-6/h6H,3-4H2,1-2H3, purity 99.5%
Compound 4: water, H2O, InChI=1S/H2O/h1H2, purity 99.8%

System: 4-ethylmorpholine; phases: Liquid, Gas
Property: Vapor or sublimation pressure, kPa (Liquid); method: Closed cell (Static) method
Temperature, K	Vapor or sublimation pressure, kPa	uncertainty
283.98	0.6293	0.0139
293.93	1.142	0.025
303.86	1.985	0.041
303.86	1.989	0.041
323.78	5.303	0.107
333.91	8.702	0.176
343.88	13.068	0.264
353.9	18.878	0.38
363.86	28.777	0.584
283.15	0.5816	0.0129
293.15	1.083	0.024
303.15	1.918	0.04
313.15	3.253	0.067
323.15	5.304	0.107
333.15	8.353	0.169
343.15	12.749	0.257
353.15	18.919	0.38
363.15	27.372	0.556

System: N,N-dimethylisopropylamine; phases: Liquid, Gas
Property: Vapor or sublimation pressure, kPa (Liquid); method: Closed cell (Static) method
Temperature, K	Vapor or sublimation pressure, kPa	uncertainty
274.58	7.183	0.146
274.58	7.185	0.146
274.58	7.197	0.146
283.86	11.393	0.23
293.81	18.303	0.369
293.81	18.385	0.371
303.82	28.184	0.568
313.79	41.761	0.841
313.79	41.786	0.842
313.79	41.796	0.842
324.02	60.66	1.221
324.02	60.724	1.222
334.05	85.338	1.717
334.05	85.355	1.718
334.05	85.418	1.719
334.05	85.319	1.717
273.15	6.65	0.135
283.15	11.11	0.224
293.15	17.774	0.359
303.15	27.372	0.552
313.15	40.757	0.821
323.15	58.902	1.186
333.15	82.888	1.668

System: 2-(N,N-dimethylamino)ethanol; phases: Liquid, Gas
Property: Vapor or sublimation pressure, kPa (Liquid); method: Closed cell (Static) method
Temperature, K	Vapor or sublimation pressure, kPa	uncertainty
273.86	0.149	0.0036
282.97	0.2938	0.0067
282.97	0.2945	0.0067
292.89	0.5824	0.0128
292.91	0.5823	0.0128
292.91	0.5822	0.0128
302.89	1.095	0.024
302.89	1.096	0.024
312.86	1.963	0.041
312.86	1.963	0.041
323.03	3.392	0.07
333.06	5.626	0.114
343.05	9.047	0.188
353.04	14.448	0.297
363.1	21.586	0.435
273.15	0.142	0.004
283.15	0.2979	0.0068
293.15	0.59	0.0129
303.15	1.11	0.024
313.15	1.993	0.041
323.15	3.435	0.071
333.15	5.705	0.116
343.15	9.165	0.191
353.15	14.285	0.293
363.15	21.664	0.436

System: water; phases: Liquid, Gas
Property: Vapor or sublimation pressure, kPa (Liquid); method: Closed cell (Static) method
Temperature, K	Vapor or sublimation pressure, kPa	uncertainty
283.15	1.183	0.026
293.15	2.277	0.047
303.15	4.165	0.085
313.15	7.284	0.148
323.15	12.235	0.247
333.15	19.821	0.4
343.15	30.815	0.621
353.15	47.344	0.953
363.15	70.218	1.411
273.15	0.5798	0.0129
343.15	31.086	0.626

System: 4-ethylmorpholine + water; phases: Liquid, Gas
Property: Vapor or sublimation pressure, kPa (Liquid); method: Closed cell (Static) method
Mole fraction of 4-ethylmorpholine	Temperature, K	Vapor or sublimation pressure, kPa	uncertainty
0	283.15	1.183	0.03
0.1255	283.15	1.13	0.029
0.2557	283.15	1.102	0.028
0.3621	283.15	1.066	0.028
0.4932	283.15	1.023	0.027
0.6414	283.15	0.9731	0.0253
0.7181	283.15	0.9407	0.0245
0.8265	283.15	0.868	0.0227
1	283.15	0.5816	0.0156
0	293.15	2.277	0.05
0.1255	293.15	2.223	0.049
0.2557	293.15	2.18	0.049
0.3621	293.15	2.118	0.047
0.4932	293.15	2.035	0.046
0.6414	293.15	1.937	0.044
0.7181	293.15	1.865	0.042
0.8265	293.15	1.711	0.04
1	293.15	1.083	0.028
0	303.15	4.165	0.088
0.1255	303.15	4.158	0.088
0.2557	303.15	4.094	0.087
0.3621	303.15	3.991	0.084
0.4932	303.15	3.837	0.081
0.6414	303.15	3.647	0.078
0.7181	303.15	3.499	0.075
0.8265	303.15	3.177	0.069
1	303.15	1.918	0.043
0	313.15	7.284	0.151
0.1255	313.15	7.441	0.154
0.2557	313.15	7.341	0.152
0.3621	313.15	7.18	0.149
0.4932	313.15	6.9	0.143
0.6414	313.15	6.539	0.136
0.7181	313.15	6.248	0.13
0.8265	313.15	5.598	0.118
1	313.15	3.253	0.07
0	323.15	12.235	0.251
0.1255	323.15	12.791	0.262
0.2557	323.15	12.625	0.259
0.3621	323.15	12.394	0.254
0.4932	323.15	11.892	0.244
0.6414	323.15	11.223	0.231
0.7181	323.15	10.682	0.22
0.8265	323.15	9.424	0.196
1	323.15	5.304	0.111
0	333.15	19.821	0.404
0.1255	333.15	21.21	0.433
0.2557	333.15	20.917	0.427
0.3621	333.15	20.61	0.421
0.4932	333.15	19.737	0.404
0.6414	333.15	18.523	0.379
0.7181	333.15	17.568	0.36
0.8265	333.15	15.234	0.314
1	333.15	8.353	0.173
0	343.15	30.815	0.627
0.1255	343.15	34.045	0.693
0.2557	343.15	33.514	0.682
0.3621	343.15	33.142	0.675
0.4932	343.15	31.654	0.645
0.6414	343.15	29.544	0.603
0.7181	343.15	27.904	0.571
0.8265	343.15	23.755	0.489
1	343.15	12.749	0.262
0	353.15	47.344	0.962
0.1255	353.15	53.056	1.078
0.2557	353.15	52.093	1.059
0.3621	353.15	51.701	1.052
0.4932	353.15	49.228	1.002
0.6414	353.15	45.655	0.93
0.7181	353.15	42.959	0.877
0.8265	353.15	35.875	0.737
1	353.15	18.919	0.387
0	363.15	70.218	1.424
0.1255	363.15	80.494	1.632
0.2557	363.15	78.775	1.598
0.3621	363.15	78.463	1.592
0.4932	363.15	74.456	1.512
0.6414	363.15	68.587	1.394
0.7181	363.15	64.299	1.31
0.8265	363.15	52.644	1.079
1	363.15	27.372	0.559

System: N,N-dimethylisopropylamine + water; phases: Liquid, Gas
Property: Vapor or sublimation pressure, kPa (Liquid); method: Closed cell (Static) method
Mole fraction of N,N-dimethylisopropylamine	Temperature, K	Vapor or sublimation pressure, kPa	uncertainty
0	273.15	0.5798	0.0155
0.1248	273.15	2.748	0.062
0.2421	273.15	3.697	0.079
0.3885	273.15	4.723	0.1
0.4981	273.15	5.318	0.112
0.6148	273.15	5.721	0.12
0.7153	273.15	5.967	0.125
0.8637	273.15	6.29	0.131
1	273.15	6.65	0.139
0	283.15	1.183	0.03
0.1248	283.15	5.403	0.115
0.2421	283.15	6.772	0.141
0.3885	283.15	8.321	0.172
0.4981	283.15	9.171	0.189
0.6148	283.15	9.767	0.201
0.7153	283.15	10.096	0.208
0.8637	283.15	10.624	0.219
1	283.15	11.11	0.229
0	293.15	2.277	0.05
0.1248	293.15	10.043	0.211
0.2421	293.15	11.877	0.244
0.3885	293.15	14.049	0.288
0.4981	293.15	15.202	0.311
0.6148	293.15	16.037	0.329
0.7153	293.15	16.467	0.337
0.8637	293.15	17.253	0.354
1	293.15	17.774	0.364
0	303.15	4.166	0.088
0.1248	303.15	17.769	0.37
0.2421	303.15	20.035	0.41
0.3885	303.15	22.842	0.467
0.4981	303.15	24.319	0.496
0.6148	303.15	25.432	0.519
0.7153	303.15	25.989	0.531
0.8637	303.15	27.05	0.553
1	303.15	27.372	0.56
0	313.15	7.284	0.151
0.1248	313.15	30.098	0.623
0.2421	313.15	32.635	0.665
0.3885	313.15	35.9	0.731
0.4981	313.15	37.685	0.768
0.6148	313.15	39.088	0.796
0.7153	313.15	39.817	0.811
0.8637	313.15	41.099	0.838
1	313.15	40.757	0.832
0	323.15	12.235	0.251
0.1248	323.15	49.04	1.011
0.2421	323.15	51.504	1.047
0.3885	323.15	54.731	1.113
0.4981	323.15	56.744	1.154
0.6148	323.15	58.405	1.188
0.7153	323.15	59.384	1.209
0.8637	323.15	60.704	1.236
1	323.15	58.902	1.201
0	333.15	19.821	0.404
0.1248	333.15	77.179	1.582
0.2421	333.15	78.988	1.603
0.3885	333.15	81.178	1.647
0.4981	333.15	83.251	1.69
0.6148	333.15	85.071	1.728
0.7153	333.15	86.432	1.756
0.8637	333.15	87.405	1.777
1	333.15	82.888	1.687

System: 2-(N,N-dimethylamino)ethanol + water; phases: Liquid, Gas
Property: Vapor or sublimation pressure, kPa (Liquid); method: Closed cell (Static) method
Mole fraction of 2-(N,N-dimethylamino)ethanol	Temperature, K	Vapor or sublimation pressure, kPa	uncertainty
0	273.15	0.58	0.016
0.1251	273.15	0.508	0.014
0.2472	273.15	0.428	0.012
0.365	273.15	0.361	0.01
0.4984	273.15	0.301	0.009
0.6229	273.15	0.277	0.008
0.7463	273.15	0.219	0.007
0.8693	273.15	0.185	0.006
1	273.15	0.142	0.005
0	283.15	1.183	0.03
0.1251	283.15	1.039	0.027
0.2472	283.15	0.9042	0.0235
0.365	283.15	0.7655	0.02
0.4984	283.15	0.6431	0.017
0.6229	283.15	0.5762	0.0154
0.7463	283.15	0.4768	0.013
0.8693	283.15	0.4006	0.0111
1	283.15	0.2979	0.0086
0	293.15	2.277	0.05
0.1251	293.15	2.013	0.045
0.2472	293.15	1.795	0.041
0.365	293.15	1.529	0.036
0.4984	293.15	1.294	0.033
0.6229	293.15	1.139	0.029
0.7463	293.15	0.975	0.0252
0.8693	293.15	0.8131	0.0213
1	293.15	0.59	0.0157
0	303.15	4.166	0.088
0.1251	303.15	3.716	0.079
0.2472	303.15	3.378	0.072
0.365	303.15	2.897	0.063
0.4984	303.15	2.471	0.054
0.6229	303.15	2.147	0.048
0.7463	303.15	1.883	0.043
0.8693	303.15	1.56	0.037
1	303.15	1.11	0.029
0	313.15	7.284	0.151
0.1251	313.15	6.567	0.136
0.2472	313.15	6.06	0.126
0.365	313.15	5.239	0.11
0.4984	313.15	4.501	0.095
0.6229	313.15	3.879	0.082
0.7463	313.15	3.458	0.074
0.8693	313.15	2.847	0.062
1	313.15	1.993	0.045
0	323.15	12.235	0.251
0.1251	323.15	11.164	0.229
0.2472	323.15	10.418	0.214
0.365	323.15	9.085	0.188
0.4984	323.15	7.859	0.163
0.6229	323.15	6.745	0.14
0.7463	323.15	6.073	0.127
0.8693	323.15	4.971	0.105
1	323.15	3.435	0.073
0	333.15	19.821	0.404
0.1251	333.15	18.325	0.374
0.2472	333.15	17.24	0.353
0.365	333.15	15.175	0.311
0.4984	333.15	13.213	0.271
0.6229	333.15	11.329	0.233
0.7463	333.15	10.246	0.211
0.8693	333.15	8.341	0.173
1	333.15	5.705	0.119
0	343.15	31.086	0.633
0.1251	343.15	29.139	0.594
0.2472	343.15	27.571	0.562
0.365	343.15	24.503	0.5
0.4984	343.15	21.47	0.439
0.6229	343.15	18.439	0.378
0.7463	343.15	16.675	0.342
0.8693	343.15	13.507	0.279
1	343.15	9.165	0.189
0	353.15	47.344	0.962
0.1251	353.15	45.018	0.915
0.2472	353.15	42.755	0.87
0.365	353.15	38.372	0.782
0.4984	353.15	33.827	0.69
0.6229	353.15	29.161	0.596
0.7463	353.15	26.276	0.538
0.8693	353.15	21.182	0.436
1	353.15	14.285	0.293
0	363.15	70.218	1.424
0.1251	363.15	67.756	1.374
0.2472	363.15	64.477	1.309
0.365	363.15	58.446	1.188
0.4984	363.15	51.824	1.054
0.6229	363.15	44.922	0.915
0.7463	363.15	40.212	0.82
0.8693	363.15	32.272	0.662
1	363.15	21.664	0.443
