Measured thermophysical data. Equilibrium solubility, solvent effect and preferential solvation of chlorhexidine in aqueous co-solvent solutions of (methanol, ethanol, N,N-dimethylformamide and 1,4-dioxane)
Source: J. Chem. Thermodyn., 2019, 10.1016/j.jct.2018.09.008
Compound 1: Chlorhexidine, C22H30Cl2N10, InChI=1S/C22H30Cl2N10/c23-15-5-9-17(10-6-15)31-21(27)33-19(25)29-13-3-1-2-4-14-30-20(26)34-22(28)32-18-11-7-16(24)8-12-18/h5-12H,1-4,13-14H2,(H5,25,27,29,31,33)(H5,26,28,30,32,34), purity 97.5%
Compound 2: methanol, CH4O, InChI=1S/CH4O/c1-2/h2H,1H3, purity 99.5%
Compound 3: ethanol, C2H6O, InChI=1S/C2H6O/c1-2-3/h3H,2H2,1H3, purity 99.4%
Compound 4: dimethylformamide, C3H7NO, InChI=1S/C3H7NO/c1-4(2)3-5/h3H,1-2H3, purity 99.4%
Compound 5: 1,4-dioxane, C4H8O2, InChI=1S/C4H8O2/c1-2-6-4-3-5-1/h1-4H2, purity 99.5%
Compound 6: water, H2O, InChI=1S/H2O/h1H2

System: Chlorhexidine + methanol + water; phases: Liquid, Crystal
Fixed: Pressure, kPa = 101.1
Property: Mole fraction of Chlorhexidine (Liquid); method: Chromatography
Solvent: Mass fraction of methanol	Temperature, K	Mole fraction of Chlorhexidine	uncertainty
0	283.15	1.452e-06	9.9e-08
0	288.15	2.029e-06	1.38e-07
0	293.15	2.787e-06	1.9e-07
0	298.15	3.838e-06	2.61e-07
0	303.15	5.212e-06	3.55e-07
0	308.15	7.061e-06	4.81e-07
0	313.15	9.32e-06	6.34e-07
0	318.15	1.232e-05	8.4e-07
0	323.15	1.617e-05	1.1e-06
0.1	283.15	1.518e-05	1.03e-06
0.1	288.15	1.943e-05	1.32e-06
0.1	293.15	2.791e-05	1.9e-06
0.1	298.15	3.318e-05	2.26e-06
0.1	303.15	4.646e-05	3.16e-06
0.1	308.15	5.676e-05	3.86e-06
0.1	313.15	7.449e-05	5.07e-06
0.1	318.15	9.432e-05	6.42e-06
0.1	323.15	0.0001181	8.1e-06
0.2	283.15	5.719e-05	3.89e-06
0.2	288.15	7.595e-05	5.17e-06
0.2	293.15	8.877e-05	6.04e-06
0.2	298.15	0.0001235	8.4e-06
0.2	303.15	0.0001472	1e-05
0.2	308.15	0.0001929	1.31e-05
0.2	313.15	0.0002295	1.56e-05
0.2	318.15	0.0002912	1.98e-05
0.2	323.15	0.0003525	2.4e-05
0.3	283.15	0.0001123	7.6e-06
0.3	288.15	0.0001439	9.8e-06
0.3	293.15	0.0001756	1.2e-05
0.3	298.15	0.0002264	1.54e-05
0.3	303.15	0.0002681	1.82e-05
0.3	308.15	0.000332	2.26e-05
0.3	313.15	0.0004021	2.74e-05
0.3	318.15	0.0004891	3.33e-05
0.3	323.15	0.0005946	4.05e-05
0.4	283.15	0.0001543	1.05e-05
0.4	288.15	0.0001842	1.25e-05
0.4	293.15	0.0002342	1.59e-05
0.4	298.15	0.0002888	1.97e-05
0.4	303.15	0.0003457	2.35e-05
0.4	308.15	0.000435	2.96e-05
0.4	313.15	0.0005033	3.42e-05
0.4	318.15	0.0006208	4.22e-05
0.4	323.15	0.0007336	4.99e-05
0.5	283.15	0.0001848	1.26e-05
0.5	288.15	0.0002297	1.56e-05
0.5	293.15	0.0002765	1.88e-05
0.5	298.15	0.0003273	2.23e-05
0.5	303.15	0.0004088	2.78e-05
0.5	308.15	0.0004729	3.22e-05
0.5	313.15	0.0005787	3.94e-05
0.5	318.15	0.0006623	4.51e-05
0.5	323.15	0.0008083	5.5e-05
0.6	283.15	0.0002261	1.54e-05
0.6	288.15	0.0002634	1.79e-05
0.6	293.15	0.0003184	2.17e-05
0.6	298.15	0.0003873	2.64e-05
0.6	303.15	0.0004519	3.08e-05
0.6	308.15	0.0005499	3.74e-05
0.6	313.15	0.0006263	4.26e-05
0.6	318.15	0.0007591	5.17e-05
0.6	323.15	0.0008827	6.01e-05
0.7	283.15	0.00029	1.97e-05
0.7	288.15	0.0003463	2.36e-05
0.7	293.15	0.0004	2.72e-05
0.7	298.15	0.0004872	3.32e-05
0.7	303.15	0.0005714	3.89e-05
0.7	308.15	0.0006652	4.53e-05
0.7	313.15	0.0007616	5.18e-05
0.7	318.15	0.0009085	6.18e-05
0.7	323.15	0.001038	7.1e-05
0.8	283.15	0.0004006	2.73e-05
0.8	288.15	0.0004721	3.21e-05
0.8	293.15	0.0005596	3.81e-05
0.8	298.15	0.0006336	4.31e-05
0.8	303.15	0.0007472	5.08e-05
0.8	308.15	0.000876	5.96e-05
0.8	313.15	0.0009764	6.64e-05
0.8	318.15	0.001141	7.8e-05
0.8	323.15	0.001299	8.8e-05
0.9	283.15	0.0005689	3.87e-05
0.9	288.15	0.000658	4.48e-05
0.9	293.15	0.0007307	4.97e-05
0.9	298.15	0.000855	5.82e-05
0.9	303.15	0.0009551	6.5e-05
0.9	308.15	0.001106	7.5e-05
0.9	313.15	0.001232	8.4e-05
0.9	318.15	0.001426	9.7e-05
0.9	323.15	0.001602	0.000109
1	283.15	0.0006561	4.46e-05
1	288.15	0.0007512	5.11e-05
1	293.15	0.0008463	5.76e-05
1	298.15	0.0009669	6.58e-05
1	303.15	0.001082	7.4e-05
1	308.15	0.001227	8.3e-05
1	313.15	0.001368	9.3e-05
1	318.15	0.00154	0.000105
1	323.15	0.001729	0.000118

System: Chlorhexidine + ethanol + water; phases: Liquid, Crystal
Fixed: Pressure, kPa = 101.1
Property: Mole fraction of Chlorhexidine (Liquid); method: Chromatography
Solvent: Mass fraction of ethanol	Temperature, K	Mole fraction of Chlorhexidine	uncertainty
0	283.15	1.452e-06	9.9e-08
0	288.15	2.029e-06	1.38e-07
0	293.15	2.787e-06	1.9e-07
0	298.15	3.838e-06	2.61e-07
0	303.15	5.212e-06	3.55e-07
0	308.15	7.061e-06	4.81e-07
0	313.15	9.32e-06	6.34e-07
0	318.15	1.232e-05	8.4e-07
0	323.15	1.617e-05	1.1e-06
0.1	283.15	9.19e-06	6.25e-07
0.1	288.15	1.234e-05	8.4e-07
0.1	293.15	1.628e-05	1.11e-06
0.1	298.15	2.155e-05	1.47e-06
0.1	303.15	2.822e-05	1.92e-06
0.1	308.15	3.684e-05	2.51e-06
0.1	313.15	4.701e-05	3.2e-06
0.1	318.15	6.008e-05	4.09e-06
0.1	323.15	7.633e-05	5.2e-06
0.2	283.15	2.675e-05	1.82e-06
0.2	288.15	3.494e-05	2.38e-06
0.2	293.15	4.489e-05	3.06e-06
0.2	298.15	5.782e-05	3.94e-06
0.2	303.15	7.387e-05	5.03e-06
0.2	308.15	9.405e-05	6.4e-06
0.2	313.15	0.0001174	8e-06
0.2	318.15	0.0001466	1e-05
0.2	323.15	0.0001823	1.24e-05
0.3	283.15	4.796e-05	3.26e-06
0.3	288.15	6.153e-05	4.19e-06
0.3	293.15	8.128e-05	5.53e-06
0.3	298.15	9.415e-05	6.41e-06
0.3	303.15	0.0001269	8.6e-06
0.3	308.15	0.0001502	1.02e-05
0.3	313.15	0.000193	1.31e-05
0.3	318.15	0.0002289	1.56e-05
0.3	323.15	0.0002905	1.98e-05
0.4	283.15	7.139e-05	4.86e-06
0.4	288.15	7.981e-05	5.43e-06
0.4	293.15	0.0001095	7.5e-06
0.4	298.15	0.000126	8.6e-06
0.4	303.15	0.0001665	1.13e-05
0.4	308.15	0.0001951	1.33e-05
0.4	313.15	0.0002473	1.68e-05
0.4	318.15	0.0002901	1.97e-05
0.4	323.15	0.0003612	2.46e-05
0.5	283.15	8.789e-05	5.98e-06
0.5	288.15	0.0001023	7e-06
0.5	293.15	0.0001355	9.2e-06
0.5	298.15	0.0001562	1.06e-05
0.5	303.15	0.0002016	1.37e-05
0.5	308.15	0.0002376	1.62e-05
0.5	313.15	0.0002933	2e-05
0.5	318.15	0.0003422	2.33e-05
0.5	323.15	0.0004197	2.86e-05
0.6	283.15	0.0001146	7.8e-06
0.6	288.15	0.0001357	9.2e-06
0.6	293.15	0.0001722	1.17e-05
0.6	298.15	0.0001974	1.34e-05
0.6	303.15	0.00025	1.7e-05
0.6	308.15	0.0002898	1.97e-05
0.6	313.15	0.0003556	2.42e-05
0.6	318.15	0.0004115	2.8e-05
0.6	323.15	0.0004982	3.39e-05
0.7	283.15	0.0001601	1.09e-05
0.7	288.15	0.0001865	1.27e-05
0.7	293.15	0.0002331	1.59e-05
0.7	298.15	0.0002669	1.82e-05
0.7	303.15	0.0003301	2.25e-05
0.7	308.15	0.0003803	2.59e-05
0.7	313.15	0.0004583	3.12e-05
0.7	318.15	0.0005267	3.58e-05
0.7	323.15	0.0006271	4.27e-05
0.8	283.15	0.0002329	1.58e-05
0.8	288.15	0.0002757	1.88e-05
0.8	293.15	0.0003299	2.24e-05
0.8	298.15	0.0003804	2.59e-05
0.8	303.15	0.0004578	3.12e-05
0.8	308.15	0.0005221	3.55e-05
0.8	313.15	0.0006163	4.19e-05
0.8	318.15	0.0007159	4.87e-05
0.8	323.15	0.0008179	5.57e-05
0.9	283.15	0.0003344	2.28e-05
0.9	288.15	0.0003878	2.64e-05
0.9	293.15	0.0004621	3.14e-05
0.9	298.15	0.0005193	3.53e-05
0.9	303.15	0.0006185	4.21e-05
0.9	308.15	0.0006979	4.75e-05
0.9	313.15	0.0008153	5.55e-05
0.9	318.15	0.0009182	6.25e-05
0.9	323.15	0.001059	7.2e-05
1	283.15	0.0004048	2.75e-05
1	288.15	0.0004715	3.21e-05
1	293.15	0.0005386	3.66e-05
1	298.15	0.0006133	4.17e-05
1	303.15	0.0007064	4.81e-05
1	308.15	0.0008033	5.47e-05
1	313.15	0.0009139	6.22e-05
1	318.15	0.001034	7e-05
1	323.15	0.001169	8e-05

System: Chlorhexidine + dimethylformamide + water; phases: Liquid, Crystal
Fixed: Pressure, kPa = 101.1
Property: Mole fraction of Chlorhexidine (Liquid); method: Chromatography
Solvent: Mass fraction of dimethylformamide	Temperature, K	Mole fraction of Chlorhexidine	uncertainty
0	283.15	1.452e-06	9.9e-08
0	288.15	2.029e-06	1.38e-07
0	293.15	2.787e-06	1.9e-07
0	298.15	3.838e-06	2.61e-07
0	303.15	5.212e-06	3.55e-07
0	308.15	7.061e-06	4.81e-07
0	313.15	9.32e-06	6.34e-07
0	318.15	1.232e-05	8.4e-07
0	323.15	1.617e-05	1.1e-06
0.1	283.15	4.624e-05	3.18e-06
0.1	288.15	6.075e-05	4.14e-06
0.1	293.15	7.867e-05	5.36e-06
0.1	298.15	0.0001023	7e-06
0.1	303.15	0.0001314	8.9e-06
0.1	308.15	0.0001687	1.15e-05
0.1	313.15	0.0002113	1.44e-05
0.1	318.15	0.0002659	1.81e-05
0.1	323.15	0.0003323	2.29e-05
0.2	283.15	0.0003022	2.06e-05
0.2	288.15	0.0003741	2.55e-05
0.2	293.15	0.0004905	3.34e-05
0.2	298.15	0.0005963	4.06e-05
0.2	303.15	0.0007542	5.13e-05
0.2	308.15	0.00095	6.47e-05
0.2	313.15	0.001144	7.8e-05
0.2	318.15	0.001412	9.6e-05
0.2	323.15	0.001714	0.000117
0.3	283.15	0.0007251	4.94e-05
0.3	288.15	0.0008774	5.97e-05
0.3	293.15	0.001145	7.8e-05
0.3	298.15	0.001386	9.4e-05
0.3	303.15	0.001727	0.000118
0.3	308.15	0.00206	0.00014
0.3	313.15	0.002534	0.000172
0.3	318.15	0.003001	0.000204
0.3	323.15	0.003693	0.000251
0.4	283.15	0.001017	6.9e-05
0.4	288.15	0.001234	8.4e-05
0.4	293.15	0.001573	0.000107
0.4	298.15	0.001876	0.000128
0.4	303.15	0.002345	0.00016
0.4	308.15	0.002803	0.000191
0.4	313.15	0.003401	0.000231
0.4	318.15	0.004031	0.000274
0.4	323.15	0.004869	0.000331
0.5	283.15	0.001216	8.3e-05
0.5	288.15	0.001424	9.7e-05
0.5	293.15	0.001816	0.000124
0.5	298.15	0.002151	0.000146
0.5	303.15	0.002683	0.000183
0.5	308.15	0.003157	0.000215
0.5	313.15	0.003899	0.000265
0.5	318.15	0.004528	0.000308
0.5	323.15	0.005534	0.000377
0.6	283.15	0.001467	0.0001
0.6	288.15	0.00172	0.000117
0.6	293.15	0.002173	0.000148
0.6	298.15	0.002539	0.000173
0.6	303.15	0.003223	0.000219
0.6	308.15	0.003785	0.000258
0.6	313.15	0.004591	0.000312
0.6	318.15	0.005336	0.000363
0.6	323.15	0.006475	0.000441
0.7	283.15	0.002076	0.000141
0.7	288.15	0.002418	0.000165
0.7	293.15	0.003031	0.000206
0.7	298.15	0.003567	0.000243
0.7	303.15	0.004434	0.000302
0.7	308.15	0.005176	0.000352
0.7	313.15	0.006138	0.000418
0.7	318.15	0.007256	0.000494
0.7	323.15	0.008698	0.000592
0.8	283.15	0.003342	0.000227
0.8	288.15	0.003932	0.000268
0.8	293.15	0.004825	0.000328
0.8	298.15	0.005694	0.000387
0.8	303.15	0.006886	0.000469
0.8	308.15	0.008016	0.000545
0.8	313.15	0.009888	0.000673
0.8	318.15	0.01122	0.00076
0.8	323.15	0.01342	0.00091
0.9	283.15	0.005705	0.000388
0.9	288.15	0.006665	0.000454
0.9	293.15	0.008202	0.000558
0.9	298.15	0.009329	0.000635
0.9	303.15	0.01155	0.00079
0.9	308.15	0.01308	0.00089
0.9	313.15	0.01568	0.00107
0.9	318.15	0.01779	0.00121
0.9	323.15	0.02104	0.00143
1	283.15	0.007949	0.000541
1	288.15	0.009413	0.000641
1	293.15	0.01109	0.00075
1	298.15	0.0131	0.00089
1	303.15	0.01529	0.00104
1	308.15	0.01799	0.00122
1	313.15	0.02063	0.0014
1	318.15	0.02406	0.00164
1	323.15	0.02768	0.00188

System: Chlorhexidine + 1,4-dioxane + water; phases: Liquid, Crystal
Fixed: Pressure, kPa = 101.1
Property: Mole fraction of Chlorhexidine (Liquid); method: Chromatography
Solvent: Mass fraction of 1,4-dioxane	Temperature, K	Mole fraction of Chlorhexidine	uncertainty
0	288.15	2.029e-06	1.38e-07
0	293.15	2.787e-06	1.9e-07
0	298.15	3.838e-06	2.61e-07
0	303.15	5.212e-06	3.55e-07
0	308.15	7.061e-06	4.81e-07
0	313.15	9.32e-06	6.34e-07
0	318.15	1.232e-05	8.4e-07
0	323.15	1.617e-05	1.1e-06
0.1	288.15	8.91e-06	6.06e-07
0.1	293.15	1.187e-05	8.1e-07
0.1	298.15	1.58e-05	1.08e-06
0.1	303.15	2.081e-05	1.42e-06
0.1	308.15	2.736e-05	1.86e-06
0.1	313.15	3.51e-05	2.39e-06
0.1	318.15	4.51e-05	3.07e-06
0.1	323.15	5.768e-05	3.93e-06
0.2	288.15	2.061e-05	1.4e-06
0.2	293.15	3.088e-05	2.1e-06
0.2	298.15	3.615e-05	2.46e-06
0.2	303.15	5.05e-05	3.44e-06
0.2	308.15	6.103e-05	4.15e-06
0.2	313.15	8.065e-05	5.49e-06
0.2	318.15	9.763e-05	6.64e-06
0.2	323.15	0.0001265	8.6e-06
0.3	288.15	3.923e-05	2.67e-06
0.3	293.15	5.048e-05	3.44e-06
0.3	298.15	6.417e-05	4.37e-06
0.3	303.15	8.155e-05	5.55e-06
0.3	308.15	0.0001049	7.1e-06
0.3	313.15	0.0001278	8.7e-06
0.3	318.15	0.0001586	1.08e-05
0.3	323.15	0.0001966	1.34e-05
0.4	288.15	5.691e-05	3.87e-06
0.4	293.15	7.455e-05	5.07e-06
0.4	298.15	8.824e-05	6.01e-06
0.4	303.15	0.0001158	7.9e-06
0.4	308.15	0.0001395	9.5e-06
0.4	313.15	0.0001758	1.2e-05
0.4	318.15	0.0002106	1.43e-05
0.4	323.15	0.0002634	1.79e-05
0.5	288.15	8.037e-05	5.47e-06
0.5	293.15	9.38e-05	6.38e-06
0.5	298.15	0.0001164	7.9e-06
0.5	303.15	0.0001515	1.03e-05
0.5	308.15	0.0001798	1.22e-05
0.5	313.15	0.0002249	1.53e-05
0.5	318.15	0.0002622	1.78e-05
0.5	323.15	0.000333	2.27e-05
0.6	288.15	0.0001025	7e-06
0.6	293.15	0.0001358	9.2e-06
0.6	298.15	0.0001569	1.07e-05
0.6	303.15	0.0002003	1.36e-05
0.6	308.15	0.0002362	1.61e-05
0.6	313.15	0.0002943	2e-05
0.6	318.15	0.0003368	2.29e-05
0.6	323.15	0.0004177	2.84e-05
0.7	288.15	0.0001514	1.03e-05
0.7	293.15	0.0001947	1.32e-05
0.7	298.15	0.000224	1.52e-05
0.7	303.15	0.0002796	1.9e-05
0.7	308.15	0.0003276	2.23e-05
0.7	313.15	0.000396	2.69e-05
0.7	318.15	0.0004607	3.14e-05
0.7	323.15	0.0005607	3.82e-05
0.8	288.15	0.0002354	1.6e-05
0.8	293.15	0.0002968	2.02e-05
0.8	298.15	0.0003378	2.3e-05
0.8	303.15	0.0004091	2.78e-05
0.8	308.15	0.0004848	3.3e-05
0.8	313.15	0.0005711	3.89e-05
0.8	318.15	0.000657	4.47e-05
0.8	323.15	0.0007891	5.37e-05
0.9	288.15	0.0003855	2.62e-05
0.9	293.15	0.0004562	3.1e-05
0.9	298.15	0.000521	3.55e-05
0.9	303.15	0.0006245	4.25e-05
0.9	308.15	0.0007134	4.85e-05
0.9	313.15	0.0008445	5.75e-05
0.9	318.15	0.0009567	6.51e-05
0.9	323.15	0.001125	7.7e-05
1	288.15	0.0005686	3.87e-05
1	293.15	0.0006736	4.58e-05
1	298.15	0.0007638	5.2e-05
1	303.15	0.0008876	6.04e-05
1	308.15	0.001023	7e-05
1	313.15	0.001165	7.9e-05
1	318.15	0.001326	9e-05
1	323.15	0.001527	0.000104

System: Chlorhexidine + water; phases: Liquid, Crystal
Fixed: Pressure, kPa = 101.1
Property: Mole fraction of Chlorhexidine (Liquid); method: Chromatography
Temperature, K	Mole fraction of Chlorhexidine	uncertainty
283.15	1.452e-06	9.9e-08
288.15	2.029e-06	1.38e-07
293.15	2.787e-06	1.9e-07
298.15	3.838e-06	2.61e-07
303.15	5.212e-06	3.55e-07
308.15	7.061e-06	4.81e-07
313.15	9.32e-06	6.34e-07
318.15	1.232e-05	8.4e-07
323.15	1.617e-05	1.1e-06

System: Chlorhexidine + methanol; phases: Liquid, Crystal
Fixed: Pressure, kPa = 101.1
Property: Mole fraction of Chlorhexidine (Liquid); method: Chromatography
Temperature, K	Mole fraction of Chlorhexidine	uncertainty
283.15	0.0006561	4.46e-05
288.15	0.0007512	5.11e-05
293.15	0.0008463	5.76e-05
298.15	0.0009669	6.58e-05
303.15	0.001082	7.4e-05
308.15	0.001227	8.3e-05
313.15	0.001368	9.3e-05
318.15	0.00154	0.000105
323.15	0.001729	0.000118

System: Chlorhexidine + ethanol; phases: Liquid, Crystal
Fixed: Pressure, kPa = 101.1
Property: Mole fraction of Chlorhexidine (Liquid); method: Chromatography
Temperature, K	Mole fraction of Chlorhexidine	uncertainty
283.15	0.0004048	2.75e-05
288.15	0.0004715	3.21e-05
293.15	0.0005386	3.66e-05
298.15	0.0006133	4.17e-05
303.15	0.0007064	4.81e-05
308.15	0.0008033	5.47e-05
313.15	0.0009139	6.22e-05
318.15	0.001034	7e-05
323.15	0.001169	8e-05

System: Chlorhexidine + dimethylformamide; phases: Liquid, Crystal
Fixed: Pressure, kPa = 101.1
Property: Mole fraction of Chlorhexidine (Liquid); method: Chromatography
Temperature, K	Mole fraction of Chlorhexidine	uncertainty
283.15	0.007949	0.000541
288.15	0.009413	0.000641
293.15	0.01109	0.00075
298.15	0.0131	0.00089
303.15	0.01529	0.00104
308.15	0.01799	0.00122
313.15	0.02063	0.0014
318.15	0.02406	0.00164
323.15	0.02768	0.00188

System: Chlorhexidine + 1,4-dioxane; phases: Liquid, Crystal
Fixed: Pressure, kPa = 101.1
Property: Mole fraction of Chlorhexidine (Liquid); method: Chromatography
Temperature, K	Mole fraction of Chlorhexidine	uncertainty
288.15	0.0005686	3.87e-05
293.15	0.0006736	4.58e-05
298.15	0.0007638	5.2e-05
303.15	0.0008876	6.04e-05
308.15	0.001023	7e-05
313.15	0.001165	7.9e-05
318.15	0.001326	9e-05
323.15	0.001527	0.000104
