Measured thermophysical data. Experimental redetermination of the gas-phase enthalpy of formation  of ethyl 2-thiophenecarboxylate
Source: J. Chem. Thermodyn., 2013, 10.1016/j.jct.2012.09.007
Compound 1: sulfuric acid, H2O4S, InChI=1S/H2O4S/c1-5(2,3)4/h(H2,1,2,3,4)
Compound 2: carbon dioxide, CO2, InChI=1S/CO2/c2-1-3
Compound 3: water, H2O, InChI=1S/H2O/h1H2
Compound 4: oxygen, O2, InChI=1S/O2/c1-2
Compound 5: sulfur, S, InChI=1S/S
Compound 6: hydrogen, H2, InChI=1S/H2/h1H
Compound 7: graphite, C
Compound 8: ethyl 2-thiophenecarboxylate, C7H8O2S, InChI=1S/C7H8O2S/c1-2-9-7(8)6-4-3-5-10-6/h3-5H,2H2,1H3, purity 98%

System: ethyl 2-thiophenecarboxylate; phases: Liquid, Gas
Property: Molar enthalpy of vaporization or sublimation, kJ/mol (Liquid); method: Static calorimetry
Temperature, K	Molar enthalpy of vaporization or sublimation, kJ/mol	uncertainty
298.15	61.2	2.8

Reaction: -1 ethyl 2-thiophenecarboxylate + 1 sulfuric acid + 7 carbon dioxide + 3 water + -9.5 oxygen
Property: Specific internal energy of reaction at constant volume, J/g
-26598.6

Reaction: 1 ethyl 2-thiophenecarboxylate + -1 sulfur + -4 hydrogen + -7 graphite + -1 oxygen
Property: Molar enthalpy of reaction, kJ/mol
-338.9
