Measured thermophysical data. Excess molar volumes and viscosity behaviour of binary mixtures of aniline/or N,N-dimethylaniline with imidazolium ionic liquids having triflate or bistriflamide anion
Source: J. Chem. Thermodyn., 2017, 10.1016/j.jct.2017.02.007
Compound 1: aniline, C6H7N, InChI=1S/C6H7N/c7-6-4-2-1-3-5-6/h1-5H,7H2, purity 99.5%
Compound 2: N,N-dimethylaniline, C8H11N, InChI=1S/C8H11N/c1-9(2)8-6-4-3-5-7-8/h3-7H,1-2H3, purity 99%
Compound 3: 1-butyl-3-methylimidazolium trifluoromethanesulfonate, C9H15F3N2O3S, InChI=1S/C8H15N2.CHF3O3S/c1-3-4-5-10-7-6-9(2)8-10;2-1(3,4)8(5,6)7/h6-8H,3-5H2,1-2H3;(H,5,6,7)/q+1;/p-1, purity 99%
Compound 4: 1-butyl-3-methylimidazolium bis(trifluoromethylsulfonyl)imide, C10H15F6N3O4S2, InChI=1S/C8H15N2.C2F6NO4S2/c1-3-4-5-10-7-6-9(2)8-10;3-1(4,5)14(10,11)9-15(12,13)2(6,7)8/h6-8H,3-5H2,1-2H3;/q+1;-1, purity 99%

System: aniline; phases: Liquid
Fixed: Pressure, kPa = 100
Property: Mass density, kg/m3 (Liquid); method: Vibrating tube method
Temperature, K	Mass density, kg/m3	uncertainty
288.15	1026.1	2
293.15	1021.7	2
298.15	1017.4	2
303.15	1013	2
308.15	1008.7	2
313.15	1004.4	2
318.15	1000	2
323.15	995.7	2
328.15	991.4	2
333.15	987	2

System: aniline; phases: Liquid
Fixed: Pressure, kPa = 100
Property: Viscosity, Pa*s (Liquid); method: Concentric cylinders viscometry
Temperature, K	Viscosity, Pa*s	uncertainty
288.15	0.005324	0.000235
293.15	0.004407	0.000195
298.15	0.003737	0.000165
303.15	0.003197	0.000141
308.15	0.00278	0.000123
313.15	0.002445	0.000108
318.15	0.002159	9.6e-05
323.15	0.001927	8.5e-05
328.15	0.001738	7.7e-05
333.15	0.001577	7e-05

System: N,N-dimethylaniline; phases: Liquid
Fixed: Pressure, kPa = 100
Property: Mass density, kg/m3 (Liquid); method: Vibrating tube method
Temperature, K	Mass density, kg/m3	uncertainty
288.15	960.6	2
293.15	956.5	2
298.15	952.3	2
303.15	948.2	2
308.15	944.1	2
313.15	940	2
318.15	935.9	2
323.15	931.8	2
328.15	927.7	2
333.15	923.5	2

System: N,N-dimethylaniline; phases: Liquid
Fixed: Pressure, kPa = 100
Property: Viscosity, Pa*s (Liquid); method: Concentric cylinders viscometry
Temperature, K	Viscosity, Pa*s	uncertainty
288.15	0.001536	6.8e-05
293.15	0.001415	6.3e-05
298.15	0.001302	5.8e-05
303.15	0.001206	5.4e-05
308.15	0.001123	5e-05
313.15	0.001056	4.7e-05
318.15	0.0009805	4.39e-05
323.15	0.0009197	4.12e-05
328.15	0.0008649	3.88e-05
333.15	0.0008192	3.67e-05

System: 1-butyl-3-methylimidazolium trifluoromethanesulfonate; phases: Liquid
Fixed: Pressure, kPa = 100
Property: Mass density, kg/m3 (Liquid); method: Vibrating tube method
Temperature, K	Mass density, kg/m3	uncertainty
288.15	1307	2
293.15	1303.1	2
298.15	1299.1	2
303.15	1295.1	2
308.15	1291.1	2
313.15	1287.2	2
318.15	1283.3	2
323.15	1279.4	2
328.15	1275.5	2
333.15	1271.7	2

System: 1-butyl-3-methylimidazolium trifluoromethanesulfonate; phases: Liquid
Fixed: Pressure, kPa = 100
Property: Viscosity, Pa*s (Liquid); method: Concentric cylinders viscometry
Temperature, K	Viscosity, Pa*s	uncertainty
288.15	0.1327	0.0061
293.15	0.102	0.0046
298.15	0.0801	0.00358
303.15	0.06402	0.00284
308.15	0.05218	0.00231
313.15	0.04276	0.0019
318.15	0.03566	0.00158
323.15	0.03001	0.00133
328.15	0.0255	0.00113
333.15	0.022	0.00098

System: 1-butyl-3-methylimidazolium bis(trifluoromethylsulfonyl)imide; phases: Liquid
Fixed: Pressure, kPa = 100
Property: Mass density, kg/m3 (Liquid); method: Vibrating tube method
Temperature, K	Mass density, kg/m3	uncertainty
288.15	1444.6	2.1
293.15	1439.8	2.1
298.15	1435	2.1
303.15	1430.2	2.1
308.15	1425.4	2.1
313.15	1420.6	2.1
318.15	1415.9	2.1
323.15	1411.2	2.1
328.15	1406.5	2.1
333.15	1401.9	2.1

System: 1-butyl-3-methylimidazolium bis(trifluoromethylsulfonyl)imide; phases: Liquid
Fixed: Pressure, kPa = 100
Property: Viscosity, Pa*s (Liquid); method: Concentric cylinders viscometry
Temperature, K	Viscosity, Pa*s	uncertainty
288.15	0.07837	0.0035
293.15	0.06147	0.00273
298.15	0.04911	0.00218
303.15	0.03995	0.00177
308.15	0.03322	0.00147
313.15	0.02768	0.00123
318.15	0.02353	0.00104
323.15	0.02013	0.00089
328.15	0.01739	0.00077
333.15	0.0152	0.00067

System: aniline + 1-butyl-3-methylimidazolium trifluoromethanesulfonate; phases: Liquid
Fixed: Pressure, kPa = 100
Property: Mass density, kg/m3 (Liquid); method: Vibrating tube method
Temperature, K	Mole fraction of aniline	Mass density, kg/m3	uncertainty
288.15	0	1307	2
288.15	0.1	1295.2	2
288.15	0.1995	1283.2	2
288.15	0.8999	1092.4	2
288.15	1	1026.1	2
293.15	0	1303.1	2
293.15	0.1	1291.2	2
293.15	0.1995	1279.2	2
293.15	0.3002	1265.2	2
293.15	0.8999	1088.3	2
293.15	1	1021.7	2
298.15	0	1299.1	2
298.15	0.1	1287.2	2
298.15	0.1995	1275.3	2
298.15	0.3002	1261.3	2
298.15	0.8999	1084.2	2
298.15	1	1017.4	2
303.15	0	1295.1	2
303.15	0.1	1283.2	2
303.15	0.1995	1271.3	2
303.15	0.3002	1257.4	2
303.15	0.8999	1080.1	2
303.15	1	1013	2
308.15	0	1291.1	2
308.15	0.1	1279.3	2
308.15	0.1995	1267.4	2
308.15	0.3002	1253.4	2
308.15	0.8999	1076	2
308.15	1	1008.7	2
313.15	0	1287.2	2
313.15	0.1	1275.4	2
313.15	0.1995	1263.5	2
313.15	0.3002	1249.5	2
313.15	0.8999	1072	2
313.15	1	1004.4	2
318.15	0	1283.3	2
318.15	0.1	1271.4	2
318.15	0.1995	1259.6	2
318.15	0.3002	1245.6	2
318.15	0.3996	1229.2	2
318.15	0.8999	1067.9	2
318.15	1	1000	2
323.15	0	1279.4	2
323.15	0.1	1267.5	2
323.15	0.1995	1255.7	2
323.15	0.3002	1241.8	2
323.15	0.3996	1225.3	2
323.15	0.8999	1063.8	2
323.15	1	995.7	2
328.15	0	1275.5	2
328.15	0.1	1263.7	2
328.15	0.1995	1251.8	2
328.15	0.3002	1237.9	2
328.15	0.3996	1221.4	2
328.15	0.8999	1059.7	2
328.15	1	991.4	2
333.15	0	1271.7	2
333.15	0.1	1259.8	2
333.15	0.1995	1248	2
333.15	0.3002	1234	2
333.15	0.3996	1217.6	2
333.15	0.8999	1055.6	2
333.15	1	987	2

System: aniline + 1-butyl-3-methylimidazolium trifluoromethanesulfonate; phases: Liquid
Fixed: Pressure, kPa = 100
Property: Viscosity, Pa*s (Liquid); method: Concentric cylinders viscometry
Temperature, K	Mole fraction of aniline	Viscosity, Pa*s	uncertainty
288.15	0	0.1327	0.0061
288.15	0.1	0.1103	0.005
288.15	0.1995	0.09093	0.00408
288.15	0.8999	0.008953	0.000396
288.15	1	0.005324	0.000235
293.15	0	0.102	0.0046
293.15	0.1	0.08532	0.00382
293.15	0.1995	0.07062	0.00314
293.15	0.3002	0.05765	0.00255
293.15	0.8999	0.007312	0.000323
293.15	1	0.004407	0.000195
298.15	0	0.0801	0.00358
298.15	0.1	0.06755	0.003
298.15	0.1995	0.05611	0.00248
298.15	0.3002	0.0459	0.00203
298.15	0.8999	0.006184	0.000274
298.15	1	0.003737	0.000165
303.15	0	0.06402	0.00284
303.15	0.1	0.05455	0.00242
303.15	0.1995	0.0455	0.00202
303.15	0.3002	0.03727	0.00165
303.15	0.8999	0.005256	0.000233
303.15	1	0.003197	0.000141
308.15	0	0.05218	0.00231
308.15	0.1	0.04441	0.00197
308.15	0.1995	0.03716	0.00165
308.15	0.3002	0.03061	0.00136
308.15	0.8999	0.004538	0.000201
308.15	1	0.00278	0.000123
313.15	0	0.04276	0.0019
313.15	0.1	0.03656	0.00162
313.15	0.1995	0.0307	0.00136
313.15	0.3002	0.02537	0.00112
313.15	0.8999	0.003929	0.000174
313.15	1	0.002445	0.000108
318.15	0	0.03566	0.00158
318.15	0.1	0.0306	0.00136
318.15	0.1995	0.02583	0.00115
318.15	0.3002	0.02147	0.00095
318.15	0.3996	0.01767	0.00078
318.15	0.8999	0.003503	0.000155
318.15	1	0.002159	9.6e-05
323.15	0	0.03001	0.00133
323.15	0.1	0.02585	0.00115
323.15	0.1995	0.0219	0.00097
323.15	0.3002	0.01828	0.00081
323.15	0.3996	0.01511	0.00067
323.15	0.8999	0.003117	0.000138
323.15	1	0.001927	8.5e-05
328.15	0	0.0255	0.00113
328.15	0.1	0.02217	0.00098
328.15	0.1995	0.01882	0.00083
328.15	0.3002	0.01571	0.0007
328.15	0.3996	0.01302	0.00058
328.15	0.8999	0.002755	0.000122
328.15	1	0.001738	7.7e-05
333.15	0	0.022	0.00098
333.15	0.1	0.01907	0.00085
333.15	0.1995	0.01623	0.00072
333.15	0.3002	0.01363	0.0006
333.15	0.3996	0.01138	0.0005
333.15	0.8999	0.002474	0.00011
333.15	1	0.001577	7e-05

System: aniline + 1-butyl-3-methylimidazolium bis(trifluoromethylsulfonyl)imide; phases: Liquid
Fixed: Pressure, kPa = 100
Property: Mass density, kg/m3 (Liquid); method: Vibrating tube method
Temperature, K	Mole fraction of aniline	Mass density, kg/m3	uncertainty
288.15	0	1444.6	2.1
288.15	0.1	1429.3	2.1
288.15	0.2	1414.3	2.1
288.15	0.3029	1396.8	2
288.15	0.4013	1376.4	2
288.15	0.5024	1350	2
288.15	0.6002	1317.5	2
288.15	0.7	1274.6	2
288.15	0.8002	1218.2	2
288.15	0.9	1140.4	2
288.15	1	1026.1	2
293.15	0	1439.8	2.1
293.15	0.1	1424.4	2.1
293.15	0.2	1409.5	2.1
293.15	0.3029	1392.1	2
293.15	0.4013	1371.7	2
293.15	0.5024	1345.4	2
293.15	0.6002	1312.9	2
293.15	0.7	1270.1	2
293.15	0.8002	1213.8	2
293.15	0.9	1136.1	2
293.15	1	1021.7	2
298.15	0	1435	2.1
298.15	0.1	1419.6	2.1
298.15	0.2	1404.6	2.1
298.15	0.3029	1387.3	2
298.15	0.4013	1367	2
298.15	0.5024	1340.7	2
298.15	0.6002	1308.3	2
298.15	0.7	1265.5	2
298.15	0.8002	1209.4	2
298.15	0.9	1131.7	2
298.15	1	1017.4	2
303.15	0	1430.2	2.1
303.15	0.1	1414.7	2.1
303.15	0.2	1399.8	2.1
303.15	0.3029	1382.6	2
303.15	0.4013	1362.4	2
303.15	0.5024	1336.1	2
303.15	0.6002	1303.7	2
303.15	0.7	1261	2
303.15	0.8002	1205	2
303.15	0.9	1127.4	2
303.15	1	1013	2
308.15	0	1425.4	2.1
308.15	0.1	1409.8	2.1
308.15	0.2	1395	2.1
308.15	0.3029	1377.9	2
308.15	0.4013	1357.7	2
308.15	0.5024	1331.5	2
308.15	0.6002	1299.1	2
308.15	0.7	1256.5	2
308.15	0.8002	1200.6	2
308.15	0.9	1123	2
308.15	1	1008.7	2
313.15	0	1420.6	2.1
313.15	0.1	1405	2.1
313.15	0.2	1390.2	2.1
313.15	0.3029	1373.2	2
313.15	0.4013	1353.1	2
313.15	0.5024	1326.9	2
313.15	0.6002	1294.6	2
313.15	0.7	1252	2
313.15	0.8002	1196.2	2
313.15	0.9	1118.7	2
313.15	1	1004.4	2
318.15	0	1415.9	2.1
318.15	0.1	1400.2	2.1
318.15	0.2	1385.5	2.1
318.15	0.3029	1368.5	2
318.15	0.4013	1348.5	2
318.15	0.5024	1322.4	2
318.15	0.6002	1290.1	2
318.15	0.7	1247.6	2
318.15	0.8002	1191.8	2
318.15	0.9	1114.4	2
318.15	1	1000	2
323.15	0	1411.2	2.1
323.15	0.1	1395.5	2.1
323.15	0.2	1380.8	2
323.15	0.3029	1363.9	2
323.15	0.4013	1343.9	2
323.15	0.5024	1317.8	2
323.15	0.6002	1285.6	2
323.15	0.7	1243.1	2
323.15	0.8002	1187.4	2
323.15	0.9	1110.1	2
323.15	1	995.7	2
328.15	0	1406.5	2.1
328.15	0.1	1390.8	2.1
328.15	0.2	1376.2	2
328.15	0.3029	1359.3	2
328.15	0.4013	1339.4	2
328.15	0.5024	1313.3	2
328.15	0.6002	1281.1	2
328.15	0.7	1238.7	2
328.15	0.8002	1183.1	2
328.15	0.9	1105.8	2
328.15	1	991.4	2
333.15	0	1401.9	2.1
333.15	0.1	1386.2	2.1
333.15	0.2	1371.6	2
333.15	0.3029	1354.7	2
333.15	0.4013	1334.8	2
333.15	0.5024	1308.8	2
333.15	0.6002	1276.6	2
333.15	0.7	1234.2	2
333.15	0.8002	1178.7	2
333.15	0.9	1101.5	2
333.15	1	987	2

System: aniline + 1-butyl-3-methylimidazolium bis(trifluoromethylsulfonyl)imide; phases: Liquid
Fixed: Pressure, kPa = 100
Property: Viscosity, Pa*s (Liquid); method: Concentric cylinders viscometry
Temperature, K	Mole fraction of aniline	Viscosity, Pa*s	uncertainty
288.15	0	0.07837	0.0035
288.15	0.1	0.06629	0.00294
288.15	0.2	0.05587	0.00247
288.15	0.3029	0.04648	0.00206
288.15	0.4013	0.03849	0.0017
288.15	0.5024	0.03109	0.00138
288.15	0.6002	0.02456	0.00109
288.15	0.7	0.01838	0.00081
288.15	0.8002	0.01346	0.0006
288.15	0.9	0.008743	0.000387
288.15	1	0.005324	0.000235
293.15	0	0.06147	0.00273
293.15	0.1	0.05216	0.00231
293.15	0.2	0.0441	0.00196
293.15	0.3029	0.03682	0.00163
293.15	0.4013	0.0306	0.00136
293.15	0.5024	0.02483	0.0011
293.15	0.6002	0.01971	0.00087
293.15	0.7	0.01486	0.00066
293.15	0.8002	0.01093	0.00048
293.15	0.9	0.00719	0.000318
293.15	1	0.004407	0.000195
298.15	0	0.04911	0.00218
298.15	0.1	0.04213	0.00187
298.15	0.2	0.0359	0.00159
298.15	0.3029	0.03013	0.00134
298.15	0.4013	0.02512	0.00111
298.15	0.5024	0.02042	0.0009
298.15	0.6002	0.01628	0.00072
298.15	0.7	0.0124	0.00055
298.15	0.8002	0.009223	0.000408
298.15	0.9	0.0061	0.00027
298.15	1	0.003737	0.000165
303.15	0	0.03995	0.00177
303.15	0.1	0.03428	0.00152
303.15	0.2	0.02928	0.0013
303.15	0.3029	0.0247	0.00109
303.15	0.4013	0.02073	0.00092
303.15	0.5024	0.01698	0.00075
303.15	0.6002	0.01364	0.0006
303.15	0.7	0.01047	0.00046
303.15	0.8002	0.007802	0.000345
303.15	0.9	0.005198	0.00023
303.15	1	0.003197	0.000141
308.15	0	0.03322	0.00147
308.15	0.1	0.02863	0.00127
308.15	0.2	0.02455	0.00109
308.15	0.3029	0.02077	0.00092
308.15	0.4013	0.01748	0.00077
308.15	0.5024	0.01438	0.00064
308.15	0.6002	0.01158	0.00051
308.15	0.7	0.008919	0.000395
308.15	0.8002	0.006706	0.000297
308.15	0.9	0.004497	0.000199
308.15	1	0.00278	0.000123
313.15	0	0.02768	0.00123
313.15	0.1	0.02394	0.00106
313.15	0.2	0.02059	0.00091
313.15	0.3029	0.01748	0.00077
313.15	0.4013	0.01476	0.00065
313.15	0.5024	0.01217	0.00054
313.15	0.6002	0.009843	0.000436
313.15	0.7	0.007607	0.000337
313.15	0.8002	0.00577	0.000255
313.15	0.9	0.003898	0.000173
313.15	1	0.002445	0.000108
318.15	0	0.02353	0.00104
318.15	0.1	0.02044	0.00091
318.15	0.2	0.01766	0.00078
318.15	0.3029	0.01505	0.00067
318.15	0.4013	0.01276	0.00057
318.15	0.5024	0.01057	0.00047
318.15	0.6002	0.008586	0.00038
318.15	0.7	0.006677	0.000295
318.15	0.8002	0.005093	0.000225
318.15	0.9	0.003461	0.000153
318.15	1	0.002159	9.6e-05
323.15	0	0.02013	0.00089
323.15	0.1	0.01756	0.00078
323.15	0.2	0.01522	0.00067
323.15	0.3029	0.01302	0.00058
323.15	0.4013	0.01106	0.00049
323.15	0.5024	0.009193	0.000407
323.15	0.6002	0.007501	0.000332
323.15	0.7	0.005864	0.00026
323.15	0.8002	0.004498	0.000199
323.15	0.9	0.003076	0.000136
323.15	1	0.001927	8.5e-05
328.15	0	0.01739	0.00077
328.15	0.1	0.01522	0.00068
328.15	0.2	0.01324	0.00059
328.15	0.3029	0.01136	0.0005
328.15	0.4013	0.009679	0.000429
328.15	0.5024	0.008076	0.000358
328.15	0.6002	0.006609	0.000293
328.15	0.7	0.005194	0.00023
328.15	0.8002	0.004002	0.000177
328.15	0.9	0.002755	0.000122
328.15	1	0.001738	7.7e-05
333.15	0	0.0152	0.00067
333.15	0.1	0.01334	0.00059
333.15	0.2	0.01163	0.00052
333.15	0.3029	0.01001	0.00044
333.15	0.4013	0.008557	0.000379
333.15	0.5024	0.007159	0.000317
333.15	0.6002	0.005882	0.00026
333.15	0.7	0.004639	0.000205
333.15	0.8002	0.003587	0.000159
333.15	0.9	0.002477	0.00011
333.15	1	0.001577	7e-05

System: N,N-dimethylaniline + 1-butyl-3-methylimidazolium trifluoromethanesulfonate; phases: Liquid
Fixed: Pressure, kPa = 100
Property: Mass density, kg/m3 (Liquid); method: Vibrating tube method
Temperature, K	Mole fraction of N,N-dimethylaniline	Mass density, kg/m3	uncertainty
288.15	0	1307	2
288.15	0.1	1278.8	2
288.15	0.2	1259.8	2
288.15	0.2998	1240.8	2
288.15	0.397	1218.3	2
288.15	0.5045	1188	2
288.15	0.5996	1156.5	2
288.15	0.6997	1118.5	2
288.15	0.7994	1074.4	2
288.15	0.8945	1024.8	2
288.15	1	960.6	2
293.15	0	1303.1	2
293.15	0.1	1274.7	2
293.15	0.2	1255.8	2
293.15	0.2998	1236.8	2
293.15	0.397	1214.3	2
293.15	0.5045	1183.9	2
293.15	0.5996	1152.5	2
293.15	0.6997	1114.4	2
293.15	0.7994	1070.3	2
293.15	0.8945	1020.7	2
293.15	1	956.5	2
298.15	0	1299.1	2
298.15	0.1	1270.6	2
298.15	0.2	1251.8	2
298.15	0.2998	1232.7	2
298.15	0.397	1210.2	2
298.15	0.5045	1179.9	2
298.15	0.5996	1148.4	2
298.15	0.6997	1110.4	2
298.15	0.7994	1066.2	2
298.15	0.8945	1016.6	2
298.15	1	952.3	2
303.15	0	1295.1	2
303.15	0.02	1287.9	2
303.15	0.0501	1281.1	2
303.15	0.1	1266.6	2
303.15	0.1402	1259.8	2
303.15	0.18	1253.5	2
303.15	0.2	1247.7	2
303.15	0.2998	1228.7	2
303.15	0.397	1206.3	2
303.15	0.5045	1175.9	2
303.15	0.5996	1144.4	2
303.15	0.6997	1106.3	2
303.15	0.7994	1062.1	2
303.15	0.8945	1012.4	2
303.15	1	948.2	2
308.15	0	1291.1	2
308.15	0.1	1262.5	2
308.15	0.2	1243.7	2
308.15	0.2998	1224.8	2
308.15	0.397	1202.3	2
308.15	0.5045	1171.9	2
308.15	0.5996	1140.3	2
308.15	0.6997	1102.2	2
308.15	0.7994	1058	2
308.15	0.8945	1008.3	2
308.15	1	944.1	2
313.15	0	1287.2	2
313.15	0.1	1258.5	2
313.15	0.2	1239.7	2
313.15	0.2998	1220.8	2
313.15	0.397	1198.3	2
313.15	0.5045	1167.9	2
313.15	0.5996	1136.3	2
313.15	0.6997	1098.2	2
313.15	0.7994	1053.9	2
313.15	0.8945	1004.2	2
313.15	1	940	2
318.15	0	1283.3	2
318.15	0.1	1254.5	2
318.15	0.2	1235.7	2
318.15	0.2998	1216.9	2
318.15	0.397	1194.4	2
318.15	0.5045	1163.9	2
318.15	0.5996	1132.3	2
318.15	0.6997	1094.2	2
318.15	0.7994	1049.9	2
318.15	0.8945	1000.1	2
318.15	1	935.9	2
323.15	0	1279.4	2
323.15	0.1	1250.4	2
323.15	0.2	1231.8	2
323.15	0.2998	1212.9	2
323.15	0.397	1190.5	2
323.15	0.5045	1160	2
323.15	0.5996	1128.3	2
323.15	0.6997	1090.1	2
323.15	0.7994	1045.8	2
323.15	0.8945	996	2
323.15	1	931.8	2
328.15	0	1275.5	2
328.15	0.1	1246.4	2
328.15	0.2	1227.8	2
328.15	0.2998	1209	2
328.15	0.397	1186.6	2
328.15	0.5045	1156	2
328.15	0.5996	1124.4	2
328.15	0.6997	1086.1	2
328.15	0.7994	1041.8	2
328.15	0.8945	991.9	2
328.15	1	927.7	2
333.15	0	1271.7	2
333.15	0.1	1242.4	2
333.15	0.2	1223.8	2
333.15	0.2998	1205.1	2
333.15	0.397	1182.7	2
333.15	0.5045	1152.1	2
333.15	0.5996	1120.4	2
333.15	0.6997	1082.1	2
333.15	0.7994	1037.7	2
333.15	0.8945	987.8	2
333.15	1	923.5	2

System: N,N-dimethylaniline + 1-butyl-3-methylimidazolium trifluoromethanesulfonate; phases: Liquid
Fixed: Pressure, kPa = 100
Property: Viscosity, Pa*s (Liquid); method: Concentric cylinders viscometry
Temperature, K	Mole fraction of N,N-dimethylaniline	Viscosity, Pa*s	uncertainty
288.15	0	0.1327	0.0061
288.15	0.1	0.09756	0.0044
288.15	0.2	0.07276	0.00324
288.15	0.2998	0.05403	0.00239
288.15	0.397	0.03934	0.00175
288.15	0.5045	0.02608	0.00116
288.15	0.5996	0.01687	0.00075
288.15	0.6997	0.01005	0.00045
288.15	0.7994	0.006003	0.000267
288.15	0.8945	0.003271	0.000146
288.15	1	0.001536	6.8e-05
293.15	0	0.102	0.0046
293.15	0.1	0.07574	0.00338
293.15	0.2	0.05709	0.00253
293.15	0.2998	0.04284	0.0019
293.15	0.397	0.03152	0.0014
293.15	0.5045	0.02117	0.00094
293.15	0.5996	0.01393	0.00062
293.15	0.6997	0.008502	0.000378
293.15	0.7994	0.005207	0.000231
293.15	0.8945	0.002905	0.000129
293.15	1	0.001415	6.3e-05
298.15	0	0.0801	0.00358
298.15	0.1	0.05989	0.00266
298.15	0.2	0.04566	0.00203
298.15	0.2998	0.03475	0.00154
298.15	0.397	0.02594	0.00115
298.15	0.5045	0.01776	0.00079
298.15	0.5996	0.01192	0.00053
298.15	0.6997	0.007419	0.00033
298.15	0.7994	0.004615	0.000205
298.15	0.8945	0.002627	0.000117
298.15	1	0.001302	5.8e-05
303.15	0	0.06402	0.00284
303.15	0.1	0.04811	0.00214
303.15	0.2	0.037	0.00164
303.15	0.2998	0.02844	0.00126
303.15	0.397	0.02169	0.00096
303.15	0.5045	0.01477	0.00066
303.15	0.5996	0.01023	0.00045
303.15	0.6997	0.006471	0.000287
303.15	0.7994	0.004102	0.000182
303.15	0.8945	0.002374	0.000106
303.15	1	0.001206	5.4e-05
308.15	0	0.05218	0.00231
308.15	0.1	0.03948	0.00175
308.15	0.2	0.03069	0.00136
308.15	0.2998	0.0239	0.00106
308.15	0.397	0.01827	0.00081
308.15	0.5045	0.01285	0.00057
308.15	0.5996	0.008866	0.000394
308.15	0.6997	0.005713	0.000254
308.15	0.7994	0.003681	0.000164
308.15	0.8945	0.002164	9.6e-05
308.15	1	0.001123	5e-05
313.15	0	0.04276	0.0019
313.15	0.1	0.03219	0.00143
313.15	0.2	0.0252	0.00112
313.15	0.2998	0.01991	0.00088
313.15	0.397	0.01546	0.00069
313.15	0.5045	0.01104	0.00049
313.15	0.5996	0.007692	0.000342
313.15	0.6997	0.005032	0.000224
313.15	0.7994	0.003302	0.000147
313.15	0.8945	0.001988	8.9e-05
313.15	1	0.001056	4.7e-05
318.15	0	0.03566	0.00158
318.15	0.1	0.02714	0.0012
318.15	0.2	0.02146	0.00095
318.15	0.2998	0.0171	0.00076
318.15	0.397	0.0134	0.00059
318.15	0.5045	0.009681	0.00043
318.15	0.5996	0.00684	0.000304
318.15	0.6997	0.00454	0.000202
318.15	0.7994	0.003011	0.000134
318.15	0.8945	0.001828	8.1e-05
318.15	1	0.0009805	4.39e-05
323.15	0	0.03001	0.00133
323.15	0.1	0.02296	0.00102
323.15	0.2	0.0183	0.00081
323.15	0.2998	0.01472	0.00065
323.15	0.397	0.01163	0.00052
323.15	0.5045	0.0085	0.000377
323.15	0.5996	0.006076	0.00027
323.15	0.6997	0.004088	0.000182
323.15	0.7994	0.002747	0.000122
323.15	0.8945	0.001692	7.5e-05
323.15	1	0.0009197	4.12e-05
328.15	0	0.0255	0.00113
328.15	0.1	0.0196	0.00087
328.15	0.2	0.01574	0.0007
328.15	0.2998	0.01277	0.00057
328.15	0.397	0.01019	0.00045
328.15	0.5045	0.007522	0.000334
328.15	0.5996	0.005435	0.000241
328.15	0.6997	0.003702	0.000165
328.15	0.7994	0.002517	0.000112
328.15	0.8945	0.001569	7e-05
328.15	1	0.0008649	3.88e-05
333.15	0	0.022	0.00098
333.15	0.1	0.01691	0.00075
333.15	0.2	0.01364	0.00061
333.15	0.2998	0.01116	0.0005
333.15	0.397	0.008982	0.000399
333.15	0.5045	0.006706	0.000298
333.15	0.5996	0.004896	0.000218
333.15	0.6997	0.003365	0.00015
333.15	0.7994	0.002311	0.000103
333.15	0.8945	0.001463	6.5e-05
333.15	1	0.0008192	3.67e-05

System: N,N-dimethylaniline + 1-butyl-3-methylimidazolium bis(trifluoromethylsulfonyl)imide; phases: Liquid
Fixed: Pressure, kPa = 100
Property: Mass density, kg/m3 (Liquid); method: Vibrating tube method
Temperature, K	Mole fraction of N,N-dimethylaniline	Mass density, kg/m3	uncertainty
288.15	0	1444.6	2.1
288.15	0.1	1423.7	2.1
288.15	0.2	1399.7	2.1
288.15	0.2993	1372.6	2.1
288.15	0.4001	1341.1	2.1
288.15	0.5005	1304.8	2.1
288.15	0.5993	1261.9	2
288.15	0.7	1209.3	2
288.15	0.7996	1145	2
288.15	0.8997	1064	2
288.15	1	960.6	2
293.15	0	1439.8	2.1
293.15	0.1	1418.9	2.1
293.15	0.2	1394.9	2.1
293.15	0.2993	1367.9	2.1
293.15	0.4001	1336.4	2.1
293.15	0.5005	1300.1	2.1
293.15	0.5993	1257.3	2
293.15	0.7	1204.8	2
293.15	0.7996	1140.6	2
293.15	0.8997	1059.7	2
293.15	1	956.5	2
298.15	0	1435	2.1
298.15	0.1	1414.1	2.1
298.15	0.2	1390.2	2.1
298.15	0.2993	1363.1	2.1
298.15	0.4001	1331.7	2.1
298.15	0.5005	1295.5	2
298.15	0.5993	1252.7	2
298.15	0.7	1200.3	2
298.15	0.7996	1136.2	2
298.15	0.8997	1055.4	2
298.15	1	952.3	2
303.15	0	1430.2	2.1
303.15	0.1	1409.4	2.1
303.15	0.2	1385.5	2.1
303.15	0.2993	1358.5	2.1
303.15	0.4001	1327.1	2.1
303.15	0.5005	1290.9	2
303.15	0.5993	1248.2	2
303.15	0.7	1195.8	2
303.15	0.7996	1131.8	2
303.15	0.8997	1051.2	2
303.15	1	948.2	2
308.15	0	1425.4	2.1
308.15	0.1	1404.6	2.1
308.15	0.2	1380.8	2.1
308.15	0.2993	1353.8	2.1
308.15	0.4001	1322.4	2.1
308.15	0.5005	1286.3	2
308.15	0.5993	1243.7	2
308.15	0.7	1191.3	2
308.15	0.7996	1127.4	2
308.15	0.8997	1046.9	2
308.15	1	944.1	2
313.15	0	1420.6	2.1
313.15	0.1	1399.9	2.1
313.15	0.2	1376.1	2.1
313.15	0.2993	1349.2	2.1
313.15	0.4001	1317.8	2.1
313.15	0.5005	1281.8	2
313.15	0.5993	1239.1	2
313.15	0.7	1186.9	2
313.15	0.7996	1123.1	2
313.15	0.8997	1042.7	2
313.15	1	940	2
318.15	0	1415.9	2.1
318.15	0.1	1395.1	2.1
318.15	0.2	1371.4	2.1
318.15	0.2993	1344.5	2.1
318.15	0.4001	1313.3	2.1
318.15	0.5005	1277.2	2
318.15	0.5993	1234.6	2
318.15	0.7	1182.4	2
318.15	0.7996	1118.7	2
318.15	0.8997	1038.4	2
318.15	1	935.9	2
323.15	0	1411.2	2.1
323.15	0.1	1390.5	2.1
323.15	0.2	1366.8	2.1
323.15	0.2993	1339.9	2.1
323.15	0.4001	1308.7	2.1
323.15	0.5005	1272.7	2
323.15	0.5993	1230.2	2
323.15	0.7	1178	2
323.15	0.7996	1114.4	2
323.15	0.8997	1034.2	2
323.15	1	931.8	2
328.15	0	1406.5	2.1
328.15	0.1	1385.8	2.1
328.15	0.2	1362.1	2.1
328.15	0.2993	1335.4	2.1
328.15	0.4001	1304.2	2.1
328.15	0.5005	1268.2	2
328.15	0.5993	1225.7	2
328.15	0.7	1173.6	2
328.15	0.7996	1110	2
328.15	0.8997	1029.9	2
328.15	1	927.7	2
333.15	0	1401.9	2.1
333.15	0.1	1381.2	2.1
333.15	0.2	1357.5	2.1
333.15	0.2993	1330.8	2.1
333.15	0.4001	1299.6	2
333.15	0.5005	1263.7	2
333.15	0.5993	1221.3	2
333.15	0.7	1169.2	2
333.15	0.7996	1105.7	2
333.15	0.8997	1025.7	2
333.15	1	923.5	2

System: N,N-dimethylaniline + 1-butyl-3-methylimidazolium bis(trifluoromethylsulfonyl)imide; phases: Liquid
Fixed: Pressure, kPa = 100
Property: Viscosity, Pa*s (Liquid); method: Concentric cylinders viscometry
Temperature, K	Mole fraction of N,N-dimethylaniline	Viscosity, Pa*s	uncertainty
288.15	0	0.07837	0.0035
288.15	0.1	0.06515	0.00289
288.15	0.2	0.05222	0.00231
288.15	0.2993	0.0405	0.0018
288.15	0.4001	0.03039	0.00135
288.15	0.5005	0.02172	0.00096
288.15	0.5993	0.01508	0.00067
288.15	0.7	0.009887	0.000439
288.15	0.7996	0.006069	0.00027
288.15	0.8997	0.003332	0.000148
288.15	1	0.001536	6.8e-05
293.15	0	0.06147	0.00273
293.15	0.1	0.05131	0.00227
293.15	0.2	0.04141	0.00184
293.15	0.2993	0.03239	0.00144
293.15	0.4001	0.02457	0.00109
293.15	0.5005	0.01779	0.00079
293.15	0.5993	0.01254	0.00056
293.15	0.7	0.008365	0.000372
293.15	0.7996	0.005249	0.000233
293.15	0.8997	0.002957	0.000132
293.15	1	0.001415	6.3e-05
298.15	0	0.04911	0.00218
298.15	0.1	0.04127	0.00183
298.15	0.2	0.03364	0.00149
298.15	0.2993	0.02664	0.00118
298.15	0.4001	0.02044	0.00091
298.15	0.5005	0.01506	0.00067
298.15	0.5993	0.01077	0.00048
298.15	0.7	0.007288	0.000324
298.15	0.7996	0.004642	0.000206
298.15	0.8997	0.002673	0.000119
298.15	1	0.001302	5.8e-05
303.15	0	0.03995	0.00177
303.15	0.1	0.03405	0.00151
303.15	0.2	0.02797	0.00124
303.15	0.2993	0.02226	0.00099
303.15	0.4001	0.01716	0.00076
303.15	0.5005	0.01273	0.00057
303.15	0.5993	0.009207	0.000409
303.15	0.7	0.006338	0.000282
303.15	0.7996	0.00412	0.000183
303.15	0.8997	0.002418	0.000108
303.15	1	0.001206	5.4e-05
308.15	0	0.03322	0.00147
308.15	0.1	0.02831	0.00126
308.15	0.2	0.02337	0.00104
308.15	0.2993	0.01875	0.00083
308.15	0.4001	0.01466	0.00065
308.15	0.5005	0.01096	0.00049
308.15	0.5993	0.008018	0.000356
308.15	0.7	0.005585	0.000248
308.15	0.7996	0.003684	0.000164
308.15	0.8997	0.002205	9.8e-05
308.15	1	0.001123	5e-05
313.15	0	0.02768	0.00123
313.15	0.1	0.0236	0.00105
313.15	0.2	0.01961	0.00087
313.15	0.2993	0.01588	0.00071
313.15	0.4001	0.0125	0.00056
313.15	0.5005	0.009438	0.000419
313.15	0.5993	0.007005	0.000311
313.15	0.7	0.004931	0.000219
313.15	0.7996	0.003299	0.000147
313.15	0.8997	0.002028	9e-05
313.15	1	0.001056	4.7e-05
318.15	0	0.02353	0.00104
318.15	0.1	0.02023	0.0009
318.15	0.2	0.0169	0.00075
318.15	0.2993	0.01377	0.00061
318.15	0.4001	0.01093	0.00049
318.15	0.5005	0.008335	0.00037
318.15	0.5993	0.006213	0.000276
318.15	0.7	0.004422	0.000197
318.15	0.7996	0.003005	0.000134
318.15	0.8997	0.001858	8.3e-05
318.15	1	0.0009805	4.39e-05
323.15	0	0.02013	0.00089
323.15	0.1	0.01737	0.00077
323.15	0.2	0.0146	0.00065
323.15	0.2993	0.01197	0.00053
323.15	0.4001	0.009561	0.000425
323.15	0.5005	0.007359	0.000327
323.15	0.5993	0.005535	0.000246
323.15	0.7	0.00398	0.000177
323.15	0.7996	0.002739	0.000122
323.15	0.8997	0.001716	7.6e-05
323.15	1	0.0009197	4.12e-05
328.15	0	0.01739	0.00077
328.15	0.1	0.01509	0.00067
328.15	0.2	0.01274	0.00057
328.15	0.2993	0.01049	0.00047
328.15	0.4001	0.008443	0.000375
328.15	0.5005	0.006548	0.000291
328.15	0.5993	0.004976	0.000221
328.15	0.7	0.003621	0.000161
328.15	0.7996	0.002504	0.000111
328.15	0.8997	0.001591	7.1e-05
328.15	1	0.0008649	3.88e-05
333.15	0	0.0152	0.00067
333.15	0.1	0.01319	0.00059
333.15	0.2	0.01119	0.0005
333.15	0.2993	0.009288	0.000412
333.15	0.4001	0.007516	0.000334
333.15	0.5005	0.005864	0.00026
333.15	0.5993	0.004494	0.0002
333.15	0.7	0.003288	0.000146
333.15	0.7996	0.002299	0.000102
333.15	0.8997	0.001485	6.6e-05
333.15	1	0.0008192	3.67e-05
