Measured thermophysical data. Vapor pressures, osmotic and activity coefficients for (LiBr + acetonitrile) between the temperatures (298.15 and 343.15) K
Source: J. Chem. Thermodyn., 2004, 10.1016/j.jct.2004.03.007
Compound 1: lithium bromide, BrLi, InChI=1S/BrH.Li/h1H;/q;+1/p-1
Compound 2: acetonitrile, C2H3N, InChI=1S/C2H3N/c1-2-3/h1H3

System: acetonitrile + lithium bromide; phases: Liquid, Gas
Property: Vapor or sublimation pressure, kPa (Liquid); method: CCELL:UFactor:0.5
Temperature, K	Molality, mol/kg of lithium bromide	Vapor or sublimation pressure, kPa	uncertainty
298.15	0	11.825	0.026
298.15	0.0579	11.785	0.026
298.15	0.1126	11.756	0.026
298.15	0.1493	11.739	0.026
298.15	0.2632	11.686	0.026
298.15	0.3044	11.667	0.026
298.15	0.3865	11.629	0.026
298.15	0.4128	11.617	0.026
298.15	0.569	11.543	0.026
298.15	0.7324	11.476	0.026
298.15	0.7531	11.466	0.026
298.15	0.8298	11.436	0.026
303.15	0	14.798	0.031
303.15	0.0579	14.749	0.031
303.15	0.1126	14.717	0.031
303.15	0.1493	14.694	0.031
303.15	0.2632	14.628	0.03
303.15	0.3044	14.603	0.03
303.15	0.3865	14.557	0.03
303.15	0.4128	14.542	0.03
303.15	0.569	14.462	0.03
303.15	0.7324	14.376	0.03
303.15	0.7531	14.365	0.03
303.15	0.8298	14.322	0.03
308.15	0	18.391	0.036
308.15	0.0579	18.331	0.036
308.15	0.1126	18.291	0.036
308.15	0.1493	18.262	0.036
308.15	0.2632	18.183	0.036
308.15	0.3044	18.157	0.036
308.15	0.3865	18.101	0.036
308.15	0.4128	18.084	0.036
308.15	0.569	17.983	0.036
308.15	0.7324	17.87	0.036
308.15	0.7531	17.854	0.036
308.15	0.8298	17.799	0.035
313.15	0	22.689	0.043
313.15	0.0579	22.617	0.043
313.15	0.1126	22.568	0.043
313.15	0.1493	22.536	0.043
313.15	0.2632	22.437	0.043
313.15	0.3044	22.402	0.043
313.15	0.3865	22.331	0.042
313.15	0.4128	22.31	0.042
313.15	0.569	22.179	0.042
313.15	0.7324	22.047	0.042
313.15	0.7531	22.03	0.042
313.15	0.8298	21.966	0.042
318.15	0	27.758	0.051
318.15	0.0579	27.666	0.051
318.15	0.1126	27.613	0.051
318.15	0.1493	27.57	0.051
318.15	0.2632	27.454	0.05
318.15	0.3044	27.411	0.05
318.15	0.3865	27.323	0.05
318.15	0.4128	27.289	0.05
318.15	0.569	27.133	0.05
318.15	0.7324	26.979	0.05
318.15	0.7531	26.957	0.05
318.15	0.8298	26.878	0.05
323.15	0	33.768	0.06
323.15	0.0579	33.659	0.06
323.15	0.1126	33.588	0.06
323.15	0.1493	33.542	0.06
323.15	0.2632	33.4	0.06
323.15	0.3044	33.348	0.06
323.15	0.3865	33.246	0.059
323.15	0.4128	33.225	0.059
323.15	0.569	33.034	0.059
323.15	0.7324	32.821	0.059
323.15	0.7531	32.796	0.059
323.15	0.8298	32.698	0.059
328.15	0	40.782	0.071
328.15	0.0579	40.658	0.071
328.15	0.1126	40.587	0.071
328.15	0.1493	40.53	0.071
328.15	0.2632	40.356	0.07
328.15	0.3044	40.293	0.07
328.15	0.3865	40.168	0.07
328.15	0.4128	40.129	0.07
328.15	0.569	39.898	0.07
328.15	0.7324	39.642	0.069
328.15	0.7531	39.616	0.069
328.15	0.8298	39.506	0.069
333.15	0	48.965	0.084
333.15	0.0579	48.82	0.084
333.15	0.1126	48.729	0.083
333.15	0.1493	48.659	0.083
333.15	0.2632	48.456	0.083
333.15	0.3044	48.381	0.083
333.15	0.3865	48.237	0.083
333.15	0.4128	48.191	0.083
333.15	0.569	47.918	0.082
333.15	0.7324	47.632	0.082
333.15	0.7531	47.592	0.082
333.15	0.8298	47.456	0.082
338.15	0	58.481	0.099
338.15	0.0579	58.306	0.098
338.15	0.1126	58.201	0.098
338.15	0.1493	58.121	0.098
338.15	0.2632	57.891	0.098
338.15	0.3044	57.801	0.098
338.15	0.3865	57.621	0.097
338.15	0.4128	57.563	0.097
338.15	0.569	57.221	0.097
338.15	0.7324	56.889	0.096
338.15	0.7531	56.838	0.096
338.15	0.8298	56.658	0.096
343.15	0	69.42	0.115
343.15	0.0579	69.226	0.115
343.15	0.1126	69.081	0.115
343.15	0.1493	69.007	0.115
343.15	0.2632	68.736	0.114
343.15	0.3044	68.64	0.114
343.15	0.3865	68.432	0.114
343.15	0.4128	68.367	0.114
343.15	0.569	67.981	0.113
343.15	0.7324	67.578	0.113
343.15	0.7531	67.527	0.113
343.15	0.8298	67.337	0.113
