Measured thermophysical data. Solution thermodynamics of iron(III)-N,N'-ethylene-bis(salicylideneiminato)-chloride in binary mixtures of N,N-dimethylformamide and acetonitrile at T = (298.15, 303.15, 308.15 and 313.15) K
Source: J. Chem. Thermodyn., 2014, 10.1016/j.jct.2014.02.019
Compound 1: chloro(N,N'-ethylenebis(salicylideneaminato))iron, C16H14ClFeN2O2, InChI=1S/C16H16N2O2.ClH.Fe/c19-15-7-3-1-5-13(15)11-17-9-10-18-12-14-6-2-4-8-16(14)20;;/h1-8,11-12,19-20H,9-10H2;1H;/q;;+3/p-3/b17-11+,18-12+;;
Compound 2: acetonitrile, C2H3N, InChI=1S/C2H3N/c1-2-3/h1H3, purity 98.8%
Compound 3: dimethylformamide, C3H7NO, InChI=1S/C3H7NO/c1-4(2)3-5/h3H,1-2H3, purity 99.8%

System: acetonitrile; phases: Liquid
Fixed: Pressure, kPa = 101
Property: Mass density, kg/m3 (Liquid); method: Vibrating tube method
Temperature, K	Mass density, kg/m3	uncertainty
298.15	776.47	1.58
303.15	771.56	1.57
308.15	765.26	1.55
313.15	759.55	1.54

System: acetonitrile; phases: Liquid
Fixed: Pressure, kPa = 101
Property: Viscosity, Pa*s (Liquid); method: Capillary tube (Ostwald; Ubbelohde) method
Temperature, K	Viscosity, Pa*s	uncertainty
298.15	0.000342	1.07e-05
303.15	0.0003269	1.03e-05
308.15	0.0003092	9.7e-06
313.15	0.0002929	9.2e-06

System: dimethylformamide; phases: Liquid
Fixed: Pressure, kPa = 101
Property: Mass density, kg/m3 (Liquid); method: Vibrating tube method
Temperature, K	Mass density, kg/m3	uncertainty
298.15	944.65	1.89
303.15	940.05	1.88
308.15	935.71	1.87
313.15	929.91	1.86

System: dimethylformamide; phases: Liquid
Fixed: Pressure, kPa = 101
Property: Viscosity, Pa*s (Liquid); method: Capillary tube (Ostwald; Ubbelohde) method
Temperature, K	Viscosity, Pa*s	uncertainty
298.15	0.0007986	2.44e-05
303.15	0.000755	2.31e-05
308.15	0.0007069	2.16e-05
313.15	0.0006716	2.06e-05

System: dimethylformamide + acetonitrile; phases: Liquid
Fixed: Pressure, kPa = 101
Property: Mass density, kg/m3 (Liquid); method: Vibrating tube method
Temperature, K	Mass fraction of dimethylformamide	Mass density, kg/m3	uncertainty
298.15	0	776.47	1.58
303.15	0	771.56	1.57
308.15	0	765.26	1.55
313.15	0	759.55	1.54
298.15	0.25	816.75	1.65
303.15	0.25	811.82	1.64
308.15	0.25	806.58	1.63
313.15	0.25	801.83	1.62
298.15	0.5	856.92	1.72
303.15	0.5	852.67	1.71
308.15	0.5	847.38	1.7
313.15	0.5	842.57	1.69
298.15	0.75	900.14	1.8
303.15	0.75	895.46	1.79
308.15	0.75	890.88	1.79
313.15	0.75	886.23	1.78
298.15	1	944.65	1.89
303.15	1	940.05	1.88
308.15	1	935.71	1.87
313.15	1	929.91	1.86

System: dimethylformamide + acetonitrile; phases: Liquid
Fixed: Pressure, kPa = 101
Property: Viscosity, Pa*s (Liquid); method: Capillary tube (Ostwald; Ubbelohde) method
Temperature, K	Mass fraction of dimethylformamide	Viscosity, Pa*s	uncertainty
298.15	0	0.000342	1.07e-05
303.15	0	0.0003269	1.03e-05
308.15	0	0.0003092	9.7e-06
313.15	0	0.0002929	9.2e-06
298.15	0.25	0.0003959	1.23e-05
303.15	0.25	0.0003598	1.12e-05
308.15	0.25	0.0003417	1.07e-05
313.15	0.25	0.0003262	1.02e-05
298.15	0.5	0.0005214	1.61e-05
303.15	0.5	0.00046	1.42e-05
308.15	0.5	0.000434	1.34e-05
313.15	0.5	0.0004038	1.25e-05
298.15	0.75	0.0006465	1.98e-05
303.15	0.75	0.0006145	1.89e-05
308.15	0.75	0.0005816	1.79e-05
313.15	0.75	0.0005524	1.7e-05
298.15	1	0.0007986	2.44e-05
303.15	1	0.000755	2.31e-05
308.15	1	0.0007069	2.16e-05
313.15	1	0.0006716	2.06e-05

System: dimethylformamide + acetonitrile + chloro(N,N'-ethylenebis(salicylideneaminato))iron; phases: Liquid
Fixed: Pressure, kPa = 101
Property: Mass density, kg/m3 (Liquid); method: Vibrating tube method
Temperature, K	Solvent: Mass fraction of dimethylformamide	Molality, mol/kg of chloro(N,N'-ethylenebis(salicylideneaminato))iron	Mass density, kg/m3	uncertainty
298.15	0	0.0015	776.69	1.57
298.15	0	0.0026	776.86	1.57
298.15	0	0.0046	777.17	1.57
298.15	0	0.0067	777.5	1.57
298.15	0	0.0088	777.85	1.57
298.15	0	0.0103	778.1	1.57
303.15	0	0.0015	771.78	1.56
303.15	0	0.0026	771.95	1.56
303.15	0	0.0046	772.26	1.56
303.15	0	0.0067	772.59	1.56
303.15	0	0.0088	772.93	1.56
303.15	0	0.0103	773.18	1.56
308.15	0	0.0015	765.48	1.55
308.15	0	0.0026	765.65	1.55
308.15	0	0.0046	765.96	1.55
308.15	0	0.0067	766.29	1.55
308.15	0	0.0088	766.63	1.55
308.15	0	0.0103	766.87	1.55
313.15	0	0.0015	759.77	1.54
313.15	0	0.0026	759.94	1.54
313.15	0	0.0046	760.25	1.54
313.15	0	0.0067	760.58	1.54
313.15	0	0.0088	760.91	1.54
313.15	0	0.0103	761.16	1.54
298.15	0.25	0.0015	816.97	1.65
298.15	0.25	0.0024	817.11	1.65
298.15	0.25	0.0044	817.42	1.65
298.15	0.25	0.0064	817.74	1.65
298.15	0.25	0.0083	818.05	1.65
298.15	0.25	0.0098	818.31	1.65
303.15	0.25	0.0015	812.04	1.64
303.15	0.25	0.0024	812.18	1.64
303.15	0.25	0.0044	812.49	1.64
303.15	0.25	0.0064	812.81	1.64
303.15	0.25	0.0083	813.11	1.64
303.15	0.25	0.0098	813.37	1.64
308.15	0.25	0.0015	806.8	1.63
308.15	0.25	0.0024	806.94	1.63
308.15	0.25	0.0044	807.25	1.63
308.15	0.25	0.0064	807.56	1.63
308.15	0.25	0.0083	807.87	1.63
308.15	0.25	0.0098	808.12	1.63
313.15	0.25	0.0015	802.05	1.63
313.15	0.25	0.0024	802.19	1.62
313.15	0.25	0.0044	802.5	1.62
313.15	0.25	0.0064	802.81	1.62
313.15	0.25	0.0083	803.12	1.62
313.15	0.25	0.0098	803.36	1.62
298.15	0.5	0.0014	857.12	1.74
298.15	0.5	0.0023	857.26	1.73
298.15	0.5	0.0042	857.55	1.73
298.15	0.5	0.0061	857.85	1.73
298.15	0.5	0.0079	858.15	1.73
298.15	0.5	0.0093	858.39	1.73
303.15	0.5	0.0014	852.87	1.72
303.15	0.5	0.0023	853.01	1.72
303.15	0.5	0.0042	853.3	1.72
303.15	0.5	0.0061	853.6	1.72
303.15	0.5	0.0079	853.89	1.72
303.15	0.5	0.0093	854.13	1.72
308.15	0.5	0.0014	847.58	1.71
308.15	0.5	0.0023	847.72	1.71
308.15	0.5	0.0042	848.01	1.71
308.15	0.5	0.0061	848.31	1.71
308.15	0.5	0.0079	848.59	1.71
308.15	0.5	0.0093	848.84	1.71
313.15	0.5	0.0014	842.77	1.71
313.15	0.5	0.0023	842.91	1.7
313.15	0.5	0.0042	843.2	1.7
313.15	0.5	0.0061	843.49	1.7
313.15	0.5	0.0079	843.78	1.7
313.15	0.5	0.0093	844.02	1.7
298.15	0.75	0.0013	900.32	1.81
298.15	0.75	0.0022	900.45	1.81
298.15	0.75	0.004	900.72	1.81
298.15	0.75	0.0058	901	1.81
298.15	0.75	0.0076	901.29	1.81
298.15	0.75	0.0089	901.5	1.82
303.15	0.75	0.0013	895.64	1.8
303.15	0.75	0.0022	895.77	1.8
303.15	0.75	0.004	896.04	1.8
303.15	0.75	0.0058	896.32	1.8
303.15	0.75	0.0076	896.6	1.81
303.15	0.75	0.0089	896.81	1.81
308.15	0.75	0.0013	891.06	1.79
308.15	0.75	0.0022	891.19	1.79
308.15	0.75	0.004	891.46	1.8
308.15	0.75	0.0058	891.73	1.8
308.15	0.75	0.0076	892.01	1.8
308.15	0.75	0.0089	892.21	1.8
313.15	0.75	0.0013	886.41	1.79
313.15	0.75	0.0022	886.54	1.79
313.15	0.75	0.004	886.8	1.79
313.15	0.75	0.0058	887.07	1.79
313.15	0.75	0.0076	887.35	1.79
313.15	0.75	0.0089	887.55	1.79
298.15	1	0.0013	944.82	1.9
298.15	1	0.0021	944.93	1.9
298.15	1	0.0038	945.18	1.9
298.15	1	0.0055	945.44	1.9
298.15	1	0.0072	945.7	1.9
298.15	1	0.0085	945.92	1.9
303.15	1	0.0013	940.22	1.89
303.15	1	0.0021	940.33	1.89
303.15	1	0.0038	940.58	1.89
303.15	1	0.0055	940.84	1.89
303.15	1	0.0072	941.09	1.89
303.15	1	0.0085	941.3	1.89
308.15	1	0.0013	935.88	1.89
308.15	1	0.0021	935.99	1.88
308.15	1	0.0038	936.24	1.88
308.15	1	0.0055	936.49	1.88
308.15	1	0.0072	936.75	1.89
308.15	1	0.0085	936.95	1.89
313.15	1	0.0013	930.08	1.87
313.15	1	0.0021	930.19	1.87
313.15	1	0.0038	930.43	1.87
313.15	1	0.0055	930.68	1.87
313.15	1	0.0072	930.93	1.87
313.15	1	0.0085	931.13	1.87

System: dimethylformamide + acetonitrile + chloro(N,N'-ethylenebis(salicylideneaminato))iron; phases: Liquid
Fixed: Pressure, kPa = 101
Property: Viscosity, Pa*s (Liquid); method: Capillary tube (Ostwald; Ubbelohde) method
Temperature, K	Solvent: Mass fraction of dimethylformamide	Molality, mol/kg of chloro(N,N'-ethylenebis(salicylideneaminato))iron	Viscosity, Pa*s	uncertainty
298.15	0	0.0015	0.0003464	1.08e-05
298.15	0	0.0026	0.0003497	1.09e-05
298.15	0	0.0046	0.0003542	1.11e-05
298.15	0	0.0067	0.0003597	1.12e-05
298.15	0	0.0088	0.0003642	1.14e-05
298.15	0	0.0103	0.0003686	1.15e-05
303.15	0	0.0015	0.0003335	1.04e-05
303.15	0	0.0026	0.0003368	1.05e-05
303.15	0	0.0046	0.0003401	1.06e-05
303.15	0	0.0067	0.0003446	1.08e-05
303.15	0	0.0088	0.000349	1.09e-05
303.15	0	0.0103	0.0003534	1.1e-05
308.15	0	0.0015	0.0003179	9.9e-06
308.15	0	0.0026	0.0003212	1e-05
308.15	0	0.0046	0.0003245	1.01e-05
308.15	0	0.0067	0.0003279	1.02e-05
308.15	0	0.0088	0.0003323	1.04e-05
308.15	0	0.0103	0.0003367	1.05e-05
313.15	0	0.0015	0.0003016	9.4e-06
313.15	0	0.0026	0.0003049	9.5e-06
313.15	0	0.0046	0.0003093	9.7e-06
313.15	0	0.0067	0.0003127	9.8e-06
313.15	0	0.0088	0.000316	9.9e-06
313.15	0	0.0103	0.0003182	9.9e-06
298.15	0.25	0.0015	0.0004005	1.32e-05
298.15	0.25	0.0024	0.0004051	1.26e-05
298.15	0.25	0.0044	0.0004097	1.28e-05
298.15	0.25	0.0064	0.0004166	1.3e-05
298.15	0.25	0.0083	0.0004223	1.32e-05
298.15	0.25	0.0098	0.0004292	1.34e-05
303.15	0.25	0.0015	0.0003644	1.19e-05
303.15	0.25	0.0024	0.0003679	1.15e-05
303.15	0.25	0.0044	0.0003736	1.16e-05
303.15	0.25	0.0064	0.0003783	1.18e-05
303.15	0.25	0.0083	0.0003829	1.19e-05
303.15	0.25	0.0098	0.0003887	1.22e-05
308.15	0.25	0.0015	0.0003509	1.11e-05
308.15	0.25	0.0024	0.0003543	1.1e-05
308.15	0.25	0.0044	0.0003578	1.12e-05
308.15	0.25	0.0064	0.0003635	1.13e-05
308.15	0.25	0.0083	0.0003682	1.15e-05
308.15	0.25	0.0098	0.0003728	1.16e-05
313.15	0.25	0.0015	0.0003342	1.08e-05
313.15	0.25	0.0024	0.0003365	1.05e-05
313.15	0.25	0.0044	0.00034	1.06e-05
313.15	0.25	0.0064	0.0003446	1.08e-05
313.15	0.25	0.0083	0.0003493	1.09e-05
313.15	0.25	0.0098	0.0003527	1.1e-05
298.15	0.5	0.0014	0.0005238	1.63e-05
298.15	0.5	0.0023	0.0005286	1.64e-05
298.15	0.5	0.0042	0.0005345	1.66e-05
298.15	0.5	0.0061	0.0005439	1.69e-05
298.15	0.5	0.0079	0.0005533	1.72e-05
298.15	0.5	0.0093	0.0005627	1.75e-05
303.15	0.5	0.0014	0.0004636	1.48e-05
303.15	0.5	0.0023	0.0004671	1.45e-05
303.15	0.5	0.0042	0.0004731	1.47e-05
303.15	0.5	0.0061	0.0004802	1.49e-05
303.15	0.5	0.0079	0.0004873	1.52e-05
303.15	0.5	0.0093	0.0004944	1.56e-05
308.15	0.5	0.0014	0.0004376	1.37e-05
308.15	0.5	0.0023	0.0004423	1.38e-05
308.15	0.5	0.0042	0.0004471	1.39e-05
308.15	0.5	0.0061	0.000453	1.41e-05
308.15	0.5	0.0079	0.0004601	1.43e-05
308.15	0.5	0.0093	0.000466	1.45e-05
313.15	0.5	0.0014	0.0004108	1.35e-05
313.15	0.5	0.0023	0.0004155	1.29e-05
313.15	0.5	0.0042	0.0004203	1.31e-05
313.15	0.5	0.0061	0.0004251	1.32e-05
313.15	0.5	0.0079	0.000431	1.34e-05
313.15	0.5	0.0093	0.0004357	1.36e-05
298.15	0.75	0.0013	0.0006502	2.02e-05
298.15	0.75	0.0022	0.0006551	2.03e-05
298.15	0.75	0.004	0.0006613	2.05e-05
298.15	0.75	0.0058	0.0006747	2.09e-05
298.15	0.75	0.0076	0.0006869	2.13e-05
298.15	0.75	0.0089	0.000699	2.17e-05
303.15	0.75	0.0013	0.0006194	1.93e-05
303.15	0.75	0.0022	0.0006243	1.94e-05
303.15	0.75	0.004	0.0006316	1.96e-05
303.15	0.75	0.0058	0.0006426	1.99e-05
303.15	0.75	0.0076	0.0006523	2.02e-05
303.15	0.75	0.0089	0.0006632	2.06e-05
308.15	0.75	0.0013	0.0005853	1.82e-05
308.15	0.75	0.0022	0.0005901	1.83e-05
308.15	0.75	0.004	0.0005963	1.85e-05
308.15	0.75	0.0058	0.0006048	1.88e-05
308.15	0.75	0.0076	0.0006157	1.91e-05
308.15	0.75	0.0089	0.0006218	1.93e-05
313.15	0.75	0.0013	0.0005584	1.76e-05
313.15	0.75	0.0022	0.0005621	1.75e-05
313.15	0.75	0.004	0.000567	1.76e-05
313.15	0.75	0.0058	0.0005755	1.79e-05
313.15	0.75	0.0076	0.000584	1.81e-05
313.15	0.75	0.0089	0.0005925	1.84e-05
298.15	1	0.0013	0.000805	2.49e-05
298.15	1	0.0021	0.0008101	2.51e-05
298.15	1	0.0038	0.000819	2.54e-05
298.15	1	0.0055	0.000833	2.58e-05
298.15	1	0.0072	0.0008481	2.63e-05
298.15	1	0.0085	0.0008583	2.66e-05
303.15	1	0.0013	0.0007601	2.36e-05
303.15	1	0.0021	0.0007639	2.37e-05
303.15	1	0.0038	0.0007716	2.39e-05
303.15	1	0.0055	0.0007842	2.43e-05
303.15	1	0.0072	0.0007944	2.46e-05
303.15	1	0.0085	0.0008045	2.49e-05
308.15	1	0.0013	0.000712	2.2e-05
308.15	1	0.0021	0.0007183	2.23e-05
308.15	1	0.0038	0.0007247	2.25e-05
308.15	1	0.0055	0.0007335	2.27e-05
308.15	1	0.0072	0.0007437	2.31e-05
308.15	1	0.0085	0.0007538	2.34e-05
313.15	1	0.0013	0.0006779	2.1e-05
313.15	1	0.0021	0.0006817	2.11e-05
313.15	1	0.0038	0.0006893	2.14e-05
313.15	1	0.0055	0.0006981	2.16e-05
313.15	1	0.0072	0.000707	2.19e-05
313.15	1	0.0085	0.0007145	2.22e-05

System: acetonitrile + chloro(N,N'-ethylenebis(salicylideneaminato))iron; phases: Liquid
Fixed: Pressure, kPa = 101
Property: Mass density, kg/m3 (Liquid); method: Vibrating tube method
Temperature, K	Molality, mol/kg of chloro(N,N'-ethylenebis(salicylideneaminato))iron	Mass density, kg/m3	uncertainty
298.15	0.0015	776.69	1.57
298.15	0.0026	776.86	1.57
298.15	0.0046	777.17	1.57
298.15	0.0067	777.5	1.57
298.15	0.0088	777.85	1.57
298.15	0.0103	778.1	1.57
303.15	0.0015	771.78	1.56
303.15	0.0026	771.95	1.56
303.15	0.0046	772.26	1.56
303.15	0.0067	772.59	1.56
303.15	0.0088	772.93	1.56
303.15	0.0103	773.18	1.56
308.15	0.0015	765.48	1.55
308.15	0.0026	765.65	1.55
308.15	0.0046	765.96	1.55
308.15	0.0067	766.29	1.55
308.15	0.0088	766.63	1.55
308.15	0.0103	766.87	1.55
313.15	0.0015	759.77	1.54
313.15	0.0026	759.94	1.54
313.15	0.0046	760.25	1.54
313.15	0.0067	760.58	1.54
313.15	0.0088	760.91	1.54
313.15	0.0103	761.16	1.54

System: acetonitrile + chloro(N,N'-ethylenebis(salicylideneaminato))iron; phases: Liquid
Fixed: Pressure, kPa = 101
Property: Viscosity, Pa*s (Liquid); method: Capillary tube (Ostwald; Ubbelohde) method
Temperature, K	Molality, mol/kg of chloro(N,N'-ethylenebis(salicylideneaminato))iron	Viscosity, Pa*s	uncertainty
298.15	0.0015	0.0003464	1.08e-05
298.15	0.0026	0.0003497	1.09e-05
298.15	0.0046	0.0003542	1.11e-05
298.15	0.0067	0.0003597	1.12e-05
298.15	0.0088	0.0003642	1.14e-05
298.15	0.0103	0.0003686	1.15e-05
303.15	0.0015	0.0003335	1.04e-05
303.15	0.0026	0.0003368	1.05e-05
303.15	0.0046	0.0003401	1.06e-05
303.15	0.0067	0.0003446	1.08e-05
303.15	0.0088	0.000349	1.09e-05
303.15	0.0103	0.0003534	1.1e-05
308.15	0.0015	0.0003179	9.9e-06
308.15	0.0026	0.0003212	1e-05
308.15	0.0046	0.0003245	1.01e-05
308.15	0.0067	0.0003279	1.02e-05
308.15	0.0088	0.0003323	1.04e-05
308.15	0.0103	0.0003367	1.05e-05
313.15	0.0015	0.0003016	9.4e-06
313.15	0.0026	0.0003049	9.5e-06
313.15	0.0046	0.0003093	9.7e-06
313.15	0.0067	0.0003127	9.8e-06
313.15	0.0088	0.000316	9.9e-06
313.15	0.0103	0.0003182	9.9e-06

System: dimethylformamide + chloro(N,N'-ethylenebis(salicylideneaminato))iron; phases: Liquid
Fixed: Pressure, kPa = 101
Property: Mass density, kg/m3 (Liquid); method: Vibrating tube method
Temperature, K	Molality, mol/kg of chloro(N,N'-ethylenebis(salicylideneaminato))iron	Mass density, kg/m3	uncertainty
298.15	0.0013	944.82	1.9
298.15	0.0021	944.93	1.9
298.15	0.0038	945.18	1.9
298.15	0.0055	945.44	1.9
298.15	0.0072	945.7	1.9
298.15	0.0085	945.92	1.9
303.15	0.0013	940.22	1.89
303.15	0.0021	940.33	1.89
303.15	0.0038	940.58	1.89
303.15	0.0055	940.84	1.89
303.15	0.0072	941.09	1.89
303.15	0.0085	941.3	1.89
308.15	0.0013	935.88	1.89
308.15	0.0021	935.99	1.88
308.15	0.0038	936.24	1.88
308.15	0.0055	936.49	1.88
308.15	0.0072	936.75	1.89
308.15	0.0085	936.95	1.89
313.15	0.0013	930.08	1.87
313.15	0.0021	930.19	1.87
313.15	0.0038	930.43	1.87
313.15	0.0055	930.68	1.87
313.15	0.0072	930.93	1.87
313.15	0.0085	931.13	1.87

System: dimethylformamide + chloro(N,N'-ethylenebis(salicylideneaminato))iron; phases: Liquid
Fixed: Pressure, kPa = 101
Property: Viscosity, Pa*s (Liquid); method: Capillary tube (Ostwald; Ubbelohde) method
Temperature, K	Molality, mol/kg of chloro(N,N'-ethylenebis(salicylideneaminato))iron	Viscosity, Pa*s	uncertainty
298.15	0.0013	0.000805	2.49e-05
298.15	0.0021	0.0008101	2.51e-05
298.15	0.0038	0.000819	2.54e-05
298.15	0.0055	0.000833	2.58e-05
298.15	0.0072	0.0008481	2.63e-05
298.15	0.0085	0.0008583	2.66e-05
303.15	0.0013	0.0007601	2.36e-05
303.15	0.0021	0.0007639	2.37e-05
303.15	0.0038	0.0007716	2.39e-05
303.15	0.0055	0.0007842	2.43e-05
303.15	0.0072	0.0007944	2.46e-05
303.15	0.0085	0.0008045	2.49e-05
308.15	0.0013	0.000712	2.2e-05
308.15	0.0021	0.0007183	2.23e-05
308.15	0.0038	0.0007247	2.25e-05
308.15	0.0055	0.0007335	2.27e-05
308.15	0.0072	0.0007437	2.31e-05
308.15	0.0085	0.0007538	2.34e-05
313.15	0.0013	0.0006779	2.1e-05
313.15	0.0021	0.0006817	2.11e-05
313.15	0.0038	0.0006893	2.14e-05
313.15	0.0055	0.0006981	2.16e-05
313.15	0.0072	0.000707	2.19e-05
313.15	0.0085	0.0007145	2.22e-05
