Measured thermophysical data. Volumetric, acoustic, and viscometric studies of molecular interactions in binary mixtures of dipropylene glycol dimethyl ether with 1-alkanols at 298.15 K
Source: J. Chem. Thermodyn., 2008, 10.1016/j.jct.2008.01.008
Compound 1: 2-methoxy-1-(2-methoxy-1-methylethoxy)propane, C8H18O3, InChI=1S/C8H18O3/c1-7(10-4)6-11-8(2)5-9-3/h7-8H,5-6H2,1-4H3
Compound 2: methanol, CH4O, InChI=1S/CH4O/c1-2/h2H,1H3
Compound 3: propan-1-ol, C3H8O, InChI=1S/C3H8O/c1-2-3-4/h4H,2-3H2,1H3
Compound 4: pentan-1-ol, C5H12O, InChI=1S/C5H12O/c1-2-3-4-5-6/h6H,2-5H2,1H3
Compound 5: heptan-1-ol, C7H16O, InChI=1S/C7H16O/c1-2-3-4-5-6-7-8/h8H,2-7H2,1H3

System: 2-methoxy-1-(2-methoxy-1-methylethoxy)propane; phases: Liquid
Property: Mass density, kg/m3 (Liquid); method: VIBTUB:UFactor:4
Temperature, K	Pressure, kPa	Mass density, kg/m3	uncertainty
298.15	101.325	898.566	0.326

System: 2-methoxy-1-(2-methoxy-1-methylethoxy)propane; phases: Liquid
Property: Viscosity, Pa*s (Liquid); method: Capillary tube (Ostwald; Ubbelohde) method
Temperature, K	Pressure, kPa	Viscosity, Pa*s	uncertainty
298.15	101.325	0.0009926	1.17e-05

System: 2-methoxy-1-(2-methoxy-1-methylethoxy)propane; phases: Liquid
Property: Speed of sound, m/s (Liquid); method: Sing-around technique in a fixed-path interferometer
Temperature, K	Pressure, kPa	Speed of sound, m/s	uncertainty
298.15	101.325	1204.97	0.8

System: methanol; phases: Liquid
Property: Mass density, kg/m3 (Liquid); method: VIBTUB:UFactor:4
Temperature, K	Pressure, kPa	Mass density, kg/m3	uncertainty
298.15	101.325	786.548	0.495

System: methanol; phases: Liquid
Property: Viscosity, Pa*s (Liquid); method: Capillary tube (Ostwald; Ubbelohde) method
Temperature, K	Pressure, kPa	Viscosity, Pa*s	uncertainty
298.15	101.325	0.0005444	1.06e-05

System: methanol; phases: Liquid
Property: Speed of sound, m/s (Liquid); method: Sing-around technique in a fixed-path interferometer
Temperature, K	Pressure, kPa	Speed of sound, m/s	uncertainty
298.15	101.325	1102.62	0.77

System: propan-1-ol; phases: Liquid
Property: Mass density, kg/m3 (Liquid); method: VIBTUB:UFactor:4
Temperature, K	Pressure, kPa	Mass density, kg/m3	uncertainty
298.15	101.325	799.666	0.475

System: propan-1-ol; phases: Liquid
Property: Viscosity, Pa*s (Liquid); method: Capillary tube (Ostwald; Ubbelohde) method
Temperature, K	Pressure, kPa	Viscosity, Pa*s	uncertainty
298.15	101.325	0.0019589	1.52e-05

System: propan-1-ol; phases: Liquid
Property: Speed of sound, m/s (Liquid); method: Sing-around technique in a fixed-path interferometer
Temperature, K	Pressure, kPa	Speed of sound, m/s	uncertainty
298.15	101.325	1206.47	0.8

System: pentan-1-ol; phases: Liquid
Property: Mass density, kg/m3 (Liquid); method: VIBTUB:UFactor:4
Temperature, K	Pressure, kPa	Mass density, kg/m3	uncertainty
298.15	101.325	811.001	0.458

System: pentan-1-ol; phases: Liquid
Property: Viscosity, Pa*s (Liquid); method: Capillary tube (Ostwald; Ubbelohde) method
Temperature, K	Pressure, kPa	Viscosity, Pa*s	uncertainty
298.15	101.325	0.0034954	2.22e-05

System: pentan-1-ol; phases: Liquid
Property: Speed of sound, m/s (Liquid); method: Sing-around technique in a fixed-path interferometer
Temperature, K	Pressure, kPa	Speed of sound, m/s	uncertainty
298.15	101.325	1276.01	0.83

System: heptan-1-ol; phases: Liquid
Property: Mass density, kg/m3 (Liquid); method: VIBTUB:UFactor:4
Temperature, K	Pressure, kPa	Mass density, kg/m3	uncertainty
298.15	101.325	818.851	0.446

System: heptan-1-ol; phases: Liquid
Property: Viscosity, Pa*s (Liquid); method: Capillary tube (Ostwald; Ubbelohde) method
Temperature, K	Pressure, kPa	Viscosity, Pa*s	uncertainty
298.15	101.325	0.0058857	3.42e-05

System: heptan-1-ol; phases: Liquid
Property: Speed of sound, m/s (Liquid); method: Sing-around technique in a fixed-path interferometer
Temperature, K	Pressure, kPa	Speed of sound, m/s	uncertainty
298.15	101.325	1327.36	0.84

System: methanol + 2-methoxy-1-(2-methoxy-1-methylethoxy)propane; phases: Liquid
Fixed: Pressure, kPa = 101
Fixed: Temperature, K = 298.15
Property: Viscosity, Pa*s (Liquid); method: Capillary tube (Ostwald; Ubbelohde) method
Mole fraction of 2-methoxy-1-(2-methoxy-1-methylethoxy)propane	Viscosity, Pa*s	uncertainty
0.0146	0.000567	1.1e-05
0.0467	0.0006092	1.08e-05
0.0738	0.000644	1.1e-05
0.1106	0.0006831	1.09e-05
0.1422	0.0007112	1.1e-05
0.1646	0.0007327	1.1e-05
0.1725	0.0007378	1.11e-05
0.1988	0.0007576	1.11e-05
0.2058	0.0007648	1.11e-05
0.2621	0.0008031	1.12e-05
0.3128	0.0008321	1.13e-05
0.3583	0.0008527	1.13e-05
0.4	0.000871	1.1e-05
0.4549	0.0008941	1.15e-05
0.5123	0.0009106	1.15e-05
0.5474	0.0009206	1.15e-05
0.6261	0.0009387	1.16e-05
0.6802	0.0009504	1.16e-05
0.7319	0.0009598	1.16e-05
0.7557	0.0009634	1.16e-05
0.7919	0.0009682	1.17e-05
0.8565	0.0009775	1.17e-05
0.9185	0.0009855	1.17e-05
0.9327	0.0009862	1.17e-05
0.9572	0.0009881	1.17e-05
0.974	0.0009898	1.17e-05

System: methanol + 2-methoxy-1-(2-methoxy-1-methylethoxy)propane; phases: Liquid
Fixed: Pressure, kPa = 101
Fixed: Temperature, K = 298.15
Property: Speed of sound, m/s (Liquid); method: Sing-around technique in a fixed-path interferometer
Mole fraction of 2-methoxy-1-(2-methoxy-1-methylethoxy)propane	Speed of sound, m/s	uncertainty
0.023	1116.23	0.78
0.0705	1138.44	0.79
0.1312	1158.23	0.79
0.1632	1166.24	0.79
0.2094	1175.36	0.8
0.2514	1181.96	0.8
0.3018	1188.14	0.8
0.3598	1193.87	0.8
0.4036	1197.26	0.8
0.4549	1200.27	0.8
0.5022	1202.61	0.8
0.5449	1204.27	0.8
0.6169	1206.21	0.8
0.6494	1206.79	0.8
0.7083	1207.74	0.8
0.756	1207.93	0.8
0.8114	1207.84	0.8
0.8537	1207.56	0.8
0.9047	1206.96	0.8
0.9364	1206.22	0.8
0.9511	1206.17	0.8

System: methanol + 2-methoxy-1-(2-methoxy-1-methylethoxy)propane; phases: Liquid
Fixed: Pressure, kPa = 101
Fixed: Temperature, K = 298.15
Property: Mass density, kg/m3 (Liquid); method: VIBTUB:UFactor:4
Mole fraction of 2-methoxy-1-(2-methoxy-1-methylethoxy)propane	Mass density, kg/m3	uncertainty
0.023	799.44	0.477
0.0705	820.052	0.445
0.1312	838.725	0.415
0.1632	846.233	0.402
0.2094	855.089	0.389
0.2514	861.6	0.378
0.3018	867.961	0.369
0.3598	873.908	0.36
0.4036	877.603	0.354
0.4549	881.296	0.349
0.5022	884.189	0.344
0.5449	886.449	0.341
0.6169	889.615	0.336
0.6494	890.83	0.334
0.7083	892.78	0.331
0.756	894.087	0.33
0.8114	895.425	0.328
0.8537	896.298	0.326
0.9047	897.217	0.325
0.9364	897.708	0.324
0.9511	897.931	0.324

System: propan-1-ol + 2-methoxy-1-(2-methoxy-1-methylethoxy)propane; phases: Liquid
Fixed: Pressure, kPa = 101
Fixed: Temperature, K = 298.15
Property: Viscosity, Pa*s (Liquid); method: Capillary tube (Ostwald; Ubbelohde) method
Mole fraction of 2-methoxy-1-(2-methoxy-1-methylethoxy)propane	Viscosity, Pa*s	uncertainty
0.0008	0.0019547	1.52e-05
0.0061	0.0019277	1.51e-05
0.0186	0.0018657	1.48e-05
0.0409	0.0017747	1.45e-05
0.0666	0.0016779	1.41e-05
0.0903	0.0015994	1.38e-05
0.1309	0.0014938	1.34e-05
0.1846	0.0013816	1.3e-05
0.267	0.0012635	1.26e-05
0.3136	0.0012112	1.24e-05
0.345	0.0011842	1.23e-05
0.3718	0.0011644	1.22e-05
0.4516	0.0011124	1.21e-05
0.5198	0.001081	1.2e-05
0.5625	0.0010655	1.19e-05
0.6111	0.0010497	1.19e-05
0.6459	0.0010433	1.19e-05
0.7346	0.001021	1.2e-05
0.7703	0.0010115	1.18e-05
0.8317	0.0010046	1.18e-05
0.8591	0.0010015	1.18e-05
0.9511	0.0009968	1.17e-05
0.9753	0.000993	1.2e-05
0.9915	0.0009927	1.17e-05

System: propan-1-ol + 2-methoxy-1-(2-methoxy-1-methylethoxy)propane; phases: Liquid
Fixed: Pressure, kPa = 101
Fixed: Temperature, K = 298.15
Property: Speed of sound, m/s (Liquid); method: Sing-around technique in a fixed-path interferometer
Mole fraction of 2-methoxy-1-(2-methoxy-1-methylethoxy)propane	Speed of sound, m/s	uncertainty
0.0653	1210.93	0.81
0.1089	1212.77	0.81
0.1451	1213.96	0.81
0.2124	1215.21	0.81
0.2694	1215.98	0.81
0.3041	1215.81	0.81
0.3359	1215.64	0.81
0.3913	1215.56	0.81
0.4561	1215.44	0.81
0.502	1215.32	0.81
0.5464	1214.62	0.81
0.6139	1213.86	0.81
0.6513	1213.24	0.81
0.708	1212.51	0.81
0.7572	1211.39	0.81
0.8098	1210.35	0.81
0.8457	1209.51	0.81
0.9067	1207.87	0.8
0.9576	1206.44	0.8
0.9746	1206.1	0.8

System: propan-1-ol + 2-methoxy-1-(2-methoxy-1-methylethoxy)propane; phases: Liquid
Fixed: Pressure, kPa = 101
Fixed: Temperature, K = 298.15
Property: Mass density, kg/m3 (Liquid); method: VIBTUB:UFactor:4
Mole fraction of 2-methoxy-1-(2-methoxy-1-methylethoxy)propane	Mass density, kg/m3	uncertainty
0.0653	815.198	0.448
0.1089	824.018	0.435
0.1451	830.582	0.425
0.2124	841.11	0.409
0.2694	848.766	0.397
0.3041	852.935	0.391
0.3359	856.509	0.385
0.3913	862.204	0.377
0.4561	868.154	0.368
0.502	872.013	0.362
0.5464	875.439	0.357
0.6139	880.179	0.35
0.6513	882.571	0.347
0.708	885.911	0.342
0.7572	888.492	0.338
0.8098	891.002	0.334
0.8457	892.536	0.332
0.9067	894.986	0.328
0.9576	896.939	0.325
0.9746	897.584	0.324

System: pentan-1-ol + 2-methoxy-1-(2-methoxy-1-methylethoxy)propane; phases: Liquid
Fixed: Pressure, kPa = 101
Fixed: Temperature, K = 298.15
Property: Viscosity, Pa*s (Liquid); method: Capillary tube (Ostwald; Ubbelohde) method
Mole fraction of 2-methoxy-1-(2-methoxy-1-methylethoxy)propane	Viscosity, Pa*s	uncertainty
0.0005	0.0034901	2.23e-05
0.0225	0.0032459	2.11e-05
0.0499	0.0029862	1.98e-05
0.0656	0.0028514	1.92e-05
0.0946	0.0026271	1.81e-05
0.1367	0.0023573	1.69e-05
0.194	0.0020778	1.57e-05
0.2414	0.0018914	1.49e-05
0.2954	0.0017281	1.43e-05
0.3597	0.0015743	1.37e-05
0.4152	0.0014636	1.33e-05
0.4303	0.0014359	1.32e-05
0.468	0.0013798	1.3e-05
0.4941	0.0013447	1.28e-05
0.5552	0.0012736	1.26e-05
0.591	0.0012296	1.25e-05
0.6625	0.0011685	1.23e-05
0.709	0.0011369	1.22e-05
0.7445	0.0011116	1.21e-05
0.796	0.0010785	1.2e-05
0.8555	0.0010542	1.19e-05
0.9258	0.0010203	1.18e-05
0.9803	0.0009997	1.17e-05

System: pentan-1-ol + 2-methoxy-1-(2-methoxy-1-methylethoxy)propane; phases: Liquid
Fixed: Pressure, kPa = 101
Fixed: Temperature, K = 298.15
Property: Speed of sound, m/s (Liquid); method: Sing-around technique in a fixed-path interferometer
Mole fraction of 2-methoxy-1-(2-methoxy-1-methylethoxy)propane	Speed of sound, m/s	uncertainty
0.0143	1274.51	0.83
0.0441	1271.97	0.82
0.1045	1266.64	0.82
0.1523	1262.41	0.82
0.2149	1257.22	0.82
0.2431	1254.96	0.82
0.2986	1250.68	0.82
0.3419	1247.45	0.82
0.374	1244.96	0.82
0.4018	1243.17	0.82
0.4549	1239.54	0.81
0.5038	1236.62	0.81
0.5334	1234.72	0.81
0.6034	1230.26	0.81
0.6553	1226.53	0.81
0.6968	1223.96	0.81
0.7505	1221.2	0.81
0.7962	1218.59	0.81
0.8509	1215.14	0.81
0.9071	1211	0.81
0.9476	1208.65	0.81
0.96	1207.77	0.8

System: pentan-1-ol + 2-methoxy-1-(2-methoxy-1-methylethoxy)propane; phases: Liquid
Fixed: Pressure, kPa = 101
Fixed: Temperature, K = 298.15
Property: Mass density, kg/m3 (Liquid); method: VIBTUB:UFactor:4
Mole fraction of 2-methoxy-1-(2-methoxy-1-methylethoxy)propane	Mass density, kg/m3	uncertainty
0.0143	813.241	0.45
0.0441	817.684	0.443
0.1045	826.045	0.431
0.1523	832.101	0.422
0.2149	839.509	0.411
0.2431	842.645	0.406
0.2986	848.553	0.397
0.3419	852.922	0.391
0.374	856.019	0.386
0.4018	858.624	0.382
0.4549	863.364	0.375
0.5038	867.504	0.369
0.5334	869.911	0.365
0.6034	875.242	0.358
0.6553	878.913	0.352
0.6968	881.667	0.348
0.7505	885.025	0.343
0.7962	887.727	0.339
0.8509	890.774	0.335
0.9071	893.759	0.33
0.9476	895.868	0.327
0.96	896.501	0.326

System: heptan-1-ol + 2-methoxy-1-(2-methoxy-1-methylethoxy)propane; phases: Liquid
Fixed: Pressure, kPa = 101
Fixed: Temperature, K = 298.15
Property: Viscosity, Pa*s (Liquid); method: Capillary tube (Ostwald; Ubbelohde) method
Mole fraction of 2-methoxy-1-(2-methoxy-1-methylethoxy)propane	Viscosity, Pa*s	uncertainty
0.0148	0.0056045	3.3e-05
0.0292	0.0053481	3.18e-05
0.0718	0.0046636	2.82e-05
0.1196	0.0040329	2.49e-05
0.1575	0.0036109	2.28e-05
0.1902	0.0032939	2.12e-05
0.2555	0.0030156	0.0003
0.2613	0.0027655	2.21e-05
0.3119	0.0024675	1.74e-05
0.3616	0.0022351	1.64e-05
0.4129	0.0020308	1.55e-05
0.4366	0.0019491	1.52e-05
0.4532	0.0018951	1.49e-05
0.511	0.0017355	1.43e-05
0.5326	0.001673	1.41e-05
0.5897	0.0015429	1.36e-05
0.6424	0.0014321	1.32e-05
0.7111	0.0013088	1.27e-05
0.7457	0.0012503	1.25e-05
0.7977	0.0011781	1.23e-05
0.8531	0.0011174	1.21e-05
0.8927	0.0010792	1.2e-05
0.9421	0.0010414	1.19e-05
0.9678	0.0010195	1.18e-05
0.9935	0.0009994	1.17e-05

System: heptan-1-ol + 2-methoxy-1-(2-methoxy-1-methylethoxy)propane; phases: Liquid
Fixed: Pressure, kPa = 101
Fixed: Temperature, K = 298.15
Property: Speed of sound, m/s (Liquid); method: Sing-around technique in a fixed-path interferometer
Mole fraction of 2-methoxy-1-(2-methoxy-1-methylethoxy)propane	Speed of sound, m/s	uncertainty
0.0609	1317.8	0.84
0.1164	1309.65	0.84
0.157	1302.97	0.83
0.2117	1295.47	0.83
0.259	1289.17	0.83
0.3132	1281.7	0.83
0.3539	1276.44	0.83
0.406	1270.52	0.82
0.4533	1264.9	0.82
0.5056	1258.76	0.82
0.552	1253.61	0.82
0.5935	1249.18	0.82
0.6316	1245.39	0.82
0.7137	1236.22	0.81
0.7666	1231.03	0.81
0.8059	1226.59	0.81
0.8495	1222.12	0.81
0.9026	1216.11	0.81
0.9293	1213.01	0.81
0.9527	1210.68	0.81

System: heptan-1-ol + 2-methoxy-1-(2-methoxy-1-methylethoxy)propane; phases: Liquid
Fixed: Pressure, kPa = 101
Fixed: Temperature, K = 298.15
Property: Mass density, kg/m3 (Liquid); method: VIBTUB:UFactor:4
Mole fraction of 2-methoxy-1-(2-methoxy-1-methylethoxy)propane	Mass density, kg/m3	uncertainty
0.0609	825.134	0.432
0.1164	830.66	0.424
0.157	834.553	0.418
0.2117	839.681	0.41
0.259	843.957	0.404
0.3132	848.706	0.397
0.3539	852.157	0.392
0.406	856.458	0.385
0.4533	860.298	0.38
0.5056	864.403	0.374
0.552	867.948	0.368
0.5935	871.045	0.364
0.6316	873.865	0.36
0.7137	879.729	0.351
0.7666	883.415	0.345
0.8059	886.098	0.341
0.8495	889.001	0.337
0.9026	892.554	0.332
0.9293	894.156	0.33
0.9527	895.635	0.327
