Measured thermophysical data. Thermophysical and sonochemical behaviour of binary mixtures of decan-1-ol with halohydrocarbons at (T = 293.15 and 313.15) K
Source: J. Chem. Thermodyn., 2010, 10.1016/j.jct.2009.07.020
Compound 1: decan-1-ol, C10H22O, InChI=1S/C10H22O/c1-2-3-4-5-6-7-8-9-10-11/h11H,2-10H2,1H3, purity 99.7%
Compound 2: 1,2-dichloroethane, C2H4Cl2, InChI=1S/C2H4Cl2/c3-1-2-4/h1-2H2, purity 99.7%
Compound 3: 1,2-dibromoethane, C2H4Br2, InChI=1S/C2H4Br2/c3-1-2-4/h1-2H2, purity 99.5%
Compound 4: tetrachloroethene, C2Cl4, InChI=1S/C2Cl4/c3-1(4)2(5)6, purity 99.4%

System: decan-1-ol; phases: Liquid
Property: Mass density, kg/m3 (Liquid); method: Vibrating tube method
Temperature, K	Pressure, kPa	Mass density, kg/m3	uncertainty
293.15	101.325	829.991	0.139

System: decan-1-ol; phases: Liquid
Property: Speed of sound, m/s (Liquid); method: Sing-around technique in a fixed-path interferometer
Temperature, K	Pressure, kPa	Speed of sound, m/s	uncertainty
293.15	101.325	1396.37	0.99

System: 1,2-dichloroethane; phases: Liquid
Property: Mass density, kg/m3 (Liquid); method: Vibrating tube method
Temperature, K	Pressure, kPa	Mass density, kg/m3	uncertainty
293.15	101.325	1252.742	0.219

System: 1,2-dichloroethane; phases: Liquid
Property: Speed of sound, m/s (Liquid); method: Sing-around technique in a fixed-path interferometer
Temperature, K	Pressure, kPa	Speed of sound, m/s	uncertainty
293.15	101.325	1212.75	0.94

System: 1,2-dibromoethane; phases: Liquid
Property: Mass density, kg/m3 (Liquid); method: Vibrating tube method
Temperature, K	Pressure, kPa	Mass density, kg/m3	uncertainty
293.15	101.325	2179.604	0.742

System: 1,2-dibromoethane; phases: Liquid
Property: Speed of sound, m/s (Liquid); method: Sing-around technique in a fixed-path interferometer
Temperature, K	Pressure, kPa	Speed of sound, m/s	uncertainty
293.15	101.325	1006.95	0.89

System: tetrachloroethene; phases: Liquid
Property: Mass density, kg/m3 (Liquid); method: Vibrating tube method
Temperature, K	Pressure, kPa	Mass density, kg/m3	uncertainty
293.15	101.325	1622.395	0.417

System: tetrachloroethene; phases: Liquid
Property: Speed of sound, m/s (Liquid); method: Sing-around technique in a fixed-path interferometer
Temperature, K	Pressure, kPa	Speed of sound, m/s	uncertainty
293.15	101.325	1053.84	0.9

System: 1,2-dichloroethane + decan-1-ol; phases: Liquid
Fixed: Pressure, kPa = 101
Property: Speed of sound, m/s (Liquid); method: Sing-around technique in a fixed-path interferometer
Temperature, K	Mole fraction of 1,2-dichloroethane	Speed of sound, m/s	uncertainty
293.15	0	1396.37	0.92
293.15	0.0692	1382.81	0.92
293.15	0.1136	1373.9	0.92
293.15	0.2034	1355.32	0.91
293.15	0.2938	1335.62	0.9
293.15	0.3645	1319.66	0.9
293.15	0.507	1287.54	0.89
293.15	0.6043	1265.4	0.89
293.15	0.699	1244.63	0.88
293.15	0.7455	1235.13	0.88
293.15	0.7816	1228.31	0.88
293.15	0.8142	1222.53	0.88
293.15	0.8429	1218.09	0.88
293.15	0.9034	1211.63	0.88
293.15	0.9579	1210.43	0.88
293.15	1	1212.75	0.89
313.15	0	1328.65	0.9
313.15	0.0692	1314.94	0.9
313.15	0.1136	1305.73	0.9
313.15	0.2034	1287.38	0.89
313.15	0.2938	1267.75	0.89
313.15	0.3645	1251.27	0.88
313.15	0.507	1217.81	0.88
313.15	0.6043	1195.06	0.87
313.15	0.699	1174.28	0.86
313.15	0.7455	1164.76	0.86
313.15	0.7816	1157.84	0.86
313.15	0.8142	1151.93	0.86
313.15	0.8429	1147.37	0.86
313.15	0.9034	1140.5	0.85
313.15	0.9579	1136.85	0.86
313.15	1	1136.03	0.87

System: 1,2-dichloroethane + decan-1-ol; phases: Liquid
Fixed: Pressure, kPa = 101
Property: Mass density, kg/m3 (Liquid); method: Vibrating tube method
Temperature, K	Mole fraction of 1,2-dichloroethane	Mass density, kg/m3	uncertainty
293.15	0	829.991	0.135
293.15	0.0692	841.579	0.136
293.15	0.1136	849.567	0.135
293.15	0.2034	867.401	0.132
293.15	0.2938	887.762	0.128
293.15	0.3645	905.827	0.129
293.15	0.507	949.509	0.125
293.15	0.6043	986.214	0.127
293.15	0.699	1029.228	0.142
293.15	0.7455	1053.665	0.161
293.15	0.7816	1074.539	0.175
293.15	0.8142	1094.992	0.189
293.15	0.8429	1114.401	0.209
293.15	0.9034	1160.555	0.238
293.15	0.9579	1209.391	0.273
293.15	1	1252.742	0.216
313.15	0	816.264	0.139
313.15	0.0692	827.391	0.14
313.15	0.1136	835.077	0.139
313.15	0.2034	852.221	0.135
313.15	0.2938	871.824	0.132
313.15	0.3645	889.228	0.131
313.15	0.507	931.327	0.124
313.15	0.6043	966.695	0.127
313.15	0.699	1008.071	0.132
313.15	0.7455	1031.546	0.15
313.15	0.7816	1051.572	0.165
313.15	0.8142	1071.237	0.178
313.15	0.8429	1089.861	0.196
313.15	0.9034	1134.212	0.223
313.15	0.9579	1181.341	0.258
313.15	1	1223.382	0.203

System: 1,2-dichloroethane + decan-1-ol; phases: Liquid
Fixed: Pressure, kPa = 101
Property: Excess molar volume, m3/mol (Liquid); method: Calculated with densities of this investigation
Temperature, K	Mole fraction of 1,2-dichloroethane	Excess molar volume, m3/mol	uncertainty
293.15	0	0	1.07e-08
293.15	0.0692	2.266e-07	1.1e-08
293.15	0.1136	3.615e-07	1.12e-08
293.15	0.2034	5.867e-07	1.15e-08
293.15	0.2938	7.761e-07	1.18e-08
293.15	0.3645	8.835e-07	1.2e-08
293.15	0.507	9.567e-07	1.21e-08
293.15	0.6043	9.49e-07	1.21e-08
293.15	0.699	8.785e-07	1.2e-08
293.15	0.7455	8.227e-07	1.19e-08
293.15	0.7816	7.604e-07	1.18e-08
293.15	0.8142	6.903e-07	1.17e-08
293.15	0.8429	6.217e-07	1.16e-08
293.15	0.9034	4.209e-07	1.13e-08
293.15	0.9579	1.957e-07	1.1e-08
293.15	1	0	1.07e-08
313.15	0	0	1.07e-08
313.15	0.0692	2.517e-07	1.11e-08
313.15	0.1136	3.986e-07	1.13e-08
313.15	0.2034	6.49e-07	1.16e-08
313.15	0.2938	8.548e-07	1.2e-08
313.15	0.3645	9.706e-07	1.21e-08
313.15	0.507	1.0505e-06	1.23e-08
313.15	0.6043	1.0411e-06	1.23e-08
313.15	0.699	9.7e-07	1.21e-08
313.15	0.7455	9.143e-07	1.21e-08
313.15	0.7816	8.53e-07	1.2e-08
313.15	0.8142	7.782e-07	1.18e-08
313.15	0.8429	7.077e-07	1.17e-08
313.15	0.9034	4.935e-07	1.14e-08
313.15	0.9579	2.366e-07	1.11e-08
313.15	1	0	1.07e-08

System: 1,2-dibromoethane + decan-1-ol; phases: Liquid
Fixed: Pressure, kPa = 101
Property: Speed of sound, m/s (Liquid); method: Sing-around technique in a fixed-path interferometer
Temperature, K	Mole fraction of 1,2-dibromoethane	Speed of sound, m/s	uncertainty
293.15	0	1396.37	0.92
293.15	0.0713	1363.08	0.91
293.15	0.1171	1341.81	0.91
293.15	0.1704	1317.21	0.9
293.15	0.2858	1265.99	0.88
293.15	0.3911	1218.27	0.86
293.15	0.51	1167.73	0.84
293.15	0.543	1153.37	0.84
293.15	0.5903	1134.09	0.83
293.15	0.6875	1095.33	0.82
293.15	0.7289	1079.96	0.81
293.15	0.7873	1059.7	0.8
293.15	0.8411	1042.2	0.8
293.15	0.9006	1025.52	0.79
293.15	0.9495	1015.59	0.78
293.15	1	1006.95	0.78
313.15	0	1328.65	0.9
313.15	0.0713	1296.39	0.9
313.15	0.1171	1275.41	0.89
313.15	0.1704	1251.81	0.88
313.15	0.2858	1202.94	0.86
313.15	0.3911	1157.19	0.84
313.15	0.51	1108.86	0.83
313.15	0.543	1094.95	0.82
313.15	0.5903	1076.8	0.82
313.15	0.6875	1040.49	0.8
313.15	0.7289	1025.91	0.79
313.15	0.7873	1006.6	0.79
313.15	0.8411	990.48	0.78
313.15	0.9006	975.34	0.77
313.15	0.9495	965.65	0.77
313.15	1	955.97	0.77

System: 1,2-dibromoethane + decan-1-ol; phases: Liquid
Fixed: Pressure, kPa = 101
Property: Mass density, kg/m3 (Liquid); method: Vibrating tube method
Temperature, K	Mole fraction of 1,2-dibromoethane	Mass density, kg/m3	uncertainty
293.15	0	829.991	0.135
293.15	0.0713	873.696	0.175
293.15	0.1171	903.742	0.177
293.15	0.1704	940.915	0.184
293.15	0.2858	1030.687	0.198
293.15	0.3911	1125.696	0.25
293.15	0.51	1252.151	0.304
293.15	0.543	1291.442	0.34
293.15	0.5903	1351.801	0.385
293.15	0.6875	1492.469	0.452
293.15	0.7289	1560.167	0.512
293.15	0.7873	1665.231	0.577
293.15	0.8411	1773.358	0.655
293.15	0.9006	1908.196	0.746
293.15	0.9495	2033.543	0.845
293.15	1	2179.604	0.731
313.15	0	816.264	0.139
313.15	0.0713	859.289	0.177
313.15	0.1171	888.874	0.178
313.15	0.1704	925.398	0.183
313.15	0.2858	1013.602	0.188
313.15	0.3911	1106.722	0.237
313.15	0.51	1230.296	0.292
313.15	0.543	1268.705	0.328
313.15	0.5903	1327.542	0.37
313.15	0.6875	1464.538	0.434
313.15	0.7289	1530.454	0.493
313.15	0.7873	1632.901	0.556
313.15	0.8411	1738.483	0.632
313.15	0.9006	1870.501	0.721
313.15	0.9495	1993.499	0.82
313.15	1	2137.698	0.706

System: 1,2-dibromoethane + decan-1-ol; phases: Liquid
Fixed: Pressure, kPa = 101
Property: Excess molar volume, m3/mol (Liquid); method: Calculated with densities of this investigation
Temperature, K	Mole fraction of 1,2-dibromoethane	Excess molar volume, m3/mol	uncertainty
293.15	0	0	1.07e-08
293.15	0.0713	3.262e-07	1.12e-08
293.15	0.1171	5.087e-07	1.14e-08
293.15	0.1704	6.841e-07	1.17e-08
293.15	0.2858	9.382e-07	1.21e-08
293.15	0.3911	1.0568e-06	1.23e-08
293.15	0.51	1.0542e-06	1.23e-08
293.15	0.543	1.0466e-06	1.23e-08
293.15	0.5903	9.972e-07	1.22e-08
293.15	0.6875	8.289e-07	1.19e-08
293.15	0.7289	7.475e-07	1.18e-08
293.15	0.7873	6.156e-07	1.16e-08
293.15	0.8411	4.875e-07	1.14e-08
293.15	0.9006	3.299e-07	1.12e-08
293.15	0.9495	1.783e-07	1.1e-08
293.15	1	0	1.07e-08
313.15	0	0	1.07e-08
313.15	0.0713	3.052e-07	1.11e-08
313.15	0.1171	4.73e-07	1.14e-08
313.15	0.1704	6.461e-07	1.16e-08
313.15	0.2858	8.916e-07	1.2e-08
313.15	0.3911	1.0301e-06	1.22e-08
313.15	0.51	1.0806e-06	1.23e-08
313.15	0.543	1.0829e-06	1.23e-08
313.15	0.5903	1.0616e-06	1.23e-08
313.15	0.6875	9.475e-07	1.21e-08
313.15	0.7289	8.845e-07	1.2e-08
313.15	0.7873	7.62e-07	1.18e-08
313.15	0.8411	6.287e-07	1.16e-08
313.15	0.9006	4.423e-07	1.13e-08
313.15	0.9495	2.53e-07	1.11e-08
313.15	1	0	1.07e-08

System: decan-1-ol + tetrachloroethene; phases: Liquid
Fixed: Pressure, kPa = 101
Property: Speed of sound, m/s (Liquid); method: Sing-around technique in a fixed-path interferometer
Temperature, K	Mole fraction of tetrachloroethene	Speed of sound, m/s	uncertainty
293.15	0	1396.37	0.92
293.15	0.057	1378.07	0.92
293.15	0.1355	1350.22	0.91
293.15	0.2186	1319.79	0.9
293.15	0.2882	1294.8	0.89
293.15	0.3824	1260.62	0.88
293.15	0.4464	1237.25	0.87
293.15	0.499	1218.51	0.87
293.15	0.5849	1187.19	0.86
293.15	0.6417	1166.54	0.85
293.15	0.7175	1139.42	0.84
293.15	0.7786	1117.66	0.84
293.15	0.8527	1092.44	0.83
293.15	0.9003	1077.63	0.82
293.15	0.941	1065.86	0.82
293.15	1	1053.84	0.81
313.15	0	1328.65	0.9
313.15	0.057	1310.73	0.9
313.15	0.1355	1283.06	0.89
313.15	0.2186	1252.85	0.88
313.15	0.2882	1228.4	0.87
313.15	0.3824	1194.95	0.86
313.15	0.4464	1171.98	0.86
313.15	0.499	1153.47	0.85
313.15	0.5849	1122.74	0.84
313.15	0.6417	1102.89	0.83
313.15	0.7175	1075.95	0.83
313.15	0.7786	1054.09	0.82
313.15	0.8527	1029.34	0.81
313.15	0.9003	1015.01	0.81
313.15	0.941	1004.95	0.8
313.15	1	993.96	0.79

System: decan-1-ol + tetrachloroethene; phases: Liquid
Fixed: Pressure, kPa = 101
Property: Mass density, kg/m3 (Liquid); method: Vibrating tube method
Temperature, K	Mole fraction of tetrachloroethene	Mass density, kg/m3	uncertainty
293.15	0	829.991	0.135
293.15	0.057	854.607	0.156
293.15	0.1355	890.745	0.152
293.15	0.2186	932.241	0.149
293.15	0.2882	969.944	0.15
293.15	0.3824	1025.801	0.159
293.15	0.4464	1067.309	0.18
293.15	0.499	1103.862	0.203
293.15	0.5849	1168.913	0.233
293.15	0.6417	1216.012	0.262
293.15	0.7175	1284.754	0.298
293.15	0.7786	1345.733	0.337
293.15	0.8527	1427.551	0.382
293.15	0.9003	1485.311	0.419
293.15	0.941	1538.453	0.457
293.15	1	1622.395	0.41
313.15	0	816.264	0.139
313.15	0.057	840.425	0.159
313.15	0.1355	875.885	0.154
313.15	0.2186	916.585	0.15
313.15	0.2882	953.338	0.15
313.15	0.3824	1007.723	0.151
313.15	0.4464	1048.166	0.172
313.15	0.499	1083.692	0.192
313.15	0.5849	1146.945	0.221
313.15	0.6417	1192.812	0.25
313.15	0.7175	1259.722	0.285
313.15	0.7786	1319.213	0.322
313.15	0.8527	1398.721	0.365
313.15	0.9003	1455.084	0.403
313.15	0.941	1507.243	0.439
313.15	1	1588.985	0.393

System: decan-1-ol + tetrachloroethene; phases: Liquid
Fixed: Pressure, kPa = 101
Property: Excess molar volume, m3/mol (Liquid); method: Calculated with densities of this investigation
Temperature, K	Mole fraction of tetrachloroethene	Excess molar volume, m3/mol	uncertainty
293.15	0	0	1.07e-08
293.15	0.057	5.45e-08	1.08e-08
293.15	0.1355	1.319e-07	1.09e-08
293.15	0.2186	1.977e-07	1.1e-08
293.15	0.2882	2.297e-07	1.1e-08
293.15	0.3824	2.507e-07	1.1e-08
293.15	0.4464	2.565e-07	1.1e-08
293.15	0.499	2.554e-07	1.1e-08
293.15	0.5849	2.418e-07	1.1e-08
293.15	0.6417	2.295e-07	1.1e-08
293.15	0.7175	2.046e-07	1.1e-08
293.15	0.7786	1.804e-07	1.09e-08
293.15	0.8527	1.378e-07	1.09e-08
293.15	0.9003	1.047e-07	1.08e-08
293.15	0.941	6.68e-08	1.08e-08
293.15	1	0	1.07e-08
313.15	0	0	1.07e-08
313.15	0.057	4.17e-08	1.07e-08
313.15	0.1355	1.024e-07	1.08e-08
313.15	0.2186	1.522e-07	1.09e-08
313.15	0.2882	2.091e-07	1.1e-08
313.15	0.3824	2.668e-07	1.11e-08
313.15	0.4464	2.878e-07	1.11e-08
313.15	0.499	3.086e-07	1.11e-08
313.15	0.5849	3.194e-07	1.11e-08
313.15	0.6417	3.105e-07	1.11e-08
313.15	0.7175	2.885e-07	1.11e-08
313.15	0.7786	2.493e-07	1.1e-08
313.15	0.8527	2.111e-07	1.1e-08
313.15	0.9003	1.589e-07	1.09e-08
313.15	0.941	8.12e-08	1.08e-08
313.15	1	0	1.07e-08
