Measured thermophysical data. Determination and correlation of the solubility for diosgenin in alcohols solvents
Source: J. Chem. Thermodyn., 2012, 10.1016/j.jct.2012.02.002
Compound 1: Diosgenin, C27H42O3, InChI=1S/C27H42O3/c1-16-7-12-27(29-15-16)17(2)24-23(30-27)14-22-20-6-5-18-13-19(28)8-10-25(18,3)21(20)9-11-26(22,24)4/h5,16-17,19-24,28H,6-15H2,1-4H3/t16-,17+,19+,20-,21+,22+,23+,24+,25+,26+,27-/m1/s1, purity 99.5%
Compound 2: ethanol, C2H6O, InChI=1S/C2H6O/c1-2-3/h3H,2H2,1H3, purity 99.7%
Compound 3: propan-1-ol, C3H8O, InChI=1S/C3H8O/c1-2-3-4/h4H,2-3H2,1H3, purity 99.8%
Compound 4: butan-1-ol, C4H10O, InChI=1S/C4H10O/c1-2-3-4-5/h5H,2-4H2,1H3, purity 99.5%
Compound 5: 2-methyl-1-propanol, C4H10O, InChI=1S/C4H10O/c1-4(2)3-5/h4-5H,3H2,1-2H3, purity 99%
Compound 6: 2-methylpropan-2-ol, C4H10O, InChI=1S/C4H10O/c1-4(2,3)5/h5H,1-3H3, purity 99%
Compound 7: pentan-1-ol, C5H12O, InChI=1S/C5H12O/c1-2-3-4-5-6/h6H,2-5H2,1H3, purity 95%

System: ethanol + Diosgenin; phases: Liquid, Crystal
Fixed: Pressure, kPa = 101
Property: Mole fraction of Diosgenin (Liquid); method: Visual
Temperature, K	Mole fraction of Diosgenin	uncertainty
289.15	0.0010629	2.33e-05
301.05	0.0014718	3.17e-05
305.75	0.001701	3.63e-05
312.35	0.0018825	6.67e-05
312.65	0.0019631	6.77e-05
316.65	0.0022747	5e-05
320.25	0.0025343	5.51e-05
322.35	0.0026945	5.96e-05
324.05	0.002898	6.47e-05
325.65	0.0030602	6.69e-05
327.65	0.0032377	7.04e-05
329.05	0.0033753	7.26e-05
331.25	0.0035255	7.66e-05
332.35	0.0037154	8.15e-05
334.15	0.0038794	8.35e-05

System: propan-1-ol + Diosgenin; phases: Liquid, Crystal
Fixed: Pressure, kPa = 101
Property: Mole fraction of Diosgenin (Liquid); method: Visual
Temperature, K	Mole fraction of Diosgenin	uncertainty
290.15	0.0016279	3.99e-05
292.95	0.0020493	4.44e-05
295.55	0.0024309	4.21e-05
301.75	0.0027817	4.65e-05
305.25	0.0030651	5.32e-05
307.95	0.0034038	6.21e-05
310.95	0.0038962	6.73e-05
314.75	0.0042433	7.21e-05
318.15	0.0047277	8.2e-05
320.05	0.005059	8.69e-05
322.75	0.0054249	9.15e-05
326.35	0.0059046	0.0001
327.85	0.0062236	0.0001122
329.25	0.0066332	0.0001192
330.65	0.006957	0.000119
332.65	0.0073046	0.000123

System: butan-1-ol + Diosgenin; phases: Liquid, Crystal
Fixed: Pressure, kPa = 101
Property: Mole fraction of Diosgenin (Liquid); method: Visual
Temperature, K	Mole fraction of Diosgenin	uncertainty
295.75	0.0046941	7.44e-05
298.15	0.0051999	8.24e-05
300.15	0.0057228	8.08e-05
304.65	0.006245	8.49e-05
307.65	0.0065947	9.05e-05
309.65	0.0069376	9.78e-05
311.55	0.0073053	0.0001068
312.65	0.0076651	0.0001142
314.25	0.0080474	0.0001149
315.85	0.0083958	0.0001306
317.35	0.0091407	0.0001387
319.15	0.0095576	0.0001348
320.65	0.009959	0.0001382
323.45	0.0105319	0.0001444
325.45	0.0109542	0.000154
326.45	0.0113815	0.000164
328.45	0.0119797	0.0001686

System: 2-methyl-1-propanol + Diosgenin; phases: Liquid, Crystal
Fixed: Pressure, kPa = 101
Property: Mole fraction of Diosgenin (Liquid); method: Visual
Temperature, K	Mole fraction of Diosgenin	uncertainty
305.15	0.0023645	4.54e-05
306.95	0.0026646	5.66e-05
307.65	0.0029574	8.63e-05
308.65	0.0033237	6.91e-05
310.15	0.0036427	7.32e-05
311.65	0.0041589	8.51e-05
312.95	0.0045596	9.53e-05
313.85	0.0049874	0.0001094
314.85	0.0053954	0.000101
316.15	0.0058225	9.75e-05
317.65	0.0062492	9.63e-05
319.65	0.0067186	0.0001038
320.65	0.0070971	0.0001135
322.15	0.0075394	0.0001129
323.85	0.0079743	0.0001179
325.15	0.0083605	0.000123
326.95	0.008842	0.0001281
328.65	0.0093143	0.0001326
330.65	0.0097949	0.0001373

System: 2-methylpropan-2-ol + Diosgenin; phases: Liquid, Crystal
Fixed: Pressure, kPa = 101
Property: Mole fraction of Diosgenin (Liquid); method: Visual
Temperature, K	Mole fraction of Diosgenin	uncertainty
302.15	0.0008107	2.42e-05
304.65	0.001083	2.73e-05
306.65	0.0013388	3.02e-05
308.15	0.0015132	2.82e-05
310.65	0.0017451	3.21e-05
312.15	0.0019759	4.11e-05
313.65	0.0022257	5.21e-05
314.15	0.002439	5.21e-05
315.95	0.0027351	4.99e-05
317.75	0.0030665	4.78e-05
321.15	0.003434	5.02e-05
323.15	0.0036813	5.38e-05
325.15	0.0039194	6.09e-05
326.65	0.0042682	7.04e-05
328.65	0.0046739	6.99e-05
330.75	0.0049686	7.24e-05
332.45	0.0052858	7.85e-05

System: pentan-1-ol + Diosgenin; phases: Liquid, Crystal
Fixed: Pressure, kPa = 101
Property: Mole fraction of Diosgenin (Liquid); method: Visual
Temperature, K	Mole fraction of Diosgenin	uncertainty
290.75	0.0040609	6.6e-05
292.75	0.0045475	6.19e-05
296.15	0.00507	6.44e-05
299.65	0.0056633	7.35e-05
301.55	0.006147	7.99e-05
304.15	0.006629	8.1e-05
307.65	0.0072218	8.85e-05
309.85	0.0077492	9.8e-05
312.45	0.0083755	0.0001045
314.45	0.0088759	0.0001075
316.75	0.0093321	0.0001172
317.35	0.0097788	0.0001545
318.75	0.0104642	0.0001387
320.65	0.0110588	0.0001363
322.65	0.0116399	0.0001455
324.15	0.0122561	0.0001549
325.75	0.0128012	0.0001601
327.15	0.0133752	0.0001619
329.15	0.0139216	0.0001637
