Measured thermophysical data. Thermodynamic study of binary mixtures containing 1-butylpyridinium tetrafluoroborate and methanol, or ethanol
Source: J. Chem. Thermodyn., 2010, 10.1016/j.jct.2010.07.014
Compound 1: methanol, CH4O, InChI=1S/CH4O/c1-2/h2H,1H3, purity 99.8%
Compound 2: ethanol, C2H6O, InChI=1S/C2H6O/c1-2-3/h3H,2H2,1H3, purity 99.5%
Compound 3: 1-butylpyridinium tetrafluoroborate, C9H14BF4N, InChI=1S/C9H14N.BF4/c1-2-3-7-10-8-5-4-6-9-10;2-1(3,4)5/h4-6,8-9H,2-3,7H2,1H3;/q+1;-1, purity 99%

System: methanol; phases: Liquid, Gas
Property: Vapor or sublimation pressure, kPa (Liquid); method: Ebulliometric method (Recirculating still)
Temperature, K	Vapor or sublimation pressure, kPa	uncertainty
303.15	21.93	0.035
323.15	55.785	0.039

System: methanol; phases: Liquid
Fixed: Pressure, kPa = 101.325
Property: Speed of sound, m/s (Liquid); method: Sing-around technique in a fixed-path interferometer
Temperature, K	Speed of sound, m/s	uncertainty
293.15	1118.83	1.16
303.15	1085.99	1.15
313.15	1053.55	1.15
323.15	1021.53	1.14

System: methanol; phases: Liquid
Fixed: Pressure, kPa = 101.325
Property: Mass density, kg/m3 (Liquid); method: Vibrating tube method
Temperature, K	Mass density, kg/m3	uncertainty
293.15	791.243	0.125
303.15	781.813	0.129
313.15	772.287	0.132
323.15	762.628	0.136

System: ethanol; phases: Liquid, Gas
Property: Vapor or sublimation pressure, kPa (Liquid); method: Ebulliometric method (Recirculating still)
Temperature, K	Vapor or sublimation pressure, kPa	uncertainty
303.15	10.475	0.022
323.15	29.565	0.026

System: ethanol; phases: Liquid
Fixed: Pressure, kPa = 101.325
Property: Speed of sound, m/s (Liquid); method: Sing-around technique in a fixed-path interferometer
Temperature, K	Speed of sound, m/s	uncertainty
303.15	1127.2	1.25
313.15	1093.64	1.24
323.15	1060.44	1.24

System: ethanol; phases: Liquid
Fixed: Pressure, kPa = 101.325
Property: Mass density, kg/m3 (Liquid); method: Vibrating tube method
Temperature, K	Mass density, kg/m3	uncertainty
303.15	781.302	0.152
313.15	772.569	0.155
323.15	763.647	0.158

System: 1-butylpyridinium tetrafluoroborate; phases: Liquid
Fixed: Pressure, kPa = 101.325
Property: Speed of sound, m/s (Liquid); method: Sing-around technique in a fixed-path interferometer
Temperature, K	Speed of sound, m/s	uncertainty
293.15	1611.47	1.59
303.15	1588.11	1.58
313.15	1565.57	1.58
323.15	1543.45	1.57

System: 1-butylpyridinium tetrafluoroborate; phases: Liquid
Fixed: Pressure, kPa = 101.325
Property: Mass density, kg/m3 (Liquid); method: Vibrating tube method
Temperature, K	Mass density, kg/m3	uncertainty
293.15	1217.107	0.411
303.15	1210.289	0.405
313.15	1203.723	0.4
323.15	1196.678	0.394

System: methanol + 1-butylpyridinium tetrafluoroborate; phases: Liquid, Gas
Property: Vapor or sublimation pressure, kPa (Liquid); method: Ebulliometric method (Recirculating still)
Temperature, K	Mole fraction of 1-butylpyridinium tetrafluoroborate	Vapor or sublimation pressure, kPa	uncertainty
303.15	0.0372	21.34	0.139
303.15	0.0675	20.985	0.137
303.15	0.0926	20.725	0.135
303.15	0.1057	20.605	0.135
303.15	0.1118	20.56	0.135
303.15	0.1229	20.45	0.134
303.15	0.1464	20.275	0.133
303.15	0.1816	19.92	0.131
303.15	0.1999	19.68	0.13
303.15	0.214	19.285	0.129
303.15	0.2767	18.705	0.125
303.15	0.3121	18.21	0.123
303.15	0.3652	17.19	0.118
303.15	0.4138	16.295	0.115
303.15	0.4377	15.995	0.112
303.15	0.4602	15.38	0.11
303.15	0.499	14.5	0.106
303.15	0.5367	13.555	0.101
303.15	0.5803	12.62	0.097
303.15	0.6295	11.325	0.091
303.15	0.681	9.975	0.084
303.15	0.7205	8.85	0.079
323.15	0.0344	54.485	0.26
323.15	0.0653	53.485	0.256
323.15	0.0925	52.535	0.252
323.15	0.1101	52.11	0.251
323.15	0.1259	51.455	0.248
323.15	0.1452	50.97	0.246
323.15	0.191	49.525	0.241
323.15	0.2149	48.83	0.239
323.15	0.2591	46.715	0.23
323.15	0.3301	44.325	0.221
323.15	0.3644	42.615	0.215
323.15	0.395	41.26	0.21
323.15	0.4348	38.97	0.201
323.15	0.4616	37.705	0.196
323.15	0.4994	36.05	0.19
323.15	0.5454	32.745	0.177
323.15	0.5897	30.18	0.167
323.15	0.6403	26.95	0.154
323.15	0.6885	23.575	0.14
323.15	0.7225	21.38	0.131

System: methanol + 1-butylpyridinium tetrafluoroborate; phases: Liquid
Fixed: Pressure, kPa = 101
Property: Speed of sound, m/s (Liquid); method: Sing-around technique in a fixed-path interferometer
Temperature, K	Mole fraction of 1-butylpyridinium tetrafluoroborate	Speed of sound, m/s	uncertainty
293.15	0.0488	1197.42	1.27
293.15	0.0977	1256.7	1.27
293.15	0.1957	1353.22	1.28
293.15	0.2956	1424.84	1.29
293.15	0.3891	1473.14	1.32
293.15	0.4948	1512.61	1.35
293.15	0.6144	1545.24	1.4
293.15	0.6887	1561.6	1.44
293.15	0.7881	1580.3	1.48
293.15	0.8426	1589.52	1.51
293.15	0.8942	1597.49	1.53
303.15	0.0488	1172.64	1.29
303.15	0.0977	1234.71	1.27
303.15	0.1957	1330.29	1.27
303.15	0.2956	1400.44	1.29
303.15	0.3891	1450.85	1.32
303.15	0.4948	1491.59	1.35
303.15	0.6144	1522.71	1.4
303.15	0.6887	1537.89	1.43
303.15	0.7881	1558.29	1.48
303.15	0.8426	1570.76	1.51
303.15	0.8942	1582.71	1.53
313.15	0.0488	1140.07	1.28
313.15	0.0977	1204.5	1.27
313.15	0.1957	1305.34	1.27
313.15	0.2956	1378.54	1.29
313.15	0.3891	1427.09	1.31
313.15	0.4948	1466.96	1.35
313.15	0.6144	1500.12	1.4
313.15	0.6887	1516.72	1.43
313.15	0.7881	1535.7	1.47
313.15	0.8426	1544.64	1.5
313.15	0.8942	1552.62	1.53
323.15	0.0479	1108.95	1.28
323.15	0.0962	1172.9	1.28
323.15	0.1919	1281.56	1.28
323.15	0.297	1362.97	1.29
323.15	0.3894	1407.48	1.31
323.15	0.4797	1440.94	1.34
323.15	0.5889	1470.55	1.38
323.15	0.6934	1494.71	1.43
323.15	0.789	1512.71	1.47
323.15	0.8903	1529.32	1.52
323.15	0.9388	1536.08	1.54

System: methanol + 1-butylpyridinium tetrafluoroborate; phases: Liquid
Fixed: Pressure, kPa = 101
Property: Mass density, kg/m3 (Liquid); method: Vibrating tube method
Temperature, K	Mole fraction of 1-butylpyridinium tetrafluoroborate	Mass density, kg/m3	uncertainty
293.15	0.0488	879.687	0.52
293.15	0.0977	942.275	0.397
293.15	0.1957	1026.333	0.289
293.15	0.2956	1081.143	0.216
293.15	0.3891	1116.708	0.192
293.15	0.4948	1145.819	0.203
293.15	0.6144	1169.962	0.239
293.15	0.6887	1181.827	0.265
293.15	0.7881	1195.323	0.307
293.15	0.8426	1201.575	0.331
293.15	0.8942	1207.059	0.356
303.15	0.0488	870.759	0.522
303.15	0.0977	933.5	0.395
303.15	0.1957	1018.197	0.291
303.15	0.2956	1073.358	0.217
303.15	0.3891	1109.222	0.191
303.15	0.4948	1138.452	0.201
303.15	0.6144	1162.635	0.236
303.15	0.6887	1174.605	0.26
303.15	0.7881	1188.147	0.302
303.15	0.8426	1194.554	0.326
303.15	0.8942	1200.065	0.351
313.15	0.0488	862.001	0.527
313.15	0.0977	925.428	0.399
313.15	0.1957	1010.906	0.292
313.15	0.2956	1066.232	0.215
313.15	0.3891	1101.928	0.188
313.15	0.4948	1131.083	0.198
313.15	0.6144	1155.598	0.232
313.15	0.6887	1167.694	0.256
313.15	0.7881	1181.372	0.298
313.15	0.8426	1187.824	0.321
313.15	0.8942	1193.407	0.346
323.15	0.0479	852.569	0.538
323.15	0.0962	916.336	0.417
323.15	0.1919	1001.258	0.299
323.15	0.297	1059.87	0.22
323.15	0.3894	1095.101	0.19
323.15	0.4797	1120.593	0.193
323.15	0.5889	1143.962	0.22
323.15	0.6934	1161.44	0.255
323.15	0.789	1174.307	0.293
323.15	0.8903	1185.992	0.339
323.15	0.9388	1190.879	0.362

System: methanol + 1-butylpyridinium tetrafluoroborate; phases: Liquid
Fixed: Pressure, kPa = 101
Property: Excess molar volume, m3/mol (Liquid); method: Calculated with densities of this investigation
Temperature, K	Mole fraction of 1-butylpyridinium tetrafluoroborate	Excess molar volume, m3/mol	uncertainty
293.15	0.0488	-4.429e-07	9.3e-09
293.15	0.0977	-6.351e-07	1.06e-08
293.15	0.1957	-7.95e-07	1.18e-08
293.15	0.2956	-8.37e-07	1.22e-08
293.15	0.3891	-8e-07	1.19e-08
293.15	0.4948	-6.9e-07	1.1e-08
293.15	0.6144	-5.18e-07	9.7e-09
293.15	0.6887	-3.991e-07	8.9e-09
293.15	0.7881	-2.69e-07	8.4e-09
293.15	0.8426	-1.809e-07	8.2e-09
293.15	0.8942	-1.12e-07	8e-09
303.15	0.0488	-4.758e-07	9.5e-09
303.15	0.0977	-6.709e-07	1.09e-08
303.15	0.1957	-8.494e-07	1.23e-08
303.15	0.2956	-8.925e-07	1.27e-08
303.15	0.3891	-8.573e-07	1.24e-08
303.15	0.4948	-7.329e-07	1.13e-08
303.15	0.6144	-5.36e-07	9.8e-09
303.15	0.6887	-4.111e-07	9e-09
303.15	0.7881	-2.637e-07	8.4e-09
303.15	0.8426	-1.837e-07	8.2e-09
303.15	0.8942	-1.075e-07	8e-09
313.15	0.0488	-5.231e-07	9.9e-09
313.15	0.0977	-7.515e-07	1.15e-08
313.15	0.1957	-9.61e-07	1.33e-08
313.15	0.2956	-9.947e-07	1.35e-08
313.15	0.3891	-9.226e-07	1.29e-08
313.15	0.4948	-7.615e-07	1.16e-08
313.15	0.6144	-5.661e-07	1e-08
313.15	0.6887	-4.365e-07	9.1e-09
313.15	0.7881	-2.818e-07	8.4e-09
313.15	0.8426	-1.95e-07	8.2e-09
313.15	0.8942	-1.168e-07	8e-09
323.15	0.0479	-6.17e-07	1.06e-08
323.15	0.0962	-8.847e-07	1.27e-08
323.15	0.1919	-1.1117e-06	1.46e-08
323.15	0.297	-1.1389e-06	1.48e-08
323.15	0.3894	-1.0573e-06	1.41e-08
323.15	0.4797	-9.132e-07	1.29e-08
323.15	0.5889	-7.001e-07	1.11e-08
323.15	0.6934	-5.026e-07	9.6e-09
323.15	0.789	-3.066e-07	8.5e-09
323.15	0.8903	-1.503e-07	8.1e-09
323.15	0.9388	-7.27e-08	7.9e-09

System: ethanol + 1-butylpyridinium tetrafluoroborate; phases: Liquid, Gas
Property: Vapor or sublimation pressure, kPa (Liquid); method: Ebulliometric method (Recirculating still)
Temperature, K	Mole fraction of 1-butylpyridinium tetrafluoroborate	Vapor or sublimation pressure, kPa	uncertainty
303.15	0.0342	10.359	0.088
303.15	0.0466	10.353	0.088
303.15	0.061	10.35	0.088
303.15	0.0823	10.338	0.088
303.15	0.1052	10.326	0.088
303.15	0.1227	10.312	0.088
303.15	0.1493	10.289	0.088
303.15	0.1671	10.275	0.088
303.15	0.2111	10.2	0.087
303.15	0.2458	10.13	0.087
303.15	0.2859	10.085	0.086
303.15	0.3406	10.005	0.086
303.15	0.3695	9.8	0.085
303.15	0.4214	9.555	0.083
303.15	0.4491	9.275	0.082
303.15	0.4669	9.095	0.081
303.15	0.5005	9.075	0.081
303.15	0.525	8.75	0.079
303.15	0.5655	8.3	0.077
303.15	0.585	8.205	0.077
303.15	0.6312	7.75	0.074
303.15	0.678	7.1	0.071
303.15	0.7195	6.515	0.068
323.15	0.0343	29.253	0.16
323.15	0.0424	29.251	0.16
323.15	0.0534	29.155	0.159
323.15	0.0607	29.153	0.159
323.15	0.0851	28.846	0.158
323.15	0.1018	28.829	0.158
323.15	0.1171	28.73	0.158
323.15	0.1585	28.625	0.158
323.15	0.1736	28.61	0.158
323.15	0.212	28.35	0.157
323.15	0.246	28.065	0.156
323.15	0.2863	27.805	0.155
323.15	0.3335	27.15	0.152
323.15	0.371	26.35	0.149
323.15	0.4375	25.36	0.145
323.15	0.4792	24.44	0.142
323.15	0.4912	24.065	0.14
323.15	0.5175	23.255	0.137
323.15	0.5529	22.24	0.133
323.15	0.5865	21.515	0.13
323.15	0.6305	20.105	0.124
323.15	0.6795	18.125	0.116
323.15	0.7207	16.45	0.109

System: ethanol + 1-butylpyridinium tetrafluoroborate; phases: Liquid
Fixed: Pressure, kPa = 101
Property: Speed of sound, m/s (Liquid); method: Sing-around technique in a fixed-path interferometer
Temperature, K	Mole fraction of 1-butylpyridinium tetrafluoroborate	Speed of sound, m/s	uncertainty
303.15	0.052	1163.66	1.3
303.15	0.1001	1199.41	1.32
303.15	0.1948	1275.73	1.34
303.15	0.2926	1345.6	1.37
303.15	0.4211	1419.29	1.4
303.15	0.4994	1454.73	1.42
303.15	0.5864	1488.58	1.45
303.15	0.6705	1514.62	1.48
303.15	0.7771	1542.89	1.51
303.15	0.853	1555.37	1.53
303.15	0.928	1575.2	1.56
313.15	0.052	1135.28	1.3
313.15	0.1001	1175.84	1.32
313.15	0.1948	1256.11	1.34
313.15	0.2926	1329.66	1.36
313.15	0.4211	1397.75	1.4
313.15	0.4994	1433.11	1.42
313.15	0.5864	1466.52	1.45
313.15	0.6705	1492.52	1.47
313.15	0.7771	1520.85	1.51
313.15	0.853	1532.86	1.53
313.15	0.928	1551.55	1.56
323.15	0.052	1106.26	1.31
323.15	0.1001	1150.57	1.32
323.15	0.1948	1233.5	1.34
323.15	0.2926	1306.25	1.36
323.15	0.4211	1374.79	1.4
323.15	0.4994	1409.38	1.42
323.15	0.5864	1444.76	1.44
323.15	0.6705	1470.41	1.47
323.15	0.7771	1498.79	1.5
323.15	0.853	1511.85	1.53
323.15	0.928	1529.76	1.55

System: ethanol + 1-butylpyridinium tetrafluoroborate; phases: Liquid
Fixed: Pressure, kPa = 101
Property: Mass density, kg/m3 (Liquid); method: Vibrating tube method
Temperature, K	Mole fraction of 1-butylpyridinium tetrafluoroborate	Mass density, kg/m3	uncertainty
303.15	0.052	847.832	0.436
303.15	0.1001	897.797	0.367
303.15	0.1948	973.476	0.296
303.15	0.2926	1030.719	0.236
303.15	0.4211	1085.703	0.241
303.15	0.4994	1111.764	0.245
303.15	0.5864	1135.858	0.266
303.15	0.6705	1155.664	0.289
303.15	0.7771	1176.64	0.325
303.15	0.853	1189.347	0.351
303.15	0.928	1200.508	0.379
313.15	0.052	839.44	0.439
313.15	0.1001	889.694	0.368
313.15	0.1948	965.738	0.299
313.15	0.2926	1023.176	0.235
313.15	0.4211	1078.407	0.24
313.15	0.4994	1104.55	0.242
313.15	0.5864	1128.787	0.262
313.15	0.6705	1148.758	0.285
313.15	0.7771	1169.849	0.321
313.15	0.853	1182.679	0.346
313.15	0.928	1193.904	0.374
323.15	0.052	831.13	0.444
323.15	0.1001	881.888	0.377
323.15	0.1948	958.529	0.305
323.15	0.2926	1015.984	0.238
323.15	0.4211	1071.243	0.238
323.15	0.4994	1097.259	0.238
323.15	0.5864	1121.559	0.258
323.15	0.6705	1141.656	0.281
323.15	0.7771	1162.783	0.316
323.15	0.853	1175.665	0.341
323.15	0.928	1186.934	0.369

System: ethanol + 1-butylpyridinium tetrafluoroborate; phases: Liquid
Fixed: Pressure, kPa = 101
Property: Excess molar volume, m3/mol (Liquid); method: Calculated with densities of this investigation
Temperature, K	Mole fraction of 1-butylpyridinium tetrafluoroborate	Excess molar volume, m3/mol	uncertainty
303.15	0.052	-2.9e-07	8.5e-09
303.15	0.1001	-4.65e-07	9.4e-09
303.15	0.1948	-6.406e-07	1.06e-08
303.15	0.2926	-7.002e-07	1.11e-08
303.15	0.4211	-6.662e-07	1.08e-08
303.15	0.4994	-6.187e-07	1.04e-08
303.15	0.5864	-5.319e-07	9.8e-09
303.15	0.6705	-4.538e-07	9.2e-09
303.15	0.7771	-3.21e-07	8.5e-09
303.15	0.853	-2.061e-07	8.2e-09
303.15	0.928	-8.93e-08	8e-09
313.15	0.052	-3.224e-07	8.6e-09
313.15	0.1001	-5.184e-07	9.7e-09
313.15	0.1948	-7.102e-07	1.12e-08
313.15	0.2926	-7.66e-07	1.16e-08
313.15	0.4211	-7.24e-07	1.13e-08
313.15	0.4994	-6.646e-07	1.08e-08
313.15	0.5864	-5.707e-07	1.01e-08
313.15	0.6705	-4.905e-07	9.5e-09
313.15	0.7771	-3.449e-07	8.6e-09
313.15	0.853	-2.276e-07	8.3e-09
313.15	0.928	-1.011e-07	8e-09
323.15	0.052	-3.813e-07	9e-09
323.15	0.1001	-6.2e-07	1.05e-08
323.15	0.1948	-8.562e-07	1.24e-08
323.15	0.2926	-9.008e-07	1.27e-08
323.15	0.4211	-8.386e-07	1.22e-08
323.15	0.4994	-7.491e-07	1.15e-08
323.15	0.5864	-6.429e-07	1.06e-08
323.15	0.6705	-5.593e-07	1e-08
323.15	0.7771	-3.943e-07	8.9e-09
323.15	0.853	-2.666e-07	8.4e-09
323.15	0.928	-1.293e-07	8.1e-09
