Measured thermophysical data. Physical properties of ionic liquids based on 1-alkyl-3-methylimidazolium cation and hexafluorophosphate as anion and temperature dependence
Source: J. Chem. Thermodyn., 2007, 10.1016/j.jct.2006.12.005
Compound 1: 1-butyl-3-methylimidazolium hexafluorophosphate, C8H15F6N2P, InChI=1S/C8H15N2.F6P/c1-3-4-5-10-7-6-9(2)8-10;1-7(2,3,4,5)6/h6-8H,3-5H2,1-2H3;/q+1;-1
Compound 2: 1-octyl-3-methylimidazolium hexafluorophosphate, C12H23F6N2P, InChI=1S/C12H23N2.F6P/c1-3-4-5-6-7-8-9-14-11-10-13(2)12-14;1-7(2,3,4,5)6/h10-12H,3-9H2,1-2H3;/q+1;-1
Compound 3: 1-hexyl-3-methylimidazolium hexafluorophosphate, C10H19F6N2P, InChI=1S/C10H19N2.F6P/c1-3-4-5-6-7-12-9-8-11(2)10-12;1-7(2,3,4,5)6/h8-10H,3-7H2,1-2H3;/q+1;-1

System: 1-butyl-3-methylimidazolium hexafluorophosphate; phases: Liquid, Gas
Property: Surface tension liquid-gas, N/m (Liquid); method: Ring tensiometer
Temperature, K	Surface tension liquid-gas, N/m	uncertainty
288.15	0.0437	0.0012
293.15	0.0432	0.0012
298.15	0.0429	0.0012
303.15	0.0426	0.0012
308.15	0.0422	0.0012
313.15	0.0418	0.0012

System: 1-butyl-3-methylimidazolium hexafluorophosphate; phases: Liquid
Fixed: Pressure, kPa = 101.325
Property: Viscosity, Pa*s (Liquid); method: Capillary tube (Ostwald; Ubbelohde) method
Temperature, K	Viscosity, Pa*s	uncertainty
293.15	0.34049	0.01395
298.15	0.24706	0.00911
303.15	0.18423	0.00616
308.15	0.14057	0.0043
313.15	0.1089	0.00309
318.15	0.0859	0.00229
323.15	0.06879	0.00176

System: 1-butyl-3-methylimidazolium hexafluorophosphate; phases: Liquid
Fixed: Pressure, kPa = 101.325
Property: Refractive index (Na D-line) (Liquid); method: Standard Abbe refractometry
Temperature, K	Refractive index (Na D-line)	uncertainty
283.15	1.41332	0.00108
288.15	1.41198	0.00108
293.15	1.41069	0.00108
298.15	1.40937	0.00108
303.15	1.40808	0.00108
308.15	1.40674	0.00108
313.15	1.40543	0.00108
318.15	1.40411	0.00108
323.15	1.40282	0.00108
328.15	1.40151	0.00108
333.15	1.40024	0.00108
338.15	1.39896	0.00108
343.15	1.39771	0.00108

System: 1-butyl-3-methylimidazolium hexafluorophosphate; phases: Liquid
Fixed: Pressure, kPa = 101.325
Property: Speed of sound, m/s (Liquid); method: VIBRATING TUBE DENSIMETER
Temperature, K	Speed of sound, m/s	uncertainty
278.15	1492.5	5
283.15	1480.8	5
288.15	1468.2	5
293.15	1455.3	5
298.15	1442.8	5
303.15	1430.6	5
308.15	1419	5
313.15	1406.4	5
318.15	1394.9	5
323.15	1383.5	5
328.15	1372.2	5
333.15	1360.9	5
338.15	1349.2	5
343.15	1337.2	5

System: 1-butyl-3-methylimidazolium hexafluorophosphate; phases: Liquid
Fixed: Pressure, kPa = 101.325
Property: Mass density, kg/m3 (Liquid); method: Vibrating tube method
Temperature, K	Mass density, kg/m3	uncertainty
278.15	1384.36	10.46
283.15	1380.1	10.4
288.15	1375.83	10.33
293.15	1371.56	10.27
298.15	1367.3	10.21
303.15	1363.03	10.14
308.15	1358.76	10.08
313.15	1354.53	10.01
318.15	1350.32	9.95
323.15	1346.12	9.89
328.15	1341.97	9.83
333.15	1337.83	9.77
338.15	1333.7	9.71
343.15	1329.61	9.65

System: 1-octyl-3-methylimidazolium hexafluorophosphate; phases: Liquid, Gas
Property: Surface tension liquid-gas, N/m (Liquid); method: Ring tensiometer
Temperature, K	Surface tension liquid-gas, N/m	uncertainty
293.15	0.0365	0.001
298.15	0.0362	0.001
303.15	0.0359	0.001
308.15	0.0356	0.001
313.15	0.0352	0.001

System: 1-octyl-3-methylimidazolium hexafluorophosphate; phases: Liquid
Fixed: Pressure, kPa = 101.325
Property: Viscosity, Pa*s (Liquid); method: Capillary tube (Ostwald; Ubbelohde) method
Temperature, K	Viscosity, Pa*s	uncertainty
293.15	0.99908	0.05629
298.15	0.6906	0.03514
303.15	0.48902	0.02246
308.15	0.35531	0.01476
313.15	0.26323	0.00992
318.15	0.19623	0.0067
323.15	0.15057	0.00471

System: 1-octyl-3-methylimidazolium hexafluorophosphate; phases: Liquid
Fixed: Pressure, kPa = 101.325
Property: Refractive index (Na D-line) (Liquid); method: Standard Abbe refractometry
Temperature, K	Refractive index (Na D-line)	uncertainty
283.15	1.42716	0.00108
288.15	1.42578	0.00108
293.15	1.4244	0.00108
298.15	1.42302	0.00108
303.15	1.42165	0.00108
308.15	1.42028	0.00108
313.15	1.41887	0.00108
318.15	1.41749	0.00108
323.15	1.4161	0.00108
328.15	1.41471	0.00108
333.15	1.41334	0.00108
338.15	1.41195	0.00108
343.15	1.41056	0.00108

System: 1-octyl-3-methylimidazolium hexafluorophosphate; phases: Liquid
Fixed: Pressure, kPa = 101.325
Property: Speed of sound, m/s (Liquid); method: VIBRATING TUBE DENSIMETER
Temperature, K	Speed of sound, m/s	uncertainty
278.15	1481.6	5
283.15	1460	5
288.15	1440.8	5
293.15	1423.7	5
298.15	1407.8	5
303.15	1393	5
308.15	1378.9	5
313.15	1365.8	5
318.15	1353.2	5
323.15	1341	5
328.15	1329.1	5
333.15	1317.5	5
338.15	1305.8	5
343.15	1294.6	5

System: 1-octyl-3-methylimidazolium hexafluorophosphate; phases: Liquid
Fixed: Pressure, kPa = 101.325
Property: Mass density, kg/m3 (Liquid); method: Vibrating tube method
Temperature, K	Mass density, kg/m3	uncertainty
278.15	1251.83	8.54
283.15	1247.65	8.48
288.15	1243.43	8.42
293.15	1239.57	8.37
298.15	1235.72	8.32
303.15	1231.88	8.26
308.15	1228.04	8.21
313.15	1224.21	8.16
318.15	1220.37	8.11
323.15	1216.62	8.06
328.15	1212.92	8.01
333.15	1209.21	7.96
338.15	1205.51	7.91
343.15	1201.82	7.86

System: 1-hexyl-3-methylimidazolium hexafluorophosphate; phases: Liquid, Gas
Property: Surface tension liquid-gas, N/m (Liquid); method: Ring tensiometer
Temperature, K	Surface tension liquid-gas, N/m	uncertainty
293.15	0.0375	0.0011
298.15	0.0371	0.0011
303.15	0.0368	0.0011
308.15	0.0365	0.001
313.15	0.0361	0.001

System: 1-hexyl-3-methylimidazolium hexafluorophosphate; phases: Liquid
Fixed: Pressure, kPa = 101.325
Property: Viscosity, Pa*s (Liquid); method: Capillary tube (Ostwald; Ubbelohde) method
Temperature, K	Viscosity, Pa*s	uncertainty
293.15	0.67682	0.03423
298.15	0.47566	0.02167
303.15	0.34252	0.01407
308.15	0.25269	0.00939
313.15	0.18736	0.0063
318.15	0.14358	0.00442
323.15	0.1119	0.0032

System: 1-hexyl-3-methylimidazolium hexafluorophosphate; phases: Liquid
Fixed: Pressure, kPa = 101.325
Property: Speed of sound, m/s (Liquid); method: VIBRATING TUBE DENSIMETER
Temperature, K	Speed of sound, m/s	uncertainty
278.15	1490.7	5
283.15	1470.8	5
288.15	1453.6	5
293.15	1438.3	5
298.15	1424.2	5
303.15	1411	5
308.15	1398.5	5
313.15	1386.4	5
318.15	1374.6	5
323.15	1363	5
328.15	1351.7	5
333.15	1340.3	5
338.15	1329.3	5
343.15	1318.4	5
