Measured thermophysical data. Experimental determination and correlation of the solubility of 4-hydroxy-2,5-dimethyl-3(2H)-furanone (DMHF) in six different solvents
Source: J. Chem. Thermodyn., 2015, 10.1016/j.jct.2015.08.028
Compound 1: 4-hydroxy-2,5-dimethyl-3(2H)-furanone, C6H8O3, InChI=1S/C6H8O3/c1-3-5(7)6(8)4(2)9-3/h3,8H,1-2H3, purity 99.5%
Compound 2: methanol, CH4O, InChI=1S/CH4O/c1-2/h2H,1H3, purity 99.6%
Compound 3: ethanol, C2H6O, InChI=1S/C2H6O/c1-2-3/h3H,2H2,1H3, purity 99.8%
Compound 4: propan-1-ol, C3H8O, InChI=1S/C3H8O/c1-2-3-4/h4H,2-3H2,1H3, purity 99.7%
Compound 5: butan-1-ol, C4H10O, InChI=1S/C4H10O/c1-2-3-4-5/h5H,2-4H2,1H3, purity 99.6%
Compound 6: hexane, C6H14, InChI=1S/C6H14/c1-3-5-6-4-2/h3-6H2,1-2H3, purity 99.6%
Compound 7: water, H2O, InChI=1S/H2O/h1H2

System: 4-hydroxy-2,5-dimethyl-3(2H)-furanone; phases: Crystal, Liquid, Air at 1 atmosphere
Property: Normal melting temperature, K (Crystal); method: DTA
Normal melting temperature, K	uncertainty
353.9	1.6

System: 4-hydroxy-2,5-dimethyl-3(2H)-furanone; phases: Crystal, Liquid, Air at 1 atmosphere
Property: Molar enthalpy of transition or fusion, kJ/mol (Crystal); method: DSC
Molar enthalpy of transition or fusion, kJ/mol	uncertainty
19.3	0.5

System: methanol + 4-hydroxy-2,5-dimethyl-3(2H)-furanone; phases: Liquid, Crystal
Fixed: Pressure, kPa = 100
Property: Mole fraction of 4-hydroxy-2,5-dimethyl-3(2H)-furanone (Liquid); method: Titration method
Temperature, K	Mole fraction of 4-hydroxy-2,5-dimethyl-3(2H)-furanone	uncertainty
283.15	0.1429	0.0143
288.15	0.1741	0.0174
293.15	0.2099	0.021
298.15	0.2567	0.0257
303.15	0.31	0.031
308.15	0.3739	0.0374
313.15	0.4491	0.0449

System: methanol + 4-hydroxy-2,5-dimethyl-3(2H)-furanone; phases: Liquid, Crystal
Fixed: Pressure, kPa = 100
Property: Mole fraction of 4-hydroxy-2,5-dimethyl-3(2H)-furanone (Liquid); method: gravimetric
Temperature, K	Mole fraction of 4-hydroxy-2,5-dimethyl-3(2H)-furanone	uncertainty
283.15	0.1428	0.0143
288.15	0.1743	0.0174
293.15	0.2095	0.021
298.15	0.2472	0.0247
303.15	0.3001	0.03
308.15	0.3787	0.0379
313.15	0.4488	0.0449

System: ethanol + 4-hydroxy-2,5-dimethyl-3(2H)-furanone; phases: Liquid, Crystal
Fixed: Pressure, kPa = 100
Property: Mole fraction of 4-hydroxy-2,5-dimethyl-3(2H)-furanone (Liquid); method: Titration method
Temperature, K	Mole fraction of 4-hydroxy-2,5-dimethyl-3(2H)-furanone	uncertainty
283.15	0.1201	0.012
288.15	0.1508	0.0151
293.15	0.1881	0.0188
298.15	0.2341	0.0234
303.15	0.2867	0.0287
308.15	0.3513	0.0352
313.15	0.4271	0.0427

System: ethanol + 4-hydroxy-2,5-dimethyl-3(2H)-furanone; phases: Liquid, Crystal
Fixed: Pressure, kPa = 100
Property: Mole fraction of 4-hydroxy-2,5-dimethyl-3(2H)-furanone (Liquid); method: gravimetric
Temperature, K	Mole fraction of 4-hydroxy-2,5-dimethyl-3(2H)-furanone	uncertainty
283.15	0.1191	0.0119
288.15	0.1489	0.0149
293.15	0.1906	0.0191
298.15	0.2372	0.0237
303.15	0.2892	0.0289
308.15	0.3492	0.035
313.15	0.4255	0.0426

System: propan-1-ol + 4-hydroxy-2,5-dimethyl-3(2H)-furanone; phases: Liquid, Crystal
Fixed: Pressure, kPa = 100
Property: Mole fraction of 4-hydroxy-2,5-dimethyl-3(2H)-furanone (Liquid); method: Titration method
Temperature, K	Mole fraction of 4-hydroxy-2,5-dimethyl-3(2H)-furanone	uncertainty
283.15	0.1104	0.0111
288.15	0.1381	0.0138
293.15	0.1738	0.0174
298.15	0.2161	0.0216
303.15	0.2681	0.0268
308.15	0.3317	0.0332
313.15	0.4082	0.0409

System: propan-1-ol + 4-hydroxy-2,5-dimethyl-3(2H)-furanone; phases: Liquid, Crystal
Fixed: Pressure, kPa = 100
Property: Mole fraction of 4-hydroxy-2,5-dimethyl-3(2H)-furanone (Liquid); method: gravimetric
Temperature, K	Mole fraction of 4-hydroxy-2,5-dimethyl-3(2H)-furanone	uncertainty
283.15	0.1115	0.0112
288.15	0.1325	0.0133
293.15	0.1772	0.0177
298.15	0.2174	0.0218
303.15	0.2736	0.0274
308.15	0.3355	0.0336
313.15	0.3983	0.0399

System: butan-1-ol + 4-hydroxy-2,5-dimethyl-3(2H)-furanone; phases: Liquid, Crystal
Fixed: Pressure, kPa = 100
Property: Mole fraction of 4-hydroxy-2,5-dimethyl-3(2H)-furanone (Liquid); method: Titration method
Temperature, K	Mole fraction of 4-hydroxy-2,5-dimethyl-3(2H)-furanone	uncertainty
283.15	0.0954	0.0096
288.15	0.1236	0.0124
293.15	0.1561	0.0156
298.15	0.1962	0.0196
303.15	0.2466	0.0247
308.15	0.3071	0.0307
313.15	0.3821	0.0382

System: butan-1-ol + 4-hydroxy-2,5-dimethyl-3(2H)-furanone; phases: Liquid, Crystal
Fixed: Pressure, kPa = 100
Property: Mole fraction of 4-hydroxy-2,5-dimethyl-3(2H)-furanone (Liquid); method: gravimetric
Temperature, K	Mole fraction of 4-hydroxy-2,5-dimethyl-3(2H)-furanone	uncertainty
283.15	0.0949	0.0095
288.15	0.1223	0.0122
293.15	0.1521	0.0152
298.15	0.1954	0.0196
303.15	0.2557	0.0256
308.15	0.3103	0.0311
313.15	0.3842	0.0385

System: hexane + 4-hydroxy-2,5-dimethyl-3(2H)-furanone; phases: Liquid, Crystal
Fixed: Pressure, kPa = 100
Property: Mole fraction of 4-hydroxy-2,5-dimethyl-3(2H)-furanone (Liquid); method: Titration method
Temperature, K	Mole fraction of 4-hydroxy-2,5-dimethyl-3(2H)-furanone	uncertainty
283.15	0.0054	0.0005
288.15	0.0073	0.0007
293.15	0.0096	0.001
298.15	0.0125	0.0013
303.15	0.0163	0.0016
308.15	0.0211	0.0021
313.15	0.0271	0.0027

System: hexane + 4-hydroxy-2,5-dimethyl-3(2H)-furanone; phases: Liquid, Crystal
Fixed: Pressure, kPa = 100
Property: Mole fraction of 4-hydroxy-2,5-dimethyl-3(2H)-furanone (Liquid); method: gravimetric
Temperature, K	Mole fraction of 4-hydroxy-2,5-dimethyl-3(2H)-furanone	uncertainty
283.15	0.0052	0.0005
288.15	0.0072	0.0007
293.15	0.0093	0.0009
298.15	0.013	0.0013
303.15	0.0171	0.0017
308.15	0.0208	0.0021
313.15	0.0281	0.0028

System: 4-hydroxy-2,5-dimethyl-3(2H)-furanone + water; phases: Liquid, Crystal
Fixed: Pressure, kPa = 100
Property: Mole fraction of 4-hydroxy-2,5-dimethyl-3(2H)-furanone (Liquid); method: Titration method
Temperature, K	Mole fraction of 4-hydroxy-2,5-dimethyl-3(2H)-furanone	uncertainty
283.15	0.0091	0.0009
288.15	0.015	0.0015
293.15	0.0251	0.0025
298.15	0.0408	0.0041
303.15	0.0665	0.0067
308.15	0.1074	0.0108
313.15	0.1731	0.0174

System: 4-hydroxy-2,5-dimethyl-3(2H)-furanone + water; phases: Liquid, Crystal
Fixed: Pressure, kPa = 100
Property: Mole fraction of 4-hydroxy-2,5-dimethyl-3(2H)-furanone (Liquid); method: gravimetric
Temperature, K	Mole fraction of 4-hydroxy-2,5-dimethyl-3(2H)-furanone	uncertainty
283.15	0.0093	0.0009
288.15	0.0155	0.0016
293.15	0.0259	0.0026
298.15	0.0401	0.004
303.15	0.0664	0.0067
308.15	0.1088	0.0109
313.15	0.1752	0.0176
