Measured thermophysical data. (Liquid + liquid) equilibria for ternary mixtures of (water + propionic acid + organic solvent) at T = 303.2 K
Source: J. Chem. Thermodyn., 2010, 10.1016/j.jct.2009.08.014
Compound 1: water, H2O, InChI=1S/H2O/h1H2, purity 99%
Compound 2: propanoic acid, C3H6O2, InChI=1S/C3H6O2/c1-2-3(4)5/h2H2,1H3,(H,4,5), purity 99%
Compound 3: cyclohexane, C6H12, InChI=1S/C6H12/c1-2-4-6-5-3-1/h1-6H2, purity 99%
Compound 4: toluene, C7H8, InChI=1S/C7H8/c1-7-5-3-2-4-6-7/h2-6H,1H3, purity 99%
Compound 5: methylcyclohexane, C7H14, InChI=1S/C7H14/c1-7-5-3-2-4-6-7/h7H,2-6H2,1H3, purity 99%

System: propanoic acid + cyclohexane + water; phases: Liquid mixture 1, Liquid mixture 2
Fixed: Temperature, K = 303.2
Fixed: Pressure, kPa = 101.32
Property: Mole fraction of water (Liquid mixture 1); method: Chromatography
Property: Mole fraction of water (Liquid mixture 2); method: Chromatography
Property: Mole fraction of propanoic acid (Liquid mixture 2); method: Chromatography
Mole fraction of propanoic acid	Mole fraction of water	uncertainty	Mole fraction of water	uncertainty	Mole fraction of propanoic acid	uncertainty
0.1716	0.828	0.0019	0.0013	0.001	0.0461	
0.2218	0.7777	0.0021	0.0014	0.001	0.065	
0.3038	0.6953	0.0026	0.0015	0.001	0.1022	
0.3742	0.6237	0.0031	0.0017	0.001	0.137	
0.4425	0.5532	0.0036	0.002	0.001	0.1702	

System: propanoic acid + toluene + water; phases: Liquid mixture 1, Liquid mixture 2
Fixed: Temperature, K = 302.2
Fixed: Pressure, kPa = 101.32
Property: Mole fraction of water (Liquid mixture 1); method: Chromatography
Property: Mole fraction of water (Liquid mixture 2); method: Chromatography
Property: Mole fraction of propanoic acid (Liquid mixture 2); method: Chromatography
Mole fraction of propanoic acid	Mole fraction of water	uncertainty	Mole fraction of water	uncertainty	Mole fraction of propanoic acid	uncertainty
0.124	0.8758	0.0017	0.0058	0.001	0.1244	
0.1735	0.8262	0.0019	0.0069	0.001	0.1791	
0.2252	0.7744	0.0021	0.0087	0.001	0.235	
0.329	0.6704	0.0027	0.0107	0.001	0.3101	
0.4059	0.5933	0.0033	0.0119	0.001	0.3528	

System: propanoic acid + methylcyclohexane + water; phases: Liquid mixture 1, Liquid mixture 2
Fixed: Temperature, K = 303.2
Fixed: Pressure, kPa = 101.32
Property: Mole fraction of water (Liquid mixture 1); method: Chromatography
Property: Mole fraction of water (Liquid mixture 2); method: Chromatography
Property: Mole fraction of propanoic acid (Liquid mixture 2); method: Chromatography
Mole fraction of propanoic acid	Mole fraction of water	uncertainty	Mole fraction of water	uncertainty	Mole fraction of propanoic acid	uncertainty
0.2041	0.7956	0.002	0.003	0.001	0.0305	
0.2991	0.7005	0.0025	0.0032	0.001	0.0458	
0.4046	0.5949	0.0033	0.0036	0.001	0.0696	
0.4986	0.5008	0.004	0.0039	0.001	0.1093	
0.5507	0.4483	0.0036	0.0044	0.001	0.1443	
