Measured thermophysical data. The low-temperature heat capacity and standard entropy  of synthetic huttonite ThSiO4
Source: J. Chem. Thermodyn., 2008, 10.1016/j.jct.2008.02.001
Compound 1: thorium silicate, O4SiTh, InChI=1S/O4Si.Th/c1-5(2,3)4;/q-4;+4

System: thorium silicate; phases: Crystal
Fixed: Pressure, kPa = 101.325
Property: Molar heat capacity at constant pressure, J/K/mol (Crystal); method: PPMS-Quantum Design
Temperature, K	Molar heat capacity at constant pressure, J/K/mol	uncertainty
302.26	99.175	6.909
291.84	98.011	6.826
282.08	96.498	6.718
272.64	95.018	6.618
263.54	93.588	6.519
254.74	92.008	6.41
246.25	90.437	6.294
238.01	88.632	6.169
230.05	86.811	6.045
222.36	85.173	5.928
214.93	83.344	5.804
207.73	81.56	5.68
200.79	79.76	5.55
194.08	77.96	5.43
187.59	75.84	5.28
181.32	74.15	5.16
175.25	72.2	5.03
169.39	70.23	4.89
163.72	68.4	4.76
158.25	66.54	4.63
152.97	64.6	4.5
147.86	62.82	4.37
142.91	60.93	4.24
138.13	59.1	4.12
11.48	0.2483	0.0174
11.1	0.2188	0.0153
10.73	0.1934	0.0136
10.37	0.1707	0.012
10.02	0.1509	0.0106
9.685	0.1338	0.0094
9.352	0.1182	0.0083
9.036	0.1048	0.0073
8.734	0.09321	0.00657
8.441	0.08256	0.00579
8.158	0.07389	0.00518
7.885	0.06632	0.00465
7.62	0.05923	0.00416
7.362	0.05303	0.00372
133.51	57.22	3.98
129.04	55.37	3.86
124.73	53.61	3.73
120.55	51.87	3.61
116.51	50.09	3.49
112.61	48.32	3.37
108.84	46.57	3.24
105.2	44.86	3.13
101.68	43.16	3.01
98.28	41.48	2.89
94.98	39.83	2.78
91.81	38.21	2.66
88.74	36.63	2.55
85.77	35.08	2.44
82.99	33.67	2.34
80.21	32.24	2.24
77.52	30.84	2.15
74.93	29.51	2.05
72.42	28.19	1.96
69.99	26.91	1.87
67.65	25.63	1.79
65.39	24.39	1.7
63.21	23.21	1.61
61.1	22.12	1.54
7.113	0.04768	0.00335
6.869	0.04281	0.00301
6.631	0.03824	0.00269
6.401	0.03406	0.00239
6.175	0.03065	0.00215
5.956	0.02725	0.00192
5.744	0.02438	0.00172
5.54	0.02152	0.00152
5.343	0.01921	0.00136
5.151	0.01714	0.00121
4.968	0.01533	0.00109
4.798	0.01391	0.00098
4.637	0.0127	0.0009
4.483	0.01148	0.00081
59.06	20.99	1.46
57.08	19.9	1.39
55.17	18.86	1.31
53.32	17.83	1.24
51.54	16.84	1.17
49.84	15.88	1.11
48.19	15	1.05
46.58	14.12	0.98
45.03	13.28	0.92
43.53	12.5	0.87
42.03	11.71	0.81
40.71	10.97	0.76
39.38	10.24	0.72
38.05	9.736	0.682
36.76	8.996	0.624
35.54	8.309	0.579
34.36	7.779	0.542
33.08	7.146	0.498
31.93	6.6	0.46
30.85	6.085	0.424
29.81	5.6	0.39
28.82	5.152	0.359
27.88	4.727	0.329
26.91	4.308	0.3
4.338	0.01046	0.00074
4.198	0.009528	0.000673
4.063	0.008647	0.000615
3.935	0.007954	0.000565
3.812	0.00739	0.000525
3.69	0.00688	0.00049
3.573	0.006259	0.000446
3.463	0.005793	0.000412
3.353	0.005336	0.000381
3.243	0.004896	0.00035
3.136	0.004482	0.00032
3.038	0.004121	0.000294
2.936	0.003794	0.000272
2.842	0.0035	0.000251
25.98	3.941	0.274
25.16	3.599	0.251
24.27	3.257	0.227
23.5	2.973	0.207
22.7	2.683	0.187
21.97	2.428	0.17
21.22	2.185	0.152
20.51	1.965	0.137
19.81	1.761	0.123
19.15	1.576	0.11
18.52	1.411	0.098
17.89	1.255	0.087
17.29	1.117	0.078
16.71	0.9903	0.069
16.14	0.8747	0.0607
15.61	0.7739	0.054
15.08	0.6838	0.0477
14.58	0.603	0.0421
14.09	0.5314	0.0371
13.61	0.4682	0.0327
13.16	0.4129	0.0289
12.72	0.3633	0.0254
12.29	0.32	0.0224
11.88	0.2819	0.0197
2.749	0.003244	0.000234
2.66	0.003006	0.000217
2.572	0.002792	0.000202
2.484	0.002584	0.000189
2.399	0.002416	0.000177
2.319	0.002253	0.000165
2.234	0.002074	0.000153
2.158	0.001932	0.000145
2.084	0.0018	0.000135
2.013	0.001656	0.000124
1.946	0.001553	0.000116
1.885	0.001439	0.000109

System: thorium silicate; phases: Crystal
Fixed: Pressure, kPa = 101.325
Property: Molar heat capacity at constant pressure, J/K/mol (Crystal); method: PPMS-Quantum Design
Temperature, K	Molar heat capacity at constant pressure, J/K/mol	uncertainty
5	0.01646	0.00126
10	0.1498	0.0107
20	1.81	0.12
30	5.69	0.4
40	10.68	0.75
50	16.04	1.11
100	42.28	2.94
150	63.64	4.43
200	79.46	5.54
250	91.068	6.344
298.15	98.684	6.876
300	98.884	6.884

System: thorium silicate; phases: Crystal
Fixed: Pressure, kPa = 101.325
Property: Molar entropy, J/K/mol (Crystal); method: PPMS-Quantum Design
Temperature, K	Molar entropy, J/K/mol	uncertainty
0	0	2.2e-05
5	0.005488	0.00058
10	0.0439	0.00464
20	0.5188	0.0542
30	1.93	0.2
40	4.23	0.44
50	7.19	0.75
100	26.53	2.77
150	47.91	5.01
200	68.5	7.16
250	87.543	9.146
298.15	104.3	10.89
300	104.9	10.96

System: thorium silicate; phases: Crystal
Fixed: Pressure, kPa = 101.325
Property: Molar enthalpy, kJ/mol (Crystal); method: PPMS-Quantum Design
Temperature, K	Molar enthalpy, kJ/mol	uncertainty
0	0	1
5	2.05e-05	1.6e-06
10	0.000347	2.7e-05
20	0.00815	0.00057
30	0.04423	0.00308
40	0.1255	0.0087
50	0.2591	0.018
100	1.729	0.12
150	4.402	0.307
200	8	0.557
250	12.28	0.86
298.15	16.86	1.17
300	17.04	1.19
