Measured thermophysical data. Evaluation of ionic liquids as solvent for aromatic extraction: Experimental, correlation and COSMO-RS predictions
Source: J. Chem. Thermodyn., 2013, 10.1016/j.jct.2013.07.011
Compound 1: 1-butyl-3-methylimidazolium methyl sulfate, C9H18N2O4S, InChI=1S/C8H15N2.CH4O4S/c1-3-4-5-10-7-6-9(2)8-10;1-5-6(2,3)4/h6-8H,3-5H2,1-2H3;1H3,(H,2,3,4)/q+1;/p-1, purity 99.5%
Compound 2: 1-butyl-3-methylimidazolium bis(trifluoromethylsulfonyl)imide, C10H15F6N3O4S2, InChI=1S/C8H15N2.C2F6NO4S2/c1-3-4-5-10-7-6-9(2)8-10;3-1(4,5)14(10,11)9-15(12,13)2(6,7)8/h6-8H,3-5H2,1-2H3;/q+1;-1, purity 99.5%
Compound 3: octane, C8H18, InChI=1S/C8H18/c1-3-5-7-8-6-4-2/h3-8H2,1-2H3, purity 99.5%
Compound 4: nonane, C9H20, InChI=1S/C9H20/c1-3-5-7-9-8-6-4-2/h3-9H2,1-2H3, purity 99%
Compound 5: cyclooctane, C8H16, InChI=1S/C8H16/c1-2-4-6-8-7-5-3-1/h1-8H2, purity 99%
Compound 6: benzene, C6H6, InChI=1S/C6H6/c1-2-4-6-5-3-1/h1-6H, purity 99.9%
Compound 7: toluene, C7H8, InChI=1S/C7H8/c1-7-5-3-2-4-6-7/h2-6H,1H3, purity 99.9%

System: 1-butyl-3-methylimidazolium methyl sulfate; phases: Liquid
Property: Mass density, kg/m3 (Liquid); method: Vibrating tube method
Temperature, K	Pressure, kPa	Mass density, kg/m3	uncertainty
298.15	101.325	1212.59	4

System: 1-butyl-3-methylimidazolium bis(trifluoromethylsulfonyl)imide; phases: Liquid
Property: Mass density, kg/m3 (Liquid); method: Vibrating tube method
Temperature, K	Pressure, kPa	Mass density, kg/m3	uncertainty
298.15	101.325	1436.35	4.01

System: octane; phases: Liquid
Property: Mass density, kg/m3 (Liquid); method: Vibrating tube method
Temperature, K	Pressure, kPa	Mass density, kg/m3	uncertainty
298.15	101.325	698.6	0.23

System: nonane; phases: Liquid
Property: Mass density, kg/m3 (Liquid); method: Vibrating tube method
Temperature, K	Pressure, kPa	Mass density, kg/m3	uncertainty
298.15	101.325	713.99	0.32

System: cyclooctane; phases: Liquid
Property: Mass density, kg/m3 (Liquid); method: Vibrating tube method
Temperature, K	Pressure, kPa	Mass density, kg/m3	uncertainty
298.15	101.325	831.47	0.3

System: benzene; phases: Liquid
Property: Mass density, kg/m3 (Liquid); method: Vibrating tube method
Temperature, K	Pressure, kPa	Mass density, kg/m3	uncertainty
298.15	101.325	873.57	0.11

System: toluene; phases: Liquid
Property: Mass density, kg/m3 (Liquid); method: Vibrating tube method
Temperature, K	Pressure, kPa	Mass density, kg/m3	uncertainty
298.15	101.325	862.17	0.11

System: benzene + octane + 1-butyl-3-methylimidazolium methyl sulfate; phases: Liquid mixture 1, Liquid mixture 2
Fixed: Temperature, K = 298.15
Fixed: Pressure, kPa = 101
Property: Mole fraction of octane (Liquid mixture 1); method: Density calibration data
Property: Mole fraction of octane (Liquid mixture 2); method: Density calibration data
Property: Mole fraction of benzene (Liquid mixture 2); method: Density calibration data
Mole fraction of benzene	Mole fraction of octane	uncertainty	Mole fraction of octane	uncertainty	Mole fraction of benzene	uncertainty
0.052	0.948	0.02	0.006	0.006	0.035	
0.837	0.163	0.02	0.004	0.004	0.452	
0.112	0.888	0.02	0.006	0.006	0.074	
0.161	0.839	0.02	0.006	0.006	0.104	
0.22	0.78	0.02	0.006	0.006	0.142	
0.275	0.725	0.021	0.006	0.006	0.175	
0.331	0.669	0.021	0.006	0.006	0.209	
0.448	0.552	0.022	0.006	0.006	0.273	
0.57	0.43	0.022	0.006	0.006	0.333	
0.701	0.299	0.021	0.005	0.005	0.389	

System: benzene + nonane + 1-butyl-3-methylimidazolium methyl sulfate; phases: Liquid mixture 1, Liquid mixture 2
Fixed: Temperature, K = 298.15
Fixed: Pressure, kPa = 101
Property: Mole fraction of nonane (Liquid mixture 1); method: Density calibration data
Property: Mole fraction of nonane (Liquid mixture 2); method: Density calibration data
Property: Mole fraction of benzene (Liquid mixture 2); method: Density calibration data
Mole fraction of benzene	Mole fraction of nonane	uncertainty	Mole fraction of nonane	uncertainty	Mole fraction of benzene	uncertainty
0.051	0.949	0.02	0.003	0.003	0.034	
0.837	0.163	0.02	0.002	0.002	0.451	
0.11	0.89	0.02	0.003	0.003	0.072	
0.172	0.828	0.02	0.003	0.003	0.11	
0.222	0.778	0.02	0.003	0.003	0.142	
0.277	0.723	0.021	0.003	0.003	0.172	
0.327	0.673	0.021	0.003	0.003	0.202	
0.448	0.552	0.022	0.003	0.003	0.267	
0.572	0.428	0.022	0.003	0.003	0.329	
0.71	0.29	0.021	0.003	0.003	0.392	

System: benzene + cyclooctane + 1-butyl-3-methylimidazolium methyl sulfate; phases: Liquid mixture 1, Liquid mixture 2
Fixed: Temperature, K = 298.15
Fixed: Pressure, kPa = 101
Property: Mole fraction of cyclooctane (Liquid mixture 1); method: Density calibration data
Property: Mole fraction of cyclooctane (Liquid mixture 2); method: Density calibration data
Property: Mole fraction of benzene (Liquid mixture 2); method: Density calibration data
Mole fraction of benzene	Mole fraction of cyclooctane	uncertainty	Mole fraction of cyclooctane	uncertainty	Mole fraction of benzene	uncertainty
0.042	0.958	0.02	0.014	0.014	0.035	
0.09	0.91	0.02	0.014	0.014	0.07	
0.154	0.846	0.02	0.013	0.013	0.112	
0.208	0.792	0.02	0.013	0.013	0.143	
0.326	0.674	0.021	0.013	0.013	0.206	
0.444	0.556	0.022	0.013	0.013	0.264	
0.567	0.433	0.022	0.014	0.014	0.32	
0.693	0.307	0.021	0.013	0.013	0.376	
0.824	0.176	0.02	0.011	0.011	0.434	

System: toluene + nonane + 1-butyl-3-methylimidazolium methyl sulfate; phases: Liquid mixture 1, Liquid mixture 2
Fixed: Temperature, K = 298.15
Fixed: Pressure, kPa = 101
Property: Mole fraction of nonane (Liquid mixture 1); method: Density calibration data
Property: Mole fraction of nonane (Liquid mixture 2); method: Density calibration data
Property: Mole fraction of toluene (Liquid mixture 2); method: Density calibration data
Mole fraction of toluene	Mole fraction of nonane	uncertainty	Mole fraction of nonane	uncertainty	Mole fraction of toluene	uncertainty
0.071	0.929	0.02	0.005	0.005	0.023	
0.126	0.874	0.02	0.005	0.005	0.04	
0.19	0.81	0.02	0.005	0.005	0.061	
0.25	0.75	0.021	0.005	0.005	0.08	
0.316	0.684	0.021	0.005	0.005	0.101	
0.375	0.625	0.021	0.005	0.005	0.122	
0.501	0.499	0.022	0.005	0.005	0.162	
0.633	0.367	0.021	0.005	0.005	0.206	
0.753	0.247	0.02	0.005	0.005	0.243	

System: toluene + nonane + 1-butyl-3-methylimidazolium bis(trifluoromethylsulfonyl)imide; phases: Liquid mixture 1, Liquid mixture 2
Fixed: Temperature, K = 298.15
Fixed: Pressure, kPa = 101
Property: Mole fraction of nonane (Liquid mixture 1); method: Density calibration data
Property: Mole fraction of nonane (Liquid mixture 2); method: Density calibration data
Property: Mole fraction of toluene (Liquid mixture 2); method: Density calibration data
Mole fraction of toluene	Mole fraction of nonane	uncertainty	Mole fraction of nonane	uncertainty	Mole fraction of toluene	uncertainty
0.05	0.95	0.02	0.029	0.014	0.063	
0.806	0.194	0.02	0.019	0.014	0.609	
0.858	0.142	0.02	0.017	0.014	0.634	
0.099	0.901	0.02	0.028	0.014	0.108	
0.147	0.853	0.02	0.028	0.014	0.154	
0.209	0.791	0.02	0.029	0.014	0.2	
0.259	0.741	0.021	0.032	0.014	0.242	
0.335	0.665	0.021	0.034	0.014	0.304	
0.417	0.583	0.022	0.036	0.014	0.368	
0.533	0.467	0.022	0.034	0.014	0.443	
0.663	0.337	0.021	0.028	0.014	0.525	
