Measured thermophysical data. Thermodynamic properties and polymorphism of 1-alkyl-3-methylimidazolium bis(triflamides)
Source: J. Chem. Thermodyn., 2007, 10.1016/j.jct.2006.11.006
Compound 1: 1-ethyl-3-methylimidazolium bis((trifluoromethyl)sulfonyl)imide, C8H11F6N3O4S2, InChI=1S/C6H11N2.C2F6NO4S2/c1-3-8-5-4-7(2)6-8;3-1(4,5)14(10,11)9-15(12,13)2(6,7)8/h4-6H,3H2,1-2H3;/q+1;-1
Compound 2: 1-octyl-3-methylimidazolium bis[(trifluoromethyl)sulfonyl]imide, C14H23F6N3O4S2, InChI=1S/C12H23N2.C2F6NO4S2/c1-3-4-5-6-7-8-9-14-11-10-13(2)12-14;3-1(4,5)14(10,11)9-15(12,13)2(6,7)8/h10-12H,3-9H2,1-2H3;/q+1;-1

System: 1-ethyl-3-methylimidazolium bis((trifluoromethyl)sulfonyl)imide; phases: Metastable crystal, Liquid, Gas
Property: Molar enthalpy of transition or fusion, kJ/mol (Metastable crystal); method: Adiabatic calorimetry
Molar enthalpy of transition or fusion, kJ/mol	uncertainty
21.76	0.27

System: 1-ethyl-3-methylimidazolium bis((trifluoromethyl)sulfonyl)imide; phases: Metastable crystal, Liquid, Gas
Property: Molar enthalpy of transition or fusion, kJ/mol (Metastable crystal); method: Adiabatic calorimetry
Molar enthalpy of transition or fusion, kJ/mol	uncertainty
22.54	0.43

System: 1-ethyl-3-methylimidazolium bis((trifluoromethyl)sulfonyl)imide; phases: Crystal, Liquid, Gas
Property: Molar enthalpy of transition or fusion, kJ/mol (Crystal); method: Adiabatic calorimetry
Molar enthalpy of transition or fusion, kJ/mol	uncertainty
21.89	0.1

System: 1-ethyl-3-methylimidazolium bis((trifluoromethyl)sulfonyl)imide; phases: Metastable crystal, Liquid, Gas
Property: Triple point temperature, K (Metastable crystal); method: Adiabatic calorimetry
Triple point temperature, K	uncertainty
256.91	0.07

System: 1-ethyl-3-methylimidazolium bis((trifluoromethyl)sulfonyl)imide; phases: Metastable crystal, Liquid, Gas
Property: Triple point temperature, K (Metastable crystal); method: Adiabatic calorimetry
Triple point temperature, K	uncertainty
263	1.8

System: 1-ethyl-3-methylimidazolium bis((trifluoromethyl)sulfonyl)imide; phases: Metastable crystal, Liquid, Gas
Property: Triple point temperature, K (Metastable crystal); method: Adiabatic calorimetry
Triple point temperature, K	uncertainty
264.9	0.6

System: 1-ethyl-3-methylimidazolium bis((trifluoromethyl)sulfonyl)imide; phases: Crystal, Liquid, Gas
Property: Triple point temperature, K (Crystal); method: Adiabatic calorimetry
Triple point temperature, K	uncertainty
271.44	0.07

System: 1-ethyl-3-methylimidazolium bis((trifluoromethyl)sulfonyl)imide; phases: Crystal
Fixed: Pressure, kPa = 101.325
Property: Molar heat capacity at constant pressure, J/K/mol (Crystal); method: VADIAC:UFactor:4
Temperature, K	Molar heat capacity at constant pressure, J/K/mol	uncertainty
0	0	0.08
5	1.65	0.1
10	12.41	0.432
15	28.96	0.815
20	46.3	1.0809
25	62.72	1.1723
30	77.77	0.782
35	91.38	0.915
40	103.5	0.998
45	114.7	1.081
50	125.1	1.164
60	144	1.33
70	161.1	1.413
80	176.6	1.58
90	190.7	1.58
100	204	1.58
110	216.8	1.663
120	229	1.746
130	240.9	1.746
140	252.5	1.829
150	264	1.829
160	275.5	1.912
170	286.9	1.912
180	298.4	1.995
190	309.9	2.079
200	321.5	2.079
210	333.2	2.162
220	345.1	2.162
230	356.9	2.245
240	368.7	2.245
250	380.5	2.328
260	392.3	2.411
270	404.1	2.411
271.44	405.8	2.411

System: 1-ethyl-3-methylimidazolium bis((trifluoromethyl)sulfonyl)imide; phases: Liquid
Fixed: Pressure, kPa = 101.325
Property: Molar heat capacity at constant pressure, J/K/mol (Liquid); method: VADIAC:UFactor:2
Temperature, K	Molar heat capacity at constant pressure, J/K/mol	uncertainty
256.91	486	1.413
260	487.5	1.413
263	488.9	1.413
270	492.3	1.413
271.44	493	1.413
280	497	1.413
290	501.9	1.413
298.15	505.7	1.413
300	506.6	1.413
310	511.4	1.413
320	516.2	1.413
330	521	1.413
340	525.7	1.413
350	530.5	1.497
360	535.3	1.497
370	540.1	1.497

System: 1-ethyl-3-methylimidazolium bis((trifluoromethyl)sulfonyl)imide; phases: Liquid, Gas
Property: Molar heat capacity at saturation pressure, J/K/mol (Liquid); method: VADIAC:UFactor:2
Temperature, K	Molar heat capacity at saturation pressure, J/K/mol	uncertainty
261.22	488.2	1.413
267.53	492	1.413
269.52	492.4	1.413
269.64	493.1	1.413
271.58	493.3	1.413
271.76	494.2	1.413
273.46	494.1	1.413
273.87	495	1.413
274.38	495	1.413
275.33	494.9	1.413
275.55	494.9	1.413
275.99	496.1	1.413
276.91	495.1	1.413
277.31	496.4	1.413
278.1	497.1	1.413
278.64	496	1.413
278.91	496.5	1.413
279.4	497.4	1.413
279.72	496.5	1.413
280.15	496.6	1.413
280.21	498	1.413
280.77	497.4	1.413
281.2	497.5	1.413
281.49	498.1	1.413
281.88	497.5	1.413
282.32	499.3	1.413
283.28	498.9	1.413
283.58	499	1.413
284.43	500.4	1.413
285.36	500	1.413
285.67	499.9	1.413
286.54	501.2	1.413
287.45	500.8	1.413
287.76	500.9	1.413
288.65	501.9	1.413
289.53	501.7	1.413
289.86	501.8	1.413
290.76	502.9	1.413
291.62	502.5	1.413
293.7	503.4	1.413
295.79	504.6	1.413
297.88	505.8	1.413
299.96	507.1	1.413
302.05	507.8	1.413
304.14	508.8	1.413
306.23	509.5	1.413
308.32	510.5	1.413
310.41	511.9	1.413
312.5	512.9	1.413
314.59	513.7	1.413
316.68	514.4	1.413
318.78	515.7	1.413
320.87	516.5	1.413
322.96	517.6	1.413
325.06	518.4	1.413
327.15	519.7	1.413
329.25	520.5	1.413
331.34	521.7	1.413
333.44	522.7	1.413
335.54	524.1	1.413
337.63	524.7	1.413
339.73	526	1.413
341.83	527	1.413
343.93	528	1.497
346.03	528.7	1.497
348.12	530	1.497
350.22	530.8	1.497
352.32	531.4	1.497
354.42	532.5	1.497
356.52	533.4	1.497
358.61	534.5	1.497
360.71	535.8	1.497
362.81	536.5	1.497
364.91	537.4	1.497
367.01	537.9	1.497

System: 1-ethyl-3-methylimidazolium bis((trifluoromethyl)sulfonyl)imide; phases: Crystal, Gas
Property: Molar heat capacity at saturation pressure, J/K/mol (Crystal); method: VADIAC:UFactor:4
Temperature, K	Molar heat capacity at saturation pressure, J/K/mol	uncertainty
5.09	1.7	0.08
5.4	2.1	0.17
5.71	2.6	0.17
6.02	3	0.17
6.37	3.7	0.17
6.76	4.3	0.17
7.16	5.2	0.25
7.56	6	0.25
7.96	6.9	0.25
8.36	7.9	0.33
8.77	8.98	0.33
9.18	10.1	0.33
9.6	11.2	0.42
10.01	12.5	0.42
10.53	14.1	0.5
11.16	16	0.5
11.8	18	0.58
12.43	20.1	0.67
13.06	22.3	0.67
13.69	24.4	0.75
14.33	26.6	0.75
14.97	28.9	0.831
15.71	31.4	0.831
16.57	34.4	0.915
17.43	37.4	0.998
18.29	40.5	0.998
19.15	43.4	1.081
20.02	46.3	1.081
21.18	50.3	1.081
22.64	55.1	1.164
24.12	60	1.164
25.59	64.6	1.164
27.07	69	1.164
28.55	73.5	1.164
30.03	77.9	0.75
31.67	82.5	0.831
33.45	87.22	0.831
35.23	91.96	0.915
37.01	96.36	0.915
38.8	100.6	0.998
40.58	104.8	0.998
42.46	109.1	0.998
44.45	113.5	1.081
46.43	117.8	1.081
48.41	121.9	1.164
50.4	125.9	1.164
52.38	129.8	1.164
54.37	133.6	1.247
56.35	137.4	1.247
58.34	141.1	1.33
60.33	144.7	1.33
62.32	148.2	1.33
64.31	151.7	1.413
66.3	155.1	1.413
68.3	158.3	1.413
70.3	161.4	1.413
72.29	164.6	1.497
74.29	167.7	1.497
76.3	170.9	1.497
78.31	174.4	1.58
80.33	177.6	1.58
81.13	178.3	1.58
82.35	180.3	1.58
83.45	181.4	1.58
84.37	182.7	1.663
85.78	184.6	1.663
88.14	188	1.663
90.51	191.4	1.58
92.89	194.6	1.58
95.28	197.8	1.58
97.69	201	1.58
100.1	204.2	1.58
102.53	207.4	1.663
104.97	210.4	1.663
107.41	213.5	1.663
109.86	216.6	1.663
112.32	219.7	1.663
114.79	222.7	1.663
117.26	225.7	1.663
119.74	228.6	1.746
124.72	234.5	1.746
127.21	237.5	1.746
129.71	240.5	1.746
132.22	243.4	1.746
134.72	246.4	1.746
137.23	249.2	1.829
139.74	252.2	1.829
142.25	255.1	1.829
144.76	258	1.829
147.27	261.2	1.829
149.79	263.8	1.829
152.3	267	1.829
154.81	270	1.912
157.33	272.5	1.912
159.84	275.2	1.912
164.83	281.1	1.912
167.38	284	1.912
169.89	286.9	1.912
172.4	289.7	1.995
174.9	292.6	1.995
177.4	295.4	1.995
179.91	298.3	1.995
182.4	301.1	1.995
184.9	303.9	1.995
187.39	306.6	1.995
189.88	309.6	2.079
192.37	312.5	2.079
194.85	315.5	2.079
197.33	318.3	2.079
199.81	321.2	2.079
202.59	324.6	2.079
205.68	328.2	2.079
208.77	331.8	2.162
211.85	335.4	2.162
214.92	339.1	2.162
217.99	342.8	2.162
221.06	346.5	8.314
221.3	344.4	8.314
223.89	349.3	8.314
224.12	350.3	8.314
224.39	347.5	8.314
226.93	353	8.314
226.97	353.1	8.314
227.17	354	8.314
227.21	353.5	8.314
227.43	349.6	8.314
228.46	354.9	8.314
230.01	356.9	8.314
230.01	357.1	8.314
230.21	358.1	8.314
230.27	357.9	8.314
230.47	351.5	8.314
230.71	357.9	8.314
231.55	358.9	8.314
233.03	361.6	8.314
233.25	362.5	8.314
233.5	354.4	8.314
233.77	363.1	8.314
234.12	363	8.314
234.58	363.7	8.314
234.99	354.4	8.314
236.04	366.5	8.314
236.26	367.7	8.314
236.51	359.8	8.314
236.69	367.7	8.314
236.79	368.4	8.314
237.09	365.9	8.314
237.6	369.1	8.314
238.06	360.9	8.314
238.9	345.5	24.9
239.04	371.7	8.314
239.27	372.2	8.314
239.51	364.5	8.314
239.72	373.8	8.314
240.29	409.1	41.6
240.6	374.7	8.314
241.07	366.4	8.314
241.28	455.9	83.14
242.03	376.8	8.314
242.26	377.6	8.314
242.5	370.2	8.314
242.7	378.9	8.314
243.08	355.9	24.9
243.6	379.6	8.314
244.07	372.3	8.314
245	382.4	8.314
245.04	372.8	8.314
245.25	382.8	8.314
245.46	377.3	8.314
245.67	383.9	8.314
246.58	384.4	8.314
246.87	383.5	8.314
247.04	377.6	8.314
247.97	387.6	8.314
248.23	387.7	8.314
248.41	381.1	8.314
248.63	389.8	8.314
248.71	381.6	8.314
249.56	389.3	8.314
249.99	383.9	8.314
250.56	386.2	8.314
250.62	256.2	124.7
250.92	393.4	8.314
251.2	393.2	8.314
251.63	387.1	8.314
252.39	391.1	8.314
252.93	384	8.314
254.23	396.4	8.314
255.05	404.1	8.314
255.12	397.1	8.314
255.5	399.9	8.314
256.06	403.9	8.314
257.33	405.9	8.314
257.9	407.4	8.314
258.55	413.6	8.314
259.19	399.3	8.314
259.75	418.2	8.314
259.76	414.6	8.314
261.05	404.7	8.314
261.61	423.6	8.314
261.94	428.5	8.314

System: 1-ethyl-3-methylimidazolium bis((trifluoromethyl)sulfonyl)imide; phases: Metastable crystal, Gas
Property: Molar heat capacity at saturation pressure, J/K/mol (Metastable crystal); method: VADIAC:UFactor:4
Temperature, K	Molar heat capacity at saturation pressure, J/K/mol	uncertainty
247.44	373.1	2.328
249.79	377.6	2.328
252.13	383.9	2.328
254.46	393.8	2.411
256.76	417.6	2.577
258.87	572.3	6.236

System: 1-ethyl-3-methylimidazolium bis((trifluoromethyl)sulfonyl)imide; phases: Metastable crystal, Gas
Property: Molar heat capacity at saturation pressure, J/K/mol (Metastable crystal); method: VADIAC:UFactor:4
Temperature, K	Molar heat capacity at saturation pressure, J/K/mol	uncertainty
81.66	172.6	1.58
83.46	174.8	1.58
85.25	177.1	1.58
87.05	179.6	1.58
88.85	182.1	1.58
90.65	184.5	1.58
92.45	187.1	1.58
94.79	190.1	1.58
97.04	193	1.58
98.85	195.1	1.58
100.65	197.7	1.58
102.46	199.8	1.58
104.28	202	1.58
106.09	204.4	1.58
107.91	206.6	1.663
109.72	208.9	1.663
111.55	211	1.663
113.37	213.3	1.663
115.19	215.4	1.663
117.02	217.7	1.663
118.85	220.1	1.663
118.85	220.1	1.663
120.68	222.2	1.663
122.51	224.2	1.663
124.35	226.6	1.746
126.19	228.6	1.746
128.02	230.6	1.746
129.86	232.9	1.746
131.7	235.1	1.746
133.55	237.3	1.746
135.39	239.2	1.746
137.23	241.4	1.746
139.08	243.5	1.746
140.93	245.5	1.746
142.77	247.7	1.829
144.62	249.9	1.829
146.47	252	1.829
148.32	254.2	1.829
150.17	256.2	1.829
153.22	259.6	1.829
155.51	262.3	1.829
157.37	264.3	1.829
159.22	266.3	1.829
161.08	268.4	1.912
162.94	270.5	1.912
164.79	272.5	1.912
166.65	274.5	1.912
168.51	276.6	1.912
170.37	278.7	1.912
172.23	280.6	1.912
174.1	282.7	1.912
175.96	284.9	1.912
177.82	287	1.912
179.68	289.2	1.995
181.55	291.1	1.995
183.41	293.2	1.995
185.27	295.2	1.995
187.14	297.3	1.995
189	299.3	1.995
190.87	301.3	1.995
192.73	303.6	1.995
194.6	305.6	1.995
196.46	307.5	1.995
198.32	309.5	2.079
200.19	311.5	2.079
202.05	313.6	2.079
203.92	315.7	2.079
205.79	317.6	2.079
207.65	319.6	2.079
209.52	321.8	2.079
211.38	323.7	2.079
213.25	325.3	2.079
215.11	327.3	2.079
216.98	329.1	2.079
218.85	330.9	2.162
220.72	332.6	2.162
222.59	334.1	2.162
224.46	335.5	2.162
226.32	337.1	2.162
228.19	338.7	2.162
230.06	340.4	2.162
231.93	342.1	2.162
233.79	344.1	2.162
235.66	346.2	2.162
237.52	348.7	2.162
239.38	351.9	2.245
241.24	353.4	2.245
243.08	355.6	2.245
244.94	359.3	2.245
246.79	361.3	2.245
248.29	365.2	2.245
248.64	365.6	2.245
250.21	368.2	2.245
252.05	374.8	2.328
253.88	385.6	2.328
255.71	412.6	2.494
257.46	498.2	5.903

System: 1-ethyl-3-methylimidazolium bis((trifluoromethyl)sulfonyl)imide; phases: Metastable crystal, Gas
Property: Molar heat capacity at saturation pressure, J/K/mol (Metastable crystal); method: VADIAC:UFactor:4
Temperature, K	Molar heat capacity at saturation pressure, J/K/mol	uncertainty
5.03	2.4	0.17
5.34	2.9	0.17
5.66	3.5	0.17
5.98	4.1	0.17
6.34	4.8	0.25
6.74	5.7	0.25
7.15	6.6	0.25
7.56	7.6	0.33
7.97	8.56	0.33
8.37	9.56	0.33
8.79	10.6	0.42
9.2	11.8	0.42
9.62	12.9	0.42
10.04	14.1	0.5
10.56	15.6	0.5
11.2	17.5	0.58
11.83	19.4	0.58
12.47	21.3	0.67
13.11	23.2	0.67
13.75	25.2	0.75
14.39	27.1	0.75
15.03	29.1	0.831
15.79	31.5	0.831
16.66	34.2	0.915
17.53	36.9	0.915
18.39	39.7	0.998
19.26	42.3	0.998
20.12	45.1	1.081
21.27	48.6	1.081
22.75	53.1	1.081
24.22	57.6	1.081
25.69	62	1.081
27.17	66.3	1.081
28.65	70.5	1.081
30.13	74.7	0.75
31.76	79.2	0.831
33.54	83.81	0.831
35.33	88.38	0.831
37.12	92.71	0.915
38.9	96.86	0.915
40.68	100.9	0.998
42.56	105.1	0.998
44.54	109.4	0.998
46.52	113.6	1.081
48.5	117.5	1.081
50.49	121.5	1.164
52.46	125.1	1.164
54.44	128.9	1.164
56.43	132.5	1.247
58.41	135.9	1.247
60.4	139.5	1.247
62.39	142.8	1.33
64.38	146.2	1.33
66.37	149.4	1.33
68.37	152.6	1.413
70.37	155.5	1.413
72.37	158.6	1.413
74.38	161.7	1.413
76.38	164.9	1.497
78.39	168	1.497
80.12	170.2	1.497
80.41	171.2	1.497
82.32	173.8	1.58
82.43	173.8	1.58
84.11	175.8	1.58
84.45	176.3	1.58
85.9	178.3	1.58
86.89	179.6	1.58
87.69	180.8	1.58
89.49	183.3	1.663
89.73	183.6	1.663
91.28	185.8	1.58
92.48	187.3	1.58
93.08	188.3	1.58
94.88	190.7	1.58
95.26	191.1	1.58
96.68	193.2	1.58
98.05	194.8	1.58
98.48	195.6	1.58
100.28	197.9	1.58
100.85	198.6	1.58
102.08	200.3	1.58
103.66	202.1	1.58
103.89	202.6	1.58
105.7	204.9	1.58
106.48	205.7	1.663
107.51	207.2	1.663
109.31	209.3	1.663
109.33	209.4	1.663
111.15	211.7	1.663
112.16	212.8	1.663
112.97	213.9	1.663
114.79	216.3	1.663
115.03	216.3	1.663
115.71	217.5	1.663
116.61	218.4	1.663
117.9	219.8	1.663
118.24	220.5	1.663
118.43	220.6	1.663
119.57	221.8	1.663
120.25	222.8	1.663
120.71	223.4	1.663
120.78	223.2	1.663
121.86	224.6	1.663
122.08	225.1	1.663
123.18	226.4	1.746
123.66	226.7	1.746
123.69	226.8	1.746
123.91	227.2	1.746
125.53	229.1	1.746
125.66	229.6	1.746
125.73	229.4	1.746
126.55	230.1	1.746
127.37	231.4	1.746
127.56	231.6	1.746
128.14	232.6	1.746
129.21	233.3	1.746
129.4	233.8	1.746
129.43	233.7	1.746
130.62	235.5	1.746
131.05	235.6	1.746
131.23	236	1.746
132.33	237	1.746
132.89	237.8	1.746
133.07	238.2	1.746
133.11	238.5	1.746
134.73	240	1.746
134.9	240.3	1.746
135.23	240.5	1.746
135.6	241.4	1.746
136.57	242.1	1.746
136.74	242.4	1.746
138.09	244.3	1.746
138.13	243.9	1.746
138.41	244.4	1.746
138.59	244.7	1.746
140.26	246.5	1.746
140.43	246.8	1.829
140.58	247.3	1.829
141.03	247.3	1.829
142.1	248.9	1.829
142.27	249	1.829
143.07	250.1	1.829
143.95	250.7	1.829
143.95	250.9	1.829
144.11	251.2	1.829
145.57	253	1.829
145.79	253	1.829
145.96	253.3	1.829
146.85	254.1	1.829
147.64	255.1	1.829
147.8	255.5	1.829
148.06	256	1.829
149.49	257.2	1.829
149.65	257.7	1.829
149.75	257.5	1.829
150.56	259	1.829
151.34	259.4	1.829
151.49	259.8	1.829
152.65	260.8	1.829
153.05	261.8	1.829
153.19	261.7	1.829
153.34	262	1.829
155.04	263.8	1.829
155.19	264.1	1.829
155.55	264.8	1.829
155.55	264.2	1.829
156.89	266	1.829
157.04	266.2	1.829
158.05	267.8	1.912
158.74	268.3	1.912
158.82	268.1	1.912
158.89	268.5	1.912
160.54	270.6	1.912
160.59	270.4	1.912
160.74	270.5	1.912
162.45	272.5	1.912
162.46	272.4	1.912
162.59	272.6	1.912
163.03	273.4	1.912
164.31	274.6	1.912
164.44	274.9	1.912
165.52	276.3	1.912
166.1	276.6	1.912
166.17	276.7	1.912
166.3	277.1	1.912
168.01	279.3	1.912
168.03	279	1.912
168.15	279.2	1.912
169.74	280.9	1.912
169.89	281.3	1.912
170.01	281.5	1.912
170.49	282.3	1.912
171.75	283.4	1.912
171.87	283.6	1.912
172.97	285.3	1.912
173.37	285.2	1.912
173.61	285.7	1.912
173.72	285.9	1.912
175.46	288.3	1.912
175.47	287.8	1.912
175.58	288.2	1.912
176.98	289.5	1.995
177.33	290.1	1.995
177.44	290.4	1.995
177.93	291.2	1.995
179.19	292.3	1.995
179.3	292.6	1.995
180.41	294.2	1.995
180.59	293.9	1.995
181.05	294.6	1.995
181.15	294.8	1.995
182.88	297.2	1.995
182.92	296.8	1.995
183.01	297.1	1.995
184.2	298.4	1.995
184.78	299.1	1.995
184.87	299.4	1.995
185.35	300.2	1.995
186.64	301.5	1.995
186.73	301.6	1.995
187.8	302.9	1.995
187.81	303.5	1.995
188.51	303.6	1.995
188.59	304.1	1.995
190.27	306.5	1.995
190.37	306	1.995
190.45	306.4	1.995
191.38	307.4	1.995
192.24	308.4	1.995
192.31	308.7	1.995
192.73	309.6	2.079
194.1	310.7	2.079
194.17	311	2.079
194.95	311.8	2.079
195.19	312.7	2.079
195.97	313	2.079
196.03	313.4	2.079
197.65	315.8	2.079
197.83	315.4	2.079
197.9	315.9	2.079
198.53	316.3	2.079
199.69	317.6	2.079
199.76	318.1	2.079
200.1	318.9	2.079
201.56	320.1	2.079
201.63	320.6	2.079
202.09	320.9	2.079
202.54	322	2.079
203.42	322.5	2.079
203.49	323	2.079
204.99	325.2	2.079
205.29	324.9	2.079
205.35	325.3	2.079
205.64	325.6	2.079
207.16	327.5	2.079
207.22	327.8	2.079
207.42	328.4	2.079
209.02	329.9	2.162
209.08	330.3	2.162
209.18	330.3	2.162
209.86	331.7	2.162
210.89	332.4	2.162
210.95	332.7	2.162
212.29	334.9	2.162
212.7	335	2.162
212.76	334.9	2.162
212.81	335.2	2.162
214.62	337.5	2.162
214.68	337.8	2.162
214.72	338.2	2.162
216.22	339.7	2.162
216.49	340	2.162
216.54	340.3	2.162
217.14	341.7	2.162
218.36	342.6	2.162
218.41	343.1	2.162
219.56	345.1	2.162
219.73	344.8	2.162
220.24	345.1	2.162
220.28	345.8	2.162
221.97	348.6	2.162
222.11	347.9	2.162
222.15	348.4	2.162
223.22	349.9	2.162
223.98	350.5	2.162
224.02	351.1	2.245
224.37	352.3	2.245
225.85	353.4	2.245
225.89	353.9	2.245
226.71	355.1	2.245
226.77	355.9	2.245
227.72	356.2	2.245
227.76	356.7	2.245
229.17	359.5	2.245
229.59	358.9	2.245
229.64	359.6	2.245
230.19	360.6	2.245
231.47	361.7	2.245
231.51	362.5	2.245
231.55	363.3	2.245
233.34	364.8	2.245
233.38	365.7	2.245
233.66	366.3	2.245
233.94	367.3	2.245
235.21	367.7	2.245
235.25	368.6	2.245
236.32	371.5	2.328
237.11	372.4	2.328
237.12	371.9	2.328
237.2	371.7	2.328
238.68	376.4	2.328
239	366.4	2.245
240.22	377.8	2.328
240.54	379.6	2.328
240.84	369.4	2.245
241.04	381.6	2.328
242.66	374.1	2.328
243.2	385.1	2.328
243.38	387.1	2.328
243.94	388.6	7.732
244.54	358.9	2.245
245.09	374.7	2.328
246.16	392.9	2.411
246.38	397.2	2.411
247.3	403.4	2.411
249.09	408.2	2.411
250.55	449.5	4.49

System: 1-ethyl-3-methylimidazolium bis((trifluoromethyl)sulfonyl)imide; phases: Crystal
Fixed: Pressure, kPa = 101.325
Property: Molar enthalpy, kJ/mol (Crystal); method: VADIAC:UFactor:4
Temperature, K	Molar enthalpy, kJ/mol	uncertainty
0	0	0.04
5	2	0.1
10	33.26	1.0726
15	135.57	3.6833
20	323.93	7.3167
25	596.98	10.8171
30	948.848	7.7491
35	1372.39	11.1331
40	1860.11	15.0326
45	2406.17	19.3893
50	3005.68	24.1951
60	4353.13	34.954
70	5878.3	47.143
80	7569.5	60.696
90	9406.16	37.914
100	11382.5	45.813
110	13490.2	54.21
120	15714.4	63.107
130	18061.5	72.502
140	20533.4	82.396
150	23110.1	92.7064
160	25808.1	103.515
170	28622.6	114.74
180	31548.4	126.463
190	34596.5	138.685
200	37747.7	151.323
210	41014.5	164.377
220	44412.6	177.93
230	47923	191.981
240	51543.1	206.531
250	55291.2	221.498
260	59167.4	237.046
270	63149.2	252.926
271.44	63734.3	255.254

System: 1-ethyl-3-methylimidazolium bis((trifluoromethyl)sulfonyl)imide; phases: Liquid
Fixed: Pressure, kPa = 101.325
Property: Molar enthalpy, kJ/mol (Liquid); method: VADIAC:UFactor:4
Temperature, K	Molar enthalpy, kJ/mol	uncertainty
256.91	78500.6	314.37
260	80006.8	320.357
263	81476.7	326.26
270	84902.4	339.979
271.44	85626.01	342.889
280	89862.81	359.85
290	94856.49	379.805
298.15	98960.09	396.185
300	99898.38	399.926
310	104981	420.297
320	110123.5	440.833
330	115293.5	461.536
340	120539.9	482.572
350	125831.2	503.691
360	131132.5	524.893
370	136528.6	546.51

System: 1-ethyl-3-methylimidazolium bis((trifluoromethyl)sulfonyl)imide; phases: Crystal
Fixed: Pressure, kPa = 101.325
Property: Molar entropy, J/K/mol (Crystal); method: VADIAC:UFactor:4
Temperature, K	Molar entropy, J/K/mol	uncertainty
0	0	0.08
5	0.52	0.091
10	4.44	0.266
15	12.51	0.565
20	23.23	0.8398
25	35.34	1.0144
30	48.13	0.823
35	61.17	0.9728
40	74.17	1.1308
45	87.05	1.247
50	99.69	1.413
60	124.1	1.746
70	147.7	1.995
80	170.2	2.245
90	191.8	2.328
100	212.6	2.494
110	232.6	2.577
120	252.1	2.744
130	270.9	2.827
140	289.1	2.91
150	307	3.076
160	324.3	3.159
170	341.4	3.243
180	358.1	3.326
190	374.6	3.409
200	390.8	3.575
210	406.7	3.658
220	422.5	3.742
230	438.1	3.825
240	453.6	3.908
250	468.9	3.991
260	484	4.074
270	499	4.157
271.44	501.2	4.24

System: 1-ethyl-3-methylimidazolium bis((trifluoromethyl)sulfonyl)imide; phases: Liquid
Fixed: Pressure, kPa = 101.325
Property: Molar entropy, J/K/mol (Liquid); method: VADIAC:UFactor:4
Temperature, K	Molar entropy, J/K/mol	uncertainty
256.91	554.9	4.49
260	560.7	4.573
263	566.3	4.573
270	579.2	4.656
271.44	581.8	4.656
280	597.1	4.822
290	614.7	4.906
298.15	628.7	4.989
300	631.8	4.989
310	648.4	5.072
320	664.8	5.155
330	680.7	5.321
340	696.3	5.404
350	711.6	5.488
360	726.7	5.571
370	741.4	5.654

System: 1-octyl-3-methylimidazolium bis[(trifluoromethyl)sulfonyl]imide; phases: Metastable crystal, Liquid, Gas
Property: Molar enthalpy of transition or fusion, kJ/mol (Metastable crystal); method: Adiabatic calorimetry
Molar enthalpy of transition or fusion, kJ/mol	uncertainty
28.48	0.27

System: 1-octyl-3-methylimidazolium bis[(trifluoromethyl)sulfonyl]imide; phases: Metastable crystal, Liquid, Gas
Property: Molar enthalpy of transition or fusion, kJ/mol (Metastable crystal); method: Adiabatic calorimetry
Molar enthalpy of transition or fusion, kJ/mol	uncertainty
31.75	0.23

System: 1-octyl-3-methylimidazolium bis[(trifluoromethyl)sulfonyl]imide; phases: Metastable crystal, Crystal 1, Gas
Property: Molar enthalpy of transition or fusion, kJ/mol (Metastable crystal); method: Adiabatic calorimetry
Molar enthalpy of transition or fusion, kJ/mol	uncertainty
3.38	0.23

System: 1-octyl-3-methylimidazolium bis[(trifluoromethyl)sulfonyl]imide; phases: Crystal 1, Liquid, Gas
Property: Molar enthalpy of transition or fusion, kJ/mol (Crystal 1); method: Adiabatic calorimetry
Molar enthalpy of transition or fusion, kJ/mol	uncertainty
25.18	0.27

System: 1-octyl-3-methylimidazolium bis[(trifluoromethyl)sulfonyl]imide; phases: Metastable crystal, Crystal of unknown type, Gas
Property: Triple point temperature, K (Metastable crystal); method: Adiabatic calorimetry
Triple point temperature, K	uncertainty
250.09	0.09

System: 1-octyl-3-methylimidazolium bis[(trifluoromethyl)sulfonyl]imide; phases: Metastable crystal, Liquid, Gas
Property: Triple point temperature, K (Metastable crystal); method: Adiabatic calorimetry
Triple point temperature, K	uncertainty
251.42	0.05

System: 1-octyl-3-methylimidazolium bis[(trifluoromethyl)sulfonyl]imide; phases: Metastable crystal, Crystal of unknown type, Gas
Property: Triple point temperature, K (Metastable crystal); method: Adiabatic calorimetry
Triple point temperature, K	uncertainty
253.2	0.2

System: 1-octyl-3-methylimidazolium bis[(trifluoromethyl)sulfonyl]imide; phases: Metastable crystal, Liquid, Gas
Property: Triple point temperature, K (Metastable crystal); method: Adiabatic calorimetry
Triple point temperature, K	uncertainty
255.9	0.4

System: 1-octyl-3-methylimidazolium bis[(trifluoromethyl)sulfonyl]imide; phases: Metastable crystal, Crystal 1, Gas
Property: Triple point temperature, K (Metastable crystal); method: Adiabatic calorimetry
Triple point temperature, K	uncertainty
171	2

System: 1-octyl-3-methylimidazolium bis[(trifluoromethyl)sulfonyl]imide; phases: Crystal 1, Liquid, Gas
Property: Triple point temperature, K (Crystal 1); method: Adiabatic calorimetry
Triple point temperature, K	uncertainty
263.96	0.04

System: 1-octyl-3-methylimidazolium bis[(trifluoromethyl)sulfonyl]imide; phases: Liquid, Gas
Property: Molar heat capacity at saturation pressure, J/K/mol (Liquid); method: VADIAC:UFactor:2
Temperature, K	Molar heat capacity at saturation pressure, J/K/mol	uncertainty
187.58	630.7	4.16
189.35	633.6	4.16
190.27	634.1	4.16
191.12	634.1	4.16
192.06	632.8	4.16
192.9	634.4	4.16
193.84	633.7	4.16
194.69	634.6	4.16
195.63	635.2	4.16
196.48	634.8	4.16
197.41	637.5	4.16
198.28	635.3	4.16
199.18	638.9	4.16
200.08	635.9	4.16
201.18	640.9	4.16
202.1	637.1	4.16
203.41	642.7	4.16
205.64	644.7	4.16
256.7	664.1	1.746
258.06	665.2	1.746
258.28	665.1	1.746
260.25	666.4	1.746
260.36	666.7	1.746
260.36	666.2	1.746
260.6	667.1	1.746
262.34	667.8	1.746
263.06	668.2	1.746
263.16	668.2	1.746
265.88	670.1	1.746
265.97	670	1.746
267.1	671.1	1.746
267.29	671.1	1.746
269.53	672.3	1.746
269.9	672.6	1.746
270.09	672.9	1.746
272.34	674.3	1.746
272.71	674.6	1.746
272.88	674.8	1.746
275.52	676.4	1.746
275.67	676.6	1.746
277.26	678.2	1.746
278.32	678.4	1.746
278.47	678.5	1.746
280.06	679.7	1.746
281.14	680.5	1.746
281.27	680.5	1.746
282.87	681.8	1.746
283.95	682.5	1.746
284.08	682.5	1.746
285.68	683.9	1.746
286.76	684.4	1.746
286.87	684.4	1.746
288.49	685.8	1.746
289.67	686.2	1.746
291.3	687.7	1.746
292.47	688	1.746
294.11	689.8	1.746
295.27	690.3	1.746
296.92	691.8	1.746
298.06	692.5	1.746
299.73	693.8	1.829
300.86	694.5	1.829
302.54	696.1	1.829
305.35	698.2	1.829
308.16	700.2	1.829
310.97	702.3	1.829
313.78	704.2	1.829
316.59	706.4	1.829
319.4	708.4	1.829
322.21	710.5	1.829
325.02	712.6	1.829
327.83	714.6	1.829
330.64	716.6	1.829
333.45	719.1	1.829
336.26	721.4	1.829
339.07	723.8	1.829
341.88	725.8	1.829
344.69	727.6	1.829
347.5	729.8	1.829
350.31	731.9	1.829
353.11	733.8	1.829
355.92	736	1.912
358.72	738.2	1.912
361.52	740.4	1.912
364.32	742.2	1.912
367.13	743.7	1.912

System: 1-octyl-3-methylimidazolium bis[(trifluoromethyl)sulfonyl]imide; phases: Metastable crystal, Gas
Property: Molar heat capacity at saturation pressure, J/K/mol (Metastable crystal); method: VADIAC:UFactor:4
Temperature, K	Molar heat capacity at saturation pressure, J/K/mol	uncertainty
80.68	218.6	1.912
82.82	222.9	1.912
84.99	226.7	1.995
87.16	230.9	1.995
89.36	235.2	2.079
91.56	239.5	1.746
93.77	243.7	1.746
96	247.9	1.829
98.23	252	1.829
100.47	256	1.66
102.72	260	1.66
104.98	264.2	1.829
107.24	268.2	1.912
109.51	272.1	1.912
111.79	276.2	1.912
114.07	280.1	1.912
116.35	284.1	1.912
118.63	288	1.912
120.92	292	1.995
123.21	296.1	1.995
125.51	300.1	1.995
127.81	304.2	1.995
130.1	308.3	1.995
132.4	312.3	2.079
134.7	316.4	2.079
137	320.7	2.079
139.29	324.9	2.079
141.59	329.3	2.079
143.89	333.7	2.162
146.18	338.2	2.162
148.47	343	2.162
150.76	348	2.49
153.04	352.9	2.245
155.31	357.9	2.245
157.29	362.8	2.245
158.99	366.5	2.245
160.68	371.7	2.328
162.35	378.6	2.328
164.02	388	2.328
165.65	409.5	2.494

System: 1-octyl-3-methylimidazolium bis[(trifluoromethyl)sulfonyl]imide; phases: Metastable crystal, Gas
Property: Molar heat capacity at saturation pressure, J/K/mol (Metastable crystal); method: VADIAC:UFactor:4
Temperature, K	Molar heat capacity at saturation pressure, J/K/mol	uncertainty
178.72	395.4	2.411
178.74	401.4	2.411
180.4	400.1	2.411
181.54	400	2.411
182.07	401.8	2.411
183.74	404	2.49
184.36	404.7	2.411
185.41	407	2.49
187.08	409.2	2.411
187.17	409.2	2.411
188.74	411.8	2.411
189.97	413.8	2.494
190.41	414.2	2.494
192.07	416.7	2.494
192.77	418.5	2.494
193.73	419.2	2.494
195.38	422	2.494
197.04	424.8	2.494
198.02	427	2.494
198.69	427.5	2.494
200.33	430.3	2.494
200.83	431.6	2.494
202.54	434.3	2.577
203.6	436.3	2.577
205.3	439.2	2.577
206.36	440.9	2.577
208.07	443.3	2.577
209.11	445.4	2.577
210.83	447.7	2.577
211.86	450	2.49
213.58	452.2	2.577
214.61	454.3	2.577
216.33	456.6	2.661
217.35	458.6	2.661
219.07	460.9	2.661
220.09	463	2.661
221.8	465.8	2.661
222.82	467.2	2.661
224.53	469.5	2.661
225.54	471.5	2.661
227.25	474.2	2.661
228.26	475.7	2.744
229.97	478.7	2.744
230.97	479.7	2.744
232.67	483.2	2.744
233.68	483.7	2.744
235.37	487	2.49
236.39	487.6	2.744
238.06	492.1	2.744
239.09	491.2	2.744
240.75	496	2.49
241.78	495.1	2.744
243.43	501	2.49
244.47	500.1	2.827
246.1	505.4	2.827
247.14	504.6	2.827
248.76	511.1	2.827
249.8	510.9	2.827
251.41	517.2	2.91
252.42	531.1	2.91
254.05	525	2.91
256.67	527.6	2.91
259.45	606	11.64

System: 1-octyl-3-methylimidazolium bis[(trifluoromethyl)sulfonyl]imide; phases: Metastable crystal, Gas
Property: Molar heat capacity at saturation pressure, J/K/mol (Metastable crystal); method: VADIAC:UFactor:4
Temperature, K	Molar heat capacity at saturation pressure, J/K/mol	uncertainty
80.63	219.2	1.912
82.77	223.6	1.912
84.92	227.2	1.995
87.09	231.8	1.995
89.29	236.1	2.079
91.49	240.9	1.746
93.71	245.5	1.746
95.93	249.3	1.829
98.16	253.7	1.829
100.4	258.2	1.829
102.64	262.1	1.829
104.89	266.6	1.829
107.15	270.6	1.912
109.41	274.9	1.912
111.68	279.1	1.912
113.96	282.7	1.912
116.24	287	1.912
118.52	290.6	1.995
120.81	294.3	1.995
123.1	298.5	1.995
125.4	301.8	1.995
127.69	305	1.995
129.99	308.7	1.995
132.3	312.8	2.079
134.6	316.1	2.079
136.91	319.5	2.079
139.21	323.8	2.079
141.52	327	2.079
143.83	331.3	2.162
146.14	335.1	2.162
148.44	338.3	2.162
150.75	342.6	2.162
153.05	346.1	2.162
155.35	349.2	2.162
157.65	352.3	2.245
159.95	356.9	2.245
162.25	360.4	2.245
164.55	363.9	2.245
166.85	367.7	2.245
169.14	370.9	2.245
171.43	374.6	2.328
173.72	377.5	2.328
176	381.6	2.328
178.29	385.6	2.328
180.57	389	2.328
182.85	392.8	2.411
185.12	396	2.411
187.39	399.5	2.411
189.66	403.8	2.411
191.92	407.8	2.411
193.3	407.7	2.411
194.18	410.7	2.411
196.16	412.6	2.494
196.43	414.1	2.494
198.68	418.8	2.494
198.97	417.3	2.494
200.93	422.5	2.494
201.77	422.4	2.494
203.45	426.6	2.494
204.57	427.3	2.494
206.25	431.9	2.494
207.36	432	2.494
209.05	436.6	2.577
210.14	437	2.577
211.83	441.7	2.577
212.92	441.9	2.577
214.61	446.6	2.577
215.69	446.9	2.577
217.39	451.4	2.577
218.45	451.9	2.577
218.8	451.6	2.577
220.15	456.5	2.661
221.2	457	2.661
221.59	456.7	2.661
222.91	460.9	2.661
223.95	462.3	2.661
224.35	462.3	2.661
225.66	466.9	2.661
226.68	467.4	2.661
227.09	467.8	2.661
228.4	471.8	2.661
229.41	472.8	2.661
229.83	473.2	2.661
231.13	477.3	2.744
232.13	478.1	2.744
232.56	478.9	2.744
233.86	482.2	2.744
234.84	483.5	2.744
235.28	484.6	2.744
236.57	488.4	2.744
237.55	489.1	2.744
237.98	490.3	2.744
239.27	494.7	2.744
240.24	495.5	2.744
240.68	496.2	2.827
241.96	500.1	2.827
242.91	501.5	2.827
243.36	501.9	2.827
244.64	507.8	2.827
245.58	509	2.827
246.03	508.8	2.827
247.29	517.4	2.91
248.69	518.9	2.91
249.91	542.3	2.993

System: 1-octyl-3-methylimidazolium bis[(trifluoromethyl)sulfonyl]imide; phases: Metastable crystal, Gas
Property: Molar heat capacity at saturation pressure, J/K/mol (Metastable crystal); method: VADIAC:UFactor:4
Temperature, K	Molar heat capacity at saturation pressure, J/K/mol	uncertainty
254.11	522.6	52.298
255.99	552.5	55.291
258.17	549.8	55.042
259.67	615.4	63.356

System: 1-octyl-3-methylimidazolium bis[(trifluoromethyl)sulfonyl]imide; phases: Metastable crystal, Gas
Property: Molar heat capacity at saturation pressure, J/K/mol (Metastable crystal); method: VADIAC:UFactor:4
Temperature, K	Molar heat capacity at saturation pressure, J/K/mol	uncertainty
80.36	219.7	1.912
82.52	224.2	1.995
84.63	227.7	1.995
86.76	231.9	1.995
88.91	236	2.079
91.06	240	1.746
93.23	244.3	1.746
95.41	248.3	1.829
97.6	252.2	1.829
99.78	258.7	1.829
101.98	259.7	1.829
104.18	263.7	1.829
105.97	266.6	1.829
106.39	267.5	1.912
108.27	270.6	1.912
108.61	271.1	1.912
110.51	274.3	1.912
112.76	278	1.912
115	281.7	1.912
117.26	285.3	1.912
119.53	289.2	1.995
121.8	292.6	1.995
124.07	296.1	1.995
126.35	299.7	1.995
128.63	303.4	1.995
130.91	306.9	1.995
133.19	310.5	2.079
135.47	313.9	2.079
137.76	317.4	2.079
140.05	321.1	2.079
142.35	324.5	2.079
146.72	331.2	2.162
149.06	334.8	2.162
151.35	338.3	2.162
153.64	341.8	2.162
155.93	345.1	2.162
158.22	348.7	2.162
160.51	352.1	2.245
162.8	355.7	2.245
165.09	359.2	2.245
167.37	362.8	2.245
169.65	366.2	2.245
171.93	369.8	2.245
174.2	373.4	2.328
176.48	377.1	2.328
178.75	380.6	2.328
181.01	384	2.328
183.3	387.8	2.328
185.59	391.4	2.328
187.85	395.1	2.411
190.1	399	2.411
192.35	402.6	2.411
194.59	406.3	2.411
196.2	408.7	2.411
196.82	410.1	2.411
198.49	412.6	2.411
198.59	412.6	2.411
199.06	414.1	2.494
200.74	416.6	2.494
201.46	417.8	2.494
201.57	418.4	2.494
203.26	421	2.494
204.27	422.8	2.494
204.35	423.3	2.494
206.05	425.9	2.494
207.06	427.6	2.494
207.13	428.1	2.494
208.84	430.8	2.494
209.53	431.7	2.494
209.85	432.7	2.494
209.9	433.1	2.494
211.63	435.7	2.577
212.36	437	2.577
212.64	437.8	2.577
212.66	438.2	2.577
214.4	440.8	2.577
215.14	442.4	2.577
215.41	443.2	2.577
215.41	443	2.577
217.17	445.9	2.577
217.91	447.7	2.577
218.16	448.6	2.577
218.18	448.1	2.577
219.94	451.1	2.577
220.69	453	2.577
220.9	454	2.577
220.94	453.6	2.577
222.69	456.3	2.661
223.45	458.5	2.661
223.62	459.1	2.661
223.69	459	2.661
225.44	461.3	2.661
226.21	464	2.661
226.34	464.8	2.661
226.43	464.4	2.661
228.07	467.2	2.661
228.18	465.8	2.661
228.95	469.8	2.661
229.05	470.5	2.661
229.16	469.9	2.661
230.84	472.9	2.661
230.91	469.9	2.661
231.36	474	2.661
231.69	475.6	2.744
231.75	476.3	2.744
231.88	475.6	2.744
232.63	471.8	2.661
233.56	478.7	2.744
233.64	473	2.661
234.12	479.5	2.744
234.41	481.4	2.744
234.44	482.3	2.744
234.59	481	2.744
235.38	476.6	2.744
236.26	484.5	2.744
236.37	476.5	2.744
236.83	481.7	2.744
237.12	488.2	2.744
237.13	487.3	2.744
237.29	485.7	2.744
238.09	480.7	2.744
238.96	489.6	2.744
239.09	481.7	2.744
239.54	482	2.744
239.79	494.3	2.744
239.82	493.7	2.827
239.99	488.9	2.744
240.3	487.4	2.744
240.78	486.6	2.744
241.64	494.7	2.744
241.8	490.1	2.744
242.28	485	2.744
242.44	500.7	2.827
242.5	501.3	2.827
242.69	491.7	2.744
243.01	497.5	2.827
243.46	494	2.744
244.31	501.9	2.827
244.48	505.9	2.827
245.01	496.9	2.827
245.09	509.8	2.827
245.16	520.5	2.91
245.38	505.9	2.827
245.64	515.4	2.827
246.13	506.3	2.993

System: 1-octyl-3-methylimidazolium bis[(trifluoromethyl)sulfonyl]imide; phases: Metastable crystal, Gas
Property: Molar heat capacity at saturation pressure, J/K/mol (Metastable crystal); method: VADIAC:UFactor:4
Temperature, K	Molar heat capacity at saturation pressure, J/K/mol	uncertainty
251.53	1383	64.85
251.59	1188	64.85
252.19	737.1	4.573
254.41	694	3.575

System: 1-octyl-3-methylimidazolium bis[(trifluoromethyl)sulfonyl]imide; phases: Glass, Gas
Property: Molar heat capacity at saturation pressure, J/K/mol (Glass); method: VADIAC:UFactor:4
Temperature, K	Molar heat capacity at saturation pressure, J/K/mol	uncertainty
4.73	2.9	0.17
5.05	3.5	0.17
5.36	4.2	0.17
5.69	4.9	0.25
6.01	5.7	0.25
6.37	6.6	0.25
6.77	7.6	0.33
7.17	8.73	0.33
7.57	9.89	0.42
7.97	11.1	0.42
8.38	12.4	0.42
8.79	13.7	0.5
9.2	15.1	0.5
9.62	16.5	0.58
10.03	18	0.58
10.56	20	0.67
11.19	22.4	0.75
11.81	24.9	0.75
12.44	27.3	0.831
13.07	29.8	0.915
13.69	32.3	0.915
14.32	34.9	0.998
14.95	37.5	1.081
15.69	40.6	1.081
16.55	44.2	1.164
17.4	47.7	1.247
18.25	51.1	1.247
19.1	54.6	1.33
19.96	58.1	1.33
21.1	62.8	1.413
22.56	68.6	1.413
24.02	74.2	1.413
25.45	79.7	1.413
26.88	84.97	1.413
28.31	90.21	1.413
29.74	95.28	1.33
31.33	100.9	0.998
33.08	106.7	0.998
34.84	112.3	1.081
36.58	117.8	1.081
38.33	123.1	1.164
40.06	128.1	1.164
41.89	133.4	1.247
43.81	138.9	1.247
45.72	144.3	1.33
47.63	149.7	1.33
49.55	154.8	1.413
51.48	159.9	1.413
53.43	165	1.497
55.38	169.9	1.497
57.32	174.6	1.58
59.27	179.3	1.58
61.22	183.9	1.663
63.16	188.5	1.663
65.11	193.1	1.746
67.06	197.5	1.746
69	201.8	1.746
70.94	206.2	1.829
72.87	210.4	1.829
74.79	214.7	1.912
76.72	219.2	1.912
78.63	223.6	1.912
80.51	227.9	1.995
80.54	227.4	1.995
82.39	231.6	1.995
82.63	232.1	1.995
84.28	235.1	2.079
84.73	236	2.079
86.85	240.5	2.079
88.98	245.1	2.162
91.12	249.4	1.829
93.26	253.9	1.829
95.48	258.7	1.829
97.69	263.1	1.829
99.83	267.3	1.829
101.97	271.6	1.912
104.14	276	1.912
106.31	280.4	1.912
108.49	284.7	1.912
110.68	289	1.995
112.88	293.3	1.995
115.09	297.7	1.995
117.3	302	1.995
119.51	306.2	1.995
121.72	310.6	2.079
123.94	315	2.079
126.16	319.1	2.079
128.38	323.4	2.079
130.6	327.8	2.079
132.83	332.2	2.162
135.05	336.7	2.162
137.27	340.8	2.162
139.49	345.2	2.162
141.7	349.5	2.162
143.92	353.9	2.245
146.13	358.3	2.245
148.35	362.8	2.245
150.55	367.2	2.245
152.76	371.6	2.328
154.96	375.7	2.328
157.16	380.5	2.328
159.36	385	2.328
161.56	389.5	2.328
163.75	394	2.411
165.95	398.8	2.411
168.13	403.9	2.411
170.31	409.2	2.411
172.47	414.6	2.494
174.63	420.4	2.494
176.78	427.5	2.494
178.91	437.3	2.577
181.03	450	2.577
183.1	473	2.744
185.02	559.4	3.159
186.75	635.4	3.409
188.5	634.1	3.326
