Measured thermophysical data. Determination of melting temperatures in hydrocarbon mixtures by differential scanning calorimetry
Source: J. Chem. Thermodyn., 2017, 10.1016/j.jct.2016.12.030
Compound 1: hexane, C6H14, InChI=1S/C6H14/c1-3-5-6-4-2/h3-6H2,1-2H3, purity 98%
Compound 2: 1,4-dimethylbenzene, C8H10, InChI=1S/C8H10/c1-7-3-5-8(2)6-4-7/h3-6H,1-2H3, purity 99%
Compound 3: hexadecane, C16H34, InChI=1S/C16H34/c1-3-5-7-9-11-13-15-16-14-12-10-8-6-4-2/h3-16H2,1-2H3, purity 99%
Compound 4: heptane, C7H16, InChI=1S/C7H16/c1-3-5-7-6-4-2/h3-7H2,1-2H3, purity 99%
Compound 5: water, H2O, InChI=1S/H2O/h1H2
Compound 6: mercury, Hg, InChI=1S/Hg, purity 99.9%

System: hexane; phases: Crystal, Liquid, Air at 1 atmosphere
Property: Normal melting temperature, K (Crystal); method: DTA
Normal melting temperature, K	uncertainty
177.39	0.5

System: water; phases: Crystal, Liquid, Air at 1 atmosphere
Property: Normal melting temperature, K (Crystal); method: DTA
Normal melting temperature, K	uncertainty
273.15	0.5

System: mercury; phases: Crystal, Liquid, Air at 1 atmosphere
Property: Normal melting temperature, K (Crystal); method: DTA
Normal melting temperature, K	uncertainty
234.29	0.5

System: heptane + hexadecane; phases: Liquid, Crystal
Fixed: Mole fraction of heptane = 0.6473
Fixed: Pressure, kPa = 101
Property: Solid-liquid equilibrium temperature, K (Liquid); method: DTA
Solid-liquid equilibrium temperature, K	uncertainty
279.17	0.95
279.24	1.06

System: hexane + hexadecane; phases: Liquid, Crystal
Fixed: Pressure, kPa = 101
Property: Solid-liquid equilibrium temperature, K (Liquid); method: DTA
Mole fraction of hexane	Solid-liquid equilibrium temperature, K	uncertainty
0.6727	277.03	0.9
0.9037	261.62	2.4

System: 1,4-dimethylbenzene + hexane + hexadecane; phases: Liquid, Crystal
Property: Solid-liquid equilibrium temperature, K (Liquid); method: DTA
Mole fraction of hexane	Mole fraction of 1,4-dimethylbenzene	Pressure, kPa	Solid-liquid equilibrium temperature, K	uncertainty
0.7036	0.2004	101	260.8	1.08
