Measured thermophysical data. Thermochemical study of four isomers of dichloroanisole
Source: J. Chem. Thermodyn., 2008, 10.1016/j.jct.2008.02.003
Compound 1: hydrogen chloride, ClH, InChI=1S/ClH/h1H
Compound 2: carbon dioxide, CO2, InChI=1S/CO2/c2-1-3
Compound 3: water, H2O, InChI=1S/H2O/h1H2
Compound 4: oxygen, O2, InChI=1S/O2/c1-2
Compound 5: 1,2-dichloro-3-methoxybenzene, C7H6Cl2O, InChI=1S/C7H6Cl2O/c1-10-6-4-2-3-5(8)7(6)9/h2-4H,1H3, purity 97%
Compound 6: 2,4-dichloro-1-methoxybenzene, C7H6Cl2O, InChI=1S/C7H6Cl2O/c1-10-7-3-2-5(8)4-6(7)9/h2-4H,1H3, purity 97%
Compound 7: 2,6-dichloroanisole, C7H6Cl2O, InChI=1S/C7H6Cl2O/c1-10-7-5(8)3-2-4-6(7)9/h2-4H,1H3, purity 97%
Compound 8: 3,5-dichloroanisole, C7H6Cl2O, InChI=1S/C7H6Cl2O/c1-10-7-3-5(8)2-6(9)4-7/h2-4H,1H3, purity 97%

System: 1,2-dichloro-3-methoxybenzene; phases: Crystal, Liquid, Air at 1 atmosphere
Property: Molar enthalpy of transition or fusion, kJ/mol (Crystal); method: DSC
Molar enthalpy of transition or fusion, kJ/mol	uncertainty
22.04	0.5

System: 1,2-dichloro-3-methoxybenzene; phases: Crystal, Liquid, Air at 1 atmosphere
Property: Normal melting temperature, K (Crystal); method: DTA
Normal melting temperature, K	uncertainty
304.14	0.39

System: 1,2-dichloro-3-methoxybenzene; phases: Crystal, Gas
Property: Molar enthalpy of vaporization or sublimation, kJ/mol (Crystal); method: Calvet microcalorimetry
Temperature, K	Molar enthalpy of vaporization or sublimation, kJ/mol	uncertainty
298.15	83.6	3

System: 1,2-dichloro-3-methoxybenzene; phases: Gas
Property: Molar enthalpy, kJ/mol (Gas); method: Calvet drop calorimetry
Temperature, K	Pressure, kPa	Molar enthalpy, kJ/mol	uncertainty
324	101.325	88.6	1.8

System: 2,4-dichloro-1-methoxybenzene; phases: Liquid, Gas
Property: Molar enthalpy of vaporization or sublimation, kJ/mol (Liquid); method: Calvet microcalorimetry
Temperature, K	Molar enthalpy of vaporization or sublimation, kJ/mol	uncertainty
298.15	62.8	1.4

System: 2,4-dichloro-1-methoxybenzene; phases: Gas
Property: Molar enthalpy, kJ/mol (Gas); method: Calvet drop calorimetry
Temperature, K	Pressure, kPa	Molar enthalpy, kJ/mol	uncertainty
324.1	101.325	67.8	1.4

System: 2,6-dichloroanisole; phases: Liquid, Gas
Property: Molar enthalpy of vaporization or sublimation, kJ/mol (Liquid); method: Calvet microcalorimetry
Temperature, K	Molar enthalpy of vaporization or sublimation, kJ/mol	uncertainty
298.15	56.1	1.4

System: 2,6-dichloroanisole; phases: Gas
Property: Molar enthalpy, kJ/mol (Gas); method: Calvet drop calorimetry
Temperature, K	Pressure, kPa	Molar enthalpy, kJ/mol	uncertainty
324	101.325	61.1	1.2

System: 3,5-dichloroanisole; phases: Crystal, Liquid, Air at 1 atmosphere
Property: Molar enthalpy of transition or fusion, kJ/mol (Crystal); method: DSC
Molar enthalpy of transition or fusion, kJ/mol	uncertainty
23.68	0.62

System: 3,5-dichloroanisole; phases: Crystal, Liquid, Air at 1 atmosphere
Property: Normal melting temperature, K (Crystal); method: DTA
Normal melting temperature, K	uncertainty
310.52	0.39

System: 3,5-dichloroanisole; phases: Crystal, Gas
Property: Molar enthalpy of vaporization or sublimation, kJ/mol (Crystal); method: Calvet microcalorimetry
Temperature, K	Molar enthalpy of vaporization or sublimation, kJ/mol	uncertainty
298.15	79	3

System: 3,5-dichloroanisole; phases: Gas
Property: Molar enthalpy, kJ/mol (Gas); method: Calvet drop calorimetry
Temperature, K	Pressure, kPa	Molar enthalpy, kJ/mol	uncertainty
323.9	101.325	84	1.7

Reaction: -1 1,2-dichloro-3-methoxybenzene + 2 hydrogen chloride + 7 carbon dioxide + 2 water + -7.5 oxygen
Property: Specific internal energy of reaction at constant volume, J/g
-19526.6

Reaction: -1 2,4-dichloro-1-methoxybenzene + 2 hydrogen chloride + 7 carbon dioxide + 2 water + -7.5 oxygen
Property: Specific internal energy of reaction at constant volume, J/g
-19622.2

Reaction: -1 2,6-dichloroanisole + 2 hydrogen chloride + 7 carbon dioxide + 2 water + -7.5 oxygen
Property: Specific internal energy of reaction at constant volume, J/g
-19729.6

Reaction: 2 hydrogen chloride + -1 3,5-dichloroanisole + 7 carbon dioxide + 2 water + -7.5 oxygen
Property: Specific internal energy of reaction at constant volume, J/g
-19506.2
