Measured thermophysical data. Thermodynamic surface properties of [BMIm][NTf2] or [EMIm][NTf2] binary mixtures with tetrahydrofuran, acetonitrile or dimethylsulfoxide
Source: J. Chem. Thermodyn., 2013, 10.1016/j.jct.2013.02.021
Compound 1: dimethyl sulfoxide, C2H6OS, InChI=1S/C2H6OS/c1-4(2)3/h1-2H3
Compound 2: 1-butyl-3-methylimidazolium bis(trifluoromethylsulfonyl)imide, C10H15F6N3O4S2, InChI=1S/C8H15N2.C2F6NO4S2/c1-3-4-5-10-7-6-9(2)8-10;3-1(4,5)14(10,11)9-15(12,13)2(6,7)8/h6-8H,3-5H2,1-2H3;/q+1;-1
Compound 3: tetrahydrofuran, C4H8O, InChI=1S/C4H8O/c1-2-4-5-3-1/h1-4H2
Compound 4: acetonitrile, C2H3N, InChI=1S/C2H3N/c1-2-3/h1H3
Compound 5: 1-ethyl-3-methylimidazolium bis((trifluoromethyl)sulfonyl)imide, C8H11F6N3O4S2, InChI=1S/C6H11N2.C2F6NO4S2/c1-3-8-5-4-7(2)6-8;3-1(4,5)14(10,11)9-15(12,13)2(6,7)8/h4-6H,3H2,1-2H3;/q+1;-1

System: dimethyl sulfoxide; phases: Liquid, Air at 1 atmosphere
Property: Surface tension liquid-gas, N/m (Liquid); method: Pendant drop shape
Temperature, K	Surface tension liquid-gas, N/m	uncertainty
293.15	0.04336	0.00043
298.15	0.04278	0.00042
303.15	0.04222	0.00042
308.15	0.04162	0.00042
313.15	0.04103	0.00041

System: 1-butyl-3-methylimidazolium bis(trifluoromethylsulfonyl)imide; phases: Liquid, Air at 1 atmosphere
Property: Surface tension liquid-gas, N/m (Liquid); method: Pendant drop shape
Temperature, K	Surface tension liquid-gas, N/m	uncertainty
293.15	0.03272	0.00036
298.15	0.03248	0.00036
303.15	0.0323	0.00036
308.15	0.0321	0.00036
313.15	0.03188	0.00036

System: tetrahydrofuran; phases: Liquid, Air at 1 atmosphere
Property: Surface tension liquid-gas, N/m (Liquid); method: Pendant drop shape
Temperature, K	Surface tension liquid-gas, N/m	uncertainty
293.15	0.02731	0.00033
298.15	0.02668	0.00033
303.15	0.02604	0.00032
308.15	0.02538	0.00032

System: acetonitrile; phases: Liquid, Air at 1 atmosphere
Property: Surface tension liquid-gas, N/m (Liquid); method: Pendant drop shape
Temperature, K	Surface tension liquid-gas, N/m	uncertainty
293.15	0.02895	0.00034
298.15	0.02837	0.00034
303.15	0.02766	0.00033
308.15	0.02703	0.00033
313.15	0.02643	0.00033

System: 1-ethyl-3-methylimidazolium bis((trifluoromethyl)sulfonyl)imide; phases: Liquid, Air at 1 atmosphere
Property: Surface tension liquid-gas, N/m (Liquid); method: Pendant drop shape
Temperature, K	Surface tension liquid-gas, N/m	uncertainty
293.15	0.03614	0.00038
298.15	0.0359	0.00038
303.15	0.03556	0.00038
308.15	0.03535	0.00038
313.15	0.0351	0.00038

System: tetrahydrofuran + 1-butyl-3-methylimidazolium bis(trifluoromethylsulfonyl)imide; phases: Liquid, Air at 1 atmosphere
Property: Surface tension liquid-gas, N/m (Liquid); method: Pendant drop shape
Temperature, K	Mole fraction of 1-butyl-3-methylimidazolium bis(trifluoromethylsulfonyl)imide	Surface tension liquid-gas, N/m	uncertainty
293.15	0	0.02731	0.00033
293.15	0.1139	0.02859	0.00034
293.15	0.1771	0.0292	0.00034
293.15	0.2815	0.03004	0.00035
293.15	0.4048	0.0307	0.00035
293.15	0.4897	0.03113	0.00035
293.15	0.6329	0.0317	0.00036
293.15	0.7468	0.03209	0.00036
293.15	0.9071	0.03256	0.00036
293.15	1	0.03272	0.00036
298.15	0	0.02668	0.00033
298.15	0.1139	0.02809	0.00034
298.15	0.1771	0.02862	0.00034
298.15	0.2815	0.02958	0.00034
298.15	0.4048	0.0303	0.00035
298.15	0.4897	0.03075	0.00035
298.15	0.6329	0.03133	0.00035
298.15	0.7468	0.0318	0.00036
298.15	0.9071	0.03234	0.00036
298.15	1	0.03248	0.00036
303.15	0	0.02604	0.00032
303.15	0.1139	0.0275	0.00033
303.15	0.1771	0.02812	0.00034
303.15	0.2815	0.02914	0.00034
303.15	0.4048	0.02992	0.00035
303.15	0.4897	0.0304	0.00035
303.15	0.6329	0.03103	0.00035
303.15	0.7468	0.03147	0.00036
303.15	0.9071	0.03208	0.00036
303.15	1	0.0323	0.00036
308.15	0	0.02538	0.00032
308.15	0.1139	0.02691	0.00033
308.15	0.1771	0.02758	0.00033
308.15	0.2815	0.02875	0.00034
308.15	0.4048	0.02955	0.00034
308.15	0.4897	0.03002	0.00035
308.15	0.6329	0.03073	0.00035
308.15	0.7468	0.03123	0.00035
308.15	0.9071	0.03185	0.00036
308.15	1	0.0321	0.00036

System: tetrahydrofuran + 1-butyl-3-methylimidazolium bis(trifluoromethylsulfonyl)imide; phases: Liquid, Gas
Property: Vapor or sublimation pressure, kPa (Liquid); method: Closed cell (Static) method
Temperature, K	Mole fraction of tetrahydrofuran	Vapor or sublimation pressure, kPa	uncertainty
283.15	0.1138	0.709	0.061
283.15	0.1496	0.914	0.062
283.15	0.1992	1.227	0.063
283.15	0.2885	1.949	0.063
283.15	0.3687	2.758	0.064
283.15	0.4168	3.293	0.065
283.15	0.4819	4.09	0.066
283.15	0.5499	5.087	0.068
283.15	0.6223	6.255	0.07
283.15	0.6964	7.544	0.072
283.15	0.7045	7.698	0.073
283.15	0.7698	8.963	0.075
283.15	0.8171	9.709	0.077
283.15	0.8922	10.492	0.078
283.15	0.9055	10.564	0.079
283.15	0.9519	10.664	0.079
293.15	0.1138	1.083	0.062
293.15	0.1496	1.388	0.063
293.15	0.1992	1.902	0.063
293.15	0.2885	3.064	0.065
293.15	0.3687	4.32	0.066
293.15	0.4168	5.174	0.068
293.15	0.4819	6.477	0.07
293.15	0.5499	8.04	0.073
293.15	0.6223	9.918	0.076
293.15	0.6964	11.982	0.082
293.15	0.7045	12.215	0.091
293.15	0.7698	14.181	0.085
293.15	0.8171	15.317	0.088
293.15	0.8922	16.658	0.093
293.15	0.9055	16.803	0.091
293.15	0.9519	17.099	0.093
303.15	0.1138	1.593	0.063
303.15	0.1496	2.039	0.064
303.15	0.1992	2.796	0.064
303.15	0.2885	4.588	0.067
303.15	0.3687	6.49	0.07
303.15	0.4168	7.85	0.072
303.15	0.4819	9.879	0.076
303.15	0.5499	12.26	0.081
303.15	0.6223	15.12	0.088
303.15	0.6964	18.3	0.098
303.15	0.7045	18.62	0.112
303.15	0.7698	21.45	0.104
303.15	0.8171	23.24	0.108
303.15	0.8922	25.4	0.116
303.15	0.9055	25.65	0.114
303.15	0.9519	26.29	0.117
313.15	0.1138	2.296	0.064
313.15	0.1496	2.911	0.065
313.15	0.1992	4.027	0.066
313.15	0.2885	6.61	0.07
313.15	0.3687	9.499	0.075
313.15	0.4168	11.58	0.08
313.15	0.4819	14.62	0.086
313.15	0.5499	18.18	0.095
313.15	0.6223	22.44	0.105
313.15	0.6964	27.11	0.118
313.15	0.7045	27.65	0.119
313.15	0.7698	31.64	0.129
313.15	0.8171	34.21	0.135
313.15	0.8922	37.55	0.144
313.15	0.9055	38.03	0.145
313.15	0.9519	39.3	0.149

System: acetonitrile + 1-butyl-3-methylimidazolium bis(trifluoromethylsulfonyl)imide; phases: Liquid, Air at 1 atmosphere
Property: Surface tension liquid-gas, N/m (Liquid); method: Pendant drop shape
Temperature, K	Mole fraction of 1-butyl-3-methylimidazolium bis(trifluoromethylsulfonyl)imide	Surface tension liquid-gas, N/m	uncertainty
293.15	0	0.02895	0.00034
293.15	0.0971	0.03087	0.00035
293.15	0.2033	0.03179	0.00036
293.15	0.2989	0.0322	0.00036
293.15	0.471	0.03252	0.00036
293.15	0.6261	0.03265	0.00036
293.15	0.7423	0.03278	0.00036
293.15	0.8983	0.03276	0.00036
293.15	1	0.03272	0.00036
298.15	0	0.02837	0.00034
298.15	0.0971	0.03028	0.00035
298.15	0.2033	0.03136	0.00035
298.15	0.2989	0.0318	0.00036
298.15	0.471	0.03215	0.00036
298.15	0.6261	0.03236	0.00036
298.15	0.7423	0.03239	0.00036
298.15	0.8983	0.03248	0.00036
298.15	1	0.03248	0.00036
303.15	0	0.02766	0.00033
303.15	0.0971	0.02971	0.00035
303.15	0.2033	0.03084	0.00035
303.15	0.2989	0.03139	0.00035
303.15	0.471	0.03177	0.00036
303.15	0.6261	0.03206	0.00036
303.15	0.7423	0.03222	0.00036
303.15	0.8983	0.03231	0.00036
303.15	1	0.0323	0.00036
308.15	0	0.02703	0.00033
308.15	0.0971	0.02911	0.00034
308.15	0.2033	0.03044	0.00035
308.15	0.2989	0.03099	0.00035
308.15	0.471	0.03151	0.00036
308.15	0.6261	0.03182	0.00036
308.15	0.7423	0.03194	0.00036
308.15	0.8983	0.032	0.00036
308.15	1	0.0321	0.00036
313.15	0	0.02643	0.00033
313.15	0.0971	0.02862	0.00034
313.15	0.2033	0.02997	0.00035
313.15	0.2989	0.0306	0.00035
313.15	0.471	0.03121	0.00035
313.15	0.6261	0.03154	0.00036
313.15	0.7423	0.03169	0.00036
313.15	0.8983	0.03185	0.00036
313.15	1	0.03188	0.00036

System: acetonitrile + 1-butyl-3-methylimidazolium bis(trifluoromethylsulfonyl)imide; phases: Liquid, Gas
Property: Vapor or sublimation pressure, kPa (Liquid); method: Closed cell (Static) method
Temperature, K	Mole fraction of acetonitrile	Vapor or sublimation pressure, kPa	uncertainty
283.15	0.1295	0.486	0.061
283.15	0.1761	0.596	0.061
283.15	0.1895	0.644	0.061
283.15	0.2424	0.762	0.061
283.15	0.2689	0.835	0.062
283.15	0.3316	1.109	0.063
283.15	0.3664	1.262	0.063
283.15	0.4037	1.463	0.063
283.15	0.4475	1.721	0.063
283.15	0.5149	2.179	0.064
283.15	0.5752	2.645	0.064
283.15	0.633	3.129	0.065
283.15	0.642	3.206	0.065
283.15	0.711	3.804	0.066
283.15	0.7374	4.041	0.066
283.15	0.83	4.871	0.067
283.15	0.8847	5.316	0.068
283.15	0.9211	5.569	0.068
283.15	0.9615	5.784	0.069
293.15	0.1295	0.71	0.061
293.15	0.1761	0.883	0.062
293.15	0.1895	0.934	0.062
293.15	0.2424	1.131	0.063
293.15	0.2689	1.249	0.063
293.15	0.3316	1.681	0.063
293.15	0.3664	1.951	0.063
293.15	0.4037	2.263	0.064
293.15	0.4475	2.67	0.064
293.15	0.5149	3.368	0.065
293.15	0.5752	4.116	0.066
293.15	0.633	4.886	0.067
293.15	0.642	5.003	0.07
293.15	0.711	5.954	0.069
293.15	0.7374	6.338	0.069
293.15	0.83	7.658	0.072
293.15	0.8847	8.377	0.073
293.15	0.9211	8.795	0.074
293.15	0.9615	9.143	0.075
303.15	0.1295	0.978	0.062
303.15	0.1761	1.252	0.063
303.15	0.1895	1.324	0.063
303.15	0.2424	1.665	0.063
303.15	0.2689	1.874	0.063
303.15	0.3316	2.527	0.064
303.15	0.3664	2.939	0.064
303.15	0.4037	3.447	0.065
303.15	0.4475	4.065	0.066
303.15	0.5149	5.162	0.067
303.15	0.5752	6.338	0.069
303.15	0.633	7.553	0.072
303.15	0.642	7.738	0.076
303.15	0.711	9.235	0.075
303.15	0.7374	9.845	0.076
303.15	0.83	11.93	0.08
303.15	0.8847	13.08	0.083
303.15	0.9211	13.76	0.084
303.15	0.9615	14.33	0.086
313.15	0.1295	1.291	0.063
313.15	0.1761	1.745	0.063
313.15	0.1895	1.859	0.063
313.15	0.2424	2.424	0.064
313.15	0.2689	2.746	0.064
313.15	0.3316	3.745	0.065
313.15	0.3664	4.376	0.066
313.15	0.4037	5.156	0.067
313.15	0.4475	6.089	0.069
313.15	0.5149	7.763	0.072
313.15	0.5752	9.577	0.075
313.15	0.633	11.46	0.079
313.15	0.642	11.74	0.079
313.15	0.711	14.05	0.084
313.15	0.7374	14.99	0.086
313.15	0.83	18.27	0.094
313.15	0.8847	20.06	0.098
313.15	0.9211	21.12	0.1
313.15	0.9615	22.05	0.103

System: dimethyl sulfoxide + 1-butyl-3-methylimidazolium bis(trifluoromethylsulfonyl)imide; phases: Liquid, Air at 1 atmosphere
Property: Surface tension liquid-gas, N/m (Liquid); method: Pendant drop shape
Temperature, K	Mole fraction of 1-butyl-3-methylimidazolium bis(trifluoromethylsulfonyl)imide	Surface tension liquid-gas, N/m	uncertainty
293.15	0	0.04336	0.00043
293.15	0.1025	0.03806	0.0004
293.15	0.2358	0.03602	0.00038
293.15	0.3241	0.03511	0.00038
293.15	0.4205	0.03461	0.00037
293.15	0.4785	0.03425	0.00037
293.15	0.5179	0.03409	0.00037
293.15	0.6581	0.03353	0.00037
293.15	0.8232	0.03317	0.00037
293.15	1	0.03272	0.00036
298.15	0	0.04278	0.00042
298.15	0.1025	0.03724	0.00039
298.15	0.2358	0.03575	0.00038
298.15	0.3241	0.03493	0.00038
298.15	0.4205	0.03435	0.00037
298.15	0.4785	0.03396	0.00037
298.15	0.5179	0.03375	0.00037
298.15	0.6581	0.03327	0.00037
298.15	0.8232	0.0329	0.00036
298.15	1	0.03248	0.00036
303.15	0	0.04222	0.00042
303.15	0.1025	0.03672	0.00039
303.15	0.2358	0.0354	0.00038
303.15	0.3241	0.03452	0.00037
303.15	0.4205	0.034	0.00037
303.15	0.4785	0.03369	0.00037
303.15	0.5179	0.03353	0.00037
303.15	0.6581	0.03302	0.00036
303.15	0.8232	0.03267	0.00036
303.15	1	0.0323	0.00036
308.15	0	0.04162	0.00042
308.15	0.1025	0.03635	0.00038
308.15	0.2358	0.03506	0.00038
308.15	0.3241	0.03424	0.00037
308.15	0.4205	0.03367	0.00037
308.15	0.4785	0.03337	0.00037
308.15	0.5179	0.03317	0.00037
308.15	0.6581	0.03277	0.00036
308.15	0.8232	0.03238	0.00036
308.15	1	0.0321	0.00036
313.15	0	0.04103	0.00041
313.15	0.1025	0.03595	0.00038
313.15	0.2358	0.03469	0.00037
313.15	0.3241	0.03393	0.00037
313.15	0.4205	0.03336	0.00037
313.15	0.4785	0.03309	0.00036
313.15	0.5179	0.03296	0.00036
313.15	0.6581	0.03254	0.00036
313.15	0.8232	0.03218	0.00036
313.15	1	0.03188	0.00036

System: dimethyl sulfoxide + 1-ethyl-3-methylimidazolium bis((trifluoromethyl)sulfonyl)imide; phases: Liquid, Air at 1 atmosphere
Property: Surface tension liquid-gas, N/m (Liquid); method: Pendant drop shape
Temperature, K	Mole fraction of 1-ethyl-3-methylimidazolium bis((trifluoromethyl)sulfonyl)imide	Surface tension liquid-gas, N/m	uncertainty
293.15	0	0.04336	0.00043
293.15	0.0593	0.04042	0.00041
293.15	0.1959	0.03833	0.0004
293.15	0.3595	0.0374	0.00039
293.15	0.5086	0.03685	0.00039
293.15	0.6325	0.03657	0.00039
293.15	0.7778	0.0363	0.00038
293.15	0.9378	0.0361	0.00038
293.15	1	0.03614	0.00038
298.15	0	0.04278	0.00042
298.15	0.0593	0.03998	0.00041
298.15	0.1959	0.038	0.00039
298.15	0.3595	0.03709	0.00039
298.15	0.5086	0.03649	0.00039
298.15	0.6325	0.03627	0.00038
298.15	0.7778	0.03605	0.00038
298.15	0.9378	0.0359	0.00038
298.15	1	0.0359	0.00038
303.15	0	0.04222	0.00042
303.15	0.0593	0.03953	0.0004
303.15	0.1959	0.03756	0.00039
303.15	0.3595	0.03671	0.00039
303.15	0.5086	0.03617	0.00038
303.15	0.6325	0.03596	0.00038
303.15	0.7778	0.03576	0.00038
303.15	0.9378	0.03564	0.00038
303.15	1	0.03556	0.00038
308.15	0	0.04162	0.00042
308.15	0.0593	0.03908	0.0004
308.15	0.1959	0.03725	0.00039
308.15	0.3595	0.03634	0.00038
308.15	0.5086	0.03589	0.00038
308.15	0.6325	0.0357	0.00038
308.15	0.7778	0.03553	0.00038
308.15	0.9378	0.03543	0.00038
308.15	1	0.03535	0.00038
313.15	0	0.04103	0.00041
313.15	0.0593	0.03864	0.0004
313.15	0.1959	0.03683	0.00039
313.15	0.3595	0.03598	0.00038
313.15	0.5086	0.03558	0.00038
313.15	0.6325	0.0354	0.00038
313.15	0.7778	0.03527	0.00038
313.15	0.9378	0.03513	0.00038
313.15	1	0.0351	0.00038
