Measured thermophysical data. Volumetric properties of pyridine, 2-picoline, 3-picoline, and 4-picoline at temperatures from (298.15 to 328.15) K and at pressures up to 40 MPa
Source: J. Chem. Thermodyn., 2010, 10.1016/j.jct.2009.07.006
Compound 1: pyridine, C5H5N, InChI=1S/C5H5N/c1-2-4-6-5-3-1/h1-5H, purity 99.8%
Compound 2: 2-methylpyridine, C6H7N, InChI=1S/C6H7N/c1-6-4-2-3-5-7-6/h2-5H,1H3, purity 98%
Compound 3: 3-methylpyridine, C6H7N, InChI=1S/C6H7N/c1-6-3-2-4-7-5-6/h2-5H,1H3, purity 99%
Compound 4: 4-methylpyridine, C6H7N, InChI=1S/C6H7N/c1-6-2-4-7-5-3-6/h2-5H,1H3, purity 99%

System: pyridine; phases: Liquid
Property: Mass density, kg/m3 (Liquid); method: Vibrating tube method
Temperature, K	Pressure, kPa	Mass density, kg/m3	uncertainty
298.15	2130	979	0.2
298.15	4150	980.4	0.2
298.15	6180	981.8	0.2
298.15	8210	983.2	0.2
298.15	10230	984.5	0.2
298.15	11250	985.1	0.2
298.15	12260	985.8	0.2
298.15	14290	987.1	0.2
298.15	16310	988.3	0.2
298.15	18340	989.6	0.2
298.15	20370	990.8	0.2
298.15	22390	992.1	0.2
298.15	24420	993.3	0.2
298.15	26450	994.5	0.2
298.15	28470	995.7	0.2
298.15	29490	996.3	0.2
298.15	30500	996.9	0.2
298.15	32530	998	0.2
298.15	34550	999.1	0.2
298.15	36580	1000.3	0.2
298.15	38600	1001.4	0.2
298.15	39620	1002	0.2
308.15	2130	969.2	0.2
308.15	4150	970.6	0.2
308.15	6180	972.1	0.2
308.15	8210	973.5	0.2
308.15	10230	974.9	0.2
308.15	11250	975.6	0.2
308.15	12260	976.3	0.2
308.15	14290	977.6	0.2
308.15	16310	978.9	0.2
308.15	18340	980.3	0.2
308.15	20370	981.6	0.2
308.15	22390	982.8	0.2
308.15	24420	984.1	0.2
308.15	26450	985.4	0.2
308.15	28470	986.7	0.2
308.15	29490	987.2	0.2
308.15	30500	987.8	0.2
308.15	32530	989	0.2
308.15	34550	990.3	0.2
308.15	36580	991.5	0.2
308.15	38600	992.6	0.2
308.15	39620	993.2	0.2
318.15	2130	959.3	0.2
318.15	4150	960.8	0.2
318.15	6180	962.3	0.2
318.15	8210	963.7	0.2
318.15	10230	965.2	0.2
318.15	11250	966	0.2
318.15	12260	966.7	0.2
318.15	14290	968.1	0.2
318.15	16310	969.5	0.2
318.15	18340	970.9	0.2
318.15	20370	972.2	0.2
318.15	22390	973.6	0.2
318.15	24420	974.9	0.2
318.15	26450	976.2	0.2
318.15	28470	977.6	0.2
318.15	29490	978.2	0.2
318.15	30500	978.8	0.2
318.15	32530	980.1	0.2
318.15	34550	981.4	0.2
318.15	36580	982.6	0.2
318.15	38600	983.8	0.2
318.15	39620	984.4	0.2
328.15	2130	949.2	0.2
328.15	4150	950.7	0.2
328.15	6180	952.3	0.2
328.15	8210	953.9	0.2
328.15	10230	955.4	0.2
328.15	11250	956.2	0.2
328.15	12260	956.9	0.2
328.15	14290	958.4	0.2
328.15	16310	959.9	0.2
328.15	18340	961.3	0.2
328.15	20370	962.8	0.2
328.15	22390	964.2	0.2
328.15	24420	965.6	0.2
328.15	26450	967	0.2
328.15	28470	968.3	0.2
328.15	29490	969	0.2
328.15	30500	969.7	0.2
328.15	32530	971	0.2
328.15	34550	972.3	0.2
328.15	36580	973.6	0.2
328.15	38600	975	0.2
328.15	39620	975.6	0.2

System: pyridine; phases: Liquid
Property: Isothermal compressibility, 1/kPa (Liquid); method: calculate from equation
Temperature, K	Pressure, kPa	Isothermal compressibility, 1/kPa	uncertainty
298.15	2130	6.97e-07	3.5e-08
298.15	4150	6.86e-07	3.4e-08
298.15	6180	6.75e-07	3.4e-08
298.15	8210	6.65e-07	3.3e-08
298.15	10230	6.56e-07	3.3e-08
298.15	11250	6.51e-07	3.3e-08
298.15	12260	6.46e-07	3.2e-08
298.15	14290	6.37e-07	3.2e-08
298.15	16310	6.28e-07	3.1e-08
298.15	18340	6.2e-07	3.1e-08
298.15	20370	6.11e-07	3.1e-08
298.15	22390	6.03e-07	3e-08
298.15	24420	5.95e-07	3e-08
298.15	26450	5.87e-07	2.9e-08
298.15	28470	5.8e-07	2.9e-08
298.15	29490	5.76e-07	2.9e-08
298.15	30500	5.73e-07	2.9e-08
298.15	32530	5.65e-07	2.8e-08
298.15	34550	5.59e-07	2.8e-08
298.15	36580	5.52e-07	2.8e-08
298.15	38600	5.45e-07	2.7e-08
298.15	39620	5.42e-07	2.7e-08
308.15	2130	7.4e-07	3.7e-08
308.15	4150	7.29e-07	3.6e-08
308.15	6180	7.19e-07	3.6e-08
308.15	8210	7.08e-07	3.5e-08
308.15	10230	6.98e-07	3.5e-08
308.15	11250	6.93e-07	3.5e-08
308.15	12260	6.88e-07	3.4e-08
308.15	14290	6.79e-07	3.4e-08
308.15	16310	6.69e-07	3.3e-08
308.15	18340	6.6e-07	3.3e-08
308.15	20370	6.52e-07	3.3e-08
308.15	22390	6.43e-07	3.2e-08
308.15	24420	6.35e-07	3.2e-08
308.15	26450	6.27e-07	3.1e-08
308.15	28470	6.19e-07	3.1e-08
308.15	29490	6.15e-07	3.1e-08
308.15	30500	6.11e-07	3.1e-08
308.15	32530	6.04e-07	3e-08
308.15	34550	5.97e-07	3e-08
308.15	36580	5.9e-07	3e-08
308.15	38600	5.83e-07	2.9e-08
308.15	39620	5.79e-07	2.9e-08
318.15	2130	7.83e-07	3.9e-08
318.15	4150	7.71e-07	3.9e-08
318.15	6180	7.6e-07	3.8e-08
318.15	8210	7.49e-07	3.7e-08
318.15	10230	7.39e-07	3.7e-08
318.15	11250	7.34e-07	3.7e-08
318.15	12260	7.29e-07	3.6e-08
318.15	14290	7.19e-07	3.6e-08
318.15	16310	7.09e-07	3.5e-08
318.15	18340	7e-07	3.5e-08
318.15	20370	6.91e-07	3.5e-08
318.15	22390	6.82e-07	3.4e-08
318.15	24420	6.74e-07	3.4e-08
318.15	26450	6.65e-07	3.3e-08
318.15	28470	6.57e-07	3.3e-08
318.15	29490	6.53e-07	3.3e-08
318.15	30500	6.49e-07	3.2e-08
318.15	32530	6.42e-07	3.2e-08
318.15	34550	6.34e-07	3.2e-08
318.15	36580	6.27e-07	3.1e-08
318.15	38600	6.2e-07	3.1e-08
318.15	39620	6.16e-07	3.1e-08
328.15	2130	8.23e-07	4.1e-08
328.15	4150	8.12e-07	4.1e-08
328.15	6180	8e-07	4e-08
328.15	8210	7.89e-07	3.9e-08
328.15	10230	7.78e-07	3.9e-08
328.15	11250	7.73e-07	3.9e-08
328.15	12260	7.68e-07	3.8e-08
328.15	14290	7.58e-07	3.8e-08
328.15	16310	7.48e-07	3.7e-08
328.15	18340	7.39e-07	3.7e-08
328.15	20370	7.29e-07	3.6e-08
328.15	22390	7.2e-07	3.6e-08
328.15	24420	7.11e-07	3.6e-08
328.15	26450	7.03e-07	3.5e-08
328.15	28470	6.94e-07	3.5e-08
328.15	29490	6.9e-07	3.5e-08
328.15	30500	6.86e-07	3.4e-08
328.15	32530	6.78e-07	3.4e-08
328.15	34550	6.7e-07	3.4e-08
328.15	36580	6.63e-07	3.3e-08
328.15	38600	6.55e-07	3.3e-08
328.15	39620	6.52e-07	3.3e-08

System: 2-methylpyridine; phases: Liquid
Property: Mass density, kg/m3 (Liquid); method: Vibrating tube method
Temperature, K	Pressure, kPa	Mass density, kg/m3	uncertainty
298.15	2130	941.2	0.8
298.15	4150	942.5	0.8
298.15	6180	943.9	0.8
298.15	8210	945.3	0.8
298.15	10230	946.6	0.8
298.15	11250	947.2	0.8
298.15	12260	947.9	0.8
298.15	14290	949.2	0.8
298.15	16310	950.5	0.8
298.15	18340	951.7	0.8
298.15	20370	953	0.8
298.15	22390	954.2	0.8
298.15	24420	955.4	0.8
298.15	26450	956.6	0.8
298.15	28470	957.7	0.8
298.15	29490	958.3	0.8
298.15	30500	958.9	0.8
298.15	32520	960.1	0.8
298.15	34550	961.2	0.8
298.15	36580	962.4	0.9
298.15	38600	963.5	0.9
298.15	39620	964	0.9
308.15	2130	932.1	0.8
308.15	4150	933.5	0.8
308.15	6180	935	0.8
308.15	8210	936.4	0.8
308.15	10230	937.8	0.8
308.15	11250	938.5	0.8
308.15	12260	939.1	0.8
308.15	14290	940.5	0.8
308.15	16310	941.9	0.8
308.15	18340	943.2	0.8
308.15	20370	944.5	0.8
308.15	22390	945.8	0.8
308.15	24420	947	0.8
308.15	26450	948.3	0.8
308.15	28470	949.5	0.8
308.15	29490	950.1	0.8
308.15	30500	950.8	0.8
308.15	32520	952	0.8
308.15	34550	953.2	0.9
308.15	36580	954.3	0.9
308.15	38600	955.5	0.9
308.15	39620	956.1	0.9
318.15	2130	922.8	0.8
318.15	4150	924.3	0.8
318.15	6180	925.8	0.8
318.15	8210	927.3	0.8
318.15	10230	928.8	0.8
318.15	11250	929.5	0.8
318.15	12260	930.2	0.8
318.15	14290	931.6	0.8
318.15	16310	933	0.8
318.15	18340	934.4	0.8
318.15	20370	935.8	0.8
318.15	22390	937.1	0.8
318.15	24420	938.5	0.8
318.15	26450	939.8	0.8
318.15	28470	941.1	0.8
318.15	29490	941.7	0.8
318.15	30500	942.4	0.8
318.15	32520	943.7	0.8
318.15	34550	944.9	0.9
318.15	36580	946.1	0.9
318.15	38600	947.3	0.9
318.15	39620	947.9	0.9
328.15	2130	913.5	0.8
328.15	4150	915.1	0.8
328.15	6180	916.7	0.8
328.15	8210	918.3	0.8
328.15	10230	919.8	0.8
328.15	11250	920.5	0.8
328.15	12260	921.3	0.8
328.15	14290	922.8	0.8
328.15	16310	924.3	0.8
328.15	18340	925.7	0.8
328.15	20370	927.2	0.8
328.15	22390	928.6	0.8
328.15	24420	930	0.8
328.15	26450	931.4	0.8
328.15	28470	932.7	0.8
328.15	29490	933.4	0.8
328.15	30500	934.1	0.8
328.15	32520	935.4	0.8
328.15	34550	936.8	0.9
328.15	36580	938	0.9
328.15	38600	939.3	0.9
328.15	39620	940	0.9

System: 2-methylpyridine; phases: Liquid
Property: Isothermal compressibility, 1/kPa (Liquid); method: calculate from equation
Temperature, K	Pressure, kPa	Isothermal compressibility, 1/kPa	uncertainty
298.15	2130	7.35e-07	3.7e-08
298.15	4150	7.22e-07	3.6e-08
298.15	6180	7.09e-07	3.5e-08
298.15	8210	6.97e-07	3.5e-08
298.15	10230	6.86e-07	3.4e-08
298.15	11250	6.8e-07	3.4e-08
298.15	12260	6.75e-07	3.4e-08
298.15	14290	6.64e-07	3.3e-08
298.15	16310	6.53e-07	3.3e-08
298.15	18340	6.43e-07	3.2e-08
298.15	20370	6.34e-07	3.2e-08
298.15	22390	6.24e-07	3.1e-08
298.15	24420	6.15e-07	3.1e-08
298.15	26450	6.06e-07	3e-08
298.15	28470	5.97e-07	3e-08
298.15	29490	5.93e-07	3e-08
298.15	30500	5.89e-07	2.9e-08
298.15	32520	5.81e-07	2.9e-08
298.15	34550	5.73e-07	2.9e-08
298.15	36580	5.65e-07	2.8e-08
298.15	38600	5.58e-07	2.8e-08
298.15	39620	5.54e-07	2.8e-08
308.15	2130	7.83e-07	3.9e-08
308.15	4150	7.69e-07	3.8e-08
308.15	6180	7.56e-07	3.8e-08
308.15	8210	7.43e-07	3.7e-08
308.15	10230	7.31e-07	3.7e-08
308.15	11250	7.25e-07	3.6e-08
308.15	12260	7.19e-07	3.6e-08
308.15	14290	7.08e-07	3.5e-08
308.15	16310	6.96e-07	3.5e-08
308.15	18340	6.86e-07	3.4e-08
308.15	20370	6.75e-07	3.4e-08
308.15	22390	6.65e-07	3.3e-08
308.15	24420	6.56e-07	3.3e-08
308.15	26450	6.46e-07	3.2e-08
308.15	28470	6.37e-07	3.2e-08
308.15	29490	6.32e-07	3.2e-08
308.15	30500	6.28e-07	3.1e-08
308.15	32520	6.19e-07	3.1e-08
308.15	34550	6.11e-07	3.1e-08
308.15	36580	6.03e-07	3e-08
308.15	38600	5.95e-07	3e-08
308.15	39620	5.91e-07	3e-08
318.15	2130	8.31e-07	4.2e-08
318.15	4150	8.16e-07	4.1e-08
318.15	6180	8.02e-07	4e-08
318.15	8210	7.89e-07	3.9e-08
318.15	10230	7.76e-07	3.9e-08
318.15	11250	7.7e-07	3.9e-08
318.15	12260	7.63e-07	3.8e-08
318.15	14290	7.51e-07	3.8e-08
318.15	16310	7.4e-07	3.7e-08
318.15	18340	7.28e-07	3.6e-08
318.15	20370	7.17e-07	3.6e-08
318.15	22390	7.07e-07	3.5e-08
318.15	24420	6.96e-07	3.5e-08
318.15	26450	6.86e-07	3.4e-08
318.15	28470	6.77e-07	3.4e-08
318.15	29490	6.72e-07	3.4e-08
318.15	30500	6.67e-07	3.3e-08
318.15	32520	6.58e-07	3.3e-08
318.15	34550	6.49e-07	3.2e-08
318.15	36580	6.41e-07	3.2e-08
318.15	38600	6.32e-07	3.2e-08
318.15	39620	6.28e-07	3.1e-08
328.15	2130	8.79e-07	4.4e-08
328.15	4150	8.64e-07	4.3e-08
328.15	6180	8.49e-07	4.2e-08
328.15	8210	8.35e-07	4.2e-08
328.15	10230	8.21e-07	4.1e-08
328.15	11250	8.15e-07	4.1e-08
328.15	12260	8.08e-07	4e-08
328.15	14290	7.95e-07	4e-08
328.15	16310	7.83e-07	3.9e-08
328.15	18340	7.71e-07	3.9e-08
328.15	20370	7.59e-07	3.8e-08
328.15	22390	7.48e-07	3.7e-08
328.15	24420	7.37e-07	3.7e-08
328.15	26450	7.27e-07	3.6e-08
328.15	28470	7.17e-07	3.6e-08
328.15	29490	7.12e-07	3.6e-08
328.15	30500	7.07e-07	3.5e-08
328.15	32520	6.97e-07	3.5e-08
328.15	34550	6.88e-07	3.4e-08
328.15	36580	6.79e-07	3.4e-08
328.15	38600	6.7e-07	3.4e-08
328.15	39620	6.65e-07	3.3e-08

System: 3-methylpyridine; phases: Liquid
Property: Mass density, kg/m3 (Liquid); method: Vibrating tube method
Temperature, K	Pressure, kPa	Mass density, kg/m3	uncertainty
298.15	2130	953.2	0.3
298.15	4150	954.5	0.3
298.15	6180	955.8	0.3
298.15	8210	957.1	0.3
298.15	10230	958.4	0.3
298.15	11250	959	0.3
298.15	12260	959.6	0.3
298.15	14290	960.8	0.3
298.15	16310	962.1	0.3
298.15	18340	963.3	0.3
298.15	20370	964.4	0.3
298.15	22390	965.6	0.3
298.15	24420	966.7	0.3
298.15	26450	967.9	0.3
298.15	28470	969	0.3
298.15	29490	969.6	0.3
298.15	30500	970.1	0.3
298.15	32530	971.2	0.3
298.15	34550	972.3	0.3
298.15	36580	973.4	0.3
298.15	38600	974.5	0.3
298.15	39620	975	0.3
308.15	2130	944.3	0.3
308.15	4150	945.7	0.3
308.15	6180	947.1	0.3
308.15	8210	948.4	0.3
308.15	10230	949.7	0.3
308.15	11250	950.4	0.3
308.15	12260	951	0.3
308.15	14290	952.3	0.3
308.15	16310	953.6	0.3
308.15	18340	954.8	0.3
308.15	20370	956.1	0.3
308.15	22390	957.3	0.3
308.15	24420	958.5	0.3
308.15	26450	959.7	0.3
308.15	28470	960.9	0.3
308.15	29490	961.5	0.3
308.15	30500	962	0.3
308.15	32530	963.2	0.3
308.15	34550	964.3	0.3
308.15	36580	965.4	0.3
308.15	38600	966.5	0.3
308.15	39620	967.1	0.3
318.15	2130	935.3	0.3
318.15	4150	936.7	0.3
318.15	6180	938.1	0.3
318.15	8210	939.4	0.3
318.15	10230	940.9	0.3
318.15	11250	941.6	0.3
318.15	12260	942.3	0.3
318.15	14290	943.6	0.3
318.15	16310	944.9	0.3
318.15	18340	946.2	0.3
318.15	20370	947.5	0.3
318.15	22390	948.8	0.3
318.15	24420	950.1	0.3
318.15	26450	951.3	0.3
318.15	28470	952.6	0.3
318.15	29490	953.2	0.3
318.15	30500	953.8	0.3
318.15	32530	955	0.3
318.15	34550	956.2	0.3
318.15	36580	957.4	0.3
318.15	38600	958.5	0.3
318.15	39620	959.1	0.3
328.15	2130	926.3	0.3
328.15	4150	927.8	0.3
328.15	6180	929.2	0.3
328.15	8210	930.7	0.3
328.15	10230	932.2	0.3
328.15	11250	932.9	0.3
328.15	12260	933.6	0.3
328.15	14290	935	0.3
328.15	16310	936.4	0.3
328.15	18340	937.7	0.3
328.15	20370	939.1	0.3
328.15	22390	940.4	0.3
328.15	24420	941.7	0.3
328.15	26450	943.1	0.3
328.15	28470	944.4	0.3
328.15	29490	945	0.3
328.15	30500	945.7	0.3
328.15	32530	946.9	0.4
328.15	34550	948.2	0.4
328.15	36580	949.4	0.4
328.15	38600	950.6	0.4
328.15	39620	951.2	0.4

System: 3-methylpyridine; phases: Liquid
Property: Isothermal compressibility, 1/kPa (Liquid); method: calculate from equation
Temperature, K	Pressure, kPa	Isothermal compressibility, 1/kPa	uncertainty
298.15	2130	6.8e-07	3.4e-08
298.15	4150	6.69e-07	3.3e-08
298.15	6180	6.59e-07	3.3e-08
298.15	8210	6.49e-07	3.2e-08
298.15	10230	6.4e-07	3.2e-08
298.15	11250	6.35e-07	3.2e-08
298.15	12260	6.3e-07	3.2e-08
298.15	14290	6.21e-07	3.1e-08
298.15	16310	6.13e-07	3.1e-08
298.15	18340	6.04e-07	3e-08
298.15	20370	5.96e-07	3e-08
298.15	22390	5.88e-07	2.9e-08
298.15	24420	5.8e-07	2.9e-08
298.15	26450	5.73e-07	2.9e-08
298.15	28470	5.66e-07	2.8e-08
298.15	29490	5.62e-07	2.8e-08
298.15	30500	5.58e-07	2.8e-08
298.15	32530	5.52e-07	2.8e-08
298.15	34550	5.45e-07	2.7e-08
298.15	36580	5.38e-07	2.7e-08
298.15	38600	5.32e-07	2.7e-08
298.15	39620	5.29e-07	2.6e-08
308.15	2130	7.23e-07	3.6e-08
308.15	4150	7.11e-07	3.6e-08
308.15	6180	7e-07	3.5e-08
308.15	8210	6.9e-07	3.5e-08
308.15	10230	6.79e-07	3.4e-08
308.15	11250	6.74e-07	3.4e-08
308.15	12260	6.69e-07	3.3e-08
308.15	14290	6.6e-07	3.3e-08
308.15	16310	6.5e-07	3.3e-08
308.15	18340	6.41e-07	3.2e-08
308.15	20370	6.32e-07	3.2e-08
308.15	22390	6.23e-07	3.1e-08
308.15	24420	6.15e-07	3.1e-08
308.15	26450	6.07e-07	3e-08
308.15	28470	5.99e-07	3e-08
308.15	29490	5.95e-07	3e-08
308.15	30500	5.91e-07	3e-08
308.15	32530	5.84e-07	2.9e-08
308.15	34550	5.77e-07	2.9e-08
308.15	36580	5.69e-07	2.8e-08
308.15	38600	5.62e-07	2.8e-08
308.15	39620	5.59e-07	2.8e-08
318.15	2130	7.68e-07	3.8e-08
318.15	4150	7.56e-07	3.8e-08
318.15	6180	7.44e-07	3.7e-08
318.15	8210	7.32e-07	3.7e-08
318.15	10230	7.21e-07	3.6e-08
318.15	11250	7.16e-07	3.6e-08
318.15	12260	7.1e-07	3.6e-08
318.15	14290	7e-07	3.5e-08
318.15	16310	6.89e-07	3.4e-08
318.15	18340	6.79e-07	3.4e-08
318.15	20370	6.7e-07	3.4e-08
318.15	22390	6.61e-07	3.3e-08
318.15	24420	6.51e-07	3.3e-08
318.15	26450	6.43e-07	3.2e-08
318.15	28470	6.34e-07	3.2e-08
318.15	29490	6.3e-07	3.2e-08
318.15	30500	6.26e-07	3.1e-08
318.15	32530	6.18e-07	3.1e-08
318.15	34550	6.1e-07	3.1e-08
318.15	36580	6.02e-07	3e-08
318.15	38600	5.95e-07	3e-08
318.15	39620	5.91e-07	3e-08
328.15	2130	8.17e-07	4.1e-08
328.15	4150	8.03e-07	4e-08
328.15	6180	7.9e-07	4e-08
328.15	8210	7.77e-07	3.9e-08
328.15	10230	7.65e-07	3.8e-08
328.15	11250	7.59e-07	3.8e-08
328.15	12260	7.53e-07	3.8e-08
328.15	14290	7.42e-07	3.7e-08
328.15	16310	7.31e-07	3.7e-08
328.15	18340	7.2e-07	3.6e-08
328.15	20370	7.1e-07	3.6e-08
328.15	22390	7e-07	3.5e-08
328.15	24420	6.9e-07	3.5e-08
328.15	26450	6.8e-07	3.4e-08
328.15	28470	6.71e-07	3.4e-08
328.15	29490	6.66e-07	3.3e-08
328.15	30500	6.62e-07	3.3e-08
328.15	32530	6.53e-07	3.3e-08
328.15	34550	6.45e-07	3.2e-08
328.15	36580	6.37e-07	3.2e-08
328.15	38600	6.28e-07	3.1e-08
328.15	39620	6.25e-07	3.1e-08

System: 4-methylpyridine; phases: Liquid
Property: Mass density, kg/m3 (Liquid); method: Vibrating tube method
Temperature, K	Pressure, kPa	Mass density, kg/m3	uncertainty
298.15	2130	951.2	0.3
298.15	4150	952.5	0.3
298.15	6180	953.8	0.3
298.15	8210	955.1	0.3
298.15	10230	956.3	0.3
298.15	11250	956.9	0.3
298.15	12260	957.5	0.3
298.15	14290	958.8	0.3
298.15	16310	960	0.3
298.15	18340	961.2	0.3
298.15	20370	962.3	0.3
298.15	22390	963.5	0.3
298.15	24420	964.6	0.3
298.15	26450	965.8	0.3
298.15	28470	966.9	0.3
298.15	29490	967.4	0.3
298.15	30500	968	0.3
298.15	32530	969.1	0.3
298.15	34550	970.2	0.3
298.15	36580	971.3	0.3
298.15	38600	972.3	0.3
298.15	39620	972.8	0.3
308.15	2130	942.3	0.3
308.15	4150	943.7	0.3
308.15	6180	945	0.3
308.15	8210	946.4	0.3
308.15	10230	947.7	0.3
308.15	11250	948.3	0.3
308.15	12260	949	0.3
308.15	14290	950.3	0.3
308.15	16310	951.5	0.3
308.15	18340	952.8	0.3
308.15	20370	954	0.3
308.15	22390	955.2	0.3
308.15	24420	956.4	0.3
308.15	26450	957.6	0.3
308.15	28470	958.8	0.3
308.15	29490	959.3	0.3
308.15	30500	959.9	0.3
308.15	32530	961.1	0.3
308.15	34550	962.2	0.3
308.15	36580	963.3	0.3
308.15	38600	964.4	0.3
308.15	39620	965	0.3
318.15	2130	933.3	0.3
318.15	4150	934.7	0.3
318.15	6180	936.1	0.3
318.15	8210	937.4	0.3
318.15	10230	938.9	0.3
318.15	11250	939.5	0.3
318.15	12260	940.2	0.3
318.15	14290	941.6	0.3
318.15	16310	942.9	0.3
318.15	18340	944.2	0.3
318.15	20370	945.5	0.3
318.15	22390	946.7	0.3
318.15	24420	948	0.3
318.15	26450	949.2	0.3
318.15	28470	950.5	0.3
318.15	29490	951.1	0.3
318.15	30500	951.7	0.3
318.15	32530	952.9	0.3
318.15	34550	954	0.3
318.15	36580	955.2	0.3
318.15	38600	956.4	0.3
318.15	39620	957	0.3
328.15	2130	924.3	0.3
328.15	4150	925.8	0.3
328.15	6180	927.3	0.3
328.15	8210	928.7	0.3
328.15	10230	930.2	0.3
328.15	11250	930.9	0.3
328.15	12260	931.6	0.3
328.15	14290	933	0.3
328.15	16310	934.4	0.3
328.15	18340	935.7	0.3
328.15	20370	937.1	0.3
328.15	22390	938.4	0.3
328.15	24420	939.7	0.3
328.15	26450	941.1	0.3
328.15	28470	942.3	0.3
328.15	29490	943	0.3
328.15	30500	943.6	0.3
328.15	32530	944.8	0.4
328.15	34550	946.1	0.4
328.15	36580	947.3	0.4
328.15	38600	948.5	0.4
328.15	39620	949.1	0.4

System: 4-methylpyridine; phases: Liquid
Property: Isothermal compressibility, 1/kPa (Liquid); method: calculate from equation
Temperature, K	Pressure, kPa	Isothermal compressibility, 1/kPa	uncertainty
298.15	2130	6.74e-07	3.4e-08
298.15	4150	6.64e-07	3.3e-08
298.15	6180	6.54e-07	3.3e-08
298.15	8210	6.45e-07	3.2e-08
298.15	10230	6.36e-07	3.2e-08
298.15	11250	6.32e-07	3.2e-08
298.15	12260	6.27e-07	3.1e-08
298.15	14290	6.19e-07	3.1e-08
298.15	16310	6.11e-07	3.1e-08
298.15	18340	6.03e-07	3e-08
298.15	20370	5.95e-07	3e-08
298.15	22390	5.87e-07	2.9e-08
298.15	24420	5.8e-07	2.9e-08
298.15	26450	5.73e-07	2.9e-08
298.15	28470	5.65e-07	2.8e-08
298.15	29490	5.62e-07	2.8e-08
298.15	30500	5.59e-07	2.8e-08
298.15	32530	5.52e-07	2.8e-08
298.15	34550	5.45e-07	2.7e-08
298.15	36580	5.39e-07	2.7e-08
298.15	38600	5.33e-07	2.7e-08
298.15	39620	5.3e-07	2.7e-08
308.15	2130	7.17e-07	3.6e-08
308.15	4150	7.06e-07	3.5e-08
308.15	6180	6.95e-07	3.5e-08
308.15	8210	6.85e-07	3.4e-08
308.15	10230	6.75e-07	3.4e-08
308.15	11250	6.7e-07	3.4e-08
308.15	12260	6.65e-07	3.3e-08
308.15	14290	6.56e-07	3.3e-08
308.15	16310	6.47e-07	3.2e-08
308.15	18340	6.38e-07	3.2e-08
308.15	20370	6.3e-07	3.2e-08
308.15	22390	6.21e-07	3.1e-08
308.15	24420	6.13e-07	3.1e-08
308.15	26450	6.06e-07	3e-08
308.15	28470	5.98e-07	3e-08
308.15	29490	5.94e-07	3e-08
308.15	30500	5.9e-07	3e-08
308.15	32530	5.83e-07	2.9e-08
308.15	34550	5.76e-07	2.9e-08
308.15	36580	5.69e-07	2.8e-08
308.15	38600	5.62e-07	2.8e-08
308.15	39620	5.59e-07	2.8e-08
318.15	2130	7.63e-07	3.8e-08
318.15	4150	7.51e-07	3.8e-08
318.15	6180	7.39e-07	3.7e-08
318.15	8210	7.28e-07	3.6e-08
318.15	10230	7.17e-07	3.6e-08
318.15	11250	7.12e-07	3.6e-08
318.15	12260	7.06e-07	3.5e-08
318.15	14290	6.96e-07	3.5e-08
318.15	16310	6.86e-07	3.4e-08
318.15	18340	6.77e-07	3.4e-08
318.15	20370	6.67e-07	3.3e-08
318.15	22390	6.58e-07	3.3e-08
318.15	24420	6.49e-07	3.2e-08
318.15	26450	6.41e-07	3.2e-08
318.15	28470	6.32e-07	3.2e-08
318.15	29490	6.28e-07	3.1e-08
318.15	30500	6.24e-07	3.1e-08
318.15	32530	6.16e-07	3.1e-08
318.15	34550	6.09e-07	3e-08
318.15	36580	6.01e-07	3e-08
318.15	38600	5.94e-07	3e-08
318.15	39620	5.9e-07	3e-08
328.15	2130	8.12e-07	4.1e-08
328.15	4150	7.99e-07	4e-08
328.15	6180	7.86e-07	3.9e-08
328.15	8210	7.74e-07	3.9e-08
328.15	10230	7.62e-07	3.8e-08
328.15	11250	7.56e-07	3.8e-08
328.15	12260	7.5e-07	3.8e-08
328.15	14290	7.39e-07	3.7e-08
328.15	16310	7.28e-07	3.6e-08
328.15	18340	7.18e-07	3.6e-08
328.15	20370	7.07e-07	3.5e-08
328.15	22390	6.98e-07	3.5e-08
328.15	24420	6.88e-07	3.4e-08
328.15	26450	6.79e-07	3.4e-08
328.15	28470	6.69e-07	3.3e-08
328.15	29490	6.65e-07	3.3e-08
328.15	30500	6.61e-07	3.3e-08
328.15	32530	6.52e-07	3.3e-08
328.15	34550	6.44e-07	3.2e-08
328.15	36580	6.35e-07	3.2e-08
328.15	38600	6.28e-07	3.1e-08
328.15	39620	6.24e-07	3.1e-08
