Measured thermophysical data. Thermodynamic study of nicotinamide, N-methylnicotinamide and N,N-dimethylnicotinamide: Vapour pressures, phase diagrams, and hydrogen bonds
Source: J. Chem. Thermodyn., 2015, 10.1016/j.jct.2014.11.001
Compound 1: 3-pyridinecarboxamide, C6H6N2O, InChI=1S/C6H6N2O/c7-6(9)5-2-1-3-8-4-5/h1-4H,(H2,7,9), purity 99.5%
Compound 2: N-methylnicotinamide, C7H8N2O, InChI=1S/C7H8N2O/c1-8-7(10)6-3-2-4-9-5-6/h2-5H,1H3,(H,8,10), purity 99.82%
Compound 3: N,N-dimethylnicotinamide, C8H10N2O, InChI=1S/C8H10N2O/c1-10(2)8(11)7-4-3-5-9-6-7/h3-6H,1-2H3, purity 99.8%

System: 3-pyridinecarboxamide; phases: Crystal, Liquid, Air at 1 atmosphere
Property: Normal melting temperature, K (Crystal); method: DTA
Normal melting temperature, K	uncertainty
401.2	0.4

System: 3-pyridinecarboxamide; phases: Crystal, Liquid, Air at 1 atmosphere
Property: Molar enthalpy of transition or fusion, kJ/mol (Crystal); method: DSC
Molar enthalpy of transition or fusion, kJ/mol	uncertainty
23.7	0.5

System: 3-pyridinecarboxamide; phases: Crystal, Gas
Property: Vapor or sublimation pressure, kPa (Crystal); method: Calculated from knudsen effusion weight loss
Temperature, K	Vapor or sublimation pressure, kPa	uncertainty
341.25	9.3e-05	2e-05
343.28	0.000117	2e-05
345.05	0.000144	2.1e-05
347.23	0.000184	2.1e-05
349.26	0.00023	2.2e-05
351.07	0.00028	2.2e-05
353.24	0.000356	2.4e-05
355.27	0.000436	2.5e-05
357.06	0.000525	2.7e-05
359.25	0.000656	3.1e-05
361.29	0.000812	3.5e-05
363.06	0.000975	4e-05
341.25	9.3e-05	2e-05
343.28	0.000117	2e-05
345.05	0.000142	2.1e-05
347.23	0.000182	2.1e-05
349.26	0.000228	2.2e-05
351.07	0.000277	2.2e-05
353.24	0.000356	2.4e-05
355.27	0.000434	2.5e-05
357.06	0.000528	2.7e-05
359.25	0.000666	3.1e-05
361.29	0.000792	3.4e-05
363.06	0.000964	4e-05
341.25	9.3e-05	2e-05
343.28	0.000116	2e-05
345.05	0.000141	2.1e-05
347.23	0.000183	2.1e-05
349.26	0.000226	2.2e-05
351.07	0.000275	2.2e-05
353.24	0.000352	2.4e-05
355.27	0.00043	2.5e-05
357.06	0.000517	2.7e-05
359.25	0.000648	3e-05
361.29	0.000807	3.5e-05
363.06	0.00097	4e-05

System: 3-pyridinecarboxamide; phases: Crystal, Gas
Property: Vapor or sublimation pressure, kPa (Crystal); method: Closed cell (Static) method
Temperature, K	Vapor or sublimation pressure, kPa	uncertainty
356.6	0.00051	0.00013
358.66	0.00063	0.00013
360.58	0.00078	0.00013
364.49	0.00116	0.00013
366.57	0.00143	0.00014
368.47	0.00172	0.00014
370.51	0.00211	0.00015
372.43	0.00255	0.00016
374.46	0.00311	0.00018
376.31	0.00371	0.00019
378.39	0.00451	0.00022
380.33	0.00536	0.00025
382.34	0.00647	0.00028
384.22	0.00767	0.00033
386.28	0.00925	0.00038
388.17	0.01094	0.00045
390.23	0.01311	0.00052
392.23	0.01553	0.00056
394.43	0.01868	0.00061
396.08	0.02158	0.00065
398.1	0.02563	0.00071

System: 3-pyridinecarboxamide; phases: Metastable liquid, Gas
Property: Vapor or sublimation pressure, kPa (Metastable liquid); method: Closed cell (Static) method
Temperature, K	Vapor or sublimation pressure, kPa	uncertainty
396.07	0.02388	0.00069
398.04	0.02729	0.00074
400.07	0.03101	0.00079
402.04	0.0351	0.00086
404.02	0.03991	0.00093
405.98	0.04492	0.00101
407.93	0.05046	0.00109
409.92	0.05717	0.0012
411.89	0.06456	0.00131
413.87	0.07284	0.00144
415.82	0.08179	0.00158
417.81	0.09162	0.00173
419.77	0.103	0.0019
421.72	0.1152	0.0021
423.69	0.1283	0.0023
425.65	0.1428	0.0021
427.62	0.1598	0.0023
429.58	0.1773	0.0024
431.56	0.1973	0.0025
433.69	0.2206	0.0027

System: N-methylnicotinamide; phases: Crystal, Liquid, Air at 1 atmosphere
Property: Normal melting temperature, K (Crystal); method: DTA
Normal melting temperature, K	uncertainty
379.1	0.4

System: N-methylnicotinamide; phases: Crystal, Liquid, Air at 1 atmosphere
Property: Molar enthalpy of transition or fusion, kJ/mol (Crystal); method: DSC
Molar enthalpy of transition or fusion, kJ/mol	uncertainty
22	0.5

System: N-methylnicotinamide; phases: Crystal, Gas
Property: Vapor or sublimation pressure, kPa (Crystal); method: Calculated from knudsen effusion weight loss
Temperature, K	Vapor or sublimation pressure, kPa	uncertainty
329.17	0.000104	2e-05
331.27	0.000134	2.1e-05
333.15	0.000164	2.1e-05
335.17	0.000206	2.1e-05
337.27	0.000261	2.2e-05
339.15	0.000328	2.3e-05
341.16	0.000404	2.5e-05
343.27	0.000513	2.7e-05
345.13	0.000627	3e-05
347.16	0.000771	3.4e-05
349.27	0.000971	4e-05
329.17	0.000105	2e-05
331.27	0.000132	2.1e-05
333.15	0.000162	2.1e-05
335.17	0.000211	2.1e-05
337.27	0.000261	2.2e-05
339.15	0.000328	2.3e-05
341.16	0.000414	2.5e-05
343.27	0.00051	2.7e-05
345.13	0.000619	3e-05
347.16	0.000784	3.4e-05
349.27	0.000964	4e-05
329.17	0.000104	2e-05
331.27	0.000131	2.1e-05
333.15	0.00016	2.1e-05
335.17	0.000209	2.1e-05
337.27	0.000259	2.2e-05
339.15	0.00032	2.3e-05
341.16	0.000404	2.5e-05
343.27	0.000505	2.7e-05
345.13	0.000613	3e-05
347.16	0.000776	3.4e-05
349.27	0.000957	3.9e-05

System: N-methylnicotinamide; phases: Crystal, Gas
Property: Vapor or sublimation pressure, kPa (Crystal); method: Closed cell (Static) method
Temperature, K	Vapor or sublimation pressure, kPa	uncertainty
347.78	0.00085	0.00012
349.78	0.00105	0.00013
351.69	0.00127	0.00013
353.72	0.00157	0.00014
355.6	0.00191	0.00014
357.66	0.00232	0.00015
359.51	0.0028	0.00016
361.62	0.00347	0.00018
363.5	0.00416	0.0002
365.47	0.00502	0.00023
367.44	0.00604	0.00027
369.43	0.00721	0.00031
371.36	0.00857	0.00036
373.27	0.01023	0.00042
375.36	0.01234	0.0005
377.39	0.01496	0.00055

System: N-methylnicotinamide; phases: Metastable liquid, Gas
Property: Vapor or sublimation pressure, kPa (Metastable liquid); method: Closed cell (Static) method
Temperature, K	Vapor or sublimation pressure, kPa	uncertainty
375.33	0.01316	0.00052
377.25	0.01508	0.00055
379.31	0.01731	0.00058
381.26	0.01991	0.00062
383.29	0.0228	0.00067
385.21	0.02592	0.00072
387.24	0.02975	0.00077
389.16	0.03359	0.00083
391.17	0.03824	0.00091
393.09	0.04305	0.00098
395.12	0.04915	0.00107
397.12	0.05526	0.00117
399.02	0.06212	0.00127
401.07	0.07023	0.0014
403.01	0.07943	0.00154
404.99	0.08886	0.00169
406.95	0.09977	0.00186
408.92	0.1117	0.002
410.86	0.1253	0.0023
412.85	0.1398	0.0021
414.81	0.1564	0.0022
416.77	0.1735	0.0024
418.72	0.194	0.0025
420.68	0.2147	0.0027
422.64	0.2384	0.0029
424.61	0.2644	0.0031
426.55	0.2952	0.0034

System: N,N-dimethylnicotinamide; phases: Crystal, Liquid, Air at 1 atmosphere
Property: Normal melting temperature, K (Crystal); method: DTA
Normal melting temperature, K	uncertainty
317.3	0.4

System: N,N-dimethylnicotinamide; phases: Crystal, Liquid, Air at 1 atmosphere
Property: Molar enthalpy of transition or fusion, kJ/mol (Crystal); method: DSC
Molar enthalpy of transition or fusion, kJ/mol	uncertainty
19.4	0.7

System: N,N-dimethylnicotinamide; phases: Crystal, Gas
Property: Vapor or sublimation pressure, kPa (Crystal); method: Closed cell (Static) method
Temperature, K	Vapor or sublimation pressure, kPa	uncertainty
308.18	0.00049	0.00011
309.15	0.00056	0.00011
310.13	0.00062	0.00011
311.15	0.0007	0.00011
312.13	0.00078	0.00011
313.1	0.00088	0.00011
314.09	0.00098	0.00012
315.1	0.0011	0.00012

System: N,N-dimethylnicotinamide; phases: Metastable liquid, Gas
Property: Vapor or sublimation pressure, kPa (Metastable liquid); method: Closed cell (Static) method
Temperature, K	Vapor or sublimation pressure, kPa	uncertainty
307.16	0.00057	0.00011
309.14	0.00069	0.00011
311.16	0.00082	0.00011
313.1	0.00099	0.00012
315.07	0.00118	0.00012
317.09	0.00142	0.00012
319.04	0.00169	0.00013
321.01	0.002	0.00013
322.97	0.00238	0.00014
324.98	0.0028	0.00016
326.94	0.00334	0.00017
328.93	0.00388	0.00019
330.88	0.00459	0.00021
332.9	0.00538	0.00024
334.96	0.00637	0.00027
336.93	0.00748	0.00031
338.92	0.00861	0.00036
340.89	0.01	0.00041
342.87	0.01163	0.00047
344.83	0.0135	0.00052
346.82	0.01555	0.00056
348.79	0.0179	0.00059
350.77	0.02072	0.00063
352.74	0.02375	0.00068
354.72	0.02718	0.00073
356.68	0.03111	0.00079
358.66	0.03534	0.00086
360.66	0.04054	0.00094
362.63	0.04582	0.00102
364.61	0.05247	0.00112
366.58	0.05911	0.00123
368.55	0.06722	0.00135
370.52	0.07569	0.00148
