Measured thermophysical data. Effect of KCl on the volumetric and transport properties of aqueous tri-potassium citrate solutions at different temperatures
Source: J. Chem. Thermodyn., 2011, 10.1016/j.jct.2010.11.003
Compound 1: potassium citrate, C6H5K3O7, InChI=1S/C6H8O7.3K/c7-3(8)1-6(13,5(11)12)2-4(9)10;;;/h13H,1-2H2,(H,7,8)(H,9,10)(H,11,12);;;/q;3*+1/p-3, purity 99%
Compound 2: potassium chloride, ClK, InChI=1S/ClH.K/h1H;/q;+1/p-1, purity 99.5%
Compound 3: water, H2O, InChI=1S/H2O/h1H2, purity 99.9%

System: potassium citrate + water; phases: Liquid
Fixed: Pressure, kPa = 101
Property: Viscosity, Pa*s (Liquid); method: Capillary tube (Ostwald; Ubbelohde) method
Temperature, K	Molality, mol/kg of potassium citrate	Viscosity, Pa*s	uncertainty
298.15	0.0472	0.001027	1.2e-05
298.15	0.0566	0.001027	1.2e-05
298.15	0.066	0.001029	1.2e-05
298.15	0.0754	0.001033	1.2e-05
298.15	0.0849	0.001037	1.2e-05
298.15	0.0943	0.001041	1.2e-05
298.15	0.2984	0.001132	1.3e-05
298.15	0.3971	0.001183	1.4e-05
298.15	0.4955	0.001238	1.4e-05
298.15	0.5936	0.001295	1.5e-05
298.15	0.7877	0.001423	1.6e-05
298.15	0.9823	0.001575	1.8e-05
298.15	1.1745	0.001733	2e-05
298.15	1.3656	0.00192	2.2e-05
298.15	1.5551	0.002121	2.4e-05
298.15	1.8373	0.002476	2.8e-05
298.15	0.0472	0.000911	1.1e-05
298.15	0.0566	0.000918	1.1e-05
298.15	0.066	0.000924	1.1e-05
298.15	0.0754	0.00093	1.1e-05
298.15	0.0849	0.000935	1.1e-05
298.15	0.0943	0.000942	1.1e-05
298.15	0.2984	0.001065	1.2e-05
298.15	0.3971	0.00113	1.3e-05
298.15	0.4955	0.0012	1.4e-05
298.15	0.5936	0.001274	1.5e-05
298.15	0.7877	0.001441	1.7e-05
298.15	0.9823	0.001624	1.9e-05
298.15	1.1745	0.001837	2.1e-05
298.15	1.3656	0.002072	2.4e-05
298.15	1.5551	0.002334	2.7e-05
298.15	1.8373	0.002788	3.2e-05
303.15	0.0472	0.000821	1e-05
303.15	0.0566	0.000822	1e-05
303.15	0.066	0.000825	1e-05
303.15	0.0754	0.000832	1e-05
303.15	0.0849	0.000837	1e-05
303.15	0.0943	0.000843	1e-05
303.15	0.2984	0.000956	1.1e-05
303.15	0.3971	0.001016	1.2e-05
303.15	0.4955	0.00108	1.2e-05
303.15	0.5936	0.001145	1.3e-05
303.15	0.7877	0.001295	1.5e-05
303.15	0.9823	0.001458	1.7e-05
303.15	1.1745	0.001647	1.9e-05
303.15	1.3656	0.001853	2.1e-05
303.15	1.5551	0.002085	2.4e-05
303.15	1.8373	0.002484	2.8e-05
308.15	0.0472	0.000739	9e-06
308.15	0.0566	0.000741	9e-06
308.15	0.066	0.000744	9e-06
308.15	0.0754	0.000749	9e-06
308.15	0.0849	0.000754	9e-06
308.15	0.0943	0.00076	9e-06
308.15	0.2984	0.000861	1e-05
308.15	0.3971	0.000916	1.1e-05
308.15	0.4955	0.000975	1.1e-05
308.15	0.5936	0.001036	1.2e-05
308.15	0.7877	0.001168	1.3e-05
308.15	0.9823	0.001316	1.5e-05
308.15	1.1745	0.001486	1.7e-05
308.15	1.3656	0.001671	1.9e-05
308.15	1.5551	0.001875	2.2e-05
308.15	1.8373	0.002231	2.6e-05
313.15	0.0472	0.000665	8e-06
313.15	0.0566	0.000668	8e-06
313.15	0.066	0.000672	8e-06
313.15	0.0754	0.000675	8e-06
313.15	0.0849	0.00068	8e-06
313.15	0.0943	0.000684	8e-06
313.15	0.2984	0.000783	9e-06
313.15	0.3971	0.000832	1e-05
313.15	0.4955	0.000887	1e-05
313.15	0.5936	0.00094	1.1e-05
313.15	0.7877	0.001063	1.2e-05
313.15	0.9823	0.001196	1.4e-05
313.15	1.1745	0.001351	1.6e-05
313.15	1.3656	0.001516	1.7e-05
313.15	1.5551	0.001697	2e-05
313.15	1.8373	0.002013	2.3e-05

System: potassium citrate + water; phases: Liquid
Fixed: Pressure, kPa = 101
Property: Speed of sound, m/s (Liquid); method: Sing-around technique in a fixed-path interferometer
Temperature, K	Molality, mol/kg of potassium citrate	Speed of sound, m/s	uncertainty
293.15	0.0472	1492.76	2.11
293.15	0.0566	1494.62	2.12
293.15	0.066	1496.52	2.12
293.15	0.0754	1498.34	2.12
293.15	0.0849	1500.24	2.12
293.15	0.0943	1502.07	2.12
293.15	0.2984	1540.38	2.12
293.15	0.3971	1558.22	2.13
293.15	0.4955	1576.01	2.13
293.15	0.5936	1593.27	2.14
293.15	0.7877	1626.39	2.14
293.15	0.9823	1658.62	2.15
293.15	1.1745	1689.6	2.16
293.15	1.3656	1718.73	2.17
293.15	1.5551	1746.24	2.18
293.15	1.8373	1784.92	2.19
298.15	0.0472	1506.63	2.12
298.15	0.0566	1508.48	2.12
298.15	0.066	1510.27	2.12
298.15	0.0754	1512.04	2.12
298.15	0.0849	1513.87	2.12
298.15	0.0943	1515.67	2.12
298.15	0.2984	1552.82	2.13
298.15	0.3971	1570.1	2.13
298.15	0.4955	1587.04	2.13
298.15	0.5936	1603.76	2.14
298.15	0.7877	1636.17	2.14
298.15	0.9823	1667.51	2.15
303.15	0.0472	1518.1	2.12
303.15	0.0566	1519.89	2.12
303.15	0.066	1521.69	2.12
303.15	0.0754	1523.46	2.12
303.15	0.0849	1525.28	2.12
303.15	0.0943	1527	2.12
303.15	0.2984	1563.61	2.13
303.15	0.3971	1580.26	2.13
303.15	0.4955	1596.78	2.14
303.15	0.5936	1613.31	2.14
303.15	0.7877	1644.49	2.15
303.15	0.9823	1674.8	2.15
303.15	1.1745	1697.47	2.16
303.15	1.3656	1725.72	2.17
303.15	1.5551	1752.64	2.18
303.15	1.8373	1790.26	2.19
308.15	0.0472	1529	2.12
308.15	0.0566	1530.76	2.12
308.15	0.066	1532.46	2.12
308.15	0.0754	1534.15	2.12
308.15	0.0849	1535.86	2.12
308.15	0.0943	1537.56	2.12
308.15	0.2984	1572.81	2.13
308.15	0.3971	1588.99	2.13
308.15	0.4955	1605.06	2.14
308.15	0.5936	1620.76	2.14
308.15	0.7877	1651.35	2.15
308.15	0.9823	1680.99	2.15
308.15	1.1745	1704	2.16
308.15	1.3656	1731.69	2.17
308.15	1.5551	1757.94	2.18
308.15	1.8373	1794.73	2.19
313.15	0.0472	1538.09	2.12
313.15	0.0566	1539.75	2.12
313.15	0.066	1541.39	2.12
313.15	0.0754	1543.04	2.12
313.15	0.0849	1544.71	2.12
313.15	0.0943	1546.36	2.12
313.15	0.2984	1580.53	2.13
313.15	0.3971	1596.5	2.13
313.15	0.4955	1611.97	2.14
313.15	0.5936	1627.42	2.14
313.15	0.7877	1657.46	2.15
313.15	0.9823	1686.08	2.15
313.15	1.1745	1709.4	2.16
313.15	1.3656	1736.34	2.17
313.15	1.5551	1762.08	2.18
313.15	1.8373	1797.64	2.19
313.15	1.1745	1713.97	2.16
313.15	1.3656	1740.32	2.17
313.15	1.5551	1765.15	2.18
313.15	1.8373	1800.29	2.19

System: potassium citrate + water; phases: Liquid
Fixed: Pressure, kPa = 101
Property: Mass density, kg/m3 (Liquid); method: Vibrating tube method
Temperature, K	Molality, mol/kg of potassium citrate	Mass density, kg/m3	uncertainty
293.15	0.0472	1007.808	0.212
293.15	0.0566	1009.695	0.212
293.15	0.066	1011.575	0.212
293.15	0.0754	1013.448	0.211
293.15	0.0849	1015.335	0.211
293.15	0.0943	1017.198	0.211
293.15	0.2984	1055.646	0.202
293.15	0.3971	1073.047	0.194
293.15	0.4955	1089.852	0.192
293.15	0.5936	1106.031	0.188
293.15	0.7877	1136.494	0.189
293.15	0.9823	1165.205	0.191
293.15	1.1745	1191.918	0.194
293.15	1.3656	1216.692	0.2
293.15	1.5551	1239.903	0.208
293.15	1.8373	1272.278	0.226
298.15	0.0472	1006.59	0.218
298.15	0.0566	1008.464	0.211
298.15	0.066	1010.331	0.21
298.15	0.0754	1012.19	0.209
298.15	0.0849	1014.058	0.208
298.15	0.0943	1015.895	0.202
298.15	0.2984	1054.021	0.201
298.15	0.3971	1071.345	0.193
298.15	0.4955	1088.068	0.191
298.15	0.5936	1104.206	0.187
298.15	0.7877	1134.648	0.189
298.15	0.9823	1163.141	0.19
298.15	1.1745	1189.767	0.193
298.15	1.3656	1214.458	0.199
298.15	1.5551	1237.685	0.207
298.15	1.8373	1269.96	0.225
303.15	0.0472	1005.153	0.217
303.15	0.0566	1007.017	0.21
303.15	0.066	1008.872	0.209
303.15	0.0754	1010.719	0.208
303.15	0.0849	1012.577	0.208
303.15	0.0943	1014.417	0.201
303.15	0.2984	1052.392	0.2
303.15	0.3971	1069.632	0.193
303.15	0.4955	1086.247	0.19
303.15	0.5936	1102.307	0.187
303.15	0.7877	1132.655	0.188
303.15	0.9823	1161.017	0.189
303.15	1.1745	1187.657	0.193
303.15	1.3656	1212.456	0.199
303.15	1.5551	1235.638	0.206
303.15	1.8373	1267.937	0.224
308.15	0.0472	1003.503	0.215
308.15	0.0566	1005.357	0.209
308.15	0.066	1007.201	0.208
308.15	0.0754	1009.039	0.208
308.15	0.0849	1010.892	0.207
308.15	0.0943	1012.724	0.202
308.15	0.2984	1050.435	0.199
308.15	0.3971	1067.622	0.192
308.15	0.4955	1084.197	0.19
308.15	0.5936	1100.168	0.186
308.15	0.7877	1130.406	0.187
308.15	0.9823	1158.809	0.189
308.15	1.1745	1185.325	0.192
308.15	1.3656	1210.047	0.198
308.15	1.5551	1233.306	0.205
308.15	1.8373	1265.241	0.223
313.15	0.0472	1001.662	0.208
313.15	0.0566	1003.507	0.208
313.15	0.066	1005.349	0.208
313.15	0.0754	1007.182	0.207
313.15	0.0849	1009.031	0.207
313.15	0.0943	1010.858	0.207
313.15	0.2984	1048.423	0.199
313.15	0.3971	1065.621	0.192
313.15	0.4955	1082.12	0.189
313.15	0.5936	1098.026	0.186
313.15	0.7877	1128.2	0.187
313.15	0.9823	1156.407	0.189
313.15	1.1745	1182.971	0.192
313.15	1.3656	1207.694	0.197
313.15	1.5551	1230.602	0.205
313.15	1.8373	1262.831	0.222

System: potassium citrate + potassium chloride + water; phases: Liquid
Fixed: Pressure, kPa = 101
Property: Viscosity, Pa*s (Liquid); method: Capillary tube (Ostwald; Ubbelohde) method
Temperature, K	Molality, mol/kg of potassium citrate	Molality, mol/kg of potassium chloride	Viscosity, Pa*s	uncertainty
293.15	0	0.05	0.000993	1.1e-05
293.15	0	0.15	0.000992	1.1e-05
293.15	0	0.25	0.000988	1.1e-05
293.15	0	0.35	0.000983	1.1e-05
293.15	0	0.45	0.000979	1.1e-05
293.15	0	0.55	0.000974	1.1e-05
293.15	0.05	0.05	0.001028	1.2e-05
293.15	0.05	0.15	0.001024	1.2e-05
293.15	0.05	0.25	0.001022	1.2e-05
293.15	0.05	0.45	0.001018	1.2e-05
293.15	0.05	0.55	0.001015	1.2e-05
293.15	0.0501	0.35	0.00102	1.2e-05
293.15	0.15	0.05	0.001092	1.3e-05
293.15	0.15	0.15	0.001087	1.3e-05
293.15	0.15	0.25	0.001085	1.2e-05
293.15	0.15	0.35	0.001082	1.2e-05
293.15	0.15	0.45	0.00108	1.2e-05
293.15	0.1504	0.55	0.001079	1.2e-05
293.15	0.35	0.05	0.001231	1.4e-05
293.15	0.35	0.15	0.001228	1.4e-05
293.15	0.35	0.25	0.001224	1.4e-05
293.15	0.35	0.45	0.001218	1.4e-05
293.15	0.3501	0.55	0.001217	1.4e-05
293.15	0.3507	0.35	0.001221	1.4e-05
293.15	0.55	0.05	0.001391	1.6e-05
293.15	0.55	0.25	0.001385	1.6e-05
293.15	0.55	0.35	0.001383	1.6e-05
293.15	0.55	0.55	0.001378	1.6e-05
293.15	0.5501	0.45	0.00138	1.6e-05
293.15	0.5515	0.15	0.001388	1.6e-05
293.15	0.7499	0.55	0.001564	1.8e-05
293.15	0.75	0.05	0.001574	1.8e-05
293.15	0.75	0.15	0.001573	1.8e-05
293.15	0.75	0.25	0.00157	1.8e-05
293.15	0.7502	0.45	0.001565	1.8e-05
293.15	0.751	0.35	0.001567	1.8e-05
293.15	0.9499	0.05	0.001786	2e-05
293.15	0.9499	0.45	0.001776	2e-05
293.15	0.95	0.25	0.00178	2e-05
293.15	0.95	0.35	0.001778	2e-05
293.15	0.9501	0.15	0.001783	2e-05
293.15	0.9502	0.55	0.001775	2e-05
298.15	0	0.05	0.000884	1e-05
298.15	0	0.15	0.000883	1e-05
298.15	0	0.25	0.000881	1e-05
298.15	0	0.35	0.000877	1e-05
298.15	0	0.45	0.000871	1e-05
298.15	0	0.55	0.000869	1e-05
298.15	0.05	0.05	0.000913	1.1e-05
298.15	0.05	0.15	0.000911	1.1e-05
298.15	0.05	0.25	0.00091	1.1e-05
298.15	0.05	0.45	0.000907	1.1e-05
298.15	0.05	0.55	0.000906	1e-05
298.15	0.0501	0.35	0.000908	1.1e-05
298.15	0.15	0.05	0.000971	1.1e-05
298.15	0.15	0.15	0.000968	1.1e-05
298.15	0.15	0.25	0.000966	1.1e-05
298.15	0.15	0.35	0.000965	1.1e-05
298.15	0.15	0.45	0.000963	1.1e-05
298.15	0.1504	0.55	0.000963	1.1e-05
298.15	0.35	0.05	0.001097	1.3e-05
298.15	0.35	0.15	0.001094	1.3e-05
298.15	0.35	0.25	0.001093	1.3e-05
298.15	0.35	0.45	0.00109	1.3e-05
298.15	0.3501	0.55	0.001087	1.3e-05
298.15	0.3507	0.35	0.001092	1.3e-05
298.15	0.55	0.05	0.001244	1.4e-05
298.15	0.55	0.25	0.001236	1.4e-05
298.15	0.55	0.35	0.001235	1.4e-05
298.15	0.55	0.55	0.001232	1.4e-05
298.15	0.5501	0.45	0.001234	1.4e-05
298.15	0.5515	0.15	0.00124	1.4e-05
298.15	0.7499	0.55	0.001398	1.6e-05
298.15	0.75	0.05	0.001407	1.6e-05
298.15	0.75	0.15	0.001403	1.6e-05
298.15	0.75	0.25	0.0014	1.6e-05
298.15	0.7502	0.45	0.001398	1.6e-05
298.15	0.751	0.3499	0.001399	1.6e-05
298.15	0.9499	0.05	0.001591	1.8e-05
298.15	0.9499	0.45	0.001588	1.8e-05
298.15	0.95	0.25	0.001587	1.8e-05
298.15	0.95	0.35	0.001587	1.8e-05
298.15	0.9501	0.15	0.001589	1.8e-05
298.15	0.9502	0.55	0.001586	1.8e-05
303.15	0	0.05	0.000794	9e-06
303.15	0	0.15	0.000793	9e-06
303.15	0	0.25	0.000789	9e-06
303.15	0	0.35	0.000784	9e-06
303.15	0	0.45	0.00078	9e-06
303.15	0	0.55	0.000779	9e-06
303.15	0.05	0.05	0.000817	9e-06
303.15	0.05	0.15	0.000816	9e-06
303.15	0.05	0.25	0.000815	9e-06
303.15	0.05	0.45	0.000811	9e-06
303.15	0.05	0.55	0.000809	9e-06
303.15	0.0501	0.35	0.000813	9e-06
303.15	0.15	0.05	0.000871	1e-05
303.15	0.15	0.15	0.00087	1e-05
303.15	0.15	0.25	0.000869	1e-05
303.15	0.15	0.35	0.000867	1e-05
303.15	0.15	0.45	0.000866	1e-05
303.15	0.1504	0.55	0.000865	1e-05
303.15	0.35	0.05	0.000984	1.1e-05
303.15	0.35	0.15	0.000984	1.1e-05
303.15	0.35	0.25	0.000979	1.1e-05
303.15	0.35	0.45	0.000975	1.1e-05
303.15	0.3501	0.55	0.000973	1.1e-05
303.15	0.3507	0.35	0.000977	1.1e-05
303.15	0.55	0.05	0.001118	1.3e-05
303.15	0.55	0.25	0.001111	1.3e-05
303.15	0.55	0.35	0.001109	1.3e-05
303.15	0.55	0.55	0.001107	1.3e-05
303.15	0.5501	0.45	0.001108	1.3e-05
303.15	0.5515	0.15	0.001115	1.3e-05
303.15	0.7499	0.55	0.001255	1.4e-05
303.15	0.75	0.05	0.001263	1.5e-05
303.15	0.75	0.15	0.001262	1.5e-05
303.15	0.75	0.25	0.00126	1.5e-05
303.15	0.7502	0.45	0.001258	1.4e-05
303.15	0.751	0.35	0.001259	1.5e-05
303.15	0.9499	0.05	0.001431	1.6e-05
303.15	0.9499	0.45	0.001424	1.6e-05
303.15	0.95	0.25	0.001426	1.6e-05
303.15	0.95	0.35	0.001425	1.6e-05
303.15	0.9501	0.15	0.001427	1.6e-05
303.15	0.9502	0.55	0.001421	1.6e-05
308.15	0	0.05	0.000717	8e-06
308.15	0	0.15	0.000715	8e-06
308.15	0	0.25	0.000713	8e-06
308.15	0	0.35	0.000709	8e-06
308.15	0	0.45	0.000704	8e-06
308.15	0	0.55	0.000702	8e-06
308.15	0.05	0.05	0.000735	9e-06
308.15	0.05	0.15	0.000734	9e-06
308.15	0.05	0.25	0.000731	9e-06
308.15	0.05	0.45	0.000727	8e-06
308.15	0.05	0.55	0.000727	8e-06
308.15	0.0501	0.35	0.00073	9e-06
308.15	0.15	0.05	0.000788	9e-06
308.15	0.15	0.15	0.000784	9e-06
308.15	0.15	0.25	0.000784	9e-06
308.15	0.15	0.35	0.000782	9e-06
308.15	0.15	0.45	0.000779	9e-06
308.15	0.1504	0.55	0.000775	9e-06
308.15	0.35	0.05	0.000889	1e-05
308.15	0.35	0.15	0.000888	1e-05
308.15	0.35	0.25	0.000888	1e-05
308.15	0.35	0.45	0.000885	1e-05
308.15	0.3501	0.55	0.000882	1e-05
308.15	0.3507	0.35	0.000886	1e-05
308.15	0.55	0.05	0.001008	1.2e-05
308.15	0.55	0.25	0.001005	1.2e-05
308.15	0.55	0.35	0.001003	1.2e-05
308.15	0.55	0.55	0.001	1.2e-05
308.15	0.5501	0.45	0.001001	1.2e-05
308.15	0.5515	0.15	0.001007	1.2e-05
308.15	0.7499	0.55	0.001132	1.3e-05
308.15	0.75	0.05	0.001141	1.3e-05
308.15	0.75	0.15	0.001139	1.3e-05
308.15	0.75	0.25	0.001138	1.3e-05
308.15	0.7502	0.45	0.001135	1.3e-05
308.15	0.751	0.35	0.001136	1.3e-05
308.15	0.9499	0.05	0.001292	1.5e-05
308.15	0.9499	0.45	0.001285	1.5e-05
308.15	0.95	0.25	0.001288	1.5e-05
308.15	0.95	0.35	0.001287	1.5e-05
308.15	0.9501	0.15	0.00129	1.5e-05
308.15	0.9502	0.55	0.00128	1.5e-05
313.15	0	0.05	0.00065	8e-06
313.15	0	0.15	0.000649	8e-06
313.15	0	0.25	0.000648	8e-06
313.15	0	0.35	0.000648	8e-06
313.15	0	0.45	0.000636	7e-06
313.15	0	0.55	0.000623	7e-06
313.15	0.05	0.05	0.000669	8e-06
313.15	0.05	0.15	0.000664	8e-06
313.15	0.05	0.25	0.000668	8e-06
313.15	0.05	0.45	0.00066	8e-06
313.15	0.05	0.55	0.000658	8e-06
313.15	0.0501	0.35	0.000661	8e-06
313.15	0.15	0.05	0.000709	8e-06
313.15	0.15	0.15	0.000709	8e-06
313.15	0.15	0.25	0.000707	8e-06
313.15	0.15	0.35	0.000706	8e-06
313.15	0.15	0.45	0.000703	8e-06
313.15	0.1504	0.55	0.0007	8e-06
313.15	0.35	0.05	0.000807	9e-06
313.15	0.35	0.15	0.000806	9e-06
313.15	0.35	0.25	0.000805	9e-06
313.15	0.35	0.45	0.000801	9e-06
313.15	0.3501	0.55	0.000799	9e-06
313.15	0.3507	0.35	0.000802	9e-06
313.15	0.55	0.05	0.000917	1.1e-05
313.15	0.55	0.25	0.000916	1.1e-05
313.15	0.55	0.35	0.000913	1.1e-05
313.15	0.55	0.55	0.000906	1.1e-05
313.15	0.5501	0.45	0.00091	1.1e-05
313.15	0.5515	0.15	0.000916	1.1e-05
313.15	0.7499	0.55	0.001027	1.2e-05
313.15	0.75	0.05	0.001039	1.2e-05
313.15	0.75	0.15	0.001037	1.2e-05
313.15	0.75	0.25	0.001036	1.2e-05
313.15	0.7502	0.45	0.001031	1.2e-05
313.15	0.751	0.35	0.001034	1.2e-05
313.15	0.9499	0.05	0.001174	1.4e-05
313.15	0.9499	0.45	0.001167	1.3e-05
313.15	0.95	0.25	0.001171	1.4e-05
313.15	0.95	0.35	0.00117	1.4e-05
313.15	0.9501	0.15	0.001172	1.4e-05
313.15	0.9502	0.55	0.001166	1.3e-05

System: potassium citrate + potassium chloride + water; phases: Liquid
Fixed: Pressure, kPa = 101
Property: Speed of sound, m/s (Liquid); method: Sing-around technique in a fixed-path interferometer
Temperature, K	Molality, mol/kg of potassium citrate	Molality, mol/kg of potassium chloride	Speed of sound, m/s	uncertainty
293.15	0	0.05	1485.68	2.11
293.15	0	0.15	1491.21	2.11
293.15	0	0.25	1496.55	2.12
293.15	0	0.35	1501.88	2.12
293.15	0	0.55	1512.49	2.12
293.15	0.05	0.05	1495.9	2.12
293.15	0.05	0.15	1501.06	2.12
293.15	0.05	0.25	1506.16	2.12
293.15	0.05	0.55	1521.49	2.12
293.15	0.0501	0.35	1511.35	2.12
293.15	0.15	0.05	1515.68	2.12
293.15	0.15	0.15	1520.07	2.12
293.15	0.15	0.25	1524.94	2.12
293.15	0.15	0.35	1529.69	2.12
293.15	0.1504	0.55	1539.41	2.12
293.15	0.35	0.05	1552.36	2.13
293.15	0.35	0.15	1556.66	2.13
293.15	0.35	0.25	1561.01	2.13
293.15	0.3501	0.55	1574.66	2.13
293.15	0.3507	0.35	1565.65	2.13
293.15	0.55	0.05	1586.47	2.14
293.15	0.55	0.25	1596.18	2.14
293.15	0.55	0.35	1600.1	2.14
293.15	0.55	0.55	1608.97	2.14
293.15	0.5515	0.15	1592	2.14
293.15	0.7499	0.55	1641.63	2.15
293.15	0.75	0.05	1622.33	2.14
293.15	0.75	0.15	1626.02	2.14
293.15	0.75	0.25	1630.11	2.14
293.15	0.751	0.35	1634.04	2.14
293.15	0.9499	0.05	1655.34	2.15
293.15	0.95	0.25	1662.98	2.15
293.15	0.95	0.35	1667.06	2.15
293.15	0.9501	0.15	1659.15	2.15
293.15	0.9502	0.55	1673.44	2.15
298.15	0	0.05	1500	2.11
298.15	0	0.15	1505.32	2.12
298.15	0	0.25	1510.2	2.12
298.15	0	0.35	1515.08	2.12
298.15	0	0.45	1520.36	2.12
298.15	0	0.55	1525.29	2.12
298.15	0.05	0.05	1509.59	2.12
298.15	0.05	0.15	1514.64	2.12
298.15	0.05	0.25	1519.52	2.12
298.15	0.05	0.45	1529.36	2.12
298.15	0.05	0.55	1534.1	2.12
298.15	0.0501	0.35	1524.43	2.12
298.15	0.15	0.05	1528.32	2.12
298.15	0.15	0.15	1533.01	2.12
298.15	0.15	0.25	1537.7	2.12
298.15	0.15	0.35	1542.43	2.12
298.15	0.15	0.45	1546.9	2.12
298.15	0.1504	0.55	1551.45	2.12
298.15	0.35	0.05	1564.49	2.13
298.15	0.35	0.15	1568.41	2.13
298.15	0.35	0.25	1572.63	2.13
298.15	0.35	0.45	1581.7	2.13
298.15	0.3501	0.55	1585.25	2.13
298.15	0.3507	0.35	1576.93	2.13
298.15	0.55	0.05	1599.24	2.14
298.15	0.55	0.25	1606.56	2.14
298.15	0.55	0.35	1610.38	2.14
298.15	0.55	0.55	1618.19	2.14
298.15	0.5501	0.45	1614.33	2.14
298.15	0.5515	0.15	1602.78	2.14
298.15	0.7499	0.55	1650.7	2.15
298.15	0.75	0.05	1632.41	2.14
298.15	0.75	0.15	1635.68	2.14
298.15	0.75	0.25	1640.57	2.14
298.15	0.7502	0.45	1646.7	2.15
298.15	0.751	0.3499	1643.95	2.15
298.15	0.9499	0.05	1664.09	2.15
298.15	0.9499	0.45	1677.93	2.15
298.15	0.95	0.25	1671.43	2.15
298.15	0.95	0.35	1675.37	2.15
298.15	0.9501	0.15	1667.71	2.15
298.15	0.9502	0.55	1682	2.15
303.15	0	0.05	1511.43	2.12
303.15	0	0.15	1517.09	2.12
303.15	0	0.25	1522.08	2.12
303.15	0	0.35	1527.14	2.12
303.15	0	0.45	1531.76	2.12
303.15	0	0.55	1536.58	2.12
303.15	0.05	0.05	1521.06	2.12
303.15	0.05	0.15	1526.42	2.12
303.15	0.05	0.25	1531.67	2.12
303.15	0.05	0.45	1540.65	2.12
303.15	0.05	0.55	1545.45	2.12
303.15	0.0501	0.35	1535.87	2.12
303.15	0.15	0.05	1539.28	2.12
303.15	0.15	0.15	1544.24	2.12
303.15	0.15	0.25	1548.96	2.12
303.15	0.15	0.35	1553.41	2.12
303.15	0.15	0.45	1557.74	2.12
303.15	0.1504	0.55	1562.07	2.13
303.15	0.35	0.05	1573.05	2.13
303.15	0.35	0.15	1579.12	2.13
303.15	0.35	0.25	1582.66	2.13
303.15	0.35	0.45	1591.44	2.13
303.15	0.3501	0.55	1594.99	2.13
303.15	0.3507	0.35	1586.94	2.13
303.15	0.55	0.05	1607.58	2.14
303.15	0.55	0.25	1615.61	2.14
303.15	0.55	0.35	1619.46	2.14
303.15	0.55	0.55	1626.89	2.14
303.15	0.5501	0.45	1623.07	2.14
303.15	0.5515	0.15	1611.84	2.14
303.15	0.7499	0.55	1658.02	2.15
303.15	0.75	0.05	1639.71	2.14
303.15	0.75	0.15	1644.01	2.14
303.15	0.75	0.25	1647.56	2.15
303.15	0.7502	0.45	1655.35	2.15
303.15	0.751	0.35	1651.23	2.15
303.15	0.9499	0.05	1671.04	2.15
303.15	0.9499	0.45	1684.84	2.15
303.15	0.95	0.25	1678.3	2.15
303.15	0.95	0.35	1682.4	2.15
303.15	0.9501	0.15	1675.02	2.15
303.15	0.9502	0.55	1688.79	2.16
308.15	0	0.05	1522.05	2.12
308.15	0	0.15	1527.58	2.12
308.15	0	0.25	1532.33	2.12
308.15	0	0.35	1537.66	2.12
308.15	0.05	0.05	1531.52	2.12
308.15	0.05	0.15	1536.62	2.12
308.15	0.05	0.25	1541.13	2.12
308.15	0.0501	0.35	1546.51	2.12
308.15	0.15	0.05	1549.13	2.12
308.15	0.15	0.15	1553.87	2.12
308.15	0.15	0.25	1558.84	2.12
308.15	0.15	0.35	1563.07	2.12
308.15	0.35	0.05	1582.86	2.13
308.15	0.35	0.15	1587.51	2.13
308.15	0.35	0.25	1591.71	2.13
308.15	0.3507	0.35	1595.4	2.13
308.15	0.55	0.05	1616.24	2.14
308.15	0.55	0.25	1623.65	2.14
308.15	0.55	0.35	1627.56	2.14
308.15	0.5515	0.15	1620.44	2.14
308.15	0.75	0.05	1646.93	2.14
308.15	0.75	0.15	1651.16	2.15
308.15	0.75	0.25	1654.24	2.15
308.15	0.751	0.35	1658.47	2.15
308.15	0.9499	0.05	1677.25	2.15
308.15	0.95	0.25	1684.3	2.15
308.15	0.95	0.35	1688.21	2.15
308.15	0.9501	0.15	1681.83	2.15
313.15	0	0.05	1531.19	2.12
313.15	0	0.15	1536.62	2.12
313.15	0	0.25	1541.33	2.12
313.15	0	0.35	1546.35	2.12
313.15	0	0.45	1550.15	2.12
313.15	0	0.55	1554.08	2.12
313.15	0.05	0.05	1540.86	2.12
313.15	0.05	0.15	1545.32	2.12
313.15	0.05	0.25	1549.71	2.12
313.15	0.05	0.45	1558.61	2.12
313.15	0.05	0.55	1562.23	2.12
313.15	0.0501	0.35	1554.24	2.12
313.15	0.15	0.05	1558.05	2.12
313.15	0.15	0.15	1562.13	2.12
313.15	0.15	0.25	1566.43	2.12
313.15	0.15	0.35	1570.59	2.12
313.15	0.15	0.45	1574.62	2.12
313.15	0.1504	0.55	1578.21	2.12
313.15	0.35	0.05	1590.22	2.13
313.15	0.35	0.15	1594.64	2.13
313.15	0.35	0.25	1599.13	2.13
313.15	0.35	0.45	1606.66	2.13
313.15	0.3501	0.55	1610.12	2.13
313.15	0.3507	0.35	1603.06	2.13
313.15	0.55	0.05	1619.64	2.14
313.15	0.55	0.25	1629.58	2.14
313.15	0.55	0.35	1633.23	2.14
313.15	0.55	0.55	1639.82	2.14
313.15	0.5501	0.45	1636.83	2.14
313.15	0.5515	0.15	1626.72	2.14
313.15	0.7499	0.55	1669.88	2.15
313.15	0.75	0.05	1652.94	2.15
313.15	0.75	0.15	1657.47	2.15
313.15	0.75	0.25	1659.86	2.15
313.15	0.7502	0.45	1666.73	2.15
313.15	0.751	0.35	1664.02	2.15
313.15	0.9499	0.05	1682.63	2.15
313.15	0.9499	0.45	1695.35	2.15
313.15	0.95	0.25	1689.32	2.15
313.15	0.95	0.35	1693.1	2.15
313.15	0.9501	0.15	1686.79	2.15
313.15	0.9502	0.55	1698.55	2.16

System: potassium citrate + potassium chloride + water; phases: Liquid
Fixed: Pressure, kPa = 101
Property: Mass density, kg/m3 (Liquid); method: Vibrating tube method
Temperature, K	Molality, mol/kg of potassium citrate	Molality, mol/kg of potassium chloride	Mass density, kg/m3	uncertainty
293.15	0	0.05	1000.609	0.218
293.15	0	0.15	1005.277	0.216
293.15	0	0.25	1009.885	0.213
293.15	0	0.35	1014.439	0.211
293.15	0	0.55	1023.454	0.209
293.15	0.05	0.05	1010.676	0.214
293.15	0.05	0.15	1015.209	0.212
293.15	0.05	0.25	1019.665	0.209
293.15	0.05	0.55	1032.97	0.205
293.15	0.0501	0.35	1024.135	0.208
293.15	0.15	0.05	1030.2	0.207
293.15	0.15	0.15	1034.502	0.204
293.15	0.15	0.25	1038.7	0.203
293.15	0.15	0.35	1042.977	0.202
293.15	0.1504	0.55	1051.512	0.199
293.15	0.35	0.05	1066.963	0.202
293.15	0.35	0.15	1070.837	0.199
293.15	0.35	0.25	1074.752	0.199
293.15	0.3501	0.55	1086.419	0.195
293.15	0.3507	0.35	1078.8	0.197
293.15	0.55	0.05	1101.086	0.196
293.15	0.55	0.25	1108.344	0.194
293.15	0.55	0.35	1111.769	0.193
293.15	0.55	0.55	1119.045	0.192
293.15	0.5515	0.15	1104.73	0.194
293.15	0.7499	0.55	1149.544	0.19
293.15	0.75	0.05	1132.722	0.192
293.15	0.75	0.15	1135.879	0.192
293.15	0.75	0.25	1139.603	0.192
293.15	0.751	0.35	1143.025	0.192
293.15	0.9499	0.05	1162.087	0.196
293.15	0.95	0.25	1168.748	0.196
293.15	0.95	0.35	1171.752	0.196
293.15	0.9501	0.15	1165.437	0.197
293.15	0.9502	0.55	1178.067	0.196
298.15	0	0.05	999.431	0.218
298.15	0	0.15	1004.067	0.215
298.15	0	0.25	1008.604	0.213
298.15	0	0.35	1013.176	0.211
298.15	0	0.45	1017.651	0.209
298.15	0	0.55	1022.043	0.208
298.15	0.05	0.05	1009.411	0.212
298.15	0.05	0.15	1013.919	0.21
298.15	0.05	0.25	1018.37	0.209
298.15	0.05	0.45	1027.184	0.205
298.15	0.05	0.55	1031.485	0.204
298.15	0.0501	0.35	1022.815	0.207
298.15	0.15	0.05	1028.768	0.205
298.15	0.15	0.15	1033.04	0.203
298.15	0.15	0.25	1037.288	0.201
298.15	0.15	0.35	1041.511	0.2
298.15	0.15	0.45	1045.734	0.199
298.15	0.1504	0.55	1049.932	0.197
298.15	0.35	0.05	1065.225	0.2
298.15	0.35	0.15	1069.188	0.198
298.15	0.35	0.25	1073.06	0.198
298.15	0.35	0.45	1080.942	0.195
298.15	0.3501	0.55	1084.64	0.194
298.15	0.3507	0.35	1077.07	0.197
298.15	0.55	0.05	1099.1	0.195
298.15	0.55	0.25	1106.431	0.193
298.15	0.55	0.35	1109.927	0.192
298.15	0.55	0.55	1117.076	0.191
298.15	0.5501	0.45	1113.541	0.191
298.15	0.5515	0.15	1102.891	0.193
298.15	0.7499	0.55	1147.526	0.19
298.15	0.75	0.05	1130.714	0.192
298.15	0.75	0.15	1134.025	0.192
298.15	0.75	0.25	1137.557	0.191
298.15	0.7502	0.45	1144.152	0.191
298.15	0.751	0.3499	1141.081	0.191
298.15	0.9499	0.05	1160.076	0.195
298.15	0.9499	0.45	1172.982	0.196
298.15	0.95	0.25	1166.707	0.195
298.15	0.95	0.35	1169.695	0.195
298.15	0.9501	0.15	1163.413	0.196
298.15	0.9502	0.55	1175.914	0.195
303.15	0	0.05	998.016	0.217
303.15	0	0.15	1002.615	0.214
303.15	0	0.25	1007.119	0.212
303.15	0	0.35	1011.668	0.21
303.15	0	0.45	1016.1	0.208
303.15	0	0.55	1020.459	0.207
303.15	0.05	0.05	1007.939	0.212
303.15	0.05	0.15	1012.431	0.21
303.15	0.05	0.25	1016.857	0.208
303.15	0.05	0.45	1025.596	0.207
303.15	0.05	0.55	1029.865	0.203
303.15	0.0501	0.35	1021.255	0.206
303.15	0.15	0.05	1027.223	0.204
303.15	0.15	0.15	1031.492	0.202
303.15	0.15	0.25	1035.67	0.2
303.15	0.15	0.35	1039.865	0.199
303.15	0.15	0.45	1044.1	0.2
303.15	0.1504	0.55	1048.216	0.197
303.15	0.35	0.05	1063.493	0.2
303.15	0.35	0.15	1067.451	0.197
303.15	0.35	0.25	1071.298	0.197
303.15	0.35	0.45	1079.117	0.196
303.15	0.3501	0.55	1082.874	0.193
303.15	0.3507	0.35	1075.322	0.196
303.15	0.55	0.05	1097.3	0.194
303.15	0.55	0.25	1104.568	0.193
303.15	0.55	0.35	1108	0.191
303.15	0.55	0.55	1115.184	0.19
303.15	0.5501	0.45	1111.575	0.192
303.15	0.5515	0.15	1100.976	0.192
303.15	0.7499	0.55	1145.377	0.189
303.15	0.75	0.05	1128.772	0.191
303.15	0.75	0.15	1131.989	0.191
303.15	0.75	0.25	1135.62	0.191
303.15	0.7502	0.45	1142.221	0.191
303.15	0.751	0.35	1139.024	0.19
303.15	0.9499	0.05	1158.206	0.194
303.15	0.9499	0.45	1170.874	0.194
303.15	0.95	0.25	1164.508	0.194
303.15	0.95	0.35	1167.607	0.195
303.15	0.9501	0.15	1161.335	0.195
303.15	0.9502	0.55	1173.8	0.194
308.15	0	0.05	996.373	0.216
308.15	0	0.15	1000.942	0.213
308.15	0	0.25	1005.461	0.211
308.15	0	0.35	1009.931	0.209
308.15	0	0.45	1014.379	0.173
308.15	0	0.55	1018.736	0.207
308.15	0.05	0.05	1006.254	0.211
308.15	0.05	0.15	1010.721	0.209
308.15	0.05	0.25	1015.119	0.207
308.15	0.05	0.45	1021.893	0.191
308.15	0.05	0.55	1028.108	0.207
308.15	0.0501	0.35	1019.48	0.204
308.15	0.15	0.05	1025.416	0.203
308.15	0.15	0.15	1029.677	0.201
308.15	0.15	0.25	1033.857	0.2
308.15	0.15	0.35	1037.999	0.197
308.15	0.15	0.45	1040.257	0.195
308.15	0.1504	0.55	1046.388	0.201
308.15	0.35	0.05	1061.488	0.199
308.15	0.35	0.15	1065.495	0.197
308.15	0.35	0.25	1069.302	0.196
308.15	0.35	0.45	1075.022	0.194
308.15	0.3501	0.55	1080.925	0.197
308.15	0.3507	0.35	1073.264	0.193
308.15	0.55	0.05	1095.15	0.193
308.15	0.55	0.25	1102.299	0.192
308.15	0.55	0.35	1105.915	0.189
308.15	0.55	0.55	1113.111	0.194
308.15	0.5501	0.45	1107.362	0.19
308.15	0.5515	0.15	1098.979	0.192
308.15	0.7499	0.55	1143.274	0.193
308.15	0.75	0.05	1126.569	0.191
308.15	0.75	0.15	1129.87	0.19
308.15	0.75	0.25	1133.314	0.19
308.15	0.7502	0.45	1137.753	0.189
308.15	0.751	0.35	1136.719	0.188
308.15	0.9499	0.05	1155.974	0.194
308.15	0.9499	0.45	1166.294	0.2
308.15	0.95	0.25	1162.255	0.194
308.15	0.95	0.35	1165.362	0.191
308.15	0.9501	0.15	1158.998	0.194
308.15	0.9502	0.55	1171.519	0.198
313.15	0	0.05	994.543	0.214
313.15	0	0.15	999.082	0.212
313.15	0	0.25	1003.597	0.21
313.15	0	0.35	1008.025	0.207
313.15	0	0.45	1012.467	0.207
313.15	0	0.55	1016.782	0.205
313.15	0.05	0.05	1004.389	0.21
313.15	0.05	0.15	1008.824	0.208
313.15	0.05	0.25	1013.208	0.206
313.15	0.05	0.45	1021.893	0.203
313.15	0.05	0.55	1026.106	0.201
313.15	0.0501	0.35	1017.539	0.204
313.15	0.15	0.05	1023.491	0.203
313.15	0.15	0.15	1027.685	0.201
313.15	0.15	0.25	1031.906	0.199
313.15	0.15	0.35	1036	0.198
313.15	0.15	0.45	1040.257	0.197
313.15	0.1504	0.55	1044.296	0.195
313.15	0.35	0.05	1059.448	0.199
313.15	0.35	0.15	1063.391	0.196
313.15	0.35	0.25	1067.209	0.195
313.15	0.35	0.45	1075.022	0.193
313.15	0.3501	0.55	1078.705	0.192
313.15	0.3507	0.35	1071.151	0.195
313.15	0.55	0.05	1093.01	0.194
313.15	0.55	0.25	1100.139	0.191
313.15	0.55	0.35	1103.671	0.191
313.15	0.55	0.55	1110.873	0.189
313.15	0.5501	0.45	1107.362	0.189
313.15	0.5515	0.15	1096.803	0.191
313.15	0.7499	0.55	1140.91	0.188
313.15	0.75	0.05	1124.325	0.191
313.15	0.75	0.15	1127.646	0.189
313.15	0.75	0.25	1131.027	0.19
313.15	0.7502	0.45	1137.753	0.188
313.15	0.751	0.35	1134.5	0.189
313.15	0.9499	0.05	1153.69	0.193
313.15	0.9499	0.45	1166.294	0.192
313.15	0.95	0.25	1159.99	0.193
313.15	0.95	0.35	1163.005	0.194
313.15	0.9501	0.15	1156.655	0.193
313.15	0.9502	0.55	1169.171	0.193
