Measured thermophysical data. Solubilities of magnesium-L-ascorbate, calcium-L-ascorbate, magnesium-L-glutamate, magnesium-D-gluconate, calcium-D-gluconate, calcium-D-heptagluconate, L-aspartic acid, and 3-nitrobenzoic acid in water
Source: J. Chem. Thermodyn., 2008, 10.1016/j.jct.2007.12.006
Compound 1: magnesium L-ascorbate, C12H14MgO12, InChI=1S/2C6H8O6.Mg/c2*7-1-2(8)5-3(9)4(10)6(11)12-5;/h2*2,5,7-10H,1H2;/q;;+2/p-2/t2*2-,5+;/m00./s1, purity 95%
Compound 2: calcium L-ascorbate, C12H14CaO12, InChI=1S/2C6H8O6.Ca/c2*7-1-2(8)5-3(9)4(10)6(11)12-5;/h2*2,5,7-10H,1H2;/q;;+2/p-2/t2*2-,5+;/m00./s1, purity 99%
Compound 3: magnesium L-glutamate, C5H7MgNO4, InChI=1S/C5H9NO4.Mg/c6-3(5(9)10)1-2-4(7)8;/h3H,1-2,6H2,(H,7,8)(H,9,10);/q;+2/p-2/t3-;/m0./s1, purity 99%
Compound 4: L-aminosuccinic acid, C4H7NO4, InChI=1S/C4H7NO4/c5-2(4(8)9)1-3(6)7/h2H,1,5H2,(H,6,7)(H,8,9)/t2-/m0/s1, purity 99%
Compound 5: 3-nitrobenzoic acid, C7H5NO4, InChI=1S/C7H5NO4/c9-7(10)5-2-1-3-6(4-5)8(11)12/h1-4H,(H,9,10), purity 98%
Compound 6: magnesium (2R,3S,4R,5R)-2,3,4,5,6-pentahydroxyhexanoate, C12H22MgO14, InChI=1S/2C6H12O7.Mg/c2*7-1-2(8)3(9)4(10)5(11)6(12)13;/h2*2-5,7-11H,1H2,(H,12,13);/q;;+2/p-2/t2*2-,3-,4+,5-;/m11./s1, purity 96%
Compound 7: calcium gluconate, C12H22CaO14, InChI=1S/2C6H12O7.Ca/c2*7-1-2(8)3(9)4(10)5(11)6(12)13;/h2*2-5,7-11H,1H2,(H,12,13);/q;;+2/p-2/t2*2-,3-,4+,5-;/m11./s1, purity 98%
Compound 8: calcium (2R,3R,4R,5S,6R)-2,3,4,5,6,7-hexahydroxyheptanoate, C14H26CaO16, InChI=1S/2C7H14O8.Ca/c2*8-1-2(9)3(10)4(11)5(12)6(13)7(14)15;/h2*2-6,8-13H,1H2,(H,14,15);/q;;+2/p-2/t2*2-,3+,4-,5-,6-;/m11./s1, purity 99%
Compound 9: water, H2O, InChI=1S/H2O/h1H2

System: L-aminosuccinic acid + water; phases: Liquid, Crystal
Fixed: Pressure, kPa = 101
Property: Molality, mol/kg (Liquid); method: titration
Temperature, K	Molality, mol/kg	uncertainty
278.15	0.0197	0.0032
283.15	0.0221	0.0035
288.15	0.0257	0.0041
293.15	0.0432	0.0069
298.15	0.0371	0.0059
303.15	0.0408	0.0065
308.15	0.0557	0.0089
313.15	0.0681	0.0109
318.15	0.0827	0.0132
323.15	0.0995	0.0159
328.15	0.117	0.019
333.15	0.127	0.02
338.15	0.172	0.028
343.15	0.185	0.03

System: 3-nitrobenzoic acid + water; phases: Liquid, Crystal
Fixed: Pressure, kPa = 101
Property: Molality, mol/kg (Liquid); method: titration
Temperature, K	Molality, mol/kg	uncertainty
278.15	0.0096	0.0015
283.15	0.0094	0.0015
288.15	0.0132	0.0021
293.15	0.0178	0.0028
298.15	0.0208	0.0033
303.15	0.0199	0.0032
308.15	0.0224	0.0036
313.15	0.0314	0.005
318.15	0.0368	0.0059
323.15	0.0453	0.0072
328.15	0.0631	0.0101
333.15	0.0746	0.0119
338.15	0.116	0.019
343.15	0.159	0.025

System: magnesium (2R,3S,4R,5R)-2,3,4,5,6-pentahydroxyhexanoate + water; phases: Liquid, Crystal
Fixed: Pressure, kPa = 101
Property: Molality, mol/kg (Liquid); method: phase equilibriation
Temperature, K	Molality, mol/kg	uncertainty
278.15	0.308	0.037
283.15	0.315	0.038
288.15	0.321	0.039
293.15	0.372	0.045
298.15	0.414	0.05
303.15	0.472	0.057
308.15	0.534	0.064
313.15	0.601	0.072
318.15	0.681	0.082
323.15	0.81	0.097
328.15	0.911	0.109
333.15	1.07	0.13
338.15	1.2	0.14
343.15	1.35	0.16

System: calcium gluconate + water; phases: Liquid, Crystal
Fixed: Pressure, kPa = 101
Property: Molality, mol/kg (Liquid); method: phase equilibriation
Temperature, K	Molality, mol/kg	uncertainty
278.15	0.0376	0.0045
283.15	0.0408	0.0049
288.15	0.0457	0.0055
293.15	0.0546	0.0066
298.15	0.0654	0.0078
303.15	0.0882	0.0106
308.15	0.0984	0.0118
313.15	0.128	0.015
318.15	0.172	0.021
323.15	0.208	0.025
328.15	0.249	0.03
333.15	0.312	0.037
338.15	0.381	0.046

System: water + calcium (2R,3R,4R,5S,6R)-2,3,4,5,6,7-hexahydroxyheptanoate; phases: Liquid, Crystal
Fixed: Pressure, kPa = 101
Property: Molality, mol/kg (Liquid); method: phase equilibriation
Temperature, K	Molality, mol/kg	uncertainty
278.15	0.019	0.003
283.15	0.0289	0.0046
288.15	0.0522	0.0084
293.15	0.1	0.016
298.15	0.122	0.02
303.15	0.151	0.024
308.15	0.247	0.04
313.15	0.282	0.045
318.15	0.377	0.06
323.15	0.626	0.1
328.15	0.919	0.147
333.15	1.24	0.2
338.15	2.11	0.34
343.15	2.85	0.46

System: water + magnesium L-glutamate; phases: Liquid, Crystal
Fixed: Pressure, kPa = 101
Property: Molality, mol/kg (Liquid); method: phase equilibriation
Temperature, K	Molality, mol/kg	uncertainty
278.15	1.82	0.22
283.15	1.9	0.23
288.15	1.97	0.24
293.15	2.02	0.24
298.15	2.16	0.26
303.15	2.35	0.28
308.15	2.42	0.29
313.15	2.6	0.31
318.15	3.02	0.36
323.15	3.36	0.4
328.15	3.48	0.42
333.15	3.64	0.44

System: water + magnesium L-ascorbate; phases: Liquid, Crystal
Fixed: Pressure, kPa = 101
Property: Molality, mol/kg (Liquid); method: phase equilibriation
Temperature, K	Molality, mol/kg	uncertainty
278.15	2.06	0.25
283.15	2.1	0.25
288.15	2.21	0.27
293.15	2.38	0.29
298.15	2.65	0.32
303.15	2.95	0.35
308.15	3.2	0.38
313.15	3.42	0.41
318.15	3.63	0.44
323.15	3.82	0.46
328.15	4.05	0.49
333.15	4.43	0.53

System: calcium L-ascorbate + water; phases: Liquid, Crystal
Fixed: Pressure, kPa = 101
Property: Molality, mol/kg (Liquid); method: phase equilibriation
Temperature, K	Molality, mol/kg	uncertainty
278.15	1.03	0.12
283.15	1.12	0.13
288.15	1.19	0.14
293.15	1.26	0.15
298.15	1.34	0.16
303.15	1.42	0.17
308.15	1.52	0.18
313.15	1.74	0.21
318.15	1.9	0.23
323.15	2.04	0.24
328.15	2.27	0.27
333.15	2.46	0.3
