Measured thermophysical data. Benchmark properties of pyrazole derivatives as a potential liquid organic hydrogen carrier: Evaluation of thermochemical data with complementary experimental and computational methods
Source: J. Chem. Thermodyn., 2019, 10.1016/j.jct.2018.07.020
Compound 1: carbon dioxide, CO2, InChI=1S/CO2/c2-1-3
Compound 2: nitrogen, N2, InChI=1S/N2/c1-2
Compound 3: water, H2O, InChI=1S/H2O/h1H2
Compound 4: oxygen, O2, InChI=1S/O2/c1-2
Compound 5: 1H-pyrazole, C3H4N2, InChI=1S/C3H4N2/c1-2-4-5-3-1/h1-3H,(H,4,5), purity 98%
Compound 6: 1-methyl-1H-pyrazole, C4H6N2, InChI=1S/C4H6N2/c1-6-4-2-3-5-6/h2-4H,1H3, purity 99%
Compound 7: 1-ethylpyrazole, C5H8N2, InChI=1S/C5H8N2/c1-2-7-5-3-4-6-7/h3-5H,2H2,1H3, purity 99%
Compound 8: 3-methylpyrazole, C4H6N2, InChI=1S/C4H6N2/c1-4-2-3-5-6-4/h2-3H,1H3,(H,5,6), purity 99%
Compound 9: 4-methylpyrazole, C4H6N2, InChI=1S/C4H6N2/c1-4-2-5-6-3-4/h2-3H,1H3,(H,5,6), purity 99%
Compound 10: 3,5-dimethylpyrazole, C5H8N2, InChI=1S/C5H8N2/c1-4-3-5(2)7-6-4/h3H,1-2H3,(H,6,7), purity 99%
Compound 11: 1,3,5-trimethylpyrazole, C6H10N2, InChI=1S/C6H10N2/c1-5-4-6(2)8(3)7-5/h4H,1-3H3, purity 98%
Compound 12: 1-benzylpyrazole, C10H10N2, InChI=1S/C10H10N2/c1-2-5-10(6-3-1)9-12-8-4-7-11-12/h1-8H,9H2, purity 99%
Compound 13: 1-phenylpyrazole, C9H8N2, InChI=1S/C9H8N2/c1-2-5-9(6-3-1)11-8-4-7-10-11/h1-8H, purity 98%
Compound 14: 1,2-diazaindene, C7H6N2, InChI=1S/C7H6N2/c1-2-4-7-6(3-1)5-8-9-7/h1-5H,(H,8,9), purity 98%
Compound 15: tetrahydrofuran, C4H8O, InChI=1S/C4H8O/c1-2-4-5-3-1/h1-4H2, purity 99%

System: 1H-pyrazole; phases: Crystal, Gas
Property: Vapor or sublimation pressure, kPa (Crystal); method: Transpiration method
Temperature, K	Vapor or sublimation pressure, kPa	uncertainty
308.4	0.0499	0.0033
310.8	0.0628	0.0041
313.4	0.08	0.0051
315.8	0.1	0.0064
318.2	0.1258	0.0082
323.3	0.189	0.0121
328.3	0.287	0.0181
330.9	0.3495	0.0222
333.3	0.4255	0.0271
335.8	0.5187	0.0328
338.3	0.6278	0.0394

System: 1-methyl-1H-pyrazole; phases: Liquid, Gas
Property: Vapor or sublimation pressure, kPa (Liquid); method: Transpiration method
Temperature, K	Vapor or sublimation pressure, kPa	uncertainty
273.4	0.3007	0.019
276.4	0.3722	0.0232
277.2	0.3818	0.024
278.7	0.4304	0.0272
281.6	0.5225	0.0327
281.8	0.5148	0.0322
283.3	0.5843	0.0368
284.6	0.6386	0.0399
286.5	0.7077	0.0442
287.8	0.7821	0.0493
288.3	0.8074	0.0505
290.5	0.9287	0.058
291.4	0.9834	0.0621
292.5	1.077	0.068
294.4	1.195	0.075
296.5	1.365	0.085
297.4	1.456	0.09
298.8	1.576	0.098
302.4	1.989	0.125
304.7	2.313	0.144
306.6	2.528	0.157
308.2	2.753	0.171

System: 1-ethylpyrazole; phases: Liquid, Gas
Property: Vapor or sublimation pressure, kPa (Liquid); method: Transpiration method
Temperature, K	Vapor or sublimation pressure, kPa	uncertainty
275.2	0.1828	0.0117
275.2	0.1776	0.0115
279.2	0.2485	0.0155
280.2	0.2616	0.0167
283.2	0.3347	0.0211
285.2	0.3759	0.0237
287.2	0.4482	0.0283
290.2	0.5448	0.034
291.2	0.5877	0.037
294.2	0.7128	0.0444
295.2	0.7543	0.0478
298.2	0.9478	0.0594
300.2	1.0725	0.0672
302.2	1.2366	0.0772
303.2	1.2995	0.0822
305.2	1.5388	0.0969
306.2	1.6299	0.1015
311.2	2.1939	0.1363

System: 1-ethylpyrazole; phases: Liquid, Gas
Property: Boiling temperature at pressure P, K (Liquid); method: Distillation
Pressure, kPa	Boiling temperature at pressure P, K	uncertainty
7.2	333	4

System: 3-methylpyrazole; phases: Liquid, Gas
Property: Vapor or sublimation pressure, kPa (Liquid); method: Transpiration method
Temperature, K	Vapor or sublimation pressure, kPa	uncertainty
306.3	0.0252	0.0017
308.7	0.0308	0.002
311.2	0.0369	0.0023
313.8	0.0443	0.0028
316.3	0.0568	0.0036
318.2	0.063	0.004
321.2	0.0821	0.0053
323.8	0.0978	0.0062
326.2	0.1165	0.0073
328.8	0.142	0.009
333.2	0.1924	0.012

System: 4-methylpyrazole; phases: Liquid, Gas
Property: Vapor or sublimation pressure, kPa (Liquid); method: Transpiration method
Temperature, K	Vapor or sublimation pressure, kPa	uncertainty
296	0.0098	0.0007
301	0.0149	0.001
305.9	0.0226	0.0015
310.8	0.0339	0.0022
315.8	0.0494	0.0032
320.9	0.0719	0.0045
325.7	0.099	0.0063
330.6	0.1457	0.0093
335.6	0.2071	0.013
340.6	0.2879	0.0179

System: 3,5-dimethylpyrazole; phases: Crystal, Liquid, Air at 1 atmosphere
Property: Normal melting temperature, K (Crystal); method: DTA
Normal melting temperature, K	uncertainty
382.2	1.1

System: 3,5-dimethylpyrazole; phases: Crystal, Liquid, Air at 1 atmosphere
Property: Molar enthalpy of transition or fusion, kJ/mol (Crystal); method: DSC
Molar enthalpy of transition or fusion, kJ/mol	uncertainty
16.1	0.5

System: 3,5-dimethylpyrazole; phases: Crystal, Gas
Property: Vapor or sublimation pressure, kPa (Crystal); method: Transpiration method
Temperature, K	Vapor or sublimation pressure, kPa	uncertainty
323.3	0.0136	0.001
325.9	0.0179	0.0013
326.3	0.019	0.0013
328.3	0.0224	0.0015
330.3	0.028	0.0018
333.3	0.0361	0.0023
333.5	0.0368	0.0023
336.3	0.0473	0.003
338.2	0.0538	0.0036
343.3	0.0846	0.0053
345.7	0.1033	0.0066
348.3	0.1257	0.0081
350.7	0.1591	0.0102
350.8	0.1585	0.0102
353.2	0.1955	0.0124
354.3	0.2107	0.0134
356.4	0.2524	0.0159

System: 1,3,5-trimethylpyrazole; phases: Crystal, Liquid, Air at 1 atmosphere
Property: Normal melting temperature, K (Crystal); method: DTA
Normal melting temperature, K	uncertainty
312.5	1.1

System: 1,3,5-trimethylpyrazole; phases: Crystal, Liquid, Air at 1 atmosphere
Property: Molar enthalpy of transition or fusion, kJ/mol (Crystal); method: DSC
Molar enthalpy of transition or fusion, kJ/mol	uncertainty
17.6	0.9

System: 1,3,5-trimethylpyrazole; phases: Crystal, Gas
Property: Vapor or sublimation pressure, kPa (Crystal); method: Transpiration method
Temperature, K	Vapor or sublimation pressure, kPa	uncertainty
282	0.0479	0.0031
284	0.0583	0.0039
287	0.0816	0.0054
288.7	0.0998	0.0065
291.7	0.1348	0.0087
293.8	0.1707	0.0111
296.7	0.2266	0.0146
298.7	0.2751	0.0179
298.7	0.2814	0.0183
301.7	0.376	0.0239
301.9	0.3776	0.0241
303	0.4153	0.0265
303.9	0.4496	0.0292
306.8	0.5927	0.0376

System: 1,3,5-trimethylpyrazole; phases: Liquid, Gas
Property: Vapor or sublimation pressure, kPa (Liquid); method: Transpiration method
Temperature, K	Vapor or sublimation pressure, kPa	uncertainty
315.6	0.934	0.058
320.8	1.297	0.081
326.4	1.878	0.118
325.7	1.793	0.113
330.5	2.376	0.152
334.1	2.995	0.186
331.4	2.585	0.162
336	3.202	0.228
336.4	3.436	0.241
338.9	3.803	0.237
341.4	4.545	0.284
343.4	4.993	0.311
346.4	5.866	0.364

System: 1-benzylpyrazole; phases: Liquid, Gas
Property: Vapor or sublimation pressure, kPa (Liquid); method: Transpiration method
Temperature, K	Vapor or sublimation pressure, kPa	uncertainty
298.2	0.00147	0.00011
310.2	0.0043	0.00027
314.2	0.00615	0.00044
318.2	0.00882	0.00061
322.2	0.0119	0.0008
326.2	0.0166	0.001
326.2	0.0168	0.001
330.2	0.0225	0.0015
334.2	0.0311	0.002
338.2	0.0421	0.0027
342.2	0.0559	0.0035
346.2	0.0713	0.0045
350.2	0.0969	0.006
354.2	0.1228	0.0077
358.2	0.159	0.0099

System: 1-benzylpyrazole; phases: Liquid, Gas
Property: Boiling temperature at pressure P, K (Liquid); method: Distillation
Pressure, kPa	Boiling temperature at pressure P, K	uncertainty
0.6	382	5

System: 1-phenylpyrazole; phases: Liquid, Gas
Property: Vapor or sublimation pressure, kPa (Liquid); method: Transpiration method
Temperature, K	Vapor or sublimation pressure, kPa	uncertainty
294.2	0.00258	0.00018
295.2	0.00284	0.00019
297.2	0.00324	0.00022
303.2	0.00556	0.00039
309.1	0.00913	0.00061
315	0.01461	0.00096
320.9	0.02221	0.00144
327	0.03352	0.00215
332.8	0.05146	0.00327
338.9	0.07723	0.00487
344.9	0.1082	0.0068
350.8	0.1589	0.01
354.8	0.2072	0.013
360.8	0.2918	0.0181

System: 1,2-diazaindene; phases: Crystal, Gas
Property: Vapor or sublimation pressure, kPa (Crystal); method: Transpiration method
Temperature, K	Vapor or sublimation pressure, kPa	uncertainty
323.3	0.00069	5e-05
326.3	0.00098	7e-05
330.3	0.00152	0.0001
331.3	0.00161	0.00012
336.3	0.00272	0.00018
338.3	0.00329	0.00023
341.3	0.00443	0.0003
343.3	0.00515	0.00037
343.3	0.00524	0.00039
345.2	0.00661	0.00047
346.3	0.00723	0.0005
348.3	0.00826	0.00057
350.3	0.01023	0.0007
353.2	0.01343	0.0009
356.2	0.01763	0.00117
358.2	0.0211	0.00138
361.2	0.02725	0.00176

System: tetrahydrofuran + 1H-pyrazole; phases: Liquid
Property: Molar enthalpy of solution, kJ/mol (Liquid); method: Power-compensation calorimetry
Mole fraction of 1H-pyrazole	Temperature, K	Pressure, kPa	Molar enthalpy of solution, kJ/mol	uncertainty
0	298.15	100	13.27	0.3

System: tetrahydrofuran + 1-methyl-1H-pyrazole; phases: Liquid
Property: Molar enthalpy of solution, kJ/mol (Liquid); method: Titration calorimetry
Mole fraction of 1-methyl-1H-pyrazole	Temperature, K	Pressure, kPa	Molar enthalpy of solution, kJ/mol	uncertainty
0	298.15	100	-0.13	0.03

System: tetrahydrofuran + 3-methylpyrazole; phases: Liquid
Property: Molar enthalpy of solution, kJ/mol (Liquid); method: Titration calorimetry
Mole fraction of 3-methylpyrazole	Temperature, K	Pressure, kPa	Molar enthalpy of solution, kJ/mol	uncertainty
0	298.15	100	3	0.07

System: tetrahydrofuran + 3,5-dimethylpyrazole; phases: Liquid
Property: Molar enthalpy of solution, kJ/mol (Liquid); method: Power-compensation calorimetry
Mole fraction of 3,5-dimethylpyrazole	Temperature, K	Pressure, kPa	Molar enthalpy of solution, kJ/mol	uncertainty
0	298.15	100	18.54	0.56

System: tetrahydrofuran + 1,3,5-trimethylpyrazole; phases: Liquid
Property: Molar enthalpy of solution, kJ/mol (Liquid); method: Power-compensation calorimetry
Mole fraction of 1,3,5-trimethylpyrazole	Temperature, K	Pressure, kPa	Molar enthalpy of solution, kJ/mol	uncertainty
0	298.15	100	19.04	0.53

Reaction: -1 1-methyl-1H-pyrazole + 4 carbon dioxide + 1 nitrogen + 3 water + -5.5 oxygen
Property: Specific internal energy of reaction at constant volume, J/g
-31083
