Measured thermophysical data. Thermodynamic study of (alkyl esters + a,x-alkyl dihalides) I: HE and V E for 25 binary mixtures {xCu-1H2u-1CO2C2H5 + (1-x)a,x-ClCH2(CH2)v-2CH2Cl}, where u = 1 to 5, a = 1 and v = x = 2 to 6
Source: J. Chem. Thermodyn., 2005, 10.1016/j.jct.2005.03.020
Compound 1: ethyl methanoate, C3H6O2, InChI=1S/C3H6O2/c1-2-5-3-4/h3H,2H2,1H3
Compound 2: ethyl acetate, C4H8O2, InChI=1S/C4H8O2/c1-3-6-4(2)5/h3H2,1-2H3
Compound 3: ethyl propanoate, C5H10O2, InChI=1S/C5H10O2/c1-3-5(6)7-4-2/h3-4H2,1-2H3
Compound 4: ethyl butanoate, C6H12O2, InChI=1S/C6H12O2/c1-3-5-6(7)8-4-2/h3-5H2,1-2H3
Compound 5: ethyl pentanoate, C7H14O2, InChI=1S/C7H14O2/c1-3-5-6-7(8)9-4-2/h3-6H2,1-2H3
Compound 6: 1,2-dichloroethane, C2H4Cl2, InChI=1S/C2H4Cl2/c3-1-2-4/h1-2H2
Compound 7: 1,3-dichloropropane, C3H6Cl2, InChI=1S/C3H6Cl2/c4-2-1-3-5/h1-3H2
Compound 8: 1,4-dichlorobutane, C4H8Cl2, InChI=1S/C4H8Cl2/c5-3-1-2-4-6/h1-4H2
Compound 9: 1,5-dichloropentane, C5H10Cl2, InChI=1S/C5H10Cl2/c6-4-2-1-3-5-7/h1-5H2
Compound 10: 1,6-dichlorohexane, C6H12Cl2, InChI=1S/C6H12Cl2/c7-5-3-1-2-4-6-8/h1-6H2

System: ethyl methanoate; phases: Liquid
Property: Refractive index (Na D-line) (Liquid); method: Standard Abbe refractometry
Temperature, K	Pressure, kPa	Refractive index (Na D-line)	uncertainty
298.15	101.325	1.358	0.0009

System: ethyl methanoate; phases: Liquid
Property: Mass density, kg/m3 (Liquid); method: VIBTUB:UFactor:8
Temperature, K	Pressure, kPa	Mass density, kg/m3	uncertainty
298.15	101.325	914.17	1.57

System: ethyl acetate; phases: Liquid
Property: Refractive index (Na D-line) (Liquid); method: Standard Abbe refractometry
Temperature, K	Pressure, kPa	Refractive index (Na D-line)	uncertainty
298.15	101.325	1.3692	0.0007

System: ethyl acetate; phases: Liquid
Property: Mass density, kg/m3 (Liquid); method: VIBTUB:UFactor:2
Temperature, K	Pressure, kPa	Mass density, kg/m3	uncertainty
298.15	101.325	894.33	0.3

System: ethyl propanoate; phases: Liquid
Property: Refractive index (Na D-line) (Liquid); method: Standard Abbe refractometry
Temperature, K	Pressure, kPa	Refractive index (Na D-line)	uncertainty
298.15	101.325	1.3815	0.0008

System: ethyl propanoate; phases: Liquid
Property: Mass density, kg/m3 (Liquid); method: VIBTUB:UFactor:4
Temperature, K	Pressure, kPa	Mass density, kg/m3	uncertainty
298.15	101.325	884.02	0.6

System: ethyl butanoate; phases: Liquid
Property: Refractive index (Na D-line) (Liquid); method: Standard Abbe refractometry
Temperature, K	Pressure, kPa	Refractive index (Na D-line)	uncertainty
298.15	101.325	1.3895	0.0008

System: ethyl butanoate; phases: Liquid
Property: Mass density, kg/m3 (Liquid); method: VIBTUB:UFactor:6
Temperature, K	Pressure, kPa	Mass density, kg/m3	uncertainty
298.15	101.325	873.54	1.09

System: ethyl pentanoate; phases: Liquid
Property: Refractive index (Na D-line) (Liquid); method: Standard Abbe refractometry
Temperature, K	Pressure, kPa	Refractive index (Na D-line)	uncertainty
298.15	101.325	1.398	0.0008

System: ethyl pentanoate; phases: Liquid
Property: Mass density, kg/m3 (Liquid); method: VIBTUB:UFactor:4
Temperature, K	Pressure, kPa	Mass density, kg/m3	uncertainty
298.15	101.325	869.42	0.62

System: 1,2-dichloroethane; phases: Liquid
Property: Refractive index (Na D-line) (Liquid); method: Standard Abbe refractometry
Temperature, K	Pressure, kPa	Refractive index (Na D-line)	uncertainty
298.15	101.325	1.442	0.0007

System: 1,2-dichloroethane; phases: Liquid
Property: Mass density, kg/m3 (Liquid); method: VIBTUB:UFactor:2
Temperature, K	Pressure, kPa	Mass density, kg/m3	uncertainty
298.15	101.325	1245.65	0.46

System: 1,3-dichloropropane; phases: Liquid
Property: Refractive index (Na D-line) (Liquid); method: Standard Abbe refractometry
Temperature, K	Pressure, kPa	Refractive index (Na D-line)	uncertainty
298.15	101.325	1.4455	0.0008

System: 1,3-dichloropropane; phases: Liquid
Property: Mass density, kg/m3 (Liquid); method: VIBTUB:UFactor:4
Temperature, K	Pressure, kPa	Mass density, kg/m3	uncertainty
298.15	101.325	1178.34	0.8

System: 1,4-dichlorobutane; phases: Liquid
Property: Refractive index (Na D-line) (Liquid); method: Standard Abbe refractometry
Temperature, K	Pressure, kPa	Refractive index (Na D-line)	uncertainty
298.15	101.325	1.452	0.0008

System: 1,4-dichlorobutane; phases: Liquid
Property: Mass density, kg/m3 (Liquid); method: VIBTUB:UFactor:4
Temperature, K	Pressure, kPa	Mass density, kg/m3	uncertainty
298.15	101.325	1133.32	0.72

System: 1,5-dichloropentane; phases: Liquid
Property: Refractive index (Na D-line) (Liquid); method: Standard Abbe refractometry
Temperature, K	Pressure, kPa	Refractive index (Na D-line)	uncertainty
298.15	101.325	1.454	0.0008

System: 1,5-dichloropentane; phases: Liquid
Property: Mass density, kg/m3 (Liquid); method: VIBTUB:UFactor:4
Temperature, K	Pressure, kPa	Mass density, kg/m3	uncertainty
298.15	101.325	1095.27	0.66

System: 1,6-dichlorohexane; phases: Liquid
Property: Refractive index (Na D-line) (Liquid); method: Standard Abbe refractometry
Temperature, K	Pressure, kPa	Refractive index (Na D-line)	uncertainty
298.15	101.325	1.4555	0.0008

System: 1,6-dichlorohexane; phases: Liquid
Property: Mass density, kg/m3 (Liquid); method: VIBTUB:UFactor:6
Temperature, K	Pressure, kPa	Mass density, kg/m3	uncertainty
298.15	101.325	1063.72	1.17

System: 1,2-dichloroethane + ethyl acetate; phases: Liquid
Fixed: Pressure, kPa = 101.325
Fixed: Temperature, K = 298.15
Property: Excess molar enthalpy (molar enthalpy of mixing), kJ/mol (Liquid); method: CALVET:UFactor:2
Mole fraction of ethyl acetate	Excess molar enthalpy (molar enthalpy of mixing), kJ/mol	uncertainty
0.0368	-0.0393	0.0022
0.0819	-0.0877	0.0029
0.131	-0.1442	0.0038
0.1846	-0.2054	0.0048
0.2408	-0.2686	0.0057
0.295	-0.3261	0.0066
0.3419	-0.3628	0.0072
0.3836	-0.3911	0.0076
0.4244	-0.4217	0.0081
0.46	-0.4427	0.0084
0.4728	-0.4459	0.0085
0.4972	-0.4506	0.0085
0.5087	-0.4509	0.0085
0.5523	-0.4494	0.0085
0.604	-0.4362	0.0083
0.6668	-0.4036	0.0078
0.747	-0.3375	0.0068
0.8328	-0.2427	0.0053
0.9184	-0.1347	0.0037

System: 1,2-dichloroethane + ethyl acetate; phases: Liquid
Fixed: Pressure, kPa = 101.325
Fixed: Temperature, K = 298.15
Property: Mass density, kg/m3 (Liquid); method: VIBTUB:UFactor:6
Mole fraction of ethyl acetate	Mass density, kg/m3	uncertainty
0.0497	1223.67	0.78
0.0983	1202.79	0.73
0.1492	1181.45	0.68
0.1997	1160.95	0.64
0.2524	1140.18	0.59
0.3059	1119.62	0.55
0.3618	1098.71	0.5
0.4184	1078.16	0.46
0.4765	1057.68	0.42
0.5356	1037.35	0.38
0.5982	1016.38	0.34
0.6603	996.21	0.32
0.7247	975.88	0.35
0.7893	955.96	0.38
0.857	935.65	0.41
0.928	914.85	0.45

System: 1,4-dichlorobutane + ethyl acetate; phases: Liquid
Fixed: Pressure, kPa = 101.325
Fixed: Temperature, K = 298.15
Property: Excess molar enthalpy (molar enthalpy of mixing), kJ/mol (Liquid); method: CALVET:UFactor:2
Mole fraction of ethyl acetate	Excess molar enthalpy (molar enthalpy of mixing), kJ/mol	uncertainty
0.0692	-0.0084	0.0017
0.1414	-0.0198	0.0019
0.2133	-0.0355	0.0021
0.2818	-0.0549	0.0024
0.347	-0.0759	0.0027
0.4035	-0.0968	0.0031
0.4514	-0.1146	0.0033
0.4919	-0.1294	0.0036
0.5264	-0.1417	0.0037
0.5571	-0.1519	0.0039
0.5836	-0.1613	0.0041
0.6072	-0.1686	0.0042
0.6278	-0.1734	0.0042
0.6525	-0.1768	0.0043
0.7106	-0.1625	0.0041
0.7719	-0.1439	0.0038
0.8337	-0.1152	0.0033
0.8915	-0.0806	0.0028
0.9475	-0.0417	0.0022

System: 1,4-dichlorobutane + ethyl acetate; phases: Liquid
Fixed: Pressure, kPa = 101.325
Fixed: Temperature, K = 298.15
Property: Mass density, kg/m3 (Liquid); method: VIBTUB:UFactor:6
Mole fraction of ethyl acetate	Mass density, kg/m3	uncertainty
0.0693	1118.08	0.72
0.1314	1104.46	0.68
0.1955	1090.4	0.64
0.2579	1076.44	0.6
0.3205	1062.24	0.56
0.3812	1048.26	0.52
0.442	1034.12	0.49
0.5019	1019.95	0.45
0.5602	1006.01	0.42
0.6172	992.21	0.4
0.6757	977.84	0.4
0.7842	950.68	0.42
0.8386	936.74	0.43
0.8929	922.7	0.45
0.9453	908.9	0.47

System: ethyl acetate + 1,6-dichlorohexane; phases: Liquid
Fixed: Pressure, kPa = 101.325
Fixed: Temperature, K = 298.15
Property: Excess molar enthalpy (molar enthalpy of mixing), kJ/mol (Liquid); method: CALVET:UFactor:4
Mole fraction of ethyl acetate	Excess molar enthalpy (molar enthalpy of mixing), kJ/mol	uncertainty
0.0931	0.0324	0.0041
0.1859	0.053	0.0047
0.2737	0.073	0.0054
0.3572	0.0826	0.0057
0.4323	0.0759	0.0055
0.4967	0.0625	0.005
0.5544	0.0421	0.0044
0.6025	0.0316	0.0041
0.6355	0.0226	0.0038
0.7013	0.0133	0.0035
0.769	0.0044	0.0032
0.8355	-0.0095	0.0034
0.9006	-0.0152	0.0036
0.9593	-0.0068	0.0033

System: ethyl acetate + 1,6-dichlorohexane; phases: Liquid
Fixed: Pressure, kPa = 101.325
Fixed: Temperature, K = 298.15
Property: Mass density, kg/m3 (Liquid); method: VIBTUB:UFactor:6
Mole fraction of ethyl acetate	Mass density, kg/m3	uncertainty
0.0827	1053.91	1.06
0.164	1043.7	0.98
0.2386	1033.83	0.9
0.3112	1023.72	0.83
0.3783	1013.89	0.77
0.4437	1003.86	0.71
0.5071	993.65	0.66
0.5654	983.86	0.62
0.6221	973.92	0.58
0.6754	964.14	0.55
0.7291	953.86	0.53
0.7774	944.24	0.51
0.824	934.61	0.5
0.8726	924.1	0.49
0.9134	914.94	0.48
0.9552	905.22	0.48

System: ethyl butanoate + 1,2-dichloroethane; phases: Liquid
Fixed: Pressure, kPa = 101.325
Fixed: Temperature, K = 298.15
Property: Excess molar enthalpy (molar enthalpy of mixing), kJ/mol (Liquid); method: CALVET:UFactor:2
Mole fraction of ethyl butanoate	Excess molar enthalpy (molar enthalpy of mixing), kJ/mol	uncertainty
0.0372	-0.024	0.002
0.0865	-0.0668	0.0026
0.1386	-0.1216	0.0035
0.1921	-0.1825	0.0044
0.2431	-0.2465	0.0054
0.2939	-0.3085	0.0063
0.3419	-0.361	0.0072
0.388	-0.4095	0.0079
0.4274	-0.4405	0.0084
0.4838	-0.456	0.0086
0.5489	-0.4585	0.0087
0.5825	-0.451	0.0085
0.6236	-0.4349	0.0083
0.7068	-0.3791	0.0074
0.7989	-0.2853	0.006
0.8971	-0.1695	0.0042
0.9325	-0.122	0.0035

System: ethyl butanoate + 1,2-dichloroethane; phases: Liquid
Fixed: Pressure, kPa = 101.325
Fixed: Temperature, K = 298.15
Property: Mass density, kg/m3 (Liquid); method: VIBTUB:UFactor:6
Mole fraction of ethyl butanoate	Mass density, kg/m3	uncertainty
0.0378	1221.95	0.79
0.075	1199.86	0.75
0.1149	1177.55	0.73
0.1568	1155.49	0.7
0.198	1134.78	0.68
0.2425	1113.63	0.67
0.2957	1089.91	0.66
0.3476	1068.19	0.65
0.4019	1046.72	0.66
0.46	1025.2	0.67
0.5234	1003.08	0.68
0.5887	981.85	0.73
0.6583	960.62	0.78
0.7338	939.07	0.83
0.8138	917.85	0.89
0.9027	895.87	0.95

System: ethyl butanoate + 1,4-dichlorobutane; phases: Liquid
Fixed: Pressure, kPa = 101.325
Fixed: Temperature, K = 298.15
Property: Excess molar enthalpy (molar enthalpy of mixing), kJ/mol (Liquid); method: CALVET:UFactor:2
Mole fraction of ethyl butanoate	Excess molar enthalpy (molar enthalpy of mixing), kJ/mol	uncertainty
0.0516	-0.021	0.0019
0.1108	-0.0531	0.0024
0.172	-0.087	0.0029
0.2328	-0.1242	0.0035
0.2891	-0.166	0.0041
0.3455	-0.1953	0.0046
0.3976	-0.2216	0.005
0.4477	-0.2419	0.0053
0.4757	-0.2501	0.0054
0.5265	-0.2578	0.0055
0.5821	-0.2569	0.0055
0.6443	-0.2499	0.0054
0.7111	-0.2318	0.0051
0.7821	-0.1959	0.0046
0.8567	-0.1434	0.0038
0.9323	-0.0789	0.0028

System: ethyl butanoate + 1,4-dichlorobutane; phases: Liquid
Fixed: Pressure, kPa = 101.325
Fixed: Temperature, K = 298.15
Property: Mass density, kg/m3 (Liquid); method: VIBTUB:UFactor:6
Mole fraction of ethyl butanoate	Mass density, kg/m3	uncertainty
0.0516	1117.97	0.75
0.1009	1103.15	0.75
0.1531	1087.78	0.75
0.2042	1072.99	0.75
0.2583	1057.63	0.75
0.3128	1042.49	0.75
0.3701	1026.87	0.76
0.4267	1011.74	0.76
0.5437	981.4	0.8
0.6058	965.8	0.83
0.6681	950.44	0.86
0.7293	935.66	0.89
0.8601	905.05	0.95
0.9259	890.1	0.98

System: ethyl butanoate + 1,3-dichloropropane; phases: Liquid
Fixed: Pressure, kPa = 101.325
Fixed: Temperature, K = 298.15
Property: Excess molar enthalpy (molar enthalpy of mixing), kJ/mol (Liquid); method: CALVET:UFactor:2
Mole fraction of ethyl butanoate	Excess molar enthalpy (molar enthalpy of mixing), kJ/mol	uncertainty
0.045	-0.0259	0.002
0.0966	-0.0636	0.0026
0.1504	-0.0979	0.0031
0.2076	-0.1472	0.0038
0.2635	-0.1891	0.0045
0.3171	-0.2359	0.0052
0.3678	-0.2817	0.0059
0.4155	-0.3109	0.0064
0.4596	-0.3266	0.0066
0.5012	-0.3345	0.0067
0.5417	-0.3335	0.0067
0.605	-0.3257	0.0066
0.6754	-0.2969	0.0062
0.7523	-0.2439	0.0053
0.8348	-0.1789	0.0043
0.9216	-0.0999	0.0031

System: ethyl butanoate + 1,3-dichloropropane; phases: Liquid
Fixed: Pressure, kPa = 101.325
Fixed: Temperature, K = 298.15
Property: Mass density, kg/m3 (Liquid); method: VIBTUB:UFactor:6
Mole fraction of ethyl butanoate	Mass density, kg/m3	uncertainty
0.0446	1159.59	0.83
0.088	1141.99	0.82
0.1341	1124.03	0.8
0.1825	1105.75	0.79
0.2294	1088.7	0.79
0.2836	1069.63	0.78
0.3377	1051.42	0.78
0.3924	1033.68	0.78
0.4475	1016.45	0.78
0.5058	998.9	0.79
0.5686	980.73	0.82
0.6322	963.09	0.84
0.6986	945.45	0.88
0.7724	926.66	0.91
0.8405	910.03	0.94

System: ethyl butanoate + 1,5-dichloropentane; phases: Liquid
Fixed: Pressure, kPa = 101.325
Fixed: Temperature, K = 298.15
Property: Excess molar enthalpy (molar enthalpy of mixing), kJ/mol (Liquid); method: CALVET:UFactor:2
Mole fraction of ethyl butanoate	Excess molar enthalpy (molar enthalpy of mixing), kJ/mol	uncertainty
0.0571	-0.0082	0.0017
0.1213	-0.0269	0.002
0.1884	-0.0501	0.0023
0.2532	-0.0738	0.0027
0.3155	-0.0983	0.0031
0.3746	-0.1243	0.0035
0.4289	-0.151	0.0039
0.478	-0.1739	0.0042
0.5235	-0.1848	0.0044
0.5576	-0.1909	0.0045
0.5639	-0.1921	0.0045
0.6129	-0.1928	0.0045
0.6726	-0.1879	0.0045
0.736	-0.168	0.0042
0.8047	-0.1376	0.0037
0.8728	-0.0986	0.0031
0.9406	-0.0475	0.0023

System: ethyl butanoate + 1,5-dichloropentane; phases: Liquid
Fixed: Pressure, kPa = 101.325
Fixed: Temperature, K = 298.15
Property: Mass density, kg/m3 (Liquid); method: VIBTUB:UFactor:6
Mole fraction of ethyl butanoate	Mass density, kg/m3	uncertainty
0.0569	1082.35	0.69
0.1136	1069.48	0.7
0.171	1056.53	0.7
0.2286	1043.61	0.71
0.2917	1029.5	0.72
0.3489	1016.71	0.73
0.4084	1003.45	0.74
0.4653	990.76	0.77
0.5243	977.72	0.79
0.5825	964.82	0.82
0.6411	951.9	0.85
0.7595	925.89	0.9
0.8188	912.92	0.93
0.8799	899.6	0.96
0.9403	886.46	0.99

System: ethyl butanoate + 1,6-dichlorohexane; phases: Liquid
Fixed: Pressure, kPa = 101.325
Fixed: Temperature, K = 298.15
Property: Excess molar enthalpy (molar enthalpy of mixing), kJ/mol (Liquid); method: CALVET:UFactor:2
Mole fraction of ethyl butanoate	Excess molar enthalpy (molar enthalpy of mixing), kJ/mol	uncertainty
0.051	-0.0033	0.0016
0.1085	-0.0092	0.0017
0.1746	-0.0236	0.0019
0.2423	-0.0421	0.0022
0.3076	-0.0662	0.0026
0.3688	-0.0846	0.0029
0.4325	-0.1062	0.0032
0.4782	-0.1186	0.0034
0.525	-0.1345	0.0036
0.5779	-0.1425	0.0038
0.6383	-0.1447	0.0038
0.7034	-0.1311	0.0036
0.7744	-0.1064	0.0032
0.8524	-0.0747	0.0027
0.9323	-0.0397	0.0022

System: ethyl butanoate + 1,6-dichlorohexane; phases: Liquid
Fixed: Pressure, kPa = 101.325
Fixed: Temperature, K = 298.15
Property: Mass density, kg/m3 (Liquid); method: VIBTUB:UFactor:6
Mole fraction of ethyl butanoate	Mass density, kg/m3	uncertainty
0.0651	1052.45	1.12
0.1277	1041.56	1.1
0.1889	1030.69	1.08
0.2509	1019.59	1.07
0.3119	1008.53	1.05
0.3711	997.66	1.04
0.4384	985.13	1.03
0.4971	974.07	1.02
0.5548	963.05	1.02
0.6131	951.77	1.02
0.67	940.63	1.01
0.7263	929.48	1.01
0.7824	918.28	1.01
0.8369	907.25	1.01
0.8922	895.96	1.01
0.9457	884.85	1.01

System: 1,2-dichloroethane + ethyl pentanoate; phases: Liquid
Fixed: Pressure, kPa = 101.325
Fixed: Temperature, K = 298.15
Property: Excess molar enthalpy (molar enthalpy of mixing), kJ/mol (Liquid); method: CALVET:UFactor:2
Mole fraction of 1,2-dichloroethane	Excess molar enthalpy (molar enthalpy of mixing), kJ/mol	uncertainty
0.0371	-0.0298	0.002
0.098	-0.0613	0.0025
0.126	-0.1024	0.0032
0.1732	-0.1518	0.0039
0.2196	-0.1987	0.0047
0.2666	-0.2569	0.0056
0.3122	-0.3113	0.0064
0.3542	-0.3511	0.007
0.4265	-0.3864	0.0075
0.4641	-0.3956	0.0077
0.5103	-0.3992	0.0077
0.5638	-0.4012	0.0078
0.626	-0.3833	0.0075
0.7011	-0.3419	0.0069
0.7962	-0.2584	0.0056
0.896	-0.1519	0.0039

System: 1,2-dichloroethane + ethyl pentanoate; phases: Liquid
Fixed: Pressure, kPa = 101.325
Fixed: Temperature, K = 298.15
Property: Mass density, kg/m3 (Liquid); method: VIBTUB:UFactor:6
Mole fraction of ethyl pentanoate	Mass density, kg/m3	uncertainty
0.0345	1220.93	0.78
0.0687	1198.23	0.73
0.1042	1176.06	0.69
0.1425	1153.66	0.64
0.1817	1132.12	0.6
0.2273	1108.84	0.56
0.2723	1087.35	0.53
0.324	1064.47	0.49
0.3767	1042.83	0.46
0.4332	1021.3	0.44
0.4956	999.37	0.42
0.5633	977.31	0.45
0.6342	956.13	0.49
0.7134	934.52	0.53
0.7992	912.89	0.57
0.894	893.96	0.61

System: 1,3-dichloropropane + ethyl pentanoate; phases: Liquid
Fixed: Pressure, kPa = 101.325
Fixed: Temperature, K = 298.15
Property: Excess molar enthalpy (molar enthalpy of mixing), kJ/mol (Liquid); method: CALVET:UFactor:2
Mole fraction of 1,3-dichloropropane	Excess molar enthalpy (molar enthalpy of mixing), kJ/mol	uncertainty
0.0493	-0.0311	0.002
0.0986	-0.0616	0.0025
0.1536	-0.0997	0.0031
0.2082	-0.1392	0.0037
0.261	-0.1784	0.0043
0.3126	-0.2176	0.0049
0.3627	-0.2551	0.0055
0.4084	-0.2763	0.0058
0.4405	-0.2915	0.0061
0.4492	-0.2958	0.0061
0.5044	-0.3034	0.0063
0.5692	-0.3032	0.0062
0.6438	-0.2875	0.006
0.7284	-0.248	0.0054
0.8181	-0.1835	0.0044
0.9124	-0.1029	0.0032

System: 1,3-dichloropropane + ethyl pentanoate; phases: Liquid
Fixed: Pressure, kPa = 101.325
Fixed: Temperature, K = 298.15
Property: Mass density, kg/m3 (Liquid); method: VIBTUB:UFactor:6
Mole fraction of ethyl pentanoate	Mass density, kg/m3	uncertainty
0.0395	1159.55	0.81
0.0785	1141.75	0.78
0.1207	1123.43	0.74
0.1642	1105.29	0.71
0.2098	1087.19	0.68
0.2576	1069.12	0.64
0.3081	1050.97	0.61
0.3623	1032.41	0.59
0.4179	1014.41	0.56
0.4804	995.25	0.54
0.538	978.58	0.55
0.6036	960.5	0.56
0.744	925.06	0.59
0.8249	906.38	0.61
0.9085	888.3	0.63

System: 1,4-dichlorobutane + ethyl pentanoate; phases: Liquid
Fixed: Pressure, kPa = 101.325
Fixed: Temperature, K = 298.15
Property: Excess molar enthalpy (molar enthalpy of mixing), kJ/mol (Liquid); method: CALVET:UFactor:2
Mole fraction of 1,4-dichlorobutane	Excess molar enthalpy (molar enthalpy of mixing), kJ/mol	uncertainty
0.0443	-0.0154	0.0018
0.0938	-0.0412	0.0022
0.1472	-0.0653	0.0026
0.2021	-0.0957	0.003
0.2576	-0.1328	0.0036
0.3103	-0.1673	0.0042
0.3615	-0.2059	0.0047
0.4093	-0.2313	0.0051
0.4542	-0.254	0.0055
0.4637	-0.2596	0.0056
0.5038	-0.2688	0.0057
0.5509	-0.2731	0.0058
0.6143	-0.2673	0.0057
0.6866	-0.2475	0.0054
0.7631	-0.211	0.0048
0.8429	-0.1558	0.004
0.9262	-0.0846	0.0029

System: 1,4-dichlorobutane + ethyl pentanoate; phases: Liquid
Fixed: Pressure, kPa = 101.325
Fixed: Temperature, K = 298.15
Property: Mass density, kg/m3 (Liquid); method: VIBTUB:UFactor:6
Mole fraction of ethyl pentanoate	Mass density, kg/m3	uncertainty
0.0426	1118.97	0.73
0.0881	1103.57	0.7
0.1345	1088.34	0.68
0.1844	1072.46	0.65
0.2407	1055.13	0.62
0.2932	1039.54	0.6
0.3462	1024.28	0.57
0.4021	1008.72	0.55
0.4541	994.67	0.54
0.5187	977.83	0.55
0.5829	961.7	0.56
0.6452	946.59	0.57
0.7045	932.66	0.58
0.7796	915.67	0.6
0.8521	899.89	0.62
0.925	884.57	0.64

System: ethyl pentanoate + 1,5-dichloropentane; phases: Liquid
Fixed: Pressure, kPa = 101.325
Fixed: Temperature, K = 298.15
Property: Excess molar enthalpy (molar enthalpy of mixing), kJ/mol (Liquid); method: CALVET:UFactor:2
Mole fraction of ethyl pentanoate	Excess molar enthalpy (molar enthalpy of mixing), kJ/mol	uncertainty
0.0481	-0.0102	0.0017
0.1066	-0.0319	0.0021
0.1663	-0.0537	0.0024
0.228	-0.0861	0.0029
0.2876	-0.1169	0.0034
0.3438	-0.1494	0.0039
0.3973	-0.1815	0.0044
0.416	-0.1945	0.0046
0.4433	-0.2062	0.0047
0.4786	-0.2143	0.0049
0.5288	-0.2182	0.0049
0.5848	-0.2165	0.0049
0.6478	-0.2094	0.0048
0.7165	-0.1812	0.0044
0.7867	-0.1529	0.0039
0.8597	-0.1106	0.0033
0.9325	-0.0573	0.0025

System: ethyl pentanoate + 1,5-dichloropentane; phases: Liquid
Fixed: Pressure, kPa = 101.325
Fixed: Temperature, K = 298.15
Property: Mass density, kg/m3 (Liquid); method: VIBTUB:UFactor:6
Mole fraction of ethyl pentanoate	Mass density, kg/m3	uncertainty
0.1036	1068.61	0.64
0.1561	1055.46	0.62
0.2082	1042.59	0.6
0.2623	1029.48	0.58
0.3179	1016.24	0.56
0.3785	1002.01	0.54
0.4369	988.54	0.54
0.4943	975.55	0.55
0.5534	962.34	0.56
0.6141	949.06	0.57
0.6755	935.8	0.58
0.7367	922.8	0.59
0.8008	909.43	0.61
0.8658	896.13	0.62
0.9318	882.79	0.64

System: ethyl pentanoate + 1,6-dichlorohexane; phases: Liquid
Fixed: Pressure, kPa = 101.325
Fixed: Temperature, K = 298.15
Property: Excess molar enthalpy (molar enthalpy of mixing), kJ/mol (Liquid); method: CALVET:UFactor:2
Mole fraction of ethyl pentanoate	Excess molar enthalpy (molar enthalpy of mixing), kJ/mol	uncertainty
0.0607	-0.0181	0.0018
0.127	-0.0375	0.0021
0.1968	-0.061	0.0025
0.264	-0.0857	0.0029
0.3289	-0.1109	0.0033
0.389	-0.1385	0.0037
0.4445	-0.1662	0.0041
0.4953	-0.1835	0.0044
0.5409	-0.1875	0.0045
0.5672	-0.1884	0.0045
0.5813	-0.1877	0.0045
0.6117	-0.1813	0.0044
0.6723	-0.1653	0.0041
0.7364	-0.1429	0.0038
0.8027	-0.1162	0.0034
0.8717	-0.0828	0.0028
0.9373	-0.0449	0.0023

System: ethyl pentanoate + 1,6-dichlorohexane; phases: Liquid
Fixed: Pressure, kPa = 101.325
Fixed: Temperature, K = 298.15
Property: Mass density, kg/m3 (Liquid); method: VIBTUB:UFactor:6
Mole fraction of ethyl pentanoate	Mass density, kg/m3	uncertainty
0.0538	1053.1	1.09
0.1126	1041.51	1.04
0.1693	1030.36	1
0.2307	1018.34	0.95
0.287	1007.32	0.9
0.3464	995.69	0.86
0.5231	961.26	0.77
0.5825	949.74	0.75
0.701	926.81	0.71
0.7586	915.69	0.69
0.8777	892.8	0.67
0.94	880.88	0.66

System: 1,2-dichloroethane + ethyl methanoate; phases: Liquid
Fixed: Pressure, kPa = 101.325
Fixed: Temperature, K = 298.15
Property: Mass density, kg/m3 (Liquid); method: VIBTUB:UFactor:6
Mole fraction of ethyl methanoate	Mass density, kg/m3	uncertainty
0.0604	1224.56	0.82
0.1183	1204.73	0.82
0.175	1185.45	0.84
0.2911	1146.17	0.89
0.3483	1126.98	0.92
0.4068	1107.45	0.96
0.4649	1088.21	1
0.5246	1068.52	1.05
0.5831	1049.26	1.09
0.6432	1029.61	1.14
0.7012	1010.71	1.18
0.758	992.23	1.24
0.817	973.15	1.29
0.8778	953.5	1.35
0.9362	934.65	1.41

System: ethyl methanoate + 1,3-dichloropropane; phases: Liquid
Fixed: Pressure, kPa = 101.325
Fixed: Temperature, K = 298.15
Property: Mass density, kg/m3 (Liquid); method: VIBTUB:UFactor:6
Mole fraction of ethyl methanoate	Mass density, kg/m3	uncertainty
0.076	1161.06	0.88
0.1432	1145.36	0.91
0.2073	1130.02	0.95
0.2696	1114.94	0.98
0.3338	1099.05	1.02
0.394	1083.9	1.06
0.4558	1068.05	1.1
0.5152	1052.57	1.13
0.5731	1037.18	1.17
0.6297	1021.91	1.21
0.6862	1006.34	1.24
0.7413	990.94	1.28
0.794	975.98	1.32
0.8475	960.54	1.36
0.8994	945.31	1.4
0.9494	930.3	1.43

System: ethyl methanoate + 1,4-dichlorobutane; phases: Liquid
Fixed: Pressure, kPa = 101.325
Fixed: Temperature, K = 298.15
Property: Mass density, kg/m3 (Liquid); method: VIBTUB:UFactor:6
Mole fraction of ethyl methanoate	Mass density, kg/m3	uncertainty
0.0818	1119.67	0.81
0.1583	1106.59	0.86
0.2305	1093.6	0.91
0.2967	1081.3	0.95
0.3635	1068.33	1
0.4271	1055.54	1.05
0.491	1042.19	1.09
0.6081	1016.39	1.17
0.6615	1003.97	1.21
0.7146	991.26	1.25
0.7671	978.22	1.29
0.816	965.61	1.33
0.8633	952.97	1.37
0.91	940.24	1.4
0.9551	927.47	1.44

System: ethyl methanoate + 1,5-dichloropentane; phases: Liquid
Fixed: Pressure, kPa = 101.325
Fixed: Temperature, K = 298.15
Property: Mass density, kg/m3 (Liquid); method: VIBTUB:UFactor:6
Mole fraction of ethyl methanoate	Mass density, kg/m3	uncertainty
0.0925	1084.33	0.76
0.173	1074.06	0.82
0.2529	1063.2	0.88
0.3276	1052.35	0.94
0.3957	1041.79	0.99
0.4618	1031.02	1.04
0.5249	1020.19	1.09
0.5835	1009.55	1.14
0.6395	998.87	1.18
0.6917	988.42	1.23
0.7415	977.92	1.27
0.7896	967.31	1.31
0.836	956.62	1.34
0.8791	946.24	1.38
0.9211	935.6	1.41
0.9595	925.4	1.44

System: ethyl methanoate + 1,6-dichlorohexane; phases: Liquid
Fixed: Pressure, kPa = 101.325
Fixed: Temperature, K = 298.15
Property: Mass density, kg/m3 (Liquid); method: VIBTUB:UFactor:6
Mole fraction of ethyl methanoate	Mass density, kg/m3	uncertainty
0.1021	1054.55	1.18
0.1921	1045.86	1.21
0.2781	1036.7	1.24
0.357	1027.68	1.27
0.4266	1019.06	1.29
0.4923	1010.37	1.31
0.5555	1001.35	1.33
0.6677	983.71	1.37
0.7169	975.18	1.38
0.7649	966.4	1.4
0.8091	957.78	1.41
0.8515	949.08	1.43
0.8915	940.41	1.44
0.929	931.82	1.45
0.9647	923.23	1.46

System: ethyl acetate + 1,3-dichloropropane; phases: Liquid
Fixed: Pressure, kPa = 101.325
Fixed: Temperature, K = 298.15
Property: Mass density, kg/m3 (Liquid); method: VIBTUB:UFactor:6
Mole fraction of ethyl acetate	Mass density, kg/m3	uncertainty
0.0582	1160.94	0.8
0.1136	1144.62	0.76
0.1719	1127.58	0.71
0.2292	1110.81	0.67
0.2869	1094.08	0.62
0.3444	1077.42	0.58
0.4017	1061.01	0.54
0.4609	1044.12	0.5
0.5208	1027.15	0.46
0.5839	1009.34	0.42
0.6423	992.92	0.4
0.7017	976.39	0.4
0.7599	960.24	0.41
0.8205	943.48	0.43
0.8803	927.01	0.44
0.9389	911.03	0.46

System: ethyl acetate + 1,5-dichloropentane; phases: Liquid
Fixed: Pressure, kPa = 101.325
Fixed: Temperature, K = 298.15
Property: Mass density, kg/m3 (Liquid); method: VIBTUB:UFactor:6
Mole fraction of ethyl acetate	Mass density, kg/m3	uncertainty
0.078	1082.84	0.65
0.1498	1071.08	0.61
0.2187	1059.41	0.58
0.2869	1047.48	0.54
0.3508	1035.92	0.51
0.4146	1024.01	0.48
0.5355	1000.44	0.41
0.5943	988.46	0.41
0.6527	976.18	0.41
0.7039	965.12	0.41
0.7557	953.57	0.42
0.8066	941.94	0.43
0.8572	930.03	0.44
0.9059	918.17	0.46
0.9527	906.46	0.47

System: ethyl propanoate + 1,2-dichloroethane; phases: Liquid
Fixed: Pressure, kPa = 101.325
Fixed: Temperature, K = 298.15
Property: Mass density, kg/m3 (Liquid); method: VIBTUB:UFactor:6
Mole fraction of ethyl propanoate	Mass density, kg/m3	uncertainty
0.0458	1221.49	0.78
0.0867	1201.01	0.74
0.131	1179.33	0.7
0.1761	1158.4	0.66
0.225	1136.63	0.62
0.2733	1116.14	0.58
0.3272	1094.1	0.55
0.3811	1073.16	0.52
0.4371	1052.35	0.49
0.4963	1031.27	0.47
0.5583	1010.27	0.45
0.6235	989.23	0.46
0.69	968.72	0.49
0.7598	948.13	0.52
0.835	927.04	0.56
0.9131	906.11	0.6

System: ethyl propanoate + 1,3-dichloropropane; phases: Liquid
Fixed: Pressure, kPa = 101.325
Fixed: Temperature, K = 298.15
Property: Mass density, kg/m3 (Liquid); method: VIBTUB:UFactor:6
Mole fraction of ethyl propanoate	Mass density, kg/m3	uncertainty
0.0533	1159.49	0.81
0.1039	1141.98	0.78
0.1552	1124.63	0.74
0.2595	1090.43	0.68
0.3141	1073.08	0.65
0.3691	1056.04	0.62
0.4264	1038.67	0.59
0.4849	1021.36	0.57
0.6033	987.47	0.54
0.666	970.14	0.55
0.7288	953.17	0.57
0.7937	935.99	0.58
0.861	918.65	0.6
0.9271	901.62	0.62

System: ethyl propanoate + 1,4-dichlorobutane; phases: Liquid
Fixed: Pressure, kPa = 101.325
Fixed: Temperature, K = 298.15
Property: Mass density, kg/m3 (Liquid); method: VIBTUB:UFactor:6
Mole fraction of ethyl propanoate	Mass density, kg/m3	uncertainty
0.0587	1117.82	0.73
0.1153	1103.37	0.7
0.1718	1088.99	0.68
0.2299	1074.24	0.65
0.2859	1060.13	0.63
0.3447	1045.32	0.6
0.403	1030.76	0.58
0.4615	1016.16	0.56
0.5233	1000.86	0.54
0.5825	986.22	0.54
0.6382	972.47	0.55
0.698	957.78	0.56
0.8187	928.2	0.59
0.8774	913.87	0.6
0.9378	899.14	0.62

System: ethyl propanoate + 1,5-dichloropentane; phases: Liquid
Fixed: Pressure, kPa = 101.325
Fixed: Temperature, K = 298.15
Property: Mass density, kg/m3 (Liquid); method: VIBTUB:UFactor:6
Mole fraction of ethyl propanoate	Mass density, kg/m3	uncertainty
0.0734	1081.12	0.66
0.129	1070.38	0.65
0.1956	1057.38	0.62
0.2575	1045.16	0.6
0.3202	1032.63	0.58
0.4361	1008.96	0.55
0.5001	995.63	0.54
0.5582	983.34	0.55
0.6155	971.03	0.55
0.6735	958.42	0.56
0.7283	946.34	0.57
0.785	933.66	0.58
0.8394	921.33	0.6
0.8926	909.15	0.61
0.9451	896.94	0.62

System: ethyl propanoate + 1,6-dichlorohexane; phases: Liquid
Fixed: Pressure, kPa = 101.325
Fixed: Temperature, K = 298.15
Property: Mass density, kg/m3 (Liquid); method: VIBTUB:UFactor:6
Mole fraction of ethyl propanoate	Mass density, kg/m3	uncertainty
0.0733	1053.16	1.08
0.144	1042.66	1.03
0.2117	1032.32	0.98
0.2775	1021.98	0.93
0.3418	1011.56	0.88
0.4104	1000.12	0.83
0.5264	979	0.77
0.5884	968.62	0.74
0.7491	937.72	0.68
0.8052	926.3	0.67
0.8547	915.96	0.66
0.905	905.21	0.65
0.9513	894.99	0.64
