Measured thermophysical data. Vapour-liquid equilibrium and extractive distillation for separation of azeotrope isopropyl alcohol and diisopropyl ether
Source: J. Chem. Thermodyn., 2019, 10.1016/j.jct.2018.11.013
Compound 1: 2-ethoxyethan-1-ol, C4H10O2, InChI=1S/C4H10O2/c1-2-6-4-3-5/h5H,2-4H2,1H3, purity 99.5%
Compound 2: butyl ethanoate, C6H12O2, InChI=1S/C6H12O2/c1-3-4-5-8-6(2)7/h3-5H2,1-2H3, purity 99%
Compound 3: propan-2-ol, C3H8O, InChI=1S/C3H8O/c1-3(2)4/h3-4H,1-2H3, purity 99.7%
Compound 4: diisopropyl ether, C6H14O, InChI=1S/C6H14O/c1-5(2)7-6(3)4/h5-6H,1-4H3, purity 99%

System: 2-ethoxyethan-1-ol; phases: Liquid, Gas
Property: Boiling temperature at pressure P, K (Liquid); method: Ebulliometric method (Recirculating still)
Pressure, kPa	Boiling temperature at pressure P, K	uncertainty
101.3	408.19	0.71

System: butyl ethanoate; phases: Liquid, Gas
Property: Boiling temperature at pressure P, K (Liquid); method: Ebulliometric method (Recirculating still)
Pressure, kPa	Boiling temperature at pressure P, K	uncertainty
101.3	399.26	0.71

System: propan-2-ol; phases: Liquid, Gas
Property: Boiling temperature at pressure P, K (Liquid); method: Ebulliometric method (Recirculating still)
Pressure, kPa	Boiling temperature at pressure P, K	uncertainty
101.3	355.27	0.71

System: diisopropyl ether; phases: Liquid, Gas
Property: Boiling temperature at pressure P, K (Liquid); method: Ebulliometric method (Recirculating still)
Pressure, kPa	Boiling temperature at pressure P, K	uncertainty
101.3	341.77	0.71

System: propan-2-ol + 2-ethoxyethan-1-ol; phases: Liquid, Gas
Fixed: Pressure, kPa = 101.3
Property: Boiling temperature at pressure P, K (Liquid); method: Ebulliometric method (Recirculating still)
Mole fraction of propan-2-ol	Boiling temperature at pressure P, K	uncertainty
0.9122	357.1	0.79
0.7798	360.38	0.82
0.6189	365.1	0.85
0.4976	369.2	0.9
0.3789	373.9	0.96
0.3009	377.95	1.09
0.2445	381.46	1.18
0.1787	385.77	1.26
0.1218	390.22	1.46
0.0894	393.67	1.74
0.0553	397.45	2.27
0.0189	404.06	2.9
0	408.19	0.72
1	355.27	0.72

System: propan-2-ol + 2-ethoxyethan-1-ol; phases: Gas, Liquid
Fixed: Pressure, kPa = 101.3
Property: Mole fraction of propan-2-ol (Gas); method: Chromatography
Mole fraction of propan-2-ol	Mole fraction of propan-2-ol	uncertainty
0.9122	0.9843	0.0157
0.7798	0.9562	0.016
0.6189	0.9101	0.0163
0.4976	0.8626	0.017
0.3789	0.7992	0.0182
0.3009	0.7384	0.0204
0.2445	0.6798	0.0229
0.1787	0.6007	0.0262
0.1218	0.5053	0.0325
0.0894	0.4254	0.0424
0.0553	0.3266	0.0611
0.0189	0.1415	0.0759

System: propan-2-ol + butyl ethanoate; phases: Liquid, Gas
Fixed: Pressure, kPa = 101.3
Property: Boiling temperature at pressure P, K (Liquid); method: Ebulliometric method (Recirculating still)
Mole fraction of propan-2-ol	Boiling temperature at pressure P, K	uncertainty
0.9102	356.67	0.77
0.7426	359.9	0.78
0.6093	362.92	0.8
0.46	366.67	0.83
0.3704	369.95	0.93
0.2893	373.58	0.99
0.2151	377.27	1.06
0.1834	379.26	1.28
0.1293	383.45	1.38
0.1004	385.99	1.5
0.0795	387.96	1.88
0.0381	393.3	2.03
0.0204	395.67	2.4
0	399.26	0.72
1	355.27	0.72

System: propan-2-ol + butyl ethanoate; phases: Gas, Liquid
Fixed: Pressure, kPa = 101.3
Property: Mole fraction of propan-2-ol (Gas); method: Chromatography
Mole fraction of propan-2-ol	Mole fraction of propan-2-ol	uncertainty
0.9102	0.9738	0.0164
0.7426	0.9167	0.0166
0.6093	0.8602	0.0168
0.46	0.7987	0.0173
0.3704	0.7417	0.0192
0.2893	0.6711	0.0213
0.2151	0.5908	0.0233
0.1834	0.5472	0.0295
0.1293	0.4478	0.0326
0.1004	0.3851	0.0375
0.0795	0.3316	0.0494
0.0381	0.188	0.0553
0.0204	0.1151	0.0621

System: diisopropyl ether + 2-ethoxyethan-1-ol; phases: Liquid, Gas
Fixed: Pressure, kPa = 101.3
Property: Boiling temperature at pressure P, K (Liquid); method: Ebulliometric method (Recirculating still)
Mole fraction of diisopropyl ether	Boiling temperature at pressure P, K	uncertainty
0.8648	345.23	0.81
0.6907	349.59	0.83
0.5435	354.5	0.9
0.4333	359.25	1.04
0.2788	368	1.15
0.1945	374.22	1.45
0.1324	380.8	1.92
0.0917	386.92	2.39
0.0675	390.96	2.74
0.0536	393.4	2.74
0.0417	395.98	3.26
0.0348	397.35	3.92
0.0237	400.57	4.36
0.0092	405.02	2.85
0	408.19	0.72
1	341.77	0.72

System: diisopropyl ether + 2-ethoxyethan-1-ol; phases: Gas, Liquid
Fixed: Pressure, kPa = 101.3
Property: Mole fraction of diisopropyl ether (Gas); method: Chromatography
Mole fraction of diisopropyl ether	Mole fraction of diisopropyl ether	uncertainty
0.8648	0.9771	0.0166
0.6907	0.9469	0.0167
0.5435	0.9107	0.017
0.4333	0.8741	0.0176
0.2788	0.7988	0.0187
0.1945	0.7305	0.0224
0.1324	0.6479	0.0309
0.0917	0.544	0.0444
0.0675	0.4636	0.0592
0.0536	0.4099	0.0599
0.0417	0.3502	0.0776
0.0348	0.3161	0.1021
0.0237	0.2338	0.0958
0.0092	0.107	0.0769

System: diisopropyl ether + butyl ethanoate; phases: Liquid, Gas
Fixed: Pressure, kPa = 101.3
Property: Boiling temperature at pressure P, K (Liquid); method: Ebulliometric method (Recirculating still)
Mole fraction of diisopropyl ether	Boiling temperature at pressure P, K	uncertainty
0.8534	345.68	0.84
0.7013	350.65	0.88
0.572	355.57	0.93
0.4794	359.7	0.98
0.4207	362.66	1.03
0.3721	365.2	1.09
0.3095	368.95	1.09
0.2269	373.42	1.15
0.1596	378.41	1.42
0.1164	382.89	1.62
0.0817	386.27	1.62
0.0435	390.25	2.05
0.0182	394.88	3.05
0	399.26	0.72
1	341.77	0.72

System: diisopropyl ether + butyl ethanoate; phases: Gas, Liquid
Fixed: Pressure, kPa = 101.3
Property: Mole fraction of diisopropyl ether (Gas); method: Chromatography
Mole fraction of diisopropyl ether	Mole fraction of diisopropyl ether	uncertainty
0.8534	0.9717	0.0161
0.7013	0.9315	0.0163
0.572	0.883	0.0169
0.4794	0.8351	0.0177
0.4207	0.7984	0.0182
0.3721	0.7682	0.0192
0.3095	0.7159	0.0205
0.2269	0.6395	0.023
0.1596	0.5456	0.0284
0.1164	0.4601	0.0353
0.0817	0.3757	0.0417
0.0435	0.2654	0.0561
0.0182	0.1338	0.0765

System: diisopropyl ether + propan-2-ol; phases: Liquid, Gas
Fixed: Pressure, kPa = 101.3
Property: Boiling temperature at pressure P, K (Liquid); method: Ebulliometric method (Recirculating still)
Mole fraction of diisopropyl ether	Boiling temperature at pressure P, K	uncertainty
0.0297	352.73	1.14
0.0705	350.18	0.96
0.1059	348.84	0.89
0.1675	346.11	0.79
0.2901	343.73	0.76
0.3753	342.2	0.75
0.4255	341.21	0.73
0.521	340.79	0.72
0.7282	339.31	0.72
0.785	339.28	0.72
0.8523	339.45	0.72
0.8996	339.77	0.73
0.9498	340.53	0.76
0	355.27	0.72
1	341.77	0.72

System: diisopropyl ether + propan-2-ol; phases: Gas, Liquid
Fixed: Pressure, kPa = 101.3
Property: Mole fraction of diisopropyl ether (Gas); method: Chromatography
Mole fraction of diisopropyl ether	Mole fraction of diisopropyl ether	uncertainty
0.0297	0.1085	0.0378
0.0705	0.2261	0.0313
0.1059	0.2837	0.0254
0.1675	0.3973	0.0202
0.2901	0.5221	0.0171
0.3753	0.5765	0.0152
0.4255	0.6056	0.0147
0.521	0.656	0.0143
0.7282	0.755	0.0141
0.785	0.7843	0.0149
0.8523	0.8319	0.0159
0.8996	0.8741	0.0178
0.9498	0.9307	0.0187
