Measured thermophysical data. Solubility of H2S and CO2 in imidazolium-based ionic liquids with bis(2-ethylhexyl) sulfosuccinate anion
Source: J. Chem. Thermodyn., 2019, 10.1016/j.jct.2018.10.013
Compound 1: 1-methyl-1H-imidazolium 1,4-bis((2-ethylhexyl)oxy)-1,4-dioxobutane-2-sulfonate, C24H44N2O7S, InChI=1S/C20H38O7S.C4H6N2/c1-5-9-11-16(7-3)14-26-19(21)13-18(28(23,24)25)20(22)27-15-17(8-4)12-10-6-2;1-6-3-2-5-4-6/h16-18H,5-15H2,1-4H3,(H,23,24,25);2-4H,1H3
Compound 2: 1-butyl-3-methyl-1H-imidazolium 1,4-bis((2-ethylhexyl)oxy)-1,4-dioxobutane-2-sulfonate, C28H52N2O7S, InChI=1S/C20H38O7S.C8H15N2/c1-5-9-11-16(7-3)14-26-19(21)13-18(28(23,24)25)20(22)27-15-17(8-4)12-10-6-2;1-3-4-5-10-7-6-9(2)8-10/h16-18H,5-15H2,1-4H3,(H,23,24,25);6-8H,3-5H2,1-2H3/q;+1/p-1
Compound 3: carbon dioxide, CO2, InChI=1S/CO2/c2-1-3, purity 99.95%
Compound 4: hydrogen sulfide, H2S, InChI=1S/H2S/h1H2, purity 99.99999%
Compound 5: water, H2O, InChI=1S/H2O/h1H2, purity 99.8%

System: 1-methyl-1H-imidazolium 1,4-bis((2-ethylhexyl)oxy)-1,4-dioxobutane-2-sulfonate + water; phases: Liquid
Fixed: Pressure, kPa = 99.6
Fixed: Mass fraction of water = 0.003722
Property: Mass density, kg/m3 (Liquid); method: Vibrating tube method
Temperature, K	Mass density, kg/m3	uncertainty
293.15	1087	10
303.15	1080	10
313.15	1073	10
323.15	1066	10
333.15	1058	10

System: 1-methyl-1H-imidazolium 1,4-bis((2-ethylhexyl)oxy)-1,4-dioxobutane-2-sulfonate + water; phases: Liquid
Fixed: Pressure, kPa = 99.6
Fixed: Mass fraction of water = 0.003722
Property: Viscosity, Pa*s (Liquid); method: Concentric cylinders viscometry
Temperature, K	Viscosity, Pa*s	uncertainty
293.15	3.381	0.21
303.15	1.44	0.076
313.15	0.684	0.031
323.15	0.359	0.014
333.15	0.205	0.008

System: 1-butyl-3-methyl-1H-imidazolium 1,4-bis((2-ethylhexyl)oxy)-1,4-dioxobutane-2-sulfonate + water; phases: Liquid
Fixed: Pressure, kPa = 99.6
Fixed: Mass fraction of water = 0.004835
Property: Mass density, kg/m3 (Liquid); method: Vibrating tube method
Temperature, K	Mass density, kg/m3	uncertainty
293.15	1088	10
303.15	1080	10
313.15	1073	10
323.15	1066	10
333.15	1058	10

System: 1-butyl-3-methyl-1H-imidazolium 1,4-bis((2-ethylhexyl)oxy)-1,4-dioxobutane-2-sulfonate + water; phases: Liquid
Fixed: Pressure, kPa = 99.6
Fixed: Mass fraction of water = 0.004835
Property: Viscosity, Pa*s (Liquid); method: Concentric cylinders viscometry
Temperature, K	Viscosity, Pa*s	uncertainty
293.15	3.442	0.214
303.15	1.454	0.077
313.15	0.692	0.032
323.15	0.363	0.015
333.15	0.207	0.008

System: carbon dioxide + 1-methyl-1H-imidazolium 1,4-bis((2-ethylhexyl)oxy)-1,4-dioxobutane-2-sulfonate + water; phases: Liquid, Gas
Fixed: Solvent: Mass fraction of water = 0.003722
Property: Molality, mol/kg of carbon dioxide (Liquid); method: volumetric method
Temperature, K	Pressure, kPa	Molality, mol/kg of carbon dioxide	uncertainty
303.2	207.3	0.067	0.004
303.2	347.7	0.111	0.005
303.2	487.8	0.153	0.007
303.2	627.5	0.193	0.008
313.2	231.2	0.071	0.004
313.2	365.4	0.11	0.005
313.2	513	0.152	0.007
313.2	641.1	0.187	0.008
323.2	265.2	0.077	0.004
323.2	399.5	0.114	0.005
323.2	548.7	0.155	0.007
323.2	681.3	0.189	0.008
333.2	292.5	0.08	0.004
333.2	428.3	0.115	0.005
333.2	575	0.153	0.007
333.2	706.6	0.186	0.008

System: carbon dioxide + 1-butyl-3-methyl-1H-imidazolium 1,4-bis((2-ethylhexyl)oxy)-1,4-dioxobutane-2-sulfonate + water; phases: Liquid, Gas
Fixed: Solvent: Mass fraction of water = 0.004835
Property: Molality, mol/kg of carbon dioxide (Liquid); method: volumetric method
Temperature, K	Pressure, kPa	Molality, mol/kg of carbon dioxide	uncertainty
303.2	221	0.207	0.012
303.2	361.8	0.322	0.015
303.2	515.2	0.433	0.019
303.2	659	0.527	0.022
313.2	236.2	0.193	0.01
313.2	392.8	0.301	0.014
313.2	551.5	0.403	0.018
313.2	687.7	0.49	0.021
323.2	251.6	0.186	0.01
323.2	399.9	0.279	0.013
323.2	558.9	0.377	0.016
323.2	698.5	0.46	0.02
333.2	265.8	0.182	0.009
333.2	435.1	0.277	0.013
333.2	587.6	0.363	0.016
333.2	727.9	0.438	0.019

System: hydrogen sulfide + 1-methyl-1H-imidazolium 1,4-bis((2-ethylhexyl)oxy)-1,4-dioxobutane-2-sulfonate + water; phases: Liquid, Gas
Fixed: Solvent: Mass fraction of water = 0.003722
Property: Molality, mol/kg of hydrogen sulfide (Liquid); method: volumetric method
Temperature, K	Pressure, kPa	Molality, mol/kg of hydrogen sulfide	uncertainty
303.2	199.5	0.247	0.016
303.2	336.5	0.426	0.022
303.2	428	0.55	0.026
303.2	542.8	0.711	0.032
313.2	217.9	0.252	0.016
313.2	352.9	0.414	0.021
313.2	440.2	0.527	0.025
313.2	560.6	0.674	0.03
323.2	229.3	0.249	0.015
323.2	365.1	0.399	0.02
323.2	452.7	0.505	0.024
323.2	576.8	0.651	0.029
333.2	247.8	0.258	0.015
333.2	380.7	0.401	0.02
333.2	469.2	0.507	0.024
333.2	594.5	0.652	0.029

System: hydrogen sulfide + 1-butyl-3-methyl-1H-imidazolium 1,4-bis((2-ethylhexyl)oxy)-1,4-dioxobutane-2-sulfonate + water; phases: Liquid, Gas
Fixed: Solvent: Mass fraction of water = 0.004835
Property: Molality, mol/kg of hydrogen sulfide (Liquid); method: volumetric method
Temperature, K	Pressure, kPa	Molality, mol/kg of hydrogen sulfide	uncertainty
303.2	201	0.722	0.049
303.2	318.3	1.187	0.063
303.2	427.7	1.657	0.08
303.2	611	2.457	0.109
313.2	212.2	0.626	0.042
313.2	334.3	1.038	0.054
313.2	443.9	1.394	0.066
313.2	630.1	2.055	0.091
323.2	235.5	0.591	0.037
323.2	362	0.94	0.047
323.2	469	1.252	0.058
323.2	656.9	1.767	0.077
333.2	277.5	0.627	0.036
333.2	400.9	0.935	0.045
333.2	513.6	1.214	0.055
333.2	697	1.666	0.072
