Measured thermophysical data. Application of the extended real associated solution (ERAS) theory to excess molar enthalpies of benzaldehyde + 1-alkanols (C1 to C5) at T = 298.15 K
Source: J. Chem. Thermodyn., 2011, 10.1016/j.jct.2011.05.014
Compound 1: benzaldehyde, C7H6O, InChI=1S/C7H6O/c8-6-7-4-2-1-3-5-7/h1-6H, purity 99%
Compound 2: methanol, CH4O, InChI=1S/CH4O/c1-2/h2H,1H3, purity 99%
Compound 3: ethanol, C2H6O, InChI=1S/C2H6O/c1-2-3/h3H,2H2,1H3, purity 99%
Compound 4: propan-1-ol, C3H8O, InChI=1S/C3H8O/c1-2-3-4/h4H,2-3H2,1H3, purity 99%
Compound 5: butan-1-ol, C4H10O, InChI=1S/C4H10O/c1-2-3-4-5/h5H,2-4H2,1H3, purity 99%
Compound 6: pentan-1-ol, C5H12O, InChI=1S/C5H12O/c1-2-3-4-5-6/h6H,2-5H2,1H3, purity 98.5%

System: methanol + benzaldehyde; phases: Liquid
Fixed: Pressure, kPa = 101.325
Fixed: Temperature, K = 298.15
Property: Excess molar enthalpy (molar enthalpy of mixing), kJ/mol (Liquid); method: Parr 1455 Solution Calorimeter
Mole fraction of benzaldehyde	Excess molar enthalpy (molar enthalpy of mixing), kJ/mol	uncertainty
0.0877	0.3997	0.0048
0.1795	0.653	0.0063
0.2704	0.83	0.0074
0.3608	0.938	0.0081
0.4509	0.984	0.0084
0.5406	0.978	0.0084
0.6153	0.933	0.0081
0.6966	0.8296	0.0073
0.7344	0.7642	0.007
0.7803	0.6709	0.0064
0.8379	0.5342	0.0056
0.9092	0.3263	0.0044

System: ethanol + benzaldehyde; phases: Liquid
Fixed: Pressure, kPa = 101.325
Fixed: Temperature, K = 298.15
Property: Excess molar enthalpy (molar enthalpy of mixing), kJ/mol (Liquid); method: Parr 1455 Solution Calorimeter
Mole fraction of benzaldehyde	Excess molar enthalpy (molar enthalpy of mixing), kJ/mol	uncertainty
0.0912	0.5905	0.0067
0.1809	0.9484	0.0087
0.2707	1.1657	0.01
0.3603	1.2658	0.0106
0.4503	1.3	0.0108
0.5405	1.28	0.0107
0.628	1.1985	0.0101
0.669	1.1327	0.0097
0.7164	1.0397	0.0091
0.7714	0.913	0.0083
0.8358	0.7093	0.0072
0.9114	0.4228	0.0055

System: propan-1-ol + benzaldehyde; phases: Liquid
Fixed: Pressure, kPa = 101.325
Fixed: Temperature, K = 298.15
Property: Excess molar enthalpy (molar enthalpy of mixing), kJ/mol (Liquid); method: Parr 1455 Solution Calorimeter
Mole fraction of benzaldehyde	Excess molar enthalpy (molar enthalpy of mixing), kJ/mol	uncertainty
0.0896	0.6592	0.0077
0.1797	1.1013	0.0101
0.2698	1.3784	0.0117
0.3598	1.56	0.0129
0.4822	1.6361	0.0135
0.5559	1.6197	0.0133
0.5989	1.5791	0.013
0.647	1.5238	0.0127
0.7017	1.4175	0.012
0.7626	1.2579	0.011
0.8323	0.9916	0.0095
0.9112	0.6118	0.0073

System: butan-1-ol + benzaldehyde; phases: Liquid
Fixed: Pressure, kPa = 101.325
Fixed: Temperature, K = 298.15
Property: Excess molar enthalpy (molar enthalpy of mixing), kJ/mol (Liquid); method: Parr 1455 Solution Calorimeter
Mole fraction of benzaldehyde	Excess molar enthalpy (molar enthalpy of mixing), kJ/mol	uncertainty
0.0759	0.5926	0.0081
0.1555	1.0731	0.0105
0.2374	1.4295	0.0124
0.3186	1.6885	0.014
0.4053	1.818	0.0149
0.4922	1.8696	0.0153
0.5824	1.837	0.015
0.6314	1.7753	0.0146
0.6755	1.6983	0.0142
0.7923	1.3163	0.0117
0.8945	0.8141	0.0088
0.9245	0.612	0.0087

System: pentan-1-ol + benzaldehyde; phases: Liquid
Fixed: Pressure, kPa = 101.325
Fixed: Temperature, K = 298.15
Property: Excess molar enthalpy (molar enthalpy of mixing), kJ/mol (Liquid); method: Parr 1455 Solution Calorimeter
Mole fraction of benzaldehyde	Excess molar enthalpy (molar enthalpy of mixing), kJ/mol	uncertainty
0.0899	0.6363	0.0083
0.1799	1.179	0.0112
0.2699	1.59	0.0136
0.36	1.82	0.015
0.4499	1.94	0.0158
0.54	1.95	0.0159
0.6259	1.843	0.0151
0.6898	1.687	0.0141
0.7523	1.4935	0.0129
0.8094	1.254	0.0114
0.8426	1.09	0.0106
0.9015	0.771	0.0087
