Measured thermophysical data. Energetic and structural properties of 4-nitro-2,1,3-benzothiadiazole
Source: J. Chem. Thermodyn., 2012, 10.1016/j.jct.2012.01.018
Compound 1: sulfuric acid, H2O4S, InChI=1S/H2O4S/c1-5(2,3)4/h(H2,1,2,3,4)
Compound 2: carbon dioxide, CO2, InChI=1S/CO2/c2-1-3
Compound 3: nitrogen, N2, InChI=1S/N2/c1-2
Compound 4: water, H2O, InChI=1S/H2O/h1H2
Compound 5: oxygen, O2, InChI=1S/O2/c1-2
Compound 6: sulfur, S, InChI=1S/S
Compound 7: hydrogen, H2, InChI=1S/H2/h1H
Compound 8: graphite, C
Compound 9: 4-nitro-2,1,3-benzothiadiazole, C6H3N3O2S, InChI=1S/C6H3N3O2S/c10-9(11)5-3-1-2-4-6(5)8-12-7-4/h1-3H, purity 99%

System: 4-nitro-2,1,3-benzothiadiazole; phases: Crystal, Liquid, Air at 1 atmosphere
Property: Normal melting temperature, K (Crystal); method: VISOBS
Normal melting temperature, K	uncertainty
383	1

System: 4-nitro-2,1,3-benzothiadiazole; phases: Crystal, Gas
Property: Molar enthalpy of vaporization or sublimation, kJ/mol (Crystal); method: drop calorimetry
Temperature, K	Molar enthalpy of vaporization or sublimation, kJ/mol	uncertainty
298.15	101.8	8.6

System: 4-nitro-2,1,3-benzothiadiazole; phases: Crystal, Gas
Property: Molar enthalpy, kJ/mol (Crystal); method: Drop calorimetry
Temperature, K	Molar enthalpy, kJ/mol	uncertainty
385	116.5	8.8

Reaction: -1 4-nitro-2,1,3-benzothiadiazole + 1 sulfuric acid + 6 carbon dioxide + 1.5 nitrogen + .5 water + -7.25 oxygen
Property: Specific internal energy of reaction at constant volume, J/g
-19728.9

Reaction: 1 4-nitro-2,1,3-benzothiadiazole + -1 sulfur + -1.5 hydrogen + -1.5 nitrogen + -6 graphite + -1 oxygen
Property: Molar enthalpy of reaction, kJ/mol
181.9
