Measured thermophysical data. Water as a solute in nitromethane: Effect of H2O-D2O isotope substitution on the solution volumetric properties between 278.15 K and 318.15 K
Source: J. Chem. Thermodyn., 2010, 10.1016/j.jct.2010.07.002
Compound 1: nitromethane, CH3NO2, InChI=1S/CH3NO2/c1-2(3)4/h1H3, purity 99%
Compound 2: water, H2O, InChI=1S/H2O/h1H2, purity 99.9%
Compound 3: water-d2, D2O, InChI=1S/H2O/h1H2/i/hD2, purity 99.8%

System: nitromethane; phases: Liquid
Fixed: Pressure, kPa = 101.325
Property: Mass density, kg/m3 (Liquid); method: Vibrating tube method
Temperature, K	Mass density, kg/m3	uncertainty
278.15	1158.25	0.11
288.15	1144.75	0.11
298.15	1131.18	0.1
308.15	1117.53	0.1
318.15	1103.79	0.1

System: nitromethane; phases: Liquid
Fixed: Pressure, kPa = 101.325
Property: Isobaric coefficient of expansion, 1/K (Liquid); method: Vibrating tube densimeter
Temperature, K	Isobaric coefficient of expansion, 1/K	uncertainty
278.15	0.001162	1.9e-05
288.15	0.001182	1.9e-05
298.15	0.001204	2e-05
308.15	0.001225	2e-05
318.15	0.001248	2e-05

System: nitromethane + water; phases: Liquid
Fixed: Pressure, kPa = 101.3
Property: Mass density, kg/m3 (Liquid); method: Vibrating tube method
Temperature, K	Mole fraction of water	Mass density, kg/m3	uncertainty
278.15	0.0017773	1158.13	0.11
278.15	0.0028593	1158.06	0.11
278.15	0.0049134	1157.94	0.11
278.15	0.0063199	1157.85	0.11
278.15	0.0080362	1157.74	0.11
278.15	0.0097117	1157.64	0.11
278.15	0.011883	1157.5	0.11
278.15	0.014461	1157.34	0.11
278.15	0.016961	1157.19	0.11
278.15	0.02033	1156.99	0.11
278.15	0.02492	1156.72	0.11
278.15	0.029112	1156.49	0.11
288.15	0.0017773	1144.64	0.11
288.15	0.0028593	1144.56	0.11
288.15	0.0049134	1144.44	0.11
288.15	0.0063199	1144.35	0.11
288.15	0.0080362	1144.24	0.11
288.15	0.0097117	1144.14	0.11
288.15	0.011883	1144	0.11
288.15	0.014461	1143.85	0.11
288.15	0.016961	1143.7	0.11
288.15	0.02033	1143.5	0.11
288.15	0.02492	1143.23	0.11
288.15	0.029112	1143	0.11
298.15	0.0017773	1131.07	0.1
298.15	0.0028593	1130.99	0.1
298.15	0.0049134	1130.87	0.1
298.15	0.0063199	1130.78	0.1
298.15	0.0080362	1130.67	0.1
298.15	0.0097117	1130.57	0.1
298.15	0.011883	1130.43	0.1
298.15	0.014461	1130.28	0.1
298.15	0.016961	1130.13	0.1
298.15	0.02033	1129.93	0.1
298.15	0.02492	1129.66	0.1
298.15	0.029112	1129.43	0.1
308.15	0.0017773	1117.42	0.1
308.15	0.0028593	1117.35	0.1
308.15	0.0049134	1117.22	0.1
308.15	0.0063199	1117.13	0.1
308.15	0.0080362	1117.02	0.1
308.15	0.0097117	1116.92	0.1
308.15	0.011883	1116.79	0.1
308.15	0.014461	1116.63	0.1
308.15	0.016961	1116.49	0.1
308.15	0.02033	1116.29	0.1
308.15	0.02492	1116.02	0.1
308.15	0.029112	1115.79	0.1
318.15	0.0017773	1103.68	0.09
318.15	0.0028593	1103.61	0.09
318.15	0.0049134	1103.48	0.09
318.15	0.0063199	1103.39	0.09
318.15	0.0080362	1103.29	0.09
318.15	0.0097117	1103.18	0.09
318.15	0.011883	1103.06	0.09
318.15	0.014461	1102.9	0.09
318.15	0.016961	1102.75	0.09
318.15	0.02033	1102.56	0.09
318.15	0.02492	1102.3	0.09
318.15	0.029112	1102.07	0.09

System: nitromethane + water-d2; phases: Liquid
Fixed: Pressure, kPa = 101.3
Property: Mass density, kg/m3 (Liquid); method: Vibrating tube method
Temperature, K	Mole fraction of water-d2	Mass density, kg/m3	uncertainty
278.15	0.0016715	1158.21	0.11
278.15	0.0025475	1158.18	0.11
278.15	0.004545	1158.14	0.11
278.15	0.0062304	1158.09	0.11
278.15	0.0083364	1158.04	0.11
278.15	0.009484	1158.01	0.11
278.15	0.011773	1157.96	0.11
278.15	0.014077	1157.9	0.11
278.15	0.017031	1157.83	0.11
278.15	0.020069	1157.77	0.11
278.15	0.022736	1157.71	0.11
278.15	0.024642	1157.67	0.11
278.15	0.026884	1157.62	0.11
288.15	0.0016715	1144.71	0.11
288.15	0.0025475	1144.68	0.11
288.15	0.004545	1144.64	0.11
288.15	0.0062304	1144.59	0.11
288.15	0.0083364	1144.54	0.11
288.15	0.009484	1144.51	0.11
288.15	0.011773	1144.46	0.11
288.15	0.014077	1144.4	0.11
288.15	0.017031	1144.34	0.11
288.15	0.020069	1144.27	0.11
288.15	0.022736	1144.21	0.11
288.15	0.024642	1144.17	0.11
288.15	0.026884	1144.12	0.11
298.15	0.0016715	1131.14	0.1
298.15	0.0025475	1131.11	0.1
298.15	0.004545	1131.07	0.1
298.15	0.0062304	1131.02	0.1
298.15	0.0083364	1130.97	0.1
298.15	0.009484	1130.94	0.1
298.15	0.011773	1130.89	0.1
298.15	0.014077	1130.83	0.1
298.15	0.017031	1130.77	0.1
298.15	0.020069	1130.7	0.1
298.15	0.022736	1130.64	0.1
298.15	0.024642	1130.6	0.1
298.15	0.026884	1130.55	0.1
308.15	0.0016715	1117.49	0.1
308.15	0.0025475	1117.46	0.1
308.15	0.004545	1117.42	0.1
308.15	0.0062304	1117.37	0.1
308.15	0.0083364	1117.32	0.1
308.15	0.009484	1117.3	0.1
308.15	0.011773	1117.24	0.1
308.15	0.014077	1117.19	0.1
308.15	0.017031	1117.12	0.1
308.15	0.020069	1117.06	0.1
308.15	0.022736	1117	0.1
308.15	0.024642	1116.97	0.1
308.15	0.026884	1116.92	0.1
318.15	0.0016715	1103.75	0.09
318.15	0.0025475	1103.73	0.09
318.15	0.004545	1103.67	0.09
318.15	0.0062304	1103.63	0.09
318.15	0.0083364	1103.58	0.09
318.15	0.009484	1103.56	0.09
318.15	0.011773	1103.5	0.09
318.15	0.014077	1103.45	0.09
318.15	0.017031	1103.38	0.09
318.15	0.020069	1103.32	0.09
318.15	0.022736	1103.26	0.09
318.15	0.024642	1103.22	0.09
318.15	0.026884	1103.17	0.09
