Measured thermophysical data. Research and comparison of solid-liquid phase equilibrium and ternary phase diagrams of 1-(3-nitrophenyl)ethanone + 1-(4-nitrophenyl)ethanone in different solvents
Source: J. Chem. Thermodyn., 2019, 10.1016/j.jct.2019.03.028
Compound 1: 1-(3-nitrophenyl)ethanone, C8H7NO3, InChI=1S/C8H7NO3/c1-6(10)7-3-2-4-8(5-7)9(11)12/h2-5H,1H3, purity 99.7%
Compound 2: 1-(4-nitrophenyl)ethanone, C8H7NO3, InChI=1S/C8H7NO3/c1-6(10)7-2-4-8(5-3-7)9(11)12/h2-5H,1H3, purity 99.5%
Compound 3: methanol, CH4O, InChI=1S/CH4O/c1-2/h2H,1H3, purity 99.7%
Compound 4: propan-1-ol, C3H8O, InChI=1S/C3H8O/c1-2-3-4/h4H,2-3H2,1H3, purity 99.5%

System: 1-(3-nitrophenyl)ethanone + 1-(4-nitrophenyl)ethanone + methanol; phases: Liquid, Crystal
Fixed: Pressure, kPa = 101.2
Property: Mass fraction of 1-(4-nitrophenyl)ethanone (Liquid); method: Chromatography
Temperature, K	Mass fraction of 1-(3-nitrophenyl)ethanone	Mass fraction of 1-(4-nitrophenyl)ethanone	uncertainty
298.15	0	0.0894	0.0375
298.15	0.0086	0.0877	0.0368
298.15	0.0165	0.0853	0.0359
298.15	0.0323	0.0823	0.0346
298.15	0.0454	0.0806	0.0339
298.15	0.0596	0.0803	0.0337
308.15	0	0.1306	0.0549
308.15	0.0148	0.1282	0.0538
308.15	0.0246	0.127	0.0534
308.15	0.0421	0.1243	0.0522
308.15	0.0622	0.1238	0.052
308.15	0.0813	0.1208	0.051
318.15	0	0.1849	0.0777
318.15	0.0227	0.1778	0.0747
318.15	0.041	0.1707	0.0719
318.15	0.0791	0.1592	0.0675
318.15	0.11	0.152	0.0646
318.15	0.1198	0.151	0.0636

System: 1-(3-nitrophenyl)ethanone + 1-(4-nitrophenyl)ethanone + methanol; phases: Liquid, Crystal
Fixed: Pressure, kPa = 101.2
Property: Mass fraction of 1-(3-nitrophenyl)ethanone (Liquid); method: Chromatography
Temperature, K	Mass fraction of 1-(4-nitrophenyl)ethanone	Mass fraction of 1-(3-nitrophenyl)ethanone	uncertainty
298.15	0.0803	0.0596	0.0257
298.15	0.073	0.0609	0.026
298.15	0.0626	0.0623	0.0265
298.15	0.0479	0.0648	0.0274
298.15	0.0262	0.0676	0.0284
298.15	0	0.071	0.0298
308.15	0.1208	0.0813	0.0362
308.15	0.1107	0.0837	0.0371
308.15	0.0878	0.0897	0.0387
308.15	0.0587	0.0961	0.0407
308.15	0.0302	0.1017	0.0428
308.15	0	0.1086	0.0456
318.15	0.151	0.1198	0.0552
318.15	0.1052	0.1362	0.0593
318.15	0.0727	0.1477	0.0629
318.15	0.0511	0.1544	0.0652
318.15	0.023	0.1634	0.0687
318.15	0	0.1726	0.0725

System: 1-(3-nitrophenyl)ethanone + 1-(4-nitrophenyl)ethanone + propan-1-ol; phases: Liquid, Crystal
Fixed: Pressure, kPa = 101.2
Property: Mass fraction of 1-(4-nitrophenyl)ethanone (Liquid); method: Chromatography
Temperature, K	Mass fraction of 1-(3-nitrophenyl)ethanone	Mass fraction of 1-(4-nitrophenyl)ethanone	uncertainty
298.15	0	0.0325	0.0137
298.15	0.0038	0.0318	0.0134
298.15	0.0068	0.0315	0.0132
298.15	0.0113	0.0309	0.013
298.15	0.016	0.0303	0.0127
298.15	0.0239	0.0297	0.0125
308.15	0	0.0515	0.0216
308.15	0.0062	0.0507	0.0213
308.15	0.0117	0.0494	0.0208
308.15	0.0181	0.0485	0.0204
308.15	0.0256	0.0471	0.0198
308.15	0.0343	0.0458	0.0194
318.15	0	0.0815	0.0342
318.15	0.0093	0.0795	0.0334
318.15	0.0192	0.0778	0.0327
318.15	0.0296	0.0761	0.0321
318.15	0.0441	0.0728	0.0308
318.15	0.0548	0.0713	0.0301

System: 1-(3-nitrophenyl)ethanone + 1-(4-nitrophenyl)ethanone + propan-1-ol; phases: Liquid, Crystal
Fixed: Pressure, kPa = 101.2
Property: Mass fraction of 1-(3-nitrophenyl)ethanone (Liquid); method: Chromatography
Temperature, K	Mass fraction of 1-(4-nitrophenyl)ethanone	Mass fraction of 1-(3-nitrophenyl)ethanone	uncertainty
298.15	0.0297	0.0239	0.0101
298.15	0.0241	0.0242	0.0102
298.15	0.0188	0.0245	0.0103
298.15	0.0135	0.0252	0.0106
298.15	0.0064	0.0256	0.0108
298.15	0	0.0263	0.011
308.15	0.0458	0.0343	0.0147
308.15	0.0405	0.0351	0.015
308.15	0.0338	0.0362	0.0153
308.15	0.0233	0.0381	0.0162
308.15	0.0116	0.0402	0.0169
308.15	0	0.042	0.0176
318.15	0.0713	0.0548	0.0237
318.15	0.0631	0.0564	0.0244
318.15	0.054	0.0585	0.0251
318.15	0.0389	0.0617	0.0261
318.15	0.0187	0.0656	0.0276
318.15	0	0.0697	0.0293
