Measured thermophysical data. Study of densities, viscosities, and speeds of sound of binary liquid mixtures of butan-1-ol with n-alkanes (C6, C8, and C10) at T = (298.15, 303.15, and 308.15) K
Source: J. Chem. Thermodyn., 2008, 10.1016/j.jct.2007.05.016
Compound 1: butan-1-ol, C4H10O, InChI=1S/C4H10O/c1-2-3-4-5/h5H,2-4H2,1H3, purity 99%
Compound 2: hexane, C6H14, InChI=1S/C6H14/c1-3-5-6-4-2/h3-6H2,1-2H3, purity 99%
Compound 3: octane, C8H18, InChI=1S/C8H18/c1-3-5-7-8-6-4-2/h3-8H2,1-2H3, purity 99%
Compound 4: decane, C10H22, InChI=1S/C10H22/c1-3-5-7-9-10-8-6-4-2/h3-10H2,1-2H3, purity 99%

System: butan-1-ol; phases: Liquid
Property: Viscosity, Pa*s (Liquid); method: CAPTUB::UFactor:2
Pressure, kPa	Temperature, K	Viscosity, Pa*s	uncertainty
101	298.15	0.002573	3.2e-05

System: butan-1-ol; phases: Liquid
Fixed: Pressure, kPa = 101
Property: Speed of sound, m/s (Liquid); method: Sing-around technique in a fixed-path interferometer
Temperature, K	Speed of sound, m/s	uncertainty
298.15	1240.5	1.2
298.15	1240.4	1.2
303.15	1226.5	1.2
308.15	1209.8	1.2

System: butan-1-ol; phases: Liquid
Fixed: Pressure, kPa = 101
Property: Mass density, kg/m3 (Liquid); method: VIBTUB:UFactor:6
Temperature, K	Mass density, kg/m3	uncertainty
298.15	805.907	0.77
303.15	803.155	0.775
308.15	799.249	0.783

System: hexane; phases: Liquid
Property: Viscosity, Pa*s (Liquid); method: CAPTUB::UFactor:2
Pressure, kPa	Temperature, K	Viscosity, Pa*s	uncertainty
101	298.15	0.000313	8e-06

System: hexane; phases: Liquid
Fixed: Pressure, kPa = 101
Property: Speed of sound, m/s (Liquid); method: Sing-around technique in a fixed-path interferometer
Temperature, K	Speed of sound, m/s	uncertainty
298.15	1077.8	1.2
303.15	1055.2	1.1
308.15	1032.9	1.1

System: hexane; phases: Liquid
Fixed: Pressure, kPa = 101
Property: Mass density, kg/m3 (Liquid); method: VIBTUB:UFactor:6
Temperature, K	Mass density, kg/m3	uncertainty
298.15	655.072	1.08
303.15	650.369	1.09
308.15	645.767	1.1

System: octane; phases: Liquid
Property: Viscosity, Pa*s (Liquid); method: CAPTUB::UFactor:2
Pressure, kPa	Temperature, K	Viscosity, Pa*s	uncertainty
101	298.15	0.000518	9e-06

System: octane; phases: Liquid
Fixed: Pressure, kPa = 101
Property: Speed of sound, m/s (Liquid); method: Sing-around technique in a fixed-path interferometer
Temperature, K	Speed of sound, m/s	uncertainty
298.15	1172.7	1.2
303.15	1152.1	1.2
308.15	1131.7	1.2

System: octane; phases: Liquid
Fixed: Pressure, kPa = 101
Property: Mass density, kg/m3 (Liquid); method: VIBTUB::UFactor:6
Temperature, K	Mass density, kg/m3	uncertainty
298.15	698.58	0.99
303.15	694.497	0.998
308.15	690.416	1.007

System: decane; phases: Liquid
Property: Viscosity, Pa*s (Liquid); method: CAPTUB::UFactor:2
Pressure, kPa	Temperature, K	Viscosity, Pa*s	uncertainty
101	298.15	0.000852	1.2e-05

System: decane; phases: Liquid
Fixed: Pressure, kPa = 101
Property: Speed of sound, m/s (Liquid); method: Sing-around technique in a fixed-path interferometer
Temperature, K	Speed of sound, m/s	uncertainty
298.15	1234.8	1.2
303.15	1215.2	1.2
308.15	1195.6	1.2

System: decane; phases: Liquid
Fixed: Pressure, kPa = 101
Property: Mass density, kg/m3 (Liquid); method: VIBTUB::UFactor:6
Temperature, K	Mass density, kg/m3	uncertainty
298.15	726.806	0.932
303.15	723.042	0.939
308.15	719.23	0.947

System: butan-1-ol + hexane; phases: Liquid
Fixed: Pressure, kPa = 101
Fixed: Temperature, K = 298.15
Property: Viscosity, Pa*s (Liquid); method: CAPTUB:UFactor:2
Mole fraction of butan-1-ol	Viscosity, Pa*s	uncertainty
0	0.000313	8e-06
0.0507	0.000323	8e-06
0.101	0.000338	8e-06
0.1524	0.000356	8e-06
0.2574	0.000409	8e-06
0.379	0.000505	9e-06
0.4125	0.000547	1e-05
0.4502	0.000587	1e-05
0.5121	0.000679	1.1e-05
0.6005	0.000854	1.2e-05
0.7004	0.00111	1.5e-05
0.8202	0.001541	2e-05
0.8523	0.001685	2.1e-05
0.8957	0.001901	2.4e-05
0.9476	0.002209	2.8e-05
1	0.002573	3.2e-05

System: butan-1-ol + hexane; phases: Liquid
Fixed: Pressure, kPa = 101
Property: Speed of sound, m/s (Liquid); method: Sing-around technique in a fixed-path interferometer
Temperature, K	Mole fraction of butan-1-ol	Speed of sound, m/s	uncertainty
298.15	0	1077.8	1.2
298.15	0.0507	1077.6	1.2
298.15	0.101	1079.4	1.2
298.15	0.1524	1082.5	1.2
298.15	0.2574	1091.7	1.2
298.15	0.379	1106.3	1.2
298.15	0.4125	1111.1	1.2
298.15	0.4502	1116.7	1.2
298.15	0.5121	1126.5	1.2
298.15	0.6005	1141.9	1.2
298.15	0.7004	1162.2	1.2
298.15	0.8202	1190.9	1.2
298.15	0.8523	1199	1.2
298.15	0.8957	1210.5	1.2
298.15	0.9476	1225.1	1.2
298.15	1	1240.5	1.2
303.15	0	1055.2	1.1
303.15	0.0507	1054.9	1.1
303.15	0.101	1056.8	1.1
303.15	0.1524	1059.9	1.2
303.15	0.2574	1069.1	1.2
303.15	0.379	1083.7	1.2
303.15	0.4125	1088.5	1.2
303.15	0.4502	1094.1	1.2
303.15	0.5121	1103.9	1.2
303.15	0.6005	1120.8	1.2
303.15	0.7004	1141.1	1.2
303.15	0.8202	1171.5	1.2
303.15	0.8523	1179.9	1.2
303.15	0.8957	1192.1	1.2
303.15	0.9476	1207.9	1.2
303.15	1	1226.5	1.2
308.15	0	1032.9	1.1
308.15	0.0507	1032.7	1.1
308.15	0.101	1034.5	1.1
308.15	0.1524	1037.6	1.1
308.15	0.2574	1046.8	1.1
308.15	0.379	1062	1.2
308.15	0.4125	1066.7	1.2
308.15	0.4502	1072.3	1.2
308.15	0.5121	1082.5	1.2
308.15	0.6005	1099.2	1.2
308.15	0.7004	1120.6	1.2
308.15	0.8202	1151.5	1.2
308.15	0.8523	1160.3	1.2
308.15	0.8957	1172.9	1.2
308.15	0.9476	1189.6	1.2
308.15	1	1209.8	1.2

System: butan-1-ol + hexane; phases: Liquid
Fixed: Pressure, kPa = 101
Property: Mass density, kg/m3 (Liquid); method: VIBTUB:UFactor:6
Temperature, K	Mole fraction of butan-1-ol	Mass density, kg/m3	uncertainty
298.15	0	655.072	1.08
298.15	0.0507	660.196	1.07
298.15	0.101	665.602	1.058
298.15	0.1524	671.434	1.046
298.15	0.2574	684.29	1.02
298.15	0.379	700.46	0.987
298.15	0.4125	705.163	0.978
298.15	0.4502	710.564	0.967
298.15	0.5121	719.663	0.949
298.15	0.6005	733.301	0.92
298.15	0.7004	749.66	0.886
298.15	0.8202	770.812	0.842
298.15	0.8523	776.78	0.83
298.15	0.8957	785.079	0.812
298.15	0.9476	795.298	0.791
298.15	1	805.907	0.77
303.15	0	650.369	1.09
303.15	0.0507	655.432	1.08
303.15	0.101	660.733	1.069
303.15	0.1524	666.54	1.057
303.15	0.2574	679.54	1.03
303.15	0.379	696.019	0.996
303.15	0.4125	700.869	0.987
303.15	0.4502	706.47	0.976
303.15	0.5121	715.869	0.957
303.15	0.6005	730.025	0.927
303.15	0.7004	746.763	0.892
303.15	0.8202	767.985	0.848
303.15	0.8523	773.953	0.835
303.15	0.8957	782.252	0.818
303.15	0.9476	792.462	0.797
303.15	1	803.155	0.775
308.15	0	645.767	1.1
308.15	0.0507	650.791	1.089
308.15	0.101	656.143	1.078
308.15	0.1524	661.908	1.066
308.15	0.2574	674.857	1.04
308.15	0.379	691.525	1.006
308.15	0.4125	696.345	0.996
308.15	0.4502	701.99	0.985
308.15	0.5121	711.606	0.966
308.15	0.6005	725.938	0.936
308.15	0.7004	742.943	0.9
308.15	0.8202	764.319	0.855
308.15	0.8523	770.292	0.843
308.15	0.8957	778.547	0.826
308.15	0.9476	788.743	0.805
308.15	1	799.249	0.783

System: butan-1-ol + octane; phases: Liquid
Fixed: Pressure, kPa = 101
Fixed: Temperature, K = 298.15
Property: Viscosity, Pa*s (Liquid); method: CAPTUB:UFactor:2
Mole fraction of butan-1-ol	Viscosity, Pa*s	uncertainty
0	0.000518	9e-06
0.0563	0.000525	9e-06
0.1091	0.00054	9e-06
0.1579	0.00055	1e-05
0.2245	0.000585	1e-05
0.3117	0.000636	1e-05
0.4013	0.000708	1.1e-05
0.4519	0.000762	1.1e-05
0.5106	0.000837	1.2e-05
0.6032	0.000992	1.4e-05
0.7087	0.001232	1.6e-05
0.8063	0.001539	2e-05
0.8492	0.001711	2.2e-05
0.909	0.001991	2.5e-05
0.956	0.002262	2.8e-05
1	0.002573	3.2e-05

System: butan-1-ol + octane; phases: Liquid
Fixed: Pressure, kPa = 101
Property: Speed of sound, m/s (Liquid); method: Sing-around technique in a fixed-path interferometer
Temperature, K	Mole fraction of butan-1-ol	Speed of sound, m/s	uncertainty
298.15	0	1172.7	1.2
298.15	0.0563	1169.8	1.2
298.15	0.1091	1169.4	1.2
298.15	0.1579	1169.4	1.2
298.15	0.2245	1170.1	1.2
298.15	0.3117	1172.1	1.2
298.15	0.4013	1175.4	1.2
298.15	0.4519	1177.8	1.2
298.15	0.5106	1181.2	1.2
298.15	0.6032	1187.9	1.2
298.15	0.7087	1197.5	1.2
298.15	0.8063	1208.9	1.2
298.15	0.8492	1214.9	1.2
298.15	0.909	1223.7	1.2
298.15	0.956	1231.9	1.2
298.15	1	1240.4	1.2
303.15	0	1152.1	1.2
303.15	0.0563	1149.2	1.2
303.15	0.1091	1148.8	1.2
303.15	0.1579	1149	1.2
303.15	0.2245	1149.5	1.2
303.15	0.3117	1151.8	1.2
303.15	0.4013	1155.4	1.2
303.15	0.4519	1158.1	1.2
303.15	0.5106	1161.7	1.2
303.15	0.6032	1169.1	1.2
303.15	0.7087	1179.4	1.2
303.15	0.8063	1191.2	1.2
303.15	0.8492	1197.5	1.2
303.15	0.909	1207.2	1.2
303.15	0.956	1215.5	1.2
303.15	1	1226.5	1.2
308.15	0	1131.7	1.2
308.15	0.0563	1128.6	1.2
308.15	0.1091	1128.2	1.2
308.15	0.1579	1128.1	1.2
308.15	0.2245	1129.2	1.2
308.15	0.3117	1131.4	1.2
308.15	0.4013	1135.6	1.2
308.15	0.4519	1138	1.2
308.15	0.5106	1141.9	1.2
308.15	0.6032	1149.6	1.2
308.15	0.7087	1160.3	1.2
308.15	0.8063	1172.8	1.2
308.15	0.8492	1179.4	1.2
308.15	0.909	1189.3	1.2
308.15	0.956	1198.8	1.2
308.15	1	1209.8	1.2

System: butan-1-ol + octane; phases: Liquid
Fixed: Pressure, kPa = 101
Property: Mass density, kg/m3 (Liquid); method: VIBTUB:UFactor:6
Temperature, K	Mole fraction of butan-1-ol	Mass density, kg/m3	uncertainty
298.15	0	698.58	0.99
298.15	0.0563	701.448	0.984
298.15	0.1091	704.623	0.977
298.15	0.1579	707.716	0.971
298.15	0.2245	712.309	0.962
298.15	0.3117	718.911	0.948
298.15	0.4013	726.41	0.933
298.15	0.4519	731.021	0.924
298.15	0.5106	736.716	0.913
298.15	0.6032	746.6	0.892
298.15	0.7087	759.397	0.865
298.15	0.8063	772.907	0.837
298.15	0.8492	779.452	0.824
298.15	0.909	789.203	0.804
298.15	0.956	797.537	0.787
298.15	1	805.907	0.77
303.15	0	694.497	0.998
303.15	0.0563	697.299	0.992
303.15	0.1091	700.473	0.986
303.15	0.1579	703.646	0.979
303.15	0.2245	708.268	0.97
303.15	0.3117	714.997	0.956
303.15	0.4013	722.577	0.941
303.15	0.4519	727.253	0.932
303.15	0.5106	733.019	0.92
303.15	0.6032	742.919	0.9
303.15	0.7087	755.747	0.873
303.15	0.8063	769.349	0.845
303.15	0.8492	775.973	0.831
303.15	0.909	786.026	0.81
303.15	0.956	794.495	0.793
303.15	1	803.155	0.775
308.15	0	690.416	1.007
308.15	0.0563	693.192	1.001
308.15	0.1091	696.337	0.995
308.15	0.1579	699.455	0.988
308.15	0.2245	704.085	0.979
308.15	0.3117	710.775	0.965
308.15	0.4013	718.357	0.95
308.15	0.4519	723.057	0.94
308.15	0.5106	728.779	0.929
308.15	0.6032	738.734	0.908
308.15	0.7087	751.584	0.881
308.15	0.8063	765.239	0.853
308.15	0.8492	771.885	0.839
308.15	0.909	781.895	0.819
308.15	0.956	790.449	0.801
308.15	1	799.249	0.783

System: butan-1-ol + decane; phases: Liquid
Fixed: Pressure, kPa = 101
Fixed: Temperature, K = 298.15
Property: Viscosity, Pa*s (Liquid); method: CAPTUB:UFactor:2
Mole fraction of butan-1-ol	Viscosity, Pa*s	uncertainty
0	0.000852	1.2e-05
0.0678	0.000845	1.2e-05
0.1105	0.000855	1.2e-05
0.1614	0.000868	1.2e-05
0.2372	0.000895	1.3e-05
0.3068	0.000931	1.3e-05
0.4278	0.001019	1.4e-05
0.5071	0.001102	1.5e-05
0.5547	0.001164	1.5e-05
0.6068	0.001244	1.6e-05
0.7032	0.001432	1.8e-05
0.8036	0.001685	2.1e-05
0.8498	0.001843	2.3e-05
0.9015	0.002047	2.6e-05
0.95	0.002277	2.8e-05
1	0.002573	3.2e-05

System: butan-1-ol + decane; phases: Liquid
Fixed: Pressure, kPa = 101
Property: Speed of sound, m/s (Liquid); method: Sing-around technique in a fixed-path interferometer
Temperature, K	Mole fraction of butan-1-ol	Speed of sound, m/s	uncertainty
298.15	0	1234.8	1.2
298.15	0.0678	1230.4	1.2
298.15	0.1105	1228.8	1.2
298.15	0.1614	1227.3	1.2
298.15	0.2372	1225.4	1.2
298.15	0.3068	1224.1	1.2
298.15	0.4278	1222.9	1.2
298.15	0.5071	1222.8	1.2
298.15	0.5547	1222.9	1.2
298.15	0.6068	1223.4	1.2
298.15	0.7032	1224.9	1.2
298.15	0.8036	1227.9	1.2
298.15	0.8498	1229.9	1.2
298.15	0.9015	1232.8	1.2
298.15	0.95	1236.2	1.2
298.15	1	1240.5	1.2
303.15	0	1215.2	1.2
303.15	0.0678	1210.6	1.2
303.15	0.1105	1209.1	1.2
303.15	0.1614	1207.6	1.2
303.15	0.2372	1206.1	1.2
303.15	0.3068	1204.5	1.2
303.15	0.4278	1203.7	1.2
303.15	0.5071	1203.8	1.2
303.15	0.5547	1203.9	1.2
303.15	0.6068	1204.5	1.2
303.15	0.7032	1206.3	1.2
303.15	0.8036	1210.2	1.2
303.15	0.8498	1212.4	1.2
303.15	0.9015	1215.7	1.2
303.15	0.95	1219.9	1.2
303.15	1	1226.5	1.2
308.15	0	1195.6	1.2
308.15	0.0678	1191.9	1.2
308.15	0.1105	1189.4	1.2
308.15	0.1614	1187.9	1.2
308.15	0.2372	1185.5	1.2
308.15	0.3068	1184.6	1.2
308.15	0.4278	1183.8	1.2
308.15	0.5071	1184.3	1.2
308.15	0.5547	1184.8	1.2
308.15	0.6068	1185.6	1.2
308.15	0.7032	1187.6	1.2
308.15	0.8036	1191.3	1.2
308.15	0.8498	1194	1.2
308.15	0.9015	1197.9	1.2
308.15	0.95	1203.1	1.2
308.15	1	1209.8	1.2

System: butan-1-ol + decane; phases: Liquid
Fixed: Pressure, kPa = 101
Property: Mass density, kg/m3 (Liquid); method: VIBTUB:UFactor:6
Temperature, K	Mole fraction of butan-1-ol	Mass density, kg/m3	uncertainty
298.15	0	726.806	0.932
298.15	0.0678	728.769	0.927
298.15	0.1105	730.259	0.924
298.15	0.1614	732.194	0.92
298.15	0.2372	735.44	0.914
298.15	0.3068	738.779	0.907
298.15	0.4278	745.484	0.893
298.15	0.5071	750.606	0.883
298.15	0.5547	754.019	0.876
298.15	0.6068	758.098	0.868
298.15	0.7032	766.65	0.85
298.15	0.8036	777.321	0.828
298.15	0.8498	782.998	0.817
298.15	0.9015	790.035	0.802
298.15	0.95	797.464	0.787
298.15	1	805.907	0.77
303.15	0	723.042	0.939
303.15	0.0678	724.903	0.935
303.15	0.1105	726.415	0.932
303.15	0.1614	728.365	0.928
303.15	0.2372	731.639	0.922
303.15	0.3068	734.994	0.915
303.15	0.4278	741.679	0.901
303.15	0.5071	746.798	0.891
303.15	0.5547	750.194	0.884
303.15	0.6068	754.237	0.876
303.15	0.7032	762.82	0.858
303.15	0.8036	773.625	0.836
303.15	0.8498	779.309	0.824
303.15	0.9015	786.406	0.81
303.15	0.95	794.041	0.794
303.15	1	803.155	0.775
308.15	0	719.23	0.947
308.15	0.0678	721.031	0.943
308.15	0.1105	722.511	0.94
308.15	0.1614	724.437	0.936
308.15	0.2372	727.679	0.93
308.15	0.3068	731.004	0.923
308.15	0.4278	737.66	0.91
308.15	0.5071	742.769	0.899
308.15	0.5547	746.151	0.892
308.15	0.6068	750.219	0.884
308.15	0.7032	758.774	0.866
308.15	0.8036	769.593	0.844
308.15	0.8498	775.279	0.832
308.15	0.9015	782.421	0.818
308.15	0.95	790.078	0.802
308.15	1	799.249	0.783
