Measured thermophysical data. Critical parameters for propane determined by the image analysis
Source: J. Chem. Thermodyn., 2008, 10.1016/j.jct.2007.06.021
Compound 1: propane, C3H8, InChI=1S/C3H8/c1-3-2/h3H2,1-2H3, purity 99.997%

System: propane; phases: Liquid, Gas
Property: Critical pressure, kPa (Liquid); method: Direct measurement
Critical pressure, kPa	uncertainty
4260	5

System: propane; phases: Liquid, Gas
Property: Critical temperature, K (Liquid); method: VISOBSU:UFactor:0.5
Critical temperature, K	uncertainty
370.01	0.03

System: propane; phases: Liquid, Gas
Property: Critical density, kg/m3 (Liquid); method: image analysis
Critical density, kg/m3	uncertainty
221.5	2.2

System: propane; phases: Liquid, Gas
Property: Vapor or sublimation pressure, kPa (Liquid); method: Closed cell (Static) method
Temperature, K	Vapor or sublimation pressure, kPa	uncertainty
320	1600.2	2.8
343.132	2587.3	4
369	4184.3	6.5
369.625	4231.6	6.6
