Measured thermophysical data. Thermodynamic properties of binary mixtures of the ionic liquid [emim][BF4] with acetone and dimethylsulphoxide
Source: J. Chem. Thermodyn., 2013, 10.1016/j.jct.2013.01.010
Compound 1: 1-ethyl-3-methylimidazolium tetrafluoroborate, C6H11BF4N2, InChI=1S/C6H11N2.BF4/c1-3-8-5-4-7(2)6-8;2-1(3,4)5/h4-6H,3H2,1-2H3;/q+1;-1, purity 98%
Compound 2: acetone, C3H6O, InChI=1S/C3H6O/c1-3(2)4/h1-2H3, purity 99.8%
Compound 3: dimethyl sulfoxide, C2H6OS, InChI=1S/C2H6OS/c1-4(2)3/h1-2H3, purity 99.9%

System: 1-ethyl-3-methylimidazolium tetrafluoroborate; phases: Liquid
Fixed: Pressure, kPa = 101.325
Property: Mass density, kg/m3 (Liquid); method: Vibrating tube method
Temperature, K	Mass density, kg/m3	uncertainty
293.15	1283.89	1.47
298.15	1279.91	1.46
303.15	1276.26	1.46
308.15	1272.07	1.44

System: 1-ethyl-3-methylimidazolium tetrafluoroborate; phases: Liquid
Fixed: Pressure, kPa = 101.325
Property: Speed of sound, m/s (Liquid); method: Sing-around technique in a fixed-path interferometer
Temperature, K	Speed of sound, m/s	uncertainty
293.15	1631.05	2.35
298.15	1619.4	2.35
303.15	1607.63	2.35
308.15	1596.31	2.35

System: acetone; phases: Liquid
Fixed: Pressure, kPa = 101.325
Property: Mass density, kg/m3 (Liquid); method: Vibrating tube method
Temperature, K	Mass density, kg/m3	uncertainty
293.15	789.987	0.15
298.15	784.405	0.151
303.15	778.871	0.153
308.15	773.066	0.154

System: acetone; phases: Liquid
Fixed: Pressure, kPa = 101.325
Property: Speed of sound, m/s (Liquid); method: Sing-around technique in a fixed-path interferometer
Temperature, K	Speed of sound, m/s	uncertainty
293.15	1185.97	1.17
298.15	1163.76	1.16
303.15	1141.43	1.16
308.15	1119.11	1.16

System: dimethyl sulfoxide; phases: Liquid
Fixed: Pressure, kPa = 101.325
Property: Mass density, kg/m3 (Liquid); method: Vibrating tube method
Temperature, K	Mass density, kg/m3	uncertainty
293.15	1100.43	0.12
298.15	1095.42	0.12
303.15	1090.41	0.12
308.15	1085.39	0.12

System: dimethyl sulfoxide; phases: Liquid
Fixed: Pressure, kPa = 101.325
Property: Speed of sound, m/s (Liquid); method: Sing-around technique in a fixed-path interferometer
Temperature, K	Speed of sound, m/s	uncertainty
293.15	1503.18	1.21
298.15	1486.26	1.21
303.15	1469.2	1.2
308.15	1452.66	1.2

System: acetone + 1-ethyl-3-methylimidazolium tetrafluoroborate; phases: Liquid
Fixed: Pressure, kPa = 101
Property: Mass density, kg/m3 (Liquid); method: Vibrating tube method
Temperature, K	Mole fraction of 1-ethyl-3-methylimidazolium tetrafluoroborate	Mass density, kg/m3	uncertainty
293.15	0.1214	933.27	0.23
293.15	0.1789	987.63	0.22
293.15	0.2147	1017.82	0.21
293.15	0.2813	1066.88	0.23
293.15	0.3219	1092.73	0.25
293.15	0.3649	1117.49	0.28
293.15	0.4193	1144.91	0.34
293.15	0.4714	1167.62	0.4
293.15	0.5217	1186.9	0.47
293.15	0.5772	1205.54	0.56
293.15	0.6319	1221.27	0.65
293.15	0.6768	1232.69	0.73
293.15	0.7199	1242.54	0.82
293.15	0.7724	1252.97	0.92
293.15	0.8304	1263	1.05
293.15	0.8766	1269.84	1.16
293.15	0.9011	1273.08	1.22
293.15	0.9203	1275.47	1.27
298.15	0.1214	928.61	0.23
298.15	0.1789	983.61	0.23
298.15	0.2147	1013.85	0.21
298.15	0.2813	1063.3	0.23
298.15	0.3219	1089.56	0.25
298.15	0.3649	1114.19	0.28
298.15	0.4193	1141.69	0.33
298.15	0.4714	1164.64	0.4
298.15	0.5217	1183.85	0.47
298.15	0.5772	1202.14	0.55
298.15	0.6319	1217.91	0.65
298.15	0.6768	1229.09	0.73
298.15	0.7199	1238.8	0.81
298.15	0.7724	1249.12	0.92
298.15	0.8304	1258.91	1.04
298.15	0.8766	1265.74	1.15
298.15	0.9011	1268.96	1.21
298.15	0.9203	1271.38	1.26
303.15	0.1214	923.44	0.23
303.15	0.1789	978.74	0.23
303.15	0.2147	1009.37	0.21
303.15	0.2813	1059.25	0.23
303.15	0.3219	1085.84	0.25
303.15	0.3649	1110.78	0.28
303.15	0.4193	1138.75	0.33
303.15	0.4714	1161.69	0.4
303.15	0.5217	1181.07	0.47
303.15	0.5772	1199.7	0.55
303.15	0.6319	1215.28	0.64
303.15	0.6768	1226.6	0.72
303.15	0.7199	1236.06	0.81
303.15	0.7724	1246.25	0.91
303.15	0.8304	1255.95	1.04
303.15	0.8766	1262.51	1.15
303.15	0.9011	1265.71	1.2
303.15	0.9203	1267.99	1.25
308.15	0.1214	918.15	0.23
308.15	0.1789	973.95	0.23
308.15	0.2147	1004.85	0.21
308.15	0.2813	1055.19	0.23
308.15	0.3219	1082.01	0.25
308.15	0.3649	1107.15	0.27
308.15	0.4193	1135.16	0.33
308.15	0.4714	1158.46	0.39
308.15	0.5217	1177.84	0.46
308.15	0.5772	1196.16	0.55
308.15	0.6319	1211.72	0.64
308.15	0.6768	1222.91	0.72
308.15	0.7199	1232.31	0.8
308.15	0.7724	1242.25	0.91
308.15	0.8304	1251.74	1.03
308.15	0.8766	1258.3	1.14
308.15	0.9011	1261.43	1.19
308.15	0.9203	1263.7	1.24

System: acetone + 1-ethyl-3-methylimidazolium tetrafluoroborate; phases: Liquid
Fixed: Pressure, kPa = 101
Property: Speed of sound, m/s (Liquid); method: Sing-around technique in a fixed-path interferometer
Temperature, K	Mole fraction of 1-ethyl-3-methylimidazolium tetrafluoroborate	Speed of sound, m/s	uncertainty
293.15	0.1214	1241.1	1.2
293.15	0.1789	1280.4	1.3
293.15	0.2147	1307.6	1.3
293.15	0.2813	1360.4	1.4
293.15	0.3219	1394.1	1.4
293.15	0.3649	1429.2	1.5
293.15	0.4193	1473.1	1.5
293.15	0.4714	1507.7	1.6
293.15	0.5217	1539.7	1.7
293.15	0.5772	1566	1.7
293.15	0.6319	1583	1.8
293.15	0.6768	1593.5	1.9
293.15	0.7199	1601.6	1.9
293.15	0.7724	1604.7	2
293.15	0.8304	1607.5	2.1
293.15	0.8766	1610	2.2
293.15	0.9011	1612.6	2.2
293.15	0.9203	1614.6	2.2
298.15	0.1214	1221	1.2
298.15	0.1789	1261.7	1.3
298.15	0.2147	1290.7	1.3
298.15	0.2813	1349.9	1.4
298.15	0.3219	1386.6	1.4
298.15	0.3649	1423.4	1.5
298.15	0.4193	1469.1	1.5
298.15	0.4714	1510.2	1.6
298.15	0.5217	1539.6	1.7
298.15	0.5772	1566.1	1.7
298.15	0.6319	1585.4	1.8
298.15	0.6768	1591.6	1.9
298.15	0.7199	1596.9	1.9
298.15	0.7724	1595.8	2
298.15	0.8304	1595.9	2.1
298.15	0.8766	1595.9	2.2
298.15	0.9011	1596.6	2.2
298.15	0.9203	1599	2.2
303.15	0.1214	1193.4	1.2
303.15	0.1789	1233.4	1.3
303.15	0.2147	1262.9	1.3
303.15	0.2813	1321.9	1.4
303.15	0.3219	1358.3	1.4
303.15	0.3649	1398.5	1.5
303.15	0.4193	1449.6	1.5
303.15	0.4714	1490.7	1.6
303.15	0.5217	1526.3	1.7
303.15	0.5772	1559.2	1.7
303.15	0.6319	1579.8	1.8
303.15	0.6768	1587.6	1.9
303.15	0.7199	1594	1.9
303.15	0.7724	1592.9	2
303.15	0.8304	1591.6	2.1
303.15	0.8766	1589.9	2.2
303.15	0.9011	1589.4	2.2
303.15	0.9203	1591	2.2
308.15	0.1214	1172.8	1.2
308.15	0.1789	1211.1	1.3
308.15	0.2147	1238.4	1.3
308.15	0.2813	1295.2	1.4
308.15	0.3219	1331	1.4
308.15	0.3649	1367.9	1.5
308.15	0.4193	1417.4	1.5
308.15	0.4714	1458.4	1.6
308.15	0.5217	1498	1.7
308.15	0.5772	1531	1.7
308.15	0.6319	1558.2	1.8
308.15	0.6768	1574.7	1.9
308.15	0.7199	1587.8	1.9
308.15	0.7724	1595.8	2
308.15	0.8304	1597.6	2.1
308.15	0.8766	1597.6	2.2
308.15	0.9011	1597.9	2.2
308.15	0.9203	1597.3	2.2

System: acetone + 1-ethyl-3-methylimidazolium tetrafluoroborate; phases: Liquid
Fixed: Pressure, kPa = 101
Fixed: Temperature, K = 298.15
Property: Excess molar enthalpy (molar enthalpy of mixing), kJ/mol (Liquid); method: 2-Drop Calorimetry
Mole fraction of 1-ethyl-3-methylimidazolium tetrafluoroborate	Excess molar enthalpy (molar enthalpy of mixing), kJ/mol	uncertainty
0.0987	-0.057	0.002
0.1451	-0.083	0.002
0.1991	-0.114	0.003
0.2547	-0.142	0.003
0.3012	-0.159	0.004
0.3428	-0.177	0.004
0.3984	-0.193	0.004
0.4425	-0.202	0.005
0.4851	-0.208	0.005
0.5335	-0.21	0.005
0.6021	-0.201	0.005
0.6689	-0.19	0.004
0.7148	-0.175	0.004
0.7723	-0.15	0.004
0.8227	-0.121	0.003
0.8769	-0.089	0.002
0.9012	-0.073	0.002
0.9113	-0.067	0.002

System: dimethyl sulfoxide + 1-ethyl-3-methylimidazolium tetrafluoroborate; phases: Liquid
Fixed: Pressure, kPa = 101
Property: Mass density, kg/m3 (Liquid); method: Vibrating tube method
Temperature, K	Mole fraction of 1-ethyl-3-methylimidazolium tetrafluoroborate	Mass density, kg/m3	uncertainty
293.15	0.1319	1154.13	0.17
293.15	0.1819	1170.55	0.18
293.15	0.2336	1185.68	0.2
293.15	0.2909	1200.5	0.24
293.15	0.3417	1212.05	0.28
293.15	0.3799	1219.83	0.32
293.15	0.4215	1227.57	0.36
293.15	0.4719	1236	0.42
293.15	0.5335	1244.97	0.51
293.15	0.5782	1250.68	0.58
293.15	0.6198	1255.44	0.64
293.15	0.6717	1260.78	0.73
293.15	0.7204	1265.23	0.82
293.15	0.7737	1269.58	0.93
293.15	0.8219	1273.1	1.03
293.15	0.8783	1276.82	1.16
293.15	0.9041	1278.42	1.22
293.15	0.9249	1279.65	1.28
298.15	0.1319	1149.63	0.16
298.15	0.1819	1166.13	0.18
298.15	0.2336	1181.3	0.2
298.15	0.2909	1196.12	0.24
298.15	0.3417	1207.64	0.28
298.15	0.3799	1215.48	0.31
298.15	0.4215	1223.18	0.36
298.15	0.4719	1231.61	0.42
298.15	0.5335	1240.56	0.5
298.15	0.5782	1246.29	0.57
298.15	0.6198	1251.13	0.64
298.15	0.6717	1256.5	0.73
298.15	0.7204	1260.99	0.82
298.15	0.7737	1265.39	0.92
298.15	0.8219	1268.95	1.03
298.15	0.8783	1272.74	1.15
298.15	0.9041	1274.36	1.22
298.15	0.9249	1275.62	1.27
303.15	0.1319	1145.2	0.16
303.15	0.1819	1161.81	0.18
303.15	0.2336	1177.06	0.2
303.15	0.2909	1191.89	0.23
303.15	0.3417	1203.45	0.27
303.15	0.3799	1211.24	0.31
303.15	0.4215	1219.02	0.36
303.15	0.4719	1227.4	0.42
303.15	0.5335	1236.44	0.5
303.15	0.5782	1242.17	0.57
303.15	0.6198	1247.04	0.63
303.15	0.6717	1252.45	0.72
303.15	0.7204	1257	0.81
303.15	0.7737	1261.48	0.92
303.15	0.8219	1265.1	1.02
303.15	0.8783	1268.97	1.15
303.15	0.9041	1270.62	1.21
303.15	0.9249	1271.9	1.26
308.15	0.1319	1140.37	0.16
308.15	0.1819	1157.02	0.18
308.15	0.2336	1172.25	0.2
308.15	0.2909	1187.15	0.23
308.15	0.3417	1198.76	0.27
308.15	0.3799	1206.59	0.31
308.15	0.4215	1214.39	0.35
308.15	0.4719	1222.88	0.41
308.15	0.5335	1232.02	0.5
308.15	0.5782	1237.86	0.56
308.15	0.6198	1242.76	0.63
308.15	0.6717	1248.28	0.72
308.15	0.7204	1252.91	0.81
308.15	0.7737	1257.45	0.91
308.15	0.8219	1261.11	1.01
308.15	0.8783	1264.97	1.14
308.15	0.9041	1266.61	1.2
308.15	0.9249	1267.87	1.25

System: dimethyl sulfoxide + 1-ethyl-3-methylimidazolium tetrafluoroborate; phases: Liquid
Fixed: Pressure, kPa = 101
Property: Speed of sound, m/s (Liquid); method: Sing-around technique in a fixed-path interferometer
Temperature, K	Mole fraction of 1-ethyl-3-methylimidazolium tetrafluoroborate	Speed of sound, m/s	uncertainty
293.15	0.1319	1533	1.3
293.15	0.1819	1544.4	1.3
293.15	0.2336	1556.2	1.3
293.15	0.2909	1567.8	1.4
293.15	0.3417	1577.3	1.4
293.15	0.3799	1584	1.5
293.15	0.4215	1589.9	1.5
293.15	0.4719	1596.3	1.6
293.15	0.5335	1602.8	1.7
293.15	0.5782	1606.2	1.7
293.15	0.6198	1608.8	1.8
293.15	0.6717	1611	1.8
293.15	0.7204	1613	1.9
293.15	0.7737	1614.7	2
293.15	0.8219	1616.4	2.1
293.15	0.8783	1619.2	2.2
293.15	0.9041	1621	2.2
293.15	0.9249	1622.6	2.2
298.15	0.1319	1514.8	1.3
298.15	0.1819	1526.6	1.3
298.15	0.2336	1538.6	1.3
298.15	0.2909	1551	1.4
298.15	0.3417	1561.5	1.4
298.15	0.3799	1568.7	1.5
298.15	0.4215	1575.8	1.5
298.15	0.4719	1583.7	1.6
298.15	0.5335	1591.2	1.7
298.15	0.5782	1595.6	1.7
298.15	0.6198	1598.6	1.8
298.15	0.6717	1601.8	1.8
298.15	0.7204	1604.4	1.9
298.15	0.7737	1606.4	2
298.15	0.8219	1607.9	2.1
298.15	0.8783	1610.3	2.2
298.15	0.9041	1611.6	2.2
298.15	0.9249	1612.9	2.2
303.15	0.1319	1498.7	1.3
303.15	0.1819	1510.3	1.3
303.15	0.2336	1522.2	1.3
303.15	0.2909	1535.1	1.4
303.15	0.3417	1545.4	1.4
303.15	0.3799	1552.3	1.5
303.15	0.4215	1559.5	1.5
303.15	0.4719	1567.7	1.6
303.15	0.5335	1575.8	1.7
303.15	0.5782	1580.4	1.7
303.15	0.6198	1584.3	1.8
303.15	0.6717	1588.6	1.8
303.15	0.7204	1591.7	1.9
303.15	0.7737	1594.6	2
303.15	0.8219	1596.8	2.1
303.15	0.8783	1599.7	2.2
303.15	0.9041	1601.1	2.2
303.15	0.9249	1602.2	2.2
308.15	0.1319	1481.3	1.3
308.15	0.1819	1492.8	1.3
308.15	0.2336	1504.7	1.3
308.15	0.2909	1517.4	1.4
308.15	0.3417	1528.1	1.4
308.15	0.3799	1535.9	1.5
308.15	0.4215	1543.2	1.5
308.15	0.4719	1552	1.6
308.15	0.5335	1560.5	1.7
308.15	0.5782	1566.1	1.7
308.15	0.6198	1571	1.8
308.15	0.6717	1575.9	1.8
308.15	0.7204	1579.7	1.9
308.15	0.7737	1583.2	2
308.15	0.8219	1586	2.1
308.15	0.8783	1588.9	2.2
308.15	0.9041	1590.4	2.2
308.15	0.9249	1591.6	2.2

System: dimethyl sulfoxide + 1-ethyl-3-methylimidazolium tetrafluoroborate; phases: Liquid
Fixed: Pressure, kPa = 101
Fixed: Temperature, K = 298.15
Property: Excess molar enthalpy (molar enthalpy of mixing), kJ/mol (Liquid); method: 2-Drop Calorimetry
Mole fraction of 1-ethyl-3-methylimidazolium tetrafluoroborate	Excess molar enthalpy (molar enthalpy of mixing), kJ/mol	uncertainty
0.1116	-0.435	0.01
0.1785	-0.664	0.014
0.2157	-0.802	0.017
0.2854	-0.975	0.021
0.3259	-1.071	0.023
0.3981	-1.175	0.025
0.4368	-1.192	0.026
0.4852	-1.215	0.026
0.5111	-1.217	0.026
0.5729	-1.175	0.025
0.6255	-1.089	0.023
0.6899	-0.971	0.021
0.7365	-0.871	0.019
0.7943	-0.702	0.015
0.8338	-0.573	0.012
0.8896	-0.379	0.008
0.9012	-0.351	0.008
0.9258	-0.259	0.006
