Measured thermophysical data. Volumetric and compressibility behaviour of poly(propylene glycol) - Amino acid aqueous solutions at different temperatures
Source: J. Chem. Thermodyn., 2015, 10.1016/j.jct.2015.06.024
Compound 1: water, H2O, InChI=1S/H2O/h1H2
Compound 2: butan-1-ol, C4H10O, InChI=1S/C4H10O/c1-2-3-4-5/h5H,2-4H2,1H3, purity 99%
Compound 3: propan-1-ol, C3H8O, InChI=1S/C3H8O/c1-2-3-4/h4H,2-3H2,1H3, purity 99.9%
Compound 4: ethanol, C2H6O, InChI=1S/C2H6O/c1-2-3/h3H,2H2,1H3, purity 99.9%
Compound 5: L-proline, C5H9NO2, InChI=1S/C5H9NO2/c7-5(8)4-2-1-3-6-4/h4,6H,1-3H2,(H,7,8)/t4-/m0/s1, purity 99%

System: L-proline + water; phases: Liquid
Fixed: Pressure, kPa = 84.5
Property: Mass density, kg/m3 (Liquid); method: Vibrating tube method
Temperature, K	Molality, mol/kg of L-proline	Mass density, kg/m3	uncertainty
288.15	0.04355	1000.546	0.107
288.15	0.05237	1000.838	0.107
288.15	0.06122	1001.132	0.107
288.15	0.06959	1001.41	0.107
288.15	0.07882	1001.711	0.107
288.15	0.08768	1002.003	0.107
288.15	0.09661	1002.296	0.107
288.15	0.10556	1002.593	0.107
288.15	0.12342	1003.175	0.107
288.15	0.14139	1003.763	0.107
288.15	0.15911	1004.338	0.107
288.15	0.17751	1004.932	0.107
288.15	0.19549	1005.514	0.108
288.15	0.2134	1006.087	0.108
293.15	0.04355	999.631	0.107
293.15	0.05237	999.916	0.106
293.15	0.06122	1000.208	0.107
293.15	0.06959	1000.482	0.107
293.15	0.07882	1000.779	0.107
293.15	0.08768	1001.069	0.107
293.15	0.09661	1001.358	0.107
293.15	0.10556	1001.651	0.107
293.15	0.12342	1002.225	0.107
293.15	0.14139	1002.804	0.107
293.15	0.15911	1003.374	0.107
293.15	0.17751	1003.96	0.107
293.15	0.19549	1004.534	0.107
293.15	0.2134	1005.102	0.107
298.15	0.04355	998.453	0.107
298.15	0.05237	998.737	0.107
298.15	0.06122	999.025	0.107
298.15	0.06959	999.295	0.107
298.15	0.07882	999.588	0.107
298.15	0.08768	999.877	0.107
298.15	0.09661	1000.161	0.107
298.15	0.10556	1000.453	0.107
298.15	0.12342	1001.021	0.107
298.15	0.14139	1001.592	0.107
298.15	0.15911	1002.155	0.107
298.15	0.17751	1002.736	0.107
298.15	0.19549	1003.304	0.107
298.15	0.2134	1003.865	0.107
303.15	0.04355	997.041	0.107
303.15	0.05237	997.322	0.107
303.15	0.06122	997.607	0.107
303.15	0.06959	997.877	0.107
303.15	0.07882	998.167	0.107
303.15	0.08768	998.452	0.107
303.15	0.09661	998.734	0.107
303.15	0.10556	999.02	0.107
303.15	0.12342	999.585	0.107
303.15	0.14139	1000.15	0.107
303.15	0.15911	1000.708	0.107
303.15	0.17751	1001.284	0.107
303.15	0.19549	1001.846	0.107
303.15	0.2134	1002.401	0.107
308.15	0.04355	995.413	0.107
308.15	0.05237	995.693	0.107
308.15	0.06122	995.975	0.107
308.15	0.06959	996.241	0.107
308.15	0.07882	996.529	0.107
308.15	0.08768	996.813	0.107
308.15	0.09661	997.093	0.107
308.15	0.10556	997.377	0.107
308.15	0.12342	997.937	0.107
308.15	0.14139	998.498	0.107
308.15	0.15911	999.051	0.107
308.15	0.17751	999.622	0.107
308.15	0.19549	1000.179	0.107
308.15	0.2134	1000.732	0.107

System: L-proline + water; phases: Liquid
Fixed: Pressure, kPa = 84.5
Fixed: Frequency, MHz = 3
Property: Speed of sound, m/s (Liquid); method: Sing-around technique in a fixed-path interferometer
Temperature, K	Molality, mol/kg of L-proline	Speed of sound, m/s	uncertainty
288.15	0.04355	1470.27	1.22
288.15	0.05237	1470.98	1.22
288.15	0.06122	1471.74	1.22
288.15	0.06959	1472.45	1.22
288.15	0.07882	1473.22	1.22
288.15	0.08768	1473.98	1.22
288.15	0.09661	1474.7	1.22
288.15	0.10556	1475.37	1.22
288.15	0.12342	1476.81	1.22
288.15	0.14139	1478.26	1.22
288.15	0.15911	1479.79	1.22
288.15	0.17751	1481.35	1.22
288.15	0.19549	1482.79	1.22
288.15	0.2134	1484.25	1.22
293.15	0.04355	1486.12	1.22
293.15	0.05237	1486.83	1.22
293.15	0.06122	1487.56	1.22
293.15	0.06959	1488.21	1.22
293.15	0.07882	1488.94	1.22
293.15	0.08768	1489.63	1.22
293.15	0.09661	1490.32	1.22
293.15	0.10556	1490.96	1.22
293.15	0.12342	1492.34	1.22
293.15	0.14139	1493.72	1.22
293.15	0.15911	1495.17	1.22
293.15	0.17751	1496.64	1.22
293.15	0.19549	1498	1.23
293.15	0.2134	1499.36	1.23
298.15	0.04355	1500.13	1.22
298.15	0.05237	1500.81	1.22
298.15	0.06122	1501.47	1.22
298.15	0.06959	1502.1	1.22
298.15	0.07882	1502.78	1.22
298.15	0.08768	1503.46	1.22
298.15	0.09661	1504.09	1.22
298.15	0.10556	1504.71	1.22
298.15	0.12342	1506.01	1.23
298.15	0.14139	1507.31	1.23
298.15	0.15911	1508.68	1.23
298.15	0.17751	1510.08	1.23
298.15	0.19549	1511.37	1.23
298.15	0.2134	1512.64	1.23
303.15	0.04355	1512.32	1.23
303.15	0.05237	1512.94	1.23
303.15	0.06122	1513.59	1.23
303.15	0.06959	1514.17	1.23
303.15	0.07882	1514.83	1.23
303.15	0.08768	1515.44	1.23
303.15	0.09661	1516.08	1.23
303.15	0.10556	1516.67	1.23
303.15	0.12342	1517.88	1.23
303.15	0.14139	1519.14	1.23
303.15	0.15911	1520.45	1.23
303.15	0.17751	1521.78	1.23
303.15	0.19549	1523	1.23
303.15	0.2134	1524.24	1.23
308.15	0.04355	1522.83	1.23
308.15	0.05237	1523.41	1.23
308.15	0.06122	1524.05	1.23
308.15	0.06959	1524.59	1.23
308.15	0.07882	1525.22	1.23
308.15	0.08768	1525.81	1.23
308.15	0.09661	1526.38	1.23
308.15	0.10556	1526.92	1.23
308.15	0.12342	1528.11	1.23
308.15	0.14139	1529.31	1.23
308.15	0.15911	1530.57	1.23
308.15	0.17751	1531.83	1.23
308.15	0.19549	1533	1.23
308.15	0.2134	1534.14	1.23

System: butan-1-ol + water; phases: Liquid
Fixed: Pressure, kPa = 84.5
Property: Mass density, kg/m3 (Liquid); method: Vibrating tube method
Temperature, K	Molality, mol/kg of butan-1-ol	Mass density, kg/m3	uncertainty
288.15	0.01342	998.939	0.106
288.15	0.02701	998.774	0.106
288.15	0.04053	998.614	0.106
288.15	0.05431	998.455	0.106
288.15	0.06771	998.296	0.106
288.15	0.08132	998.137	0.106
288.15	0.10626	997.846	0.107
288.15	0.13583	997.518	0.107
293.15	0.01342	998.039	0.106
293.15	0.02701	997.873	0.106
293.15	0.04053	997.712	0.107
293.15	0.05431	997.552	0.107
293.15	0.06771	997.389	0.107
293.15	0.08132	997.231	0.107
293.15	0.10626	996.934	0.107
293.15	0.13583	996.602	0.107
298.15	0.01342	996.876	0.107
298.15	0.02701	996.708	0.107
298.15	0.04053	996.547	0.107
298.15	0.05431	996.384	0.107
298.15	0.06771	996.218	0.107
298.15	0.08132	996.058	0.107
298.15	0.10626	995.757	0.107
298.15	0.13583	995.417	0.107
303.15	0.01342	995.476	0.107
303.15	0.02701	995.306	0.107
303.15	0.04053	995.143	0.107
303.15	0.05431	994.976	0.107
303.15	0.06771	994.809	0.107
303.15	0.08132	994.647	0.107
303.15	0.10626	994.341	0.107
303.15	0.13583	993.998	0.107
308.15	0.01342	993.859	0.107
308.15	0.02701	993.686	0.107
308.15	0.04053	993.508	0.107
308.15	0.05431	993.352	0.107
308.15	0.06771	993.182	0.107
308.15	0.08132	992.992	0.107
308.15	0.10626	992.707	0.107
308.15	0.13583	992.357	0.107

System: butan-1-ol + water; phases: Liquid
Fixed: Pressure, kPa = 84.5
Fixed: Frequency, MHz = 3
Property: Speed of sound, m/s (Liquid); method: Sing-around technique in a fixed-path interferometer
Temperature, K	Molality, mol/kg of butan-1-ol	Speed of sound, m/s	uncertainty
288.15	0.01342	1467.59	1.22
288.15	0.02701	1468.74	1.22
288.15	0.04053	1469.9	1.22
288.15	0.05431	1470.97	1.22
288.15	0.06771	1472.07	1.22
288.15	0.08132	1473.12	1.22
288.15	0.10626	1475.12	1.22
288.15	0.13583	1477.39	1.22
293.15	0.01342	1483.6	1.22
293.15	0.02701	1484.66	1.22
293.15	0.04053	1485.68	1.22
293.15	0.05431	1486.67	1.22
293.15	0.06771	1487.67	1.22
293.15	0.08132	1488.64	1.22
293.15	0.10626	1490.46	1.22
293.15	0.13583	1492.53	1.22
298.15	0.01342	1497.73	1.22
298.15	0.02701	1498.67	1.22
298.15	0.04053	1499.62	1.22
298.15	0.05431	1500.51	1.22
298.15	0.06771	1501.4	1.22
298.15	0.08132	1502.28	1.22
298.15	0.10626	1503.97	1.22
298.15	0.13583	1505.8	1.22
303.15	0.01342	1510	1.22
303.15	0.02701	1510.86	1.22
303.15	0.04053	1511.69	1.22
303.15	0.05431	1512.51	1.23
303.15	0.06771	1513.34	1.23
303.15	0.08132	1514.14	1.23
303.15	0.10626	1515.66	1.23
303.15	0.13583	1517.36	1.23
308.15	0.01342	1520.58	1.23
308.15	0.02701	1521.35	1.23
308.15	0.04053	1522.15	1.23
308.15	0.05431	1522.87	1.23
308.15	0.06771	1523.59	1.23
308.15	0.08132	1524.39	1.23
308.15	0.10626	1525.68	1.23
308.15	0.13583	1527.22	1.23

System: propan-1-ol + water; phases: Liquid
Fixed: Pressure, kPa = 84.5
Property: Mass density, kg/m3 (Liquid); method: Vibrating tube method
Temperature, K	Molality, mol/kg of propan-1-ol	Mass density, kg/m3	uncertainty
288.15	0.01666	998.928	0.106
288.15	0.03333	998.757	0.106
288.15	0.0494	998.594	0.106
288.15	0.06674	998.419	0.106
288.15	0.08313	998.254	0.106
288.15	0.10024	998.081	0.106
288.15	0.13399	997.747	0.106
288.15	0.16617	997.429	0.106
293.15	0.01666	998.029	0.106
293.15	0.03333	997.859	0.106
293.15	0.0494	997.697	0.106
293.15	0.06674	997.52	0.106
293.15	0.08313	997.355	0.106
293.15	0.10024	997.18	0.106
293.15	0.13399	996.843	0.107
293.15	0.16617	996.526	0.107
298.15	0.01666	996.868	0.107
298.15	0.03333	996.698	0.107
298.15	0.0494	996.534	0.107
298.15	0.06674	996.356	0.107
298.15	0.08313	996.19	0.107
298.15	0.10024	996.013	0.107
298.15	0.13399	995.676	0.107
298.15	0.16617	995.356	0.107
303.15	0.01666	995.468	0.107
303.15	0.03333	995.295	0.107
303.15	0.0494	995.132	0.107
303.15	0.06674	994.954	0.107
303.15	0.08313	994.787	0.107
303.15	0.10024	994.609	0.107
303.15	0.13399	994.267	0.107
303.15	0.16617	993.945	0.107
308.15	0.01666	993.851	0.107
308.15	0.03333	993.677	0.107
308.15	0.0494	993.506	0.107
308.15	0.06674	993.328	0.107
308.15	0.08313	993.156	0.107
308.15	0.10024	992.983	0.107
308.15	0.13399	992.634	0.107
308.15	0.16617	992.305	0.107

System: propan-1-ol + water; phases: Liquid
Fixed: Pressure, kPa = 84.5
Fixed: Frequency, MHz = 3
Property: Speed of sound, m/s (Liquid); method: Sing-around technique in a fixed-path interferometer
Temperature, K	Molality, mol/kg of propan-1-ol	Speed of sound, m/s	uncertainty
288.15	0.01666	1467.6	1.22
288.15	0.03333	1468.6	1.22
288.15	0.0494	1469.54	1.22
288.15	0.06674	1470.63	1.22
288.15	0.08313	1471.71	1.22
288.15	0.10024	1472.71	1.22
288.15	0.13399	1474.77	1.22
288.15	0.16617	1476.75	1.22
293.15	0.01666	1483.54	1.22
293.15	0.03333	1484.5	1.22
293.15	0.0494	1485.39	1.22
293.15	0.06674	1486.39	1.22
293.15	0.08313	1487.33	1.22
293.15	0.10024	1488.29	1.22
293.15	0.13399	1490.14	1.22
293.15	0.16617	1491.9	1.22
298.15	0.01666	1497.65	1.22
298.15	0.03333	1498.55	1.22
298.15	0.0494	1499.35	1.22
298.15	0.06674	1500.27	1.22
298.15	0.08313	1501.11	1.22
298.15	0.10024	1501.96	1.22
298.15	0.13399	1503.63	1.22
298.15	0.16617	1505.26	1.22
303.15	0.01666	1509.94	1.22
303.15	0.03333	1510.72	1.22
303.15	0.0494	1511.49	1.22
303.15	0.06674	1512.3	1.22
303.15	0.08313	1513.06	1.22
303.15	0.10024	1513.82	1.22
303.15	0.13399	1515.36	1.22
303.15	0.16617	1516.94	1.23
308.15	0.01666	1520.55	1.23
308.15	0.03333	1521.3	1.23
308.15	0.0494	1521.93	1.23
308.15	0.06674	1522.66	1.23
308.15	0.08313	1523.34	1.23
308.15	0.10024	1524.04	1.23
308.15	0.13399	1525.43	1.23
308.15	0.16617	1526.81	1.23

System: ethanol + water; phases: Liquid
Fixed: Pressure, kPa = 84.5
Property: Mass density, kg/m3 (Liquid); method: Vibrating tube method
Temperature, K	Molality, mol/kg of ethanol	Mass density, kg/m3	uncertainty
288.15	0.02159	998.9	0.106
288.15	0.04347	998.707	0.106
288.15	0.06495	998.526	0.106
288.15	0.08646	998.318	0.106
288.15	0.10866	998.132	0.106
288.15	0.13061	997.942	0.106
288.15	0.1749	997.562	0.106
288.15	0.21882	997.195	0.106
293.15	0.02159	998.003	0.106
293.15	0.04347	997.81	0.106
293.15	0.06495	997.632	0.106
293.15	0.08646	997.424	0.106
293.15	0.10866	997.24	0.106
293.15	0.13061	997.051	0.106
293.15	0.1749	996.671	0.107
293.15	0.21882	996.303	0.107
298.15	0.02159	996.845	0.107
298.15	0.04347	996.654	0.107
298.15	0.06495	996.474	0.107
298.15	0.08646	996.265	0.107
298.15	0.10866	996.081	0.107
298.15	0.13061	995.892	0.107
298.15	0.1749	995.508	0.107
298.15	0.21882	995.144	0.107
303.15	0.02159	995.446	0.107
303.15	0.04347	995.257	0.107
303.15	0.06495	995.076	0.107
303.15	0.08646	994.87	0.107
303.15	0.10866	994.683	0.107
303.15	0.13061	994.494	0.107
303.15	0.1749	994.111	0.107
303.15	0.21882	993.747	0.107
308.15	0.02159	993.829	0.107
308.15	0.04347	993.639	0.107
308.15	0.06495	993.46	0.107
308.15	0.08646	993.243	0.107
308.15	0.10866	993.05	0.107
308.15	0.13061	992.873	0.107
308.15	0.1749	992.498	0.107
308.15	0.21882	992.123	0.107

System: ethanol + water; phases: Liquid
Fixed: Pressure, kPa = 84.5
Fixed: Frequency, MHz = 3
Property: Speed of sound, m/s (Liquid); method: Sing-around technique in a fixed-path interferometer
Temperature, K	Molality, mol/kg of ethanol	Speed of sound, m/s	uncertainty
288.15	0.02159	1467.43	1.22
288.15	0.04347	1468.25	1.22
288.15	0.06495	1469.09	1.22
288.15	0.08646	1470.02	1.22
288.15	0.10866	1470.85	1.22
288.15	0.13061	1471.71	1.22
288.15	0.1749	1473.44	1.22
288.15	0.21882	1475.05	1.22
293.15	0.02159	1483.38	1.22
293.15	0.04347	1484.2	1.22
293.15	0.06495	1484.95	1.22
293.15	0.08646	1485.8	1.22
293.15	0.10866	1486.55	1.22
293.15	0.13061	1487.33	1.22
293.15	0.1749	1488.87	1.22
293.15	0.21882	1490.38	1.22
298.15	0.02159	1497.5	1.22
298.15	0.04347	1498.25	1.22
298.15	0.06495	1498.93	1.22
298.15	0.08646	1499.71	1.22
298.15	0.10866	1500.38	1.22
298.15	0.13061	1501.09	1.22
298.15	0.1749	1502.46	1.22
298.15	0.21882	1503.85	1.22
303.15	0.02159	1509.79	1.22
303.15	0.04347	1510.47	1.22
303.15	0.06495	1511.1	1.22
303.15	0.08646	1511.74	1.22
303.15	0.10866	1512.38	1.22
303.15	0.13061	1513.01	1.22
303.15	0.1749	1514.25	1.22
303.15	0.21882	1515.48	1.22
308.15	0.02159	1520.37	1.23
308.15	0.04347	1521.01	1.23
308.15	0.06495	1521.58	1.23
308.15	0.08646	1522.16	1.23
308.15	0.10866	1522.75	1.23
308.15	0.13061	1523.3	1.23
308.15	0.1749	1524.38	1.23
308.15	0.21882	1525.49	1.23
