Measured thermophysical data. Phase equilibria for ternary liquid systems of (water + levulinic acid + cyclic solvent) at T = 298.2 K: Thermodynamic modeling
Source: J. Chem. Thermodyn., 2005, 10.1016/j.jct.2005.01.014
Compound 1: cyclohexanone, C6H10O, InChI=1S/C6H10O/c7-6-4-2-1-3-5-6/h1-5H2
Compound 2: cyclohexyl ethanoate, C8H14O2, InChI=1S/C8H14O2/c1-7(9)10-8-5-3-2-4-6-8/h8H,2-6H2,1H3
Compound 3: 4-oxopentanoic acid, C5H8O3, InChI=1S/C5H8O3/c1-4(6)2-3-5(7)8/h2-3H2,1H3,(H,7,8)
Compound 4: water, H2O, InChI=1S/H2O/h1H2

System: cyclohexanone + water; phases: Liquid mixture 1, Liquid mixture 2
Property: Mass fraction of water (Liquid mixture 1); method: TITR:UFactor:4
Pressure, kPa	Temperature, K	Mass fraction of water	uncertainty
101.35	298.2	0.9115	0.0055

System: cyclohexanone + water; phases: Liquid mixture 2, Liquid mixture 1
Property: Mass fraction of water (Liquid mixture 2); method: TITR:UFactor:4
Temperature, K	Pressure, kPa	Mass fraction of water	uncertainty
298.2	101.35	0.0596	0.0074

System: cyclohexyl ethanoate + water; phases: Liquid mixture 1, Liquid mixture 2
Property: Mass fraction of water (Liquid mixture 1); method: TITR:UFactor:4
Temperature, K	Pressure, kPa	Mass fraction of water	uncertainty
298.2	101.35	0.998	0.002

System: cyclohexyl ethanoate + water; phases: Liquid mixture 2, Liquid mixture 1
Property: Mass fraction of water (Liquid mixture 2); method: TITR:UFactor:4
Temperature, K	Pressure, kPa	Mass fraction of water	uncertainty
298.2	101.35	0.0056	0.0021

System: cyclohexanone + 4-oxopentanoic acid + water; phases: Liquid mixture 1, Liquid mixture 2
Fixed: Pressure, kPa = 101.35
Fixed: Temperature, K = 298.2
Property: Mass fraction of 4-oxopentanoic acid (Liquid mixture 1); method: TITR:UFactor:4
Property: Mass fraction of water (Liquid mixture 2); method: TITR:UFactor:4
Property: Mass fraction of 4-oxopentanoic acid (Liquid mixture 2); method: TITR:UFactor:4
Mass fraction of water	Mass fraction of 4-oxopentanoic acid	uncertainty	Mass fraction of water	uncertainty	Mass fraction of 4-oxopentanoic acid	uncertainty
0.9115	0	0.0001	0.0596	0.0074	0	
0.8655	0.058	0.0074	0.0526	0.0065	0.0212	
0.7733	0.1377	0.0171	0.0605	0.0075	0.0578	
0.6779	0.2091	0.026	0.0883	0.011	0.1037	
0.5644	0.2945	0.0365	0.1194	0.0148	0.162	

System: 4-oxopentanoic acid + cyclohexyl ethanoate + water; phases: Liquid mixture 1, Liquid mixture 2
Fixed: Temperature, K = 298.2
Fixed: Pressure, kPa = 101.35
Property: Mass fraction of 4-oxopentanoic acid (Liquid mixture 1); method: TITR:UFactor:4
Property: Mass fraction of water (Liquid mixture 2); method: TITR:UFactor:4
Property: Mass fraction of 4-oxopentanoic acid (Liquid mixture 2); method: TITR:UFactor:4
Mass fraction of water	Mass fraction of 4-oxopentanoic acid	uncertainty	Mass fraction of water	uncertainty	Mass fraction of 4-oxopentanoic acid	uncertainty
0.998	0	0.0001	0.0056	0.0021	0	
0.9231	0.0625	0.0079	0.075	0.0094	0.0465	
0.8354	0.1434	0.0179	0.0848	0.0105	0.1126	
0.7203	0.2502	0.0311	0.0961	0.0119	0.2142	
0.617	0.3473	0.0431	0.112	0.0139	0.3157	
0.507	0.434	0.0538	0.1585	0.0197	0.4232	
