Measured thermophysical data. Solubility of gases in fluoroorganic alcohols. Part III. Solubilities of several non-polar gases in water + 1,1,1,3,3,3-hexafluoropropan-2-ol at 298.15 K and 101.33 kPa
Source: J. Chem. Thermodyn., 2019, 10.1016/j.jct.2018.12.027
Compound 1: water, H2O, InChI=1S/H2O/h1H2, purity 99.9%
Compound 2: 1,1,1,3,3,3-hexafluoro-2-propanol, C3H2F6O, InChI=1S/C3H2F6O/c4-2(5,6)1(10)3(7,8)9/h1,10H, purity 99%
Compound 3: hydrogen, H2, InChI=1S/H2/h1H, purity 99.99%
Compound 4: nitrogen, N2, InChI=1S/N2/c1-2, purity 99.998%
Compound 5: oxygen, O2, InChI=1S/O2/c1-2, purity 99.98%
Compound 6: methane, CH4, InChI=1S/CH4/h1H4, purity 99.95%
Compound 7: ethane, C2H6, InChI=1S/C2H6/c1-2/h1-2H3, purity 99%
Compound 8: ethene, C2H4, InChI=1S/C2H4/c1-2/h1-2H2, purity 99.9%
Compound 9: tetrafluoromethane, CF4, InChI=1S/CF4/c2-1(3,4)5, purity 99%
Compound 10: sulfur hexafluoride, F6S, InChI=1S/F6S/c1-7(2,3,4,5)6, purity 99.5%
Compound 11: carbon dioxide, CO2, InChI=1S/CO2/c2-1-3, purity 99.98%

System: water + 1,1,1,3,3,3-hexafluoro-2-propanol + hydrogen; phases: Liquid, Gas
Fixed: Temperature, K = 298.15
Property: Mole fraction of hydrogen (Liquid); method: volumetric method
Solvent: Mole fraction of 1,1,1,3,3,3-hexafluoro-2-propanol	Pressure, kPa	Mole fraction of hydrogen	uncertainty
0.0194	100.86	1.462e-05	3.2e-07
0.0419	99.74	1.923e-05	4.7e-07
0.069	100.79	2.73e-05	6.7e-07
0.1035	101.11	3.492e-05	8.9e-07
0.146	100.74	4.706e-05	1.23e-06
0.2038	99.57	6.556e-05	2.08e-06
0.2858	98	9.2e-05	3.04e-06
0.4102	100.39	0.0001439	3.5e-06
0.6082	99.75	0.0002331	4.2e-06
0.8057	101.75	0.0003453	4.3e-06

System: water + 1,1,1,3,3,3-hexafluoro-2-propanol + hydrogen; phases: Liquid
Fixed: Temperature, K = 298.15
Property: Mass density, kg/m3 (Liquid); method: Vibrating tube method
Solvent: Mole fraction of 1,1,1,3,3,3-hexafluoro-2-propanol	Pressure, kPa	Mole fraction of hydrogen	Mass density, kg/m3	uncertainty
0.0194	100.86	1.462e-05	1067.53	6.41
0.0419	99.74	1.923e-05	1134.27	6.81
0.069	100.79	2.73e-05	1199.19	7.2
0.1035	101.11	3.492e-05	1263.83	7.59
0.146	100.74	4.706e-05	1324.81	7.95
0.2038	99.57	6.556e-05	1386.27	8.32
0.2858	98	9.2e-05	1446.71	8.69
0.4102	100.39	0.0001439	1503.03	9.02
0.6082	99.75	0.0002331	1552.83	9.32
0.8057	101.75	0.0003453	1582.71	9.5

System: water + 1,1,1,3,3,3-hexafluoro-2-propanol + nitrogen; phases: Liquid, Gas
Fixed: Temperature, K = 298.15
Property: Mole fraction of nitrogen (Liquid); method: volumetric method
Solvent: Mole fraction of 1,1,1,3,3,3-hexafluoro-2-propanol	Pressure, kPa	Mole fraction of nitrogen	uncertainty
0.0191	100.96	1.285e-05	3.3e-07
0.0415	99.84	2.08e-05	6.8e-07
0.0685	99.54	3.596e-05	1.08e-06
0.1028	101.16	5.634e-05	1.64e-06
0.1453	101.26	8.472e-05	2.63e-06
0.2036	100.35	0.000129	3.8e-06
0.2848	100.51	0.0002009	7.9e-06
0.4091	101.3	0.0003373	1.16e-05
0.6104	113.83	0.0006742	1.17e-05
0.8047	102.41	0.0008936	1.16e-05

System: water + 1,1,1,3,3,3-hexafluoro-2-propanol + nitrogen; phases: Liquid
Fixed: Temperature, K = 298.15
Property: Mass density, kg/m3 (Liquid); method: Vibrating tube method
Solvent: Mole fraction of 1,1,1,3,3,3-hexafluoro-2-propanol	Pressure, kPa	Mole fraction of nitrogen	Mass density, kg/m3	uncertainty
0.0191	100.96	1.285e-05	1066.39	6.4
0.0415	99.84	2.08e-05	1133.3	6.8
0.0685	99.54	3.596e-05	1198.05	7.19
0.1028	101.16	5.634e-05	1262.61	7.58
0.1453	101.26	8.472e-05	1323.9	7.95
0.2036	100.35	0.000129	1386.08	8.32
0.2848	100.51	0.0002009	1446.12	8.68
0.4091	101.3	0.0003373	1502.65	9.02
0.6104	113.83	0.0006742	1553.24	9.33
0.8047	102.41	0.0008936	1582.58	9.5

System: water + 1,1,1,3,3,3-hexafluoro-2-propanol + oxygen; phases: Liquid, Gas
Fixed: Temperature, K = 298.15
Property: Mole fraction of oxygen (Liquid); method: volumetric method
Solvent: Mole fraction of 1,1,1,3,3,3-hexafluoro-2-propanol	Pressure, kPa	Mole fraction of oxygen	uncertainty
0.0185	100.47	2.443e-05	7.6e-07
0.0422	98.84	3.737e-05	1.43e-06
0.0691	99.91	5.778e-05	1.73e-06
0.1032	100.83	8.624e-05	3.13e-06
0.1457	102.11	0.0001287	3.9e-06
0.2045	100.02	0.0001881	6.2e-06
0.2844	100.32	0.0002856	8.3e-06
0.4088	100.6	0.0004702	1.45e-05
0.6137	100.15	0.0008157	1.57e-05
0.8055	100.82	0.001157	1.5e-05

System: water + 1,1,1,3,3,3-hexafluoro-2-propanol + oxygen; phases: Liquid
Fixed: Temperature, K = 298.15
Property: Mass density, kg/m3 (Liquid); method: Vibrating tube method
Solvent: Mole fraction of 1,1,1,3,3,3-hexafluoro-2-propanol	Pressure, kPa	Mole fraction of oxygen	Mass density, kg/m3	uncertainty
0.0185	100.47	2.443e-05	1064.45	6.39
0.0422	98.84	3.737e-05	1135.1	6.81
0.0691	99.91	5.778e-05	1199.36	7.2
0.1032	100.83	8.624e-05	1263.3	7.58
0.1457	102.11	0.0001287	1324.41	7.95
0.2045	100.02	0.0001881	1386.89	8.33
0.2844	100.32	0.0002856	1445.83	8.68
0.4088	100.6	0.0004702	1502.53	9.02
0.6137	100.15	0.0008157	1553.83	9.33
0.8055	100.82	0.001157	1582.68	9.5

System: water + 1,1,1,3,3,3-hexafluoro-2-propanol + methane; phases: Liquid, Gas
Fixed: Temperature, K = 298.15
Property: Mole fraction of methane (Liquid); method: volumetric method
Solvent: Mole fraction of 1,1,1,3,3,3-hexafluoro-2-propanol	Pressure, kPa	Mole fraction of methane	uncertainty
0.0194	100.65	2.698e-05	6.6e-07
0.0417	100.82	4.243e-05	1.18e-06
0.0688	99.94	6.46e-05	2.17e-06
0.1026	100.74	9.877e-05	2.81e-06
0.1347	103.18	0.0001387	5.3e-06
0.2046	101.13	0.000224	6.7e-06
0.2864	101.06	0.0003464	9.5e-06
0.3777	106.75	0.0005367	1.08e-05
0.6187	100.06	0.001007	1.7e-05
0.8082	100.87	0.001434	1.8e-05

System: water + 1,1,1,3,3,3-hexafluoro-2-propanol + methane; phases: Liquid
Fixed: Temperature, K = 298.15
Property: Mass density, kg/m3 (Liquid); method: Vibrating tube method
Solvent: Mole fraction of 1,1,1,3,3,3-hexafluoro-2-propanol	Pressure, kPa	Mole fraction of methane	Mass density, kg/m3	uncertainty
0.0194	100.65	2.698e-05	1067.52	6.41
0.0417	100.82	4.243e-05	1133.91	6.81
0.0688	99.94	6.46e-05	1198.78	7.2
0.1026	100.74	9.877e-05	1262.31	7.58
0.1347	103.18	0.0001387	1310.13	7.86
0.2046	101.13	0.000224	1387.04	8.33
0.2864	101.06	0.0003464	1447.01	8.69
0.3777	106.75	0.0005367	1491.1	8.95
0.6187	100.06	0.001007	1554.72	9.33
0.8082	100.87	0.001434	1583.05	9.51

System: water + 1,1,1,3,3,3-hexafluoro-2-propanol + ethane; phases: Liquid, Gas
Fixed: Temperature, K = 298.15
Property: Mole fraction of ethane (Liquid); method: volumetric method
Solvent: Mole fraction of 1,1,1,3,3,3-hexafluoro-2-propanol	Pressure, kPa	Mole fraction of ethane	uncertainty
0.0189	100.45	3.84e-05	1.27e-06
0.042	99.66	7.479e-05	3.69e-06
0.0688	100.21	0.0001434	5.9e-06
0.1028	100.34	0.0002411	8.5e-06
0.1462	102.17	0.0003991	1.79e-05
0.2028	100.3	0.0006751	1.92e-05
0.2876	99.57	0.001024	2.5e-05
0.4167	100.73	0.001834	6.2e-05
0.6132	100.45	0.003245	6.7e-05
0.8175	98.65	0.004619	5.9e-05

System: water + 1,1,1,3,3,3-hexafluoro-2-propanol + ethane; phases: Liquid
Fixed: Temperature, K = 298.15
Property: Mass density, kg/m3 (Liquid); method: Vibrating tube method
Solvent: Mole fraction of 1,1,1,3,3,3-hexafluoro-2-propanol	Pressure, kPa	Mole fraction of ethane	Mass density, kg/m3	uncertainty
0.0189	100.45	3.84e-05	1065.86	6.4
0.042	99.66	7.479e-05	1134.53	6.81
0.0688	100.21	0.0001434	1198.7	7.2
0.1028	100.34	0.0002411	1262.65	7.58
0.1462	102.17	0.0003991	1324.97	7.96
0.2028	100.3	0.0006751	1385.37	8.32
0.2876	99.57	0.001024	1447.72	8.7
0.4167	100.73	0.001834	1505.21	9.04
0.6132	100.45	0.003245	1553.72	9.33
0.8175	98.65	0.004619	1584.26	9.52

System: water + 1,1,1,3,3,3-hexafluoro-2-propanol + ethene; phases: Liquid, Gas
Fixed: Temperature, K = 298.15
Property: Mole fraction of ethene (Liquid); method: volumetric method
Solvent: Mole fraction of 1,1,1,3,3,3-hexafluoro-2-propanol	Pressure, kPa	Mole fraction of ethene	uncertainty
0.0186	100.65	9.8e-05	4.27e-06
0.042	99.69	0.0001664	8.9e-06
0.0696	100.08	0.0002858	7.8e-06
0.1023	100.9	0.0004476	1.69e-05
0.1467	100.09	0.0006849	1.71e-05
0.204	100.18	0.001045	2.6e-05
0.2848	100.52	0.001687	5.8e-05
0.4135	100.53	0.002922	8.7e-05
0.6192	99.64	0.005312	9.1e-05
0.8376	98.7	0.007724	9.3e-05

System: water + 1,1,1,3,3,3-hexafluoro-2-propanol + ethene; phases: Liquid
Fixed: Temperature, K = 298.15
Property: Mass density, kg/m3 (Liquid); method: Vibrating tube method
Solvent: Mole fraction of 1,1,1,3,3,3-hexafluoro-2-propanol	Pressure, kPa	Mole fraction of ethene	Mass density, kg/m3	uncertainty
0.0186	100.65	9.8e-05	1064.88	6.39
0.042	99.69	0.0001664	1134.59	6.81
0.0696	100.08	0.0002858	1200.42	7.21
0.1023	100.9	0.0004476	1261.77	7.57
0.1467	100.09	0.0006849	1325.6	7.96
0.204	100.18	0.001045	1386.45	8.32
0.2848	100.52	0.001687	1446.05	8.68
0.4135	100.53	0.002922	1504.11	9.03
0.6192	99.64	0.005312	1554.75	9.34
0.8376	98.7	0.007724	1586.85	9.53

System: water + 1,1,1,3,3,3-hexafluoro-2-propanol + tetrafluoromethane; phases: Liquid, Gas
Fixed: Temperature, K = 298.15
Property: Mole fraction of tetrafluoromethane (Liquid); method: volumetric method
Solvent: Mole fraction of 1,1,1,3,3,3-hexafluoro-2-propanol	Pressure, kPa	Mole fraction of tetrafluoromethane	uncertainty
0.0186	101	5.33e-06	5.3e-07
0.0419	99.29	1.77e-05	2.3e-06
0.0682	100.11	4.331e-05	2.53e-06
0.103	100.42	8.28e-05	4.1e-06
0.1461	100.85	0.0001393	3.5e-06
0.2008	100.68	0.0002303	5.8e-06
0.289	100.4	0.0004057	1.14e-05
0.4116	101.17	0.0007477	1.74e-05
0.623	99.51	0.001502	2.6e-05
0.8154	99.24	0.00231	4.2e-05

System: water + 1,1,1,3,3,3-hexafluoro-2-propanol + tetrafluoromethane; phases: Liquid
Fixed: Temperature, K = 298.15
Property: Mass density, kg/m3 (Liquid); method: Vibrating tube method
Solvent: Mole fraction of 1,1,1,3,3,3-hexafluoro-2-propanol	Pressure, kPa	Mole fraction of tetrafluoromethane	Mass density, kg/m3	uncertainty
0.0186	101	5.33e-06	1064.95	6.39
0.0419	99.29	1.77e-05	1134.44	6.81
0.0682	100.11	4.331e-05	1197.43	7.19
0.103	100.42	8.28e-05	1262.93	7.58
0.1461	100.85	0.0001393	1324.84	7.96
0.2008	100.68	0.0002303	1383.54	8.31
0.289	100.4	0.0004057	1448.55	8.7
0.4116	101.17	0.0007477	1503.52	9.03
0.623	99.51	0.001502	1555.48	9.35
0.8154	99.24	0.00231	1583.99	9.52

System: water + 1,1,1,3,3,3-hexafluoro-2-propanol + sulfur hexafluoride; phases: Liquid, Gas
Fixed: Temperature, K = 298.15
Property: Mole fraction of sulfur hexafluoride (Liquid); method: volumetric method
Solvent: Mole fraction of 1,1,1,3,3,3-hexafluoro-2-propanol	Pressure, kPa	Mole fraction of sulfur hexafluoride	uncertainty
0.0191	100.39	6.65e-06	1.4e-07
0.0418	99.22	5.054e-05	1.05e-06
0.0701	99.99	0.0001485	1.7e-06
0.1024	101.11	0.0002924	3.4e-06
0.1452	100.33	0.0005083	5.8e-06
0.1994	100.67	0.0008421	9.7e-06
0.287	101	0.001589	1.8e-05
0.4147	100.83	0.003134	3.6e-05
0.6158	101.07	0.006508	7.5e-05
0.8376	97.28	0.01039	0.00012

System: water + 1,1,1,3,3,3-hexafluoro-2-propanol + sulfur hexafluoride; phases: Liquid
Fixed: Temperature, K = 298.15
Property: Mass density, kg/m3 (Liquid); method: Vibrating tube method
Solvent: Mole fraction of 1,1,1,3,3,3-hexafluoro-2-propanol	Pressure, kPa	Mole fraction of sulfur hexafluoride	Mass density, kg/m3	uncertainty
0.0191	100.39	6.65e-06	1066.47	6.4
0.0418	99.22	5.054e-05	1134.12	6.81
0.0701	99.99	0.0001485	1201.48	7.21
0.1024	101.11	0.0002924	1261.89	7.58
0.1452	100.33	0.0005083	1323.73	7.95
0.1994	100.67	0.0008421	1382.24	8.3
0.287	101	0.001589	1447.37	8.69
0.4147	100.83	0.003134	1504.53	9.03
0.6158	101.07	0.006508	1554.17	9.33
0.8376	97.28	0.01039	1586.83	9.53

System: water + 1,1,1,3,3,3-hexafluoro-2-propanol + carbon dioxide; phases: Liquid, Gas
Fixed: Temperature, K = 298.15
Property: Mole fraction of carbon dioxide (Liquid); method: volumetric method
Solvent: Mole fraction of 1,1,1,3,3,3-hexafluoro-2-propanol	Pressure, kPa	Mole fraction of carbon dioxide	uncertainty
0.0193	101.74	0.0006548	1.19e-05
0.0421	98.57	0.0008451	1.81e-05
0.0684	99.49	0.00116	2.8e-05
0.1014	100.72	0.001637	3.8e-05
0.146	100.48	0.002233	5.5e-05
0.2041	100.38	0.003214	7.7e-05
0.2856	100.49	0.004665	0.000117
0.4251	101.19	0.007502	0.000177
0.6429	99.33	0.01146	0.00018
0.8605	96.2	0.014	0.00017

System: water + 1,1,1,3,3,3-hexafluoro-2-propanol + carbon dioxide; phases: Liquid
Fixed: Temperature, K = 298.15
Property: Mass density, kg/m3 (Liquid); method: Vibrating tube method
Solvent: Mole fraction of 1,1,1,3,3,3-hexafluoro-2-propanol	Pressure, kPa	Mole fraction of carbon dioxide	Mass density, kg/m3	uncertainty
0.0193	101.74	0.0006548	1067.03	6.4
0.0421	98.57	0.0008451	1134.96	6.81
0.0684	99.49	0.00116	1197.71	7.19
0.1014	100.72	0.001637	1260.11	7.56
0.146	100.48	0.002233	1324.74	7.95
0.2041	100.38	0.003214	1386.44	8.32
0.2856	100.49	0.004665	1446.48	8.68
0.4251	101.19	0.007502	1507.95	9.05
0.6429	99.33	0.01146	1558.81	9.36
0.8605	96.2	0.014	1589.62	9.54
