Measured thermophysical data. Calorimetric study of polymorphism in 1-butyl-3-methylimidazolium hexafluorophosphate
Source: J. Chem. Thermodyn., 2016, 10.1016/j.jct.2016.07.012
Compound 1: 1-butyl-3-methylimidazolium hexafluorophosphate, C8H15F6N2P, InChI=1S/C8H15N2.F6P/c1-3-4-5-10-7-6-9(2)8-10;1-7(2,3,4,5)6/h6-8H,3-5H2,1-2H3;/q+1;-1, purity 99%

System: 1-butyl-3-methylimidazolium hexafluorophosphate; phases: Crystal, Liquid, Gas
Property: Triple point temperature, K (Crystal); method: Adiabatic calorimetry
Triple point temperature, K	uncertainty
283.55	0.05

System: 1-butyl-3-methylimidazolium hexafluorophosphate; phases: Liquid
Fixed: Pressure, kPa = 101.325
Property: Molar heat capacity at constant pressure, J/K/mol (Liquid); method: Small (less than 1 g) adiabatic calorimetry
Temperature, K	Molar heat capacity at constant pressure, J/K/mol	uncertainty
286.27	400.3	2
287.99	401.2	2.1
289.7	402.1	2.1
291.41	403	2.1
293.12	404	2.1
294.83	405.1	2.1
296.54	405.8	2.1
298.25	406.9	2.1
299.96	407.8	2.1
301.71	409.1	2.1
303.52	410.1	2.1
305.33	411	2.1
307.14	412	2.1
308.95	412.9	2.1
310.75	414	2.1
312.56	415.1	2.1
314.36	415.8	2.1
316.16	417	2.1
317.97	418	2.1
319.77	419.2	2.1
321.57	420.1	2.1
323.38	421	2.1
325.18	422	2.2
326.98	423.2	2.2
328.78	423.9	2.2
330.59	425	2.2
332.39	426.1	2.2
334.19	427.2	2.2
335.99	428.2	2.2
337.79	429.2	2.2
339.59	430.2	2.2
341.39	431.1	2.2
343.18	432.1	2.2
344.98	433.1	2.2
346.78	434.1	2.2
348.58	435.2	2.2
350.38	436.3	2.2
352.18	437.4	2.2
353.99	438.3	2.2
355.79	439.3	2.2
357.59	440.3	2.2
359.4	441.1	2.2
361.2	442.4	2.3
363	443.4	2.3
364.81	444.5	2.3
366.61	445.6	2.3
368.41	446.3	2.3

System: 1-butyl-3-methylimidazolium hexafluorophosphate; phases: Metastable crystal
Fixed: Pressure, kPa = 101.325
Property: Molar heat capacity at constant pressure, J/K/mol (Metastable crystal); method: Small (less than 1 g) adiabatic calorimetry
Temperature, K	Molar heat capacity at constant pressure, J/K/mol	uncertainty
5.14	2.42	0.07
5.39	2.76	0.08
5.74	3.28	0.09
6.1	3.85	0.1
6.54	4.59	0.11
7.06	5.54	0.13
7.59	6.57	0.15
8.12	7.67	0.17
8.66	8.84	0.19
9.2	10.06	0.21
9.75	11.33	0.23
10.36	12.83	0.24
11.05	14.53	0.27
11.75	16.3	0.29
12.45	18.11	0.3
13.16	19.96	0.32
13.87	21.84	0.34
14.59	23.69	0.35
15.31	25.67	0.36
16.14	28.07	0.37
17.09	30.62	0.37
18.04	33.1	0.37
18.99	35.56	0.37
19.94	37.99	0.37
21.2	41.25	0.39
22.78	45.26	0.41
24.36	49.25	0.42
25.94	53.1	0.43
27.42	56.44	0.44
28.99	60	0.44
30.59	63.64	0.39
32.36	67.48	0.41
34.28	71.38	0.43
36.21	75.09	0.45
38.14	78.66	0.47
40.07	82.09	0.49
42.09	85.6	0.51
44.21	89.2	0.53
46.33	92.75	0.55
48.45	96.18	0.56
50.58	99.47	0.58
52.71	102.6	0.6
54.84	105.6	0.6
56.97	108.5	0.6
59.11	111.3	0.6
61.24	114	0.7
63.37	116.6	0.7
65.51	119.2	0.7
67.65	121.8	0.7
69.79	124.4	0.7
72.04	127	0.7
74.39	129.8	0.7
76.74	132.5	0.8
79.09	135.1	0.8
81.45	137.7	0.8
83.81	140.2	0.8
78.34	134.5	0.8
80.13	136.3	0.8
81.8	138.1	0.8
83.48	139.8	0.8
85.17	141.6	0.8
86.86	143.5	0.8
88.56	145.3	0.8
90.27	147.2	0.8
91.99	149	0.8
93.71	150.9	0.8
95.45	152.7	0.8
97.19	154.7	0.8
98.94	156.5	0.9
100.69	158.4	0.9
102.5	160.3	0.9
104.38	162.4	0.9
106.27	164.4	0.9
108.17	166.5	0.9
110.06	168.6	0.9
111.96	170.7	0.9
113.86	172.8	0.9
115.77	174.9	0.9
117.68	177.1	1
119.59	179.2	1
121.5	181.4	1
123.41	183.7	1
125.32	185.9	1
127.23	188.2	1
129.15	190.5	1
131.06	192.8	1
132.97	195.1	1
134.88	197.5	1.1
136.8	199.9	1.1
138.71	202.4	1.1
140.62	204.8	1.1
142.52	207.4	1.1
144.42	209.9	1.1
146.33	212.5	1.1
148.23	215.1	1.1
150.13	217.7	1.2
152.02	220.4	1.2
153.91	223.1	1.2
155.79	225.9	1.2
157.67	228.7	1.2
159.55	231.5	1.2
161.42	234.4	1.2
163.29	237.3	1.3
165.15	240.3	1.3
167.01	243.2	1.3
168.87	246.3	1.3
170.71	249.4	1.3
172.55	252.6	1.3
174.39	256.1	1.3
176.22	258.9	1.4
178.04	260.8	1.4
179.86	263.5	1.4
181.68	266.1	1.4
183.5	268.6	1.4
185.31	270.9	1.4
187.12	273	1.4
188.92	274.8	1.4
190.72	276.4	1.4
192.53	277.7	1.4
194.33	278.7	1.5
196.13	279.3	1.5
197.94	279.8	1.5
199.74	280	1.5
201.61	280.4	1.5
203.54	280.7	1.5
205.47	281	1.5
207.4	281.3	1.5
209.34	281.8	1.5
211.28	282.5	1.5
213.22	283.4	1.5
215.16	284.4	1.5
217.1	285.1	1.5
219.04	285.7	1.5
220.98	286.7	1.5
222.93	287.8	1.5
224.86	288.7	1.5
226.9	290	1.5
228.84	291.1	1.5
230.78	292	1.5
232.72	293	1.5
234.67	294.1	1.5
236.61	295.2	1.5
238.55	296.3	1.5
240.49	298.3	1.5
242.43	299.6	1.6

System: 1-butyl-3-methylimidazolium hexafluorophosphate; phases: Metastable crystal
Fixed: Pressure, kPa = 101.325
Property: Molar heat capacity at constant pressure, J/K/mol (Metastable crystal); method: Small (less than 1 g) adiabatic calorimetry
Temperature, K	Molar heat capacity at constant pressure, J/K/mol	uncertainty
5.39	1.64	0.05
5.67	1.92	0.06
6.01	2.31	0.07
6.43	2.83	0.08
6.93	3.51	0.09
7.43	4.3	0.1
7.94	5.16	0.12
8.46	6.12	0.14
8.98	7.15	0.16
9.51	8.25	0.17
10.05	9.41	0.19
10.66	10.82	0.21
11.34	12.43	0.23
12.02	14.11	0.24
12.71	15.86	0.27
13.41	17.66	0.28
14.11	19.5	0.29
14.82	21.33	0.3
15.64	23.71	0.33
16.58	26.38	0.34
17.53	28.96	0.35
18.47	31.53	0.35
19.42	34.1	0.36
20.38	36.68	0.36
21.63	40.09	0.38
23.2	44.28	0.4
24.78	48.5	0.41
26.36	52.53	0.42
27.74	55.76	0.43
29.16	59.25	0.44
30.76	63.06	0.39
32.52	67.01	0.41
34.44	71.11	0.43
36.36	74.97	0.45
38.29	78.65	0.47
40.21	82.2	0.49
42.23	85.83	0.51
44.36	89.57	0.53
46.49	93.18	0.55
48.62	96.7	0.57
50.75	100	0.6
52.88	103.3	0.6
55.01	106.3	0.6
57.15	109.3	0.6
59.29	112.2	0.7
61.43	115	0.7
63.57	117.8	0.7
65.71	120.5	0.7
67.86	123.3	0.7
70.01	126	0.7
72.26	128.8	0.7
74.61	131.7	0.8
76.97	134.6	0.8
79.34	137.4	0.8
81.7	140.2	0.8
84.07	142.9	0.8
78.72	137.3	0.8
80.5	139.2	0.8
82.15	141.2	0.8
83.82	143	0.8
85.49	145	0.8
87.17	146.9	0.8
88.85	148.6	0.8
90.55	150.8	0.8
92.25	152.7	0.8
93.96	154.7	0.8
95.67	156.7	0.9
97.39	159.1	0.9
99.12	160.7	0.9
100.85	162.3	0.9
102.65	164.4	0.9
104.51	166.4	0.9
106.38	168.5	0.9
108.26	170.5	0.9
110.13	172.5	0.9
112.01	174.6	0.9
113.9	176.6	1
115.78	178.7	1
117.67	180.7	1
119.56	182.8	1
121.46	184.9	1
123.35	186.9	1
125.25	189.1	1
127.15	191.2	1
129.05	193.4	1
130.95	195.6	1
132.85	197.9	1.1
134.75	200.2	1.1
136.65	202.5	1.1
138.55	204.9	1.1
140.45	207.2	1.1
142.35	209.7	1.1
144.24	212.3	1.1
146.13	214.9	1.1
148.01	217.6	1.2
149.9	220.4	1.2
151.78	223.4	1.2
153.65	226.5	1.2
155.52	229.7	1.2
157.39	233.2	1.2
159.24	236.9	1.2
161.09	241	1.3
162.93	245.5	1.3
164.76	250.5	1.3
166.58	256.4	1.3
168.38	263.5	1.4
170.16	272.5	1.4
171.91	285.3	1.5
173.61	306.7	1.7
175.22	360.5	2.1
176.68	448.8	2.6

System: 1-butyl-3-methylimidazolium hexafluorophosphate; phases: Metastable crystal
Fixed: Pressure, kPa = 101.325
Property: Molar heat capacity at constant pressure, J/K/mol (Metastable crystal); method: Small (less than 1 g) adiabatic calorimetry
Temperature, K	Molar heat capacity at constant pressure, J/K/mol	uncertainty
178.27	265.8	1.4
180.09	261.1	1.4
181.91	261.4	1.4
183.75	262.7	1.4
185.58	264.6	1.4
187.4	266.8	1.4
189.22	269.2	1.4
191.04	271.8	1.4
192.86	274.6	1.4
194.66	277.6	1.4
196.47	280.8	1.5
198.27	284.1	1.5
200.05	287.7	1.5
201.89	291.8	1.5
203.78	296.2	1.5
205.65	301.3	1.6
207.51	306.9	1.6
209.36	313.5	1.6
211.19	322.6	1.7
213	333.5	1.7
214.77	351.9	1.8
216.47	395.3	2.1

System: 1-butyl-3-methylimidazolium hexafluorophosphate; phases: Metastable crystal
Fixed: Pressure, kPa = 101.325
Property: Molar heat capacity at constant pressure, J/K/mol (Metastable crystal); method: Small (less than 1 g) adiabatic calorimetry
Temperature, K	Molar heat capacity at constant pressure, J/K/mol	uncertainty
218.22	317.7	1.7
220.12	285.9	1.5
222.07	286.7	1.5
224.04	287.5	1.5

System: 1-butyl-3-methylimidazolium hexafluorophosphate; phases: Liquid
Property: Molar enthalpy, kJ/mol (Liquid); method: Small (less than 1 g) adiabatic calorimetry
Temperature, K	Pressure, kPa	Molar enthalpy, kJ/mol	uncertainty
286	101.325	31	0.18

System: 1-butyl-3-methylimidazolium hexafluorophosphate; phases: Liquid
Property: Molar enthalpy, kJ/mol (Liquid); method: Small (less than 1 g) adiabatic calorimetry
Temperature, K	Pressure, kPa	Molar enthalpy, kJ/mol	uncertainty
286	101.325	33.15	0.19

System: 1-butyl-3-methylimidazolium hexafluorophosphate; phases: Liquid
Property: Molar enthalpy, kJ/mol (Liquid); method: Small (less than 1 g) adiabatic calorimetry
Temperature, K	Pressure, kPa	Molar enthalpy, kJ/mol	uncertainty
286	101.325	28.53	0.16
