Measured thermophysical data. Thermochemical study of chloropyrazines and chloroquinoxalines
Source: J. Chem. Thermodyn., 2004, 10.1016/j.jct.2004.01.005
Compound 1: hydrogen chloride, ClH, InChI=1S/ClH/h1H
Compound 2: carbon dioxide, CO2, InChI=1S/CO2/c2-1-3
Compound 3: nitrogen, N2, InChI=1S/N2/c1-2
Compound 4: water, H2O, InChI=1S/H2O/h1H2
Compound 5: oxygen, O2, InChI=1S/O2/c1-2
Compound 6: chloropyrazine, C4H3ClN2, InChI=1S/C4H3ClN2/c5-4-3-6-1-2-7-4/h1-3H
Compound 7: 2,6-dichloropyrazine, C4H2Cl2N2, InChI=1S/C4H2Cl2N2/c5-3-1-7-2-4(6)8-3/h1-2H
Compound 8: 2,3-dichloroquinoxaline, C8H4Cl2N2, InChI=1S/C8H4Cl2N2/c9-7-8(10)12-6-4-2-1-3-5(6)11-7/h1-4H
Compound 9: 2,3,6,7-tetrachloroquinoxaline, C8H2Cl4N2, InChI=1S/C8H2Cl4N2/c9-3-1-5-6(2-4(3)10)14-8(12)7(11)13-5/h1-2H

System: chloropyrazine; phases: Gas
Property: Molar enthalpy, kJ/mol (Gas); method: OTHER
Temperature, K	Pressure, kPa	Molar enthalpy, kJ/mol	uncertainty
363	100	51.9	3

System: 2,6-dichloropyrazine; phases: Gas
Property: Molar enthalpy, kJ/mol (Gas); method: OTHER
Temperature, K	Pressure, kPa	Molar enthalpy, kJ/mol	uncertainty
366	100	78.1	4

System: 2,3-dichloroquinoxaline; phases: Gas
Property: Molar enthalpy, kJ/mol (Gas); method: OTHER
Temperature, K	Pressure, kPa	Molar enthalpy, kJ/mol	uncertainty
421	100	114.6	4.4

System: 2,3,6,7-tetrachloroquinoxaline; phases: Gas
Property: Molar enthalpy, kJ/mol (Gas); method: OTHER
Temperature, K	Pressure, kPa	Molar enthalpy, kJ/mol	uncertainty
421	100	132.5	4

Reaction: 1 hydrogen chloride + -1 chloropyrazine + 4 carbon dioxide + 1 nitrogen + 1 water + -4.5 oxygen
Property: Specific internal energy of reaction at constant volume, J/g
-18777.2

Reaction: -1 2,3-dichloroquinoxaline + 2 hydrogen chloride + 8 carbon dioxide + 1 nitrogen + 1 water + -8.5 oxygen
Property: Specific internal energy of reaction at constant volume, J/g
-19490.4

Reaction: 4 hydrogen chloride + -1 2,3,6,7-tetrachloroquinoxaline + 8 carbon dioxide + 1 nitrogen + -1 water + -7.5 oxygen
Property: Specific internal energy of reaction at constant volume, J/g
-13316.2

Reaction: -1 2,6-dichloropyrazine + 2 hydrogen chloride + 4 carbon dioxide + 1 nitrogen + -4 oxygen
Property: Specific internal energy of reaction at constant volume, J/g
-13318.3
