Measured thermophysical data. Volumetric properties of dilute (D-glucose + H2O) solutions at temperatures from (293.15 to 433.15) K and pressures from (0.10 to 50.00) MPa
Source: J. Chem. Thermodyn., 2019, 10.1016/j.jct.2018.08.020
Compound 1: D-glucose, C6H12O6, InChI=1S/C6H12O6/c7-1-3(9)5(11)6(12)4(10)2-8/h1,3-6,8-12H,2H2/t3-,4+,5+,6+/m0/s1
Compound 2: water, H2O, InChI=1S/H2O/h1H2, purity 99.8%

System: D-glucose + water; phases: Liquid
Property: Mass density, kg/m3 (Liquid); method: Vibrating tube method
Temperature, K	Pressure, kPa	Molality, mol/kg of D-glucose	Mass density, kg/m3	uncertainty
293.15	100	0.00913	998.95	0.21
293.15	100	0.09945	1005.08	0.21
293.15	100	0.24971	1015	0.21
293.15	100	0.50382	1031.05	0.22
293.15	100	0.7474	1045.03	0.21
293.15	100	0.99818	1059.64	0.21
293.15	200	0.00913	999.02	0.21
293.15	200	0.09945	1005.15	0.21
293.15	200	0.24971	1015.07	0.21
293.15	200	0.50382	1031.11	0.21
293.15	200	0.7474	1045.11	0.21
293.15	200	0.99818	1059.68	0.21
293.15	400	0.00913	998.99	0.21
293.15	400	0.09945	1005.13	0.21
293.15	400	0.24971	1015.04	0.21
293.15	400	0.50382	1031.07	0.21
293.15	400	0.7474	1045.19	0.21
293.15	400	0.99818	1059.77	0.21
293.15	600	0.00913	999.07	0.21
293.15	600	0.09945	1005.21	0.21
293.15	600	0.24971	1015.12	0.21
293.15	600	0.50382	1031.15	0.21
293.15	600	0.7474	1045.28	0.21
293.15	600	0.99818	1059.86	0.21
293.15	800	0.00913	999.2	0.21
293.15	800	0.09945	1005.34	0.21
293.15	800	0.24971	1015.25	0.21
293.15	800	0.50382	1031.29	0.21
293.15	800	0.7474	1045.37	0.21
293.15	800	0.99818	1059.93	0.21
293.15	1000	0.00913	999.24	0.21
293.15	1000	0.09945	1005.39	0.21
293.15	1000	0.24971	1015.29	0.21
293.15	1000	0.50382	1031.32	0.21
293.15	1000	0.7474	1045.45	0.21
293.15	1000	0.99818	1060.02	0.21
293.15	5000	0.00913	1001.09	0.21
293.15	5000	0.09945	1007.01	0.21
293.15	5000	0.24971	1017.05	0.21
293.15	5000	0.50382	1032.99	0.21
293.15	5000	0.7474	1047.17	0.21
293.15	5000	0.99818	1061.72	0.22
293.15	10000	0.00913	1003.31	0.21
293.15	10000	0.09945	1009.24	0.21
293.15	10000	0.24971	1019.27	0.21
293.15	10000	0.50382	1035.04	0.21
293.15	10000	0.7474	1049.31	0.22
293.15	10000	0.99818	1063.82	0.22
293.15	20000	0.00913	1007.8	0.21
293.15	20000	0.09945	1013.69	0.21
293.15	20000	0.24971	1023.74	0.21
293.15	20000	0.50382	1039.42	0.22
293.15	20000	0.7474	1053.55	0.22
293.15	20000	0.99818	1067.98	0.23
293.15	30000	0.00913	1012.2	0.21
293.15	30000	0.09945	1018.06	0.21
293.15	30000	0.24971	1028.03	0.22
293.15	30000	0.50382	1043.68	0.23
293.15	30000	0.7474	1057.59	0.24
293.15	30000	0.99818	1071.96	0.25
293.15	40000	0.00913	1016.42	0.21
293.15	40000	0.09945	1022.24	0.22
293.15	40000	0.24971	1032.11	0.22
293.15	40000	0.50382	1047.72	0.24
293.15	40000	0.7474	1061.65	0.25
293.15	40000	0.99818	1075.91	0.27
293.15	50000	0.00913	1020.61	0.22
293.15	50000	0.09945	1026.39	0.22
293.15	50000	0.24971	1036.25	0.23
293.15	50000	0.50382	1051.78	0.25
293.15	50000	0.7474	1065.62	0.27
293.15	50000	0.99818	1079.75	0.29
313.15	100	0.00913	992.88	0.26
313.15	100	0.09945	998.87	0.23
313.15	100	0.24971	1008.6	0.23
313.15	100	0.50382	1024.2	0.23
313.15	100	0.7474	1038.59	0.24
313.15	100	0.99818	1052.81	0.25
313.15	200	0.00913	992.97	0.21
313.15	200	0.09945	998.96	0.21
313.15	200	0.24971	1008.66	0.21
313.15	200	0.50382	1024.29	0.21
313.15	200	0.7474	1038.61	0.21
313.15	200	0.99818	1052.84	0.21
313.15	400	0.00913	993.03	0.21
313.15	400	0.09945	999.02	0.21
313.15	400	0.24971	1008.71	0.21
313.15	400	0.50382	1024.34	0.21
313.15	400	0.7474	1038.69	0.21
313.15	400	0.99818	1052.91	0.21
313.15	600	0.00913	993.11	0.21
313.15	600	0.09945	999.1	0.21
313.15	600	0.24971	1008.8	0.21
313.15	600	0.50382	1024.43	0.21
313.15	600	0.7474	1038.77	0.21
313.15	600	0.99818	1053	0.21
313.15	800	0.00913	993.18	0.21
313.15	800	0.09945	999.17	0.21
313.15	800	0.24971	1008.87	0.21
313.15	800	0.50382	1024.49	0.21
313.15	800	0.7474	1038.89	0.21
313.15	800	0.99818	1053.08	0.21
313.15	1000	0.00913	993.27	0.22
313.15	1000	0.09945	999.25	0.21
313.15	1000	0.24971	1008.95	0.21
313.15	1000	0.50382	1024.57	0.21
313.15	1000	0.7474	1038.9	0.21
313.15	1000	0.99818	1053.14	0.21
313.15	5000	0.00913	995.05	0.21
313.15	5000	0.09945	1000.98	0.21
313.15	5000	0.24971	1010.77	0.21
313.15	5000	0.50382	1026.32	0.21
313.15	5000	0.7474	1040.58	0.21
313.15	5000	0.99818	1054.8	0.22
313.15	10000	0.7474	1042.62	0.22
313.15	10000	0.99818	1056.8	0.22
313.15	20000	0.7474	1046.73	0.22
313.15	20000	0.99818	1060.83	0.23
313.15	30000	0.00913	1005.49	0.21
313.15	30000	0.09945	1011.51	0.21
313.15	30000	0.24971	1021.01	0.22
313.15	30000	0.50382	1036.44	0.22
313.15	30000	0.7474	1050.68	0.23
313.15	30000	0.99818	1064.76	0.24
313.15	40000	0.00913	1009.64	0.21
313.15	40000	0.09945	1015.56	0.21
313.15	40000	0.24971	1025.05	0.22
313.15	40000	0.50382	1040.49	0.23
313.15	40000	0.7474	1054.58	0.25
313.15	40000	0.99818	1068.58	0.26
313.15	50000	0.00913	1013.63	0.21
313.15	50000	0.09945	1019.54	0.22
313.15	50000	0.24971	1028.96	0.23
313.15	50000	0.50382	1044.4	0.24
313.15	50000	0.7474	1058.41	0.26
313.15	50000	0.99818	1072.44	0.28
333.15	100	0.00913	983.86	0.24
333.15	100	0.09945	989.76	0.23
333.15	100	0.24971	999.31	0.23
333.15	100	0.50382	1014.76	0.23
333.15	100	0.7474	1028.69	0.22
333.15	100	0.99818	1043.33	0.27
333.15	200	0.00913	983.92	0.21
333.15	200	0.09945	989.82	0.21
333.15	200	0.24971	999.38	0.21
333.15	200	0.50382	1014.82	0.21
333.15	200	0.7474	1028.73	0.21
333.15	200	0.99818	1043.38	0.22
333.15	400	0.00913	983.99	0.21
333.15	400	0.09945	989.89	0.21
333.15	400	0.24971	999.44	0.21
333.15	400	0.50382	1014.89	0.21
333.15	400	0.7474	1028.83	0.21
333.15	400	0.99818	1043.48	0.22
333.15	600	0.00913	984.03	0.21
333.15	600	0.09945	989.93	0.21
333.15	600	0.24971	999.48	0.21
333.15	600	0.50382	1014.93	0.21
333.15	600	0.7474	1028.91	0.21
333.15	600	0.99818	1043.57	0.22
333.15	800	0.00913	984.2	0.21
333.15	800	0.09945	990.09	0.21
333.15	800	0.24971	999.65	0.21
333.15	800	0.50382	1015.09	0.21
333.15	800	0.7474	1028.97	0.21
333.15	800	0.99818	1043.66	0.23
333.15	1000	0.009131	983.95	0.22
333.15	1000	0.09945	990.12	0.21
333.15	1000	0.24971	999.36	0.21
333.15	1000	0.50382	1015.12	0.21
333.15	5000	0.00913	985.91	0.21
333.15	5000	0.09945	991.91	0.21
333.15	5000	0.50382	1016.15	0.21
333.15	5000	0.7474	1030.72	0.21
333.15	5000	0.99818	1045.4	0.22
333.15	10000	0.00913	988.03	0.21
333.15	10000	0.09945	994.03	0.21
333.15	10000	0.24971	1003.41	0.21
333.15	10000	0.50382	1018.87	0.21
333.15	10000	0.7474	1032.84	0.22
333.15	10000	0.99818	1047.47	0.22
333.15	20000	0.00913	992.41	0.21
333.15	20000	0.09945	998.27	0.21
333.15	20000	0.24971	1007.69	0.21
333.15	20000	0.50382	1023.05	0.21
333.15	20000	0.7474	1036.83	0.22
333.15	20000	0.99818	1051.57	0.23
333.15	30000	0.00913	996.43	0.21
333.15	30000	0.09945	1002.3	0.21
333.15	30000	0.24971	1011.64	0.21
333.15	30000	0.50382	1026.91	0.22
333.15	30000	0.7474	1040.83	0.23
333.15	30000	0.99818	1055.42	0.24
333.15	40000	0.00913	1000.6	0.21
333.15	40000	0.09945	1006.36	0.21
333.15	40000	0.24971	1015.72	0.22
333.15	40000	0.50382	1030.96	0.23
333.15	40000	0.7474	1044.74	0.24
333.15	40000	0.99818	1059.3	0.25
333.15	50000	0.00913	1004.54	0.21
333.15	50000	0.09945	1010.3	0.21
333.15	50000	0.24971	1019.52	0.22
333.15	50000	0.50382	1034.7	0.24
333.15	50000	0.7474	1048.55	0.25
333.15	50000	0.99818	1062.93	0.27
353.15	100	0.00892	972.43	0.21
353.15	100	0.09927	978.3	0.22
353.15	100	0.24936	987.8	0.22
353.15	100	0.50271	1003.17	0.21
353.15	100	0.7474	1017.06	0.22
353.15	100	0.99818	1030.61	0.22
353.15	200	0.00892	972.46	0.22
353.15	200	0.09927	978.34	0.21
353.15	200	0.24936	987.84	0.21
353.15	200	0.50271	1003.2	0.21
353.15	200	0.7474	1017.11	0.21
353.15	200	0.99818	1030.63	0.22
353.15	400	0.00892	972.55	0.21
353.15	400	0.09927	978.43	0.21
353.15	400	0.24936	987.93	0.21
353.15	400	0.50271	1003.29	0.21
353.15	400	0.7474	1017.19	0.21
353.15	400	0.99818	1030.72	0.22
353.15	600	0.00892	972.6	0.21
353.15	600	0.09927	978.48	0.21
353.15	600	0.24936	987.98	0.21
353.15	600	0.50271	1003.34	0.21
353.15	600	0.7474	1017.28	0.21
353.15	600	0.99818	1030.79	0.22
353.15	800	0.00892	972.73	0.22
353.15	800	0.09927	978.59	0.21
353.15	800	0.24936	988.1	0.21
353.15	800	0.50271	1003.46	0.21
353.15	800	0.7474	1017.37	0.21
353.15	800	0.99818	1030.88	0.22
353.15	1000	0.00892	972.86	0.22
353.15	1000	0.09927	978.72	0.22
353.15	1000	0.24936	988.25	0.22
353.15	1000	0.50271	1003.59	0.22
353.15	1000	0.7474	1017.46	0.21
353.15	1000	0.99818	1030.96	0.22
353.15	5000	0.00892	974.64	0.22
353.15	5000	0.09927	980.53	0.21
353.15	5000	0.24936	990.02	0.21
353.15	5000	0.50271	1005.32	0.21
353.15	5000	0.7474	1019.17	0.21
353.15	5000	0.99818	1032.66	0.22
353.15	10000	0.00892	976.79	0.22
353.15	10000	0.09927	982.71	0.22
353.15	10000	0.24936	992.14	0.21
353.15	10000	0.50271	1007.48	0.21
353.15	10000	0.7474	1021.31	0.22
353.15	10000	0.99818	1034.77	0.22
353.15	20000	0.00892	981.06	0.22
353.15	20000	0.09927	986.99	0.22
353.15	20000	0.24936	996.35	0.21
353.15	20000	0.50271	1011.66	0.22
353.15	20000	0.7474	1025.43	0.22
353.15	20000	0.99818	1038.9	0.23
353.15	30000	0.00892	985.27	0.22
353.15	30000	0.09927	991.19	0.21
353.15	30000	0.24936	1000.54	0.21
353.15	30000	0.50271	1015.75	0.22
353.15	30000	0.7474	1029.54	0.22
353.15	30000	0.99818	1042.98	0.23
353.15	40000	0.00892	989.44	0.22
353.15	40000	0.09927	995.28	0.21
353.15	40000	0.24936	1004.68	0.21
353.15	40000	0.50271	1019.82	0.22
353.15	40000	0.7474	1033.51	0.23
353.15	40000	0.99818	1046.92	0.24
353.15	50000	0.00892	993.4	0.21
353.15	50000	0.09927	999.25	0.21
353.15	50000	0.24936	1008.54	0.22
353.15	50000	0.50271	1023.73	0.23
353.15	50000	0.7474	1037.45	0.24
353.15	50000	0.99818	1050.73	0.26
373.15	200	0.00892	958.96	0.22
373.15	200	0.09927	964.83	0.22
373.15	200	0.24936	974.25	0.22
373.15	200	0.50271	989.56	0.22
373.15	400	0.00892	959.07	0.22
373.15	400	0.09927	964.92	0.22
373.15	400	0.24936	974.35	0.22
373.15	400	0.50271	989.66	0.22
373.15	600	0.00892	959.12	0.22
373.15	600	0.09927	964.98	0.22
373.15	600	0.24936	974.41	0.22
373.15	600	0.50271	989.72	0.22
373.15	800	0.00892	959.24	0.22
373.15	800	0.09927	965.12	0.22
373.15	800	0.24936	974.53	0.22
373.15	800	0.50271	989.82	0.22
373.15	1000	0.00892	959.36	0.22
373.15	1000	0.09927	965.21	0.22
373.15	1000	0.24936	974.65	0.22
373.15	1000	0.50271	989.93	0.22
373.15	5000	0.00892	961.23	0.22
373.15	5000	0.09927	967.05	0.22
373.15	5000	0.24936	976.49	0.22
373.15	5000	0.50271	991.74	0.22
373.15	10000	0.00892	963.5	0.22
373.15	10000	0.09927	969.31	0.22
373.15	10000	0.24936	978.7	0.22
373.15	10000	0.50271	993.98	0.22
373.15	20000	0.00892	968.05	0.22
373.15	20000	0.09927	973.9	0.22
373.15	20000	0.24936	983.22	0.22
373.15	20000	0.50271	998.43	0.22
373.15	30000	0.00892	972.39	0.22
373.15	30000	0.09927	978.18	0.22
373.15	30000	0.24936	987.54	0.22
373.15	30000	0.50271	1002.66	0.22
373.15	40000	0.00892	976.7	0.23
373.15	40000	0.09927	982.47	0.22
373.15	40000	0.24936	991.76	0.22
373.15	40000	0.50271	1006.88	0.22
373.15	50000	0.00892	980.95	0.22
373.15	50000	0.24936	996.02	0.22
373.15	50000	0.50271	1011.04	0.22
393.15	300	0.00892	943.75	0.24
393.15	300	0.09927	949.59	0.23
393.15	300	0.24936	959.04	0.24
393.15	300	0.50271	974.28	0.24
393.15	400	0.00892	943.81	0.22
393.15	400	0.09927	949.66	0.22
393.15	400	0.24936	959.11	0.22
393.15	400	0.50271	974.33	0.22
393.15	600	0.00892	943.85	0.22
393.15	600	0.09927	949.67	0.22
393.15	600	0.24936	959.14	0.22
393.15	600	0.50271	974.33	0.22
393.15	800	0.00892	943.95	0.22
393.15	800	0.09927	949.79	0.22
393.15	800	0.24936	959.24	0.22
393.15	800	0.50271	974.5	0.22
393.15	1000	0.00892	944.04	0.23
393.15	1000	0.24936	959.33	0.22
393.15	1000	0.50271	974.58	0.22
393.15	5000	0.00892	946.09	0.23
393.15	5000	0.09927	951.83	0.22
393.15	5000	0.24936	961.32	0.22
393.15	5000	0.50271	976.48	0.22
393.15	10000	0.00892	948.57	0.23
393.15	10000	0.09927	954.3	0.23
393.15	10000	0.24936	963.76	0.22
393.15	10000	0.50271	978.9	0.22
393.15	20000	0.00892	953.22	0.23
393.15	20000	0.24936	968.43	0.23
393.15	20000	0.50271	983.6	0.22
393.15	30000	0.00892	957.9	0.24
393.15	30000	0.09927	963.7	0.23
393.15	30000	0.24936	973.11	0.23
393.15	30000	0.50271	988.07	0.22
393.15	40000	0.00892	962.38	0.24
393.15	40000	0.09927	968.19	0.23
393.15	40000	0.24936	977.53	0.23
393.15	40000	0.50271	992.54	0.22
393.15	50000	0.00892	966.78	0.24
393.15	50000	0.09927	972.56	0.23
393.15	50000	0.24936	981.88	0.23
393.15	50000	0.50271	996.97	0.22
413.15	400	0.00892	926.77	0.23
413.15	400	0.09927	932.57	0.23
413.15	400	0.24936	942.01	0.23
413.15	400	0.50271	957.33	0.23
413.15	600	0.00892	926.85	0.23
413.15	600	0.09927	932.63	0.23
413.15	600	0.24936	942.1	0.23
413.15	600	0.50271	957.51	0.23
413.15	800	0.00892	926.97	0.23
413.15	800	0.09927	932.74	0.23
413.15	800	0.24936	942.22	0.23
413.15	800	0.50271	957.55	0.23
413.15	1000	0.00892	927.09	0.23
413.15	1000	0.09927	932.86	0.23
413.15	1000	0.24936	942.36	0.23
413.15	1000	0.50271	957.65	0.23
413.15	5000	0.00892	929.17	0.23
413.15	5000	0.09927	934.99	0.23
413.15	5000	0.24936	944.4	0.23
413.15	5000	0.50271	959.8	0.23
413.15	10000	0.00892	931.81	0.24
413.15	10000	0.09927	937.56	0.23
413.15	10000	0.24936	947.04	0.23
413.15	10000	0.50271	962.37	0.23
413.15	20000	0.00892	936.95	0.24
413.15	20000	0.09927	942.71	0.24
413.15	20000	0.24936	952.13	0.24
413.15	20000	0.50271	967.38	0.23
413.15	30000	0.00892	941.94	0.25
413.15	30000	0.09927	947.71	0.24
413.15	30000	0.24936	957.08	0.24
413.15	30000	0.50271	972.16	0.23
413.15	40000	0.00892	946.87	0.25
413.15	40000	0.24936	961.89	0.24
413.15	40000	0.50271	976.96	0.23
413.15	50000	0.00892	951.44	0.26
413.15	50000	0.09927	957.15	0.25
413.15	50000	0.24936	966.39	0.24
413.15	50000	0.50271	981.68	0.23
433.15	700	0.00892	908.14	0.23
433.15	700	0.09927	913.85	0.23
433.15	700	0.24936	923.11	0.23
433.15	800	0.00892	908.14	0.23
433.15	800	0.09927	913.87	0.23
433.15	800	0.24936	923.12	0.23
433.15	800	0.50271	938.09	0.23
433.15	1000	0.00892	908.3	0.23
433.15	1000	0.09927	914.04	0.23
433.15	1000	0.24936	923.29	0.23
433.15	1000	0.50271	938.17	0.23
433.15	5000	0.00892	910.61	0.24
433.15	5000	0.09927	916.33	0.24
433.15	5000	0.24936	925.61	0.24
433.15	5000	0.50271	940.41	0.23
433.15	10000	0.00892	913.57	0.24
433.15	10000	0.09927	919.23	0.24
433.15	10000	0.24936	928.53	0.24
433.15	10000	0.50271	943.27	0.24
433.15	20000	0.00892	919.1	0.25
433.15	20000	0.09927	924.77	0.25
433.15	20000	0.24936	934.01	0.25
433.15	20000	0.50271	948.81	0.24
433.15	30000	0.00892	924.55	0.26
433.15	30000	0.09927	930.19	0.26
433.15	30000	0.24936	939.38	0.25
433.15	30000	0.50271	954.2	0.24
433.15	40000	0.00892	929.77	0.27
433.15	40000	0.09927	935.41	0.27
433.15	40000	0.24936	944.58	0.26
433.15	40000	0.50271	959.28	0.25
433.15	50000	0.00892	934.76	0.28
433.15	50000	0.09927	940.38	0.27
433.15	50000	0.24936	949.54	0.26
433.15	50000	0.50271	964.17	0.25
