Measured thermophysical data. Measurement and correlation of solubility of methyleneaminoacetonitrile in pure and binary solvents and thermodynamic properties of solution
Source: J. Chem. Thermodyn., 2019, 10.1016/j.jct.2019.01.015
Compound 1: methyleneaminoacetonitrile, C3H4N2, InChI=1S/C3H4N2/c1-5-3-2-4/h1,3H2, purity 99.5%
Compound 2: methanol, CH4O, InChI=1S/CH4O/c1-2/h2H,1H3, purity 99.5%
Compound 3: ethanol, C2H6O, InChI=1S/C2H6O/c1-2-3/h3H,2H2,1H3, purity 99.5%
Compound 4: propan-1-ol, C3H8O, InChI=1S/C3H8O/c1-2-3-4/h4H,2-3H2,1H3, purity 99.5%
Compound 5: butan-1-ol, C4H10O, InChI=1S/C4H10O/c1-2-3-4-5/h5H,2-4H2,1H3, purity 99.5%
Compound 6: water, H2O, InChI=1S/H2O/h1H2

System: methyleneaminoacetonitrile; phases: Crystal, Liquid, Air at 1 atmosphere
Property: Triple point temperature, K (Crystal); method: DSC
Triple point temperature, K	uncertainty
402.15	1

System: methyleneaminoacetonitrile; phases: Crystal, Liquid, Air at 1 atmosphere
Property: Molar enthalpy of transition or fusion, kJ/mol (Crystal); method: DSC
Molar enthalpy of transition or fusion, kJ/mol	uncertainty
10.656	0.367

System: methyleneaminoacetonitrile + methanol; phases: Liquid, Crystal
Fixed: Pressure, kPa = 100
Property: Mole fraction of methyleneaminoacetonitrile (Liquid); method: Titration method
Temperature, K	Mole fraction of methyleneaminoacetonitrile	uncertainty
278.15	0.004358	0.000436
283.15	0.005157	0.000516
288.15	0.006241	0.000624
293.15	0.007474	0.000748
298.15	0.008935	0.000894
303.15	0.01069	0.00107
308.15	0.01251	0.00125
313.15	0.0145	0.00145
318.15	0.01695	0.0017
323.15	0.0196	0.00196

System: methyleneaminoacetonitrile + ethanol; phases: Liquid, Crystal
Fixed: Pressure, kPa = 100
Property: Mole fraction of methyleneaminoacetonitrile (Liquid); method: Titration method
Temperature, K	Mole fraction of methyleneaminoacetonitrile	uncertainty
278.15	0.001751	0.000175
283.15	0.002132	0.000213
288.15	0.002526	0.000253
293.15	0.00303	0.000303
298.15	0.003569	0.000357
303.15	0.004235	0.000424
308.15	0.005013	0.000501
313.15	0.005948	0.000595
318.15	0.006954	0.000696
323.15	0.00814	0.000814

System: methyleneaminoacetonitrile + propan-1-ol; phases: Liquid, Crystal
Fixed: Pressure, kPa = 100
Property: Mole fraction of methyleneaminoacetonitrile (Liquid); method: Titration method
Temperature, K	Mole fraction of methyleneaminoacetonitrile	uncertainty
278.15	0.0009904	9.91e-05
283.15	0.00125	0.000125
288.15	0.001508	0.000151
293.15	0.001827	0.000183
298.15	0.002216	0.000222
303.15	0.002659	0.000266
308.15	0.003152	0.000315
313.15	0.003705	0.000371
318.15	0.004266	0.000427
323.15	0.004991	0.000499

System: methyleneaminoacetonitrile + butan-1-ol; phases: Liquid, Crystal
Fixed: Pressure, kPa = 100
Property: Mole fraction of methyleneaminoacetonitrile (Liquid); method: Titration method
Temperature, K	Mole fraction of methyleneaminoacetonitrile	uncertainty
278.15	0.0004792	4.79e-05
283.15	0.0005783	5.78e-05
288.15	0.0006858	6.86e-05
293.15	0.0008185	8.19e-05
298.15	0.000985	9.85e-05
303.15	0.001152	0.000115
308.15	0.001386	0.000139
313.15	0.001618	0.000162
318.15	0.001909	0.000191
323.15	0.002243	0.000224

System: methyleneaminoacetonitrile + water; phases: Liquid, Crystal
Fixed: Pressure, kPa = 100
Property: Mole fraction of methyleneaminoacetonitrile (Liquid); method: Titration method
Temperature, K	Mole fraction of methyleneaminoacetonitrile	uncertainty
278.15	0.00083	8.3e-05
283.15	0.0009983	9.99e-05
288.15	0.001189	0.000119
293.15	0.001428	0.000143
298.15	0.001707	0.000171
303.15	0.001985	0.000199
308.15	0.002351	0.000235
313.15	0.002743	0.000274
318.15	0.0032	0.00032
323.15	0.003715	0.000372

System: methyleneaminoacetonitrile + methanol + propan-1-ol; phases: Liquid, Crystal
Fixed: Pressure, kPa = 100
Property: Mole fraction of methyleneaminoacetonitrile (Liquid); method: Titration method
Solvent: Mass fraction of methanol	Temperature, K	Mole fraction of methyleneaminoacetonitrile	uncertainty
0	278.15	0.0009904	9.91e-05
0	283.15	0.00125	0.000125
0	288.15	0.001508	0.000151
0	293.15	0.001827	0.000183
0	298.15	0.002216	0.000222
0	303.15	0.002659	0.000266
0	308.15	0.003152	0.000315
0	313.15	0.003705	0.000371
0	318.15	0.004266	0.000427
0	323.15	0.004991	0.000499
0.2002	278.15	0.001664	0.000166
0.2002	283.15	0.002021	0.000202
0.2002	288.15	0.002465	0.000247
0.2002	293.15	0.002953	0.000295
0.2002	298.15	0.00355	0.000355
0.2002	303.15	0.004275	0.000428
0.2002	308.15	0.005044	0.000505
0.2002	313.15	0.005854	0.000586
0.2002	318.15	0.006802	0.00068
0.2002	323.15	0.007916	0.000792
0.4001	278.15	0.002337	0.000234
0.4001	283.15	0.002803	0.00028
0.4001	288.15	0.003441	0.000344
0.4001	293.15	0.004066	0.000407
0.4001	298.15	0.004924	0.000493
0.4001	303.15	0.005783	0.000578
0.4001	308.15	0.006774	0.000678
0.4001	313.15	0.008003	0.000801
0.4001	318.15	0.00937	0.000937
0.4001	323.15	0.01085	0.00109
0.5999	278.15	0.003011	0.000301
0.5999	283.15	0.003574	0.000358
0.5999	288.15	0.004328	0.000433
0.5999	293.15	0.005205	0.000521
0.5999	298.15	0.006287	0.000629
0.5999	303.15	0.007508	0.000751
0.5999	308.15	0.008727	0.000873
0.5999	313.15	0.01013	0.00101
0.5999	318.15	0.01191	0.00119
0.5999	323.15	0.01371	0.00137
0.8001	278.15	0.003684	0.000369
0.8001	283.15	0.004356	0.000436
0.8001	288.15	0.005274	0.000528
0.8001	293.15	0.006365	0.000637
0.8001	298.15	0.007571	0.000757
0.8001	303.15	0.00893	0.000893
0.8001	308.15	0.01042	0.00104
0.8001	313.15	0.01244	0.00124
0.8001	318.15	0.01421	0.00142
0.8001	323.15	0.01688	0.00169
1	278.15	0.004358	0.000436
1	283.15	0.005157	0.000516
1	288.15	0.006241	0.000624
1	293.15	0.007474	0.000748
1	298.15	0.008935	0.000894
1	303.15	0.01069	0.00107
1	308.15	0.01251	0.00125
1	313.15	0.0145	0.00145
1	318.15	0.01695	0.0017
1	323.15	0.0196	0.00196

System: methyleneaminoacetonitrile + methanol + water; phases: Liquid, Crystal
Fixed: Pressure, kPa = 100
Property: Mole fraction of methyleneaminoacetonitrile (Liquid); method: Titration method
Solvent: Mass fraction of methanol	Temperature, K	Mole fraction of methyleneaminoacetonitrile	uncertainty
0	278.15	0.00083	8.3e-05
0	283.15	0.0009983	9.99e-05
0	288.15	0.001189	0.000119
0	293.15	0.001428	0.000143
0	298.15	0.001707	0.000171
0	303.15	0.001985	0.000199
0	308.15	0.002351	0.000235
0	313.15	0.002743	0.000274
0	318.15	0.0032	0.00032
0	323.15	0.003715	0.000372
0.2002	278.15	0.001526	0.000153
0.2002	283.15	0.00184	0.000184
0.2002	288.15	0.002179	0.000218
0.2002	293.15	0.002657	0.000266
0.2002	298.15	0.003173	0.000317
0.2002	303.15	0.003726	0.000373
0.2002	308.15	0.004363	0.000436
0.2002	313.15	0.005074	0.000508
0.2002	318.15	0.00598	0.000598
0.2002	323.15	0.006922	0.000692
0.4001	278.15	0.002241	0.000224
0.4001	283.15	0.002642	0.000264
0.4001	288.15	0.00324	0.000324
0.4001	293.15	0.003866	0.000387
0.4001	298.15	0.004578	0.000458
0.4001	303.15	0.005447	0.000545
0.4001	308.15	0.006435	0.000644
0.4001	313.15	0.007466	0.000747
0.4001	318.15	0.0087	0.00087
0.4001	323.15	0.01017	0.00102
0.5999	278.15	0.002957	0.000296
0.5999	283.15	0.003474	0.000348
0.5999	288.15	0.00425	0.000425
0.5999	293.15	0.005076	0.000508
0.5999	298.15	0.006084	0.000609
0.5999	303.15	0.007238	0.000724
0.5999	308.15	0.008416	0.000842
0.5999	313.15	0.009777	0.000978
0.5999	318.15	0.01125	0.00113
0.5999	323.15	0.01325	0.00133
0.8001	278.15	0.003662	0.000366
0.8001	283.15	0.004325	0.000433
0.8001	288.15	0.005231	0.000523
0.8001	293.15	0.006265	0.000627
0.8001	298.15	0.007489	0.000749
0.8001	303.15	0.008949	0.000895
0.8001	308.15	0.01048	0.00105
0.8001	313.15	0.01215	0.00122
0.8001	318.15	0.0142	0.00142
0.8001	323.15	0.01652	0.00165
1	278.15	0.004358	0.000436
1	283.15	0.005157	0.000516
1	288.15	0.006241	0.000624
1	293.15	0.007474	0.000748
1	298.15	0.008935	0.000894
1	303.15	0.01069	0.00107
1	308.15	0.01251	0.00125
1	313.15	0.0145	0.00145
1	318.15	0.01695	0.0017
1	323.15	0.0196	0.00196
