Measured thermophysical data. Henry's constants and infinite dilution activity coefficients of propane, propene, butane, isobutene, 1-butene, isobutane, trans-2-butene and 1,3-butadiene in 1-propanol at T=(260 to 340) K
Source: J. Chem. Thermodyn., 2004, 10.1016/j.jct.2003.08.018
Compound 1: butane, C4H10, InChI=1S/C4H10/c1-3-4-2/h3-4H2,1-2H3, purity 99.8%
Compound 2: 2-methylpropane, C4H10, InChI=1S/C4H10/c1-4(2)3/h4H,1-3H3, purity 99%
Compound 3: 1-butene, C4H8, InChI=1S/C4H8/c1-3-4-2/h3H,1,4H2,2H3, purity 99%
Compound 4: 2-methylpropene, C4H8, InChI=1S/C4H8/c1-4(2)3/h1H2,2-3H3, purity 99%
Compound 5: propane, C3H8, InChI=1S/C3H8/c1-3-2/h3H2,1-2H3, purity 99.5%
Compound 6: propene, C3H6, InChI=1S/C3H6/c1-3-2/h3H,1H2,2H3, purity 99.5%
Compound 7: (E)-2-butene, C4H8, InChI=1S/C4H8/c1-3-4-2/h3-4H,1-2H3/b4-3+, purity 99%
Compound 8: 1,3-butadiene, C4H6, InChI=1S/C4H6/c1-3-4-2/h3-4H,1-2H2, purity 99%
Compound 9: propan-1-ol, C3H8O, InChI=1S/C3H8O/c1-2-3-4/h4H,2-3H2,1H3, purity 99.9%

System: propan-1-ol + butane; phases: Liquid, Gas
Fixed: Mole fraction of butane = 0
Property: Activity coefficient of butane (Liquid); method: Chromatography
Temperature, K	Activity coefficient of butane	uncertainty
260.05	5.17	0.23
280.05	5.06	0.22
299.99	5.03	0.22
320.05	4.88	0.22

System: propan-1-ol + butane; phases: Liquid, Gas
Fixed: Mole fraction of butane = 0
Property: Henry's Law constant (mole fraction scale), kPa of butane (Liquid); method: Chromatography
Temperature, K	Henry's Law constant (mole fraction scale), kPa of butane	uncertainty
260.05	309	6
280.05	642	13
299.99	1194	24
320.05	1970	40
340.04	2985	61

System: propan-1-ol + 2-methylpropane; phases: Liquid, Gas
Fixed: Mole fraction of 2-methylpropane = 0
Property: Activity coefficient of 2-methylpropane (Liquid); method: Chromatography
Temperature, K	Activity coefficient of 2-methylpropane	uncertainty
259.98	5.48	0.24
279.94	5.37	0.24
300.16	5.24	0.23
320	5.14	0.23
339.92	5.05	0.22

System: propan-1-ol + 2-methylpropane; phases: Liquid, Gas
Fixed: Mole fraction of 2-methylpropane = 0
Property: Henry's Law constant (mole fraction scale), kPa of 2-methylpropane (Liquid); method: Chromatography
Temperature, K	Henry's Law constant (mole fraction scale), kPa of 2-methylpropane	uncertainty
259.98	502	10
279.94	988	20
300.16	1732	35
320	2750	56
339.92	4051	82

System: propan-1-ol + 1-butene; phases: Liquid, Gas
Fixed: Mole fraction of 1-butene = 0
Property: Activity coefficient of 1-butene (Liquid); method: Chromatography
Temperature, K	Activity coefficient of 1-butene	uncertainty
260.03	4.13	0.18
280.04	4.12	0.18
299.98	4.11	0.18
320.03	4.05	0.18
340	4.01	0.18

System: propan-1-ol + 1-butene; phases: Liquid, Gas
Fixed: Mole fraction of 1-butene = 0
Property: Henry's Law constant (mole fraction scale), kPa of 1-butene (Liquid); method: Chromatography
Temperature, K	Henry's Law constant (mole fraction scale), kPa of 1-butene	uncertainty
260.03	308	6
280.04	641	13
299.98	1177	24
320.03	1938	39
340	2951	60

System: propan-1-ol + 2-methylpropene; phases: Liquid, Gas
Fixed: Mole fraction of 2-methylpropene = 0
Property: Activity coefficient of 2-methylpropene (Liquid); method: Chromatography
Temperature, K	Activity coefficient of 2-methylpropene	uncertainty
259.91	4.09	0.18
279.95	4.08	0.18
299.94	4.04	0.18
320.06	4	0.18
340.16	3.94	0.17

System: propan-1-ol + 2-methylpropene; phases: Liquid, Gas
Fixed: Mole fraction of 2-methylpropene = 0
Property: Henry's Law constant (mole fraction scale), kPa of 2-methylpropene (Liquid); method: Chromatography
Temperature, K	Henry's Law constant (mole fraction scale), kPa of 2-methylpropene	uncertainty
259.91	308	6
279.95	641	13
299.94	1173	24
320.06	1946	40
340.16	2956	60

System: propan-1-ol + propane; phases: Liquid, Gas
Fixed: Mole fraction of propane = 0
Property: Activity coefficient of propane (Liquid); method: Chromatography
Temperature, K	Activity coefficient of propane	uncertainty
259.98	4.6	0.2
279.96	4.62	0.2
299.96	4.64	0.2
320.03	4.61	0.2
339.95	4.56	0.2

System: propan-1-ol + propane; phases: Liquid, Gas
Fixed: Mole fraction of propane = 0
Property: Henry's Law constant (mole fraction scale), kPa of propane (Liquid); method: Chromatography
Temperature, K	Henry's Law constant (mole fraction scale), kPa of propane	uncertainty
259.98	1305	27
279.96	2330	47
299.96	3746	76
320.03	5535	112
339.95	7584	154

System: propan-1-ol + propene; phases: Liquid, Gas
Fixed: Mole fraction of propene = 0
Property: Activity coefficient of propene (Liquid); method: Chromatography
Temperature, K	Activity coefficient of propene	uncertainty
259.92	3.58	0.16
279.94	3.61	0.16
300.03	3.66	0.16
320.02	3.64	0.16
340.1	3.64	0.16

System: propan-1-ol + propene; phases: Liquid, Gas
Fixed: Mole fraction of propene = 0
Property: Henry's Law constant (mole fraction scale), kPa of propene (Liquid); method: Chromatography
Temperature, K	Henry's Law constant (mole fraction scale), kPa of propene	uncertainty
259.92	1246	25
279.94	2205	45
300.03	3546	72
320.02	5160	105
340.1	7042	143

System: propan-1-ol + (E)-2-butene; phases: Liquid, Gas
Fixed: Mole fraction of (E)-2-butene = 0
Property: Activity coefficient of (E)-2-butene (Liquid); method: Chromatography
Temperature, K	Activity coefficient of (E)-2-butene	uncertainty
260.02	4.2	0.19
280.03	4.15	0.18
299.99	4.1	0.18
320.09	4.06	0.18
340.06	3.98	0.18

System: propan-1-ol + (E)-2-butene; phases: Liquid, Gas
Fixed: Mole fraction of (E)-2-butene = 0
Property: Henry's Law constant (mole fraction scale), kPa of (E)-2-butene (Liquid); method: Chromatography
Temperature, K	Henry's Law constant (mole fraction scale), kPa of (E)-2-butene	uncertainty
260.02	236	5
280.03	501	10
299.99	936	19
320.09	1586	32
340.06	2441	50

System: propan-1-ol + 1,3-butadiene; phases: Liquid, Gas
Fixed: Mole fraction of 1,3-butadiene = 0
Property: Activity coefficient of 1,3-butadiene (Liquid); method: Chromatography
Temperature, K	Activity coefficient of 1,3-butadiene	uncertainty
260.02	4.2	0.19
280.03	4.15	0.18
299.99	4.1	0.18
320.09	4.06	0.18
340.06	3.98	0.18

System: propan-1-ol + 1,3-butadiene; phases: Liquid, Gas
Fixed: Mole fraction of 1,3-butadiene = 0
Property: Henry's Law constant (mole fraction scale), kPa of 1,3-butadiene (Liquid); method: Chromatography
Temperature, K	Henry's Law constant (mole fraction scale), kPa of 1,3-butadiene	uncertainty
259.99	235	5
280.05	496	10
300.01	924	19
320.04	1546	31
339.99	2366	48
