Measured thermophysical data. Measurement of speed of sound, density compressibility and viscosity in liquid methyl laurate and ethyl laurate up to 200 MPa by using acoustic wave sensors
Source: J. Chem. Thermodyn., 2018, 10.1016/j.jct.2017.12.020
Compound 1: methyl dodecanoate, C13H26O2, InChI=1S/C13H26O2/c1-3-4-5-6-7-8-9-10-11-12-13(14)15-2/h3-12H2,1-2H3, purity 99.5%
Compound 2: ethyl dodecanoate, C14H28O2, InChI=1S/C14H28O2/c1-3-5-6-7-8-9-10-11-12-13-14(15)16-4-2/h3-13H2,1-2H3, purity 99%

System: methyl dodecanoate; phases: Liquid
Fixed: Frequency, MHz = 2
Property: Speed of sound, m/s (Liquid); method: Pulse-echo method
Temperature, K	Pressure, kPa	Speed of sound, m/s	uncertainty
293.15	100	1351.3	1.4
293.15	10000	1400.9	1.4
293.15	20000	1445.1	1.4
293.15	30000	1486.4	1.4
293.15	40000	1526.9	1.4
293.15	50000	1563.8	1.4
293.15	60000	1600	1.4
293.15	70000	1628.6	1.4
293.15	80000	1660.5	1.4
293.15	90000	1690.9	1.5
313.15	100	1276.4	1.3
313.15	10000	1328	1.3
313.15	20000	1375.3	1.3
313.15	30000	1420	1.3
313.15	40000	1461.6	1.4
313.15	50000	1500.9	1.4
313.15	60000	1537	1.4
313.15	70000	1573.3	1.4
313.15	80000	1607.4	1.4
313.15	90000	1637.8	1.4
313.15	100000	1671.1	3.5
313.15	120000	1728.6	3.6
313.15	140000	1784.4	3.8
333.15	100	1205.5	1.3
333.15	10000	1259.6	1.3
333.15	20000	1311	1.3
333.15	30000	1357.5	1.3
333.15	40000	1401	1.3
333.15	50000	1441.3	1.3
333.15	60000	1480.9	1.3
333.15	70000	1515.7	1.4
333.15	80000	1550.8	1.4
333.15	90000	1585.9	1.4
333.15	100000	1621.9	3.5
333.15	120000	1682	3.6
333.15	140000	1739.2	3.7
333.15	160000	1791.8	3.8
333.15	180000	1843.5	3.9
333.15	200000	1893.2	4
353.15	100	1133.5	1.2
353.15	10000	1192.2	1.3
353.15	20000	1247.2	1.3
353.15	30000	1295.9	1.3
353.15	40000	1342.5	1.3
353.15	50000	1386.1	1.3
353.15	60000	1426.2	1.3
353.15	70000	1463.8	1.3
353.15	80000	1500.1	1.3
353.15	90000	1534.8	1.4
353.15	100000	1568.3	3.4
353.15	120000	1632.8	3.5
353.15	140000	1690.8	3.6
353.15	160000	1744.4	3.7
353.15	180000	1802.7	3.8
353.15	200000	1851.2	3.9

System: methyl dodecanoate; phases: Liquid
Fixed: Pressure, kPa = 101.325
Property: Mass density, kg/m3 (Liquid); method: Vibrating tube method
Temperature, K	Mass density, kg/m3	uncertainty
293.15	869.2	0.9
303.15	861.4	0.9
313.15	853.8	0.9
323.15	845.8	0.9
333.15	837.9	0.9
343.15	830	0.9
353.15	822.2	0.8

System: methyl dodecanoate; phases: Liquid
Fixed: Pressure, kPa = 101.325
Property: Molar heat capacity at constant pressure, J/K/mol (Liquid); method: Small sample (50 mg) DSC
Temperature, K	Molar heat capacity at constant pressure, J/K/mol	uncertainty
297.91	433.790075292	7.523486334
307.79	438.569954074	7.587789636
317.66	443.285529554	7.673527372
327.54	448.344055978	7.759265108
337.42	453.831271082	7.866437278
347.29	459.275617318	7.952175014
357.17	464.655660252	8.059347184
367.05	470.721605074	8.14508492
376.92	477.816402728	8.273691524
386.8	485.4899301	8.402298128

System: methyl dodecanoate; phases: Liquid
Fixed: Pressure, kPa = 101.325
Property: Viscosity, Pa*s (Liquid); method: Capillary tube (Ostwald; Ubbelohde) method
Temperature, K	Viscosity, Pa*s	uncertainty
293.15	0.00314	4e-05
313.15	0.00205	3e-05
333.15	0.00145	2e-05
353.15	0.00109	1e-05

System: methyl dodecanoate; phases: Liquid
Property: Viscosity, Pa*s (Liquid); method: quartz crystal resonator
Temperature, K	Pressure, kPa	Viscosity, Pa*s	uncertainty
293.15	10000	0.00353	0.00011
293.15	20000	0.00396	0.00012
293.15	30000	0.0044	0.00014
293.15	40000	0.005	0.00015
293.15	50000	0.00564	0.00017
293.15	60000	0.00621	0.00019
293.15	70000	0.00679	0.00021
293.15	80000	0.00758	0.00023
313.15	10000	0.0023	7e-05
313.15	20000	0.00259	8e-05
313.15	30000	0.00285	9e-05
313.15	40000	0.00316	0.0001
313.15	50000	0.0035	0.00011
313.15	60000	0.00385	0.00012
313.15	70000	0.00422	0.00013
313.15	80000	0.00464	0.00014
313.15	90000	0.00506	0.00016
313.15	100000	0.00555	0.00026
313.15	120000	0.00667	0.00031
313.15	140000	0.00767	0.00035
333.15	10000	0.00161	5e-05
333.15	20000	0.00178	6e-05
333.15	30000	0.00198	6e-05
333.15	40000	0.00218	7e-05
333.15	50000	0.00239	8e-05
333.15	60000	0.00262	8e-05
333.15	70000	0.00282	9e-05
333.15	80000	0.00307	0.0001
333.15	90000	0.00336	0.0001
333.15	100000	0.00363	0.00017
333.15	120000	0.00426	0.0002
333.15	140000	0.00495	0.00023
333.15	160000	0.00575	0.00026
333.15	180000	0.00656	0.0003
333.15	200000	0.00756	0.00035
353.15	10000	0.00121	4e-05
353.15	20000	0.00133	4e-05
353.15	30000	0.00148	5e-05
353.15	40000	0.00162	5e-05
353.15	50000	0.00176	6e-05
353.15	60000	0.00192	6e-05
353.15	70000	0.00208	7e-05
353.15	80000	0.00225	7e-05
353.15	90000	0.00246	8e-05
353.15	100000	0.00265	0.00012
353.15	120000	0.00309	0.00014
353.15	140000	0.00354	0.00016
353.15	160000	0.00406	0.00019
353.15	180000	0.00464	0.00021
353.15	200000	0.00534	0.00025

System: ethyl dodecanoate; phases: Liquid
Fixed: Frequency, MHz = 2
Property: Speed of sound, m/s (Liquid); method: Pulse-echo method
Temperature, K	Pressure, kPa	Speed of sound, m/s	uncertainty
293.15	100	1339.9	1.6
293.15	10000	1390.8	1.6
293.15	20000	1436.7	1.6
293.15	30000	1479.3	1.6
293.15	40000	1519	1.7
293.15	50000	1555.9	1.7
293.15	60000	1591.9	1.7
293.15	70000	1626.2	1.7
293.15	80000	1659.7	1.7
293.15	90000	1690.9	1.7
293.15	100000	1720.9	3.8
293.15	120000	1778.5	3.9
313.15	100	1266.1	1.6
313.15	10000	1317.6	1.6
313.15	20000	1365	1.6
313.15	30000	1409.3	1.6
313.15	40000	1452.1	1.6
313.15	50000	1491.4	1.6
313.15	60000	1529.2	1.6
313.15	70000	1564.8	1.6
313.15	80000	1600.2	1.7
313.15	90000	1632.3	1.7
313.15	100000	1663	3.6
313.15	120000	1721.9	3.7
313.15	140000	1777.9	3.8
313.15	160000	1830.9	3.9
333.15	100	1194	1.5
333.15	10000	1250.3	1.5
333.15	20000	1300.9	1.5
333.15	30000	1348	1.5
333.15	40000	1393.4	1.6
333.15	50000	1434.3	1.6
333.15	60000	1473.3	1.6
333.15	70000	1509.8	1.6
333.15	80000	1545.4	1.6
333.15	90000	1578.6	1.6
333.15	100000	1610.9	3.5
333.15	120000	1674.1	3.7
333.15	140000	1730.4	3.7
333.15	160000	1782.7	3.8
333.15	180000	1835.3	3.9
333.15	200000	1883.8	4
353.15	100	1125.7	1.5
353.15	10000	1186	1.5
353.15	20000	1240.6	1.5
353.15	30000	1290.3	1.5
353.15	40000	1337.1	1.5
353.15	50000	1379.7	1.5
353.15	60000	1419.8	1.6
353.15	70000	1458.8	1.6
353.15	80000	1496.2	1.6
353.15	90000	1530.6	1.6
353.15	100000	1564.4	3.5
353.15	120000	1627	3.6
353.15	140000	1685.1	3.7
353.15	160000	1740.7	3.8
353.15	180000	1793.6	3.9
353.15	200000	1843.5	4

System: ethyl dodecanoate; phases: Liquid
Fixed: Pressure, kPa = 101.325
Property: Mass density, kg/m3 (Liquid); method: Vibrating tube method
Temperature, K	Mass density, kg/m3	uncertainty
293.15	862.2	0.9
303.15	854.3	0.9
313.15	846.5	0.9
323.15	838.8	0.9
333.15	831.1	0.9
343.15	823.2	0.9
353.15	815.2	0.9

System: ethyl dodecanoate; phases: Liquid
Fixed: Pressure, kPa = 101.325
Property: Molar heat capacity at constant pressure, J/K/mol (Liquid); method: Small sample (50 mg) DSC
Temperature, K	Molar heat capacity at constant pressure, J/K/mol	uncertainty
297.91	459.0255492	7.947308016
307.79	464.369428728	8.038656384
317.66	469.804656624	8.130004752
327.54	475.422581256	8.244190212
337.42	481.451573544	8.33553858
347.29	487.45772874	8.44972404
357.17	493.2811872	8.541072408
367.05	499.881106788	8.655257868
376.92	507.074790768	8.79228042
386.8	515.387492256	8.929302972

System: ethyl dodecanoate; phases: Liquid
Fixed: Pressure, kPa = 101.325
Property: Viscosity, Pa*s (Liquid); method: Capillary tube (Ostwald; Ubbelohde) method
Temperature, K	Viscosity, Pa*s	uncertainty
293.15	0.00335	4e-05
313.15	0.00219	3e-05
333.15	0.00155	2e-05
353.15	0.00116	2e-05

System: ethyl dodecanoate; phases: Liquid
Property: Viscosity, Pa*s (Liquid); method: quartz crystal resonator
Temperature, K	Pressure, kPa	Viscosity, Pa*s	uncertainty
293.15	10000	0.00377	0.00012
293.15	20000	0.00428	0.00013
293.15	30000	0.00478	0.00015
293.15	40000	0.00539	0.00017
293.15	50000	0.00594	0.00018
293.15	60000	0.00665	0.0002
293.15	70000	0.00725	0.00022
293.15	80000	0.00813	0.00025
293.15	90000	0.00891	0.00027
293.15	100000	0.00976	0.00045
293.15	120000	0.0119	0.00055
313.15	10000	0.00246	8e-05
313.15	20000	0.00275	9e-05
313.15	30000	0.00311	0.0001
313.15	40000	0.00337	0.00011
313.15	50000	0.00374	0.00012
313.15	60000	0.00411	0.00013
313.15	70000	0.00445	0.00014
313.15	80000	0.00492	0.00015
313.15	90000	0.00546	0.00017
313.15	100000	0.00596	0.00028
313.15	120000	0.00677	0.00031
313.15	140000	0.00806	0.00037
313.15	160000	0.00957	0.00044
333.15	10000	0.00174	6e-05
333.15	20000	0.00191	6e-05
333.15	30000	0.00213	7e-05
333.15	40000	0.00233	7e-05
333.15	50000	0.00255	8e-05
333.15	60000	0.00282	9e-05
333.15	70000	0.00308	0.0001
333.15	80000	0.00329	0.0001
333.15	90000	0.0036	0.00011
333.15	100000	0.00394	0.00018
333.15	120000	0.00455	0.00021
333.15	140000	0.00527	0.00024
333.15	160000	0.0061	0.00028
333.15	180000	0.00698	0.00032
333.15	200000	0.00785	0.00036
353.15	10000	0.00129	4e-05
353.15	20000	0.00144	5e-05
353.15	30000	0.00158	5e-05
353.15	40000	0.00173	6e-05
353.15	50000	0.0019	6e-05
353.15	60000	0.00205	7e-05
353.15	70000	0.00222	7e-05
353.15	80000	0.0024	8e-05
353.15	90000	0.00258	8e-05
353.15	100000	0.00278	0.00013
353.15	120000	0.00322	0.00015
353.15	140000	0.00368	0.00017
353.15	160000	0.00419	0.0002
353.15	180000	0.00476	0.00022
353.15	200000	0.00528	0.00025
