Measured thermophysical data. Thermodynamic study on complex of neodymium with glycine
Source: J. Chem. Thermodyn., 2015, 10.1016/j.jct.2014.11.012
Compound 1: 2-aminoacetic acid, C2H5NO2, InChI=1S/C2H5NO2/c3-1-2(4)5/h1,3H2,(H,4,5)
Compound 2: neodymium trichloride hexahydrate, Cl3H12NdO6, InChI=1S/3ClH.Nd.6H2O/h3*1H;;6*1H2/q;;;+3;;;;;;/p-3
Compound 3: water, H2O, InChI=1S/H2O/h1H2
Compound 4: neodymium, Nd, InChI=1S/Nd
Compound 5: chlorine, Cl2, InChI=1S/Cl2/c1-2
Compound 6: hydrogen, H2, InChI=1S/H2/h1H
Compound 7: nitrogen, N2, InChI=1S/N2/c1-2
Compound 8: graphite, C
Compound 9: oxygen, O2, InChI=1S/O2/c1-2
Compound 10: triaquadiglycinatoneodymium trichloride (Nd(Gly)2Cl3.3H2O), C4H16Cl3N2NdO7, InChI=1S/2C2H5NO2.3ClH.Nd.3H2O/c2*3-1-2(4)5;;;;;;;/h2*1,3H2,(H,4,5);3*1H;;3*1H2/q;;;;;+3;;;/p-3

System: triaquadiglycinatoneodymium trichloride (Nd(Gly)2Cl3.3H2O); phases: Crystal 3, Crystal 2, Gas
Property: Triple point temperature, K (Crystal 3); method: Adiabatic calorimetry
Triple point temperature, K	uncertainty
184.896	0.05

System: triaquadiglycinatoneodymium trichloride (Nd(Gly)2Cl3.3H2O); phases: Crystal 2, Crystal 1, Gas
Property: Triple point temperature, K (Crystal 2); method: Adiabatic calorimetry
Triple point temperature, K	uncertainty
231.217	0.05

System: triaquadiglycinatoneodymium trichloride (Nd(Gly)2Cl3.3H2O); phases: Crystal 3, Crystal 2, Gas
Property: Molar enthalpy of transition or fusion, kJ/mol (Crystal 3); method: Adiabatic calorimetry
Molar enthalpy of transition or fusion, kJ/mol	uncertainty
0.6	0.123

System: triaquadiglycinatoneodymium trichloride (Nd(Gly)2Cl3.3H2O); phases: Crystal 2, Crystal 1, Gas
Property: Molar enthalpy of transition or fusion, kJ/mol (Crystal 2); method: Adiabatic calorimetry
Molar enthalpy of transition or fusion, kJ/mol	uncertainty
4.813	0.126

System: triaquadiglycinatoneodymium trichloride (Nd(Gly)2Cl3.3H2O); phases: Crystal 3
Fixed: Pressure, kPa = 101.325
Property: Molar heat capacity at constant pressure, J/K/mol (Crystal 3); method: Vacuum adiabatic calorimetry
Temperature, K	Molar heat capacity at constant pressure, J/K/mol	uncertainty
81.803	173.68	1.078
86.15	177.203	1.099
89.099	181.514	1.126
92.152	186.342	1.151
95.285	191.41	1.182
98.321	196.174	1.21
101.284	200.621	1.237
104.351	205.787	1.268
107.524	211.444	1.302
110.631	215.987	1.329
113.678	220.753	1.358
116.673	225.247	1.385
119.774	229.483	1.41
122.98	234.432	1.44
126.138	239.171	1.469
129.252	243.4	1.494
132.323	248.306	1.524
135.357	253.46	1.555
138.355	258.322	1.584
141.461	263.079	1.612
144.675	266.362	1.632
147.85	271.161	1.661
150.996	276.607	1.694
154.108	283.36	1.735
157.23	287.929	1.762
160.321	294.677	1.803
163.382	304.564	1.863
166.541	317.614	1.943
169.783	334.586	2.045
172.983	349.967	2.138
176.136	364.091	2.223
179.248	383.095	2.337
182.351	390.206	2.379

System: triaquadiglycinatoneodymium trichloride (Nd(Gly)2Cl3.3H2O); phases: Crystal 2
Fixed: Pressure, kPa = 101.325
Property: Molar heat capacity at constant pressure, J/K/mol (Crystal 2); method: Vacuum adiabatic calorimetry
Temperature, K	Molar heat capacity at constant pressure, J/K/mol	uncertainty
185.546	392.772	2.394
188.896	388.454	2.368
192.312	381.703	2.327
195.774	379.928	2.316
199.219	387.603	2.363
202.629	398.885	2.432
205.972	420.574	2.565
209.227	445.529	2.716
212.409	471.578	2.875
215.617	503.972	3.07
218.847	529.719	3.225
221.995	563.056	3.429
225.081	601.039	3.663
228.157	654.835	4.026
231.217	797.033	4.922

System: triaquadiglycinatoneodymium trichloride (Nd(Gly)2Cl3.3H2O); phases: Crystal 1
Fixed: Pressure, kPa = 101.325
Property: Molar heat capacity at constant pressure, J/K/mol (Crystal 1); method: Vacuum adiabatic calorimetry
Temperature, K	Molar heat capacity at constant pressure, J/K/mol	uncertainty
231.217	797.033	4.845
234.332	746.372	4.55
237.556	656.782	4.009
240.751	610.327	3.721
243.894	553.984	3.378
247.128	521.937	3.174
250.256	529.388	3.218
253.269	532.311	3.236
256.358	536.625	3.262
259.534	544.092	3.307
262.686	550.321	3.344
265.808	554.927	3.372
268.914	562.188	3.416
271.998	569.558	3.461
275.066	576.383	3.502
278.123	581.109	3.53
281.156	590.346	3.586
284.186	599.047	3.639
287.21	605.974	3.681
290.207	615.28	3.737
293.733	621.704	3.775
296.375	625.672	3.799
299.248	632.214	3.839
302.658	638.346	3.876
305.779	642.409	3.9
308.898	646.687	3.926
312.001	653.878	3.97
315.086	661.645	4.017
318.158	672.335	4.081
321.216	682.771	4.145
324.261	693.815	4.211
327.291	705.748	4.283
330.308	717.151	4.352

System: triaquadiglycinatoneodymium trichloride (Nd(Gly)2Cl3.3H2O); phases: Crystal 3
Fixed: Pressure, kPa = 101.325
Property: Molar heat capacity at constant pressure, J/K/mol (Crystal 3); method: Vacuum adiabatic calorimetry
Temperature, K	Molar heat capacity at constant pressure, J/K/mol	uncertainty
80	166.3	1
90	184.7	1.1
100	200.1	1.2
110	214.2	1.3
120	228.3	1.4
130	243.4	1.5
140	260	1.6
150	278.6	1.7
160	299.3	1.8
170	321.8	2
180	346	2.1
184.896	358.4	2.2

System: triaquadiglycinatoneodymium trichloride (Nd(Gly)2Cl3.3H2O); phases: Crystal 2
Fixed: Pressure, kPa = 101.325
Property: Molar heat capacity at constant pressure, J/K/mol (Crystal 2); method: Vacuum adiabatic calorimetry
Temperature, K	Molar heat capacity at constant pressure, J/K/mol	uncertainty
184.896	358.4	2.2
190	371.5	2.3
200	397.8	2.4
210	424.4	2.6
220	450.8	2.7
230	476.6	2.9
231.217	479.7	2.9

System: triaquadiglycinatoneodymium trichloride (Nd(Gly)2Cl3.3H2O); phases: Crystal 1
Fixed: Pressure, kPa = 101.325
Property: Molar heat capacity at constant pressure, J/K/mol (Crystal 1); method: Vacuum adiabatic calorimetry
Temperature, K	Molar heat capacity at constant pressure, J/K/mol	uncertainty
231.217	479.7	2.9
240	501.4	3
250	524.9	3.2
260	547.1	3.3
270	568.1	3.5
280	588.3	3.6
290	608.5	3.7
300	629.6	3.8
310	653	4
320	680.6	4.1
330	714.7	4.3

Reaction: -2 2-aminoacetic acid + -1 neodymium trichloride hexahydrate + 1 triaquadiglycinatoneodymium trichloride (Nd(Gly)2Cl3.3H2O) + 3 water
Property: Molar enthalpy of reaction, kJ/mol
-14.84

Reaction: -1 neodymium + -1.5 chlorine + 1 triaquadiglycinatoneodymium trichloride (Nd(Gly)2Cl3.3H2O) + -8 hydrogen + -1 nitrogen + -4 graphite + -3.5 oxygen
Property: Molar enthalpy of reaction, kJ/mol
-3081.3
