Measured thermophysical data. Thermochemical studies of 4-tert-butylbiphenyl and 4,40-di-tert-butylbiphenyl
Source: J. Chem. Thermodyn., 2009, 10.1016/j.jct.2008.12.015
Compound 1: carbon dioxide, CO2, InChI=1S/CO2/c2-1-3
Compound 2: water, H2O, InChI=1S/H2O/h1H2
Compound 3: oxygen, O2, InChI=1S/O2/c1-2
Compound 4: 4,4'-bis(1,1-dimethylethyl)-1,1'-biphenyl, C20H26, InChI=1S/C20H26/c1-19(2,3)17-11-7-15(8-12-17)16-9-13-18(14-10-16)20(4,5)6/h7-14H,1-6H3, purity 95%
Compound 5: 4-(1,1-dimethylethyl)-1,1'-biphenyl, C16H18, InChI=1S/C16H18/c1-16(2,3)15-11-9-14(10-12-15)13-7-5-4-6-8-13/h4-12H,1-3H3, purity 95%

System: 4,4'-bis(1,1-dimethylethyl)-1,1'-biphenyl; phases: Crystal, Liquid, Air at 1 atmosphere
Property: Normal melting temperature, K (Crystal); method: DTA
Normal melting temperature, K	uncertainty
400.8	0.4

System: 4,4'-bis(1,1-dimethylethyl)-1,1'-biphenyl; phases: Crystal, Gas
Property: Molar enthalpy of vaporization or sublimation, kJ/mol (Crystal); method: Static calorimetry
Temperature, K	Molar enthalpy of vaporization or sublimation, kJ/mol	uncertainty
399.15	99.68	1.73

System: 4,4'-bis(1,1-dimethylethyl)-1,1'-biphenyl; phases: Crystal
Property: Mass density, kg/m3 (Crystal); method: UNKNOWN
Temperature, K	Pressure, kPa	Mass density, kg/m3	uncertainty
298.15	101.325	950	22567060

System: 4-(1,1-dimethylethyl)-1,1'-biphenyl; phases: Crystal, Liquid, Air at 1 atmosphere
Property: Normal melting temperature, K (Crystal); method: DTA
Normal melting temperature, K	uncertainty
324.7	0.4

System: 4-(1,1-dimethylethyl)-1,1'-biphenyl; phases: Crystal, Gas
Property: Molar enthalpy of vaporization or sublimation, kJ/mol (Crystal); method: Static calorimetry
Temperature, K	Molar enthalpy of vaporization or sublimation, kJ/mol	uncertainty
322.65	97.34	1.56

System: 4-(1,1-dimethylethyl)-1,1'-biphenyl; phases: Liquid, Gas
Property: Molar enthalpy of vaporization or sublimation, kJ/mol (Liquid); method: Static calorimetry
Temperature, K	Molar enthalpy of vaporization or sublimation, kJ/mol	uncertainty
334	76.97	0.86

System: 4-(1,1-dimethylethyl)-1,1'-biphenyl; phases: Crystal
Property: Mass density, kg/m3 (Crystal); method: UNKNOWN
Temperature, K	Pressure, kPa	Mass density, kg/m3	uncertainty
298.15	101.325	1030	26527860

Reaction: -1 4,4'-bis(1,1-dimethylethyl)-1,1'-biphenyl + 20 carbon dioxide + 13 water + -26.5 oxygen
Property: Specific internal energy of reaction at constant volume, J/g
-42893.8

Reaction: -1 4-(1,1-dimethylethyl)-1,1'-biphenyl + 16 carbon dioxide + 9 water + -20.5 oxygen
Property: Specific internal energy of reaction at constant volume, J/g
-41991
