Measured thermophysical data. The thermodynamics of the activation for viscous flow of aqueous [C6mim][Ala] (1-hexyl-3-methylimidazolium alanine salt)
Source: J. Chem. Thermodyn., 2016, 10.1016/j.jct.2016.06.022
Compound 1: water, H2O, InChI=1S/H2O/h1H2
Compound 2: 1-hexyl-3-methylimidazolium alaninate, C13H25N3O2, InChI=1S/C10H19N2.C3H7NO2/c1-3-4-5-6-7-12-9-8-11(2)10-12;1-2(4)3(5)6/h8-10H,3-7H2,1-2H3;2H,4H2,1H3,(H,5,6)/q+1;/p-1, purity 99%

System: water; phases: Liquid
Fixed: Pressure, kPa = 100
Property: Mass density, kg/m3 (Liquid); method: Vibrating tube method
Temperature, K	Mass density, kg/m3	uncertainty
288.15	999.13	0.64
293.15	998.23	0.66
298.15	997.07	0.65
303.15	995.67	0.65
308.15	994.06	0.64
313.15	992.24	0.64
318.15	990.25	0.64
323.15	988.07	0.64
328.15	985.73	0.63

System: water; phases: Liquid
Fixed: Pressure, kPa = 100
Property: Viscosity, Pa*s (Liquid); method: Capillary tube (Ostwald; Ubbelohde) method
Temperature, K	Viscosity, Pa*s	uncertainty
288.15	0.001139	1.62e-05
293.15	0.001002	1.3e-05
298.15	0.0008904	1.26e-05
303.15	0.0007975	1.27e-05
308.15	0.0007194	1.22e-05
313.15	0.0006529	1.21e-05
318.15	0.000596	1.2e-05
323.15	0.0005468	1.2e-05
328.15	0.000504	1.24e-05

System: 1-hexyl-3-methylimidazolium alaninate + water; phases: Liquid
Fixed: Pressure, kPa = 100
Property: Mass density, kg/m3 (Liquid); method: Vibrating tube method
Molality, mol/kg of 1-hexyl-3-methylimidazolium alaninate	Temperature, K	Mass density, kg/m3	uncertainty
0.0166	288.15	999.49	0.64
0.0221	288.15	999.62	0.64
0.0277	288.15	999.75	0.64
0.0555	288.15	1000.39	0.64
0.167	288.15	1003.04	0.65
0.2783	288.15	1005.75	0.65
0.3892	288.15	1008.54	0.65
0.502	288.15	1011.34	0.65
0.6188	288.15	1014.14	0.65
0.7273	288.15	1016.87	0.65
0.8457	288.15	1019.72	0.65
1.018	288.15	1023.76	0.65
0.0166	293.15	998.58	0.64
0.0221	293.15	998.7	0.64
0.0277	293.15	998.82	0.64
0.0555	293.15	999.44	0.63
0.167	293.15	1001.99	0.64
0.2783	293.15	1004.57	0.65
0.3892	293.15	1007.23	0.65
0.502	293.15	1009.87	0.65
0.6188	293.15	1012.56	0.65
0.7273	293.15	1015.12	0.65
0.8457	293.15	1017.87	0.65
1.018	293.15	1021.82	0.64
0.0166	298.15	997.4	0.63
0.0221	298.15	997.51	0.64
0.0277	298.15	997.63	0.64
0.0555	298.15	998.22	0.63
0.167	298.15	1000.65	0.64
0.2783	298.15	1003.11	0.64
0.3892	298.15	1005.63	0.64
0.502	298.15	1008.19	0.64
0.6188	298.15	1010.78	0.64
0.7273	298.15	1013.16	0.64
0.8457	298.15	1015.7	0.64
1.018	298.15	1019.58	0.65
0.0166	303.15	995.99	0.63
0.0221	303.15	996.1	0.63
0.0277	303.15	996.21	0.64
0.0555	303.15	996.78	0.63
0.167	303.15	999.13	0.64
0.2783	303.15	1001.54	0.64
0.3892	303.15	1003.96	0.64
0.502	303.15	1006.43	0.64
0.6188	303.15	1009.02	0.64
0.7273	303.15	1011.37	0.64
0.8457	303.15	1013.89	0.64
1.018	303.15	1017.61	0.64
0.0166	308.15	994.37	0.63
0.0221	308.15	994.48	0.63
0.0277	308.15	994.59	0.64
0.0555	308.15	995.14	0.63
0.167	308.15	997.45	0.64
0.2783	308.15	999.83	0.64
0.3892	308.15	1002.24	0.64
0.502	308.15	1004.67	0.64
0.6188	308.15	1007.12	0.64
0.7273	308.15	1009.57	0.64
0.8457	308.15	1012.13	0.64
1.018	308.15	1015.75	0.64
0.0166	313.15	992.55	0.63
0.0221	313.15	992.66	0.63
0.0277	313.15	992.77	0.63
0.0555	313.15	993.31	0.63
0.167	313.15	995.61	0.64
0.2783	313.15	997.97	0.64
0.3892	313.15	1000.38	0.64
0.502	313.15	1002.82	0.64
0.6188	313.15	1005.33	0.64
0.7273	313.15	1007.63	0.64
0.8457	313.15	1010.14	0.64
1.018	313.15	1013.72	0.64
0.0166	318.15	990.55	0.63
0.0221	318.15	990.66	0.63
0.0277	318.15	990.77	0.63
0.0555	318.15	991.31	0.63
0.167	318.15	993.57	0.64
0.2783	318.15	995.94	0.64
0.3892	318.15	998.32	0.64
0.502	318.15	1000.68	0.64
0.6188	318.15	1003.06	0.64
0.7273	318.15	1005.48	0.64
0.8457	318.15	1007.88	0.64
1.018	318.15	1011.52	0.64
0.0166	323.15	988.37	0.63
0.0221	323.15	988.48	0.63
0.0277	323.15	988.58	0.63
0.0555	323.15	989.11	0.63
0.167	323.15	991.38	0.64
0.2783	323.15	993.68	0.64
0.3892	323.15	996.04	0.64
0.502	323.15	998.45	0.64
0.6188	323.15	1000.98	0.64
0.7273	323.15	1003.21	0.64
0.8457	323.15	1005.68	0.64
1.018	323.15	1009.2	0.64
0.0166	328.15	986.03	0.63
0.0221	328.15	986.14	0.63
0.0277	328.15	986.24	0.63
0.0555	328.15	986.77	0.63
0.167	328.15	989.03	0.64
0.2783	328.15	991.36	0.64
0.3892	328.15	993.68	0.64
0.502	328.15	996.07	0.64
0.6188	328.15	998.52	0.64
0.7273	328.15	1000.91	0.64
0.8457	328.15	1003.34	0.64
1.018	328.15	1006.82	0.64
0	288.15	999.13	0.64
0	293.15	998.23	0.66
0	298.15	997.07	0.65
0	303.15	995.67	0.65
0	308.15	994.06	0.64
0	313.15	992.24	0.64
0	318.15	990.25	0.64
0	323.15	988.07	0.64
0	328.15	985.73	0.63

System: 1-hexyl-3-methylimidazolium alaninate + water; phases: Liquid
Fixed: Pressure, kPa = 100
Property: Viscosity, Pa*s (Liquid); method: Capillary tube (Ostwald; Ubbelohde) method
Molality, mol/kg of 1-hexyl-3-methylimidazolium alaninate	Temperature, K	Viscosity, Pa*s	uncertainty
0.0166	288.15	0.0011556	1.64e-05
0.0221	288.15	0.001162	1.73e-05
0.0277	288.15	0.0011673	1.78e-05
0.0555	288.15	0.0012032	1.83e-05
0.167	288.15	0.001361	1.93e-05
0.2783	288.15	0.0015115	1.92e-05
0.3892	288.15	0.0016562	1.99e-05
0.502	288.15	0.001819	1.98e-05
0.6188	288.15	0.0019544	1.98e-05
0.7273	288.15	0.0020972	2.05e-05
0.8457	288.15	0.002242	2.07e-05
1.018	288.15	0.0024545	2.15e-05
0.0166	293.15	0.0010169	1.57e-05
0.0221	293.15	0.0010221	1.57e-05
0.0277	293.15	0.0010263	1.57e-05
0.0555	293.15	0.0010567	1.9e-05
0.167	293.15	0.0011908	1.77e-05
0.2783	293.15	0.0013246	1.76e-05
0.3892	293.15	0.0014446	1.76e-05
0.502	293.15	0.0015729	1.78e-05
0.6188	293.15	0.0016937	1.81e-05
0.7273	293.15	0.0018143	1.89e-05
0.8457	293.15	0.0019529	1.83e-05
1.018	293.15	0.0021025	1.91e-05
0.0166	298.15	0.0009021	1.46e-05
0.0221	298.15	0.000907	1.47e-05
0.0277	298.15	0.000911	1.48e-05
0.0555	298.15	0.0009372	1.71e-05
0.167	298.15	0.0010499	1.61e-05
0.2783	298.15	0.0011622	1.63e-05
0.3892	298.15	0.001272	1.61e-05
0.502	298.15	0.0013668	1.61e-05
0.6188	298.15	0.0014754	1.67e-05
0.7273	298.15	0.0015772	1.71e-05
0.8457	298.15	0.00169	1.69e-05
1.018	298.15	0.0018267	1.75e-05
0.0166	303.15	0.0008095	1.4e-05
0.0221	303.15	0.0008127	1.4e-05
0.0277	303.15	0.0008163	1.39e-05
0.0555	303.15	0.0008377	1.55e-05
0.167	303.15	0.0009328	1.49e-05
0.2783	303.15	0.0010268	1.5e-05
0.3892	303.15	0.0011178	1.5e-05
0.502	303.15	0.001202	1.49e-05
0.6188	303.15	0.0012866	1.54e-05
0.7273	303.15	0.0013774	1.57e-05
0.8457	303.15	0.0014659	1.57e-05
1.018	303.15	0.0015953	1.66e-05
0.0166	308.15	0.0007281	1.32e-05
0.0221	308.15	0.0007315	1.34e-05
0.0277	308.15	0.0007347	1.35e-05
0.0555	308.15	0.000755	1.48e-05
0.167	308.15	0.0008333	1.41e-05
0.2783	308.15	0.0009162	1.43e-05
0.3892	308.15	0.0009967	1.42e-05
0.502	308.15	0.0010693	1.42e-05
0.6188	308.15	0.0011452	1.46e-05
0.7273	308.15	0.0012228	1.48e-05
0.8457	308.15	0.0013029	1.48e-05
1.018	308.15	0.0014083	1.53e-05
0.0166	313.15	0.0006609	1.28e-05
0.0221	313.15	0.0006638	1.3e-05
0.0277	313.15	0.0006663	1.31e-05
0.0555	313.15	0.0006845	1.42e-05
0.167	313.15	0.0007542	1.35e-05
0.2783	313.15	0.0008254	1.36e-05
0.3892	313.15	0.0008934	1.36e-05
0.502	313.15	0.000958	1.36e-05
0.6188	313.15	0.0010258	1.38e-05
0.7273	313.15	0.0010875	1.4e-05
0.8457	313.15	0.0011613	1.41e-05
1.018	313.15	0.0012553	1.44e-05
0.0166	318.15	0.0006035	1.25e-05
0.0221	318.15	0.0006059	1.28e-05
0.0277	318.15	0.0006083	1.29e-05
0.0555	318.15	0.0006256	1.36e-05
0.167	318.15	0.000684	1.29e-05
0.2783	318.15	0.0007446	1.31e-05
0.3892	318.15	0.000805	1.32e-05
0.502	318.15	0.0008665	1.33e-05
0.6188	318.15	0.0009276	1.34e-05
0.7273	318.15	0.000984	1.33e-05
0.8457	318.15	0.0010347	1.33e-05
1.018	318.15	0.0011128	1.38e-05
0.0166	323.15	0.0005544	1.24e-05
0.0221	323.15	0.0005568	1.25e-05
0.0277	323.15	0.000559	1.25e-05
0.0555	323.15	0.0005731	1.31e-05
0.167	323.15	0.0006257	1.26e-05
0.2783	323.15	0.0006808	1.28e-05
0.3892	323.15	0.0007356	1.27e-05
0.502	323.15	0.0007808	1.27e-05
0.6188	323.15	0.0008311	1.3e-05
0.7273	323.15	0.0008865	1.31e-05
0.8457	323.15	0.0009358	1.3e-05
1.018	323.15	0.0010063	1.33e-05
0.0166	328.15	0.0005117	1.23e-05
0.0221	328.15	0.000514	1.24e-05
0.0277	328.15	0.000516	1.24e-05
0.0555	328.15	0.0005295	1.25e-05
0.167	328.15	0.0005762	1.24e-05
0.2783	328.15	0.0006253	1.24e-05
0.3892	328.15	0.0006724	1.24e-05
0.502	328.15	0.0007165	1.25e-05
0.6188	328.15	0.0007635	1.26e-05
0.7273	328.15	0.0008066	1.27e-05
0.8457	328.15	0.0008541	1.27e-05
1.018	328.15	0.0009138	1.28e-05
0	288.15	0.001139	1.62e-05
0	293.15	0.001002	1.3e-05
0	298.15	0.0008904	1.26e-05
0	303.15	0.0007975	1.27e-05
0	308.15	0.0007194	1.22e-05
0	313.15	0.0006529	1.21e-05
0	318.15	0.000596	1.2e-05
0	323.15	0.0005468	1.2e-05
0	328.15	0.000504	1.24e-05
