Measured thermophysical data. Ternary (liquid + liquid) equilibria for b-citronellol in aqueous alcohol at different temperatures
Source: J. Chem. Thermodyn., 2012, 10.1016/j.jct.2012.04.019
Compound 1: 3,7-dimethyl-6-octen-1-ol, C10H20O, InChI=1S/C10H20O/c1-9(2)5-4-6-10(3)7-8-11/h5,10-11H,4,6-8H2,1-3H3, purity 98%
Compound 2: water, H2O, InChI=1S/H2O/h1H2, purity 100%
Compound 3: methanol, CH4O, InChI=1S/CH4O/c1-2/h2H,1H3, purity 99.9%
Compound 4: ethanol, C2H6O, InChI=1S/C2H6O/c1-2-3/h3H,2H2,1H3, purity 99.8%

System: 3,7-dimethyl-6-octen-1-ol + water; phases: Liquid mixture 2, Liquid mixture 1
Fixed: Pressure, kPa = 101
Property: Mole fraction of 3,7-dimethyl-6-octen-1-ol (Liquid mixture 2); method: Chromatography
Temperature, K	Mole fraction of 3,7-dimethyl-6-octen-1-ol	uncertainty
283.15	0.803	0.002
313.15	0.7667	0.0023
298.15	0.782	0.0022

System: 3,7-dimethyl-6-octen-1-ol + water; phases: Liquid mixture 1, Liquid mixture 2
Fixed: Pressure, kPa = 101
Property: Mole fraction of 3,7-dimethyl-6-octen-1-ol (Liquid mixture 1); method: Chromatography
Temperature, K	Mole fraction of 3,7-dimethyl-6-octen-1-ol	uncertainty
283.15	0.0002	0.0001
313.15	0.0001	0.0001
298.15	0.0001	0.0001

System: methanol + 3,7-dimethyl-6-octen-1-ol + water; phases: Liquid mixture 2, Liquid mixture 1
Fixed: Pressure, kPa = 101
Property: Mole fraction of 3,7-dimethyl-6-octen-1-ol (Liquid mixture 2); method: Chromatography
Property: Mole fraction of 3,7-dimethyl-6-octen-1-ol (Liquid mixture 1); method: Chromatography
Property: Mole fraction of methanol (Liquid mixture 1); method: Chromatography
Temperature, K	Mole fraction of methanol	Mole fraction of 3,7-dimethyl-6-octen-1-ol	uncertainty	Mole fraction of 3,7-dimethyl-6-octen-1-ol	uncertainty	Mole fraction of methanol	uncertainty
283.15	0	0.803	0.002	0.0002	0.0001	0	
283.15	0.0832	0.7073	0.0029	0.0002	0.0001	0.0648	
283.15	0.1703	0.612	0.0039	0.0003	0.0001	0.1297	
283.15	0.2478	0.5254	0.0047	0.0003	0.0001	0.1872	
283.15	0.318	0.4497	0.0045	0.001	0.0001	0.2535	
283.15	0.3799	0.361	0.0036	0.0014	0.0001	0.3091	
283.15	0.4532	0.245	0.0025	0.0035	0.0001	0.3887	
283.15	0.4932	0.0906	0.0009	0.0277	0.0003	0.4637	
298.15	0	0.782	0.0022	0.0001	0.0001	0	
298.15	0.0689	0.714	0.0029	0.0002	0.0001	0.0481	
298.15	0.1826	0.5879	0.0041	0.0003	0.0001	0.1272	
298.15	0.266	0.4928	0.0049	0.0011	0.0001	0.196	
298.15	0.3504	0.3937	0.0039	0.001	0.0001	0.2688	
298.15	0.4077	0.2906	0.0029	0.0026	0.0001	0.3259	
298.15	0.4506	0.1782	0.0018	0.0074	0.0001	0.3807	
298.15	0.4712	0.1489	0.0015	0.0123	0.0001	0.4298	
313.15	0	0.7667	0.0023	0.0001	0.0001	0	
313.15	0.0998	0.6524	0.0035	0.0003	0.0001	0.065	
313.15	0.1855	0.5596	0.0044	0.0003	0.0001	0.1218	
313.15	0.2707	0.4514	0.0045	0.0004	0.0001	0.1876	
313.15	0.3275	0.3874	0.0039	0.001	0.0001	0.2415	
313.15	0.394	0.2843	0.0028	0.0025	0.0001	0.3102	
313.15	0.4455	0.1833	0.0018	0.0096	0.0001	0.3712	
313.15	0.4452	0.1006	0.001	0.022	0.0002	0.4175	

System: ethanol + 3,7-dimethyl-6-octen-1-ol + water; phases: Liquid mixture 2, Liquid mixture 1
Fixed: Pressure, kPa = 1
Property: Mole fraction of ethanol (Liquid mixture 2); method: Chromatography
Property: Mole fraction of 3,7-dimethyl-6-octen-1-ol (Liquid mixture 1); method: Chromatography
Property: Mole fraction of ethanol (Liquid mixture 1); method: Chromatography
Temperature, K	Mole fraction of 3,7-dimethyl-6-octen-1-ol	Mole fraction of ethanol	uncertainty	Mole fraction of 3,7-dimethyl-6-octen-1-ol	uncertainty	Mole fraction of ethanol	uncertainty
283.15	0.803	0		0.0002	0.0002	0	
283.15	0.6994	0.0812	0.0012	0.0004	0.0004	0.0311	
283.15	0.6085	0.1547	0.0015	0.0002	0.0002	0.0574	
283.15	0.4867	0.2417	0.002	0.0002	0.0002	0.0964	
283.15	0.3956	0.2926	0.0023	0.0004	0.0004	0.1298	
283.15	0.2779	0.3646	0.0028	0.0006	0.0006	0.169	
283.15	0.2038	0.3749	0.0029	0.0012	0.001	0.1889	
283.15	0.1287	0.3755	0.0029	0.0042	0.001	0.2153	
298.15	0.782	0		0.0001	0.0001	0	
298.15	0.6437	0.0908	0.0012	0.0002	0.0002	0.0298	
298.15	0.5557	0.1685	0.0016	0.0002	0.0002	0.0532	
298.15	0.4683	0.2513	0.002	0.0002	0.0002	0.0844	
298.15	0.3419	0.3037	0.0024	0.0002	0.0002	0.1275	
298.15	0.24	0.3594	0.0028	0.0007	0.0007	0.1555	
298.15	0.1589	0.369	0.0029	0.0023	0.001	0.187	
298.15	0.0984	0.3454	0.0027	0.0071	0.001	0.2192	
313.15	0.7667	0		0.0001	0.0001	0	
313.15	0.6538	0.0951	0.0012	0.0001	0.0001	0.0261	
313.15	0.5627	0.1821	0.0016	0.0002	0.0002	0.0553	
313.15	0.4307	0.2614	0.0021	0.0002	0.0002	0.0791	
313.15	0.3343	0.3066	0.0024	0.0004	0.0004	0.119	
313.15	0.2187	0.3604	0.0028	0.0012	0.001	0.1466	
313.15	0.1433	0.3491	0.0027	0.0035	0.001	0.1841	
313.15	0.0922	0.3307	0.0026	0.0158	0.001	0.214	
