Measured thermophysical data. Isothermal (vapour + liquid) equilibria for the binary (cyclopentanone or cyclohexanone with 1,1,2,2-tetrachloroethane) systems at temperatures of (343.15, 353.15, and 363.15) K
Source: J. Chem. Thermodyn., 2006, 10.1016/j.jct.2006.01.010
Compound 1: cyclopentanone, C5H8O, InChI=1S/C5H8O/c6-5-3-1-2-4-5/h1-4H2
Compound 2: cyclohexanone, C6H10O, InChI=1S/C6H10O/c7-6-4-2-1-3-5-6/h1-5H2
Compound 3: 1,1,2,2-tetrachloroethane, C2H2Cl4, InChI=1S/C2H2Cl4/c3-1(4)2(5)6/h1-2H

System: cyclopentanone; phases: Liquid
Property: Refractive index (Na D-line) (Liquid); method: Standard Abbe refractometry
Temperature, K	Pressure, kPa	Refractive index (Na D-line)	uncertainty
298.15	101.325	1.4349	0.0008

System: cyclopentanone; phases: Liquid, Gas
Property: Vapor or sublimation pressure, kPa (Liquid); method: Ebulliometric method (Recirculating still)
Temperature, K	Vapor or sublimation pressure, kPa	uncertainty
323.15	5.31	0.06
333.15	8.49	0.08
343.15	13.03	0.11
353.15	19.61	0.15
358.85	24.48	0.18
363.15	28.61	0.29
363.45	29.04	0.29
372.25	39.48	0.26
378.35	48.32	0.31
384.15	57.77	0.36
388.85	67.18	0.42
393.25	76.67	0.47
397.65	87.37	0.51
399.75	92.98	0.54
403.05	101.76	0.54

System: cyclohexanone; phases: Liquid
Property: Refractive index (Na D-line) (Liquid); method: Standard Abbe refractometry
Temperature, K	Pressure, kPa	Refractive index (Na D-line)	uncertainty
298.15	101.325	1.4481	0.0007

System: cyclohexanone; phases: Liquid, Gas
Property: Vapor or sublimation pressure, kPa (Liquid); method: Ebulliometric method (Recirculating still)
Temperature, K	Vapor or sublimation pressure, kPa	uncertainty
343.15	5.57	0.06
353.15	8.6	0.08
363.15	13.07	0.1
373.15	18.9	0.15
385.45	29.1	0.19
394.05	38.41	0.24
401.35	48.2	0.29
407.35	57.43	0.34
414.75	70.59	0.38
419.8	81.35	0.45
424.05	91.55	0.49
427.8	101.1	0.51

System: 1,1,2,2-tetrachloroethane; phases: Liquid
Property: Refractive index (Na D-line) (Liquid); method: Standard Abbe refractometry
Temperature, K	Pressure, kPa	Refractive index (Na D-line)	uncertainty
298.15	101.325	1.492	0.0008

System: 1,1,2,2-tetrachloroethane; phases: Liquid, Gas
Property: Vapor or sublimation pressure, kPa (Liquid); method: Ebulliometric method (Recirculating still)
Temperature, K	Vapor or sublimation pressure, kPa	uncertainty
343.15	7.24	0.08
353.15	11.23	0.1
363.15	16.65	0.13
373.15	24.17	0.17
379.75	30.48	0.23
389.55	42.33	0.28
396.35	52.48	0.33
401.55	61.35	0.38
405.55	69.05	0.43
409.55	77.59	0.47
413.45	86.66	0.51
416.45	94.27	0.56
418.95	101.08	0.58

System: 1,1,2,2-tetrachloroethane + cyclopentanone; phases: Liquid, Gas
Property: Azeotropic pressure, kPa (Liquid); method: By P(X) extreme
Temperature, K	Azeotropic pressure, kPa	uncertainty
343.15	6.54	0.24
353.15	10.07	0.26
363.15	15.27	0.29

System: 1,1,2,2-tetrachloroethane + cyclopentanone; phases: Liquid, Gas
Property: Azeotropic composition: mole fraction of cyclopentanone (Liquid); method: By T or P extreme
Temperature, K	Azeotropic composition: mole fraction of cyclopentanone	uncertainty
343.15	0.3038	0.0046
353.15	0.2806	0.0044
363.15	0.2746	0.0043

System: 1,1,2,2-tetrachloroethane + cyclopentanone; phases: Liquid, Gas
Property: Vapor or sublimation pressure, kPa (Liquid); method: Ebulliometric method (Recirculating still)
Mole fraction of cyclopentanone	Temperature, K	Vapor or sublimation pressure, kPa	uncertainty
0	343.15	7.24	0.11
0	353.15	11.23	0.13
0	363.15	16.65	0.16
0.0623	353.15	10.67	0.13
0.0623	363.15	16.13	0.16
0.0648	343.15	7.17	0.11
0.1045	343.15	6.97	0.11
0.1144	353.15	10.4	0.13
0.1144	363.15	15.74	0.16
0.1556	363.15	15.6	0.16
0.158	343.15	6.75	0.1
0.158	353.15	10.32	0.13
0.2169	343.15	6.63	0.1
0.2169	353.15	10.17	0.13
0.2169	363.15	15.38	0.15
0.2741	353.15	10.18	0.13
0.2741	363.15	15.36	0.15
0.2763	343.15	6.56	0.1
0.3402	343.15	6.64	0.1
0.344	363.15	15.53	0.16
0.3446	353.15	10.23	0.13
0.4222	343.15	6.79	0.11
0.4222	353.15	10.49	0.13
0.4243	363.15	15.97	0.16
0.4803	343.15	7.08	0.11
0.4803	363.15	16.58	0.17
0.4842	353.15	10.92	0.14
0.5527	343.15	7.52	0.12
0.5527	363.15	17.62	0.18
0.5582	353.15	11.69	0.14
0.626	343.15	8.16	0.12
0.626	353.15	12.53	0.15
0.626	363.15	18.8	0.19
0.6927	363.15	20.16	0.21
0.6943	353.15	13.44	0.16
0.696	343.15	8.8	0.13
0.7695	343.15	9.72	0.14
0.7753	353.15	14.78	0.18
0.7783	363.15	22.21	0.22
0.8507	343.15	10.73	0.15
0.852	353.15	16.26	0.19
0.852	363.15	24.09	0.24
0.9149	343.15	11.85	0.16
0.9149	363.15	26.08	0.26
0.9194	353.15	17.72	0.21
0.9658	343.15	12.56	0.17
0.9658	353.15	18.88	0.23
0.9658	363.15	27.81	0.27
0.9841	343.15	12.83	0.17
0.9841	353.15	19.2	0.22
0.9841	363.15	28.4	0.26
1	343.15	13.03	0.16
1	353.15	19.61	0.2
1	363.15	28.61	0.24

System: 1,1,2,2-tetrachloroethane + cyclopentanone; phases: Gas, Liquid
Property: Mole fraction of cyclopentanone (Gas); method: Index of refraction calibration data
Mole fraction of cyclopentanone	Temperature, K	Mole fraction of cyclopentanone	uncertainty
0	343.15	0	0.0001
0	353.15	0	0.0001
0	363.15	0	0.0001
0.0623	353.15	0.0497	0.005
0.0623	363.15	0.0522	0.0051
0.0648	343.15	0.0497	0.0049
0.1045	343.15	0.0748	0.0052
0.1144	353.15	0.0848	0.0051
0.1144	363.15	0.0897	0.0052
0.1556	363.15	0.1314	0.0058
0.158	343.15	0.1266	0.0057
0.158	353.15	0.1266	0.0059
0.2169	343.15	0.1889	0.0064
0.2169	353.15	0.1959	0.0067
0.2169	363.15	0.1959	0.0066
0.2741	353.15	0.2786	0.0075
0.2741	363.15	0.2853	0.0076
0.2763	343.15	0.2718	0.0079
0.3402	343.15	0.3892	0.0088
0.344	363.15	0.3912	0.0082
0.3446	353.15	0.3892	0.0086
0.4222	343.15	0.5284	0.0094
0.4222	353.15	0.5284	0.0094
0.4243	363.15	0.5208	0.0094
0.4803	343.15	0.626	0.0085
0.4803	363.15	0.6225	0.0088
0.4842	353.15	0.6225	0.0083
0.5527	343.15	0.7244	0.0074
0.5527	363.15	0.7244	0.0074
0.5582	353.15	0.7244	0.0076
0.626	343.15	0.8093	0.0064
0.626	353.15	0.8107	0.0064
0.626	363.15	0.8079	0.0063
0.6927	363.15	0.8659	0.0054
0.6943	353.15	0.8709	0.0053
0.696	343.15	0.8796	0.0055
0.7695	343.15	0.9312	0.0047
0.7753	353.15	0.9238	0.0047
0.7783	363.15	0.9249	0.0048
0.8507	343.15	0.9648	0.0043
0.852	353.15	0.9568	0.0044
0.852	363.15	0.9588	0.0044
0.9149	343.15	0.9851	0.0042
0.9149	363.15	0.9832	0.0042
0.9194	353.15	0.9832	0.0042
0.9658	343.15	0.996	0.004
0.9658	353.15	0.9951	0.0041
0.9658	363.15	0.9951	0.0041
0.9841	343.15	0.9969	0.0031
0.9841	353.15	0.9996	0.0004
0.9841	363.15	0.9969	0.0031
1	343.15	1	0.0001
1	353.15	1	0.0001
1	363.15	1	0.0001

System: 1,1,2,2-tetrachloroethane + cyclohexanone; phases: Liquid, Gas
Property: Azeotropic pressure, kPa (Liquid); method: By P(X) extreme
Temperature, K	Azeotropic pressure, kPa	uncertainty
343.15	4.3	0.23
353.15	6.78	0.24
363.15	10.44	0.26

System: 1,1,2,2-tetrachloroethane + cyclohexanone; phases: Liquid, Gas
Property: Azeotropic composition: mole fraction of cyclohexanone (Liquid); method: By T or P extreme
Temperature, K	Azeotropic composition: mole fraction of cyclohexanone	uncertainty
343.15	0.6011	0.0058
353.15	0.5983	0.0058
363.15	0.609	0.0057

System: 1,1,2,2-tetrachloroethane + cyclohexanone; phases: Liquid, Gas
Property: Vapor or sublimation pressure, kPa (Liquid); method: Ebulliometric method (Recirculating still)
Mole fraction of cyclohexanone	Temperature, K	Vapor or sublimation pressure, kPa	uncertainty
0	343.15	7.24	0.11
0	353.15	11.23	0.13
0.0695	343.15	6.81	0.11
0.0723	353.15	10.43	0.12
0.1446	343.15	6.35	0.1
0.1474	353.15	9.77	0.12
0.2229	343.15	5.84	0.1
0.2256	353.15	8.92	0.11
0.3117	353.15	8.11	0.1
0.3142	343.15	5.23	0.09
0.3921	343.15	4.81	0.09
0.3946	353.15	7.48	0.1
0.4577	343.15	4.51	0.08
0.4577	353.15	7.07	0.09
0.5281	343.15	4.33	0.08
0.5281	353.15	6.81	0.09
0.5915	343.15	4.21	0.08
0.5915	353.15	6.81	0.09
0.6462	353.15	6.77	0.09
0.7032	343.15	4.41	0.08
0.7094	353.15	6.97	0.09
0.7779	343.15	4.59	0.08
0.7779	353.15	7.2	0.09
0.8337	343.15	4.8	0.09
0.8356	353.15	7.56	0.1
0.8871	343.15	5.03	0.09
0.8907	353.15	7.87	0.1
0.9312	343.15	5.25	0.09
0.9312	353.15	8.12	0.1
1	343.15	5.57	0.09
1	353.15	8.6	0.1

System: 1,1,2,2-tetrachloroethane + cyclohexanone; phases: Gas, Liquid
Property: Mole fraction of cyclohexanone (Gas); method: Index of refraction calibration data
Mole fraction of cyclohexanone	Temperature, K	Mole fraction of cyclohexanone	uncertainty
0	343.15	0	0.0001
0	353.15	0	0.0001
0.0695	343.15	0.02	0.0042
0.0723	353.15	0.02	0.0042
0.1446	343.15	0.05	0.0045
0.1474	353.15	0.05	0.0045
0.2229	343.15	0.0948	0.005
0.2256	353.15	0.0976	0.0051
0.3117	353.15	0.1773	0.0059
0.3142	343.15	0.1746	0.0059
0.3921	343.15	0.2755	0.0071
0.3946	353.15	0.2807	0.007
0.4577	343.15	0.3797	0.0083
0.4577	353.15	0.3797	0.0082
0.5281	343.15	0.5049	0.0086
0.5281	353.15	0.5026	0.0086
0.5915	343.15	0.6004	0.0081
0.5915	353.15	0.5982	0.0084
0.6462	353.15	0.699	0.0078
0.7032	343.15	0.7819	0.0071
0.7094	353.15	0.7838	0.0064
0.7779	343.15	0.8616	0.0057
0.7779	353.15	0.858	0.0057
0.8337	343.15	0.912	0.0051
0.8356	353.15	0.9103	0.0051
0.8871	343.15	0.9466	0.0047
0.8907	353.15	0.9466	0.0047
0.9312	343.15	0.9735	0.0044
0.9312	353.15	0.9685	0.0044
1	343.15	1	0.0001
1	353.15	1	0.0001
