Measured thermophysical data. Densities, viscosities, speed of sound, and IR spectroscopic studies of binary mixtures of tert-butyl acetate with benzene, methylbenzene, and ethylbenzene at T = (298.15 and 308.15) K
Source: J. Chem. Thermodyn., 2011, 10.1016/j.jct.2011.04.008
Compound 1: benzene, C6H6, InChI=1S/C6H6/c1-2-4-6-5-3-1/h1-6H, purity 99.7%
Compound 2: toluene, C7H8, InChI=1S/C7H8/c1-7-5-3-2-4-6-7/h2-6H,1H3, purity 99.7%
Compound 3: ethylbenzene, C8H10, InChI=1S/C8H10/c1-2-8-6-4-3-5-7-8/h3-7H,2H2,1H3, purity 99%
Compound 4: 1,1-dimethylethyl ethanoate, C6H12O2, InChI=1S/C6H12O2/c1-5(7)8-6(2,3)4/h1-4H3, purity 99%

System: benzene + 1,1-dimethylethyl ethanoate; phases: Liquid
Fixed: Pressure, kPa = 101
Property: Viscosity, Pa*s (Liquid); method: Capillary tube (Ostwald; Ubbelohde) method
Temperature, K	Mole fraction of 1,1-dimethylethyl ethanoate	Viscosity, Pa*s	uncertainty
298.15	0	0.000609	7e-06
298.15	0.0987	0.000613	7e-06
298.15	0.1999	0.000618	7e-06
298.15	0.299	0.000623	7e-06
298.15	0.3982	0.000629	7e-06
298.15	0.498	0.000636	7e-06
298.15	0.5995	0.000643	8e-06
298.15	0.6996	0.000651	8e-06
298.15	0.7999	0.000661	8e-06
298.15	0.8993	0.000671	8e-06
298.15	1	0.000683	8e-06
308.15	0	0.000539	7e-06
308.15	0.0987	0.00054	7e-06
308.15	0.1999	0.000542	7e-06
308.15	0.299	0.000544	7e-06
308.15	0.3982	0.000548	7e-06
308.15	0.498	0.000552	7e-06
308.15	0.5995	0.000558	7e-06
308.15	0.6996	0.000565	7e-06
308.15	0.7999	0.000574	7e-06
308.15	0.8993	0.000584	8e-06
308.15	1	0.000596	8e-06

System: benzene + 1,1-dimethylethyl ethanoate; phases: Liquid
Fixed: Pressure, kPa = 101
Property: Speed of sound, m/s (Liquid); method: Linear variable-path acoustic interferometer
Temperature, K	Mole fraction of 1,1-dimethylethyl ethanoate	Speed of sound, m/s	uncertainty
298.15	0	1296	3
298.15	0.0987	1254	3
298.15	0.1999	1220	3
298.15	0.299	1192	3
298.15	0.3982	1169	3
298.15	0.498	1149	3
298.15	0.5995	1133	3
298.15	0.6996	1120	3
298.15	0.7999	1109	3
298.15	0.8993	1099	3
298.15	1	1092	3
308.15	0	1260	3
308.15	0.0987	1215	3
308.15	0.1999	1179	3
308.15	0.299	1150	3
308.15	0.3982	1127	3
308.15	0.498	1107	3
308.15	0.5995	1091	3
308.15	0.6996	1079	3
308.15	0.7999	1068	3
308.15	0.8993	1060	3
308.15	1	1055	3

System: benzene + 1,1-dimethylethyl ethanoate; phases: Liquid
Fixed: Pressure, kPa = 101
Property: Mass density, kg/m3 (Liquid); method: Pycnometric method
Temperature, K	Mole fraction of 1,1-dimethylethyl ethanoate	Mass density, kg/m3	uncertainty
298.15	0	873	0.5
298.15	0.0987	870.6	0.5
298.15	0.1999	868.5	0.5
298.15	0.299	866.7	0.5
298.15	0.3982	865.3	0.5
298.15	0.498	864.1	0.5
298.15	0.5995	863	0.5
298.15	0.6996	862.3	0.5
298.15	0.7999	861.7	0.5
298.15	0.8993	861.3	0.5
298.15	1	861.1	0.5
308.15	0	862	0.5
308.15	0.0987	859.3	0.5
308.15	0.1999	856.8	0.5
308.15	0.299	854.9	0.5
308.15	0.3982	853.2	0.5
308.15	0.498	851.9	0.5
308.15	0.5995	850.8	0.5
308.15	0.6996	850	0.5
308.15	0.7999	849.5	0.5
308.15	0.8993	849.4	0.5
308.15	1	849.4	0.5

System: benzene + 1,1-dimethylethyl ethanoate; phases: Liquid
Fixed: Pressure, kPa = 101
Property: Excess molar volume, m3/mol (Liquid); method: Calculated with densities of this investigation
Temperature, K	Mole fraction of 1,1-dimethylethyl ethanoate	Excess molar volume, m3/mol	uncertainty
298.15	0	0	1e-08
298.15	0.0987	7.3e-08	8e-09
298.15	0.1999	1.43e-07	8e-09
298.15	0.299	1.91e-07	8e-09
298.15	0.3982	2.2e-07	8e-09
298.15	0.498	2.3e-07	8e-09
298.15	0.5995	2.35e-07	8e-09
298.15	0.6996	2.05e-07	8e-09
298.15	0.7999	1.63e-07	8e-09
298.15	0.8993	8.9e-08	8e-09
298.15	1	0	1e-08
308.15	0	0	1e-08
308.15	0.0987	1e-07	8e-09
308.15	0.1999	2e-07	8e-09
308.15	0.299	2.7e-07	8e-09
308.15	0.3982	3.24e-07	9e-09
308.15	0.498	3.43e-07	9e-09
308.15	0.5995	3.46e-07	9e-09
308.15	0.6996	3.11e-07	8e-09
308.15	0.7999	2.5e-07	8e-09
308.15	0.8993	1.31e-07	8e-09
308.15	1	0	1e-08

System: toluene + 1,1-dimethylethyl ethanoate; phases: Liquid
Fixed: Pressure, kPa = 101
Property: Viscosity, Pa*s (Liquid); method: Capillary tube (Ostwald; Ubbelohde) method
Temperature, K	Mole fraction of 1,1-dimethylethyl ethanoate	Viscosity, Pa*s	uncertainty
298.15	0	0.000556	7e-06
298.15	0.0976	0.000567	7e-06
298.15	0.1986	0.000577	7e-06
298.15	0.2993	0.000588	7e-06
298.15	0.3975	0.000599	7e-06
298.15	0.4983	0.000611	7e-06
298.15	0.5978	0.000623	7e-06
298.15	0.6975	0.000636	8e-06
298.15	0.7972	0.00065	8e-06
298.15	0.8987	0.000666	8e-06
298.15	1	0.000683	8e-06
308.15	0	0.000494	7e-06
308.15	0.0976	0.000502	7e-06
308.15	0.1986	0.000509	7e-06
308.15	0.2993	0.000516	7e-06
308.15	0.3975	0.000524	7e-06
308.15	0.4983	0.000533	7e-06
308.15	0.5978	0.000542	7e-06
308.15	0.6975	0.000553	7e-06
308.15	0.7972	0.000565	7e-06
308.15	0.8987	0.00058	8e-06
308.15	1	0.000596	8e-06

System: toluene + 1,1-dimethylethyl ethanoate; phases: Liquid
Fixed: Pressure, kPa = 101
Property: Speed of sound, m/s (Liquid); method: Linear variable-path acoustic interferometer
Temperature, K	Mole fraction of 1,1-dimethylethyl ethanoate	Speed of sound, m/s	uncertainty
298.15	0	1312	3
298.15	0.0976	1275	3
298.15	0.1986	1242	3
298.15	0.2993	1213	3
298.15	0.3975	1187	3
298.15	0.4983	1165	3
298.15	0.5978	1145	3
298.15	0.6975	1128	3
298.15	0.7972	1113	3
298.15	0.8987	1101	3
298.15	1	1092	3
308.15	0	1270	3
308.15	0.0976	1232	3
308.15	0.1986	1197	3
308.15	0.2993	1168	3
308.15	0.3975	1143	3
308.15	0.4983	1120	3
308.15	0.5978	1101	3
308.15	0.6975	1085	3
308.15	0.7972	1072	3
308.15	0.8987	1062	3
308.15	1	1055	3

System: toluene + 1,1-dimethylethyl ethanoate; phases: Liquid
Fixed: Pressure, kPa = 101
Property: Mass density, kg/m3 (Liquid); method: Pycnometric method
Temperature, K	Mole fraction of 1,1-dimethylethyl ethanoate	Mass density, kg/m3	uncertainty
298.15	0	862.2	0.5
298.15	0.0976	861.9	0.5
298.15	0.1986	861.6	0.5
298.15	0.2993	861.2	0.5
298.15	0.3975	860.8	0.5
298.15	0.4983	860.5	0.5
298.15	0.5978	860.3	0.5
298.15	0.6975	860.2	0.5
298.15	0.7972	860.3	0.5
298.15	0.8987	860.6	0.5
298.15	1	861.1	0.5
308.15	0	852.5	0.5
308.15	0.0976	851.9	0.5
308.15	0.1986	851.2	0.5
308.15	0.2993	850.5	0.5
308.15	0.3975	849.9	0.5
308.15	0.4983	849.4	0.5
308.15	0.5978	848.9	0.5
308.15	0.6975	848.7	0.5
308.15	0.7972	848.7	0.5
308.15	0.8987	848.9	0.5
308.15	1	849.4	0.5

System: toluene + 1,1-dimethylethyl ethanoate; phases: Liquid
Fixed: Pressure, kPa = 101
Property: Excess molar volume, m3/mol (Liquid); method: Calculated with densities of this investigation
Temperature, K	Mole fraction of 1,1-dimethylethyl ethanoate	Excess molar volume, m3/mol	uncertainty
298.15	0	0	1e-08
298.15	0.0976	2.1e-08	8e-09
298.15	0.1986	5e-08	8e-09
298.15	0.2993	8.7e-08	8e-09
298.15	0.3975	1.24e-07	8e-09
298.15	0.4983	1.53e-07	8e-09
298.15	0.5978	1.72e-07	8e-09
298.15	0.6975	1.73e-07	8e-09
298.15	0.7972	1.48e-07	8e-09
298.15	0.8987	9.3e-08	8e-09
298.15	1	0	1e-08
308.15	0	0	1e-08
308.15	0.0976	2.7e-08	8e-09
308.15	0.1986	7.2e-08	8e-09
308.15	0.2993	1.2e-07	8e-09
308.15	0.3975	1.69e-07	8e-09
308.15	0.4983	2.04e-07	8e-09
308.15	0.5978	2.31e-07	8e-09
308.15	0.6975	2.28e-07	8e-09
308.15	0.7972	1.94e-07	8e-09
308.15	0.8987	1.23e-07	8e-09
308.15	1	0	1e-08

System: ethylbenzene + 1,1-dimethylethyl ethanoate; phases: Liquid
Fixed: Pressure, kPa = 101
Property: Viscosity, Pa*s (Liquid); method: Capillary tube (Ostwald; Ubbelohde) method
Temperature, K	Mole fraction of 1,1-dimethylethyl ethanoate	Viscosity, Pa*s	uncertainty
298.15	0	0.000631	8e-06
298.15	0.0979	0.000635	8e-06
298.15	0.1974	0.000639	8e-06
298.15	0.2989	0.000641	8e-06
298.15	0.3983	0.000644	8e-06
298.15	0.4976	0.000647	8e-06
298.15	0.5986	0.000651	8e-06
298.15	0.6977	0.000656	8e-06
298.15	0.7979	0.000663	8e-06
298.15	0.8978	0.000671	8e-06
298.15	1	0.000683	8e-06
308.15	0	0.000569	8e-06
308.15	0.0979	0.000571	8e-06
308.15	0.1974	0.000573	8e-06
308.15	0.2989	0.000573	8e-06
308.15	0.3983	0.000574	8e-06
308.15	0.4976	0.000575	8e-06
308.15	0.5986	0.000576	8e-06
308.15	0.6977	0.000579	8e-06
308.15	0.7979	0.000582	8e-06
308.15	0.8978	0.000588	8e-06
308.15	1	0.000596	8e-06

System: ethylbenzene + 1,1-dimethylethyl ethanoate; phases: Liquid
Fixed: Pressure, kPa = 101
Property: Speed of sound, m/s (Liquid); method: Linear variable-path acoustic interferometer
Temperature, K	Mole fraction of 1,1-dimethylethyl ethanoate	Speed of sound, m/s	uncertainty
298.15	0	1325	3
298.15	0.0979	1287	3
298.15	0.1974	1254	3
298.15	0.2989	1224	3
298.15	0.3983	1198	3
298.15	0.4976	1176	3
298.15	0.5986	1155	3
298.15	0.6977	1137	3
298.15	0.7979	1121	3
298.15	0.8978	1106	3
298.15	1	1092	3
308.15	0	1280	3
308.15	0.0979	1245	3
308.15	0.1974	1214	3
308.15	0.2989	1186	3
308.15	0.3983	1161	3
308.15	0.4976	1139	3
308.15	0.5986	1119	3
308.15	0.6977	1101	3
308.15	0.7979	1085	3
308.15	0.8978	1069	3
308.15	1	1055	3

System: ethylbenzene + 1,1-dimethylethyl ethanoate; phases: Liquid
Fixed: Pressure, kPa = 101
Property: Mass density, kg/m3 (Liquid); method: Pycnometric method
Temperature, K	Mole fraction of 1,1-dimethylethyl ethanoate	Mass density, kg/m3	uncertainty
298.15	0	864.4	0.5
298.15	0.0979	863.9	0.5
298.15	0.1974	863.3	0.5
298.15	0.2989	862.6	0.5
298.15	0.3983	861.9	0.5
298.15	0.4976	861.3	0.5
298.15	0.5986	860.7	0.5
298.15	0.6977	860.4	0.5
298.15	0.7979	863	1
298.15	0.8978	860.5	0.5
298.15	1	861.1	0.5
308.15	0	855.4	0.5
308.15	0.0979	854.7	0.5
308.15	0.1974	853.9	0.5
308.15	0.2989	852.9	0.5
308.15	0.3983	852	0.5
308.15	0.4976	851.1	0.5
308.15	0.5986	850.3	0.5
308.15	0.6977	849.7	0.5
308.15	0.7979	849.3	0.5
308.15	0.8978	849.2	0.5
308.15	1	849.4	0.5

System: ethylbenzene + 1,1-dimethylethyl ethanoate; phases: Liquid
Fixed: Pressure, kPa = 101
Property: Excess molar volume, m3/mol (Liquid); method: Calculated with densities of this investigation
Temperature, K	Mole fraction of 1,1-dimethylethyl ethanoate	Excess molar volume, m3/mol	uncertainty
298.15	0	0	1e-08
298.15	0.0979	1.2e-08	8e-09
298.15	0.1974	5e-08	8e-09
298.15	0.2989	1.02e-07	8e-09
298.15	0.3983	1.6e-07	8e-09
298.15	0.4976	2.1e-07	8e-09
298.15	0.5986	2.42e-07	8e-09
298.15	0.6977	2.51e-07	8e-09
298.15	0.7979	2.19e-07	8e-09
298.15	0.8978	1.44e-07	8e-09
298.15	1	0	1e-08
308.15	0	0	1e-08
308.15	0.0979	6e-09	8e-09
308.15	0.1974	3.5e-08	8e-09
308.15	0.2989	8.3e-08	8e-09
308.15	0.3983	1.26e-07	8e-09
308.15	0.4976	1.72e-07	8e-09
308.15	0.5986	2.06e-07	8e-09
308.15	0.6977	2.1e-07	8e-09
308.15	0.7979	1.92e-07	8e-09
308.15	0.8978	1.26e-07	8e-09
308.15	1	0	1e-08
