Measured thermophysical data. Ionic association and conductance of [emim][BF4] and [bmim][BF4] in 1-butanol in a wide range of temperature
Source: J. Chem. Thermodyn., 2016, 10.1016/j.jct.2015.12.029
Compound 1: 1-ethyl-3-methylimidazolium tetrafluoroborate, C6H11BF4N2, InChI=1S/C6H11N2.BF4/c1-3-8-5-4-7(2)6-8;2-1(3,4)5/h4-6H,3H2,1-2H3;/q+1;-1, purity 99%
Compound 2: 1-butyl-3-methylimidazolium tetrafluoroborate, C8H15BF4N2, InChI=1S/C8H15N2.BF4/c1-3-4-5-10-7-6-9(2)8-10;2-1(3,4)5/h6-8H,3-5H2,1-2H3;/q+1;-1, purity 98.5%
Compound 3: butan-1-ol, C4H10O, InChI=1S/C4H10O/c1-2-3-4-5/h5H,2-4H2,1H3, purity 99.5%

System: butan-1-ol; phases: Liquid
Fixed: Pressure, kPa = 100
Property: Mass density, kg/m3 (Liquid); method: Vibrating tube method
Temperature, K	Mass density, kg/m3	uncertainty
283.15	817.103	0.221
288.15	813.337	0.222
293.15	809.548	0.223
298.15	805.738	0.223
303.15	801.901	0.224
308.15	798.032	0.224
313.15	794.128	0.225
318.15	790.181	0.226

System: butan-1-ol + 1-ethyl-3-methylimidazolium tetrafluoroborate; phases: Liquid
Fixed: Pressure, kPa = 100
Property: Molar conductivity, S*m2/mol (Liquid); method: Alternating current cell with electrodes
Temperature, K	Molality, mol/kg of 1-ethyl-3-methylimidazolium tetrafluoroborate	Molar conductivity, S*m2/mol	uncertainty
283.15	3.974e-05	0.001267	1.3e-05
283.15	6.936e-05	0.001204	1.2e-05
283.15	0.00010473	0.001152	1.2e-05
283.15	0.00018648	0.001061	1.1e-05
283.15	0.00029453	0.000977	1.1e-05
283.15	0.00040048	0.000913	1e-05
283.15	0.00068801	0.000802	9e-06
283.15	0.00097239	0.000729	8e-06
283.15	0.0014643	0.000642	8e-06
283.15	0.0019425	0.000597	7e-06
283.15	0.0028386	0.000519	7e-06
288.15	3.974e-05	0.001443	1.5e-05
288.15	6.936e-05	0.001381	1.4e-05
288.15	0.00010473	0.001318	1.4e-05
288.15	0.00018648	0.001215	1.3e-05
288.15	0.00029453	0.001113	1.2e-05
288.15	0.00040048	0.001042	1.1e-05
288.15	0.00068801	0.000915	1.1e-05
288.15	0.00097239	0.00083	9e-06
288.15	0.0014643	0.000733	9e-06
288.15	0.0019425	0.000668	8e-06
288.15	0.0028386	0.000592	8e-06
293.15	3.974e-05	0.001651	1.7e-05
293.15	6.936e-05	0.001576	1.6e-05
293.15	0.00010473	0.001505	1.5e-05
293.15	0.00018648	0.001382	1.5e-05
293.15	0.00029453	0.001269	1.4e-05
293.15	0.00040048	0.001185	1.3e-05
293.15	0.00068801	0.001039	1.2e-05
293.15	0.00097239	0.000943	1.1e-05
293.15	0.0014643	0.000833	1e-05
293.15	0.0019425	0.000762	9e-06
293.15	0.0028386	0.000671	9e-06
298.15	3.974e-05	0.001885	1.9e-05
298.15	6.936e-05	0.0018	1.8e-05
298.15	0.00010473	0.001716	1.8e-05
298.15	0.00018648	0.001571	1.7e-05
298.15	0.00029453	0.001439	1.6e-05
298.15	0.00040048	0.001342	1.4e-05
298.15	0.00068801	0.001172	1.4e-05
298.15	0.00097239	0.001065	1.2e-05
298.15	0.0014643	0.000942	1.1e-05
298.15	0.0019425	0.000859	1e-05
298.15	0.0028386	0.000759	1e-05
303.15	3.974e-05	0.002128	2.2e-05
303.15	6.936e-05	0.002029	2.1e-05
303.15	0.00010473	0.001928	2e-05
303.15	0.00018648	0.001767	1.9e-05
303.15	0.00029453	0.001616	1.8e-05
303.15	0.00040048	0.001509	1.6e-05
303.15	0.00068801	0.001313	1.5e-05
303.15	0.00097239	0.001193	1.3e-05
303.15	0.0014643	0.001056	1.3e-05
303.15	0.0019425	0.000961	1.1e-05
303.15	0.0028386	0.000848	1.1e-05
308.15	3.974e-05	0.002402	2.4e-05
308.15	6.936e-05	0.002284	2.3e-05
308.15	0.00010473	0.002172	2.2e-05
308.15	0.00018648	0.001982	2.1e-05
308.15	0.00029453	0.001808	2e-05
308.15	0.00040048	0.001686	1.8e-05
308.15	0.00068801	0.001464	1.7e-05
308.15	0.00097239	0.001328	1.5e-05
308.15	0.0014643	0.001172	1.4e-05
308.15	0.0019425	0.001069	1.2e-05
308.15	0.0028386	0.000941	1.2e-05
313.15	3.974e-05	0.002685	2.7e-05
313.15	6.936e-05	0.002548	2.6e-05
313.15	0.00010473	0.002421	2.5e-05
313.15	0.00018648	0.002204	2.3e-05
313.15	0.00029453	0.002007	2.2e-05
313.15	0.00040048	0.001868	2e-05
313.15	0.00068801	0.001621	1.9e-05
313.15	0.00097239	0.001468	1.7e-05
313.15	0.0014643	0.001294	1.6e-05
313.15	0.0019425	0.00118	1.4e-05
313.15	0.0028386	0.001035	1.4e-05
318.15	3.974e-05	0.002998	3e-05
318.15	6.936e-05	0.002838	2.9e-05
318.15	0.00010473	0.002693	2.8e-05
318.15	0.00018648	0.002441	2.6e-05
318.15	0.00029453	0.002218	2.5e-05
318.15	0.00040048	0.002062	2.2e-05
318.15	0.00068801	0.001784	2.1e-05
318.15	0.00097239	0.001614	1.8e-05
318.15	0.0014643	0.001419	1.7e-05
318.15	0.0019425	0.001294	1.5e-05
318.15	0.0028386	0.001136	1.5e-05

System: butan-1-ol + 1-ethyl-3-methylimidazolium tetrafluoroborate; phases: Liquid
Fixed: Pressure, kPa = 100
Property: Mass density, kg/m3 (Liquid); method: Vibrating tube method
Temperature, K	Molality, mol/kg of 1-ethyl-3-methylimidazolium tetrafluoroborate	Mass density, kg/m3	uncertainty
283.15	0.0093972	817.716	0.222
288.15	0.0093972	813.954	0.222
293.15	0.0093972	810.164	0.223
298.15	0.0093972	806.357	0.223
303.15	0.0093972	802.519	0.224
308.15	0.0093972	798.653	0.225
313.15	0.0093972	794.75	0.225
318.15	0.0093972	790.804	0.226
283.15	0	817.103	0.231
288.15	0	813.337	0.232
293.15	0	809.548	0.232
298.15	0	805.738	0.233
303.15	0	801.901	0.234
308.15	0	798.032	0.234
313.15	0	794.128	0.235
318.15	0	790.181	0.235

System: butan-1-ol + 1-butyl-3-methylimidazolium tetrafluoroborate; phases: Liquid
Fixed: Pressure, kPa = 100
Property: Molar conductivity, S*m2/mol (Liquid); method: Alternating current cell with electrodes
Temperature, K	Molality, mol/kg of 1-butyl-3-methylimidazolium tetrafluoroborate	Molar conductivity, S*m2/mol	uncertainty
283.15	7.252e-05	0.001182	1.2e-05
283.15	0.00010494	0.001136	1.2e-05
283.15	0.00019484	0.001034	1.1e-05
283.15	0.00029508	0.000958	1e-05
283.15	0.00040647	0.000896	1e-05
283.15	0.00056396	0.000826	9e-06
283.15	0.00075901	0.000763	9e-06
283.15	0.00098427	0.000711	8e-06
283.15	0.0014317	0.000635	8e-06
283.15	0.0019633	0.000573	7e-06
283.15	0.0030077	0.000498	7e-06
288.15	7.252e-05	0.001351	1.4e-05
288.15	0.00010494	0.001296	1.3e-05
288.15	0.00019484	0.001183	1.3e-05
288.15	0.00029508	0.001092	1.2e-05
288.15	0.00040647	0.001018	1.1e-05
288.15	0.00056396	0.000939	1.1e-05
288.15	0.00075901	0.000869	1e-05
288.15	0.00098427	0.000808	9e-06
288.15	0.0014317	0.000719	9e-06
288.15	0.0019633	0.000648	8e-06
288.15	0.0030077	0.000562	7e-06
293.15	7.252e-05	0.001545	1.6e-05
293.15	0.00010494	0.001481	1.5e-05
293.15	0.00019484	0.001348	1.4e-05
293.15	0.00029508	0.001245	1.4e-05
293.15	0.00040647	0.001159	1.3e-05
293.15	0.00056396	0.001067	1.2e-05
293.15	0.00075901	0.000986	1.1e-05
293.15	0.00098427	0.000917	1e-05
293.15	0.0014317	0.000816	1e-05
293.15	0.0019633	0.000736	9e-06
293.15	0.0030077	0.000639	8e-06
298.15	7.252e-05	0.00177	1.8e-05
298.15	0.00010494	0.001694	1.7e-05
298.15	0.00019484	0.001537	1.6e-05
298.15	0.00029508	0.001417	1.5e-05
298.15	0.00040647	0.001318	1.5e-05
298.15	0.00056396	0.001215	1.4e-05
298.15	0.00075901	0.00112	1.3e-05
298.15	0.00098427	0.001038	1.2e-05
298.15	0.0014317	0.000925	1.1e-05
298.15	0.0019633	0.000834	1e-05
298.15	0.0030077	0.00072	1e-05
303.15	7.252e-05	0.001989	2e-05
303.15	0.00010494	0.001905	2e-05
303.15	0.00019484	0.001728	1.9e-05
303.15	0.00029508	0.001583	1.7e-05
303.15	0.00040647	0.001474	1.6e-05
303.15	0.00056396	0.001354	1.5e-05
303.15	0.00075901	0.001252	1.4e-05
303.15	0.00098427	0.001162	1.3e-05
303.15	0.0014317	0.00103	1.2e-05
303.15	0.0019633	0.00093	1.1e-05
303.15	0.0030077	0.000807	1.1e-05
308.15	7.252e-05	0.002236	2.3e-05
308.15	0.00010494	0.002135	2.2e-05
308.15	0.00019484	0.001928	2.1e-05
308.15	0.00029508	0.001769	1.9e-05
308.15	0.00040647	0.001643	1.8e-05
308.15	0.00056396	0.00151	1.7e-05
308.15	0.00075901	0.001393	1.6e-05
308.15	0.00098427	0.001292	1.5e-05
308.15	0.0014317	0.001145	1.4e-05
308.15	0.0019633	0.001034	1.2e-05
308.15	0.0030077	0.000896	1.2e-05
313.15	7.252e-05	0.002498	2.6e-05
313.15	0.00010494	0.002382	2.5e-05
313.15	0.00019484	0.002144	2.3e-05
313.15	0.00029508	0.001966	2.2e-05
313.15	0.00040647	0.001823	2e-05
313.15	0.00056396	0.001676	1.9e-05
313.15	0.00075901	0.001539	1.8e-05
313.15	0.00098427	0.001427	1.6e-05
313.15	0.0014317	0.001264	1.5e-05
313.15	0.0019633	0.001142	1.3e-05
313.15	0.0030077	0.00099	1.3e-05
318.15	7.252e-05	0.002776	2.8e-05
318.15	0.00010494	0.002641	2.7e-05
318.15	0.00019484	0.002372	2.6e-05
318.15	0.00029508	0.002169	2.4e-05
318.15	0.00040647	0.002008	2.2e-05
318.15	0.00056396	0.001842	2.1e-05
318.15	0.00075901	0.001691	2e-05
318.15	0.00098427	0.001564	1.8e-05
318.15	0.0014317	0.001385	1.7e-05
318.15	0.0019633	0.001248	1.5e-05
318.15	0.0030077	0.001078	1.5e-05

System: butan-1-ol + 1-butyl-3-methylimidazolium tetrafluoroborate; phases: Liquid
Fixed: Pressure, kPa = 100
Property: Mass density, kg/m3 (Liquid); method: Vibrating tube method
Temperature, K	Molality, mol/kg of 1-butyl-3-methylimidazolium tetrafluoroborate	Mass density, kg/m3	uncertainty
283.15	0.0090069	817.699	0.222
288.15	0.0090069	813.937	0.222
293.15	0.0090069	810.147	0.223
298.15	0.0090069	806.337	0.223
303.15	0.0090069	802.5	0.224
308.15	0.0090069	798.633	0.225
313.15	0.0090069	794.73	0.225
318.15	0.0090069	790.785	0.226
283.15	0	817.103	0.231
288.15	0	813.337	0.232
293.15	0	809.548	0.232
298.15	0	805.738	0.233
303.15	0	801.901	0.234
308.15	0	798.032	0.234
313.15	0	794.128	0.235
318.15	0	790.181	0.235
