Measured thermophysical data. Solvation thermodynamics of anti-tuberculosis Isoniazid in aqueous and in aqueous electrolytic media
Source: J. Chem. Thermodyn., 2018, 10.1016/j.jct.2018.04.003
Compound 1: isonicotinic acid hydrazide, C6H7N3O, InChI=1S/C6H7N3O/c7-9-6(10)5-1-3-8-4-2-5/h1-4H,7H2,(H,9,10), purity 99%
Compound 2: sodium chloride, ClNa, InChI=1S/ClH.Na/h1H;/q;+1/p-1, purity 99%
Compound 3: potassium chloride, ClK, InChI=1S/ClH.K/h1H;/q;+1/p-1, purity 99%
Compound 4: water, H2O, InChI=1S/H2O/h1H2

System: isonicotinic acid hydrazide + sodium chloride + water; phases: Liquid
Fixed: Pressure, kPa = 101.3
Property: Mass density, kg/m3 (Liquid); method: Pycnometric method
Temperature, K	Solvent: Molality, mol/kg of sodium chloride	Molality, mol/kg of isonicotinic acid hydrazide	Mass density, kg/m3	uncertainty
288.15	0	0	999.1	0.6
288.15	0	0.0099	999.49	0.6
288.15	0	0.02	999.88	0.6
288.15	0	0.03	1000.26	0.6
288.15	0	0.0401	1000.64	0.6
288.15	0	0.0495	1001	0.6
288.15	0	0.055	1001.19	0.6
288.15	0	0.06	1001.38	0.6
288.15	0	0.065	1001.55	0.6
288.15	0	0.0708	1001.77	0.6
288.15	0	0.075	1001.92	0.6
288.15	0	0.0809	1002.12	0.6
288.15	0	0.0846	1002.25	0.6
288.15	0	0.0901	1002.45	0.6
288.15	0	0.0949	1002.62	0.6
288.15	0	0.1002	1002.81	0.6
298.15	0	0	997.05	0.6
298.15	0	0.0099	997.39	0.6
298.15	0	0.0197	997.69	0.6
298.15	0	0.0299	998.02	0.6
298.15	0	0.04	998.35	0.6
298.15	0	0.0499	998.67	0.6
298.15	0	0.055	998.83	0.6
298.15	0	0.0599	998.99	0.6
298.15	0	0.0649	999.15	0.6
298.15	0	0.0699	999.31	0.6
298.15	0	0.075	999.47	0.6
298.15	0	0.0797	999.61	0.6
298.15	0	0.085	999.78	0.6
298.15	0	0.0897	999.92	0.6
298.15	0	0.0949	1000.09	0.6
298.15	0	0.1006	1000.26	0.6
308.15	0	0	994.03	0.61
308.15	0	0.0099	994.3	0.61
308.15	0	0.0199	994.58	0.61
308.15	0	0.0301	994.85	0.61
308.15	0	0.04	995.12	0.61
308.15	0	0.0501	995.39	0.61
308.15	0	0.055	995.52	0.61
308.15	0	0.06	995.64	0.61
308.15	0	0.0649	995.76	0.61
308.15	0	0.0699	995.9	0.61
308.15	0	0.0751	996.03	0.61
308.15	0	0.0799	996.15	0.61
308.15	0	0.0851	996.28	0.61
308.15	0	0.09	996.41	0.61
308.15	0	0.095	996.53	0.61
308.15	0	0.1002	996.67	0.61
288.15	0.06	0	1001.66	0.6
288.15	0.06	0.0103	1002.04	0.6
288.15	0.06	0.0206	1002.42	0.6
288.15	0.06	0.0297	1002.75	0.6
288.15	0.06	0.0378	1003.04	0.6
288.15	0.06	0.0487	1003.43	0.6
288.15	0.06	0.0527	1003.57	0.6
288.15	0.06	0.0582	1003.76	0.6
288.15	0.06	0.0635	1003.94	0.6
288.15	0.06	0.0685	1004.11	0.6
288.15	0.06	0.0743	1004.31	0.6
288.15	0.06	0.0787	1004.46	0.6
288.15	0.06	0.0846	1004.66	0.6
288.15	0.06	0.0883	1004.77	0.6
288.15	0.06	0.095	1005	0.6
288.15	0.06	0.1	1005.16	0.6
298.15	0.06	0	999.52	0.6
298.15	0.06	0.0101	999.84	0.6
298.15	0.06	0.0201	1000.16	0.6
298.15	0.06	0.0299	1000.47	0.6
298.15	0.06	0.04	1000.78	0.6
298.15	0.06	0.05	1001.08	0.6
298.15	0.06	0.055	1001.23	0.6
298.15	0.06	0.0601	1001.38	0.6
298.15	0.06	0.0651	1001.53	0.6
298.15	0.06	0.0701	1001.68	0.6
298.15	0.06	0.0751	1001.82	0.6
298.15	0.06	0.0801	1001.97	0.6
298.15	0.06	0.0851	1002.12	0.6
298.15	0.06	0.0902	1002.27	0.6
298.15	0.06	0.0948	1002.41	0.6
298.15	0.06	0.1001	1002.57	0.6
308.15	0.06	0	996.46	0.61
308.15	0.06	0.0099	996.72	0.61
308.15	0.06	0.02	996.98	0.61
308.15	0.06	0.0299	997.24	0.61
308.15	0.06	0.04	997.49	0.61
308.15	0.06	0.05	997.75	0.61
308.15	0.06	0.055	997.87	0.61
308.15	0.06	0.06	998	0.61
308.15	0.06	0.065	998.13	0.61
308.15	0.06	0.07	998.25	0.61
308.15	0.06	0.0749	998.36	0.61
308.15	0.06	0.08	998.49	0.61
308.15	0.06	0.0849	998.59	0.61
308.15	0.06	0.0899	998.71	0.61
308.15	0.06	0.095	998.83	0.61
308.15	0.06	0.1002	998.96	0.61
288.15	0.1	0	1003.32	0.6
288.15	0.1	0.0099	1003.66	0.6
288.15	0.1	0.0201	1004	0.6
288.15	0.1	0.0299	1004.34	0.6
288.15	0.1	0.0399	1004.68	0.6
288.15	0.1	0.05	1005	0.6
288.15	0.1	0.055	1005.17	0.6
288.15	0.1	0.0599	1005.33	0.6
288.15	0.1	0.0651	1005.5	0.6
288.15	0.1	0.0701	1005.66	0.6
288.15	0.1	0.075	1005.82	0.6
288.15	0.1	0.0799	1005.98	0.6
288.15	0.1	0.085	1006.15	0.6
288.15	0.1	0.09	1006.31	0.6
288.15	0.1	0.095	1006.47	0.6
288.15	0.1	0.0999	1006.62	0.6
298.15	0.1	0	1001.14	0.6
298.15	0.1	0.0099	1001.43	0.6
298.15	0.1	0.02	1001.72	0.6
298.15	0.1	0.0301	1002.01	0.6
298.15	0.1	0.0399	1002.29	0.6
298.15	0.1	0.05	1002.57	0.6
298.15	0.1	0.055	1002.7	0.6
298.15	0.1	0.06	1002.84	0.6
298.15	0.1	0.0649	1002.98	0.6
298.15	0.1	0.07	1003.12	0.6
298.15	0.1	0.075	1003.24	0.6
298.15	0.1	0.08	1003.38	0.6
298.15	0.1	0.0851	1003.52	0.6
298.15	0.1	0.09	1003.65	0.6
298.15	0.1	0.0949	1003.79	0.6
298.15	0.1	0.1001	1003.92	0.6
308.15	0.1	0	998.05	0.61
308.15	0.1	0.0099	998.28	0.61
308.15	0.1	0.02	998.52	0.61
308.15	0.1	0.03	998.75	0.61
308.15	0.1	0.04	998.98	0.61
308.15	0.1	0.0501	999.21	0.61
308.15	0.1	0.0551	999.32	0.61
308.15	0.1	0.0599	999.43	0.61
308.15	0.1	0.065	999.54	0.61
308.15	0.1	0.0699	999.65	0.61
308.15	0.1	0.075	999.76	0.61
308.15	0.1	0.0799	999.86	0.61
308.15	0.1	0.085	999.97	0.61
308.15	0.1	0.09	1000.07	0.61
308.15	0.1	0.095	1000.18	0.61
308.15	0.1	0.1	1000.28	0.61

System: isonicotinic acid hydrazide + sodium chloride + water; phases: Liquid
Fixed: Pressure, kPa = 101.3
Fixed: Frequency, MHz = 2
Property: Speed of sound, m/s (Liquid); method: Linear variable-path acoustic interferometer
Temperature, K	Solvent: Molality, mol/kg of sodium chloride	Molality, mol/kg of isonicotinic acid hydrazide	Speed of sound, m/s	uncertainty
288.15	0	0	1465.9	2
288.15	0	0.0099	1466.6	2
288.15	0	0.02	1467.3	2
288.15	0	0.03	1468	2
288.15	0	0.0401	1468.7	2
288.15	0	0.0495	1469.4	2
288.15	0	0.055	1469.8	2
288.15	0	0.06	1470.1	2
288.15	0	0.065	1470.5	2
288.15	0	0.0708	1470.9	2
288.15	0	0.075	1471.2	2
288.15	0	0.0809	1471.6	2
288.15	0	0.0846	1471.9	2
288.15	0	0.0901	1472.3	2
288.15	0	0.0949	1472.6	2
288.15	0	0.1002	1473	2
298.15	0	0	1496.7	2
298.15	0	0.0099	1497.4	2
298.15	0	0.0197	1498.1	2
298.15	0	0.0299	1498.8	2
298.15	0	0.04	1499.6	2
298.15	0	0.0499	1500.3	2
298.15	0	0.055	1500.6	2
298.15	0	0.0599	1500.9	2
298.15	0	0.0649	1501.3	2
298.15	0	0.0699	1501.6	2
298.15	0	0.075	1502	2
298.15	0	0.0797	1502.3	2
298.15	0	0.085	1502.7	2
298.15	0	0.0897	1503	2
298.15	0	0.0949	1503.4	2
298.15	0	0.1006	1503.8	2
308.15	0	0	1519.8	1.9
308.15	0	0.0099	1520.5	2
308.15	0	0.0199	1521.3	2
308.15	0	0.0301	1522	2
308.15	0	0.04	1522.7	2
308.15	0	0.0501	1523.5	2
308.15	0	0.055	1523.9	2
308.15	0	0.06	1524.2	2
308.15	0	0.0649	1524.6	2
308.15	0	0.0699	1525	2
308.15	0	0.0751	1525.3	2
308.15	0	0.0799	1525.7	2
308.15	0	0.0851	1526.1	2
308.15	0	0.09	1526.4	2
308.15	0	0.095	1526.8	2
308.15	0	0.1002	1527.2	2
288.15	0.06	0	1468.2	2
288.15	0.06	0.0103	1468.9	2
288.15	0.06	0.0206	1469.7	2
288.15	0.06	0.0297	1470.3	2
288.15	0.06	0.0378	1470.9	2
288.15	0.06	0.0487	1471.6	2
288.15	0.06	0.0527	1471.9	2
288.15	0.06	0.0582	1472.3	2
288.15	0.06	0.0635	1472.7	2
288.15	0.06	0.0685	1473	2
288.15	0.06	0.0743	1473.4	2
288.15	0.06	0.0787	1473.7	2
288.15	0.06	0.0846	1474.1	2
288.15	0.06	0.0883	1474.4	2
288.15	0.06	0.095	1474.8	2
288.15	0.06	0.1	1475.2	2
298.15	0.06	0	1499.2	2
298.15	0.06	0.0101	1499.9	2
298.15	0.06	0.0201	1500.6	2
298.15	0.06	0.0299	1501.3	2
298.15	0.06	0.04	1502	2
298.15	0.06	0.05	1502.8	2
298.15	0.06	0.055	1503.1	2
298.15	0.06	0.0601	1503.5	2
298.15	0.06	0.0651	1503.8	2
298.15	0.06	0.0701	1504.2	2
298.15	0.06	0.0751	1504.5	2
298.15	0.06	0.0801	1504.9	2
298.15	0.06	0.0851	1505.3	2
298.15	0.06	0.0902	1505.6	2
298.15	0.06	0.0948	1505.9	2
298.15	0.06	0.1001	1506.3	2
308.15	0.06	0	1523	2
308.15	0.06	0.0099	1523.7	2
308.15	0.06	0.02	1524.5	2
308.15	0.06	0.0299	1525.2	2
308.15	0.06	0.04	1526	2
308.15	0.06	0.05	1526.7	2
308.15	0.06	0.055	1527.1	2
308.15	0.06	0.06	1527.4	2
308.15	0.06	0.065	1527.8	2
308.15	0.06	0.07	1528.2	2
308.15	0.06	0.0749	1528.6	2
308.15	0.06	0.08	1528.9	2
308.15	0.06	0.0849	1529.3	2
308.15	0.06	0.0899	1529.7	2
308.15	0.06	0.095	1530.1	2
308.15	0.06	0.1002	1530.4	2
288.15	0.1	0	1471.3	2
288.15	0.1	0.0099	1472	2
288.15	0.1	0.0201	1472.7	2
288.15	0.1	0.0299	1473.4	2
288.15	0.1	0.0399	1474.2	2
288.15	0.1	0.05	1474.9	2
288.15	0.1	0.055	1475.2	2
288.15	0.1	0.0599	1475.6	2
288.15	0.1	0.0651	1476	2
288.15	0.1	0.0701	1476.3	2
288.15	0.1	0.075	1476.7	2
288.15	0.1	0.0799	1477	2
288.15	0.1	0.085	1477.4	2
288.15	0.1	0.09	1477.7	2
288.15	0.1	0.095	1478.1	2
288.15	0.1	0.0999	1478.4	2
298.15	0.1	0	1503.3	2
298.15	0.1	0.0099	1504	2
298.15	0.1	0.02	1504.8	2
298.15	0.1	0.0301	1505.5	2
298.15	0.1	0.0399	1506.2	2
298.15	0.1	0.05	1507	2
298.15	0.1	0.055	1507.3	2
298.15	0.1	0.06	1507.7	2
298.15	0.1	0.0649	1508.1	2
298.15	0.1	0.07	1508.4	2
298.15	0.1	0.075	1508.8	2
298.15	0.1	0.08	1509.2	2
298.15	0.1	0.0851	1509.5	2
298.15	0.1	0.09	1509.9	2
298.15	0.1	0.0949	1510.2	2
298.15	0.1	0.1001	1510.6	2
308.15	0.1	0	1525.9	2
308.15	0.1	0.0099	1526.6	2
308.15	0.1	0.02	1527.4	2
308.15	0.1	0.03	1528.2	2
308.15	0.1	0.04	1528.9	2
308.15	0.1	0.0501	1529.7	2
308.15	0.1	0.0551	1530.1	2
308.15	0.1	0.0599	1530.4	2
308.15	0.1	0.065	1530.8	2
308.15	0.1	0.0699	1531.2	2
308.15	0.1	0.075	1531.6	2
308.15	0.1	0.0799	1532	2
308.15	0.1	0.085	1532.4	2
308.15	0.1	0.09	1532.7	2
308.15	0.1	0.095	1533.1	2
308.15	0.1	0.1	1533.5	2

System: isonicotinic acid hydrazide + potassium chloride + water; phases: Liquid
Fixed: Pressure, kPa = 101.3
Property: Mass density, kg/m3 (Liquid); method: Pycnometric method
Temperature, K	Solvent: Molality, mol/kg of potassium chloride	Molality, mol/kg of isonicotinic acid hydrazide	Mass density, kg/m3	uncertainty
288.15	0	0	999.1	0.6
288.15	0	0.0099	999.49	0.6
288.15	0	0.02	999.88	0.6
288.15	0	0.03	1000.26	0.6
288.15	0	0.0401	1000.64	0.6
288.15	0	0.0495	1001	0.6
288.15	0	0.055	1001.19	0.6
288.15	0	0.06	1001.38	0.6
288.15	0	0.065	1001.55	0.6
288.15	0	0.0708	1001.77	0.6
288.15	0	0.075	1001.92	0.6
288.15	0	0.0809	1002.12	0.6
288.15	0	0.0846	1002.25	0.6
288.15	0	0.0901	1002.45	0.6
288.15	0	0.0949	1002.62	0.6
288.15	0	0.1002	1002.81	0.6
298.15	0	0	997.05	0.6
298.15	0	0.0099	997.39	0.6
298.15	0	0.0197	997.69	0.6
298.15	0	0.0299	998.02	0.6
298.15	0	0.04	998.35	0.6
298.15	0	0.0499	998.67	0.6
298.15	0	0.055	998.83	0.6
298.15	0	0.0599	998.99	0.6
298.15	0	0.0649	999.15	0.6
298.15	0	0.0699	999.31	0.6
298.15	0	0.075	999.47	0.6
298.15	0	0.0797	999.61	0.6
298.15	0	0.085	999.78	0.6
298.15	0	0.0897	999.92	0.6
298.15	0	0.0949	1000.09	0.6
298.15	0	0.1006	1000.26	0.6
308.15	0	0	994.03	0.61
308.15	0	0.0099	994.3	0.61
308.15	0	0.0199	994.58	0.61
308.15	0	0.0301	994.85	0.61
308.15	0	0.04	995.12	0.61
308.15	0	0.0501	995.39	0.61
308.15	0	0.055	995.52	0.61
308.15	0	0.06	995.64	0.61
308.15	0	0.0649	995.76	0.61
308.15	0	0.0699	995.9	0.61
308.15	0	0.0751	996.03	0.61
308.15	0	0.0799	996.15	0.61
308.15	0	0.0851	996.28	0.61
308.15	0	0.09	996.41	0.61
308.15	0	0.095	996.53	0.61
308.15	0	0.1002	996.67	0.61
288.15	0.06	0	1002.26	0.6
288.15	0.06	0.0103	1002.62	0.6
288.15	0.06	0.0206	1002.98	0.6
288.15	0.06	0.0297	1003.3	0.6
288.15	0.06	0.0378	1003.58	0.6
288.15	0.06	0.0487	1003.96	0.6
288.15	0.06	0.0527	1004.1	0.6
288.15	0.06	0.0582	1004.28	0.6
288.15	0.06	0.0635	1004.46	0.6
288.15	0.06	0.0685	1004.62	0.6
288.15	0.06	0.0743	1004.81	0.6
288.15	0.06	0.0787	1004.96	0.6
288.15	0.06	0.0846	1005.16	0.6
288.15	0.06	0.0883	1005.29	0.6
288.15	0.06	0.095	1005.51	0.6
288.15	0.06	0.1	1005.67	0.6
298.15	0.06	0	1000.42	0.6
298.15	0.06	0.0101	1000.73	0.6
298.15	0.06	0.0201	1001.03	0.6
298.15	0.06	0.0299	1001.33	0.6
298.15	0.06	0.04	1001.63	0.6
298.15	0.06	0.05	1001.92	0.6
298.15	0.06	0.055	1002.07	0.6
298.15	0.06	0.0601	1002.22	0.6
298.15	0.06	0.0651	1002.36	0.6
298.15	0.06	0.0701	1002.51	0.6
298.15	0.06	0.0751	1002.65	0.6
298.15	0.06	0.0801	1002.79	0.6
298.15	0.06	0.0851	1002.93	0.6
298.15	0.06	0.0902	1003.07	0.6
298.15	0.06	0.0948	1003.2	0.6
298.15	0.06	0.1001	1003.34	0.6
308.15	0.06	0	997.25	0.61
308.15	0.06	0.0099	997.5	0.61
308.15	0.06	0.02	997.74	0.61
308.15	0.06	0.0299	997.99	0.61
308.15	0.06	0.04	998.23	0.61
308.15	0.06	0.05	998.47	0.61
308.15	0.06	0.055	998.59	0.61
308.15	0.06	0.06	998.7	0.61
308.15	0.06	0.065	998.82	0.61
308.15	0.06	0.07	998.93	0.61
308.15	0.06	0.0749	999.04	0.61
308.15	0.06	0.08	999.14	0.61
308.15	0.06	0.0849	999.25	0.61
308.15	0.06	0.0899	999.37	0.61
308.15	0.06	0.095	999.51	0.61
308.15	0.06	0.1002	999.61	0.61
288.15	0.1	0	1003.48	0.6
288.15	0.1	0.0099	1003.81	0.6
288.15	0.1	0.02	1004.14	0.6
288.15	0.1	0.0299	1004.47	0.6
288.15	0.1	0.0399	1004.8	0.6
288.15	0.1	0.05	1005.13	0.6
288.15	0.1	0.055	1005.29	0.6
288.15	0.1	0.06	1005.45	0.6
288.15	0.1	0.065	1005.6	0.6
288.15	0.1	0.07	1005.76	0.6
288.15	0.1	0.075	1005.91	0.6
288.15	0.1	0.0799	1006.07	0.6
288.15	0.1	0.085	1006.23	0.6
288.15	0.1	0.09	1006.38	0.6
288.15	0.1	0.0949	1006.53	0.6
288.15	0.1	0.0999	1006.69	0.6
298.15	0.1	0	1001.79	0.6
298.15	0.1	0.01	1002.07	0.6
298.15	0.1	0.0201	1002.35	0.6
298.15	0.1	0.0301	1002.63	0.6
298.15	0.1	0.04	1002.9	0.6
298.15	0.1	0.05	1003.17	0.59
298.15	0.1	0.055	1003.3	0.6
298.15	0.1	0.06	1003.43	0.6
298.15	0.1	0.0649	1003.56	0.6
298.15	0.1	0.07	1003.69	0.6
298.15	0.1	0.075	1003.82	0.6
298.15	0.1	0.08	1003.96	0.6
298.15	0.1	0.0851	1004.09	0.6
298.15	0.1	0.09	1004.22	0.6
298.15	0.1	0.095	1004.34	0.6
298.15	0.1	0.1001	1004.47	0.6
308.15	0.1	0	998.71	0.61
308.15	0.1	0.0099	998.93	0.61
308.15	0.1	0.02	999.15	0.61
308.15	0.1	0.03	999.37	0.61
308.15	0.1	0.04	999.58	0.61
308.15	0.1	0.0501	999.8	0.61
308.15	0.1	0.055	999.9	0.61
308.15	0.1	0.06	1000	0.61
308.15	0.1	0.065	1000.1	0.61
308.15	0.1	0.0699	1000.2	0.61
308.15	0.1	0.075	1000.3	0.61
308.15	0.1	0.0799	1000.39	0.61
308.15	0.1	0.085	1000.5	0.61
308.15	0.1	0.09	1000.59	0.61
308.15	0.1	0.0949	1000.69	0.61
308.15	0.1	0.1	1000.79	0.61

System: isonicotinic acid hydrazide + potassium chloride + water; phases: Liquid
Fixed: Pressure, kPa = 101.3
Fixed: Frequency, MHz = 2
Property: Speed of sound, m/s (Liquid); method: Linear variable-path acoustic interferometer
Temperature, K	Solvent: Molality, mol/kg of potassium chloride	Molality, mol/kg of isonicotinic acid hydrazide	Speed of sound, m/s	uncertainty
288.15	0	0	1465.9	2
288.15	0	0.0099	1466.6	2
288.15	0	0.02	1467.3	2
288.15	0	0.03	1468	2
288.15	0	0.0401	1468.7	2
288.15	0	0.0495	1469.4	2
288.15	0	0.055	1469.8	2
288.15	0	0.06	1470.1	2
288.15	0	0.065	1470.5	2
288.15	0	0.0708	1470.9	2
288.15	0	0.075	1471.2	2
288.15	0	0.0809	1471.6	2
288.15	0	0.0846	1471.9	2
288.15	0	0.0901	1472.3	2
288.15	0	0.0949	1472.6	2
288.15	0	0.1002	1473	2
298.15	0	0	1496.7	2
298.15	0	0.0099	1497.4	2
298.15	0	0.0197	1498.1	2
298.15	0	0.0299	1498.8	2
298.15	0	0.04	1499.6	2
298.15	0	0.0499	1500.3	2
298.15	0	0.055	1500.6	2
298.15	0	0.0599	1500.9	2
298.15	0	0.0649	1501.3	2
298.15	0	0.0699	1501.6	2
298.15	0	0.075	1502	2
298.15	0	0.0797	1502.3	2
298.15	0	0.085	1502.7	2
298.15	0	0.0897	1503	2
298.15	0	0.0949	1503.4	2
298.15	0	0.1006	1503.8	2
308.15	0	0	1519.8	1.9
308.15	0	0.0099	1520.5	2
308.15	0	0.0199	1521.3	2
308.15	0	0.0301	1522	2
308.15	0	0.04	1522.7	2
308.15	0	0.0501	1523.5	2
308.15	0	0.055	1523.9	2
308.15	0	0.06	1524.2	2
308.15	0	0.0649	1524.6	2
308.15	0	0.0699	1525	2
308.15	0	0.0751	1525.3	2
308.15	0	0.0799	1525.7	2
308.15	0	0.0851	1526.1	2
308.15	0	0.09	1526.4	2
308.15	0	0.095	1526.8	2
308.15	0	0.1002	1527.2	2
288.15	0.06	0	1467.4	2
288.15	0.06	0.0103	1468.1	2
288.15	0.06	0.0206	1468.8	2
288.15	0.06	0.0297	1469.5	2
288.15	0.06	0.0378	1470	2
288.15	0.06	0.0487	1470.8	2
288.15	0.06	0.0527	1471.1	2
288.15	0.06	0.0582	1471.5	2
288.15	0.06	0.0635	1471.9	2
288.15	0.06	0.0685	1472.2	2
288.15	0.06	0.0743	1472.6	2
288.15	0.06	0.0787	1473	2
288.15	0.06	0.0846	1473.4	2
288.15	0.06	0.0883	1473.6	2
288.15	0.06	0.095	1474.1	2
288.15	0.06	0.1	1474.5	2
298.15	0.06	0	1498.3	2
298.15	0.06	0.0101	1499.1	2
298.15	0.06	0.0201	1499.8	2
298.15	0.06	0.0299	1500.5	2
298.15	0.06	0.04	1501.2	2
298.15	0.06	0.05	1501.9	2
298.15	0.06	0.055	1502.3	2
298.15	0.06	0.0601	1502.6	2
298.15	0.06	0.0651	1503	2
298.15	0.06	0.0701	1503.4	2
298.15	0.06	0.0751	1503.7	2
298.15	0.06	0.0801	1504.1	2
298.15	0.06	0.0851	1504.4	2
298.15	0.06	0.0902	1504.8	2
298.15	0.06	0.0948	1505.1	2
298.15	0.06	0.1001	1505.5	2
308.15	0.06	0	1522.2	2
308.15	0.06	0.0099	1523	2
308.15	0.06	0.02	1523.7	2
308.15	0.06	0.0299	1524.4	2
308.15	0.06	0.04	1525.2	2
308.15	0.06	0.05	1525.9	2
308.15	0.06	0.055	1526.3	2
308.15	0.06	0.06	1526.7	2
308.15	0.06	0.065	1527.1	2
308.15	0.06	0.07	1527.5	2
308.15	0.06	0.0749	1527.8	2
308.15	0.06	0.08	1528.2	2
308.15	0.06	0.0849	1528.6	2
308.15	0.06	0.0899	1529	2
308.15	0.06	0.095	1529.3	2
308.15	0.06	0.1002	1529.7	2
288.15	0.1	0	1469.6	2
288.15	0.1	0.0099	1470.3	2
288.15	0.1	0.02	1471	2
288.15	0.1	0.0299	1471.7	2
288.15	0.1	0.0399	1472.5	2
288.15	0.1	0.05	1473.2	2
288.15	0.1	0.055	1473.5	2
288.15	0.1	0.06	1473.9	2
288.15	0.1	0.065	1474.3	2
288.15	0.1	0.07	1474.6	2
288.15	0.1	0.075	1475	2
288.15	0.1	0.0799	1475.3	2
288.15	0.1	0.085	1475.7	2
288.15	0.1	0.09	1476	2
288.15	0.1	0.0949	1476.4	2
288.15	0.1	0.0999	1476.7	2
298.15	0.1	0	1502.5	2
298.15	0.1	0.01	1503.2	2
298.15	0.1	0.0201	1503.9	2
298.15	0.1	0.0301	1504.6	2
298.15	0.1	0.04	1505.4	2
298.15	0.1	0.05	1506.1	2
298.15	0.1	0.055	1506.5	2
298.15	0.1	0.06	1506.8	2
298.15	0.1	0.0649	1507.2	2
298.15	0.1	0.07	1507.6	2
298.15	0.1	0.075	1507.9	2
298.15	0.1	0.08	1508.3	2
298.15	0.1	0.0851	1508.6	2
298.15	0.1	0.09	1509	2
298.15	0.1	0.095	1509.4	2
298.15	0.1	0.1001	1509.7	2.1
308.15	0.1	0	1525.1	2
308.15	0.1	0.0099	1525.9	2
308.15	0.1	0.02	1526.6	2
308.15	0.1	0.03	1527.4	2
308.15	0.1	0.04	1528.2	2
308.15	0.1	0.0501	1529	2
308.15	0.1	0.055	1529.3	2
308.15	0.1	0.06	1529.7	2
308.15	0.1	0.065	1530.1	2
308.15	0.1	0.0699	1530.5	2
308.15	0.1	0.075	1530.9	2
308.15	0.1	0.0799	1531.3	2
308.15	0.1	0.085	1531.7	2
308.15	0.1	0.09	1532.1	2
308.15	0.1	0.0949	1532.5	2
308.15	0.1	0.1	1532.8	2

System: isonicotinic acid hydrazide + water; phases: Liquid
Fixed: Pressure, kPa = 101.3
Property: Mass density, kg/m3 (Liquid); method: Pycnometric method
Temperature, K	Molality, mol/kg of isonicotinic acid hydrazide	Mass density, kg/m3	uncertainty
288.15	0.0099	999.49	0.55
288.15	0.02	999.88	0.55
288.15	0.03	1000.26	0.55
288.15	0.0401	1000.64	0.55
288.15	0.0495	1001	0.55
288.15	0.055	1001.19	0.55
288.15	0.06	1001.38	0.55
288.15	0.065	1001.55	0.55
288.15	0.0708	1001.77	0.55
288.15	0.075	1001.92	0.55
288.15	0.0809	1002.12	0.55
288.15	0.0846	1002.25	0.55
288.15	0.0901	1002.45	0.55
288.15	0.0949	1002.62	0.55
288.15	0.1002	1002.81	0.55
298.15	0.0099	997.39	0.55
298.15	0.0197	997.69	0.55
298.15	0.0299	998.02	0.55
298.15	0.04	998.35	0.55
298.15	0.0499	998.67	0.55
298.15	0.055	998.83	0.55
298.15	0.0599	998.99	0.55
298.15	0.0649	999.15	0.55
298.15	0.0699	999.31	0.55
298.15	0.075	999.47	0.55
298.15	0.0797	999.61	0.55
298.15	0.085	999.78	0.55
298.15	0.0897	999.92	0.55
298.15	0.0949	1000.09	0.55
298.15	0.1006	1000.26	0.55
308.15	0.0099	994.3	0.56
308.15	0.0199	994.58	0.56
308.15	0.0301	994.85	0.56
308.15	0.04	995.12	0.56
308.15	0.0501	995.39	0.56
308.15	0.055	995.52	0.56
308.15	0.06	995.64	0.56
308.15	0.0649	995.76	0.56
308.15	0.0699	995.9	0.56
308.15	0.0751	996.03	0.56
308.15	0.0799	996.15	0.56
308.15	0.0851	996.28	0.56
308.15	0.09	996.41	0.56
308.15	0.095	996.53	0.56
308.15	0.1002	996.67	0.56
288.15	0	999.1	0.55
298.15	0	997.05	0.55
308.15	0	994.03	0.56

System: isonicotinic acid hydrazide + water; phases: Liquid
Fixed: Pressure, kPa = 101.3
Fixed: Frequency, MHz = 2
Property: Speed of sound, m/s (Liquid); method: Linear variable-path acoustic interferometer
Temperature, K	Molality, mol/kg of isonicotinic acid hydrazide	Speed of sound, m/s	uncertainty
288.15	0.0099	1466.6	1.8
288.15	0.02	1467.3	1.8
288.15	0.03	1468	1.8
288.15	0.0401	1468.7	1.8
288.15	0.0495	1469.4	1.8
288.15	0.055	1469.8	1.8
288.15	0.06	1470.1	1.8
288.15	0.065	1470.5	1.8
288.15	0.0708	1470.9	1.8
288.15	0.075	1471.2	1.8
288.15	0.0809	1471.6	1.8
288.15	0.0846	1471.9	1.8
288.15	0.0901	1472.3	1.8
288.15	0.0949	1472.6	1.8
288.15	0.1002	1473	1.8
298.15	0.0099	1497.4	1.8
298.15	0.0197	1498.1	1.8
298.15	0.0299	1498.8	1.8
298.15	0.04	1499.6	1.8
298.15	0.0499	1500.3	1.8
298.15	0.055	1500.6	1.8
298.15	0.0599	1500.9	1.8
298.15	0.0649	1501.3	1.8
298.15	0.0699	1501.6	1.8
298.15	0.075	1502	1.8
298.15	0.0797	1502.3	1.8
298.15	0.085	1502.7	1.8
298.15	0.0897	1503	1.8
298.15	0.0949	1503.4	1.8
298.15	0.1006	1503.8	1.9
308.15	0.0099	1520.5	1.8
308.15	0.0199	1521.3	1.8
308.15	0.0301	1522	1.8
308.15	0.04	1522.7	1.8
308.15	0.0501	1523.5	1.8
308.15	0.055	1523.9	1.8
308.15	0.06	1524.2	1.8
308.15	0.0649	1524.6	1.8
308.15	0.0699	1525	1.8
308.15	0.0751	1525.3	1.8
308.15	0.0799	1525.7	1.8
308.15	0.0851	1526.1	1.8
308.15	0.09	1526.4	1.8
308.15	0.095	1526.8	1.8
308.15	0.1002	1527.2	1.8
288.15	0	1465.9	1.8
298.15	0	1496.7	1.9
308.15	0	1519.8	1.8

System: sodium chloride + water; phases: Liquid
Fixed: Pressure, kPa = 101.3
Property: Mass density, kg/m3 (Liquid); method: Pycnometric method
Temperature, K	Molality, mol/kg of sodium chloride	Mass density, kg/m3	uncertainty
288.15	0.06	1001.66	0.55
298.15	0.06	999.52	0.55
308.15	0.06	996.46	0.56
288.15	0.1	1003.32	0.55
298.15	0.1	1001.14	0.55
308.15	0.1	998.05	0.56
288.15	0	999.1	0.55
298.15	0	997.05	0.55
308.15	0	994.03	0.56

System: sodium chloride + water; phases: Liquid
Fixed: Pressure, kPa = 101.3
Fixed: Frequency, MHz = 2
Property: Speed of sound, m/s (Liquid); method: Linear variable-path acoustic interferometer
Temperature, K	Molality, mol/kg of sodium chloride	Speed of sound, m/s	uncertainty
288.15	0.06	1468.2	1.8
298.15	0.06	1499.2	1.8
308.15	0.06	1523	1.8
288.15	0.1	1471.3	1.8
298.15	0.1	1503.3	1.8
308.15	0.1	1525.9	1.8
288.15	0	1465.9	1.8
298.15	0	1496.7	1.8
308.15	0	1519.8	1.8

System: potassium chloride + water; phases: Liquid
Fixed: Pressure, kPa = 101.3
Property: Mass density, kg/m3 (Liquid); method: Pycnometric method
Temperature, K	Molality, mol/kg of potassium chloride	Mass density, kg/m3	uncertainty
288.15	0.06	1002.26	0.55
298.15	0.06	1000.42	0.55
308.15	0.06	997.25	0.56
288.15	0.1	1003.48	0.55
298.15	0.1	1001.79	0.55
308.15	0.1	998.71	0.56
288.15	0	999.1	0.55
298.15	0	997.05	0.55
308.15	0	994.03	0.56

System: potassium chloride + water; phases: Liquid
Fixed: Pressure, kPa = 101.3
Fixed: Frequency, MHz = 2
Property: Speed of sound, m/s (Liquid); method: Linear variable-path acoustic interferometer
Temperature, K	Molality, mol/kg of potassium chloride	Speed of sound, m/s	uncertainty
288.15	0.06	1467.4	1.8
298.15	0.06	1498.3	1.8
308.15	0.06	1522.2	1.8
288.15	0.1	1469.6	1.8
298.15	0.1	1502.5	1.8
308.15	0.1	1525.1	1.8
288.15	0	1465.9	1.8
298.15	0	1496.7	1.8
308.15	0	1519.8	1.8
