Measured thermophysical data. Benchmark properties of diphenyl oxide as a potential liquid organic hydrogen carrier: Evaluation of thermochemical data with complementary experimental and computational methods
Source: J. Chem. Thermodyn., 2018, 10.1016/j.jct.2018.05.021
Compound 1: carbon dioxide, CO2, InChI=1S/CO2/c2-1-3
Compound 2: water, H2O, InChI=1S/H2O/h1H2
Compound 3: oxygen, O2, InChI=1S/O2/c1-2
Compound 4: diphenyl ether, C12H10O, InChI=1S/C12H10O/c1-3-7-11(8-4-1)13-12-9-5-2-6-10-12/h1-10H

System: diphenyl ether; phases: Liquid, Gas
Property: Vapor or sublimation pressure, kPa (Liquid); method: Transpiration method
Temperature, K	Vapor or sublimation pressure, kPa	uncertainty
299.3	0.00293	0.0002
303.3	0.00426	0.00028
305.3	0.00531	0.00038
308.3	0.00646	0.00045
310.3	0.00744	0.00051
313.4	0.00968	0.00066
315.3	0.01136	0.00077
319.4	0.0158	0.00104
323.4	0.02151	0.00139
327.4	0.02846	0.00182
328.9	0.03132	0.00203
331.5	0.03921	0.00251
335.5	0.04892	0.0031
339.6	0.06459	0.0041
343.7	0.08611	0.00542

Reaction: -1 diphenyl ether + 12 carbon dioxide + 5 water + -14 oxygen
Property: Specific internal energy of reaction at constant volume, J/g
-36017.9

Reaction: -1 diphenyl ether + 12 carbon dioxide + 5 water + -14 oxygen
Property: Specific internal energy of reaction at constant volume, J/g
-36000.9
