Measured thermophysical data. PVT, viscosity, and surface tension of ethanol: New measurements and literature data evaluation
Source: J. Chem. Thermodyn., 2010, 10.1016/j.jct.2010.03.022
Compound 1: ethanol, C2H6O, InChI=1S/C2H6O/c1-2-3/h3H,2H2,1H3, purity 99.8%

System: ethanol; phases: Liquid, Air at 1 atmosphere
Property: Surface tension liquid-gas, N/m (Liquid); method: Ring tensiometer
Temperature, K	Surface tension liquid-gas, N/m	uncertainty
274.77	0.02359	0.00035
274.87	0.02354	0.00035
280.56	0.02315	0.00035
281.05	0.02295	0.00035
281.17	0.02309	0.00035
284.25	0.02278	0.00034
288.21	0.0227	0.00034
288.23	0.02261	0.00034
288.65	0.02263	0.00034
293.15	0.02236	0.00034
294.19	0.0224	0.00034
298.15	0.02225	0.00034
298.41	0.02207	0.00033
298.55	0.02206	0.00033
303.15	0.02163	0.00033
303.2	0.02166	0.00033
308.23	0.02133	0.00033
311.79	0.02109	0.00032
318.99	0.0202	0.00031

System: ethanol; phases: Liquid
Fixed: Pressure, kPa = 101.3
Property: Viscosity, Pa*s (Liquid); method: CAPTUB:UFactor:4
Temperature, K	Viscosity, Pa*s	uncertainty
273.15	0.001832	4.2e-05
278.6	0.001649	3.9e-05
280.56	0.001537	3.6e-05
281.17	0.001527	3.6e-05
284.25	0.001455	3.4e-05
288.21	0.001338	3.2e-05
293.15	0.001203	2.9e-05
294.19	0.001192	2.9e-05
298.15	0.001096	2.7e-05
298.41	0.001088	2.7e-05
298.55	0.001088	2.7e-05
303.15	0.001002	2.5e-05
303.2	0.001	2.5e-05
308.23	0.000914	2.3e-05
311.79	0.000855	2.2e-05
318.99	0.000756	1.9e-05
321.15	0.00073	1.9e-05
323.15	0.000715	1.9e-05
328.15	0.000656	1.7e-05
333.15	0.000602	1.6e-05
338.16	0.000571	1.5e-05
343.15	0.000504	1.4e-05
346.15	0.000488	1.4e-05

System: ethanol; phases: Liquid
Property: Mass density, kg/m3 (Liquid); method: VIBTUB:UFactor:8
Temperature, K	Pressure, kPa	Mass density, kg/m3	uncertainty
278.15	100	803.3	1.3
278.15	2000	805.9	1.3
278.15	4000	807.3	1.4
278.15	6000	809.2	1.5
278.15	8000	810.6	1.6
278.15	10000	812.7	1.6
278.15	15000	815.8	1.8
278.15	20000	821	2
278.15	25000	823.4	2.2
278.15	30000	823.8	2.4
278.15	35000	825.8	2.7
283.15	100	799.5	1.3
283.15	2000	801.7	1.4
283.15	4000	803	1.4
283.15	6000	805.1	1.5
283.15	8000	806.6	1.6
283.15	10000	808.5	1.7
283.15	15000	811.8	1.9
283.15	20000	816.4	2.1
283.15	25000	818.9	2.3
283.15	30000	819.9	2.5
283.15	35000	822.2	2.7
288.15	100	795.3	1.3
288.15	2000	797.5	1.4
288.15	4000	798.8	1.4
288.15	6000	800.9	1.5
288.15	8000	802.6	1.6
288.15	10000	804.2	1.7
288.15	15000	807.8	1.9
288.15	20000	811.9	2.1
288.15	25000	814.5	2.3
288.15	30000	816	2.5
288.15	35000	818.6	2.8
293.15	100	791.2	1.3
293.15	2000	793.2	1.4
293.15	4000	794.5	1.4
293.15	6000	796.7	1.5
293.15	8000	798.5	1.6
293.15	10000	800	1.7
293.15	15000	803.7	1.9
293.15	20000	807.4	2.1
293.15	25000	810.2	2.3
293.15	30000	812.2	2.6
293.15	35000	814.9	2.8
298.15	100	785	1.3
298.15	2000	788.8	1.4
298.15	4000	790.3	1.5
298.15	6000	792.5	1.5
298.15	8000	794.3	1.6
298.15	10000	795.8	1.7
298.15	15000	799.7	1.9
298.15	20000	803.1	2.1
298.15	25000	806	2.4
298.15	30000	808.3	2.6
298.15	35000	811.3	2.9
303.15	100	781.6	1.3
303.15	2000	784.4	1.4
303.15	4000	785.9	1.5
303.15	6000	788.2	1.6
303.15	8000	790.2	1.6
303.15	10000	791.6	1.7
303.15	15000	795.6	2
303.15	20000	798.8	2.2
303.15	25000	801.8	2.4
303.15	30000	804.5	2.7
303.15	35000	807.6	2.9
308.15	100	777.9	1.3
308.15	2000	780	1.4
308.15	4000	781.6	1.5
308.15	6000	783.9	1.6
308.15	8000	785.9	1.7
308.15	10000	787.3	1.7
308.15	15000	791.5	2
308.15	20000	794.7	2.2
308.15	25000	797.8	2.4
308.15	30000	800.7	2.7
308.15	35000	803.9	3
313.15	100	774	1.3
313.15	2000	775.4	1.4
313.15	4000	777.2	1.5
313.15	6000	779.5	1.6
313.15	8000	781.7	1.7
313.15	10000	783.1	1.8
313.15	15000	787.4	2
313.15	20000	790.6	2.2
313.15	25000	793.8	2.5
313.15	30000	797	2.8
313.15	35000	800.2	3
318.15	100	769.7	1.3
318.15	2000	770.8	1.4
318.15	4000	772.8	1.5
318.15	6000	775.1	1.6
318.15	8000	777.3	1.7
318.15	10000	778.8	1.8
318.15	15000	783.2	2
318.15	20000	786.5	2.3
318.15	25000	789.9	2.5
318.15	30000	793.2	2.8
318.15	35000	796.5	3.1
323.15	100	765.2	1.3
323.15	2000	766.2	1.4
323.15	4000	768.4	1.5
323.15	6000	770.7	1.6
323.15	8000	772.9	1.7
323.15	10000	774.5	1.8
323.15	15000	779	2.1
323.15	20000	782.6	2.3
323.15	25000	786.1	2.6
323.15	30000	789.5	2.9
323.15	35000	792.8	3.1
328.15	100	760.4	1.4
328.15	2000	761.5	1.4
328.15	4000	763.9	1.5
328.15	6000	766.2	1.6
328.15	8000	768.5	1.7
328.15	10000	770.3	1.8
328.15	15000	774.8	2.1
328.15	20000	778.7	2.3
328.15	25000	782.3	2.6
328.15	30000	785.7	2.9
328.15	35000	789	3.2
333.15	100	755.4	1.4
333.15	2000	756.7	1.5
333.15	4000	759.4	1.6
333.15	6000	761.6	1.7
333.15	8000	764	1.7
333.15	10000	766	1.8
333.15	15000	770.6	2.1
333.15	20000	774.9	2.4
333.15	25000	778.6	2.7
333.15	30000	782	3
333.15	35000	785.2	3.2
338.15	100	750	1.4
338.15	2000	751.8	1.5
338.15	4000	754.9	1.6
338.15	6000	757	1.7
338.15	8000	759.5	1.8
338.15	10000	761.7	1.9
338.15	15000	766.3	2.1
338.15	20000	771.2	2.4
338.15	25000	775	2.7
338.15	30000	778.3	3
338.15	35000	781.4	3.3
343.15	100	744.3	1.4
343.15	2000	746.8	1.5
343.15	4000	750.3	1.6
343.15	6000	752.3	1.7
343.15	8000	754.9	1.8
343.15	10000	757.3	1.9
343.15	15000	762	2.2
343.15	20000	767.6	2.4
343.15	25000	771.5	2.7
343.15	30000	774.6	3
343.15	35000	777.6	3.4
348.15	100	738.4	1.4
348.15	2000	741.8	1.5
348.15	4000	745.6	1.6
348.15	6000	747.6	1.7
348.15	8000	750.2	1.8
348.15	10000	753	1.9
348.15	15000	757.7	2.2
348.15	20000	764	2.4
348.15	25000	768	2.8
348.15	30000	770.9	3.1
348.15	35000	773.7	3.4
353.15	2000	736.7	1.5
353.15	4000	741	1.6
353.15	6000	742.8	1.7
353.15	8000	745.5	1.8
353.15	10000	748.6	1.9
353.15	15000	753.3	2.2
353.15	20000	760.5	2.5
353.15	25000	764.6	2.8
353.15	30000	767.2	3.1
353.15	35000	769.9	3.5
