Measured thermophysical data. Solubility of chloroxine in aqueous co-solvent mixtures of N,N-dimethylformamide, dimethyl sulfoxide, N-methyl-2-pyrrolidone and 1,4-dioxane: Determination, solvent effect and preferential solvation analysis
Source: J. Chem. Thermodyn., 2019, 10.1016/j.jct.2019.07.001
Compound 1: dimethyl sulfoxide, C2H6OS, InChI=1S/C2H6OS/c1-4(2)3/h1-2H3, purity 99.6%
Compound 2: dimethylformamide, C3H7NO, InChI=1S/C3H7NO/c1-4(2)3-5/h3H,1-2H3, purity 99.5%
Compound 3: N-methylpyrrolidone, C5H9NO, InChI=1S/C5H9NO/c1-6-4-2-3-5(6)7/h2-4H2,1H3, purity 99.5%
Compound 4: 1,4-dioxane, C4H8O2, InChI=1S/C4H8O2/c1-2-6-4-3-5-1/h1-4H2, purity 99.4%
Compound 5: water, H2O, InChI=1S/H2O/h1H2
Compound 6: 5,7-dichloro-8-hydroxyquinoline, C9H5Cl2NO, InChI=1S/C9H5Cl2NO/c10-6-4-7(11)9(13)8-5(6)2-1-3-12-8/h1-4,13H, purity 98.1%

System: 5,7-dichloro-8-hydroxyquinoline + dimethylformamide + water; phases: Liquid, Glass
Fixed: Pressure, kPa = 101.2
Property: Mole fraction of 5,7-dichloro-8-hydroxyquinoline (Liquid); method: Chromatography
Solvent: Mass fraction of dimethylformamide	Temperature, K	Mole fraction of 5,7-dichloro-8-hydroxyquinoline	uncertainty
0	293.15	1.023e-06	1.01e-07
0	298.15	1.481e-06	1.46e-07
0	303.15	2.03e-06	2e-07
0	308.15	2.824e-06	2.78e-07
0	313.15	3.816e-06	3.75e-07
0	318.15	5.002e-06	4.92e-07
0	323.15	6.858e-06	6.74e-07
0	328.15	8.908e-06	8.76e-07
0	333.15	1.148e-05	1.13e-06
0.1	293.15	3.868e-06	3.8e-07
0.1	298.15	5.28e-06	5.19e-07
0.1	303.15	7.141e-06	7.02e-07
0.1	308.15	9.616e-06	9.46e-07
0.1	313.15	1.295e-05	1.27e-06
0.1	318.15	1.72e-05	1.69e-06
0.1	323.15	2.234e-05	2.2e-06
0.1	328.15	2.955e-05	2.91e-06
0.1	333.15	3.786e-05	3.73e-06
0.2	293.15	1.285e-05	1.264e-06
0.2	298.15	1.643e-05	1.616e-06
0.2	303.15	2.213e-05	2.18e-06
0.2	308.15	3e-05	2.95e-06
0.2	313.15	4.033e-05	3.97e-06
0.2	318.15	5.548e-05	5.46e-06
0.2	323.15	7.151e-05	7.03e-06
0.2	328.15	8.941e-05	8.79e-06
0.2	333.15	0.0001122	1.1e-05
0.3	293.15	3.833e-05	3.77e-06
0.3	298.15	4.848e-05	4.77e-06
0.3	303.15	6.553e-05	6.45e-06
0.3	308.15	8.791e-05	8.65e-06
0.3	313.15	0.0001166	1.15e-05
0.3	318.15	0.0001524	1.5e-05
0.3	323.15	0.0001953	1.92e-05
0.3	328.15	0.0002443	2.4e-05
0.3	333.15	0.0003042	2.99e-05
0.4	293.15	9.993e-05	9.83e-06
0.4	298.15	0.0001329	1.31e-05
0.4	303.15	0.0001676	1.65e-05
0.4	308.15	0.0002141	2.11e-05
0.4	313.15	0.0002772	2.73e-05
0.4	318.15	0.0003472	3.41e-05
0.4	323.15	0.0004316	4.24e-05
0.4	328.15	0.0005337	5.25e-05
0.4	333.15	0.0006616	6.51e-05
0.5	293.15	0.00023	2.26e-05
0.5	298.15	0.0002783	2.74e-05
0.5	303.15	0.0003533	3.47e-05
0.5	308.15	0.0004562	4.49e-05
0.5	313.15	0.0005762	5.67e-05
0.5	318.15	0.0007102	6.98e-05
0.5	323.15	0.0008825	8.68e-05
0.5	328.15	0.001057	0.000104
0.5	333.15	0.001266	0.000125
0.6	293.15	0.0004815	4.73e-05
0.6	298.15	0.0006174	6.07e-05
0.6	303.15	0.0007707	7.58e-05
0.6	308.15	0.0009578	9.42e-05
0.6	313.15	0.001199	0.000118
0.6	318.15	0.001481	0.000146
0.6	323.15	0.001817	0.000179
0.6	328.15	0.002211	0.000217
0.6	333.15	0.002725	0.000268
0.7	293.15	0.000963	9.47e-05
0.7	298.15	0.001243	0.000122
0.7	303.15	0.001546	0.000152
0.7	308.15	0.00192	0.000189
0.7	313.15	0.002371	0.000233
0.7	318.15	0.00293	0.000288
0.7	323.15	0.003539	0.000348
0.7	328.15	0.004255	0.000418
0.7	333.15	0.005207	0.000512
0.8	293.15	0.001972	0.000194
0.8	298.15	0.002521	0.000248
0.8	303.15	0.003184	0.000313
0.8	308.15	0.003746	0.000368
0.8	313.15	0.004705	0.000463
0.8	318.15	0.005689	0.000559
0.8	323.15	0.006934	0.000682
0.8	328.15	0.00832	0.000818
0.8	333.15	0.009902	0.000974
0.9	293.15	0.004519	0.000444
0.9	298.15	0.005713	0.000562
0.9	303.15	0.007135	0.000702
0.9	308.15	0.008663	0.000852
0.9	313.15	0.01073	0.00106
0.9	318.15	0.01273	0.00125
0.9	323.15	0.01524	0.0015
0.9	328.15	0.0182	0.00179
0.9	333.15	0.02221	0.00219
1	293.15	0.01324	0.0013
1	298.15	0.01598	0.00157
1	303.15	0.01939	0.00191
1	308.15	0.02402	0.00236
1	313.15	0.02939	0.00289
1	318.15	0.03467	0.00341
1	323.15	0.04082	0.00401
1	328.15	0.04783	0.0047
1	333.15	0.05553	0.00546

System: 5,7-dichloro-8-hydroxyquinoline + dimethyl sulfoxide + water; phases: Liquid, Glass
Fixed: Pressure, kPa = 101.2
Property: Mole fraction of 5,7-dichloro-8-hydroxyquinoline (Liquid); method: Chromatography
Solvent: Mass fraction of dimethyl sulfoxide	Temperature, K	Mole fraction of 5,7-dichloro-8-hydroxyquinoline	uncertainty
0	293.15	1.023e-06	1.01e-07
0	298.15	1.481e-06	1.46e-07
0	303.15	2.03e-06	2e-07
0	308.15	2.824e-06	2.78e-07
0	313.15	3.816e-06	3.75e-07
0	318.15	5.002e-06	4.92e-07
0	323.15	6.858e-06	6.74e-07
0	328.15	8.908e-06	8.76e-07
0	333.15	1.148e-05	1.13e-06
0.1	293.15	2.24e-06	2.2e-07
0.1	298.15	3.051e-06	3e-07
0.1	303.15	4.245e-06	4.17e-07
0.1	308.15	5.721e-06	5.63e-07
0.1	313.15	7.961e-06	7.83e-07
0.1	318.15	1.05e-05	1.03e-06
0.1	323.15	1.446e-05	1.42e-06
0.1	328.15	1.873e-05	1.84e-06
0.1	333.15	2.397e-05	2.36e-06
0.2	293.15	4.758e-06	4.68e-07
0.2	298.15	6.582e-06	6.47e-07
0.2	303.15	8.669e-06	8.53e-07
0.2	308.15	1.247e-05	1.23e-06
0.2	313.15	1.659e-05	1.63e-06
0.2	318.15	2.251e-05	2.21e-06
0.2	323.15	3.176e-05	3.12e-06
0.2	328.15	3.982e-05	3.92e-06
0.2	333.15	5.245e-05	5.16e-06
0.3	293.15	1.079e-05	1.06e-06
0.3	298.15	1.493e-05	1.47e-06
0.3	303.15	2.04e-05	2.01e-06
0.3	308.15	2.822e-05	2.78e-06
0.3	313.15	3.754e-05	3.69e-06
0.3	318.15	4.993e-05	4.91e-06
0.3	323.15	6.707e-05	6.6e-06
0.3	328.15	8.478e-05	8.34e-06
0.3	333.15	0.0001118	1.1e-05
0.4	293.15	2.533e-05	2.49e-06
0.4	298.15	3.609e-05	3.55e-06
0.4	303.15	4.944e-05	4.86e-06
0.4	308.15	6.84e-05	6.73e-06
0.4	313.15	9.278e-05	9.13e-06
0.4	318.15	0.0001198	1.18e-05
0.4	323.15	0.0001578	1.55e-05
0.4	328.15	0.0001998	1.97e-05
0.4	333.15	0.0002632	2.59e-05
0.5	293.15	6.26e-05	6.16e-06
0.5	298.15	8.833e-05	8.69e-06
0.5	303.15	0.0001259	1.24e-05
0.5	308.15	0.0001674	1.65e-05
0.5	313.15	0.0002249	2.21e-05
0.5	318.15	0.0002962	2.91e-05
0.5	323.15	0.0003825	3.76e-05
0.5	328.15	0.0004843	4.76e-05
0.5	333.15	0.0006073	5.98e-05
0.6	293.15	0.0001473	1.45e-05
0.6	298.15	0.0002058	2.02e-05
0.6	303.15	0.000282	2.77e-05
0.6	308.15	0.0003863	3.8e-05
0.6	313.15	0.0005188	5.1e-05
0.6	318.15	0.0006635	6.53e-05
0.6	323.15	0.0008738	8.59e-05
0.6	328.15	0.001106	0.000109
0.6	333.15	0.001347	0.000133
0.7	293.15	0.0003333	3.28e-05
0.7	298.15	0.0004721	4.64e-05
0.7	303.15	0.0006316	6.21e-05
0.7	308.15	0.0008653	8.51e-05
0.7	313.15	0.001084	0.000107
0.7	318.15	0.001357	0.000133
0.7	323.15	0.001845	0.000181
0.7	328.15	0.002314	0.000228
0.7	333.15	0.002817	0.000277
0.8	293.15	0.000707	6.95e-05
0.8	298.15	0.0009357	9.2e-05
0.8	303.15	0.00127	0.000125
0.8	308.15	0.001656	0.000163
0.8	313.15	0.002118	0.000208
0.8	318.15	0.002579	0.000254
0.8	323.15	0.003497	0.000344
0.8	328.15	0.004561	0.000448
0.8	333.15	0.005391	0.00053
0.9	293.15	0.001415	0.000139
0.9	298.15	0.001864	0.000183
0.9	303.15	0.00243	0.000239
0.9	308.15	0.003233	0.000318
0.9	313.15	0.004134	0.000407
0.9	318.15	0.005338	0.000525
0.9	323.15	0.006827	0.000671
0.9	328.15	0.008331	0.000819
0.9	333.15	0.01002	0.00099
1	293.15	0.002961	0.000291
1	298.15	0.003778	0.000372
1	303.15	0.004802	0.000472
1	308.15	0.006334	0.000623
1	313.15	0.007935	0.00078
1	318.15	0.009966	0.00098
1	323.15	0.01234	0.00121
1	328.15	0.01544	0.00152
1	333.15	0.01876	0.00184

System: 5,7-dichloro-8-hydroxyquinoline + N-methylpyrrolidone + water; phases: Liquid, Glass
Fixed: Pressure, kPa = 101.2
Property: Mole fraction of 5,7-dichloro-8-hydroxyquinoline (Liquid); method: Chromatography
Solvent: Mass fraction of N-methylpyrrolidone	Temperature, K	Mole fraction of 5,7-dichloro-8-hydroxyquinoline	uncertainty
0	293.15	1.023e-06	1.01e-07
0	298.15	1.481e-06	1.46e-07
0	303.15	2.03e-06	2e-07
0	308.15	2.824e-06	2.78e-07
0	313.15	3.816e-06	3.75e-07
0	318.15	5.002e-06	4.92e-07
0	323.15	6.858e-06	6.74e-07
0	328.15	8.908e-06	8.76e-07
0	333.15	1.148e-05	1.13e-06
0.1	293.15	2.42e-06	2.38e-07
0.1	298.15	3.349e-06	3.29e-07
0.1	303.15	4.675e-06	4.6e-07
0.1	308.15	6.295e-06	6.19e-07
0.1	313.15	8.63e-06	8.49e-07
0.1	318.15	1.146e-05	1.13e-06
0.1	323.15	1.509e-05	1.48e-06
0.1	328.15	1.987e-05	1.95e-06
0.1	333.15	2.633e-05	2.59e-06
0.2	293.15	5.804e-06	5.71e-07
0.2	298.15	7.922e-06	7.79e-07
0.2	303.15	1.076e-05	1.06e-06
0.2	308.15	1.417e-05	1.39e-06
0.2	313.15	1.908e-05	1.88e-06
0.2	318.15	2.535e-05	2.49e-06
0.2	323.15	3.337e-05	3.28e-06
0.2	328.15	4.402e-05	4.33e-06
0.2	333.15	5.577e-05	5.49e-06
0.3	293.15	1.389e-05	1.37e-06
0.3	298.15	1.705e-05	1.68e-06
0.3	303.15	2.291e-05	2.25e-06
0.3	308.15	3.122e-05	3.07e-06
0.3	313.15	4.337e-05	4.27e-06
0.3	318.15	5.893e-05	5.8e-06
0.3	323.15	7.651e-05	7.52e-06
0.3	328.15	9.771e-05	9.61e-06
0.3	333.15	0.0001207	1.19e-05
0.4	293.15	3.425e-05	3.37e-06
0.4	298.15	4.35e-05	4.28e-06
0.4	303.15	5.68e-05	5.59e-06
0.4	308.15	7.461e-05	7.34e-06
0.4	313.15	9.76e-05	9.6e-06
0.4	318.15	0.0001303	1.28e-05
0.4	323.15	0.0001682	1.65e-05
0.4	328.15	0.0002096	2.06e-05
0.4	333.15	0.0002574	2.53e-05
0.5	293.15	8.716e-05	8.57e-06
0.5	298.15	0.000105	1.03e-05
0.5	303.15	0.000138	1.36e-05
0.5	308.15	0.0001827	1.8e-05
0.5	313.15	0.000237	2.33e-05
0.5	318.15	0.0003042	2.99e-05
0.5	323.15	0.0003841	3.78e-05
0.5	328.15	0.0004726	4.65e-05
0.5	333.15	0.0005807	5.71e-05
0.6	293.15	0.0002261	2.22e-05
0.6	298.15	0.0002716	2.67e-05
0.6	303.15	0.0003493	3.44e-05
0.6	308.15	0.0004516	4.44e-05
0.6	313.15	0.0005749	5.65e-05
0.6	318.15	0.0007255	7.13e-05
0.6	323.15	0.0008981	8.83e-05
0.6	328.15	0.001098	0.000108
0.6	333.15	0.001331	0.000131
0.7	293.15	0.0005815	5.72e-05
0.7	298.15	0.0006789	6.68e-05
0.7	303.15	0.0008467	8.33e-05
0.7	308.15	0.001073	0.000106
0.7	313.15	0.001384	0.000136
0.7	318.15	0.00171	0.000168
0.7	323.15	0.002101	0.000207
0.7	328.15	0.002552	0.000251
0.7	333.15	0.003075	0.000302
0.8	293.15	0.001421	0.00014
0.8	298.15	0.001693	0.000166
0.8	303.15	0.002087	0.000205
0.8	308.15	0.002618	0.000257
0.8	313.15	0.003174	0.000312
0.8	318.15	0.003907	0.000384
0.8	323.15	0.004679	0.00046
0.8	328.15	0.005613	0.000552
0.8	333.15	0.006636	0.000653
0.9	293.15	0.003116	0.000306
0.9	298.15	0.003662	0.00036
0.9	303.15	0.004489	0.000441
0.9	308.15	0.005495	0.00054
0.9	313.15	0.006702	0.000659
0.9	318.15	0.008079	0.000794
0.9	323.15	0.009554	0.000939
0.9	328.15	0.0112	0.0011
0.9	333.15	0.01315	0.00129
1	293.15	0.00576	0.000566
1	298.15	0.006827	0.000671
1	303.15	0.00823	0.000809
1	308.15	0.009632	0.000947
1	313.15	0.01127	0.00111
1	318.15	0.01373	0.00135
1	323.15	0.01622	0.00159
1	328.15	0.0188	0.00185
1	333.15	0.02204	0.00217

System: 5,7-dichloro-8-hydroxyquinoline + 1,4-dioxane + water; phases: Liquid, Glass
Fixed: Pressure, kPa = 101.2
Property: Mole fraction of 5,7-dichloro-8-hydroxyquinoline (Liquid); method: Chromatography
Solvent: Mass fraction of 1,4-dioxane	Temperature, K	Mole fraction of 5,7-dichloro-8-hydroxyquinoline	uncertainty
0	293.15	1.023e-06	1.01e-07
0	298.15	1.481e-06	1.46e-07
0	303.15	2.03e-06	2e-07
0	308.15	2.824e-06	2.78e-07
0	313.15	3.816e-06	3.75e-07
0	318.15	5.002e-06	4.92e-07
0	323.15	6.858e-06	6.74e-07
0	328.15	8.908e-06	8.76e-07
0	333.15	1.148e-05	1.13e-06
0.1	293.15	2.956e-06	2.91e-07
0.1	298.15	3.992e-06	3.93e-07
0.1	303.15	5.376e-06	5.29e-07
0.1	308.15	7.109e-06	6.99e-07
0.1	313.15	9.318e-06	9.16e-07
0.1	318.15	1.266e-05	1.24e-06
0.1	323.15	1.6e-05	1.57e-06
0.1	328.15	2.079e-05	2.04e-06
0.1	333.15	2.628e-05	2.58e-06
0.2	293.15	5.703e-06	5.61e-07
0.2	298.15	7.698e-06	7.57e-07
0.2	303.15	1.034e-05	1.02e-06
0.2	308.15	1.36e-05	1.34e-06
0.2	313.15	1.799e-05	1.77e-06
0.2	318.15	2.328e-05	2.29e-06
0.2	323.15	3.042e-05	2.99e-06
0.2	328.15	3.89e-05	3.83e-06
0.2	333.15	4.924e-05	4.84e-06
0.3	293.15	1.256e-05	1.23e-06
0.3	298.15	1.668e-05	1.64e-06
0.3	303.15	2.279e-05	2.24e-06
0.3	308.15	2.939e-05	2.89e-06
0.3	313.15	3.787e-05	3.72e-06
0.3	318.15	5.004e-05	4.92e-06
0.3	323.15	6.591e-05	6.48e-06
0.3	328.15	8.367e-05	8.23e-06
0.3	333.15	0.0001036	1.02e-05
0.4	293.15	2.876e-05	2.83e-06
0.4	298.15	3.636e-05	3.58e-06
0.4	303.15	4.852e-05	4.77e-06
0.4	308.15	6.302e-05	6.2e-06
0.4	313.15	8.038e-05	7.91e-06
0.4	318.15	0.0001025	1.01e-05
0.4	323.15	0.0001308	1.29e-05
0.4	328.15	0.0001595	1.57e-05
0.4	333.15	0.0001998	1.97e-05
0.5	293.15	6.652e-05	6.54e-06
0.5	298.15	8.75e-05	8.61e-06
0.5	303.15	0.0001137	1.12e-05
0.5	308.15	0.0001461	1.44e-05
0.5	313.15	0.0001857	1.83e-05
0.5	318.15	0.0002335	2.3e-05
0.5	323.15	0.0002909	2.86e-05
0.5	328.15	0.0003589	3.53e-05
0.5	333.15	0.000439	4.32e-05
0.6	293.15	0.0001525	1.5e-05
0.6	298.15	0.0001976	1.94e-05
0.6	303.15	0.0002531	2.49e-05
0.6	308.15	0.0003148	3.1e-05
0.6	313.15	0.0004021	3.95e-05
0.6	318.15	0.0005086	5e-05
0.6	323.15	0.0006301	6.2e-05
0.6	328.15	0.0007648	7.52e-05
0.6	333.15	0.0009245	9.09e-05
0.7	293.15	0.0003518	3.46e-05
0.7	298.15	0.000443	4.36e-05
0.7	303.15	0.0005473	5.38e-05
0.7	308.15	0.0006952	6.84e-05
0.7	313.15	0.0008754	8.61e-05
0.7	318.15	0.001092	0.000107
0.7	323.15	0.001335	0.000131
0.7	328.15	0.001608	0.000158
0.7	333.15	0.001921	0.000189
0.8	293.15	0.0008254	8.12e-05
0.8	298.15	0.001001	9.8e-05
0.8	303.15	0.001253	0.000123
0.8	308.15	0.001564	0.000154
0.8	313.15	0.001937	0.00019
0.8	318.15	0.002381	0.000234
0.8	323.15	0.002885	0.000284
0.8	328.15	0.00342	0.000336
0.8	333.15	0.004016	0.000395
0.9	293.15	0.002001	0.000197
0.9	298.15	0.002473	0.000243
0.9	303.15	0.003028	0.000298
0.9	308.15	0.003674	0.000361
0.9	313.15	0.004419	0.000435
0.9	318.15	0.005273	0.000518
0.9	323.15	0.006244	0.000614
0.9	328.15	0.007339	0.000722
0.9	333.15	0.008567	0.000843
1	293.15	0.005226	0.000514
1	298.15	0.006203	0.00061
1	303.15	0.007362	0.000724
1	308.15	0.008896	0.000875
1	313.15	0.01065	0.00105
1	318.15	0.01231	0.00121
1	323.15	0.01461	0.00144
1	328.15	0.01703	0.00167
1	333.15	0.01932	0.0019

System: 5,7-dichloro-8-hydroxyquinoline + water; phases: Liquid, Glass
Fixed: Pressure, kPa = 101.2
Property: Mole fraction of 5,7-dichloro-8-hydroxyquinoline (Liquid); method: Chromatography
Temperature, K	Mole fraction of 5,7-dichloro-8-hydroxyquinoline	uncertainty
293.15	1.023e-06	1.01e-07
298.15	1.481e-06	1.46e-07
303.15	2.03e-06	2e-07
308.15	2.824e-06	2.78e-07
313.15	3.816e-06	3.75e-07
318.15	5.002e-06	4.92e-07
323.15	6.858e-06	6.74e-07
328.15	8.908e-06	8.76e-07
333.15	1.148e-05	1.13e-06

System: 5,7-dichloro-8-hydroxyquinoline + dimethylformamide; phases: Liquid, Glass
Fixed: Pressure, kPa = 101.2
Property: Mole fraction of 5,7-dichloro-8-hydroxyquinoline (Liquid); method: Chromatography
Temperature, K	Mole fraction of 5,7-dichloro-8-hydroxyquinoline	uncertainty
293.15	0.01324	0.0013
298.15	0.01598	0.00157
303.15	0.01939	0.00191
308.15	0.02402	0.00236
313.15	0.02939	0.00289
318.15	0.03467	0.00341
323.15	0.04082	0.00401
328.15	0.04783	0.0047
333.15	0.05553	0.00546

System: 5,7-dichloro-8-hydroxyquinoline + dimethyl sulfoxide; phases: Liquid, Glass
Fixed: Pressure, kPa = 101.2
Property: Mole fraction of 5,7-dichloro-8-hydroxyquinoline (Liquid); method: Chromatography
Temperature, K	Mole fraction of 5,7-dichloro-8-hydroxyquinoline	uncertainty
293.15	0.002961	0.000291
298.15	0.003778	0.000372
303.15	0.004802	0.000472
308.15	0.006334	0.000623
313.15	0.007935	0.00078
318.15	0.009966	0.00098
323.15	0.01234	0.00121
328.15	0.01544	0.00152
333.15	0.01876	0.00184

System: 5,7-dichloro-8-hydroxyquinoline + N-methylpyrrolidone; phases: Liquid, Glass
Fixed: Pressure, kPa = 101.2
Property: Mole fraction of 5,7-dichloro-8-hydroxyquinoline (Liquid); method: Chromatography
Temperature, K	Mole fraction of 5,7-dichloro-8-hydroxyquinoline	uncertainty
293.15	0.00576	0.000566
298.15	0.006827	0.000671
303.15	0.00823	0.000809
308.15	0.009632	0.000947
313.15	0.01127	0.00111
318.15	0.01373	0.00135
323.15	0.01622	0.00159
328.15	0.0188	0.00185
333.15	0.02204	0.00217

System: 5,7-dichloro-8-hydroxyquinoline + 1,4-dioxane; phases: Liquid, Glass
Fixed: Pressure, kPa = 101.2
Property: Mole fraction of 5,7-dichloro-8-hydroxyquinoline (Liquid); method: Chromatography
Temperature, K	Mole fraction of 5,7-dichloro-8-hydroxyquinoline	uncertainty
293.15	0.005226	0.000514
298.15	0.006203	0.00061
303.15	0.007362	0.000724
308.15	0.008896	0.000875
313.15	0.01065	0.00105
318.15	0.01231	0.00121
323.15	0.01461	0.00144
328.15	0.01703	0.00167
333.15	0.01932	0.0019
