Measured thermophysical data. Low-temperature heat capacity of Ir(C5H7O2)(C8H12)
Source: J. Chem. Thermodyn., 2016, 10.1016/j.jct.2016.03.044
Compound 1: (acetylacetonato)(1,5-cyclooctadiene)iridium(I), C13H19IrO2, InChI=1S/C8H12.C5H7O2.Ir/c1-2-4-6-8-7-5-3-1;1-4(6)3-5(2)7;/h1-2,7-8H,3-6H2;3H,1-2H3;/q;-1;+1/b2-1-,8-7-;;

System: (acetylacetonato)(1,5-cyclooctadiene)iridium(I); phases: Crystal 1, Liquid, Air at 1 atmosphere
Property: Normal melting temperature, K (Crystal 1); method: DTA
Normal melting temperature, K	uncertainty
428	0.6

System: (acetylacetonato)(1,5-cyclooctadiene)iridium(I); phases: Crystal 2, Crystal 1, Gas
Property: Triple point temperature, K (Crystal 2); method: Adiabatic calorimetry
Triple point temperature, K	uncertainty
287.2	0.1

System: (acetylacetonato)(1,5-cyclooctadiene)iridium(I); phases: Crystal 2, Crystal 1, Gas
Property: Molar enthalpy of transition or fusion, kJ/mol (Crystal 2); method: Adiabatic calorimetry
Molar enthalpy of transition or fusion, kJ/mol	uncertainty
0	1

System: (acetylacetonato)(1,5-cyclooctadiene)iridium(I); phases: Crystal 2
Property: Mass density, kg/m3 (Crystal 2); method: X-ray diffraction
Temperature, K	Pressure, kPa	Mass density, kg/m3	uncertainty
150	101.325	2231	2

System: (acetylacetonato)(1,5-cyclooctadiene)iridium(I); phases: Crystal 2
Fixed: Pressure, kPa = 101.325
Property: Molar heat capacity at constant pressure, J/K/mol (Crystal 2); method: Vacuum adiabatic calorimetry
Temperature, K	Molar heat capacity at constant pressure, J/K/mol	uncertainty
80.2	110.3	0.4
85.38	115.7	0.4
90.93	121.2	0.5
96.85	126.7	0.5
102.4	131.9	0.5
107.65	136.5	0.5
112.65	140.7	0.5
117.46	145	0.5
122.11	148.8	0.5
126.62	152.6	0.6
131	156.2	0.6
135.28	160	0.6
139.46	163.4	0.6
144.06	167.1	0.6
149.06	171.2	0.6
153.95	175.2	0.6
158.74	179.1	0.6
163.45	182.8	0.6
168.08	186.4	0.7
172.86	190.4	0.7
177.59	194.2	0.7
182.02	198.1	0.7
186.72	202.2	0.7
191.66	206.3	0.7
196.79	211.1	0.7
201.85	215.5	0.8
206.84	220	0.8
211.77	224.9	0.8
216.66	229.3	0.8
221.48	233.9	0.8
226.03	238.8	0.8
230.53	243.5	0.8
234.97	248.2	0.9
239.4	253.1	0.9
243.78	258.1	1
248.55	264.2	1.1
253.77	271	1.1
258.91	278.1	1.1
264.03	286.1	1.1
269.12	295.4	1.2
274.12	304.4	1.2
279.04	318.2	1.3
283.88	345.9	1.4
5.92	1.39	0.044
7.62	2.99	0.085
9.13	5.003	0.138
10.54	6.974	0.189
11.7	8.784	0.237
13.77	12.36	0.33
16.41	17.2	0.46
18.42	21.33	0.56
21.03	26.28	0.19
23.32	30.54	0.22
26.46	36.16	0.25
29.4	41.35	0.27
32.86	47.56	0.3
36.03	52.74	0.33
38.93	57.41	0.36
42.43	62.7	0.4
46.72	69.17	0.43
50.81	74.96	0.47
55.43	81.21	0.51
59.81	86.78	0.54
63.9	91.81	0.57
68.58	97.46	0.61
72.91	102.3	0.6
77.21	107	0.7
81.19	111.6	0.4
85.71	116	0.4
275.23	307	1.2
278.91	316.3	1.3
281.5	326.8	1.3
283.61	342.9	1.4
284.77	357	1.4
285.54	370	1.5
286.57	390.4	1.6
287.2	401.9	1.6

System: (acetylacetonato)(1,5-cyclooctadiene)iridium(I); phases: Crystal 1
Fixed: Pressure, kPa = 101.325
Property: Molar heat capacity at constant pressure, J/K/mol (Crystal 1); method: Vacuum adiabatic calorimetry
Temperature, K	Molar heat capacity at constant pressure, J/K/mol	uncertainty
288.64	353	1.5
293.57	324.1	1.3
298.48	323.8	1.3
303.15	326.4	1.3
287.2	401.9	1.6
287.65	392.6	1.7
288.53	355.9	1.5
289.7	337.8	1.3
291.7	328.1	1.3
295.02	323.1	1.3
299.02	324.1	1.3
303.34	326.3	1.3
307.75	330.8	1.3
311.03	334.4	1.3
314.81	339.2	1.3
318.01	343.2	1.4

System: (acetylacetonato)(1,5-cyclooctadiene)iridium(I); phases: Crystal 2
Fixed: Pressure, kPa = 101.325
Property: Molar heat capacity at constant pressure, J/K/mol (Crystal 2); method: Vacuum adiabatic calorimetry
Temperature, K	Molar heat capacity at constant pressure, J/K/mol	uncertainty
5	0.846	0.033
10	6.161	0.168
15	14.62	0.39
20	24.26	0.18
25	33.56	0.23
30	42.49	0.27
35	51.02	0.32
40	59.03	0.37
45	66.61	0.42
50	73.81	0.46
55	80.61	0.5
60	87.06	0.54
65	93.12	0.58
70	99	0.62
80	110.1	0.4
90	120.3	0.5
100	129.7	0.5
110	138.5	0.5
120	147	0.5
130	155.5	0.6
140	163.8	0.6
150	172	0.6
160	180	0.6
170	188	0.7
180	196.3	0.7
190	205	0.7
200	213.8	0.7
210	223	0.8
220	232.6	0.8
230	242.9	0.8
240	253.9	1
250	266	1.1
260	279.7	1.1
270	296.2	1.2
280	320.4	1.3
287.2	402	1.6
274.12	304.4	1.2

System: (acetylacetonato)(1,5-cyclooctadiene)iridium(I); phases: Crystal 2
Fixed: Pressure, kPa = 101.325
Property: Molar entropy, J/K/mol (Crystal 2); method: Vacuum adiabatic calorimetry
Temperature, K	Molar entropy, J/K/mol	uncertainty
5	0.282	0.019
10	2.217	0.092
15	6.239	0.25
20	11.76	0.14
25	18.19	0.19
30	25.1	0.25
35	32.3	0.31
40	39.64	0.38
45	47.04	0.45
50	54.43	0.52
55	61.79	0.58
60	69.08	0.65
65	76.29	0.72
70	83.41	0.78
80	97.36	0.53
90	110.9	0.6
100	124.1	0.7
110	136.9	0.8
120	149.3	0.8
130	161.4	0.9
140	173.2	0.9
150	184.8	1
160	196.2	1
170	207.3	1.1
180	218.3	1.1
190	229.1	1.2
200	239.9	1.2
210	250.5	1.3
220	261.1	1.3
230	271.7	1.4
240	282.2	1.7
250	292.9	1.8
260	303.5	1.8
270	314.4	1.9
280	325.6	1.9
287.2	334.4	2

System: (acetylacetonato)(1,5-cyclooctadiene)iridium(I); phases: Crystal 2
Fixed: Pressure, kPa = 101.325
Property: Molar enthalpy, kJ/mol (Crystal 2); method: Vacuum adiabatic calorimetry
Temperature, K	Molar enthalpy, kJ/mol	uncertainty
5	0.001058	8e-05
10	0.01654	0.00048
15	0.06757	0.00183
20	0.1647	0.0014
25	0.3097	0.0023
30	0.4999	0.0035
35	0.7339	0.005
40	1.009	0.007
45	1.324	0.009
50	1.675	0.011
55	2.061	0.013
60	2.48	0.016
65	2.931	0.019
70	3.411	0.022
80	4.458	0.017
90	5.61	0.025
100	6.86	0.029
110	8.201	0.034
120	9.629	0.039
130	11.14	0.044
140	12.74	0.05
150	14.42	0.056
160	16.18	0.062
170	18.02	0.069
180	19.94	0.075
190	21.94	0.082
200	24.04	0.089
210	26.22	0.1
220	28.5	0.1
230	30.88	0.11
240	33.36	0.14
250	35.96	0.15
260	38.69	0.16
270	41.56	0.17
280	44.64	0.18
287.2	47.15	0.19

System: (acetylacetonato)(1,5-cyclooctadiene)iridium(I); phases: Crystal 1
Fixed: Pressure, kPa = 101.325
Property: Molar heat capacity at constant pressure, J/K/mol (Crystal 1); method: Vacuum adiabatic calorimetry
Temperature, K	Molar heat capacity at constant pressure, J/K/mol	uncertainty
287.2	402	1.7
290	335.1	1.4
298.15	323.6	1.3
300	324.4	1.3
310	332.9	1.3
318	343.1	1.4
288.64	353	1.5
293.57	324.1	1.3
298.48	323.8	1.3
303.15	326.4	1.3

System: (acetylacetonato)(1,5-cyclooctadiene)iridium(I); phases: Crystal 1
Fixed: Pressure, kPa = 101.325
Property: Molar entropy, J/K/mol (Crystal 1); method: Vacuum adiabatic calorimetry
Temperature, K	Molar entropy, J/K/mol	uncertainty
287.2	334.4	2
290	338	2
298.15	347	2.1
300	349	2.1
310	359.7	2.1
318	368.3	2.2

System: (acetylacetonato)(1,5-cyclooctadiene)iridium(I); phases: Crystal 1
Fixed: Pressure, kPa = 101.325
Property: Molar enthalpy, kJ/mol (Crystal 1); method: Vacuum adiabatic calorimetry
Temperature, K	Molar enthalpy, kJ/mol	uncertainty
287.2	47.15	0.19
290	48.17	0.2
298.15	50.82	0.21
300	51.42	0.21
310	54.7	0.22
318	57.4	0.23
