Measured thermophysical data. Interfacial tension between (CO2 + N2) gas and tetrabutylammonium bromide aqueous solution
Source: J. Chem. Thermodyn., 2016, 10.1016/j.jct.2016.01.014
Compound 1: carbon dioxide, CO2, InChI=1S/CO2/c2-1-3, purity 99%
Compound 2: nitrogen, N2, InChI=1S/N2/c1-2, purity 99%
Compound 3: water, H2O, InChI=1S/H2O/h1H2

System: carbon dioxide + nitrogen + water; phases: Liquid, Gas
Fixed: Temperature, K = 298.2
Property: Surface tension liquid-gas, N/m (Liquid); method: Pendant drop shape
Volume fraction of carbon dioxide	Pressure, kPa	Surface tension liquid-gas, N/m	uncertainty
0.197	1000	0.06912	0.00215
0.195	2000	0.06622	0.00208
0.194	3000	0.06466	0.00216
0.181	4000	0.06279	0.00214
