Measured thermophysical data. Volumetric, acoustic and transport properties of mixtures containing dimethyl sulfoxide and some amines or alkanolamines: Measurement and correlation
Source: J. Chem. Thermodyn., 2018, 10.1016/j.jct.2018.02.018
Compound 1: dimethyl sulfoxide, C2H6OS, InChI=1S/C2H6OS/c1-4(2)3/h1-2H3, purity 99.5%
Compound 2: 2-aminoethan-1-ol, C2H7NO, InChI=1S/C2H7NO/c3-1-2-4/h4H,1-3H2, purity 99%
Compound 3: benzylamine, C7H9N, InChI=1S/C7H9N/c8-6-7-4-2-1-3-5-7/h1-5H,6,8H2, purity 99%
Compound 4: 3-dimethylamino-1-propanol, C5H13NO, InChI=1S/C5H13NO/c1-6(2)4-3-5-7/h7H,3-5H2,1-2H3, purity 99%
Compound 5: 2-(2-dimethylaminoethoxy)ethanol, C6H15NO2, InChI=1S/C6H15NO2/c1-7(2)3-5-9-6-4-8/h8H,3-6H2,1-2H3, purity 98%

System: dimethyl sulfoxide; phases: Liquid
Fixed: Pressure, kPa = 100
Property: Mass density, kg/m3 (Liquid); method: Vibrating tube method
Temperature, K	Mass density, kg/m3	uncertainty
293.15	1100	4
303.15	1090	4
313.15	1080	4
323.15	1070	4
298.15	1095	4

System: dimethyl sulfoxide; phases: Liquid
Fixed: Pressure, kPa = 100
Fixed: Frequency, MHz = 3
Property: Speed of sound, m/s (Liquid); method: Single path-length method
Temperature, K	Speed of sound, m/s	uncertainty
293.15	1503.9	1.5
303.15	1469.9	1.5
313.15	1436.3	1.5
323.15	1403	1.5
298.15	1486.8	1.5

System: dimethyl sulfoxide; phases: Liquid
Fixed: Pressure, kPa = 100
Property: Refractive index (Na D-line) (Liquid); method: Standard Abbe refractometry
Temperature, K	Refractive index (Na D-line)	uncertainty
293.15	1.479	0.006
303.15	1.475	0.006
313.15	1.47	0.006
323.15	1.466	0.006
298.15	1.477	0.006

System: 2-aminoethan-1-ol; phases: Liquid
Fixed: Pressure, kPa = 100
Property: Mass density, kg/m3 (Liquid); method: Vibrating tube method
Temperature, K	Mass density, kg/m3	uncertainty
293.15	1016	4
303.15	1008	4
313.15	1000	4
323.15	992	4
298.15	1012	4

System: 2-aminoethan-1-ol; phases: Liquid
Fixed: Pressure, kPa = 100
Fixed: Frequency, MHz = 3
Property: Speed of sound, m/s (Liquid); method: Single path-length method
Temperature, K	Speed of sound, m/s	uncertainty
293.15	1734.2	1.7
303.15	1702.2	1.7
313.15	1669.4	1.7
323.15	1637.3	1.7
298.15	1718.3	1.7

System: 2-aminoethan-1-ol; phases: Liquid
Fixed: Pressure, kPa = 100
Property: Refractive index (Na D-line) (Liquid); method: Standard Abbe refractometry
Temperature, K	Refractive index (Na D-line)	uncertainty
293.15	1.455	0.006
303.15	1.451	0.006
313.15	1.447	0.006
323.15	1.443	0.006
298.15	1.453	0.006

System: benzylamine; phases: Liquid
Fixed: Pressure, kPa = 100
Property: Mass density, kg/m3 (Liquid); method: Vibrating tube method
Temperature, K	Mass density, kg/m3	uncertainty
293.15	983	4
303.15	974	4
313.15	965	4
323.15	957	4
298.15	978	4

System: benzylamine; phases: Liquid
Fixed: Pressure, kPa = 100
Fixed: Frequency, MHz = 3
Property: Speed of sound, m/s (Liquid); method: Single path-length method
Temperature, K	Speed of sound, m/s	uncertainty
293.15	1579.7	1.7
303.15	1540.2	1.7
313.15	1500	1.7
323.15	1461.1	1.7
298.15	1560.1	1.7

System: benzylamine; phases: Liquid
Fixed: Pressure, kPa = 100
Property: Refractive index (Na D-line) (Liquid); method: Standard Abbe refractometry
Temperature, K	Refractive index (Na D-line)	uncertainty
293.15	1.544	0.006
303.15	1.539	0.006
313.15	1.534	0.006
323.15	1.529	0.006
298.15	1.542	0.006

System: 3-dimethylamino-1-propanol; phases: Liquid
Fixed: Pressure, kPa = 100
Property: Mass density, kg/m3 (Liquid); method: Vibrating tube method
Temperature, K	Mass density, kg/m3	uncertainty
293.15	885	4
303.15	877	4
313.15	869	4
323.15	860	4
298.15	881	4

System: 3-dimethylamino-1-propanol; phases: Liquid
Fixed: Pressure, kPa = 100
Fixed: Frequency, MHz = 3
Property: Speed of sound, m/s (Liquid); method: Single path-length method
Temperature, K	Speed of sound, m/s	uncertainty
293.15	1395.8	1.7
303.15	1358.8	1.7
313.15	1322.1	1.7
323.15	1285.7	1.7
298.15	1377.3	1.7

System: 3-dimethylamino-1-propanol; phases: Liquid
Fixed: Pressure, kPa = 100
Property: Refractive index (Na D-line) (Liquid); method: Standard Abbe refractometry
Temperature, K	Refractive index (Na D-line)	uncertainty
293.15	1.437	0.006
303.15	1.433	0.006
313.15	1.429	0.006
323.15	1.425	0.006
298.15	1.435	0.006

System: 2-(2-dimethylaminoethoxy)ethanol; phases: Liquid
Fixed: Pressure, kPa = 100
Property: Mass density, kg/m3 (Liquid); method: Vibrating tube method
Temperature, K	Mass density, kg/m3	uncertainty
293.15	954	4
303.15	946	4
313.15	938	4
323.15	930	4
298.15	950	4

System: 2-(2-dimethylaminoethoxy)ethanol; phases: Liquid
Fixed: Pressure, kPa = 100
Fixed: Frequency, MHz = 3
Property: Speed of sound, m/s (Liquid); method: Single path-length method
Temperature, K	Speed of sound, m/s	uncertainty
293.15	1403.6	2.4
303.15	1369.9	2.4
313.15	1336.8	2.4
323.15	1303.9	2.4
298.15	1386.7	2.4

System: 2-(2-dimethylaminoethoxy)ethanol; phases: Liquid
Fixed: Pressure, kPa = 100
Property: Refractive index (Na D-line) (Liquid); method: Standard Abbe refractometry
Temperature, K	Refractive index (Na D-line)	uncertainty
293.15	1.442	0.006
303.15	1.438	0.006
313.15	1.435	0.006
323.15	1.431	0.006
298.15	1.44	0.006

System: dimethyl sulfoxide + 2-aminoethan-1-ol; phases: Liquid
Fixed: Pressure, kPa = 100
Property: Mass density, kg/m3 (Liquid); method: Vibrating tube method
Temperature, K	Mole fraction of dimethyl sulfoxide	Mass density, kg/m3	uncertainty
293.15	0	1016	4
293.15	0.1026	1026	4
293.15	0.2008	1035	4
293.15	0.2981	1043	4
293.15	0.3966	1051	4
293.15	0.4933	1059	4
293.15	0.6021	1068	4
293.15	0.6969	1076	4
293.15	0.7998	1083	4
293.15	0.9005	1092	4
293.15	1	1100	4
303.15	0	1008	4
303.15	0.1026	1017	4
303.15	0.2008	1026	4
303.15	0.2981	1034	4
303.15	0.3966	1042	4
303.15	0.4933	1050	4
303.15	0.6021	1058	4
303.15	0.6969	1066	4
303.15	0.7998	1074	4
303.15	0.9005	1082	4
303.15	1	1090	4
313.15	0	1000	4
313.15	0.1026	1009	4
313.15	0.2008	1017	4
313.15	0.2981	1025	4
313.15	0.3966	1033	4
313.15	0.4933	1041	4
313.15	0.6021	1049	4
313.15	0.6969	1057	4
313.15	0.7998	1064	4
313.15	0.9005	1072	4
313.15	1	1080	4
323.15	0	992	4
323.15	0.1026	1001	4
323.15	0.2008	1009	4
323.15	0.2981	1017	4
323.15	0.3966	1024	4
323.15	0.4933	1031	4
323.15	0.6021	1039	4
323.15	0.6969	1047	4
323.15	0.7998	1054	4
323.15	0.9005	1062	4
323.15	1	1070	4

System: dimethyl sulfoxide + 2-aminoethan-1-ol; phases: Liquid
Fixed: Pressure, kPa = 100
Fixed: Frequency, MHz = 3
Property: Speed of sound, m/s (Liquid); method: Single path-length method
Temperature, K	Mole fraction of dimethyl sulfoxide	Speed of sound, m/s	uncertainty
293.15	0	1734.2	1.7
293.15	0.1026	1701.8	1.7
293.15	0.2008	1672.3	1.6
293.15	0.2981	1645.9	1.6
293.15	0.3966	1619.8	1.6
293.15	0.4933	1595.4	1.6
293.15	0.6021	1571.2	1.5
293.15	0.6969	1550.6	1.5
293.15	0.7998	1533.3	1.5
293.15	0.9005	1517.8	1.5
293.15	1	1503.9	1.5
303.15	0	1702.2	1.7
303.15	0.1026	1669.2	1.7
303.15	0.2008	1639.1	1.6
303.15	0.2981	1611.9	1.6
303.15	0.3966	1585.5	1.6
303.15	0.4933	1561.2	1.6
303.15	0.6021	1537	1.5
303.15	0.6969	1516.6	1.5
303.15	0.7998	1499	1.5
303.15	0.9005	1484	1.5
303.15	1	1469.9	1.5
313.15	0	1669.4	1.7
313.15	0.1026	1636.3	1.7
313.15	0.2008	1605.3	1.7
313.15	0.2981	1578.3	1.6
313.15	0.3966	1551.7	1.6
313.15	0.4933	1527.2	1.6
313.15	0.6021	1503	1.5
313.15	0.6969	1483.1	1.5
313.15	0.7998	1465.2	1.5
313.15	0.9005	1449.9	1.5
313.15	1	1436.3	1.5
323.15	0	1637.3	1.7
323.15	0.1026	1603.2	1.7
323.15	0.2008	1571.9	1.7
323.15	0.2981	1544.7	1.6
323.15	0.3966	1517.9	1.6
323.15	0.4933	1493.4	1.6
323.15	0.6021	1469.3	1.5
323.15	0.6969	1449.4	1.5
323.15	0.7998	1431.7	1.5
323.15	0.9005	1416.4	1.5
323.15	1	1403	1.5

System: dimethyl sulfoxide + 2-aminoethan-1-ol; phases: Liquid
Fixed: Pressure, kPa = 100
Property: Refractive index (Na D-line) (Liquid); method: Standard Abbe refractometry
Temperature, K	Mole fraction of dimethyl sulfoxide	Refractive index (Na D-line)	uncertainty
293.15	0	1.455	0.006
293.15	0.1026	1.457	0.006
293.15	0.2008	1.46	0.006
293.15	0.2981	1.462	0.006
293.15	0.3966	1.465	0.006
293.15	0.4933	1.467	0.006
293.15	0.6021	1.469	0.006
293.15	0.6969	1.472	0.006
293.15	0.7998	1.474	0.006
293.15	0.9005	1.476	0.006
293.15	1	1.479	0.006
303.15	0	1.451	0.006
303.15	0.1026	1.454	0.006
303.15	0.2008	1.455	0.006
303.15	0.2981	1.458	0.006
303.15	0.3966	1.46	0.006
303.15	0.4933	1.463	0.006
303.15	0.6021	1.465	0.006
303.15	0.6969	1.467	0.006
303.15	0.7998	1.469	0.006
303.15	0.9005	1.472	0.006
303.15	1	1.475	0.006
313.15	0	1.447	0.006
313.15	0.1026	1.45	0.006
313.15	0.2008	1.452	0.006
313.15	0.2981	1.454	0.006
313.15	0.3966	1.456	0.006
313.15	0.4933	1.458	0.006
313.15	0.6021	1.461	0.006
313.15	0.6969	1.463	0.006
313.15	0.7998	1.465	0.006
313.15	0.9005	1.468	0.006
313.15	1	1.47	0.006
323.15	0	1.443	0.006
323.15	0.1026	1.446	0.006
323.15	0.2008	1.449	0.006
323.15	0.2981	1.45	0.006
323.15	0.3966	1.452	0.006
323.15	0.4933	1.454	0.006
323.15	0.6021	1.457	0.006
323.15	0.6969	1.459	0.006
323.15	0.7998	1.461	0.006
323.15	0.9005	1.463	0.006
323.15	1	1.466	0.006

System: dimethyl sulfoxide + benzylamine; phases: Liquid
Fixed: Pressure, kPa = 100
Property: Mass density, kg/m3 (Liquid); method: Vibrating tube method
Temperature, K	Mole fraction of dimethyl sulfoxide	Mass density, kg/m3	uncertainty
293.15	0	983	4
293.15	0.1031	992	4
293.15	0.1998	1001	4
293.15	0.2979	1011	4
293.15	0.399	1021	4
293.15	0.4991	1032	4
293.15	0.5886	1043	4
293.15	0.6999	1056	4
293.15	0.8029	1070	4
293.15	0.8991	1084	4
293.15	0.9493	1092	4
293.15	1	1100	4
303.15	0	974	4
303.15	0.1031	983	4
303.15	0.1998	992	4
303.15	0.2979	1002	4
303.15	0.399	1012	4
303.15	0.4991	1023	4
303.15	0.5886	1033	4
303.15	0.6999	1047	4
303.15	0.8029	1061	4
303.15	0.8991	1075	4
303.15	0.9493	1082	4
303.15	1	1090	4
313.15	0	965	4
313.15	0.1031	974	4
313.15	0.1998	983	4
313.15	0.2979	993	4
313.15	0.399	1003	4
313.15	0.4991	1014	4
313.15	0.5886	1024	4
313.15	0.6999	1038	4
313.15	0.8029	1051	4
313.15	0.8991	1065	4
313.15	0.9493	1072	4
313.15	1	1080	4
323.15	0	957	4
323.15	0.1031	966	4
323.15	0.1998	974	4
323.15	0.2979	984	4
323.15	0.399	994	4
323.15	0.4991	1005	4
323.15	0.5886	1015	4
323.15	0.6999	1028	4
323.15	0.8029	1042	4
323.15	0.8991	1055	4
323.15	0.9493	1062	4
323.15	1	1070	4

System: dimethyl sulfoxide + benzylamine; phases: Liquid
Fixed: Pressure, kPa = 100
Fixed: Frequency, MHz = 3
Property: Speed of sound, m/s (Liquid); method: Single path-length method
Temperature, K	Mole fraction of dimethyl sulfoxide	Speed of sound, m/s	uncertainty
293.15	0	1579.7	1.7
293.15	0.1031	1578.5	1.7
293.15	0.1998	1575.9	1.6
293.15	0.2979	1571.1	1.6
293.15	0.399	1565.5	1.6
293.15	0.4991	1558.8	1.6
293.15	0.5886	1551.6	1.5
293.15	0.6999	1540.9	1.5
293.15	0.8029	1530	1.5
293.15	0.8991	1517.7	1.5
293.15	0.9493	1510.6	1.5
293.15	1	1503.9	1.5
303.15	0	1540.2	1.7
303.15	0.1031	1539.3	1.7
303.15	0.1998	1536.1	1.6
303.15	0.2979	1533.5	1.6
303.15	0.399	1527.6	1.6
303.15	0.4991	1521.6	1.6
303.15	0.5886	1514.9	1.5
303.15	0.6999	1504.8	1.5
303.15	0.8029	1494.9	1.5
303.15	0.8991	1483.3	1.5
303.15	0.9493	1476.2	1.5
303.15	1	1469.9	1.5
313.15	0	1500	1.7
313.15	0.1031	1500.2	1.7
313.15	0.1998	1497.6	1.6
313.15	0.2979	1494.6	1.6
313.15	0.399	1490.3	1.6
313.15	0.4991	1484.8	1.6
313.15	0.5886	1478.6	1.5
313.15	0.6999	1469.2	1.5
313.15	0.8029	1460	1.5
313.15	0.8991	1448.6	1.5
313.15	0.9493	1442.2	1.5
313.15	1	1436.3	1.5
323.15	0	1461.1	1.7
323.15	0.1031	1461.4	1.7
323.15	0.1998	1459.4	1.6
323.15	0.2979	1457.4	1.6
323.15	0.399	1453.3	1.6
323.15	0.4991	1448.4	1.6
323.15	0.5886	1442.7	1.5
323.15	0.6999	1434	1.5
323.15	0.8029	1425.3	1.5
323.15	0.8991	1414.6	1.5
323.15	0.9493	1408.5	1.5
323.15	1	1403	1.5

System: dimethyl sulfoxide + benzylamine; phases: Liquid
Fixed: Pressure, kPa = 100
Property: Refractive index (Na D-line) (Liquid); method: Standard Abbe refractometry
Temperature, K	Mole fraction of dimethyl sulfoxide	Refractive index (Na D-line)	uncertainty
293.15	0	1.544	0.006
293.15	0.1031	1.54	0.006
293.15	0.1998	1.536	0.006
293.15	0.2979	1.532	0.006
293.15	0.399	1.526	0.006
293.15	0.4991	1.52	0.006
293.15	0.5886	1.515	0.006
293.15	0.6999	1.507	0.006
293.15	0.8029	1.498	0.006
293.15	0.8991	1.49	0.006
293.15	0.9493	1.485	0.006
293.15	1	1.479	0.006
303.15	0	1.539	0.006
303.15	0.1031	1.535	0.006
303.15	0.1998	1.531	0.006
303.15	0.2979	1.527	0.006
303.15	0.399	1.522	0.006
303.15	0.4991	1.516	0.006
303.15	0.5886	1.51	0.006
303.15	0.6999	1.502	0.006
303.15	0.8029	1.494	0.006
303.15	0.8991	1.485	0.006
303.15	0.9493	1.48	0.006
303.15	1	1.475	0.006
313.15	0	1.534	0.006
313.15	0.1031	1.53	0.006
313.15	0.1998	1.527	0.006
313.15	0.2979	1.522	0.006
313.15	0.399	1.517	0.006
313.15	0.4991	1.511	0.006
313.15	0.5886	1.505	0.006
313.15	0.6999	1.498	0.006
313.15	0.8029	1.489	0.006
313.15	0.8991	1.481	0.006
313.15	0.9493	1.476	0.006
313.15	1	1.47	0.006
323.15	0	1.529	0.006
323.15	0.1031	1.526	0.006
323.15	0.1998	1.522	0.006
323.15	0.2979	1.517	0.006
323.15	0.399	1.512	0.006
323.15	0.4991	1.506	0.006
323.15	0.5886	1.501	0.006
323.15	0.6999	1.493	0.006
323.15	0.8029	1.485	0.006
323.15	0.8991	1.476	0.006
323.15	0.9493	1.471	0.006
323.15	1	1.466	0.006

System: dimethyl sulfoxide + 3-dimethylamino-1-propanol; phases: Liquid
Fixed: Pressure, kPa = 100
Property: Mass density, kg/m3 (Liquid); method: Vibrating tube method
Temperature, K	Mole fraction of dimethyl sulfoxide	Mass density, kg/m3	uncertainty
293.15	0	885	4
293.15	0.0517	891	4
293.15	0.0986	898	4
293.15	0.1998	911	4
293.15	0.3	927	4
293.15	0.3998	944	4
293.15	0.5031	963	4
293.15	0.5988	983	4
293.15	0.6998	1007	4
293.15	0.7918	1032	4
293.15	0.899	1065	4
293.15	0.9494	1082	4
293.15	1	1100	4
303.15	0	877	4
303.15	0.0517	883	4
303.15	0.0986	889	4
303.15	0.1998	903	4
303.15	0.3	918	4
303.15	0.3998	935	4
303.15	0.5031	954	4
303.15	0.5988	974	4
303.15	0.6998	998	4
303.15	0.7918	1023	4
303.15	0.899	1055	4
303.15	0.9494	1072	4
303.15	1	1090	4
313.15	0	869	4
313.15	0.0517	875	4
313.15	0.0986	881	4
313.15	0.1998	895	4
313.15	0.3	910	4
313.15	0.3998	926	4
313.15	0.5031	946	4
313.15	0.5988	965	4
313.15	0.6998	989	4
313.15	0.7918	1013	4
313.15	0.899	1046	4
313.15	0.9494	1062	4
313.15	1	1080	4
323.15	0	860	4
323.15	0.0517	867	4
323.15	0.0986	873	4
323.15	0.1998	886	4
323.15	0.3	901	4
323.15	0.3998	918	4
323.15	0.5031	937	4
323.15	0.5988	956	4
323.15	0.6998	980	4
323.15	0.7918	1004	4
323.15	0.899	1036	4
323.15	0.9494	1052	4
323.15	1	1070	4

System: dimethyl sulfoxide + 3-dimethylamino-1-propanol; phases: Liquid
Fixed: Pressure, kPa = 100
Fixed: Frequency, MHz = 3
Property: Speed of sound, m/s (Liquid); method: Single path-length method
Temperature, K	Mole fraction of dimethyl sulfoxide	Speed of sound, m/s	uncertainty
293.15	0	1395.8	1.7
293.15	0.0517	1397.6	1.7
293.15	0.0986	1398.4	1.7
293.15	0.1998	1401.4	1.6
293.15	0.3	1405.2	1.6
293.15	0.3998	1411.3	1.6
293.15	0.5031	1418.8	1.6
293.15	0.5988	1428.3	1.5
293.15	0.6998	1441.3	1.5
293.15	0.7918	1456	1.5
293.15	0.899	1478	1.5
293.15	0.9494	1489.6	1.5
293.15	1	1503.9	1.5
303.15	0	1358.8	1.7
303.15	0.0517	1360.9	1.7
303.15	0.0986	1361.8	1.7
303.15	0.1998	1365.3	1.6
303.15	0.3	1369.9	1.6
303.15	0.3998	1375.7	1.6
303.15	0.5031	1383.9	1.6
303.15	0.5988	1393.6	1.5
303.15	0.6998	1406.9	1.5
303.15	0.7918	1421.8	1.5
303.15	0.899	1444.5	1.5
303.15	0.9494	1455.9	1.5
303.15	1	1469.9	1.5
313.15	0	1322.1	1.7
313.15	0.0517	1324.4	1.7
313.15	0.0986	1325.4	1.7
313.15	0.1998	1328.9	1.6
313.15	0.3	1334.4	1.6
313.15	0.3998	1340.7	1.6
313.15	0.5031	1349.3	1.6
313.15	0.5988	1359.3	1.5
313.15	0.6998	1372.9	1.5
313.15	0.7918	1388.1	1.5
313.15	0.899	1410.9	1.5
313.15	0.9494	1422.3	1.5
313.15	1	1436.3	1.5
323.15	0	1285.7	1.7
323.15	0.0517	1288.2	1.7
323.15	0.0986	1289.5	1.7
323.15	0.1998	1293.8	1.6
323.15	0.3	1299.3	1.6
323.15	0.3998	1306.1	1.6
323.15	0.5031	1315.1	1.6
323.15	0.5988	1325.5	1.5
323.15	0.6998	1339.4	1.5
323.15	0.7918	1354.7	1.5
323.15	0.899	1377.6	1.5
323.15	0.9494	1389	1.5
323.15	1	1403	1.5

System: dimethyl sulfoxide + 3-dimethylamino-1-propanol; phases: Liquid
Fixed: Pressure, kPa = 100
Property: Refractive index (Na D-line) (Liquid); method: Standard Abbe refractometry
Temperature, K	Mole fraction of dimethyl sulfoxide	Refractive index (Na D-line)	uncertainty
293.15	0	1.437	0.006
293.15	0.0517	1.438	0.006
293.15	0.0986	1.439	0.006
293.15	0.1998	1.442	0.006
293.15	0.3	1.444	0.006
293.15	0.3998	1.447	0.006
293.15	0.5031	1.451	0.006
293.15	0.5988	1.455	0.006
293.15	0.6998	1.46	0.006
293.15	0.7918	1.465	0.006
293.15	0.899	1.472	0.006
293.15	0.9494	1.476	0.006
293.15	1	1.479	0.006
303.15	0	1.433	0.006
303.15	0.0517	1.434	0.006
303.15	0.0986	1.435	0.006
303.15	0.1998	1.437	0.006
303.15	0.3	1.44	0.006
303.15	0.3998	1.443	0.006
303.15	0.5031	1.447	0.006
303.15	0.5988	1.451	0.006
303.15	0.6998	1.456	0.006
303.15	0.7918	1.46	0.006
303.15	0.899	1.467	0.006
303.15	0.9494	1.471	0.006
303.15	1	1.475	0.006
313.15	0	1.429	0.006
313.15	0.0517	1.43	0.006
313.15	0.0986	1.431	0.006
313.15	0.1998	1.433	0.006
313.15	0.3	1.436	0.006
313.15	0.3998	1.439	0.006
313.15	0.5031	1.443	0.006
313.15	0.5988	1.447	0.006
313.15	0.6998	1.451	0.006
313.15	0.7918	1.456	0.006
313.15	0.899	1.463	0.006
313.15	0.9494	1.467	0.006
313.15	1	1.47	0.006
323.15	0	1.425	0.006
323.15	0.0517	1.426	0.006
323.15	0.0986	1.427	0.006
323.15	0.1998	1.429	0.006
323.15	0.3	1.432	0.006
323.15	0.3998	1.435	0.006
323.15	0.5031	1.439	0.006
323.15	0.5988	1.443	0.006
323.15	0.6998	1.447	0.006
323.15	0.7918	1.452	0.006
323.15	0.899	1.459	0.006
323.15	0.9494	1.462	0.006
323.15	1	1.466	0.006

System: dimethyl sulfoxide + 2-(2-dimethylaminoethoxy)ethanol; phases: Liquid
Fixed: Pressure, kPa = 100
Property: Mass density, kg/m3 (Liquid); method: Vibrating tube method
Temperature, K	Mole fraction of dimethyl sulfoxide	Mass density, kg/m3	uncertainty
293.15	0	954	4
293.15	0.0984	962	4
293.15	0.2001	971	4
293.15	0.2995	981	4
293.15	0.4021	992	4
293.15	0.4992	1003	4
293.15	0.6003	1017	4
293.15	0.7006	1033	4
293.15	0.795	1051	4
293.15	0.8997	1074	4
293.15	0.9505	1087	4
293.15	1	1100	4
303.15	0	946	4
303.15	0.0984	954	4
303.15	0.2001	963	4
303.15	0.2995	972	4
303.15	0.4021	983	4
303.15	0.4992	995	4
303.15	0.6003	1008	4
303.15	0.7006	1024	4
303.15	0.795	1041	4
303.15	0.8997	1064	4
303.15	0.9505	1077	4
303.15	1	1090	4
313.15	0	938	4
313.15	0.0984	946	4
313.15	0.2001	954	4
313.15	0.2995	964	4
313.15	0.4021	975	4
313.15	0.4992	986	4
313.15	0.6003	999	4
313.15	0.7006	1015	4
313.15	0.795	1032	4
313.15	0.8997	1054	4
313.15	0.9505	1067	4
313.15	1	1080	4
323.15	0	930	4
323.15	0.0984	937	4
323.15	0.2001	946	4
323.15	0.2995	955	4
323.15	0.4021	966	4
323.15	0.4992	977	4
323.15	0.6003	991	4
323.15	0.7006	1006	4
323.15	0.795	1023	4
323.15	0.8997	1045	4
323.15	0.9505	1057	4
323.15	1	1070	4

System: dimethyl sulfoxide + 2-(2-dimethylaminoethoxy)ethanol; phases: Liquid
Fixed: Pressure, kPa = 100
Fixed: Frequency, MHz = 3
Property: Speed of sound, m/s (Liquid); method: Single path-length method
Temperature, K	Mole fraction of dimethyl sulfoxide	Speed of sound, m/s	uncertainty
293.15	0	1403.6	2.4
293.15	0.0984	1410.5	2.3
293.15	0.2001	1417.2	2.2
293.15	0.2995	1423.8	2.1
293.15	0.4021	1431	2
293.15	0.4992	1439.1	1.9
293.15	0.6003	1448.2	1.8
293.15	0.7006	1458.4	1.7
293.15	0.795	1470.1	1.6
293.15	0.8997	1485.1	1.5
293.15	0.9505	1494.1	1.5
293.15	1	1503.9	1.5
303.15	0	1369.9	2.4
303.15	0.0984	1377.3	2.3
303.15	0.2001	1384	2.2
303.15	0.2995	1390.2	2.1
303.15	0.4021	1397.7	2
303.15	0.4992	1405.5	1.9
303.15	0.6003	1414.5	1.8
303.15	0.7006	1425.1	1.7
303.15	0.795	1436.6	1.6
303.15	0.8997	1451.1	1.5
303.15	0.9505	1460.6	1.5
303.15	1	1469.9	1.5
313.15	0	1336.8	2.4
313.15	0.0984	1344.1	2.3
313.15	0.2001	1350.8	2.2
313.15	0.2995	1357.1	2.1
313.15	0.4021	1364.6	2
313.15	0.4992	1372.4	1.9
313.15	0.6003	1381.3	1.8
313.15	0.7006	1391.4	1.7
313.15	0.795	1403.2	1.6
313.15	0.8997	1417.6	1.5
313.15	0.9505	1427	1.5
313.15	1	1436.3	1.5
323.15	0	1303.9	2.4
323.15	0.0984	1311.2	2.3
323.15	0.2001	1318	2.2
323.15	0.2995	1324.2	2.1
323.15	0.4021	1331.8	2
323.15	0.4992	1339.5	1.9
323.15	0.6003	1348.4	1.8
323.15	0.7006	1358.4	1.7
323.15	0.795	1370.1	1.6
323.15	0.8997	1384.4	1.5
323.15	0.9505	1393.6	1.5
323.15	1	1403	1.5

System: dimethyl sulfoxide + 2-(2-dimethylaminoethoxy)ethanol; phases: Liquid
Fixed: Pressure, kPa = 100
Property: Refractive index (Na D-line) (Liquid); method: Standard Abbe refractometry
Temperature, K	Mole fraction of dimethyl sulfoxide	Refractive index (Na D-line)	uncertainty
293.15	0	1.442	0.006
293.15	0.0984	1.444	0.006
293.15	0.2001	1.447	0.006
293.15	0.2995	1.449	0.006
293.15	0.4021	1.452	0.006
293.15	0.4992	1.455	0.006
293.15	0.6003	1.458	0.006
293.15	0.7006	1.462	0.006
293.15	0.795	1.467	0.006
293.15	0.8997	1.472	0.006
293.15	0.9505	1.476	0.006
293.15	1	1.479	0.006
303.15	0	1.438	0.006
303.15	0.0984	1.44	0.006
303.15	0.2001	1.443	0.006
303.15	0.2995	1.445	0.006
303.15	0.4021	1.448	0.006
303.15	0.4992	1.451	0.006
303.15	0.6003	1.454	0.006
303.15	0.7006	1.458	0.006
303.15	0.795	1.462	0.006
303.15	0.8997	1.468	0.006
303.15	0.9505	1.471	0.006
303.15	1	1.475	0.006
313.15	0	1.435	0.006
313.15	0.0984	1.437	0.006
313.15	0.2001	1.439	0.006
313.15	0.2995	1.441	0.006
313.15	0.4021	1.444	0.006
313.15	0.4992	1.447	0.006
313.15	0.6003	1.45	0.006
313.15	0.7006	1.454	0.006
313.15	0.795	1.458	0.006
313.15	0.8997	1.464	0.006
313.15	0.9505	1.467	0.006
313.15	1	1.47	0.006
323.15	0	1.431	0.006
323.15	0.0984	1.433	0.006
323.15	0.2001	1.435	0.006
323.15	0.2995	1.437	0.006
323.15	0.4021	1.439	0.006
323.15	0.4992	1.442	0.006
323.15	0.6003	1.446	0.006
323.15	0.7006	1.45	0.006
323.15	0.795	1.454	0.006
323.15	0.8997	1.459	0.006
323.15	0.9505	1.461	0.006
323.15	1	1.466	0.006
