Measured thermophysical data. Thermal and structural properties of ethyl 2- and 3-aminobenzoates: Experimental and computational approaches
Source: J. Chem. Thermodyn., 2019, 10.1016/j.jct.2019.02.001
Compound 1: carbon dioxide, CO2, InChI=1S/CO2/c2-1-3
Compound 2: nitrogen, N2, InChI=1S/N2/c1-2
Compound 3: water, H2O, InChI=1S/H2O/h1H2
Compound 4: oxygen, O2, InChI=1S/O2/c1-2
Compound 5: ethyl 2-aminobenzoate, C9H11NO2, InChI=1S/C9H11NO2/c1-2-12-9(11)7-5-3-4-6-8(7)10/h3-6H,2,10H2,1H3, purity 99.8%
Compound 6: ethyl 3-aminobenzoate, C9H11NO2, InChI=1S/C9H11NO2/c1-2-12-9(11)7-4-3-5-8(10)6-7/h3-6H,2,10H2,1H3, purity 99%
Compound 7: decane, C10H22, InChI=1S/C10H22/c1-3-5-7-9-10-8-6-4-2/h3-10H2,1-2H3, purity 99.9%

System: ethyl 2-aminobenzoate; phases: Liquid, Gas
Property: Molar enthalpy of vaporization or sublimation, kJ/mol (Liquid); method: Static calorimetry
Temperature, K	Molar enthalpy of vaporization or sublimation, kJ/mol	uncertainty
298.15	70.95	1.33

System: ethyl 2-aminobenzoate; phases: Gas, Liquid
Property: Molar enthalpy, kJ/mol (Gas); method: Drop calorimetry
Temperature, K	Molar enthalpy, kJ/mol	uncertainty
365.62	85.1	1.98

System: ethyl 3-aminobenzoate; phases: Liquid, Gas
Property: Molar enthalpy of vaporization or sublimation, kJ/mol (Liquid); method: Static calorimetry
Temperature, K	Molar enthalpy of vaporization or sublimation, kJ/mol	uncertainty
298.15	83.18	2.22

System: ethyl 3-aminobenzoate; phases: Gas, Liquid
Property: Molar enthalpy, kJ/mol (Gas); method: Drop calorimetry
Temperature, K	Molar enthalpy, kJ/mol	uncertainty
375.81	99.73	2.32

System: decane; phases: Liquid, Gas
Property: Molar enthalpy of vaporization or sublimation, kJ/mol (Liquid); method: Static calorimetry
Temperature, K	Molar enthalpy of vaporization or sublimation, kJ/mol	uncertainty
298.15	49.89	2.2

System: decane; phases: Liquid, Gas
Property: Molar enthalpy of vaporization or sublimation, kJ/mol (Liquid); method: Static calorimetry
Temperature, K	Molar enthalpy of vaporization or sublimation, kJ/mol	uncertainty
298.15	52.24	1.42

Reaction: -1 ethyl 2-aminobenzoate + 9 carbon dioxide + .5 nitrogen + 5.5 water + -10.75 oxygen
Property: Specific internal energy of reaction at constant volume, J/g
-28581.86

Reaction: -1 ethyl 3-aminobenzoate + 9 carbon dioxide + .5 nitrogen + 5.5 water + -10.75 oxygen
Property: Specific internal energy of reaction at constant volume, J/g
-28583.36
