Measured thermophysical data. Densities at high pressures and derived properties of thiophenes
Source: J. Chem. Thermodyn., 2017, 10.1016/j.jct.2016.08.005
Compound 1: thiophene, C4H4S, InChI=1S/C4H4S/c1-2-4-5-3-1/h1-4H, purity 99.9%
Compound 2: 2-methylthiophene, C5H6S, InChI=1S/C5H6S/c1-5-3-2-4-6-5/h2-4H,1H3, purity 99.2%
Compound 3: 3-methylthiophene, C5H6S, InChI=1S/C5H6S/c1-5-2-3-6-4-5/h2-4H,1H3, purity 99.5%
Compound 4: 2,5-dimethylthiophene, C6H8S, InChI=1S/C6H8S/c1-5-3-4-6(2)7-5/h3-4H,1-2H3, purity 99.9%

System: thiophene; phases: Liquid
Property: Mass density, kg/m3 (Liquid); method: Vibrating tube method
Temperature, K	Pressure, kPa	Mass density, kg/m3	uncertainty
283.15	100	1076.4	0.5
288.15	100	1070.54	0.5
293.15	100	1064.59	0.5
298.15	100	1058.65	0.5
303.15	100	1052.71	0.5
308.15	100	1046.7	0.5
313.15	100	1040.68	0.5
318.15	100	1034.64	0.5
323.15	100	1028.59	0.5
328.15	100	1022.43	0.5
333.15	100	1016.27	0.5
338.15	100	1010.08	0.5
283.15	2000	1077.94	0.5
288.15	2000	1072.11	0.5
293.15	2000	1066.21	0.5
298.15	2000	1060.32	0.5
303.15	2000	1054.43	0.5
308.15	2000	1048.48	0.5
313.15	2000	1042.52	0.5
318.15	2000	1036.54	0.5
323.15	2000	1030.52	0.5
328.15	2000	1024.49	0.5
333.15	2000	1018.35	0.5
338.15	2000	1012.22	0.5
283.15	5000	1080.27	0.51
288.15	5000	1074.53	0.51
293.15	5000	1068.67	0.51
298.15	5000	1062.91	0.5
303.15	5000	1057.07	0.5
308.15	5000	1051.21	0.5
313.15	5000	1045.35	0.5
318.15	5000	1039.44	0.5
323.15	5000	1033.54	0.5
328.15	5000	1027.57	0.5
333.15	5000	1021.56	0.5
338.15	5000	1015.53	0.5
283.15	7000	1081.81	0.51
288.15	7000	1076.12	0.51
293.15	7000	1070.33	0.51
298.15	7000	1064.57	0.51
303.15	7000	1058.82	0.5
308.15	7000	1052.99	0.5
313.15	7000	1047.19	0.5
318.15	7000	1041.36	0.5
323.15	7000	1035.52	0.5
328.15	7000	1029.6	0.5
333.15	7000	1023.65	0.5
338.15	7000	1017.69	0.5
283.15	10000	1084.09	0.51
288.15	10000	1078.46	0.51
293.15	10000	1072.75	0.51
298.15	10000	1067.05	0.51
303.15	10000	1061.36	0.51
308.15	10000	1055.61	0.51
313.15	10000	1049.91	0.5
318.15	10000	1044.15	0.5
323.15	10000	1038.37	0.5
328.15	10000	1032.58	0.5
333.15	10000	1026.72	0.5
338.15	10000	1020.86	0.5
283.15	15000	1087.78	0.51
288.15	15000	1082.24	0.51
293.15	15000	1076.63	0.51
298.15	15000	1071.07	0.51
303.15	15000	1065.48	0.51
308.15	15000	1059.87	0.51
313.15	15000	1054.25	0.51
318.15	15000	1048.65	0.51
323.15	15000	1042.99	0.51
328.15	15000	1037.33	0.5
333.15	15000	1031.63	0.5
338.15	15000	1025.92	0.5
283.15	20000	1091.37	0.52
288.15	20000	1085.9	0.52
293.15	20000	1080.39	0.51
298.15	20000	1074.94	0.51
303.15	20000	1069.46	0.51
308.15	20000	1063.97	0.51
313.15	20000	1058.47	0.51
318.15	20000	1052.97	0.51
323.15	20000	1047.45	0.51
328.15	20000	1041.91	0.51
333.15	20000	1036.34	0.51
338.15	20000	1030.78	0.5
283.15	25000	1094.82	0.52
288.15	25000	1089.45	0.52
293.15	25000	1084.05	0.52
298.15	25000	1078.69	0.52
303.15	25000	1073.3	0.51
308.15	25000	1067.92	0.51
313.15	25000	1062.52	0.51
318.15	25000	1057.12	0.51
323.15	25000	1051.73	0.51
328.15	25000	1046.31	0.51
333.15	25000	1040.87	0.51
338.15	25000	1035.41	0.51
283.15	30000	1098.18	0.53
288.15	30000	1092.91	0.53
293.15	30000	1087.58	0.52
298.15	30000	1082.3	0.52
303.15	30000	1077.03	0.52
308.15	30000	1071.73	0.52
313.15	30000	1066.43	0.52
318.15	30000	1061.15	0.51
323.15	30000	1055.85	0.51
328.15	30000	1050.54	0.51
333.15	30000	1045.21	0.51
338.15	30000	1039.88	0.51
283.15	35000	1101.44	0.54
288.15	35000	1096.24	0.53
293.15	35000	1091.01	0.53
298.15	35000	1085.81	0.53
303.15	35000	1080.62	0.53
308.15	35000	1075.4	0.52
313.15	35000	1070.21	0.52
318.15	35000	1065.02	0.52
323.15	35000	1059.82	0.52
328.15	35000	1054.61	0.51
333.15	35000	1049.39	0.51
338.15	35000	1044.17	0.51
283.15	40000	1104.61	0.54
288.15	40000	1099.5	0.54
293.15	40000	1094.34	0.54
298.15	40000	1089.21	0.53
303.15	40000	1084.1	0.53
308.15	40000	1078.99	0.53
313.15	40000	1073.88	0.53
318.15	40000	1068.77	0.52
323.15	40000	1063.67	0.52
328.15	40000	1058.55	0.52
333.15	40000	1053.43	0.52
338.15	40000	1048.31	0.51
283.15	45000	1107.7	0.55
288.15	45000	1102.65	0.55
293.15	45000	1097.57	0.55
298.15	45000	1092.53	0.54
303.15	45000	1087.49	0.54
308.15	45000	1082.45	0.54
313.15	45000	1077.41	0.53
318.15	45000	1072.41	0.53
323.15	45000	1067.38	0.53
328.15	45000	1062.36	0.52
333.15	45000	1057.32	0.52
338.15	45000	1052.28	0.52
283.15	50000	1110.71	0.57
288.15	50000	1105.72	0.56
293.15	50000	1100.7	0.56
298.15	50000	1095.73	0.55
303.15	50000	1090.79	0.55
308.15	50000	1085.8	0.54
313.15	50000	1080.86	0.54
318.15	50000	1075.92	0.54
323.15	50000	1070.98	0.53
328.15	50000	1066.05	0.53
333.15	50000	1061.09	0.53
338.15	50000	1056.13	0.52
283.15	55000	1113.62	0.58
288.15	55000	1108.7	0.57
293.15	55000	1103.77	0.57
298.15	55000	1098.86	0.56
303.15	55000	1093.96	0.56
308.15	55000	1089.07	0.55
313.15	55000	1084.2	0.55
318.15	55000	1079.33	0.54
323.15	55000	1074.48	0.54
328.15	55000	1069.6	0.54
333.15	55000	1064.72	0.53
338.15	55000	1059.87	0.53
283.15	60000	1116.47	0.59
288.15	60000	1111.61	0.59
293.15	60000	1106.72	0.58
298.15	60000	1101.89	0.57
303.15	60000	1097.06	0.57
308.15	60000	1092.23	0.56
313.15	60000	1087.42	0.56
318.15	60000	1082.65	0.55
323.15	60000	1077.86	0.55
328.15	60000	1073.07	0.54
333.15	60000	1068.26	0.54
338.15	60000	1063.48	0.53
283.15	65000	1119.27	0.61
288.15	65000	1114.44	0.6
293.15	65000	1109.63	0.59
298.15	65000	1104.85	0.59
303.15	65000	1100.09	0.58
308.15	65000	1095.31	0.57
313.15	65000	1090.59	0.57
318.15	65000	1085.87	0.56
323.15	65000	1081.13	0.56
328.15	65000	1076.42	0.55
333.15	65000	1071.7	0.55
338.15	65000	1066.99	0.54

System: 2-methylthiophene; phases: Liquid
Property: Mass density, kg/m3 (Liquid); method: Vibrating tube method
Temperature, K	Pressure, kPa	Mass density, kg/m3	uncertainty
283.15	100	1030.98	0.53
288.15	100	1025.61	0.53
293.15	100	1020.2	0.52
298.15	100	1014.79	0.52
303.15	100	1009.39	0.52
308.15	100	1003.95	0.52
313.15	100	998.5	0.52
318.15	100	993.03	0.52
323.15	100	987.55	0.52
328.15	100	982.01	0.52
333.15	100	976.49	0.52
338.15	100	970.87	0.52
283.15	2000	1032.44	0.53
288.15	2000	1027.12	0.53
293.15	2000	1021.76	0.52
298.15	2000	1016.39	0.52
303.15	2000	1011.03	0.52
308.15	2000	1005.62	0.52
313.15	2000	1000.23	0.52
318.15	2000	994.81	0.52
323.15	2000	989.38	0.52
328.15	2000	983.93	0.52
333.15	2000	978.46	0.52
338.15	2000	972.92	0.52
283.15	5000	1034.69	0.53
288.15	5000	1029.45	0.53
293.15	5000	1024.16	0.53
298.15	5000	1018.85	0.52
303.15	5000	1013.57	0.52
308.15	5000	1008.23	0.52
313.15	5000	1002.93	0.52
318.15	5000	997.59	0.52
323.15	5000	992.24	0.52
328.15	5000	986.87	0.52
333.15	5000	981.49	0.52
338.15	5000	976.06	0.52
283.15	7000	1036.18	0.53
288.15	7000	1030.97	0.53
293.15	7000	1025.73	0.53
298.15	7000	1020.48	0.53
303.15	7000	1015.23	0.52
308.15	7000	1009.96	0.52
313.15	7000	1004.7	0.52
318.15	7000	999.4	0.52
323.15	7000	994.11	0.52
328.15	7000	988.79	0.52
333.15	7000	983.47	0.52
338.15	7000	978.09	0.52
283.15	10000	1038.39	0.53
288.15	10000	1033.22	0.53
293.15	10000	1028.04	0.53
298.15	10000	1022.84	0.53
303.15	10000	1017.69	0.53
308.15	10000	1012.46	0.52
313.15	10000	1007.28	0.52
318.15	10000	1002.05	0.52
323.15	10000	996.84	0.52
328.15	10000	991.61	0.52
333.15	10000	986.36	0.52
338.15	10000	981.08	0.52
283.15	15000	1041.92	0.54
288.15	15000	1036.86	0.53
293.15	15000	1031.77	0.53
298.15	15000	1026.7	0.53
303.15	15000	1021.62	0.53
308.15	15000	1016.53	0.53
313.15	15000	1011.45	0.52
318.15	15000	1006.33	0.52
323.15	15000	1001.25	0.52
328.15	15000	996.12	0.52
333.15	15000	991.02	0.52
338.15	15000	985.87	0.52
283.15	20000	1045.36	0.54
288.15	20000	1040.39	0.54
293.15	20000	1035.39	0.54
298.15	20000	1030.4	0.53
303.15	20000	1025.42	0.53
308.15	20000	1020.43	0.53
313.15	20000	1015.45	0.53
318.15	20000	1010.45	0.52
323.15	20000	1005.47	0.52
328.15	20000	1000.47	0.52
333.15	20000	995.46	0.52
338.15	20000	990.45	0.52
283.15	25000	1048.69	0.54
288.15	25000	1043.79	0.54
293.15	25000	1038.88	0.54
298.15	25000	1033.98	0.54
303.15	25000	1029.11	0.53
308.15	25000	1024.2	0.53
313.15	25000	1019.32	0.53
318.15	25000	1014.42	0.53
323.15	25000	1009.52	0.52
328.15	25000	1004.64	0.52
333.15	25000	999.74	0.52
338.15	25000	994.85	0.52
283.15	30000	1051.93	0.55
288.15	30000	1047.1	0.55
293.15	30000	1042.27	0.54
298.15	30000	1037.45	0.54
303.15	30000	1032.66	0.54
308.15	30000	1027.84	0.53
313.15	30000	1023.04	0.53
318.15	30000	1018.23	0.53
323.15	30000	1013.45	0.53
328.15	30000	1008.65	0.52
333.15	30000	1003.86	0.52
338.15	30000	999.06	0.52
283.15	35000	1055.07	0.56
288.15	35000	1050.32	0.55
293.15	35000	1045.56	0.55
298.15	35000	1040.82	0.55
303.15	35000	1036.1	0.54
308.15	35000	1031.36	0.54
313.15	35000	1026.65	0.54
318.15	35000	1021.93	0.53
323.15	35000	1017.21	0.53
328.15	35000	1012.52	0.53
333.15	35000	1007.82	0.52
338.15	35000	1003.09	0.52
283.15	40000	1058.12	0.56
288.15	40000	1053.43	0.56
293.15	40000	1048.68	0.56
298.15	40000	1044.09	0.55
303.15	40000	1039.44	0.55
308.15	40000	1034.78	0.54
313.15	40000	1030.14	0.54
318.15	40000	1025.49	0.54
323.15	40000	1020.87	0.53
328.15	40000	1016.24	0.53
333.15	40000	1011.63	0.53
338.15	40000	1007.02	0.52
283.15	45000	1061.09	0.57
288.15	45000	1056.47	0.57
293.15	45000	1051.85	0.56
298.15	45000	1047.25	0.56
303.15	45000	1042.68	0.55
308.15	45000	1038.08	0.55
313.15	45000	1033.52	0.55
318.15	45000	1028.94	0.54
323.15	45000	1024.41	0.54
328.15	45000	1019.86	0.53
333.15	45000	1015.34	0.53
338.15	45000	1010.79	0.53
283.15	50000	1063.97	0.58
288.15	50000	1059.42	0.58
293.15	50000	1054.87	0.57
298.15	50000	1050.33	0.56
303.15	50000	1045.81	0.56
308.15	50000	1041.29	0.56
313.15	50000	1036.79	0.55
318.15	50000	1032.3	0.55
323.15	50000	1027.81	0.54
328.15	50000	1023.37	0.54
333.15	50000	1018.9	0.53
338.15	50000	1014.44	0.53
283.15	55000	1066.8	0.59
288.15	55000	1062.27	0.58
293.15	55000	1057.79	0.58
298.15	55000	1053.31	0.57
303.15	55000	1048.89	0.57
308.15	55000	1044.4	0.56
313.15	55000	1039.99	0.56
318.15	55000	1035.54	0.55
323.15	55000	1031.14	0.55
328.15	55000	1026.73	0.54
333.15	55000	1022.36	0.54
338.15	55000	1017.97	0.53
283.15	60000	1069.53	0.6
288.15	60000	1065.07	0.59
293.15	60000	1060.64	0.59
298.15	60000	1056.23	0.58
303.15	60000	1051.84	0.58
308.15	60000	1047.43	0.57
313.15	60000	1043.07	0.56
318.15	60000	1038.69	0.56
323.15	60000	1034.36	0.55
328.15	60000	1030.01	0.55
333.15	60000	1025.71	0.54
338.15	60000	1021.38	0.54
283.15	65000	1072.21	0.61
288.15	65000	1067.79	0.6
293.15	65000	1063.42	0.6
298.15	65000	1059.07	0.59
303.15	65000	1054.72	0.58
308.15	65000	1050.39	0.58
313.15	65000	1046.08	0.57
318.15	65000	1041.75	0.57
323.15	65000	1037.48	0.56
328.15	65000	1033.2	0.55
333.15	65000	1028.94	0.55
338.15	65000	1024.7	0.54

System: 3-methylthiophene; phases: Liquid
Property: Mass density, kg/m3 (Liquid); method: Vibrating tube method
Temperature, K	Pressure, kPa	Mass density, kg/m3	uncertainty
283.15	100	1031.82	0.51
288.15	100	1026.57	0.51
293.15	100	1021.31	0.51
298.15	100	1016	0.51
303.15	100	1010.72	0.51
308.15	100	1005.4	0.51
313.15	100	1000.05	0.51
318.15	100	994.7	0.51
323.15	100	989.3	0.51
328.15	100	983.88	0.51
333.15	100	978.47	0.51
338.15	100	972.98	0.51
283.15	2000	1033.26	0.51
288.15	2000	1028.05	0.51
293.15	2000	1022.81	0.51
298.15	2000	1017.57	0.51
303.15	2000	1012.32	0.51
308.15	2000	1007.04	0.51
313.15	2000	1001.76	0.51
318.15	2000	996.44	0.51
323.15	2000	991.1	0.51
328.15	2000	985.74	0.51
333.15	2000	980.39	0.51
338.15	2000	974.96	0.51
283.15	5000	1035.47	0.51
288.15	5000	1030.34	0.51
293.15	5000	1025.16	0.51
298.15	5000	1019.98	0.51
303.15	5000	1014.81	0.51
308.15	5000	1009.61	0.51
313.15	5000	1004.39	0.51
318.15	5000	999.15	0.51
323.15	5000	993.9	0.51
328.15	5000	988.63	0.51
333.15	5000	983.35	0.51
338.15	5000	978.01	0.51
283.15	7000	1036.93	0.51
288.15	7000	1031.84	0.51
293.15	7000	1026.7	0.51
298.15	7000	1021.56	0.51
303.15	7000	1016.43	0.51
308.15	7000	1011.27	0.51
313.15	7000	1006.11	0.51
318.15	7000	1000.93	0.51
323.15	7000	995.72	0.51
328.15	7000	990.51	0.51
333.15	7000	985.3	0.51
338.15	7000	980.02	0.51
283.15	10000	1039.07	0.51
288.15	10000	1034.03	0.51
293.15	10000	1028.95	0.51
298.15	10000	1023.89	0.51
303.15	10000	1018.83	0.51
308.15	10000	1013.72	0.51
313.15	10000	1008.64	0.51
318.15	10000	1003.52	0.51
323.15	10000	998.41	0.51
328.15	10000	993.26	0.51
333.15	10000	988.13	0.51
338.15	10000	982.95	0.51
283.15	15000	1042.56	0.51
288.15	15000	1037.61	0.51
293.15	15000	1032.61	0.51
298.15	15000	1027.64	0.51
303.15	15000	1022.7	0.51
308.15	15000	1017.69	0.51
313.15	15000	1012.71	0.51
318.15	15000	1007.7	0.51
323.15	15000	1002.71	0.51
328.15	15000	997.7	0.51
333.15	15000	992.67	0.51
338.15	15000	987.63	0.51
283.15	20000	1045.93	0.52
288.15	20000	1041.07	0.51
293.15	20000	1036.16	0.51
298.15	20000	1031.29	0.51
303.15	20000	1026.42	0.51
308.15	20000	1021.53	0.51
313.15	20000	1016.63	0.51
318.15	20000	1011.74	0.51
323.15	20000	1006.85	0.51
328.15	20000	1001.93	0.51
333.15	20000	997.03	0.51
338.15	20000	992.12	0.51
283.15	25000	1049.2	0.52
288.15	25000	1044.41	0.52
293.15	25000	1039.6	0.52
298.15	25000	1034.81	0.51
303.15	25000	1030.01	0.51
308.15	25000	1025.22	0.51
313.15	25000	1020.43	0.51
318.15	25000	1015.6	0.51
323.15	25000	1010.83	0.51
328.15	25000	1006	0.51
333.15	25000	1001.22	0.51
338.15	25000	996.41	0.51
283.15	30000	1052.37	0.52
288.15	30000	1047.65	0.52
293.15	30000	1042.92	0.52
298.15	30000	1038.2	0.52
303.15	30000	1033.5	0.52
308.15	30000	1028.73	0.51
313.15	30000	1024.08	0.51
318.15	30000	1019.35	0.51
323.15	30000	1014.66	0.51
328.15	30000	1009.94	0.51
333.15	30000	1005.22	0.51
338.15	30000	1000.53	0.51
283.15	35000	1055.46	0.53
288.15	35000	1050.8	0.52
293.15	35000	1046.15	0.52
298.15	35000	1041.52	0.52
303.15	35000	1036.87	0.52
308.15	35000	1032.24	0.52
313.15	35000	1027.61	0.51
318.15	35000	1022.99	0.51
323.15	35000	1018.35	0.51
328.15	35000	1013.73	0.51
333.15	35000	1009.12	0.51
338.15	35000	1004.49	0.51
283.15	40000	1058.46	0.53
288.15	40000	1053.86	0.53
293.15	40000	1049.27	0.53
298.15	40000	1044.71	0.52
303.15	40000	1040.16	0.52
308.15	40000	1035.59	0.52
313.15	40000	1031.05	0.52
318.15	40000	1026.48	0.52
323.15	40000	1021.93	0.51
328.15	40000	1017.38	0.51
333.15	40000	1012.87	0.51
338.15	40000	1008.33	0.51
283.15	45000	1061.37	0.54
288.15	45000	1056.84	0.53
293.15	45000	1052.31	0.53
298.15	45000	1047.82	0.53
303.15	45000	1043.34	0.53
308.15	45000	1038.84	0.52
313.15	45000	1034.35	0.52
318.15	45000	1029.86	0.52
323.15	45000	1025.4	0.52
328.15	45000	1020.94	0.51
333.15	45000	1016.49	0.51
338.15	45000	1012.04	0.51
283.15	50000	1064.22	0.54
288.15	50000	1059.74	0.54
293.15	50000	1055.28	0.54
298.15	50000	1050.84	0.53
303.15	50000	1046.42	0.53
308.15	50000	1041.98	0.53
313.15	50000	1037.58	0.52
318.15	50000	1033.15	0.52
323.15	50000	1028.76	0.52
328.15	50000	1024.36	0.52
333.15	50000	1020	0.51
338.15	50000	1015.62	0.51
283.15	55000	1066.97	0.55
288.15	55000	1062.56	0.55
293.15	55000	1058.15	0.54
298.15	55000	1053.78	0.54
303.15	55000	1049.41	0.54
308.15	55000	1045.05	0.53
313.15	55000	1040.71	0.53
318.15	55000	1036.33	0.53
323.15	55000	1032.03	0.52
328.15	55000	1027.68	0.52
333.15	55000	1023.38	0.52
338.15	55000	1019.08	0.51
283.15	60000	1069.67	0.56
288.15	60000	1065.32	0.56
293.15	60000	1060.96	0.55
298.15	60000	1056.65	0.55
303.15	60000	1052.33	0.54
308.15	60000	1048.03	0.54
313.15	60000	1043.73	0.53
318.15	60000	1039.44	0.53
323.15	60000	1035.18	0.53
328.15	60000	1030.89	0.52
333.15	60000	1026.67	0.52
338.15	60000	1022.44	0.52
283.15	65000	1072.32	0.57
288.15	65000	1068.01	0.56
293.15	65000	1063.7	0.56
298.15	65000	1059.43	0.55
303.15	65000	1055.16	0.55
308.15	65000	1050.91	0.54
313.15	65000	1046.69	0.54
318.15	65000	1042.45	0.53
323.15	65000	1038.24	0.53
328.15	65000	1034.03	0.53
333.15	65000	1029.88	0.52
338.15	65000	1025.7	0.52

System: 2,5-dimethylthiophene; phases: Liquid
Property: Mass density, kg/m3 (Liquid); method: Vibrating tube method
Temperature, K	Pressure, kPa	Mass density, kg/m3	uncertainty
283.15	100	995.51	0.5
288.15	100	990.41	0.5
293.15	100	985.3	0.5
298.15	100	980.2	0.5
303.15	100	975.1	0.5
308.15	100	970	0.5
313.15	100	964.84	0.5
318.15	100	959.75	0.5
323.15	100	954.64	0.5
328.15	100	949.46	0.5
333.15	100	944.28	0.5
338.15	100	939.09	0.5
283.15	2000	996.96	0.5
288.15	2000	991.9	0.5
293.15	2000	986.82	0.5
298.15	2000	981.78	0.5
303.15	2000	976.72	0.5
308.15	2000	971.66	0.5
313.15	2000	966.6	0.5
318.15	2000	961.52	0.5
323.15	2000	956.46	0.5
328.15	2000	951.34	0.5
333.15	2000	946.2	0.5
338.15	2000	941.08	0.5
283.15	5000	999.21	0.5
288.15	5000	994.21	0.5
293.15	5000	989.21	0.5
298.15	5000	984.2	0.5
303.15	5000	979.23	0.5
308.15	5000	974.22	0.5
313.15	5000	969.22	0.5
318.15	5000	964.24	0.5
323.15	5000	959.26	0.5
328.15	5000	954.21	0.5
333.15	5000	949.16	0.5
338.15	5000	944.14	0.5
283.15	7000	1000.68	0.5
288.15	7000	995.72	0.5
293.15	7000	990.74	0.5
298.15	7000	985.8	0.5
303.15	7000	980.88	0.5
308.15	7000	975.91	0.5
313.15	7000	970.97	0.5
318.15	7000	966	0.5
323.15	7000	961.09	0.5
328.15	7000	956.1	0.5
333.15	7000	951.09	0.5
338.15	7000	946.13	0.5
283.15	10000	1002.83	0.5
288.15	10000	997.94	0.5
293.15	10000	993.02	0.5
298.15	10000	988.14	0.5
303.15	10000	983.27	0.5
308.15	10000	978.38	0.5
313.15	10000	973.5	0.5
318.15	10000	968.6	0.5
323.15	10000	963.75	0.5
328.15	10000	958.85	0.5
333.15	10000	953.92	0.5
338.15	10000	949.02	0.5
283.15	15000	1006.35	0.5
288.15	15000	1001.53	0.5
293.15	15000	996.71	0.5
298.15	15000	991.93	0.5
303.15	15000	987.17	0.5
308.15	15000	982.36	0.5
313.15	15000	977.58	0.5
318.15	15000	972.8	0.5
323.15	15000	968.05	0.5
328.15	15000	963.27	0.5
333.15	15000	958.46	0.5
338.15	15000	953.67	0.51
283.15	20000	1009.74	0.5
288.15	20000	1005.01	0.5
293.15	20000	1000.28	0.5
298.15	20000	995.59	0.5
303.15	20000	990.9	0.5
308.15	20000	986.2	0.5
313.15	20000	981.52	0.5
318.15	20000	976.83	0.5
323.15	20000	972.19	0.5
328.15	20000	967.5	0.5
333.15	20000	962.79	0.51
338.15	20000	958.14	0.51
283.15	25000	1013.04	0.5
288.15	25000	1008.38	0.5
293.15	25000	1003.72	0.5
298.15	25000	999.13	0.5
303.15	25000	994.52	0.5
308.15	25000	989.91	0.5
313.15	25000	985.31	0.5
318.15	25000	980.72	0.5
323.15	25000	976.16	0.5
328.15	25000	971.57	0.5
333.15	25000	966.97	0.51
338.15	25000	962.41	0.51
283.15	30000	1016.24	0.5
288.15	30000	1011.66	0.5
293.15	30000	1007.07	0.5
298.15	30000	1002.53	0.5
303.15	30000	998.02	0.5
308.15	30000	993.47	0.5
313.15	30000	988.97	0.5
318.15	30000	984.44	0.5
323.15	30000	979.99	0.5
328.15	30000	975.49	0.5
333.15	30000	970.97	0.51
338.15	30000	966.51	0.51
283.15	35000	1019.33	0.5
288.15	35000	1014.81	0.5
293.15	35000	1010.31	0.5
298.15	35000	1005.84	0.5
303.15	35000	1001.4	0.5
308.15	35000	996.93	0.5
313.15	35000	992.49	0.5
318.15	35000	988.06	0.5
323.15	35000	983.67	0.5
328.15	35000	979.25	0.5
333.15	35000	974.83	0.51
338.15	35000	970.46	0.51
283.15	40000	1022.34	0.51
288.15	40000	1017.89	0.5
293.15	40000	1013.45	0.5
298.15	40000	1009.04	0.5
303.15	40000	1004.69	0.5
308.15	40000	1000.28	0.5
313.15	40000	995.92	0.5
318.15	40000	991.55	0.5
323.15	40000	987.24	0.5
328.15	40000	982.9	0.5
333.15	40000	978.55	0.5
338.15	40000	974.25	0.51
283.15	45000	1025.27	0.51
288.15	45000	1020.88	0.51
293.15	45000	1016.49	0.5
298.15	45000	1012.17	0.5
303.15	45000	1007.85	0.5
308.15	45000	1003.53	0.5
313.15	45000	999.23	0.5
318.15	45000	994.93	0.5
323.15	45000	990.69	0.5
328.15	45000	986.42	0.5
333.15	45000	982.15	0.5
338.15	45000	977.91	0.51
283.15	50000	1028.12	0.51
288.15	50000	1023.78	0.51
293.15	50000	1019.47	0.51
298.15	50000	1015.2	0.5
303.15	50000	1010.94	0.5
308.15	50000	1006.66	0.5
313.15	50000	1002.44	0.5
318.15	50000	998.2	0.5
323.15	50000	994.03	0.5
328.15	50000	989.84	0.5
333.15	50000	985.62	0.5
338.15	50000	981.46	0.51
283.15	55000	1030.9	0.51
288.15	55000	1026.62	0.51
293.15	55000	1022.35	0.51
298.15	55000	1018.14	0.51
303.15	55000	1013.93	0.5
308.15	55000	1009.75	0.5
313.15	55000	1005.56	0.5
318.15	55000	1001.39	0.5
323.15	55000	997.27	0.5
328.15	55000	993.13	0.5
333.15	55000	988.98	0.5
338.15	55000	984.88	0.5
283.15	60000	1033.6	0.51
288.15	60000	1029.38	0.51
293.15	60000	1025.15	0.51
298.15	60000	1021.01	0.51
303.15	60000	1016.85	0.51
308.15	60000	1012.72	0.5
313.15	60000	1008.58	0.5
318.15	60000	1004.46	0.5
323.15	60000	1000.41	0.5
328.15	60000	996.35	0.5
333.15	60000	992.25	0.5
338.15	60000	988.2	0.5
283.15	65000	1036.24	0.52
288.15	65000	1032.06	0.51
293.15	65000	1027.88	0.51
298.15	65000	1023.8	0.51
303.15	65000	1019.68	0.51
308.15	65000	1015.59	0.51
313.15	65000	1011.53	0.5
318.15	65000	1007.46	0.5
323.15	65000	1003.46	0.5
328.15	65000	999.44	0.5
333.15	65000	995.41	0.5
338.15	65000	991.43	0.5
