Measured thermophysical data. Influence of temperature and pressure on the density and speed of sound of 2-hydroxyethylammonium propionate ionic liquid
Source: J. Chem. Thermodyn., 2018, 10.1016/j.jct.2018.03.016
Compound 1: 2-hydroxyethan-1-aminium propionate, C5H13NO3, InChI=1S/C3H6O2.C2H7NO/c1-2-3(4)5;3-1-2-4/h2H2,1H3,(H,4,5);4H,1-3H2

System: 2-hydroxyethan-1-aminium propionate; phases: Liquid
Property: Mass density, kg/m3 (Liquid); method: Vibrating tube method
Pressure, kPa	Temperature, K	Mass density, kg/m3	uncertainty
100	298.16	1121.1	1.3
10000	298.08	1124.9	1.4
15000	298.11	1127.6	1.4
20000	298.15	1128.2	1.4
25000	298.15	1129.4	1.4
30000	298.1	1131.1	1.5
35000	298.13	1132.5	1.5
100	303.15	1116	1.3
10000	303.09	1121	1.4
15000	303.09	1121.8	1.4
20000	303.1	1123.3	1.4
25000	303.07	1124.9	1.4
30000	303.03	1126.3	1.5
35000	303.07	1127.2	1.5
100	313.14	1105.3	1.3
10000	313.17	1110.2	1.4
15000	313.16	1111.3	1.4
20000	313.18	1113.3	1.4
25000	313.19	1114.8	1.4
30000	313.18	1116.2	1.4
35000	313.17	1117.8	1.5
100	323.1	1093	1.3
10000	323.09	1098.3	1.3
15000	323.14	1099.7	1.4
20000	323.14	1102	1.4
25000	323.1	1103.9	1.4
30000	323.12	1105.5	1.4
35000	323.14	1107.3	1.4
100	333.12	1079.6	1.3
10000	333.09	1084.9	1.3
15000	333.09	1087.4	1.3
20000	333.1	1089.7	1.3
25000	333.09	1091.8	1.4
30000	333.09	1093.9	1.4
35000	333.08	1096.1	1.4
100	343.17	1066	1.3
10000	343.19	1070.6	1.3
15000	343.18	1074.3	1.3
20000	343.17	1076.6	1.3
25000	343.17	1079	1.3
30000	343.17	1081.8	1.4
35000	343.18	1084.1	1.4

System: 2-hydroxyethan-1-aminium propionate; phases: Liquid
Fixed: Frequency, MHz = 5
Property: Speed of sound, m/s (Liquid); method: Single path-length method
Pressure, kPa	Temperature, K	Speed of sound, m/s	uncertainty
100	303.15	1554.7	3.8
1000	303.15	1558.7	3.8
2000	303.15	1562.7	3.8
3000	303.15	1566.7	3.8
4000	303.15	1570.7	3.8
5000	303.15	1574.7	3.8
6000	303.15	1578.8	3.8
7000	303.15	1582.9	3.8
8000	303.15	1587	3.8
9000	303.15	1591.1	3.8
10000	303.15	1595.2	3.8
11000	303.15	1599.4	3.8
12000	303.15	1602.1	3.8
13000	303.15	1606.3	3.8
14000	303.15	1610.5	3.8
15000	303.15	1613.3	3.8
16000	303.15	1617.6	3.8
17000	303.15	1620.4	3.8
18000	303.15	1624.6	3.8
19000	303.15	1628.9	3.8
20000	303.15	1633.2	3.8
100	313.15	1526.8	3.8
1000	313.15	1531.9	3.8
2000	313.15	1535.7	3.8
3000	313.15	1539.5	3.8
4000	313.15	1542.1	3.8
5000	313.15	1546	3.8
6000	313.15	1549.9	3.8
7000	313.15	1553.8	3.8
8000	313.15	1557.8	3.8
9000	313.15	1561.7	3.8
10000	313.15	1565.7	3.8
11000	313.15	1569.7	3.8
12000	313.15	1573.7	3.8
13000	313.15	1577.7	3.8
14000	313.15	1581.7	3.8
15000	313.15	1585.8	3.8
16000	313.15	1589.9	3.8
17000	313.15	1594	3.8
18000	313.15	1598.1	3.8
19000	313.15	1602.2	3.8
20000	313.15	1606.4	3.8
100	323.15	1506.1	3.8
1000	323.15	1509.8	3.8
2000	323.15	1513.6	3.8
3000	323.15	1517.3	3.8
4000	323.15	1521.1	3.8
5000	323.15	1524.9	3.8
6000	323.15	1528.7	3.8
7000	323.15	1533.8	3.8
8000	323.15	1537.6	3.8
9000	323.15	1541.5	3.8
10000	323.15	1545.4	3.8
11000	323.15	1549.2	3.8
12000	323.15	1553.2	3.8
13000	323.15	1558.4	3.8
14000	323.15	1562.3	3.8
15000	323.15	1566.3	3.8
16000	323.15	1568.9	3.8
17000	323.15	1572.9	3.8
18000	323.15	1576.9	3.8
19000	323.15	1581	3.8
20000	323.15	1585	3.8
100	333.15	1474.9	3.8
1000	333.15	1479.7	3.8
2000	333.15	1484.6	3.8
3000	333.15	1488.3	3.8
4000	333.15	1493.2	3.8
5000	333.15	1497	3.8
6000	333.15	1501.9	3.8
7000	333.15	1505.7	3.8
8000	333.15	1509.5	3.8
9000	333.15	1514.5	3.8
10000	333.15	1518.3	3.8
11000	333.15	1523.3	3.8
12000	333.15	1527.2	3.8
13000	333.15	1531	3.8
14000	333.15	1534.9	3.8
15000	333.15	1540	3.8
16000	333.15	1543.8	3.8
17000	333.15	1547.7	3.8
18000	333.15	1551.6	3.8
19000	333.15	1555.5	3.8
20000	333.15	1559.5	3.8
100	343.15	1449.3	3.8
1000	343.15	1453	3.8
2000	343.15	1456.8	3.8
3000	343.15	1461.8	3.8
4000	343.15	1466.7	3.8
5000	343.15	1471.7	3.8
6000	343.15	1475.5	3.8
7000	343.15	1480.5	3.8
8000	343.15	1485.5	3.8
9000	343.15	1489.3	3.8
10000	343.15	1494.3	3.8
11000	343.15	1499.4	3.8
12000	343.15	1503.2	3.8
13000	343.15	1508.2	3.8
14000	343.15	1513.3	3.8
15000	343.15	1517.2	3.8
16000	343.15	1522.2	3.8
17000	343.15	1526.1	3.8
18000	343.15	1530	3.8
19000	343.15	1533.8	3.8
20000	343.15	1537.7	3.8
100	353.15	1416	3.8
1000	353.15	1421	3.8
2000	353.15	1426.1	3.8
3000	353.15	1431.2	3.8
4000	353.15	1436.3	3.8
5000	353.15	1441.4	3.8
6000	353.15	1446.5	3.8
7000	353.15	1451.7	3.8
8000	353.15	1456.8	3.8
9000	353.15	1463.1	3.8
10000	353.15	1467	3.8
11000	353.15	1473.3	3.8
12000	353.15	1478.4	3.8
13000	353.15	1482.4	3.8
14000	353.15	1487.5	3.8
15000	353.15	1492.6	3.8
16000	353.15	1496.5	3.8
17000	353.15	1500.4	3.8
18000	353.15	1504.4	3.8
19000	353.15	1509.5	3.8
20000	353.15	1513.3	3.8
