Measured thermophysical data. Temperature dependence of the heat capacities in the solid state of 18 mono-, di-, and poly-saccharides
Source: J. Chem. Thermodyn., 2009, 10.1016/j.jct.2008.08.007
Compound 1: xylopyranose, .alpha.-D-, C5H10O5, InChI=1S/C5H10O5/c6-2-1-10-5(9)4(8)3(2)7/h2-9H,1H2/t2-,3+,4-,5+/m1/s1, purity 99%
Compound 2: D-ribose, C5H10O5, InChI=1S/C5H10O5/c6-1-3(8)5(10)4(9)2-7/h1,3-5,7-10H,2H2/t3-,4+,5-/m0/s1, purity 98%
Compound 3: 2-deoxy-D-erythropentose, C5H10O4, InChI=1S/C5H10O4/c6-2-1-4(8)5(9)3-7/h2,4-5,7-9H,1,3H2/t4-,5+/m0/s1, purity 97%
Compound 4: .alpha.,.beta.-methyl-2-deoxy-D-ribofuranoside, C6H12O4, InChI=1S/C6H12O4/c1-9-6-2-4(8)5(3-7)10-6/h4-8H,2-3H2,1H3/t4-,5+,6?/m0/s1, purity 99%
Compound 5: .alpha.-D-glucose, C6H12O6, InChI=1S/C6H12O6/c7-1-2-3(8)4(9)5(10)6(11)12-2/h2-11H,1H2/t2-,3-,4+,5-,6+/m1/s1, purity 99%
Compound 6: 2-deoxy-D-glucose, C6H12O5, InChI=1S/C6H12O5/c7-2-4-6(10)3(8)1-5(9)11-4/h3-10H,1-2H2/t3-,4-,5?,6+/m1/s1, purity 99%
Compound 7: D-mannose, C6H12O6, InChI=1S/C6H12O6/c7-1-3(9)5(11)6(12)4(10)2-8/h1,3-6,8-12H,2H2/t3-,4-,5-,6-/m1/s1, purity 99%
Compound 8: D-fructose, C6H12O6, InChI=1S/C6H12O6/c7-1-3(9)5(11)6(12)4(10)2-8/h3,5-9,11-12H,1-2H2/t3-,5-,6-/m1/s1, purity 99%
Compound 9: (+)-galactose, C6H12O6, InChI=1S/C6H12O6/c7-1-3(9)5(11)6(12)4(10)2-8/h1,3-6,8-12H,2H2/t3-,4+,5+,6-/m0/s1, purity 98%
Compound 10: methyl-.alpha.-D-glucopyranoside, C7H14O6, InChI=1S/C7H14O6/c1-12-7-6(11)5(10)4(9)3(2-8)13-7/h3-11H,2H2,1H3/t3-,4-,5+,6-,7+/m1/s1, purity 99%
Compound 11: D-sucrose, C12H22O11, InChI=1S/C12H22O11/c13-1-4-6(16)8(18)9(19)11(21-4)23-12(3-15)10(20)7(17)5(2-14)22-12/h4-11,13-20H,1-3H2/t4-,5-,6-,7-,8+,9-,10+,11-,12+/m1/s1, purity 99%
Compound 12: D-maltose, C12H22O11, InChI=1S/C12H22O11/c13-1-3-5(15)6(16)9(19)12(22-3)23-10-4(2-14)21-11(20)8(18)7(10)17/h3-20H,1-2H2/t3-,4-,5-,6+,7-,8-,9-,10-,11?,12-/m1/s1, purity 99%
Compound 13: .alpha.-D-lactose hydrate, C12H24O12, InChI=1S/C12H22O11.H2O/c13-1-3-5(15)6(16)9(19)12(22-3)23-10-4(2-14)21-11(20)8(18)7(10)17;/h3-20H,1-2H2;1H2/t3-,4-,5+,6+,7-,8-,9-,10-,11+,12+;/m1./s1, purity 99%
Compound 14: D-cellobiose, C12H22O11, InChI=1S/C12H22O11/c13-1-3-5(15)6(16)9(19)12(22-3)23-10-4(2-14)21-11(20)8(18)7(10)17/h3-20H,1-2H2/t3-,4-,5-,6+,7-,8-,9-,10-,11-,12+/m1/s1, purity 99%
Compound 15: maltotriose, C18H32O16, InChI=1S/C18H32O16/c19-1-5(23)9(25)15(6(24)2-20)33-18-14(30)12(28)16(8(4-22)32-18)34-17-13(29)11(27)10(26)7(3-21)31-17/h1,5-18,20-30H,2-4H2/t5-,6+,7+,8+,9+,10+,11-,12+,13+,14+,15+,16+,17+,18+/m0/s1, purity 95%
Compound 16: N-acetyl-D-glucosamine, C8H15NO6, InChI=1S/C8H15NO6/c1-4(12)9-5(2-10)7(14)8(15)6(13)3-11/h2,5-8,11,13-15H,3H2,1H3,(H,9,12)/t5-,6+,7+,8+/m0/s1, purity 99%
Compound 17: .alpha.-cyclodextrin, C36H60O30, InChI=1S/C36H60O30/c37-1-7-25-13(43)19(49)31(55-7)62-26-8(2-38)57-33(21(51)15(26)45)64-28-10(4-40)59-35(23(53)17(28)47)66-30-12(6-42)60-36(24(54)18(30)48)65-29-11(5-41)58-34(22(52)16(29)46)63-27-9(3-39)56-32(61-25)20(50)14(27)44/h7-54H,1-6H2/t7-,8-,9-,10-,11-,12-,13-,14-,15-,16-,17-,18-,19-,20-,21-,22-,23-,24-,25-,26-,27-,28-,29-,30-,31-,32-,33-,34-,35-,36-/m1/s1, purity 98%
Compound 18: .beta.-cyclodextrin, C42H70O35, InChI=1S/C42H70O35/c43-1-8-29-15(50)22(57)36(64-8)72-30-9(2-44)66-38(24(59)17(30)52)74-32-11(4-46)68-40(26(61)19(32)54)76-34-13(6-48)70-42(28(63)21(34)56)77-35-14(7-49)69-41(27(62)20(35)55)75-33-12(5-47)67-39(25(60)18(33)53)73-31-10(3-45)65-37(71-29)23(58)16(31)51/h8-63H,1-7H2/t8-,9-,10-,11-,12-,13-,14-,15-,16-,17-,18-,19-,20-,21-,22-,23-,24-,25-,26-,27-,28-,29-,30-,31-,32-,33-,34-,35-,36-,37-,38-,39-,40-,41-,42-/m1/s1, purity 98%

System: xylopyranose, .alpha.-D-; phases: Crystal
Fixed: Pressure, kPa = 101.325
Property: Molar heat capacity at constant pressure, J/K/mol (Crystal); method: Vacuum adiabatic calorimetry
Temperature, K	Molar heat capacity at constant pressure, J/K/mol	uncertainty
288.15	178.3	6
293.15	180.9	6.2
298.15	180.4	6.2
303.15	182.8	7
308.15	185.7	5.4
313.15	185.8	5.2
318.15	187.3	6.4
323.15	190.4	6.8
328.15	192	6.6
333.15	192.6	6.8
338.15	195.7	5.8
343.15	200	5
348.15	204.6	5.4
353.15	209.4	4.8
358.15	213.8	5

System: D-ribose; phases: Crystal
Fixed: Pressure, kPa = 101.325
Property: Molar heat capacity at constant pressure, J/K/mol (Crystal); method: Small sample (50 mg) DSC
Temperature, K	Molar heat capacity at constant pressure, J/K/mol	uncertainty
288.15	171.3	4.2
293.15	179.4	3.5
298.15	183.2	3.7
303.15	188.8	3.9
308.15	193.9	3.8
313.15	201.3	4
318.15	209	3.9
323.15	224.6	4.2
328.15	245.1	4.3

System: 2-deoxy-D-erythropentose; phases: Crystal
Fixed: Pressure, kPa = 101.325
Property: Molar heat capacity at constant pressure, J/K/mol (Crystal); method: Small sample (50 mg) DSC
Temperature, K	Molar heat capacity at constant pressure, J/K/mol	uncertainty
288.15	171.9	4.5
293.15	167.6	3.4
298.15	162	3.2
303.15	163.6	3.9
308.15	171.7	3.7
313.15	178.4	3.6
318.15	184.1	4.8
323.15	197.4	3.7
328.15	222	4.6

System: .alpha.,.beta.-methyl-2-deoxy-D-ribofuranoside; phases: Crystal
Fixed: Pressure, kPa = 101.325
Property: Molar heat capacity at constant pressure, J/K/mol (Crystal); method: Small sample (50 mg) DSC
Temperature, K	Molar heat capacity at constant pressure, J/K/mol	uncertainty
288.15	180.3	3.8
293.15	189.8	3.9
298.15	197.5	4.2
303.15	200.7	4.1
308.15	204.1	4.2
313.15	208.8	4.4
318.15	213.8	4
323.15	223.4	4.1
328.15	237.9	4.6

System: .alpha.-D-glucose; phases: Crystal
Fixed: Pressure, kPa = 101.325
Property: Molar heat capacity at constant pressure, J/K/mol (Crystal); method: Small sample (50 mg) DSC
Temperature, K	Molar heat capacity at constant pressure, J/K/mol	uncertainty
288.15	210.2	6.5
293.15	214.8	5.3
298.15	219.9	6.1
303.15	222.8	5.3
308.15	226.5	5.8
313.15	232.6	6.3
318.15	235.8	6.3
323.15	240.5	6.7
328.15	242.1	6.4
333.15	246.2	6.8
338.15	250.5	6.1
343.15	255.2	6.2
348.15	260.4	5.7
353.15	262.4	5.9
358.15	267.7	5.7

System: 2-deoxy-D-glucose; phases: Crystal
Fixed: Pressure, kPa = 101.325
Property: Molar heat capacity at constant pressure, J/K/mol (Crystal); method: Small sample (50 mg) DSC
Temperature, K	Molar heat capacity at constant pressure, J/K/mol	uncertainty
288.15	189.6	6
293.15	195.8	6.4
298.15	200.2	5.9
303.15	201	5.9
308.15	204.5	6
313.15	206.9	6.1
318.15	209	5.6
323.15	213.6	5.2
328.15	214.7	5.3
333.15	218.4	5.5
338.15	224.9	5.4
343.15	226.4	4
348.15	233	3.9
353.15	235.4	4.2
358.15	244	4.3

System: D-mannose; phases: Crystal
Fixed: Pressure, kPa = 101.325
Property: Molar heat capacity at constant pressure, J/K/mol (Crystal); method: Small sample (50 mg) DSC
Temperature, K	Molar heat capacity at constant pressure, J/K/mol	uncertainty
288.15	188.7	6.2
293.15	200.7	6.1
298.15	206.6	6.1
303.15	215	5.5
308.15	223.3	6.8
313.15	228.2	5.6
318.15	231.6	5.6
323.15	234.5	5.7
328.15	236.5	6.7
333.15	242.1	5.3
338.15	245.2	5.4
343.15	249	5.6
348.15	252.4	6.3
353.15	254.1	6.3
358.15	260.2	7

System: D-fructose; phases: Crystal
Fixed: Pressure, kPa = 101.325
Property: Molar heat capacity at constant pressure, J/K/mol (Crystal); method: Small sample (50 mg) DSC
Temperature, K	Molar heat capacity at constant pressure, J/K/mol	uncertainty
288.15	220.3	7.5
293.15	223.6	7.5
298.15	227.7	8.4
303.15	233.3	7.2
308.15	236.9	7.6
313.15	242.4	7.6
318.15	247.3	7.8
323.15	251.5	8
328.15	251.8	7.9
333.15	255.1	8.6
338.15	259.6	7.9
343.15	260.9	7.6
348.15	266.4	8.1
353.15	275.3	8.7
358.15	290.4	7.9

System: (+)-galactose; phases: Crystal
Fixed: Pressure, kPa = 101.325
Property: Molar heat capacity at constant pressure, J/K/mol (Crystal); method: Small sample (50 mg) DSC
Temperature, K	Molar heat capacity at constant pressure, J/K/mol	uncertainty
288.15	203.3	3.5
293.15	210.7	3.6
298.15	213.7	4.9
303.15	217.5	3.8
308.15	222.3	4.8
313.15	227.1	4.5
318.15	229.4	3.9
323.15	235.6	5.1
328.15	236.8	4.6
333.15	242.8	4.4
338.15	247	4
343.15	251.2	4.8
348.15	254.7	4.6
353.15	257.5	4.3
358.15	265.1	4.8

System: methyl-.alpha.-D-glucopyranoside; phases: Crystal
Fixed: Pressure, kPa = 101.325
Property: Molar heat capacity at constant pressure, J/K/mol (Crystal); method: Small sample (50 mg) DSC
Temperature, K	Molar heat capacity at constant pressure, J/K/mol	uncertainty
288.15	232.1	4.3
293.15	231	4.3
298.15	233.7	4.5
303.15	235.7	4.6
308.15	240.7	4.8
313.15	247.5	4.9
318.15	255.9	5
323.15	264.7	5.3
328.15	274.2	5.6
333.15	283.6	5
338.15	293.4	5.6
343.15	302.9	5.1
348.15	311.5	5.2
353.15	319	5.2
358.15	325.5	5.4

System: D-sucrose; phases: Crystal
Fixed: Pressure, kPa = 101.325
Property: Molar heat capacity at constant pressure, J/K/mol (Crystal); method: Small sample (50 mg) DSC
Temperature, K	Molar heat capacity at constant pressure, J/K/mol	uncertainty
288.15	408.5	7.6
293.15	416.6	6.9
298.15	424.3	7
303.15	429.4	7.7
308.15	437.5	8.2
313.15	445.5	8.2
318.15	451	8
323.15	466.2	8
328.15	472.6	8
333.15	482.5	8.5
338.15	490.3	8.1
343.15	498.8	7.8
348.15	506.7	7.9
353.15	513.9	8.2
358.15	522	8.1

System: D-maltose; phases: Crystal
Fixed: Pressure, kPa = 101.325
Property: Molar heat capacity at constant pressure, J/K/mol (Crystal); method: Small sample (50 mg) DSC
Temperature, K	Molar heat capacity at constant pressure, J/K/mol	uncertainty
288.15	394.8	8.8
293.15	424.9	9.2
298.15	436.1	8.7
303.15	442.6	9.2
308.15	452	9.3
313.15	460.4	10.2
318.15	470.9	10.1
323.15	485.3	9.8
328.15	494.8	9.9
333.15	503.8	9.4
338.15	515	10.5
343.15	528.1	10.7
348.15	542.2	10.8
353.15	558.5	10.2
358.15	585.6	11.4

System: .alpha.-D-lactose hydrate; phases: Crystal
Fixed: Pressure, kPa = 101.325
Property: Molar heat capacity at constant pressure, J/K/mol (Crystal); method: Small sample (50 mg) DSC
Temperature, K	Molar heat capacity at constant pressure, J/K/mol	uncertainty
288.15	400.9	9
293.15	426.9	9.9
298.15	435.8	9.8
303.15	440.7	9.8
308.15	446.4	9
313.15	450	9.2
318.15	452.2	9.2
323.15	459.8	9.1
328.15	464.5	9
333.15	468.3	8.9
338.15	477.1	9.2
343.15	488.2	10
348.15	497.7	9.9
353.15	506.8	10.2
358.15	522.7	10.3

System: D-cellobiose; phases: Crystal
Fixed: Pressure, kPa = 101.325
Property: Molar heat capacity at constant pressure, J/K/mol (Crystal); method: Small sample (50 mg) DSC
Temperature, K	Molar heat capacity at constant pressure, J/K/mol	uncertainty
288.15	407.8	7.4
293.15	431	7.6
298.15	436.1	8.5
303.15	445	8.3
308.15	443.1	7.8
313.15	446.9	8.6
318.15	448.7	7.8
323.15	463.2	8.5
328.15	463.5	7.8
333.15	473.1	7.9
338.15	481.1	8.8
343.15	490.7	8.4
348.15	503.2	8.5
353.15	515.8	8.8
358.15	534.8	9

System: maltotriose; phases: Crystal
Fixed: Pressure, kPa = 101.325
Property: Molar heat capacity at constant pressure, J/K/mol (Crystal); method: Small sample (50 mg) DSC
Temperature, K	Molar heat capacity at constant pressure, J/K/mol	uncertainty
288.15	638.3	10
293.15	654	10.2
298.15	662.5	10.4
303.15	662.7	10.7
308.15	666.3	11.1
313.15	676.9	11.5
318.15	683.9	12.2
323.15	698.2	11.6
328.15	707.4	12.3
333.15	718.6	12.9
338.15	736.3	12.4
343.15	753.8	13.1
348.15	773.2	13.1
353.15	787.3	12.7
358.15	823.7	13.6

System: N-acetyl-D-glucosamine; phases: Crystal
Fixed: Pressure, kPa = 101.325
Property: Molar heat capacity at constant pressure, J/K/mol (Crystal); method: Small sample (50 mg) DSC
Temperature, K	Molar heat capacity at constant pressure, J/K/mol	uncertainty
288.15	269.8	5.8
293.15	276.4	5.7
298.15	276.9	6
303.15	278	6.7
308.15	283.3	6.4
313.15	281	7
318.15	281.4	7.2
323.15	292.7	7.3
328.15	293.1	7
333.15	299.4	6.9
338.15	303.8	6.9
343.15	308.7	6.8
348.15	319.7	6.6
353.15	325.2	6.5
358.15	332	6.4

System: .alpha.-cyclodextrin; phases: Crystal
Fixed: Pressure, kPa = 101.325
Property: Molar heat capacity at constant pressure, J/K/mol (Crystal); method: Small sample (50 mg) DSC
Temperature, K	Molar heat capacity at constant pressure, J/K/mol	uncertainty
288.15	1074.6	25.6
293.15	1113.2	30.6
298.15	1150	31.9
303.15	1164.1	35.6
308.15	1201.5	51.7
313.15	1212.6	50
318.15	1230.2	51.6
323.15	1259.3	50.6
328.15	1282.6	47
333.15	1305.3	30.6
338.15	1335.3	41.9
343.15	1364.6	30.3
348.15	1401.6	44.8
353.15	1442.6	43.1
358.15	1502.7	37.1

System: .beta.-cyclodextrin; phases: Crystal
Fixed: Pressure, kPa = 101.325
Property: Molar heat capacity at constant pressure, J/K/mol (Crystal); method: Small sample (50 mg) DSC
Temperature, K	Molar heat capacity at constant pressure, J/K/mol	uncertainty
288.15	1253.4	34.2
293.15	1298.3	41.5
298.15	1341.3	42.5
303.15	1357.6	46.4
308.15	1401.3	45.4
313.15	1414.1	47.2
318.15	1434.7	45.4
323.15	1468.5	44.7
328.15	1495.7	41.2
333.15	1522.1	42.8
338.15	1557.1	52.6
343.15	1591.3	43.3
348.15	1634.4	40.5
353.15	1682.1	39.4
358.15	1752.1	43.9
