Measured thermophysical data. Thermodynamic properties of ternary mixture {[C4mim][SCN] + acetic or propionic acid + acetonitrile} over the temperature range of (293.15-313.15) K
Source: J. Chem. Thermodyn., 2019, 10.1016/j.jct.2019.07.002
Compound 1: 1-butyl-3-methylimidazolium thiocyanate, C9H15N3S, InChI=1S/C8H15N2.CHNS/c1-3-4-5-10-7-6-9(2)8-10;2-1-3/h6-8H,3-5H2,1-2H3;3H/q+1;/p-1, purity 99%
Compound 2: acetic acid, C2H4O2, InChI=1S/C2H4O2/c1-2(3)4/h1H3,(H,3,4), purity 99%
Compound 3: acetonitrile, C2H3N, InChI=1S/C2H3N/c1-2-3/h1H3, purity 99%
Compound 4: propanoic acid, C3H6O2, InChI=1S/C3H6O2/c1-2-3(4)5/h2H2,1H3,(H,4,5), purity 99.5%

System: 1-butyl-3-methylimidazolium thiocyanate + acetic acid + acetonitrile; phases: Liquid
Fixed: Pressure, kPa = 100
Property: Mass density, kg/m3 (Liquid); method: Vibrating tube method
Temperature, K	Mole fraction of 1-butyl-3-methylimidazolium thiocyanate	Mole fraction of acetic acid	Mass density, kg/m3	uncertainty
293.15	0.0807	0.5208	983.6	1
293.15	0.1318	0.2153	942.1	1
293.15	0.1947	0.3792	1000.6	0.9
293.15	0.2444	0.2184	988.9	0.9
293.15	0.2659	0.1458	984.3	0.9
293.15	0.1237	0.7741	1052.5	1
293.15	0.2666	0.5138	1041.1	0.9
293.15	0.3581	0.347	1035.5	0.9
293.15	0.4065	0.257	1032.8	0.9
293.15	0.4466	0.1862	1031.5	0.9
293.15	0.5	0.088	1029.4	0.9
293.15	0.387	0.507	1060.7	0.9
293.15	0.5223	0.335	1059	0.9
293.15	0.6059	0.2284	1058.1	0.9
293.15	0.6946	0.1142	1055.3	0.9
293.15	0.7494	0.0466	1055.8	0.9
293.15	0.9024	0.0516	1069.8	0.9
293.15	0.643	0.3229	1070.5	0.9
293.15	0.533	0.4394	1071.1	0.9
293.15	0.8329	0.1208	1070.1	0.9
293.15	0.7615	0.1969	1070.1	0.9
293.15	0.3907	0.5872	1071.4	1
298.15	0.0807	0.5208	979	1
298.15	0.1318	0.2153	937.8	1
298.15	0.1947	0.3792	996.6	0.9
298.15	0.2444	0.2184	985.1	0.9
298.15	0.2659	0.1458	980.5	0.9
298.15	0.1237	0.7741	1048.1	1
298.15	0.2666	0.5138	1037.2	0.9
298.15	0.3581	0.347	1031.9	0.9
298.15	0.4065	0.257	1029.3	0.9
298.15	0.4466	0.1862	1028	0.9
298.15	0.5	0.088	1026	0.9
298.15	0.387	0.507	1057.2	0.9
298.15	0.5223	0.335	1055.7	0.9
298.15	0.6059	0.2284	1054.8	0.9
298.15	0.6946	0.1142	1052.2	0.9
298.15	0.7494	0.0466	1052.6	0.9
298.15	0.9024	0.0516	1066.8	0.9
298.15	0.643	0.3229	1067.3	0.9
298.15	0.533	0.4394	1067.8	0.9
298.15	0.8329	0.1208	1067	0.9
298.15	0.7615	0.1969	1067	0.9
298.15	0.3907	0.5872	1067.8	1
303.15	0.0807	0.5208	974.3	1
303.15	0.1318	0.2153	933.5	1
303.15	0.1947	0.3792	992.5	0.9
303.15	0.2444	0.2184	981.2	0.9
303.15	0.2659	0.1458	976.7	0.9
303.15	0.1237	0.7741	1043.7	1
303.15	0.2666	0.5138	1033.4	0.9
303.15	0.3581	0.347	1028.3	0.9
303.15	0.4065	0.257	1025.7	0.9
303.15	0.4466	0.1862	1024.6	0.9
303.15	0.5	0.088	1022.6	0.9
303.15	0.387	0.507	1053.6	0.9
303.15	0.5223	0.335	1052.3	0.9
303.15	0.6059	0.2284	1051.6	0.9
303.15	0.6946	0.1142	1048.9	0.9
303.15	0.7494	0.0466	1049.5	0.9
303.15	0.9024	0.0516	1063.7	0.9
303.15	0.643	0.3229	1064	0.9
303.15	0.533	0.4394	1064.4	0.9
303.15	0.8329	0.1208	1063.9	0.9
303.15	0.7615	0.1969	1063.8	0.9
303.15	0.3907	0.5872	1064.2	1
308.15	0.0807	0.5208	969.7	1
308.15	0.1318	0.2153	929.1	1
308.15	0.1947	0.3792	988.5	0.9
308.15	0.2444	0.2184	977.3	0.9
308.15	0.2659	0.1458	972.9	0.9
308.15	0.1237	0.7741	1039.4	1
308.15	0.2666	0.5138	1029.6	0.9
308.15	0.3581	0.347	1024.7	0.9
308.15	0.4065	0.257	1022.3	0.9
308.15	0.4466	0.1862	1021.2	0.9
308.15	0.5	0.088	1019.3	0.9
308.15	0.387	0.507	1050.1	0.9
308.15	0.5223	0.335	1049	0.9
308.15	0.6059	0.2284	1048.4	0.9
308.15	0.6946	0.1142	1045.8	0.9
308.15	0.7494	0.0466	1046.4	0.9
308.15	0.9024	0.0516	1060.7	0.9
308.15	0.643	0.3229	1060.8	0.9
308.15	0.533	0.4394	1061.1	0.9
308.15	0.8329	0.1208	1060.9	0.9
308.15	0.7615	0.1969	1060.7	0.9
308.15	0.3907	0.5872	1059.8	1
313.15	0.0807	0.5208	965	1
313.15	0.1318	0.2153	924.8	1
313.15	0.1947	0.3792	984.4	0.9
313.15	0.2444	0.2184	973.5	0.9
313.15	0.2659	0.1458	969.1	0.9
313.15	0.1237	0.7741	1035	1
313.15	0.2666	0.5138	1025.8	1
313.15	0.3581	0.347	1021.2	0.9
313.15	0.4065	0.257	1018.8	0.9
313.15	0.4466	0.1862	1017.7	0.9
313.15	0.5	0.088	1015.9	0.9
313.15	0.387	0.507	1046.5	0.9
313.15	0.5223	0.335	1045.7	0.9
313.15	0.6059	0.2284	1045.1	0.9
313.15	0.6946	0.1142	1042.6	0.9
313.15	0.7494	0.0466	1043.3	0.9
313.15	0.9024	0.0516	1057.7	0.9
313.15	0.643	0.3229	1057.6	0.9
313.15	0.533	0.4394	1057.8	0.9
313.15	0.8329	0.1208	1057.8	0.9
313.15	0.7615	0.1969	1057.6	0.9
313.15	0.3907	0.5872	1055.6	1

System: 1-butyl-3-methylimidazolium thiocyanate + acetic acid + acetonitrile; phases: Liquid
Fixed: Pressure, kPa = 100
Fixed: Frequency, MHz = 3
Property: Speed of sound, m/s (Liquid); method: Single path-length method
Temperature, K	Mole fraction of 1-butyl-3-methylimidazolium thiocyanate	Mole fraction of acetic acid	Speed of sound, m/s	uncertainty
293.15	0.0807	0.5208	1370.6	1.5
293.15	0.1318	0.2153	1443.1	1.4
293.15	0.1947	0.3792	1495	1.4
293.15	0.2444	0.2184	1536.6	1.4
293.15	0.2659	0.1458	1554.7	1.4
293.15	0.1237	0.7741	1406.3	1.4
293.15	0.2666	0.5138	1541	1.4
293.15	0.3581	0.347	1598.1	1.4
293.15	0.4065	0.257	1624.3	1.4
293.15	0.4466	0.1862	1644.7	1.4
293.15	0.5	0.088	1670.2	1.4
293.15	0.387	0.507	1604.8	1.4
293.15	0.5223	0.335	1664.6	1.4
293.15	0.6059	0.2284	1694.2	1.4
293.15	0.6946	0.1142	1715	1.4
293.15	0.7494	0.0466	1733.3	1.3
293.15	0.9024	0.0516	1756.2	1.3
293.15	0.643	0.3229	1684.8	1.4
293.15	0.533	0.4394	1658.6	1.4
293.15	0.8329	0.1208	1748.2	1.4
293.15	0.7615	0.1969	1729.5	1.4
293.15	0.3907	0.5872	1604	1.4
298.15	0.0807	0.5208	1354.3	1.5
298.15	0.1318	0.2153	1426.9	1.4
298.15	0.1947	0.3792	1480.1	1.4
298.15	0.2444	0.2184	1521.7	1.4
298.15	0.2659	0.1458	1540	1.4
298.15	0.1237	0.7741	1390.8	1.4
298.15	0.2666	0.5138	1526.9	1.4
298.15	0.3581	0.347	1584.4	1.4
298.15	0.4065	0.257	1610.8	1.4
298.15	0.4466	0.1862	1631.3	1.4
298.15	0.5	0.088	1656.9	1.4
298.15	0.387	0.507	1591.6	1.4
298.15	0.5223	0.335	1651.8	1.4
298.15	0.6059	0.2284	1681.6	1.4
298.15	0.6946	0.1142	1702.5	1.4
298.15	0.7494	0.0466	1721	1.3
298.15	0.9024	0.0516	1744.3	1.3
298.15	0.643	0.3229	1672.2	1.4
298.15	0.533	0.4394	1645.7	1.4
298.15	0.8329	0.1208	1736.1	1.4
298.15	0.7615	0.1969	1717.4	1.4
298.15	0.3907	0.5872	1591	1.4
303.15	0.0807	0.5208	1337.8	1.5
303.15	0.1318	0.2153	1410.4	1.4
303.15	0.1947	0.3792	1464.8	1.4
303.15	0.2444	0.2184	1506.7	1.4
303.15	0.2659	0.1458	1524.9	1.4
303.15	0.1237	0.7741	1375.2	1.4
303.15	0.2666	0.5138	1512.6	1.4
303.15	0.3581	0.347	1570.6	1.4
303.15	0.4065	0.257	1597.1	1.4
303.15	0.4466	0.1862	1617.6	1.4
303.15	0.5	0.088	1643.4	1.4
303.15	0.387	0.507	1578.3	1.4
303.15	0.5223	0.335	1638.9	1.4
303.15	0.6059	0.2284	1668.8	1.4
303.15	0.6946	0.1142	1689.8	1.4
303.15	0.7494	0.0466	1708.5	1.3
303.15	0.9024	0.0516	1732.3	1.3
303.15	0.643	0.3229	1659.6	1.4
303.15	0.533	0.4394	1633.2	1.4
303.15	0.8329	0.1208	1724	1.4
303.15	0.7615	0.1969	1705.1	1.4
303.15	0.3907	0.5872	1573.7	1.4
308.15	0.0807	0.5208	1321.4	1.5
308.15	0.1318	0.2153	1394	1.4
308.15	0.1947	0.3792	1449.6	1.4
308.15	0.2444	0.2184	1491.6	1.4
308.15	0.2659	0.1458	1509.9	1.4
308.15	0.1237	0.7741	1359.7	1.4
308.15	0.2666	0.5138	1498.4	1.4
308.15	0.3581	0.347	1556.8	1.4
308.15	0.4065	0.257	1583.4	1.4
308.15	0.4466	0.1862	1604	1.4
308.15	0.5	0.088	1629.9	1.4
308.15	0.387	0.507	1564.9	1.4
308.15	0.5223	0.335	1626.1	1.4
308.15	0.6059	0.2284	1656	1.4
308.15	0.6946	0.1142	1677.2	1.4
308.15	0.7494	0.0466	1696	1.4
308.15	0.9024	0.0516	1720.3	1.3
308.15	0.643	0.3229	1647.4	1.4
308.15	0.533	0.4394	1620.5	1.4
308.15	0.8329	0.1208	1711.9	1.4
308.15	0.7615	0.1969	1692.9	1.4
308.15	0.3907	0.5872	1553.4	1.4
313.15	0.0807	0.5208	1304.9	1.5
313.15	0.1318	0.2153	1377.6	1.4
313.15	0.1947	0.3792	1434.4	1.4
313.15	0.2444	0.2184	1476.7	1.4
313.15	0.2659	0.1458	1494.9	1.4
313.15	0.1237	0.7741	1344.3	1.4
313.15	0.2666	0.5138	1484.2	1.5
313.15	0.3581	0.347	1543	1.4
313.15	0.4065	0.257	1569.6	1.4
313.15	0.4466	0.1862	1590.6	1.4
313.15	0.5	0.088	1616.5	1.4
313.15	0.387	0.507	1551.7	1.4
313.15	0.5223	0.335	1613.3	1.4
313.15	0.6059	0.2284	1643.5	1.4
313.15	0.6946	0.1142	1664.6	1.4
313.15	0.7494	0.0466	1683.6	1.4
313.15	0.9024	0.0516	1708.4	1.3
313.15	0.643	0.3229	1635.1	1.4
313.15	0.533	0.4394	1608	1.4
313.15	0.8329	0.1208	1700	1.4
313.15	0.7615	0.1969	1680.9	1.4
313.15	0.3907	0.5872	1535.7	1.4

System: 1-butyl-3-methylimidazolium thiocyanate + propanoic acid + acetonitrile; phases: Liquid
Fixed: Pressure, kPa = 100
Property: Mass density, kg/m3 (Liquid); method: Vibrating tube method
Temperature, K	Mole fraction of 1-butyl-3-methylimidazolium thiocyanate	Mole fraction of propanoic acid	Mass density, kg/m3	uncertainty
293.15	0.0893	0.4698	961.2	0.9
293.15	0.1261	0.2516	941.6	0.9
293.15	0.1376	0.1824	934.7	1
293.15	0.1536	0.0875	925.7	1
293.15	0.2098	0.3319	984	0.9
293.15	0.2549	0.1852	979.8	0.9
293.15	0.273	0.121	977.1	0.9
293.15	0.1449	0.7359	1017.9	0.9
293.15	0.2955	0.4618	1020	0.9
293.15	0.3821	0.3031	1022.9	0.9
293.15	0.4263	0.2218	1025.4	0.9
293.15	0.4624	0.1564	1025	0.9
293.15	0.5051	0.0753	1025.7	0.9
293.15	0.5581	0.2791	1050.3	0.9
293.15	0.6329	0.1944	1053.2	0.9
293.15	0.7091	0.0944	1054.3	0.9
293.15	0.7484	0.0457	1053.1	0.9
293.15	0.9091	0.0425	1066.7	0.9
293.15	0.6793	0.2847	1062.4	0.9
293.15	0.5823	0.3871	1059.9	0.9
293.15	0.8534	0.1018	1068.3	0.9
293.15	0.7932	0.1659	1066.9	0.9
293.15	0.4402	0.5364	1055.1	0.9
293.15	0.2821	0.7028	1046.2	0.9
298.15	0.0893	0.4698	956.7	0.9
298.15	0.1261	0.2516	937.2	0.9
298.15	0.1376	0.1824	930.5	1
298.15	0.1536	0.0875	921.5	1
298.15	0.2098	0.3319	980	0.9
298.15	0.2549	0.1852	975.9	0.9
298.15	0.273	0.121	973.3	0.9
298.15	0.1449	0.7359	1013.8	0.9
298.15	0.2955	0.4618	1015.1	0.9
298.15	0.3821	0.3031	1019.1	0.9
298.15	0.4263	0.2218	1021.9	0.9
298.15	0.4624	0.1564	1021.6	0.9
298.15	0.5051	0.0753	1022.3	0.9
298.15	0.5581	0.2791	1046.9	0.9
298.15	0.6329	0.1944	1049.9	0.9
298.15	0.7091	0.0944	1051.2	0.9
298.15	0.7484	0.0457	1049.9	0.9
298.15	0.9091	0.0425	1063.6	0.9
298.15	0.6793	0.2847	1059.2	0.9
298.15	0.5823	0.3871	1056.6	0.9
298.15	0.8534	0.1018	1065.2	0.9
298.15	0.7932	0.1659	1063.8	0.9
298.15	0.4402	0.5364	1051.6	0.9
298.15	0.2821	0.7028	1042.5	0.9
303.15	0.0893	0.4698	952.2	0.9
303.15	0.1261	0.2516	932.9	0.9
303.15	0.1376	0.1824	926.2	1
303.15	0.1536	0.0875	917.3	1
303.15	0.2098	0.3319	976	0.9
303.15	0.2549	0.1852	972.1	0.9
303.15	0.273	0.121	969.4	0.9
303.15	0.1449	0.7359	1009.5	0.9
303.15	0.2955	0.4618	1010.8	0.9
303.15	0.3821	0.3031	1015.3	0.9
303.15	0.4263	0.2218	1018.4	0.9
303.15	0.4624	0.1564	1018.1	0.9
303.15	0.5051	0.0753	1018.9	0.9
303.15	0.5581	0.2791	1043.7	0.9
303.15	0.6329	0.1944	1046.8	0.9
303.15	0.7091	0.0944	1048	0.9
303.15	0.7484	0.0457	1046.7	0.9
303.15	0.9091	0.0425	1060.5	0.9
303.15	0.6793	0.2847	1056	0.9
303.15	0.5823	0.3871	1053.3	0.9
303.15	0.8534	0.1018	1062.1	0.9
303.15	0.7932	0.1659	1060.7	0.9
303.15	0.4402	0.5364	1048.1	0.9
303.15	0.2821	0.7028	1038.7	0.9
308.15	0.0893	0.4698	947.7	0.9
308.15	0.1261	0.2516	928.6	0.9
308.15	0.1376	0.1824	921.9	1
308.15	0.1536	0.0875	913.1	1
308.15	0.2098	0.3319	972	0.9
308.15	0.2549	0.1852	968.3	0.9
308.15	0.273	0.121	965.7	0.9
308.15	0.1449	0.7359	1005.4	0.9
308.15	0.2955	0.4618	1005.5	0.9
308.15	0.3821	0.3031	1011.6	0.9
308.15	0.4263	0.2218	1014.9	0.9
308.15	0.4624	0.1564	1014.7	0.9
308.15	0.5051	0.0753	1015.5	0.9
308.15	0.5581	0.2791	1040.4	0.9
308.15	0.6329	0.1944	1043.6	0.9
308.15	0.7091	0.0944	1044.8	0.9
308.15	0.7484	0.0457	1043.5	0.9
308.15	0.9091	0.0425	1057.4	0.9
308.15	0.6793	0.2847	1052.7	0.9
308.15	0.5823	0.3871	1050	0.9
308.15	0.8534	0.1018	1059.1	0.9
308.15	0.7932	0.1659	1057.6	0.9
308.15	0.4402	0.5364	1044.6	0.9
308.15	0.2821	0.7028	1035	0.9
313.15	0.0893	0.4698	943.2	0.9
313.15	0.1261	0.2516	924.3	0.9
313.15	0.1376	0.1824	917.7	1
313.15	0.1536	0.0875	908.9	1
313.15	0.2098	0.3319	968	0.9
313.15	0.2549	0.1852	964.5	0.9
313.15	0.273	0.121	961.9	1
313.15	0.1449	0.7359	1001.2	0.9
313.15	0.2955	0.4618	1001.1	0.9
313.15	0.3821	0.3031	1007.8	0.9
313.15	0.4263	0.2218	1011.4	0.9
313.15	0.4624	0.1564	1011.3	0.9
313.15	0.5051	0.0753	1012.1	0.9
313.15	0.5581	0.2791	1037.1	0.9
313.15	0.6329	0.1944	1040.4	0.9
313.15	0.7091	0.0944	1041.7	0.9
313.15	0.7484	0.0457	1040.3	0.9
313.15	0.9091	0.0425	1054.3	0.9
313.15	0.6793	0.2847	1049.5	0.9
313.15	0.5823	0.3871	1046.7	0.9
313.15	0.8534	0.1018	1056	0.9
313.15	0.7932	0.1659	1054.5	0.9
313.15	0.4402	0.5364	1041.2	0.9
313.15	0.2821	0.7028	1031.2	0.9

System: 1-butyl-3-methylimidazolium thiocyanate + propanoic acid + acetonitrile; phases: Liquid
Fixed: Pressure, kPa = 100
Fixed: Frequency, MHz = 3
Property: Speed of sound, m/s (Liquid); method: Single path-length method
Temperature, K	Mole fraction of 1-butyl-3-methylimidazolium thiocyanate	Mole fraction of propanoic acid	Speed of sound, m/s	uncertainty
293.15	0.0893	0.4698	1363.2	1.3
293.15	0.1261	0.2516	1426.5	1.3
293.15	0.1376	0.1824	1442.3	1.4
293.15	0.1536	0.0875	1464.5	1.4
293.15	0.2098	0.3319	1479.5	1.3
293.15	0.2549	0.1852	1528.2	1.3
293.15	0.273	0.121	1544.6	1.3
293.15	0.1449	0.7359	1382.2	1.2
293.15	0.2955	0.4618	1526.5	1.3
293.15	0.3821	0.3031	1584	1.3
293.15	0.4263	0.2218	1610.7	1.3
293.15	0.4624	0.1564	1635.4	1.3
293.15	0.5051	0.0753	1661.5	1.3
293.15	0.5581	0.2791	1656.1	1.3
293.15	0.6329	0.1944	1688	1.3
293.15	0.7091	0.0944	1718	1.3
293.15	0.7484	0.0457	1735.9	1.3
293.15	0.9091	0.0425	1764.4	1.3
293.15	0.6793	0.2847	1693.7	1.3
293.15	0.5823	0.3871	1657.8	1.2
293.15	0.8534	0.1018	1744.1	1.3
293.15	0.7932	0.1659	1727.1	1.3
293.15	0.4402	0.5364	1594.3	1.2
293.15	0.2821	0.7028	1499.5	1.2
298.15	0.0893	0.4698	1346.2	1.3
298.15	0.1261	0.2516	1409.9	1.3
298.15	0.1376	0.1824	1425.8	1.4
298.15	0.1536	0.0875	1448.1	1.4
298.15	0.2098	0.3319	1463.9	1.3
298.15	0.2549	0.1852	1513	1.3
298.15	0.273	0.121	1529.4	1.3
298.15	0.1449	0.7359	1366	1.2
298.15	0.2955	0.4618	1512	1.3
298.15	0.3821	0.3031	1570	1.3
298.15	0.4263	0.2218	1596.9	1.3
298.15	0.4624	0.1564	1621.8	1.3
298.15	0.5051	0.0753	1648	1.3
298.15	0.5581	0.2791	1643.2	1.3
298.15	0.6329	0.1944	1675.3	1.3
298.15	0.7091	0.0944	1705.5	1.3
298.15	0.7484	0.0457	1723.7	1.3
298.15	0.9091	0.0425	1752.8	1.3
298.15	0.6793	0.2847	1681.4	1.3
298.15	0.5823	0.3871	1645.3	1.2
298.15	0.8534	0.1018	1732.2	1.3
298.15	0.7932	0.1659	1715	1.3
298.15	0.4402	0.5364	1581.1	1.2
298.15	0.2821	0.7028	1485.5	1.2
303.15	0.0893	0.4698	1329.5	1.3
303.15	0.1261	0.2516	1393.2	1.3
303.15	0.1376	0.1824	1409.1	1.4
303.15	0.1536	0.0875	1431.3	1.4
303.15	0.2098	0.3319	1448.2	1.3
303.15	0.2549	0.1852	1497.7	1.3
303.15	0.273	0.121	1514	1.3
303.15	0.1449	0.7359	1349.9	1.2
303.15	0.2955	0.4618	1497.4	1.3
303.15	0.3821	0.3031	1556	1.3
303.15	0.4263	0.2218	1583.1	1.3
303.15	0.4624	0.1564	1608	1.3
303.15	0.5051	0.0753	1634.4	1.3
303.15	0.5581	0.2791	1630.3	1.3
303.15	0.6329	0.1944	1662.6	1.3
303.15	0.7091	0.0944	1693	1.3
303.15	0.7484	0.0457	1711.4	1.3
303.15	0.9091	0.0425	1740.9	1.3
303.15	0.6793	0.2847	1669.2	1.3
303.15	0.5823	0.3871	1632.7	1.2
303.15	0.8534	0.1018	1720	1.3
303.15	0.7932	0.1659	1702.9	1.3
303.15	0.4402	0.5364	1567.9	1.2
303.15	0.2821	0.7028	1471.2	1.2
308.15	0.0893	0.4698	1312.6	1.3
308.15	0.1261	0.2516	1376.5	1.3
308.15	0.1376	0.1824	1392.4	1.4
308.15	0.1536	0.0875	1414.6	1.4
308.15	0.2098	0.3319	1432.6	1.3
308.15	0.2549	0.1852	1482.5	1.3
308.15	0.273	0.121	1498.8	1.3
308.15	0.1449	0.7359	1334.1	1.2
308.15	0.2955	0.4618	1482.9	1.3
308.15	0.3821	0.3031	1542	1.3
308.15	0.4263	0.2218	1569.3	1.3
308.15	0.4624	0.1564	1594.4	1.3
308.15	0.5051	0.0753	1620.9	1.3
308.15	0.5581	0.2791	1617.5	1.3
308.15	0.6329	0.1944	1649.9	1.3
308.15	0.7091	0.0944	1680.6	1.3
308.15	0.7484	0.0457	1699.1	1.3
308.15	0.9091	0.0425	1729.2	1.3
308.15	0.6793	0.2847	1657	1.3
308.15	0.5823	0.3871	1620.3	1.2
308.15	0.8534	0.1018	1708.1	1.3
308.15	0.7932	0.1659	1690.8	1.3
308.15	0.4402	0.5364	1554.9	1.2
308.15	0.2821	0.7028	1456.9	1.2
313.15	0.0893	0.4698	1295.8	1.3
313.15	0.1261	0.2516	1359.8	1.3
313.15	0.1376	0.1824	1375.8	1.4
313.15	0.1536	0.0875	1398	1.4
313.15	0.2098	0.3319	1417.3	1.3
313.15	0.2549	0.1852	1467.4	1.3
313.15	0.273	0.121	1483.7	1.4
313.15	0.1449	0.7359	1318.8	1.2
313.15	0.2955	0.4618	1468.4	1.3
313.15	0.3821	0.3031	1528.1	1.3
313.15	0.4263	0.2218	1555.7	1.3
313.15	0.4624	0.1564	1580.8	1.3
313.15	0.5051	0.0753	1607.4	1.3
313.15	0.5581	0.2791	1604.6	1.3
313.15	0.6329	0.1944	1637.3	1.3
313.15	0.7091	0.0944	1668.1	1.3
313.15	0.7484	0.0457	1686.8	1.3
313.15	0.9091	0.0425	1717.4	1.3
313.15	0.6793	0.2847	1644.8	1.3
313.15	0.5823	0.3871	1607.9	1.2
313.15	0.8534	0.1018	1696.2	1.3
313.15	0.7932	0.1659	1678.9	1.3
313.15	0.4402	0.5364	1541.9	1.2
313.15	0.2821	0.7028	1442.7	1.2
