Measured thermophysical data. To the issue of temperature-dependent behavior of standard molar volumes of components in the binary system (water + tetrahydrofuran) at ambient pressure
Source: J. Chem. Thermodyn., 2014, 10.1016/j.jct.2013.12.028
Compound 1: tetrahydrofuran, C4H8O, InChI=1S/C4H8O/c1-2-4-5-3-1/h1-4H2, purity 99.5%
Compound 2: water, H2O, InChI=1S/H2O/h1H2

System: tetrahydrofuran; phases: Liquid
Property: Refractive index (Na D-line) (Liquid); method: Pulfrich refractometry
Temperature, K	Pressure, kPa	Refractive index (Na D-line)	uncertainty
298.15	101.325	1.4048	0.00012

System: tetrahydrofuran; phases: Liquid
Fixed: Pressure, kPa = 101.325
Property: Mass density, kg/m3 (Liquid); method: Vibrating tube method
Temperature, K	Mass density, kg/m3	uncertainty
278.15	903.68	0.121
283.15	898.309	0.122
288.15	892.903	0.123
293.15	887.471	0.124
298.15	882.005	0.126
303.15	876.513	0.127
308.15	870.981	0.128
313.15	865.414	0.129
318.15	859.81	0.13

System: tetrahydrofuran + water; phases: Liquid
Fixed: Pressure, kPa = 101.3
Property: Mass density, kg/m3 (Liquid); method: Vibrating tube method
Molality, mol/kg of tetrahydrofuran	Temperature, K	Mass density, kg/m3	uncertainty
0.068815	278.15	999.729	0.106
0.10276	278.15	999.619	0.106
0.21576	278.15	999.282	0.106
0.30977	278.15	999.036	0.106
0.41991	278.15	998.781	0.106
0.57043	278.15	998.489	0.106
0.71943	278.15	998.255	0.106
0.87672	278.15	998.059	0.106
1.04012	278.15	997.903	0.106
1.17443	278.15	997.793	0.106
1.26235	278.15	997.732	0.106
1.40577	278.15	997.65	0.106
1.5763	278.15	997.559	0.106
0.068815	283.15	999.439	0.106
0.10276	283.15	999.317	0.106
0.21576	283.15	998.938	0.106
0.30977	283.15	998.655	0.106
0.41991	283.15	998.36	0.106
0.57043	283.15	997.999	0.106
0.71943	283.15	997.698	0.106
0.87672	283.15	997.427	0.106
1.04012	283.15	997.18	0.106
1.17443	283.15	997.013	0.106
1.26235	283.15	996.903	0.106
1.40577	283.15	996.744	0.106
1.5763	283.15	996.552	0.106
0.068815	288.15	998.826	0.106
0.10276	288.15	998.697	0.106
0.21576	288.15	998.289	0.106
0.30977	288.15	997.977	0.106
0.41991	288.15	997.637	0.106
0.57043	288.15	997.225	0.106
0.71943	288.15	996.863	0.106
0.87672	288.15	996.519	0.106
1.04012	288.15	996.19	0.106
1.17443	288.15	995.964	0.106
1.26235	288.15	995.814	0.106
1.40577	288.15	995.581	0.106
1.5763	288.15	995.314	0.107
0.068815	293.15	997.918	0.106
0.10276	293.15	997.78	0.106
0.21576	293.15	997.343	0.106
0.30977	293.15	997.003	0.106
0.41991	293.15	996.629	0.106
0.57043	293.15	996.162	0.107
0.71943	293.15	995.741	0.107
0.87672	293.15	995.333	0.107
1.04012	293.15	994.935	0.107
1.17443	293.15	994.643	0.107
1.26235	293.15	994.456	0.107
1.40577	293.15	994.16	0.107
1.5763	293.15	993.821	0.107
0.068815	298.15	996.743	0.107
0.10276	298.15	996.596	0.107
0.21576	298.15	996.13	0.107
0.30977	298.15	995.764	0.107
0.41991	298.15	995.359	0.107
0.57043	298.15	994.84	0.107
0.71943	298.15	994.361	0.107
0.87672	298.15	993.894	0.107
1.04012	298.15	993.435	0.107
1.17443	298.15	993.087	0.107
1.26235	298.15	992.856	0.107
1.40577	298.15	992.503	0.107
1.5763	298.15	992.084	0.107
0.068815	303.15	995.331	0.107
0.10276	303.15	995.178	0.107
0.21576	303.15	994.687	0.107
0.30977	303.15	994.293	0.107
0.41991	303.15	993.859	0.107
0.57043	303.15	993.293	0.107
0.71943	303.15	992.771	0.107
0.87672	303.15	992.247	0.107
1.04012	303.15	991.725	0.107
1.17443	303.15	991.324	0.107
1.26235	303.15	991.065	0.107
1.40577	303.15	990.648	0.107
1.5763	303.15	990.16	0.107
0.068815	308.15	993.701	0.107
0.10276	308.15	993.538	0.107
0.21576	308.15	993.021	0.107
0.30977	308.15	992.601	0.107
0.41991	308.15	992.137	0.107
0.57043	308.15	991.526	0.107
0.71943	308.15	990.96	0.107
0.87672	308.15	990.382	0.107
1.04012	308.15	989.802	0.107
1.17443	308.15	989.348	0.107
1.26235	308.15	989.06	0.108
1.40577	308.15	988.583	0.108
1.5763	308.15	988.025	0.108
0.068815	313.15	991.864	0.107
0.10276	313.15	991.694	0.107
0.21576	313.15	991.146	0.107
0.30977	313.15	990.703	0.107
0.41991	313.15	990.208	0.107
0.57043	313.15	989.552	0.108
0.71943	313.15	988.935	0.108
0.87672	313.15	988.304	0.108
1.04012	313.15	987.671	0.108
1.17443	313.15	987.162	0.108
1.26235	313.15	986.838	0.108
1.40577	313.15	986.311	0.108
1.5763	313.15	985.688	0.108
0.068815	318.15	989.851	0.108
0.10276	318.15	989.672	0.108
0.21576	318.15	989.097	0.108
0.30977	318.15	988.631	0.108
0.41991	318.15	988.102	0.108
0.57043	318.15	987.402	0.108
0.71943	318.15	986.735	0.108
0.87672	318.15	986.049	0.108
1.04012	318.15	985.363	0.108
1.17443	318.15	984.803	0.108
1.26235	318.15	984.443	0.108
1.40577	318.15	983.864	0.108
1.5763	318.15	983.169	0.108
