Measured thermophysical data. Isobaric (vapour + liquid + liquid) equilibrium data for (di-n-propyl ether + n-propyl alcohol + water) and (diisopropyl ether + isopropyl alcohol + water) systems at 100 kPa
Source: J. Chem. Thermodyn., 2008, 10.1016/j.jct.2008.01.002
Compound 1: diisopropyl ether, C6H14O, InChI=1S/C6H14O/c1-5(2)7-6(3)4/h5-6H,1-4H3, purity 99%
Compound 2: propan-1-ol, C3H8O, InChI=1S/C3H8O/c1-2-3-4/h4H,2-3H2,1H3, purity 99%
Compound 3: dipropyl ether, C6H14O, InChI=1S/C6H14O/c1-3-5-7-6-4-2/h3-6H2,1-2H3, purity 90%
Compound 4: propan-2-ol, C3H8O, InChI=1S/C3H8O/c1-3(2)4/h3-4H,1-2H3, purity 99.8%
Compound 5: water, H2O, InChI=1S/H2O/h1H2

System: diisopropyl ether; phases: Liquid, Gas
Property: Normal boiling temperature, K (Liquid); method: Closed cell (Static) method
Normal boiling temperature, K	uncertainty
341.4	0.2

System: diisopropyl ether; phases: Liquid
Property: Refractive index (Na D-line) (Liquid); method: Standard Abbe refractometry
Temperature, K	Pressure, kPa	Refractive index (Na D-line)	uncertainty
298.15	101.325	1.3652	0.0005

System: diisopropyl ether; phases: Liquid
Property: Mass density, kg/m3 (Liquid); method: VIBTUB:UFactor:6
Temperature, K	Pressure, kPa	Mass density, kg/m3	uncertainty
298.15	101.325	718.32	0.96

System: propan-1-ol; phases: Liquid, Gas
Property: Normal boiling temperature, K (Liquid); method: Closed cell (Static) method
Normal boiling temperature, K	uncertainty
369.75	0.2

System: propan-1-ol; phases: Liquid
Property: Refractive index (Na D-line) (Liquid); method: Standard Abbe refractometry
Temperature, K	Pressure, kPa	Refractive index (Na D-line)	uncertainty
298.15	101.325	1.3836	0.0005

System: propan-1-ol; phases: Liquid
Property: Mass density, kg/m3 (Liquid); method: VIBTUB:UFactor:6
Temperature, K	Pressure, kPa	Mass density, kg/m3	uncertainty
298.15	101.325	799.62	0.79

System: dipropyl ether; phases: Liquid, Gas
Property: Normal boiling temperature, K (Liquid); method: Closed cell (Static) method
Normal boiling temperature, K	uncertainty
363.16	0.2

System: dipropyl ether; phases: Liquid
Property: Refractive index (Na D-line) (Liquid); method: Standard Abbe refractometry
Temperature, K	Pressure, kPa	Refractive index (Na D-line)	uncertainty
298.15	101.325	1.3784	0.0005

System: dipropyl ether; phases: Liquid
Property: Mass density, kg/m3 (Liquid); method: VIBTUB:UFactor:4
Temperature, K	Pressure, kPa	Mass density, kg/m3	uncertainty
298.15	101.325	741.81	0.56

System: propan-2-ol; phases: Liquid, Gas
Property: Normal boiling temperature, K (Liquid); method: Closed cell (Static) method
Normal boiling temperature, K	uncertainty
355.25	0.2

System: propan-2-ol; phases: Liquid
Property: Refractive index (Na D-line) (Liquid); method: Standard Abbe refractometry
Temperature, K	Pressure, kPa	Refractive index (Na D-line)	uncertainty
298.15	101.325	1.3754	0.0005

System: propan-2-ol; phases: Liquid
Property: Mass density, kg/m3 (Liquid); method: Vibrating tube method
Temperature, K	Pressure, kPa	Mass density, kg/m3	uncertainty
298.15	101.325	782.69	0.12

System: water; phases: Liquid, Gas
Property: Normal boiling temperature, K (Liquid); method: Closed cell (Static) method
Normal boiling temperature, K	uncertainty
373.15	0.2

System: water; phases: Liquid
Property: Refractive index (Na D-line) (Liquid); method: Standard Abbe refractometry
Temperature, K	Pressure, kPa	Refractive index (Na D-line)	uncertainty
298.15	101.325	1.3332	0.0005

System: water; phases: Liquid
Property: Mass density, kg/m3 (Liquid); method: Vibrating tube method
Temperature, K	Pressure, kPa	Mass density, kg/m3	uncertainty
298.15	101.325	997	0.08

System: propan-1-ol + dipropyl ether + water; phases: Liquid mixture 1, Gas, Liquid mixture 2
Fixed: Pressure, kPa = 100
Property: Mole fraction of propan-1-ol (Liquid mixture 1); method: Chromatography
Property: Mole fraction of propan-1-ol (Liquid mixture 2); method: Chromatography
Property: Mole fraction of propan-1-ol (Gas); method: Chromatography
Property: Mole fraction of dipropyl ether (Liquid mixture 1); method: Chromatography
Property: Mole fraction of dipropyl ether (Liquid mixture 2); method: Chromatography
Property: Mole fraction of dipropyl ether (Gas); method: Chromatography
Temperature, K	Mole fraction of propan-1-ol	uncertainty	Mole fraction of propan-1-ol	uncertainty	Mole fraction of propan-1-ol	uncertainty	Mole fraction of dipropyl ether	uncertainty	Mole fraction of dipropyl ether	uncertainty	Mole fraction of dipropyl ether	uncertainty
352.13	0.244	0.003	0.1	0.002	0.239	0.003	0.03	0.002	0.005	0.002	0.314	0.003
350.73	0.358	0.003	0.063	0.002	0.218	0.003	0.095	0.002	0.002	0.002	0.355	0.003
349.73	0.399	0.004	0.053	0.002	0.202	0.003	0.171	0.002	0.001	0.001	0.39	0.003
348.8	0.395	0.003	0.044	0.002	0.182	0.002	0.278	0.003	0.001	0.001	0.422	0.004
348.45	0.391	0.003	0.04	0.002	0.173	0.002	0.365	0.003	0	0.001	0.437	0.004
348.07	0.354	0.003	0.038	0.002	0.162	0.002	0.442	0.004	0	0.001	0.455	0.004
347.83	0.32	0.003	0.035	0.002	0.151	0.002	0.533	0.004	0	0.001	0.467	0.004
347.52	0.243	0.003	0.032	0.002	0.132	0.002	0.663	0.003	0	0.001	0.489	0.004
347.35	0.159	0.002	0.022	0.002	0.106	0.002	0.783	0.003	0	0.001	0.515	0.004
347.58	0.066	0.002	0.012	0.002	0.061	0.002	0.891	0.002	0	0.001	0.554	0.004

System: propan-2-ol + diisopropyl ether + water; phases: Gas, Liquid mixture 1, Liquid mixture 2
Fixed: Pressure, kPa = 100
Property: Mole fraction of propan-2-ol (Gas); method: Chromatography
Property: Mole fraction of propan-2-ol (Liquid mixture 1); method: Chromatography
Property: Mole fraction of propan-2-ol (Liquid mixture 2); method: Chromatography
Property: Mole fraction of diisopropyl ether (Gas); method: Chromatography
Property: Mole fraction of diisopropyl ether (Liquid mixture 1); method: Chromatography
Property: Mole fraction of diisopropyl ether (Liquid mixture 2); method: Chromatography
Temperature, K	Mole fraction of propan-2-ol	uncertainty	Mole fraction of propan-2-ol	uncertainty	Mole fraction of propan-2-ol	uncertainty	Mole fraction of diisopropyl ether	uncertainty	Mole fraction of diisopropyl ether	uncertainty	Mole fraction of diisopropyl ether	uncertainty
339.12	0.222	0.003	0.273	0.003	0.141	0.002	0.49	0.004	0.076	0.002	0.015	0.002
338.03	0.207	0.003	0.33	0.003	0.097	0.002	0.516	0.004	0.168	0.002	0.006	0.002
337.27	0.194	0.002	0.336	0.003	0.09	0.002	0.535	0.004	0.221	0.003	0.008	0.002
336.89	0.188	0.002	0.321	0.003	0.082	0.002	0.545	0.004	0.274	0.003	0.006	0.002
336.81	0.185	0.002	0.328	0.003	0.076	0.002	0.547	0.004	0.293	0.003	0.004	0.002
336.14	0.174	0.002	0.316	0.003	0.071	0.002	0.565	0.004	0.363	0.003	0.008	0.002
335.56	0.154	0.002	0.274	0.003	0.056	0.002	0.59	0.004	0.488	0.004	0.004	0.002
335.25	0.15	0.002	0.27	0.003	0.055	0.002	0.597	0.004	0.533	0.004	0.008	0.002
334.78	0.124	0.002	0.197	0.002	0.035	0.002	0.625	0.003	0.645	0.003	0.002	0.002
334.46	0.108	0.002	0.16	0.002	0.033	0.002	0.641	0.003	0.727	0.003	0.001	0.001
334.68	0.055	0.002	0.055	0.002	0.013	0.002	0.689	0.003	0.888	0.002	0.001	0.001
