Measured thermophysical data. Thermochemical study of dichloromethylpyrimidine isomers
Source: J. Chem. Thermodyn., 2016, 10.1016/j.jct.2016.04.011
Compound 1: hydrogen chloride, ClH, InChI=1S/ClH/h1H
Compound 2: carbon dioxide, CO2, InChI=1S/CO2/c2-1-3
Compound 3: nitrogen, N2, InChI=1S/N2/c1-2
Compound 4: water, H2O, InChI=1S/H2O/h1H2
Compound 5: oxygen, O2, InChI=1S/O2/c1-2
Compound 6: 2,4-dichloro-5-methylpyrimidine, C5H4Cl2N2, InChI=1S/C5H4Cl2N2/c1-3-2-8-5(7)9-4(3)6/h2H,1H3, purity 98%
Compound 7: 2,4-dichloro-6-methylpyrimidine, C5H4Cl2N2, InChI=1S/C5H4Cl2N2/c1-3-2-4(6)9-5(7)8-3/h2H,1H3, purity 98%
Compound 8: 4,6-dichloro-2-methylpyrimidine, C5H4Cl2N2, InChI=1S/C5H4Cl2N2/c1-3-8-4(6)2-5(7)9-3/h2H,1H3, purity 98%
Compound 9: 4,6-dichloro-5-methylpyrimidine, C5H4Cl2N2, InChI=1S/C5H4Cl2N2/c1-3-4(6)8-2-9-5(3)7/h2H,1H3, purity 97%

System: 2,4-dichloro-5-methylpyrimidine; phases: Liquid, Gas
Property: Molar enthalpy of vaporization or sublimation, kJ/mol (Liquid); method: Static calorimetry
Temperature, K	Molar enthalpy of vaporization or sublimation, kJ/mol	uncertainty
298.15	64	3.8

System: 2,4-dichloro-5-methylpyrimidine; phases: Gas, Crystal
Property: Molar enthalpy, kJ/mol (Gas); method: Drop calorimetry
Temperature, K	Molar enthalpy, kJ/mol	uncertainty
344.5	71.2	2

System: 2,4-dichloro-6-methylpyrimidine; phases: Crystal, Gas
Property: Molar enthalpy of vaporization or sublimation, kJ/mol (Crystal); method: Static calorimetry
Temperature, K	Molar enthalpy of vaporization or sublimation, kJ/mol	uncertainty
298.15	81.2	2.5

System: 2,4-dichloro-6-methylpyrimidine; phases: Gas, Crystal
Property: Molar enthalpy, kJ/mol (Gas); method: Drop calorimetry
Temperature, K	Molar enthalpy, kJ/mol	uncertainty
324.8	84.8	3.2

System: 4,6-dichloro-2-methylpyrimidine; phases: Crystal, Gas
Property: Molar enthalpy of vaporization or sublimation, kJ/mol (Crystal); method: Static calorimetry
Temperature, K	Molar enthalpy of vaporization or sublimation, kJ/mol	uncertainty
298.15	74	3

System: 4,6-dichloro-2-methylpyrimidine; phases: Gas, Crystal
Property: Molar enthalpy, kJ/mol (Gas); method: Drop calorimetry
Temperature, K	Molar enthalpy, kJ/mol	uncertainty
324.8	77.6	4

System: 4,6-dichloro-5-methylpyrimidine; phases: Crystal, Gas
Property: Molar enthalpy of vaporization or sublimation, kJ/mol (Crystal); method: Static calorimetry
Temperature, K	Molar enthalpy of vaporization or sublimation, kJ/mol	uncertainty
298.15	74.2	2

System: 4,6-dichloro-5-methylpyrimidine; phases: Gas, Crystal
Property: Molar enthalpy, kJ/mol (Gas); method: Drop calorimetry
Temperature, K	Molar enthalpy, kJ/mol	uncertainty
324.8	77.8	2.6

Reaction: -1 2,4-dichloro-5-methylpyrimidine + 2 hydrogen chloride + 5 carbon dioxide + 1 nitrogen + 1 water + -5.5 oxygen
Property: Specific internal energy of reaction at constant volume, J/g
-15970.67

Reaction: -1 2,4-dichloro-6-methylpyrimidine + 2 hydrogen chloride + 5 carbon dioxide + 1 nitrogen + 1 water + -5.5 oxygen
Property: Specific internal energy of reaction at constant volume, J/g
-15809.07

Reaction: -1 4,6-dichloro-2-methylpyrimidine + 2 hydrogen chloride + 5 carbon dioxide + 1 nitrogen + 1 water + -5.5 oxygen
Property: Specific internal energy of reaction at constant volume, J/g
-15842.41

Reaction: -1 4,6-dichloro-5-methylpyrimidine + 2 hydrogen chloride + 5 carbon dioxide + 1 nitrogen + 1 water + -5.5 oxygen
Property: Specific internal energy of reaction at constant volume, J/g
-15899
