Measured thermophysical data. Probing the self-aggregation of ionic liquids in aqueous solutions using  density and speed of sound data
Source: J. Chem. Thermodyn., 2013, 10.1016/j.jct.2012.11.032
Compound 1: 1-methyl-3-octylimidazolium chloride, C12H23ClN2, InChI=1S/C12H23N2.ClH/c1-3-4-5-6-7-8-9-14-11-10-13(2)12-14;/h10-12H,3-9H2,1-2H3;1H/q+1;/p-1, purity 99%
Compound 2: 1-decyl-3-methylimidazolium chloride, C14H27ClN2, InChI=1S/C14H27N2.ClH/c1-3-4-5-6-7-8-9-10-11-16-13-12-15(2)14-16;/h12-14H,3-11H2,1-2H3;1H/q+1;/p-1, purity 98%
Compound 3: 1-dodecyl-3-methylimidazolium chloride, C16H31ClN2, InChI=1S/C16H31N2.ClH/c1-3-4-5-6-7-8-9-10-11-12-13-18-15-14-17(2)16-18;/h14-16H,3-13H2,1-2H3;1H/q+1;/p-1, purity 98%
Compound 4: water, H2O, InChI=1S/H2O/h1H2, purity 99.9%

System: water; phases: Liquid
Fixed: Pressure, kPa = 101
Property: Mass density, kg/m3 (Liquid); method: Vibrating tube method
Temperature, K	Mass density, kg/m3	uncertainty
283	999.754	0.104
288	999.166	0.105
293	998.283	0.105
298	997.133	0.105
303	995.75	0.105
308	994.144	0.105
313	992.33	0.105
283	999.713	0.104
288	999.13	0.105
293	998.247	0.105
298	997.099	0.105
303	995.709	0.105
308	994.099	0.105
313	992.25	0.106
283	999.719	0.104
288	999.129	0.105
293	998.238	0.105
298	997.083	0.105
303	995.697	0.105
308	994.091	0.105
313	992.27	0.106

System: water; phases: Liquid
Fixed: Pressure, kPa = 101
Property: Speed of sound, m/s (Liquid); method: Sing-around technique in a fixed-path interferometer
Temperature, K	Speed of sound, m/s	uncertainty
283	1448.06	1.2
288	1466.42	1.2
293	1482.65	1.21
298	1496.88	1.21
303	1509.26	1.21
308	1519.94	1.21
313	1529.02	1.22
283	1448.35	1.2
288	1466.46	1.2
293	1482.66	1.21
303	1509.25	1.21

System: water + 1-methyl-3-octylimidazolium chloride; phases: Liquid
Fixed: Pressure, kPa = 101
Property: Mass density, kg/m3 (Liquid); method: Vibrating tube method
Temperature, K	Mole fraction of 1-methyl-3-octylimidazolium chloride	Mass density, kg/m3	uncertainty
283	0	999.754	0.104
283	0.000276	999.831	0.104
283	0.000495	999.918	0.104
283	0.000781	1000.051	0.104
283	0.00102	1000.161	0.104
283	0.0013	1000.298	0.104
283	0.001503	1000.38	0.105
283	0.001892	1000.558	0.105
283	0.002073	1000.642	0.105
283	0.002376	1000.783	0.105
283	0.00261	1000.889	0.105
283	0.002774	1000.958	0.105
283	0.003111	1001.112	0.105
283	0.003716	1001.381	0.105
283	0.003899	1001.461	0.105
283	0.004079	1001.546	0.105
283	0.004181	1001.588	0.105
283	0.004462	1001.713	0.105
283	0.004601	1001.771	0.105
283	0.004981	1001.931	0.105
283	0.005198	1002.024	0.105
283	0.005607	1002.204	0.105
283	0.005782	1002.27	0.105
288	0	999.166	0.105
288	0.000276	999.227	0.105
288	0.000495	999.302	0.105
288	0.000781	999.421	0.105
288	0.00102	999.519	0.105
288	0.0013	999.641	0.105
288	0.001503	999.712	0.105
288	0.001892	999.863	0.105
288	0.002073	999.938	0.105
288	0.002376	1000.06	0.105
288	0.00261	1000.149	0.105
288	0.002774	1000.207	0.105
288	0.003111	1000.345	0.105
288	0.003716	1000.575	0.105
288	0.003899	1000.638	0.105
288	0.004079	1000.716	0.105
288	0.004181	1000.75	0.105
288	0.004462	1000.853	0.105
288	0.004601	1000.903	0.105
288	0.004981	1001.037	0.105
288	0.005198	1001.115	0.105
288	0.005607	1001.266	0.105
288	0.005782	1001.316	0.105
293	0	998.283	0.105
293	0.000276	998.326	0.105
293	0.000495	998.392	0.105
293	0.000781	998.497	0.105
293	0.00102	998.584	0.105
293	0.0013	998.69	0.105
293	0.001503	998.751	0.105
293	0.001892	998.879	0.105
293	0.002073	998.946	0.105
293	0.002376	999.051	0.105
293	0.00261	999.124	0.105
293	0.002774	999.173	0.105
293	0.003111	999.291	0.105
293	0.003716	999.491	0.105
293	0.003899	999.54	0.105
293	0.004079	999.608	0.105
293	0.004181	999.636	0.105
293	0.004462	999.721	0.105
293	0.004601	999.764	0.105
293	0.004981	999.873	0.105
293	0.005198	999.935	0.105
293	0.005607	1000.061	0.105
293	0.005782	1000.098	0.105
298	0	997.133	0.105
298	0.000276	997.161	0.105
298	0.000495	997.221	0.105
298	0.000781	997.313	0.105
298	0.00102	997.386	0.105
298	0.0013	997.479	0.105
298	0.001503	997.527	0.105
298	0.001892	997.639	0.105
298	0.002073	997.696	0.105
298	0.002376	997.786	0.105
298	0.00261	997.846	0.105
298	0.002774	997.889	0.105
298	0.003111	997.987	0.105
298	0.003716	998.157	0.105
298	0.003899	998.198	0.105
298	0.004079	998.254	0.105
298	0.004181	998.28	0.105
298	0.004462	998.349	0.105
298	0.004601	998.382	0.105
298	0.004981	998.469	0.105
298	0.005198	998.52	0.105
298	0.005607	998.619	0.105
298	0.005782	998.649	0.105
303	0	995.75	0.105
303	0.000276	995.767	0.105
303	0.000495	995.808	0.105
303	0.000781	995.896	0.105
303	0.00102	995.954	0.105
303	0.0013	996.029	0.105
303	0.001503	996.067	0.105
303	0.001892	996.169	0.105
303	0.002073	996.211	0.105
303	0.002376	996.287	0.105
303	0.00261	996.341	0.105
303	0.002774	996.377	0.105
303	0.003111	996.455	0.105
303	0.003716	996.597	0.105
303	0.003899	996.633	0.105
303	0.004079	996.675	0.105
303	0.004181	996.696	0.105
303	0.004462	996.755	0.105
303	0.004601	996.78	0.105
303	0.004981	996.85	0.105
303	0.005198	996.89	0.105
303	0.005607	996.962	0.105
303	0.005782	996.986	0.105
308	0	994.144	0.105
308	0.000276	994.15	0.105
308	0.000495	994.182	0.105
308	0.000781	994.262	0.105
308	0.00102	994.297	0.105
308	0.0013	994.364	0.105
308	0.001503	994.399	0.105
308	0.001892	994.479	0.105
308	0.002073	994.514	0.105
308	0.002376	994.575	0.105
308	0.00261	994.623	0.105
308	0.002774	994.653	0.105
308	0.003111	994.711	0.105
308	0.003716	994.828	0.105
308	0.003899	994.859	0.105
308	0.004079	994.891	0.105
308	0.004181	994.908	0.105
308	0.004462	994.953	0.105
308	0.004601	994.974	0.105
308	0.004981	995.028	0.105
308	0.005198	995.061	0.105
308	0.005607	995.112	0.105
308	0.005782	995.128	0.105
313	0	992.33	0.105
313	0.000276	992.324	0.105
313	0.000495	992.347	0.105
313	0.000781	992.417	0.105
313	0.00102	992.447	0.105
313	0.0013	992.496	0.105
313	0.001503	992.524	0.105
313	0.001892	992.591	0.105
313	0.002073	992.619	0.105
313	0.002376	992.664	0.105
313	0.00261	992.706	0.105
313	0.002774	992.728	0.105
313	0.003111	992.774	0.106
313	0.003716	992.866	0.106
313	0.003899	992.89	0.106
313	0.004079	992.912	0.106
313	0.004181	992.929	0.106
313	0.004462	992.963	0.106
313	0.004601	992.978	0.106
313	0.004981	993.015	0.106
313	0.005198	993.04	0.106
313	0.005607	993.076	0.106
313	0.005782	993.084	0.106

System: water + 1-methyl-3-octylimidazolium chloride; phases: Liquid
Fixed: Pressure, kPa = 101
Property: Speed of sound, m/s (Liquid); method: Sing-around technique in a fixed-path interferometer
Temperature, K	Mole fraction of 1-methyl-3-octylimidazolium chloride	Speed of sound, m/s	uncertainty
283	0	1448.06	1.2
283	0.000276	1451.49	1.2
283	0.000495	1454.29	1.2
283	0.000781	1456.96	1.2
283	0.00102	1460.1	1.2
283	0.0013	1463.23	1.2
283	0.001503	1465.46	1.2
283	0.001892	1469.68	1.21
283	0.002073	1471.7	1.21
283	0.002376	1474.86	1.21
283	0.00261	1477.43	1.21
283	0.002774	1479	1.21
283	0.003111	1482.49	1.21
283	0.003716	1488.36	1.21
283	0.003899	1489.7	1.21
283	0.004079	1491.88	1.21
283	0.004181	1492.83	1.21
283	0.004462	1495.49	1.21
283	0.004601	1496.77	1.21
283	0.004981	1500.12	1.21
283	0.005198	1501.58	1.21
283	0.005607	1505.4	1.21
283	0.005782	1506.82	1.21
288	0	1466.42	1.2
288	0.000276	1469.56	1.2
288	0.000495	1471.88	1.21
288	0.000781	1474.63	1.21
288	0.00102	1477.28	1.21
288	0.0013	1480.17	1.21
288	0.001503	1482.22	1.21
288	0.001892	1486.14	1.21
288	0.002073	1488	1.21
288	0.002376	1490.88	1.21
288	0.00261	1493.27	1.21
288	0.002774	1494.7	1.21
288	0.003111	1497.9	1.21
288	0.003716	1503.25	1.21
288	0.003899	1504.7	1.21
288	0.004079	1506.44	1.21
288	0.004181	1507.33	1.21
288	0.004462	1509.74	1.21
288	0.004601	1510.87	1.21
288	0.004981	1513.84	1.21
288	0.005198	1515.29	1.21
288	0.005607	1518.43	1.21
288	0.005782	1519.62	1.21
293	0	1482.65	1.21
293	0.000276	1485.52	1.21
293	0.000495	1487.65	1.21
293	0.000781	1490.27	1.21
293	0.00102	1492.64	1.21
293	0.0013	1495.3	1.21
293	0.001503	1497.2	1.21
293	0.001892	1500.8	1.21
293	0.002073	1502.5	1.21
293	0.002376	1505.15	1.21
293	0.00261	1507.34	1.21
293	0.002774	1508.66	1.21
293	0.003111	1511.59	1.21
293	0.003716	1516.45	1.21
293	0.003899	1517.81	1.21
293	0.004079	1519.35	1.21
293	0.004181	1520.14	1.21
293	0.004462	1522.3	1.21
293	0.004601	1523.31	1.22
293	0.004981	1525.93	1.22
293	0.005198	1527.24	1.22
293	0.005607	1529.91	1.22
293	0.005782	1530.92	1.22
298	0	1496.88	1.21
298	0.000276	1499.52	1.21
298	0.000495	1501.47	1.21
298	0.000781	1503.93	1.21
298	0.00102	1506.08	1.21
298	0.0013	1508.53	1.21
298	0.001503	1510.29	1.21
298	0.001892	1513.61	1.21
298	0.002073	1515.17	1.21
298	0.002376	1517.6	1.21
298	0.00261	1519.6	1.21
298	0.002774	1520.8	1.21
298	0.003111	1523.48	1.21
298	0.003716	1527.88	1.22
298	0.003899	1529.12	1.22
298	0.004079	1530.49	1.22
298	0.004181	1531.21	1.22
298	0.004462	1533.13	1.22
298	0.004601	1534.02	1.22
298	0.004981	1536.32	1.22
298	0.005198	1537.49	1.22
298	0.005607	1539.79	1.22
298	0.005782	1540.65	1.22
303	0	1509.26	1.21
303	0.000276	1511.69	1.21
303	0.000495	1513.48	1.21
303	0.000781	1515.79	1.21
303	0.00102	1517.75	1.21
303	0.0013	1520	1.21
303	0.001503	1521.62	1.21
303	0.001892	1524.67	1.21
303	0.002073	1526.09	1.21
303	0.002376	1528.33	1.22
303	0.00261	1530.15	1.22
303	0.002774	1531.24	1.22
303	0.003111	1533.68	1.22
303	0.003716	1537.66	1.22
303	0.003899	1538.79	1.22
303	0.004079	1540.01	1.22
303	0.004181	1540.65	1.22
303	0.004462	1542.36	1.22
303	0.004601	1543.15	1.22
303	0.004981	1545.18	1.22
303	0.005198	1546.23	1.22
303	0.005607	1548.21	1.22
303	0.005782	1548.96	1.22
308	0	1519.94	1.21
308	0.000276	1522.17	1.21
308	0.000495	1523.81	1.21
308	0.000781	1525.97	1.21
308	0.00102	1527.76	1.21
308	0.0013	1529.81	1.22
308	0.001503	1531.31	1.22
308	0.001892	1534.09	1.22
308	0.002073	1535.39	1.22
308	0.002376	1537.44	1.22
308	0.00261	1539.1	1.22
308	0.002774	1540.08	1.22
308	0.003111	1542.3	1.22
308	0.003716	1545.89	1.22
308	0.003899	1546.93	1.22
308	0.004079	1548.02	1.22
308	0.004181	1548.59	1.22
308	0.004462	1550.11	1.22
308	0.004601	1550.81	1.22
308	0.004981	1552.6	1.22
308	0.005198	1553.55	1.22
308	0.005607	1555.27	1.22
308	0.005782	1555.93	1.22
313	0	1529.02	1.22
313	0.000276	1531.06	1.22
313	0.000495	1532.57	1.22
313	0.000781	1534.58	1.22
313	0.00102	1536.2	1.22
313	0.0013	1538.09	1.22
313	0.001503	1539.45	1.22
313	0.001892	1542.01	1.22
313	0.002073	1543.18	1.22
313	0.002376	1545.05	1.22
313	0.00261	1546.56	1.22
313	0.002774	1547.46	1.22
313	0.003111	1549.48	1.22
313	0.003716	1552.71	1.22
313	0.003899	1553.65	1.22
313	0.004079	1554.61	1.22
313	0.004181	1555.12	1.22
313	0.004462	1556.49	1.22
313	0.004601	1557.11	1.22
313	0.004981	1558.68	1.22
313	0.005198	1559.55	1.22
313	0.005607	1561.05	1.22
313	0.005782	1561.62	1.22

System: water + 1-decyl-3-methylimidazolium chloride; phases: Liquid
Fixed: Pressure, kPa = 101
Property: Mass density, kg/m3 (Liquid); method: Vibrating tube method
Temperature, K	Mole fraction of 1-decyl-3-methylimidazolium chloride	Mass density, kg/m3	uncertainty
283	0	999.713	0.104
283	0.000105	999.733	0.104
283	0.000185	999.76	0.104
283	0.000277	999.776	0.104
283	0.000377	999.82	0.104
283	0.000452	999.839	0.104
283	0.000546	999.878	0.104
283	0.000728	999.945	0.104
283	0.000836	999.997	0.104
283	0.001002	1000.046	0.104
283	0.001099	1000.052	0.104
283	0.00118	1000.096	0.104
283	0.001259	1000.111	0.104
283	0.001351	1000.13	0.104
283	0.001452	1000.136	0.105
283	0.001539	1000.141	0.105
283	0.001631	1000.137	0.105
283	0.001869	1000.133	0.105
283	0.001988	1000.128	0.105
288	0	999.13	0.105
288	0.000105	999.142	0.105
288	0.000185	999.164	0.105
288	0.000277	999.176	0.105
288	0.000377	999.206	0.105
288	0.000452	999.216	0.105
288	0.000546	999.247	0.105
288	0.000728	999.3	0.105
288	0.000836	999.347	0.105
288	0.001002	999.38	0.105
288	0.001099	999.375	0.105
288	0.00118	999.412	0.105
288	0.001259	999.417	0.105
288	0.001351	999.423	0.105
288	0.001452	999.42	0.105
288	0.001539	999.421	0.105
288	0.001631	999.412	0.105
288	0.001869	999.393	0.105
288	0.001988	999.38	0.105
293	0	998.247	0.105
293	0.000105	998.25	0.105
293	0.000185	998.269	0.105
293	0.000277	998.279	0.105
293	0.000377	998.297	0.105
293	0.000452	998.301	0.105
293	0.000546	998.325	0.105
293	0.000728	998.361	0.105
293	0.000836	998.402	0.105
293	0.001002	998.424	0.105
293	0.001099	998.408	0.105
293	0.00118	998.437	0.105
293	0.001259	998.436	0.105
293	0.001351	998.434	0.105
293	0.001452	998.423	0.105
293	0.001539	998.415	0.105
293	0.001631	998.403	0.105
293	0.001869	998.372	0.105
293	0.001988	998.354	0.105
298	0	997.099	0.105
298	0.000105	997.096	0.105
298	0.000185	997.108	0.105
298	0.000277	997.114	0.105
298	0.000377	997.124	0.105
298	0.000452	997.122	0.105
298	0.000546	997.141	0.105
298	0.000728	997.166	0.105
298	0.000836	997.199	0.105
298	0.001002	997.205	0.105
298	0.001099	997.182	0.105
298	0.00118	997.205	0.105
298	0.001259	997.199	0.105
298	0.001351	997.192	0.105
298	0.001452	997.175	0.105
298	0.001539	997.164	0.105
298	0.001631	997.146	0.105
298	0.001869	997.078	0.105
298	0.001988	997.079	0.105
303	0	995.709	0.105
303	0.000105	995.704	0.105
303	0.000185	995.706	0.105
303	0.000277	995.707	0.105
303	0.000377	995.711	0.105
303	0.000452	995.705	0.105
303	0.000546	995.718	0.105
303	0.000728	995.732	0.105
303	0.000836	995.759	0.105
303	0.001002	995.75	0.105
303	0.001099	995.72	0.105
303	0.00118	995.739	0.105
303	0.001259	995.728	0.105
303	0.001351	995.715	0.105
303	0.001452	995.694	0.105
303	0.001539	995.683	0.105
303	0.001631	995.659	0.105
303	0.001869	995.549	0.105
303	0.001988	995.574	0.105
308	0	994.099	0.105
308	0.000105	994.091	0.105
308	0.000185	994.084	0.105
308	0.000277	994.08	0.105
308	0.000377	994.079	0.105
308	0.000452	994.068	0.105
308	0.000546	994.074	0.105
308	0.000728	994.082	0.105
308	0.000836	994.1	0.105
308	0.001002	994.083	0.105
308	0.001099	994.044	0.105
308	0.00118	994.057	0.105
308	0.001259	994.044	0.105
308	0.001351	994.028	0.105
308	0.001452	994.006	0.105
308	0.001539	993.985	0.105
308	0.001631	993.962	0.105
308	0.001869	993.807	0.105
308	0.001988	993.859	0.105
313	0	992.25	0.106
313	0.000105	992.269	0.105
313	0.000185	992.257	0.105
313	0.000277	992.252	0.106
313	0.000377	992.242	0.106
313	0.000452	992.229	0.106
313	0.000546	992.227	0.106
313	0.000728	992.229	0.106
313	0.000836	992.239	0.106
313	0.001002	992.214	0.106
313	0.001099	992.17	0.106
313	0.00118	992.176	0.106
313	0.001259	992.167	0.106
313	0.001351	992.142	0.106
313	0.001452	992.118	0.106
313	0.001539	992.095	0.106
313	0.001631	992.066	0.106
313	0.001869	991.864	0.106
313	0.001988	991.947	0.106

System: water + 1-decyl-3-methylimidazolium chloride; phases: Liquid
Fixed: Pressure, kPa = 101
Property: Speed of sound, m/s (Liquid); method: Sing-around technique in a fixed-path interferometer
Temperature, K	Mole fraction of 1-decyl-3-methylimidazolium chloride	Speed of sound, m/s	uncertainty
283	0	1448.35	1.2
283	0.000105	1449.88	1.2
283	0.000185	1451.09	1.2
283	0.000277	1452.39	1.2
283	0.000377	1453.86	1.2
283	0.000452	1454.58	1.2
283	0.000546	1455.82	1.2
283	0.000728	1458.49	1.2
283	0.000836	1460.33	1.2
283	0.001002	1462.63	1.2
283	0.001099	1463.73	1.2
283	0.00118	1464.73	1.2
283	0.001259	1465	1.2
283	0.001351	1465.9	1.2
283	0.001452	1466.55	1.2
283	0.001539	1467.1	1.2
283	0.001631	1467.91	1.2
283	0.001869	1468.9	1.2
283	0.001988	1469.34	1.2
288	0	1466.46	1.2
288	0.000105	1467.85	1.2
288	0.000185	1468.9	1.2
288	0.000277	1470.15	1.2
288	0.000377	1471.48	1.21
288	0.000452	1472.37	1.21
288	0.000546	1473.53	1.21
288	0.000728	1475.99	1.21
288	0.000836	1477.47	1.21
288	0.001002	1479.5	1.21
288	0.001099	1480.48	1.21
288	0.00118	1481.3	1.21
288	0.001259	1481.7	1.21
288	0.001351	1482.45	1.21
288	0.001452	1483.05	1.21
288	0.001539	1483.42	1.21
288	0.001631	1483.9	1.21
288	0.001869	1484.77	1.21
288	0.001988	1485.17	1.21
293	0	1482.66	1.21
293	0.000105	1483.92	1.21
293	0.000185	1484.89	1.21
293	0.000277	1486.05	1.21
293	0.000377	1487.25	1.21
293	0.000452	1488.1	1.21
293	0.000546	1489.18	1.21
293	0.000728	1491.44	1.21
293	0.000836	1492.77	1.21
293	0.001002	1494.58	1.21
293	0.001099	1495.4	1.21
293	0.00118	1496.09	1.21
293	0.001259	1496.46	1.21
293	0.001351	1497.06	1.21
293	0.001452	1497.6	1.21
293	0.001539	1497.89	1.21
293	0.001631	1498.27	1.21
293	0.001869	1499.01	1.21
293	0.001988	1499.36	1.21
298	0	1496.88	1.21
298	0.000105	1498.03	1.21
298	0.000185	1498.91	1.21
298	0.000277	1499.99	1.21
298	0.000377	1501.08	1.21
298	0.000452	1501.85	1.21
298	0.000546	1502.85	1.21
298	0.000728	1504.93	1.21
298	0.000836	1506.14	1.21
298	0.001002	1507.74	1.21
298	0.001099	1508.43	1.21
298	0.00118	1509.04	1.21
298	0.001259	1509.36	1.21
298	0.001351	1509.88	1.21
298	0.001452	1510.35	1.21
298	0.001539	1510.58	1.21
298	0.001631	1510.9	1.21
298	0.001869	1511.52	1.21
298	0.001988	1511.82	1.21
303	0	1509.25	1.21
303	0.000105	1510.3	1.21
303	0.000185	1511.11	1.21
303	0.000277	1512.1	1.21
303	0.000377	1513.09	1.21
303	0.000452	1513.81	1.21
303	0.000546	1514.73	1.21
303	0.000728	1516.63	1.21
303	0.000836	1517.74	1.21
303	0.001002	1519.16	1.21
303	0.001099	1519.73	1.21
303	0.00118	1520.28	1.21
303	0.001259	1520.58	1.21
303	0.001351	1521.01	1.21
303	0.001452	1521.46	1.21
303	0.001539	1521.61	1.21
303	0.001631	1521.87	1.21
303	0.001869	1522.39	1.21
303	0.001988	1522.64	1.21
308	0	1519.94	1.21
308	0.000105	1520.89	1.21
308	0.000185	1521.62	1.21
308	0.000277	1522.53	1.21
308	0.000377	1523.43	1.21
308	0.000452	1524.08	1.21
308	0.000546	1524.93	1.21
308	0.000728	1526.67	1.21
308	0.000836	1527.67	1.22
308	0.001002	1528.94	1.22
308	0.001099	1529.41	1.22
308	0.00118	1529.9	1.22
308	0.001259	1530.18	1.22
308	0.001351	1530.55	1.22
308	0.001452	1530.98	1.22
308	0.001539	1531.07	1.22
308	0.001631	1531.28	1.22
308	0.001869	1531.7	1.22
308	0.001988	1531.9	1.22
313	0	1529.02	1.22
313	0.000105	1529.88	1.22
313	0.000185	1530.54	1.22
313	0.000277	1531.37	1.22
313	0.000377	1532.18	1.22
313	0.000452	1532.77	1.22
313	0.000546	1533.55	1.22
313	0.000728	1535.14	1.22
313	0.000836	1536.05	1.22
313	0.001002	1537.18	1.22
313	0.001099	1537.58	1.22
313	0.00118	1538.03	1.22
313	0.001259	1538.3	1.22
313	0.001351	1538.61	1.22
313	0.001452	1539.02	1.22
313	0.001539	1539.04	1.22
313	0.001631	1539.21	1.22
313	0.001869	1539.55	1.22
313	0.001988	1539.7	1.22

System: water + 1-dodecyl-3-methylimidazolium chloride; phases: Liquid
Fixed: Pressure, kPa = 101
Property: Mass density, kg/m3 (Liquid); method: Vibrating tube method
Temperature, K	Mole fraction of 1-dodecyl-3-methylimidazolium chloride	Mass density, kg/m3	uncertainty
283	0	999.719	0.104
283	2.7e-05	999.688	0.104
283	3e-05	999.704	0.104
283	4.8e-05	999.71	0.1
283	7.4e-05	999.71	0.1
283	9.4e-05	999.705	0.104
283	0.000109	999.71	0.1
283	0.000129	999.718	0.104
283	0.000145	999.717	0.104
283	0.000163	999.735	0.104
283	0.000181	999.724	0.104
283	0.000208	999.73	0.1
283	0.000234	999.729	0.104
283	0.000248	999.744	0.104
283	0.000273	999.743	0.104
283	0.000286	999.744	0.104
283	0.000302	999.732	0.104
283	0.000319	999.749	0.104
283	0.000341	999.737	0.104
283	0.000384	999.728	0.104
283	0.000407	999.721	0.104
283	0.000428	999.712	0.104
288	0	999.129	0.105
288	2.7e-05	999.099	0.105
288	3e-05	999.118	0.105
288	4.8e-05	999.119	0.105
288	7.4e-05	999.115	0.105
288	9.4e-05	999.109	0.105
288	0.000109	999.114	0.105
288	0.000129	999.12	0.1
288	0.000145	999.116	0.105
288	0.000163	999.133	0.105
288	0.000181	999.119	0.105
288	0.000208	999.122	0.105
288	0.000234	999.12	0.1
288	0.000248	999.133	0.105
288	0.000273	999.127	0.105
288	0.000286	999.125	0.105
288	0.000302	999.113	0.105
288	0.000319	999.128	0.105
288	0.000341	999.116	0.105
288	0.000384	999.108	0.105
288	0.000407	999.096	0.105
288	0.000428	999.082	0.105
293	0	998.238	0.105
293	2.7e-05	998.213	0.105
293	3e-05	998.232	0.105
293	4.8e-05	998.233	0.105
293	7.4e-05	998.224	0.105
293	9.4e-05	998.217	0.105
293	0.000109	998.222	0.105
293	0.000129	998.227	0.105
293	0.000145	998.219	0.105
293	0.000163	998.236	0.105
293	0.000181	998.221	0.105
293	0.000208	998.22	0.1
293	0.000234	998.218	0.105
293	0.000248	998.227	0.105
293	0.000273	998.218	0.105
293	0.000286	998.214	0.105
293	0.000302	998.2	0.1
293	0.000319	998.213	0.105
293	0.000341	998.199	0.105
293	0.000384	998.191	0.105
293	0.000407	998.175	0.105
293	0.000428	998.16	0.1
298	0	997.083	0.105
298	2.7e-05	997.065	0.105
298	3e-05	997.081	0.105
298	4.8e-05	997.081	0.105
298	7.4e-05	997.07	0.1
298	9.4e-05	997.061	0.105
298	0.000109	997.064	0.105
298	0.000129	997.078	0.105
298	0.000145	997.058	0.105
298	0.000163	997.076	0.105
298	0.000181	997.056	0.105
298	0.000208	997.055	0.105
298	0.000234	997.049	0.105
298	0.000248	997.059	0.105
298	0.000273	997.045	0.105
298	0.000286	997.042	0.105
298	0.000302	997.023	0.105
298	0.000319	997.039	0.105
298	0.000341	997.023	0.105
298	0.000384	997.011	0.105
298	0.000407	996.995	0.105
298	0.000428	996.98	0.11
303	0	995.697	0.105
303	2.7e-05	995.678	0.105
303	3e-05	995.688	0.105
303	4.8e-05	995.688	0.105
303	7.4e-05	995.68	0.11
303	9.4e-05	995.666	0.105
303	0.000109	995.667	0.105
303	0.000129	995.679	0.105
303	0.000145	995.66	0.11
303	0.000163	995.674	0.105
303	0.000181	995.656	0.105
303	0.000208	995.653	0.105
303	0.000234	995.647	0.105
303	0.000248	995.65	0.11
303	0.000273	995.635	0.105
303	0.000286	995.632	0.105
303	0.000302	995.606	0.105
303	0.000319	995.625	0.105
303	0.000341	995.608	0.105
303	0.000384	995.594	0.105
303	0.000407	995.571	0.105
303	0.000428	995.568	0.105
308	0	994.091	0.105
308	2.7e-05	994.072	0.105
308	3e-05	994.075	0.105
308	4.8e-05	994.073	0.105
308	7.4e-05	994.068	0.105
308	9.4e-05	994.05	0.11
308	0.000109	994.047	0.105
308	0.000129	994.059	0.105
308	0.000145	994.046	0.105
308	0.000163	994.052	0.105
308	0.000181	994.039	0.105
308	0.000208	994.032	0.105
308	0.000234	994.027	0.105
308	0.000248	994.022	0.105
308	0.000273	994.008	0.105
308	0.000286	994.004	0.105
308	0.000302	993.979	0.105
308	0.000319	993.993	0.105
308	0.000341	993.986	0.105
308	0.000384	993.958	0.105
308	0.000407	993.935	0.105
308	0.000428	993.939	0.105
313	0	992.27	0.105
313	2.7e-05	992.261	0.106
313	3e-05	992.046	0.106
313	7.4e-05	992.253	0.106
313	9.4e-05	992.137	0.106
313	0.000109	992.207	0.106
313	0.000129	992.221	0.106
313	0.000145	992.226	0.106
313	0.000163	992.224	0.106
313	0.000181	992.217	0.106
313	0.000208	992.206	0.106
313	0.000234	992.203	0.106
313	0.000248	992.194	0.106
313	0.000273	992.178	0.106
313	0.000286	992.177	0.106
313	0.000302	992.159	0.106
313	0.000319	992.158	0.106
313	0.000341	992.147	0.106
313	0.000384	992.121	0.106
313	0.000407	992.068	0.106
313	0.000428	992.103	0.106

System: water + 1-dodecyl-3-methylimidazolium chloride; phases: Liquid
Fixed: Pressure, kPa = 101
Property: Speed of sound, m/s (Liquid); method: Sing-around technique in a fixed-path interferometer
Temperature, K	Mole fraction of 1-dodecyl-3-methylimidazolium chloride	Speed of sound, m/s	uncertainty
283	0	1448.35	1.2
283	0.0027	1448.37	1.2
283	0.003	1448.52	1.2
283	0.0048	1448.82	1.2
283	0.0074	1449.34	1.2
283	0.0094	1449.69	1.2
283	0.0109	1449.93	1.2
283	0.0129	1450.23	1.2
283	0.0145	1450.5	1.2
283	0.0163	1450.82	1.2
283	0.0181	1451.18	1.2
283	0.0208	1451.66	1.21
283	0.0234	1451.95	1.21
283	0.0248	1452.17	1.21
283	0.0273	1452.63	1.21
283	0.0286	1452.73	1.21
283	0.0302	1452.83	1.21
283	0.0319	1453.07	1.21
283	0.0341	1453.5	1.21
283	0.0384	1453.49	1.21
283	0.0407	1453.68	1.21
283	0.0428	1453.74	1.21
288	0	1466.46	1.2
288	0.0027	1466.7	1.2
288	0.003	1466.8	1.2
288	0.0048	1467.1	1.21
288	0.0074	1467.57	1.21
288	0.0094	1467.89	1.21
288	0.0109	1468.12	1.21
288	0.0129	1468.39	1.21
288	0.0145	1468.63	1.21
288	0.0163	1468.94	1.21
288	0.0181	1469.23	1.21
288	0.0208	1469.68	1.21
288	0.0234	1469.98	1.21
288	0.0248	1470.16	1.21
288	0.0273	1470.52	1.21
288	0.0286	1470.61	1.21
288	0.0302	1470.67	1.21
288	0.0319	1470.86	1.21
288	0.0341	1471.01	1.21
288	0.0384	1470.98	1.21
288	0.0407	1471.18	1.21
288	0.0428	1471.23	1.21
293	0	1482.66	1.21
293	0.0027	1482.91	1.21
293	0.003	1482.97	1.21
293	0.0048	1483.26	1.21
293	0.0074	1483.69	1.21
293	0.0094	1483.98	1.21
293	0.0109	1484.21	1.21
293	0.0129	1484.45	1.21
293	0.0145	1484.67	1.21
293	0.0163	1484.95	1.21
293	0.0181	1485.21	1.21
293	0.0208	1485.62	1.21
293	0.0234	1485.9	1.21
293	0.0248	1486.05	1.21
293	0.0273	1486.34	1.21
293	0.0286	1486.42	1.21
293	0.0302	1486.46	1.21
293	0.0319	1486.62	1.21
293	0.0341	1486.74	1.21
293	0.0384	1486.67	1.22
293	0.0407	1486.87	1.22
293	0.0428	1486.93	1.22
298	0	1496.88	1.21
298	0.0027	1497.11	1.21
298	0.003	1497.17	1.21
298	0.0048	1497.43	1.21
298	0.0074	1497.82	1.21
298	0.0094	1498.1	1.21
298	0.0109	1498.3	1.21
298	0.0129	1498.53	1.21
298	0.0145	1498.73	1.21
298	0.0163	1498.99	1.21
298	0.0181	1499.22	1.21
298	0.0208	1499.59	1.21
298	0.0234	1499.84	1.21
298	0.0248	1499.97	1.21
298	0.0273	1500.22	1.22
298	0.0286	1500.28	1.22
298	0.0302	1500.32	1.22
298	0.0319	1500.46	1.22
298	0.0341	1500.55	1.22
298	0.0384	1500.48	1.22
298	0.0407	1500.66	1.22
298	0.0428	1500.71	1.22
303	0	1509.25	1.21
303	0.0027	1509.48	1.21
303	0.003	1509.52	1.21
303	0.0048	1509.77	1.21
303	0.0074	1510.13	1.21
303	0.0094	1510.37	1.21
303	0.0109	1510.57	1.21
303	0.0129	1510.77	1.21
303	0.0145	1510.96	1.21
303	0.0163	1511.2	1.21
303	0.0181	1511.41	1.22
303	0.0208	1511.75	1.22
303	0.0234	1511.97	1.22
303	0.0248	1512.08	1.22
303	0.0273	1512.3	1.22
303	0.0286	1512.35	1.22
303	0.0302	1512.4	1.22
303	0.0319	1512.51	1.22
303	0.0341	1512.58	1.22
303	0.0384	1512.49	1.22
303	0.0407	1512.67	1.22
303	0.0428	1512.7	1.22
308	0	1519.94	1.21
308	0.0027	1520.14	1.21
308	0.003	1520.18	1.21
308	0.0048	1520.4	1.21
308	0.0074	1520.73	1.21
308	0.0094	1520.96	1.22
308	0.0109	1521.14	1.22
308	0.0129	1521.32	1.22
308	0.0145	1521.49	1.22
308	0.0163	1521.71	1.22
308	0.0181	1521.9	1.22
308	0.0208	1522.2	1.22
308	0.0234	1522.4	1.22
308	0.0248	1522.52	1.22
308	0.0273	1522.7	1.22
308	0.0286	1522.75	1.22
308	0.0302	1522.8	1.22
308	0.0319	1522.89	1.22
308	0.0341	1522.95	1.22
308	0.0384	1522.84	1.22
308	0.0407	1523.02	1.22
308	0.0428	1523.04	1.22
313	0	1529.02	1.22
313	0.0027	1529.21	1.22
313	0.003	1529.24	1.22
313	0.0074	1529.74	1.22
313	0.0094	1529.95	1.22
313	0.0109	1530.12	1.22
313	0.0129	1530.28	1.22
313	0.0145	1530.43	1.22
313	0.0163	1530.63	1.22
313	0.0181	1530.8	1.22
313	0.0208	1531.08	1.22
313	0.0234	1531.26	1.22
313	0.0248	1531.37	1.22
313	0.0273	1531.54	1.22
313	0.0286	1531.59	1.22
313	0.0302	1531.64	1.22
313	0.0319	1531.71	1.22
313	0.0341	1531.75	1.22
313	0.0384	1531.64	1.22
313	0.0407	1531.81	1.22
313	0.0428	1531.82	1.23
