Measured thermophysical data. New experimental heat capacity and enthalpy of formation of lithium cobalt oxide
Source: J. Chem. Thermodyn., 2015, 10.1016/j.jct.2014.12.007
Compound 1: lithium, Li, InChI=1S/Li
Compound 2: cobalt, Co, InChI=1S/Co
Compound 3: oxygen, O2, InChI=1S/O2/c1-2
Compound 4: cobalt lithium oxide (LiCoO2), CoLiO2, InChI=1S/Co.Li.2O/q+3;+1;2*-2, purity 95%

System: cobalt lithium oxide (LiCoO2); phases: Crystal
Fixed: Pressure, kPa = 101.325
Property: Molar heat capacity at constant pressure, J/K/mol (Crystal); method: Small sample (50 mg) DSC
Temperature, K	Molar heat capacity at constant pressure, J/K/mol	uncertainty
160	37.11	1.22
180	43.4	1.25
200	49.57	1.28
220	55.17	1.3
240	60	1.32
260	64.44	1.35
280	68.7	2.34
298.15	71.52	2.35
310	73.35	2.36
330	76.51	2.38
350	79.02	2.39
370	80.99	2.4
390	82.81	2.41
410	84.79	2.42
430	86.05	2.43
450	87.26	2.44
470	88.29	2.45
490	89.43	2.45
510	90.41	2.46
530	91.56	2.47
550	92.7	2.48
570	93.62	2.48
590	94.18	2.49
610	95.13	2.5
630	96.06	2.5
650	96.54	2.51
670	97.3	2.51
690	97.51	2.51
710	97.97	2.52
730	98.66	2.52
750	99.28	2.53
773.2	100.1	2.53

System: cobalt lithium oxide (LiCoO2); phases: Crystal
Fixed: Pressure, kPa = 101.325
Property: Molar heat capacity at constant pressure, J/K/mol (Crystal); method: Small sample (50 mg) DSC
Temperature, K	Molar heat capacity at constant pressure, J/K/mol	uncertainty
450	86.87	1.59
470	87.9	1.6
490	89.19	1.61
510	90.15	1.62
530	91.08	1.63
550	92.02	1.64
570	92.7	1.65
590	93.51	1.66
610	94.1	1.67
630	94.9	1.68
650	95.49	1.68
670	96.07	1.69
690	96.58	1.69
710	97.11	1.7
730	97.63	1.71
750	98.19	1.71
770	98.96	1.72
790	99.57	1.73
810	100.23	2.96
850	101.9	2.97
830	101.26	2.97
870	102.5	2.98
890	102.96	2.98
910	103.45	2.98
930	104.02	2.99
953.2	104.64	2.99

System: cobalt lithium oxide (LiCoO2); phases: Crystal
Fixed: Pressure, kPa = 101.325
Property: Molar heat capacity at constant pressure, J/K/mol (Crystal); method: Large sample (1 g) DSC
Temperature, K	Molar heat capacity at constant pressure, J/K/mol	uncertainty
500.9	91.02	2.72
521.4	90.89	2.72
542.1	92.06	2.73
562.5	93.77	2.74
583.1	93.95	2.74
603.2	95.31	2.75
623.8	94.23	2.75
644.2	96.3	2.76
664.3	95.13	2.75
684.7	96.77	2.77

System: cobalt lithium oxide (LiCoO2); phases: Crystal
Property: Molar enthalpy, kJ/mol (Crystal); method: Drop calorimetry
Temperature, K	Pressure, kPa	Molar enthalpy, kJ/mol	uncertainty
974.15	101.325	63.35	1.5

Reaction: -1 lithium + -1 cobalt + 1 cobalt lithium oxide (LiCoO2) + -1 oxygen
Property: Molar enthalpy of reaction, kJ/mol
-682.25
