Measured thermophysical data. FT-IR studies on excess thermodynamic properties of binary liquid mixtures o-chlorotoluene with 1-propanol, 1-butanol, 1-pentanol, 1-hexanol and 1-heptanol at different temperatures
Source: J. Chem. Thermodyn., 2013, 10.1016/j.jct.2013.08.013
Compound 1: 2-chlorotoluene, C7H7Cl, InChI=1S/C7H7Cl/c1-6-4-2-3-5-7(6)8/h2-5H,1H3, purity 99.5%
Compound 2: propan-1-ol, C3H8O, InChI=1S/C3H8O/c1-2-3-4/h4H,2-3H2,1H3, purity 99.5%
Compound 3: butan-1-ol, C4H10O, InChI=1S/C4H10O/c1-2-3-4-5/h5H,2-4H2,1H3, purity 99.5%
Compound 4: pentan-1-ol, C5H12O, InChI=1S/C5H12O/c1-2-3-4-5-6/h6H,2-5H2,1H3, purity 99%
Compound 5: hexan-1-ol, C6H14O, InChI=1S/C6H14O/c1-2-3-4-5-6-7/h7H,2-6H2,1H3, purity 98.5%
Compound 6: heptan-1-ol, C7H16O, InChI=1S/C7H16O/c1-2-3-4-5-6-7-8/h8H,2-7H2,1H3, purity 99.5%

System: 2-chlorotoluene; phases: Liquid
Fixed: Pressure, kPa = 101
Property: Mass density, kg/m3 (Liquid); method: Vibrating tube method
Temperature, K	Mass density, kg/m3	uncertainty
298.15	1077.38	0.15
303.15	1072.8	0.15
308.15	1068.21	0.15

System: 2-chlorotoluene; phases: Liquid
Fixed: Pressure, kPa = 101
Fixed: Frequency, MHz = 2
Property: Speed of sound, m/s (Liquid); method: Linear variable-path acoustic interferometer
Temperature, K	Speed of sound, m/s	uncertainty
298.15	1299.82	1.9
303.15	1283.61	1.88
308.15	1265.64	1.87

System: propan-1-ol; phases: Liquid
Fixed: Pressure, kPa = 101
Property: Mass density, kg/m3 (Liquid); method: Vibrating tube method
Temperature, K	Mass density, kg/m3	uncertainty
298.15	799.65	0.17
303.15	795.65	0.17
308.15	791.65	0.17

System: propan-1-ol; phases: Liquid
Fixed: Pressure, kPa = 101
Fixed: Frequency, MHz = 2
Property: Speed of sound, m/s (Liquid); method: Linear variable-path acoustic interferometer
Temperature, K	Speed of sound, m/s	uncertainty
298.15	1206.54	1.81
303.15	1188.64	1.8
308.15	1171.81	1.78

System: butan-1-ol; phases: Liquid
Fixed: Pressure, kPa = 101
Property: Mass density, kg/m3 (Liquid); method: Vibrating tube method
Temperature, K	Mass density, kg/m3	uncertainty
298.15	805.95	0.16
303.15	802.11	0.17
308.15	798.24	0.17

System: butan-1-ol; phases: Liquid
Fixed: Pressure, kPa = 101
Fixed: Frequency, MHz = 2
Property: Speed of sound, m/s (Liquid); method: Linear variable-path acoustic interferometer
Temperature, K	Speed of sound, m/s	uncertainty
298.15	1238.94	1.84
303.15	1223.41	1.82
308.15	1206.83	1.81

System: pentan-1-ol; phases: Liquid
Fixed: Pressure, kPa = 101
Property: Mass density, kg/m3 (Liquid); method: Vibrating tube method
Temperature, K	Mass density, kg/m3	uncertainty
298.15	810.82	0.24
303.15	807.1	0.24
308.15	803.38	0.24

System: pentan-1-ol; phases: Liquid
Fixed: Pressure, kPa = 101
Fixed: Frequency, MHz = 2
Property: Speed of sound, m/s (Liquid); method: Linear variable-path acoustic interferometer
Temperature, K	Speed of sound, m/s	uncertainty
298.15	1276.23	2.07
303.15	1259.46	2.04
308.15	1248.06	2.03

System: hexan-1-ol; phases: Liquid
Fixed: Pressure, kPa = 101
Property: Mass density, kg/m3 (Liquid); method: Vibrating tube method
Temperature, K	Mass density, kg/m3	uncertainty
298.15	815.31	0.4
303.15	811.7	0.4
308.15	808.06	0.4

System: hexan-1-ol; phases: Liquid
Fixed: Pressure, kPa = 101
Fixed: Frequency, MHz = 2
Property: Speed of sound, m/s (Liquid); method: Linear variable-path acoustic interferometer
Temperature, K	Speed of sound, m/s	uncertainty
298.15	1303.22	2.37
303.15	1286.43	2.36
308.15	1269.66	2.34

System: heptan-1-ol; phases: Liquid
Fixed: Pressure, kPa = 101
Property: Mass density, kg/m3 (Liquid); method: Vibrating tube method
Temperature, K	Mass density, kg/m3	uncertainty
298.15	818.79	0.16
303.15	815.21	0.16
308.15	811.62	0.16

System: heptan-1-ol; phases: Liquid
Fixed: Pressure, kPa = 101
Fixed: Frequency, MHz = 2
Property: Speed of sound, m/s (Liquid); method: Linear variable-path acoustic interferometer
Temperature, K	Speed of sound, m/s	uncertainty
298.15	1326.48	1.91
303.15	1313.58	1.91
308.15	1293.14	1.91

System: propan-1-ol + 2-chlorotoluene; phases: Liquid
Fixed: Pressure, kPa = 101
Property: Mass density, kg/m3 (Liquid); method: Vibrating tube method
Temperature, K	Mole fraction of 2-chlorotoluene	Mass density, kg/m3	uncertainty
298.15	0	799.65	0.17
298.15	0.089	837.16	0.18
298.15	0.1947	877.01	0.17
298.15	0.2938	910.41	0.16
298.15	0.3841	937.91	0.15
298.15	0.4898	967.13	0.14
298.15	0.5918	992.79	0.14
298.15	0.6979	1017.16	0.14
298.15	0.7955	1037.96	0.15
298.15	0.8932	1057.42	0.15
298.15	1	1077.38	0.15
303.15	0	795.65	0.17
303.15	0.089	832.98	0.18
303.15	0.1947	872.53	0.17
303.15	0.2938	905.71	0.16
303.15	0.3841	933.15	0.15
303.15	0.4898	962.37	0.15
303.15	0.5918	988	0.14
303.15	0.6979	1012.42	0.14
303.15	0.7955	1033.25	0.15
303.15	0.8932	1052.78	0.15
303.15	1	1072.8	0.15
308.15	0	791.65	0.17
308.15	0.089	828.75	0.18
308.15	0.1947	868.14	0.17
308.15	0.2938	901.22	0.16
308.15	0.3841	928.51	0.16
308.15	0.4898	957.66	0.15
308.15	0.5918	983.25	0.14
308.15	0.6979	1007.7	0.14
308.15	0.7955	1028.56	0.15
308.15	0.8932	1048.12	0.15
308.15	1	1068.21	0.15

System: propan-1-ol + 2-chlorotoluene; phases: Liquid
Fixed: Pressure, kPa = 101
Fixed: Frequency, MHz = 2
Property: Speed of sound, m/s (Liquid); method: Linear variable-path acoustic interferometer
Temperature, K	Mole fraction of 2-chlorotoluene	Speed of sound, m/s	uncertainty
298.15	0	1206.54	1.81
298.15	0.089	1219.02	1.83
298.15	0.1947	1232	1.84
298.15	0.2938	1242.52	1.86
298.15	0.3841	1249.21	1.86
298.15	0.4898	1257	1.88
298.15	0.5918	1262.54	1.89
298.15	0.6979	1269.01	1.89
298.15	0.7955	1275.32	1.9
298.15	0.8932	1284.42	1.9
298.15	1	1299.82	1.9
303.15	0	1188.64	1.8
303.15	0.089	1200.12	1.81
303.15	0.1947	1212.43	1.83
303.15	0.2938	1221.46	1.84
303.15	0.3841	1228.73	1.85
303.15	0.4898	1234.81	1.86
303.15	0.5918	1240.54	1.86
303.15	0.6979	1246.32	1.87
303.15	0.7955	1253.43	1.87
303.15	0.8932	1264.7	1.88
303.15	1	1283.61	1.88
308.15	0	1171.81	1.78
308.15	0.089	1181.43	1.79
308.15	0.1947	1192.82	1.81
308.15	0.2938	1201.87	1.82
308.15	0.3841	1207.82	1.83
308.15	0.4898	1213.87	1.83
308.15	0.5918	1219.22	1.84
308.15	0.6979	1225.22	1.84
308.15	0.7955	1234	1.84
308.15	0.8932	1245.42	1.85
308.15	1	1265.64	1.87

System: butan-1-ol + 2-chlorotoluene; phases: Liquid
Fixed: Pressure, kPa = 101
Property: Mass density, kg/m3 (Liquid); method: Vibrating tube method
Temperature, K	Mole fraction of 2-chlorotoluene	Mass density, kg/m3	uncertainty
298.15	0	805.95	0.16
298.15	0.0914	837.37	0.17
298.15	0.2026	873.25	0.16
298.15	0.2888	899.51	0.16
298.15	0.3958	930.38	0.15
298.15	0.4973	958.03	0.15
298.15	0.6021	985.11	0.14
298.15	0.6969	1008.43	0.14
298.15	0.7892	1030.29	0.15
298.15	0.894	1054.17	0.15
298.15	1	1077.38	0.15
303.15	0	802.11	0.17
303.15	0.0914	833.28	0.17
303.15	0.2026	868.95	0.17
303.15	0.2888	895.11	0.16
303.15	0.3958	925.85	0.15
303.15	0.4973	953.44	0.15
303.15	0.6021	980.47	0.14
303.15	0.6969	1003.83	0.14
303.15	0.7892	1025.68	0.14
303.15	0.894	1049.55	0.15
303.15	1	1072.8	0.15
308.15	0	798.24	0.17
308.15	0.0914	829.2	0.17
308.15	0.2026	864.69	0.17
308.15	0.2888	890.72	0.16
308.15	0.3958	921.35	0.16
308.15	0.4973	948.87	0.15
308.15	0.6021	975.89	0.14
308.15	0.6969	999.22	0.14
308.15	0.7892	1021.07	0.14
308.15	0.894	1044.94	0.15
308.15	1	1068.21	0.15

System: butan-1-ol + 2-chlorotoluene; phases: Liquid
Fixed: Pressure, kPa = 101
Fixed: Frequency, MHz = 2
Property: Speed of sound, m/s (Liquid); method: Linear variable-path acoustic interferometer
Temperature, K	Mole fraction of 2-chlorotoluene	Speed of sound, m/s	uncertainty
298.15	0	1238.94	1.84
298.15	0.0914	1247.43	1.84
298.15	0.2026	1255.53	1.86
298.15	0.2888	1260.06	1.87
298.15	0.3958	1264.24	1.88
298.15	0.4973	1267.12	1.88
298.15	0.6021	1269.04	1.88
298.15	0.6969	1271.43	1.89
298.15	0.7892	1276.65	1.9
298.15	0.894	1285.62	1.9
298.15	1	1299.82	1.9
303.15	0	1223.41	1.82
303.15	0.0914	1231.43	1.83
303.15	0.2026	1238.19	1.84
303.15	0.2888	1241.12	1.85
303.15	0.3958	1244.13	1.86
303.15	0.4973	1246.02	1.86
303.15	0.6021	1249.21	1.87
303.15	0.6969	1250.43	1.86
303.15	0.7892	1255.44	1.87
303.15	0.894	1266.43	1.88
303.15	1	1283.61	1.88
308.15	0	1206.83	1.81
308.15	0.0914	1213.32	1.82
308.15	0.2026	1219.21	1.83
308.15	0.2888	1222.19	1.83
308.15	0.3958	1224.32	1.84
308.15	0.4973	1226	1.84
308.15	0.6021	1227.41	1.85
308.15	0.6969	1231	1.84
308.15	0.7892	1236.43	1.84
308.15	0.894	1247	1.85
308.15	1	1265.64	1.87

System: pentan-1-ol + 2-chlorotoluene; phases: Liquid
Fixed: Pressure, kPa = 101
Property: Mass density, kg/m3 (Liquid); method: Vibrating tube method
Temperature, K	Mole fraction of 2-chlorotoluene	Mass density, kg/m3	uncertainty
298.15	0	810.82	0.24
298.15	0.0964	838.77	0.23
298.15	0.189	865.02	0.22
298.15	0.294	894.17	0.21
298.15	0.388	919.71	0.2
298.15	0.4962	948.58	0.18
298.15	0.5892	972.97	0.17
298.15	0.697	1000.83	0.16
298.15	0.8057	1028.54	0.16
298.15	0.8949	1051.02	0.16
298.15	1	1077.38	0.15
303.15	0	807.1	0.24
303.15	0.0964	834.85	0.23
303.15	0.189	860.96	0.22
303.15	0.294	889.95	0.21
303.15	0.388	915.37	0.2
303.15	0.4962	944.07	0.18
303.15	0.5892	968.37	0.17
303.15	0.697	996.18	0.16
303.15	0.8057	1023.88	0.16
303.15	0.8949	1046.43	0.16
303.15	1	1072.8	0.15
308.15	0	803.38	0.24
308.15	0.0964	830.94	0.23
308.15	0.189	856.9	0.22
308.15	0.294	885.73	0.21
308.15	0.388	911.06	0.2
308.15	0.4962	939.74	0.18
308.15	0.5892	963.98	0.17
308.15	0.697	991.75	0.16
308.15	0.8057	1019.37	0.16
308.15	0.8949	1041.83	0.16
308.15	1	1068.21	0.15

System: pentan-1-ol + 2-chlorotoluene; phases: Liquid
Fixed: Pressure, kPa = 101
Fixed: Frequency, MHz = 2
Property: Speed of sound, m/s (Liquid); method: Linear variable-path acoustic interferometer
Temperature, K	Mole fraction of 2-chlorotoluene	Speed of sound, m/s	uncertainty
298.15	0	1276.23	2.07
298.15	0.0964	1280.23	2.05
298.15	0.189	1282.2	2.03
298.15	0.294	1281.93	2.01
298.15	0.388	1280.94	2
298.15	0.4962	1279.03	1.98
298.15	0.5892	1277.5	1.96
298.15	0.697	1278.03	1.95
298.15	0.8057	1281	1.93
298.15	0.8949	1287	1.92
298.15	1	1299.82	1.9
303.15	0	1259.46	2.04
303.15	0.0964	1263	2.03
303.15	0.189	1264	2.01
303.15	0.294	1262.52	1.99
303.15	0.388	1260.73	1.97
303.15	0.4962	1258.13	1.95
303.15	0.5892	1255.76	1.93
303.15	0.697	1256.06	1.92
303.15	0.8057	1260.14	1.9
303.15	0.8949	1267.21	1.89
303.15	1	1283.61	1.88
308.15	0	1248.06	2.03
308.15	0.0964	1249.97	2.01
308.15	0.189	1250.2	1.99
308.15	0.294	1247.74	1.97
308.15	0.388	1244.51	1.95
308.15	0.4962	1240.92	1.93
308.15	0.5892	1238.34	1.91
308.15	0.697	1237.97	1.89
308.15	0.8057	1242.24	1.87
308.15	0.8949	1250	1.86
308.15	1	1265.64	1.87

System: 2-chlorotoluene + hexan-1-ol; phases: Liquid
Fixed: Pressure, kPa = 101
Property: Mass density, kg/m3 (Liquid); method: Vibrating tube method
Temperature, K	Mole fraction of 2-chlorotoluene	Mass density, kg/m3	uncertainty
298.15	0	815.31	0.4
298.15	0.0974	839.69	0.37
298.15	0.1968	864.67	0.34
298.15	0.3046	892	0.31
298.15	0.3967	915.57	0.27
298.15	0.489	939.38	0.24
298.15	0.5955	967.24	0.21
298.15	0.6902	992.34	0.19
298.15	0.8086	1024.27	0.18
298.15	0.8949	1047.98	0.17
298.15	1	1077.38	0.15
303.15	0	811.7	0.4
303.15	0.0974	835.89	0.37
303.15	0.1968	860.71	0.34
303.15	0.3046	887.87	0.3
303.15	0.3967	911.34	0.27
303.15	0.489	934.99	0.24
303.15	0.5955	962.7	0.21
303.15	0.6902	987.72	0.19
303.15	0.8086	1019.61	0.17
303.15	0.8949	1043.25	0.17
303.15	1	1072.8	0.15
308.15	0	808.06	0.4
308.15	0.0974	832.09	0.37
308.15	0.1968	856.77	0.34
308.15	0.3046	883.78	0.3
308.15	0.3967	907.1	0.27
308.15	0.489	930.68	0.24
308.15	0.5955	958.3	0.21
308.15	0.6902	983.26	0.19
308.15	0.8086	1015.04	0.17
308.15	0.8949	1038.71	0.17
308.15	1	1068.21	0.15

System: 2-chlorotoluene + hexan-1-ol; phases: Liquid
Fixed: Pressure, kPa = 101
Fixed: Frequency, MHz = 2
Property: Speed of sound, m/s (Liquid); method: Linear variable-path acoustic interferometer
Temperature, K	Mole fraction of 2-chlorotoluene	Speed of sound, m/s	uncertainty
298.15	0	1303.22	2.37
298.15	0.0974	1304.11	2.31
298.15	0.1968	1302	2.25
298.15	0.3046	1298.32	2.19
298.15	0.3967	1294.35	2.14
298.15	0.489	1290.11	2.09
298.15	0.5955	1286.08	2.04
298.15	0.6902	1283.61	2
298.15	0.8086	1284.72	1.96
298.15	0.8949	1289.14	1.93
298.15	1	1299.82	1.9
303.15	0	1286.43	2.36
303.15	0.0974	1287.01	2.3
303.15	0.1968	1284.32	2.24
303.15	0.3046	1280.22	2.18
303.15	0.3967	1275.73	2.13
303.15	0.489	1271.13	2.08
303.15	0.5955	1266.16	2.02
303.15	0.6902	1264.06	1.98
303.15	0.8086	1265.44	1.93
303.15	0.8949	1270.51	1.91
303.15	1	1283.61	1.88
308.15	0	1269.66	2.34
308.15	0.0974	1268.72	2.29
308.15	0.1968	1266.02	2.23
308.15	0.3046	1260.74	2.16
308.15	0.3967	1255.67	2.11
308.15	0.489	1250.92	2.06
308.15	0.5955	1246.34	2
308.15	0.6902	1244.37	1.96
308.15	0.8086	1246.21	1.91
308.15	0.8949	1250.03	1.88
308.15	1	1265.64	1.87

System: 2-chlorotoluene + heptan-1-ol; phases: Liquid
Fixed: Pressure, kPa = 101
Property: Mass density, kg/m3 (Liquid); method: Vibrating tube method
Temperature, K	Mole fraction of 2-chlorotoluene	Mass density, kg/m3	uncertainty
298.15	0	818.79	0.16
298.15	0.0984	840.51	0.16
298.15	0.1921	861.75	0.16
298.15	0.2969	886.24	0.16
298.15	0.3983	910.69	0.15
298.15	0.4949	934.8	0.15
298.15	0.5961	960.97	0.15
298.15	0.7028	989.68	0.14
298.15	0.7968	1016.16	0.15
298.15	0.8993	1046.27	0.16
298.15	1	1077.38	0.15
303.15	0	815.21	0.16
303.15	0.0984	836.79	0.16
303.15	0.1921	857.88	0.16
303.15	0.2969	882.16	0.16
303.15	0.3983	906.43	0.15
303.15	0.4949	930.38	0.15
303.15	0.5961	956.41	0.15
303.15	0.7028	985.06	0.14
303.15	0.7968	1011.5	0.15
303.15	0.8993	1041.59	0.15
303.15	1	1072.8	0.15
308.15	0	811.62	0.16
308.15	0.0984	833.05	0.16
308.15	0.1921	853.98	0.16
308.15	0.2969	878.15	0.16
308.15	0.3983	902.26	0.15
308.15	0.4949	926.11	0.15
308.15	0.5961	952.02	0.15
308.15	0.7028	980.6	0.14
308.15	0.7968	1006.94	0.14
308.15	0.8993	1036.99	0.15
308.15	1	1068.21	0.15

System: 2-chlorotoluene + heptan-1-ol; phases: Liquid
Fixed: Pressure, kPa = 101
Fixed: Frequency, MHz = 2
Property: Speed of sound, m/s (Liquid); method: Linear variable-path acoustic interferometer
Temperature, K	Mole fraction of 2-chlorotoluene	Speed of sound, m/s	uncertainty
298.15	0	1326.48	1.91
298.15	0.0984	1324.41	1.91
298.15	0.1921	1320.13	1.91
298.15	0.2969	1313.62	1.9
298.15	0.3983	1306.55	1.9
298.15	0.4949	1299.31	1.9
298.15	0.5961	1293.48	1.9
298.15	0.7028	1289.22	1.89
298.15	0.7968	1287.72	1.89
298.15	0.8993	1289.14	1.9
298.15	1	1299.82	1.9
303.15	0	1313.58	1.91
303.15	0.0984	1311.01	1.91
303.15	0.1921	1306	1.91
303.15	0.2969	1298.62	1.9
303.15	0.3983	1290.73	1.9
303.15	0.4949	1283.13	1.89
303.15	0.5961	1276.16	1.89
303.15	0.7028	1271.46	1.88
303.15	0.7968	1270.34	1.88
303.15	0.8993	1273.51	1.88
303.15	1	1283.61	1.88
308.15	0	1293.14	1.91
308.15	0.0984	1289.72	1.91
308.15	0.1921	1284.02	1.91
308.15	0.2969	1276.24	1.9
308.15	0.3983	1268.47	1.89
308.15	0.4949	1260.92	1.88
308.15	0.5961	1254.84	1.87
308.15	0.7028	1250.37	1.86
308.15	0.7968	1249.71	1.86
308.15	0.8993	1254.33	1.86
308.15	1	1265.64	1.87
