Measured thermophysical data. Measurement and correlation of the liquid viscosity of trans-1-chloro-3,3,3-trifluoropropene (R1233zd(E))
Source: J. Chem. Thermodyn., 2018, 10.1016/j.jct.2018.04.001
Compound 1: (E)-1-chloro-3,3,3-trifluoroprop-1-ene, C3H2ClF3, InChI=1S/C3H2ClF3/c4-2-1-3(5,6)7/h1-2H/b2-1+, purity 99.9%

System: (E)-1-chloro-3,3,3-trifluoroprop-1-ene; phases: Liquid
Property: Viscosity, Pa*s (Liquid); method: Vibrating wire viscometry
Temperature, K	Pressure, kPa	Viscosity, Pa*s	uncertainty
243.15	200	0.0005325	1.2e-05
243.15	1000	0.000542	1.22e-05
243.14	5000	0.0005536	1.24e-05
243.15	10000	0.0005859	1.3e-05
243.15	20000	0.0006281	1.38e-05
243.15	30000	0.0006899	1.51e-05
243.15	40000	0.0007324	1.59e-05
253.15	200	0.0004733	1.08e-05
253.15	1000	0.0004782	1.09e-05
253.15	5000	0.0004887	1.11e-05
253.15	10000	0.0005179	1.17e-05
253.14	20000	0.0005583	1.25e-05
253.15	30000	0.0006008	1.33e-05
253.15	40000	0.0006521	1.43e-05
263.14	200	0.0004168	9.7e-06
263.15	1000	0.0004194	9.8e-06
263.15	5000	0.000433	1e-05
263.15	10000	0.000455	1.05e-05
263.15	20000	0.0004998	1.13e-05
263.15	30000	0.000539	1.21e-05
263.16	40000	0.0005767	1.28e-05
273.15	200	0.0003733	8.9e-06
273.15	1000	0.0003741	8.9e-06
273.15	5000	0.0003892	9.2e-06
273.15	10000	0.0004091	9.6e-06
273.15	20000	0.0004448	1.03e-05
273.14	30000	0.0004792	1.09e-05
273.15	40000	0.0005197	1.17e-05
283.14	200	0.0003347	8.2e-06
283.15	1000	0.0003363	8.2e-06
283.15	5000	0.000351	8.5e-06
283.14	10000	0.0003688	8.8e-06
283.15	20000	0.0004033	9.5e-06
283.15	30000	0.0004368	1.01e-05
283.15	40000	0.0004708	1.08e-05
293.15	200	0.0003004	7.6e-06
293.15	1000	0.0003033	7.6e-06
293.15	5000	0.000316	7.9e-06
293.15	10000	0.0003332	8.2e-06
293.14	20000	0.0003656	8.8e-06
293.15	30000	0.0003971	9.4e-06
293.14	40000	0.000428	9.9e-06
303.15	200	0.0002719	7.1e-06
303.15	1000	0.0002743	7.1e-06
303.15	5000	0.0002874	7.3e-06
303.15	10000	0.0003033	7.6e-06
303.15	20000	0.0003337	8.2e-06
303.15	30000	0.0003635	8.7e-06
303.16	40000	0.000393	9.3e-06
313.15	300	0.0002464	6.6e-06
313.16	1000	0.0002489	6.7e-06
313.16	5000	0.0002611	6.9e-06
313.15	10000	0.0002767	7.2e-06
313.15	20000	0.0003058	7.7e-06
313.15	30000	0.0003337	8.2e-06
313.15	40000	0.0003611	8.7e-06
323.15	400	0.0002243	6.2e-06
323.15	1000	0.0002267	6.3e-06
323.15	5000	0.0002393	6.5e-06
323.15	10000	0.000254	6.8e-06
323.15	20000	0.0002819	7.2e-06
323.15	30000	0.0003084	7.7e-06
323.14	40000	0.0003345	8.2e-06
333.15	500	0.0002047	5.9e-06
333.15	1000	0.0002069	6e-06
333.15	5000	0.0002192	6.2e-06
333.15	10000	0.0002344	6.4e-06
333.15	20000	0.000262	6.9e-06
333.15	30000	0.0002888	7.4e-06
333.15	40000	0.0003147	7.8e-06
343.15	600	0.0001887	5.7e-06
343.15	1000	0.0001903	5.7e-06
343.15	5000	0.0002029	5.9e-06
343.15	10000	0.0002179	6.1e-06
343.15	20000	0.000245	6.6e-06
343.14	30000	0.0002702	7e-06
343.14	40000	0.0002946	7.5e-06
353.15	5000	0.0001846	5.6e-06
353.14	10000	0.0001999	5.8e-06
353.15	20000	0.0002277	6.3e-06
353.14	30000	0.0002503	6.7e-06
353.15	40000	0.0002733	7.1e-06
363.15	5010	0.0001701	5.4e-06
363.15	10000	0.0001845	5.6e-06
363.15	20000	0.0002107	6e-06
363.16	30000	0.0002345	6.4e-06
363.15	40000	0.000257	6.8e-06
373.15	5000	0.0001581	5.2e-06
373.15	10000	0.0001734	5.4e-06
373.15	20000	0.0001996	5.8e-06
373.15	30000	0.0002229	6.2e-06
373.14	40000	0.0002449	6.6e-06
