Measured thermophysical data. Excess molar enthalpies of the ternary mixtures: methyl tert-butyl ether +2-methylpentane + (n-decane or n-dodecane) at the temperature 298.15 K
Source: J. Chem. Thermodyn., 2004, 10.1016/j.jct.2004.05.006
Compound 1: 2-methylpentane, C6H14, InChI=1S/C6H14/c1-4-5-6(2)3/h6H,4-5H2,1-3H3, purity 99%
Compound 2: decane, C10H22, InChI=1S/C10H22/c1-3-5-7-9-10-8-6-4-2/h3-10H2,1-2H3, purity 99%
Compound 3: dodecane, C12H26, InChI=1S/C12H26/c1-3-5-7-9-11-12-10-8-6-4-2/h3-12H2,1-2H3, purity 99%
Compound 4: 2-methoxy-2-methylpropane, C5H12O, InChI=1S/C5H12O/c1-5(2,3)6-4/h1-4H3, purity 99.5%

System: 2-methylpentane; phases: Liquid
Property: Mass density, kg/m3 (Liquid); method: VIBTUB:UFactor:4
Temperature, K	Pressure, kPa	Mass density, kg/m3	uncertainty
298.15	101.325	649.78	0.94

System: decane; phases: Liquid
Property: Mass density, kg/m3 (Liquid); method: VIBTUB:UFactor:4
Temperature, K	Pressure, kPa	Mass density, kg/m3	uncertainty
298.15	101.325	726.31	0.81

System: dodecane; phases: Liquid
Property: Mass density, kg/m3 (Liquid); method: VIBTUB:UFactor:4
Temperature, K	Pressure, kPa	Mass density, kg/m3	uncertainty
298.15	101.325	745.38	0.78

System: 2-methoxy-2-methylpropane; phases: Liquid
Property: Mass density, kg/m3 (Liquid); method: VIBTUB:UFactor:4
Temperature, K	Pressure, kPa	Mass density, kg/m3	uncertainty
298.15	101.325	735.69	0.73

System: 2-methylpentane + 2-methoxy-2-methylpropane; phases: Liquid
Fixed: Temperature, K = 298.15
Fixed: Pressure, kPa = 101.3
Property: Excess molar enthalpy (molar enthalpy of mixing), kJ/mol (Liquid); method: Flow calorimetry
Mole fraction of 2-methoxy-2-methylpropane	Excess molar enthalpy (molar enthalpy of mixing), kJ/mol	uncertainty
0.0532	0.03754	0.00138
0.1063	0.08935	0.0019
0.1589	0.14048	0.00241
0.2113	0.18294	0.00283
0.2633	0.21886	0.00319
0.315	0.24975	0.0035
0.3658	0.27183	0.00372
0.4165	0.28929	0.00389
0.4667	0.30007	0.004
0.5174	0.30321	0.00403
0.5673	0.29731	0.00397
0.6165	0.29116	0.00391
0.6652	0.27587	0.00376
0.7143	0.25441	0.00354
0.7628	0.22667	0.00327
0.81	0.19323	0.00293
0.8548	0.15751	0.00258
0.906	0.10738	0.00207
0.9531	0.05709	0.00157

System: 2-methylpentane + decane + 2-methoxy-2-methylpropane; phases: Liquid
Fixed: Temperature, K = 298.15
Fixed: Pressure, kPa = 101.3
Property: Excess molar enthalpy (molar enthalpy of mixing), kJ/mol (Liquid); method: Flow calorimetry
Solvent: Amount ratio of component to other component of binary solvent of 2-methylpentane	Mole fraction of 2-methoxy-2-methylpropane	Excess molar enthalpy (molar enthalpy of mixing), kJ/mol	uncertainty
0.3332	0.05	0.07407	0.00152
0.3332	0.1	0.1431	0.002
0.3332	0.1499	0.20536	0.00247
0.3332	0.1999	0.26316	0.00294
0.3332	0.25	0.3155	0.00337
0.3332	0.2999	0.35973	0.00373
0.3332	0.3496	0.38813	0.00397
0.3332	0.4003	0.41542	0.0042
0.3332	0.4497	0.43358	0.00435
0.3332	0.4999	0.44459	0.00445
0.3332	0.5501	0.4477	0.00447
0.3332	0.5998	0.43878	0.0044
0.3332	0.6497	0.42404	0.00427
0.3332	0.7	0.39941	0.00407
0.3332	0.7507	0.36268	0.00377
0.3332	0.7996	0.31562	0.00338
0.3332	0.8486	0.25878	0.00292
0.3332	0.9	0.18407	0.00235
0.3332	0.9499	0.10021	0.00177
0.9998	0.05	0.06284	0.00139
0.9998	0.1001	0.12277	0.00183
0.9998	0.1499	0.18114	0.00226
0.9998	0.2001	0.23433	0.00268
0.9998	0.2502	0.27923	0.00305
0.9998	0.3009	0.31548	0.00335
0.9998	0.3501	0.34748	0.00362
0.9998	0.3998	0.36794	0.00379
0.9998	0.4503	0.38771	0.00396
0.9998	0.4998	0.39627	0.00403
0.9998	0.5497	0.39727	0.00404
0.9998	0.5998	0.38865	0.00397
0.9998	0.65	0.36509	0.00377
0.9998	0.7004	0.35071	0.00365
0.9998	0.75	0.31812	0.00338
0.9998	0.8001	0.27444	0.00302
0.9998	0.85	0.22282	0.00261
0.9998	0.9014	0.15726	0.00211
0.9998	0.95	0.08374	0.00159
2.9994	0.05	0.04535	0.00125
2.9994	0.1	0.0994	0.00164
2.9994	0.1501	0.15567	0.00205
2.9994	0.2	0.20216	0.00241
2.9994	0.2499	0.24606	0.00277
2.9994	0.2991	0.27617	0.00301
2.9994	0.3497	0.30239	0.00323
2.9994	0.4	0.32641	0.00343
2.9994	0.4501	0.3378	0.00353
2.9994	0.5	0.34711	0.00361
2.9994	0.5498	0.3464	0.0036
2.9994	0.5999	0.34085	0.00356
2.9994	0.6501	0.32658	0.00344
2.9994	0.7004	0.30396	0.00325
2.9994	0.7503	0.27428	0.003
2.9994	0.8004	0.23615	0.00269
2.9994	0.8497	0.19094	0.00233
2.9994	0.9	0.1347	0.00191
2.9994	0.9499	0.07255	0.00148

System: 2-methylpentane + dodecane + 2-methoxy-2-methylpropane; phases: Liquid
Fixed: Temperature, K = 298.15
Fixed: Pressure, kPa = 101.3
Property: Excess molar enthalpy (molar enthalpy of mixing), kJ/mol (Liquid); method: Flow calorimetry
Solvent: Amount ratio of component to other component of binary solvent of 2-methylpentane	Mole fraction of 2-methoxy-2-methylpropane	Excess molar enthalpy (molar enthalpy of mixing), kJ/mol	uncertainty
0.3333	0.0499	0.07665	0.00156
0.3333	0.0999	0.15178	0.00209
0.3333	0.1613	0.24011	0.00277
0.3333	0.2002	0.28694	0.00314
0.3333	0.2499	0.3421	0.0036
0.3333	0.3002	0.3931	0.00403
0.3333	0.3505	0.42892	0.00432
0.3333	0.4002	0.45707	0.00456
0.3333	0.4492	0.47821	0.00474
0.3333	0.5	0.49323	0.00487
0.3333	0.5498	0.49777	0.00491
0.3333	0.6007	0.49209	0.00486
0.3333	0.6502	0.47551	0.00472
0.3333	0.7	0.44827	0.00449
0.3333	0.7496	0.40944	0.00417
0.3333	0.8	0.35747	0.00374
0.3333	0.8502	0.2926	0.00322
0.3333	0.8997	0.21218	0.00261
0.3333	0.95	0.11161	0.00192
1.0001	0.0499	0.06118	0.00139
1.0001	0.0999	0.12616	0.00187
1.0001	0.15	0.18983	0.00234
1.0001	0.1999	0.24518	0.00278
1.0001	0.2502	0.2962	0.0032
1.0001	0.3	0.33932	0.00356
1.0001	0.3497	0.36765	0.00379
1.0001	0.3997	0.39491	0.00403
1.0001	0.45	0.41426	0.00419
1.0001	0.5001	0.42425	0.00427
1.0001	0.55	0.42777	0.0043
1.0001	0.6004	0.42113	0.00425
1.0001	0.65	0.40629	0.00412
1.0001	0.7	0.38183	0.00392
1.0001	0.7497	0.34701	0.00363
1.0001	0.8	0.30201	0.00326
1.0001	0.8501	0.24516	0.0028
1.0001	0.8993	0.17886	0.0023
1.0001	0.95	0.09376	0.0017
3	0.0501	0.05147	0.00131
3	0.1001	0.1096	0.00172
3	0.1501	0.163	0.0021
3	0.2001	0.21053	0.00248
3	0.25	0.25523	0.00285
3	0.3002	0.28789	0.00311
3	0.3503	0.31755	0.00336
3	0.3999	0.33977	0.00355
3	0.45	0.35337	0.00366
3	0.5003	0.36189	0.00374
3	0.5494	0.36353	0.00375
3	0.5999	0.3551	0.00368
3	0.6503	0.34233	0.00357
3	0.7	0.31876	0.00337
3	0.7502	0.28855	0.00312
3	0.8003	0.24896	0.0028
3	0.8503	0.20144	0.00242
3	0.9	0.14249	0.00198
3	0.95	0.07645	0.00152
