Measured thermophysical data. Partition coefficient n-octanol/water of propranolol and atenolol at different temperatures: Experimental and theoretical studies
Source: J. Chem. Thermodyn., 2012, 10.1016/j.jct.2012.05.021
Compound 1: propranolol hydrochloride, C16H22ClNO2, InChI=1S/C16H21NO2.ClH/c1-12(2)17-10-14(18)11-19-16-9-5-7-13-6-3-4-8-15(13)16;/h3-9,12,14,17-18H,10-11H2,1-2H3;1H, purity 99.8%
Compound 2: 2-(4-(2-hydroxy-3-(isopropylamino)propoxy)phenyl)acetamide, C14H22N2O3, InChI=1S/C14H22N2O3/c1-10(2)16-8-12(17)9-19-13-5-3-11(4-6-13)7-14(15)18/h3-6,10,12,16-17H,7-9H2,1-2H3,(H2,15,18), purity 99.8%
Compound 3: water, H2O, InChI=1S/H2O/h1H2
Compound 4: octan-1-ol, C8H18O, InChI=1S/C8H18O/c1-2-3-4-5-6-7-8-9/h9H,2-8H2,1H3, purity 99%

System: propranolol hydrochloride; phases: Crystal, Liquid, Air at 1 atmosphere
Property: Normal melting temperature, K (Crystal); method: VISOBS
Normal melting temperature, K	uncertainty
437.95	0.4

System: 2-(4-(2-hydroxy-3-(isopropylamino)propoxy)phenyl)acetamide; phases: Crystal, Liquid, Air at 1 atmosphere
Property: Normal melting temperature, K (Crystal); method: VISOBS
Normal melting temperature, K	uncertainty
427.65	0.4

System: octan-1-ol + propranolol hydrochloride + water; phases: Liquid mixture 2, Liquid mixture 1
Fixed: Pressure, kPa = 101
Property: Mass fraction of propranolol hydrochloride (Liquid mixture 2); method: UV Spectrophotometry
Property: Mass fraction of propranolol hydrochloride (Liquid mixture 1); method: UV Spectrophotometry
Property: Mass fraction of octan-1-ol (Liquid mixture 1); method: UV Spectrophotometry
Temperature, K	Mass fraction of octan-1-ol	Mass fraction of propranolol hydrochloride	uncertainty	Mass fraction of propranolol hydrochloride	uncertainty	Mass fraction of octan-1-ol	uncertainty
298.15	0.00043	4e-05	2e-05	0.00176	4e-05	0.94863	
298.15	0.00043	3e-05	2e-05	0.00121	3e-05	0.94923	
298.15	0.00043	2e-05	2e-05	0.00091	3e-05	0.94943	
303.15	0.00049	3e-05	2e-05	0.00198	5e-05	0.94779	
303.15	0.00049	3e-05	2e-05	0.00142	4e-05	0.94831	
303.15	0.00049	2e-05	2e-05	0.00094	3e-05	0.94967	
314.15	0.00049	3e-05	2e-05	0.00209	5e-05	0.94735	
314.15	0.00049	3e-05	2e-05	0.00153	4e-05	0.94785	
314.15	0.00049	2e-05	2e-05	0.00102	3e-05	0.94834	

System: octan-1-ol + water + 2-(4-(2-hydroxy-3-(isopropylamino)propoxy)phenyl)acetamide; phases: Liquid mixture 1, Liquid mixture 2
Fixed: Pressure, kPa = 101
Property: Mass fraction of 2-(4-(2-hydroxy-3-(isopropylamino)propoxy)phenyl)acetamide (Liquid mixture 1); method: UV spectrophotometry
Property: Mass fraction of 2-(4-(2-hydroxy-3-(isopropylamino)propoxy)phenyl)acetamide (Liquid mixture 2); method: UV spectrophotometry
Property: Mass fraction of octan-1-ol (Liquid mixture 2); method: UV spectrophotometry
Temperature, K	Mass fraction of octan-1-ol	Mass fraction of 2-(4-(2-hydroxy-3-(isopropylamino)propoxy)phenyl)acetamide	uncertainty	Mass fraction of 2-(4-(2-hydroxy-3-(isopropylamino)propoxy)phenyl)acetamide	uncertainty	Mass fraction of octan-1-ol	uncertainty
298.15	0.95029	1e-05	1e-05	5e-05	2e-05	0.00043	
298.15	0.95029	1e-05	1e-05	3e-05	2e-05	0.00043	
298.15	0.95029	3e-06	3e-06	2e-05	2e-05	0.00043	
303.15	0.94966	1e-05	1e-05	3e-05	2e-05	0.00049	
303.15	0.94966	1e-05	1e-05	3e-05	2e-05	0.00049	
303.15	0.94966	4e-06	4e-06	1e-05	1e-05	0.00049	
314.15	0.94929	1e-05	1e-05	6e-05	2e-05	0.00049	
314.15	0.94929	1e-05	1e-05	4e-05	2e-05	0.00049	
314.15	0.9493	4e-06	4e-06	2e-05	2e-05	0.00049	
