Measured thermophysical data. Solubility determination and thermodynamic modelling for 2-amino-4-chlorobenzoic acid in eleven organic solvents from T = (278.15 to 313.15) K and mixing properties of solutions
Source: J. Chem. Thermodyn., 2017, 10.1016/j.jct.2016.11.019
Compound 1: 2-amino-4-chlorobenzoic acid, C7H6ClNO2, InChI=1S/C7H6ClNO2/c8-4-1-2-5(7(10)11)6(9)3-4/h1-3H,9H2,(H,10,11), purity 98.3%
Compound 2: ethanol, C2H6O, InChI=1S/C2H6O/c1-2-3/h3H,2H2,1H3
Compound 3: propan-1-ol, C3H8O, InChI=1S/C3H8O/c1-2-3-4/h4H,2-3H2,1H3
Compound 4: propan-2-ol, C3H8O, InChI=1S/C3H8O/c1-3(2)4/h3-4H,1-2H3
Compound 5: butan-1-ol, C4H10O, InChI=1S/C4H10O/c1-2-3-4-5/h5H,2-4H2,1H3
Compound 6: acetone, C3H6O, InChI=1S/C3H6O/c1-3(2)4/h1-2H3
Compound 7: ethyl acetate, C4H8O2, InChI=1S/C4H8O2/c1-3-6-4(2)5/h3H2,1-2H3
Compound 8: ethylbenzene, C8H10, InChI=1S/C8H10/c1-2-8-6-4-3-5-7-8/h3-7H,2H2,1H3
Compound 9: acetonitrile, C2H3N, InChI=1S/C2H3N/c1-2-3/h1H3
Compound 10: toluene, C7H8, InChI=1S/C7H8/c1-7-5-3-2-4-6-7/h2-6H,1H3
Compound 11: N-methylpyrrolidone, C5H9NO, InChI=1S/C5H9NO/c1-6-4-2-3-5(6)7/h2-4H2,1H3
Compound 12: 1,4-dioxane, C4H8O2, InChI=1S/C4H8O2/c1-2-6-4-3-5-1/h1-4H2

System: 2-amino-4-chlorobenzoic acid; phases: Crystal, Liquid, Air at 1 atmosphere
Property: Normal melting temperature, K (Crystal); method: DTA
Normal melting temperature, K	uncertainty
507.5	1.1

System: 2-amino-4-chlorobenzoic acid; phases: Crystal, Liquid, Air at 1 atmosphere
Property: Molar enthalpy of transition or fusion, kJ/mol (Crystal); method: DSC
Molar enthalpy of transition or fusion, kJ/mol	uncertainty
28.76	0.99

System: 2-amino-4-chlorobenzoic acid + N-methylpyrrolidone; phases: Liquid, Crystal
Fixed: Pressure, kPa = 101.2
Property: Mole fraction of 2-amino-4-chlorobenzoic acid (Liquid); method: Chromatography
Temperature, K	Mole fraction of 2-amino-4-chlorobenzoic acid	uncertainty
278.15	0.03235	0.00143
280.65	0.03385	0.00149
283.15	0.03538	0.00156
285.65	0.03705	0.00163
288.15	0.03884	0.00171
290.65	0.04062	0.00179
293.15	0.04251	0.00187
295.65	0.04445	0.00196
298.15	0.04649	0.00205
300.65	0.04867	0.00214
303.15	0.05085	0.00224
305.65	0.05314	0.00234
308.15	0.05563	0.00245
310.65	0.05812	0.00256
313.15	0.06071	0.00267

System: ethanol + 2-amino-4-chlorobenzoic acid; phases: Liquid, Crystal
Fixed: Pressure, kPa = 101.2
Property: Mole fraction of 2-amino-4-chlorobenzoic acid (Liquid); method: Chromatography
Temperature, K	Mole fraction of 2-amino-4-chlorobenzoic acid	uncertainty
278.15	0.009943	0.000438
280.65	0.01088	0.00048
283.15	0.01184	0.00052
285.65	0.01287	0.00057
288.15	0.01396	0.00062
290.65	0.01512	0.00067
293.15	0.01636	0.00072
295.65	0.01767	0.00078
298.15	0.01906	0.00084
300.65	0.02054	0.00091
303.15	0.0221	0.00097
305.65	0.02375	0.00105
308.15	0.02549	0.00112
310.65	0.02732	0.0012
313.15	0.02926	0.00129

System: propan-1-ol + 2-amino-4-chlorobenzoic acid; phases: Liquid, Crystal
Fixed: Pressure, kPa = 101.2
Property: Mole fraction of 2-amino-4-chlorobenzoic acid (Liquid); method: Chromatography
Temperature, K	Mole fraction of 2-amino-4-chlorobenzoic acid	uncertainty
278.15	0.008687	0.000383
280.65	0.009496	0.000419
283.15	0.01034	0.00046
285.65	0.01131	0.0005
288.15	0.0123	0.00054
290.65	0.01335	0.00059
293.15	0.01445	0.00064
295.65	0.0157	0.00069
298.15	0.01697	0.00075
300.65	0.01836	0.00081
303.15	0.01983	0.00087
305.65	0.02137	0.00094
308.15	0.02296	0.00101
310.65	0.02475	0.00109
313.15	0.02656	0.00117

System: propan-2-ol + 2-amino-4-chlorobenzoic acid; phases: Liquid, Crystal
Fixed: Pressure, kPa = 101.2
Property: Mole fraction of 2-amino-4-chlorobenzoic acid (Liquid); method: Chromatography
Temperature, K	Mole fraction of 2-amino-4-chlorobenzoic acid	uncertainty
278.15	0.009253	0.000408
280.65	0.01015	0.00045
283.15	0.01105	0.00049
285.65	0.01203	0.00053
288.15	0.01308	0.00058
290.65	0.01425	0.00063
293.15	0.01547	0.00068
295.65	0.01671	0.00074
298.15	0.0181	0.0008
300.65	0.01953	0.00086
303.15	0.02107	0.00093
305.65	0.02266	0.001
308.15	0.0244	0.00108
310.65	0.02624	0.00116
313.15	0.02815	0.00124

System: butan-1-ol + 2-amino-4-chlorobenzoic acid; phases: Liquid, Crystal
Fixed: Pressure, kPa = 101.2
Property: Mole fraction of 2-amino-4-chlorobenzoic acid (Liquid); method: Chromatography
Temperature, K	Mole fraction of 2-amino-4-chlorobenzoic acid	uncertainty
278.15	0.007677	0.000338
280.65	0.008403	0.00037
283.15	0.009246	0.000408
285.65	0.0102	0.00045
288.15	0.0111	0.00049
290.65	0.01214	0.00054
293.15	0.01325	0.00058
295.65	0.01441	0.00064
298.15	0.0157	0.00069
300.65	0.01702	0.00075
303.15	0.01839	0.00081
305.65	0.01995	0.00088
308.15	0.0215	0.00095
310.65	0.02323	0.00102
313.15	0.025	0.0011

System: 2-amino-4-chlorobenzoic acid + ethyl acetate; phases: Liquid, Crystal
Fixed: Pressure, kPa = 101.2
Property: Mole fraction of 2-amino-4-chlorobenzoic acid (Liquid); method: Chromatography
Temperature, K	Mole fraction of 2-amino-4-chlorobenzoic acid	uncertainty
278.15	0.0125	0.00055
280.65	0.01358	0.0006
283.15	0.01486	0.00065
285.65	0.01613	0.00071
288.15	0.01758	0.00077
290.65	0.01909	0.00084
293.15	0.02063	0.00091
295.65	0.02222	0.00098
298.15	0.02407	0.00106
300.65	0.0259	0.00114
303.15	0.02783	0.00123
305.65	0.02996	0.00132
308.15	0.0321	0.00141
310.65	0.03435	0.00151
313.15	0.03677	0.00162

System: acetonitrile + 2-amino-4-chlorobenzoic acid; phases: Liquid, Crystal
Fixed: Pressure, kPa = 101.2
Property: Mole fraction of 2-amino-4-chlorobenzoic acid (Liquid); method: Chromatography
Temperature, K	Mole fraction of 2-amino-4-chlorobenzoic acid	uncertainty
278.15	0.001383	6.1e-05
280.65	0.001539	6.8e-05
283.15	0.001694	7.5e-05
285.65	0.001885	8.3e-05
288.15	0.002082	9.2e-05
290.65	0.00229	0.000101
293.15	0.002518	0.000111
295.65	0.002767	0.000122
298.15	0.00303	0.000134
300.65	0.003317	0.000146
303.15	0.003617	0.000159
305.65	0.003946	0.000174
308.15	0.004306	0.00019
310.65	0.00468	0.000206
313.15	0.0051	0.000225

System: 2-amino-4-chlorobenzoic acid + toluene; phases: Liquid, Crystal
Fixed: Pressure, kPa = 101.2
Property: Mole fraction of 2-amino-4-chlorobenzoic acid (Liquid); method: Chromatography
Temperature, K	Mole fraction of 2-amino-4-chlorobenzoic acid	uncertainty
278.15	0.0001356	6e-06
280.65	0.0001569	6.9e-06
283.15	0.00018	7.9e-06
285.65	0.0002044	9e-06
288.15	0.0002333	1.03e-05
290.65	0.0002664	1.17e-05
293.15	0.0002993	1.32e-05
295.65	0.0003394	1.5e-05
298.15	0.0003838	1.69e-05
300.65	0.000427	1.88e-05
303.15	0.0004781	2.11e-05
305.65	0.0005328	2.35e-05
308.15	0.0005971	2.63e-05
310.65	0.0006679	2.94e-05
313.15	0.0007423	3.27e-05

System: 2-amino-4-chlorobenzoic acid + ethylbenzene; phases: Liquid, Crystal
Fixed: Pressure, kPa = 101.2
Property: Mole fraction of 2-amino-4-chlorobenzoic acid (Liquid); method: Chromatography
Temperature, K	Mole fraction of 2-amino-4-chlorobenzoic acid	uncertainty
278.15	0.0001101	4.9e-06
280.65	0.00013	5.7e-06
283.15	0.0001488	6.6e-06
285.65	0.0001723	7.6e-06
288.15	0.000196	8.6e-06
290.65	0.0002235	9.9e-06
293.15	0.0002553	1.13e-05
295.65	0.0002898	1.28e-05
298.15	0.0003262	1.44e-05
300.65	0.0003709	1.64e-05
303.15	0.0004182	1.84e-05
305.65	0.0004723	2.08e-05
308.15	0.0005285	2.33e-05
310.65	0.0005942	2.62e-05
313.15	0.0006643	2.93e-05

System: acetone + 2-amino-4-chlorobenzoic acid; phases: Liquid, Crystal
Fixed: Pressure, kPa = 101.2
Property: Mole fraction of 2-amino-4-chlorobenzoic acid (Liquid); method: Chromatography
Temperature, K	Mole fraction of 2-amino-4-chlorobenzoic acid	uncertainty
278.15	0.01591	0.0007
280.65	0.01736	0.00077
283.15	0.01891	0.00083
285.65	0.02069	0.00091
288.15	0.02257	0.00099
290.65	0.0243	0.00107
293.15	0.02614	0.00115
295.65	0.02834	0.00125
298.15	0.03066	0.00135
300.65	0.03284	0.00145
303.15	0.03514	0.00155
305.65	0.03781	0.00167
308.15	0.04036	0.00178
310.65	0.04328	0.00191
313.15	0.04633	0.00204

System: 2-amino-4-chlorobenzoic acid + 1,4-dioxane; phases: Liquid, Crystal
Fixed: Pressure, kPa = 101.2
Property: Mole fraction of 2-amino-4-chlorobenzoic acid (Liquid); method: Chromatography
Temperature, K	Mole fraction of 2-amino-4-chlorobenzoic acid	uncertainty
283.15	0.01582	0.0007
285.65	0.01734	0.00076
288.15	0.01912	0.00084
290.65	0.02091	0.00092
293.15	0.02282	0.00101
295.65	0.02484	0.00109
298.15	0.02712	0.0012
300.65	0.0295	0.0013
303.15	0.032	0.00141
305.65	0.03475	0.00153
308.15	0.03749	0.00165
310.65	0.04048	0.00178
313.15	0.04359	0.00192
