Measured thermophysical data. (Vapour + liquid) equilibrium of binary mixtures (1,3-dioxolane or 1,4-dioxane + 2-methyl-1-propanol or 2-methyl-2-propanol) at isobaric conditions
Source: J. Chem. Thermodyn., 2004, 10.1016/j.jct.2003.09.001
Compound 1: 1,3-dioxolane, C3H6O2, InChI=1S/C3H6O2/c1-2-5-3-4-1/h1-3H2, purity 99%
Compound 2: 1,4-dioxane, C4H8O2, InChI=1S/C4H8O2/c1-2-6-4-3-5-1/h1-4H2, purity 99.9%
Compound 3: 2-methyl-1-propanol, C4H10O, InChI=1S/C4H10O/c1-4(2)3-5/h4-5H,3H2,1-2H3, purity 99.5%
Compound 4: 2-methylpropan-2-ol, C4H10O, InChI=1S/C4H10O/c1-4(2,3)5/h5H,1-3H3, purity 99.5%

System: 1,3-dioxolane; phases: Liquid
Property: Mass density, kg/m3 (Liquid); method: UNKNOWN
Temperature, K	Pressure, kPa	Mass density, kg/m3	uncertainty
298.15	101.325	1058.62	5.03

System: 1,3-dioxolane; phases: Liquid, Gas
Property: Vapor or sublimation pressure, kPa (Liquid); method: EBULLIO:UFactor:16
Temperature, K	Vapor or sublimation pressure, kPa	uncertainty
348.55	101.3	1

System: 1,4-dioxane; phases: Liquid
Property: Mass density, kg/m3 (Liquid); method: UNKNOWN
Temperature, K	Pressure, kPa	Mass density, kg/m3	uncertainty
298.15	101.325	1027.88	5

System: 1,4-dioxane; phases: Liquid, Gas
Property: Vapor or sublimation pressure, kPa (Liquid); method: EBULLIO:UFactor:16
Temperature, K	Vapor or sublimation pressure, kPa	uncertainty
374.56	101.3	1

System: 2-methyl-1-propanol; phases: Liquid
Property: Mass density, kg/m3 (Liquid); method: UNKNOWN
Temperature, K	Pressure, kPa	Mass density, kg/m3	uncertainty
298.15	101.325	797.98	5

System: 2-methyl-1-propanol; phases: Liquid, Gas
Property: Vapor or sublimation pressure, kPa (Liquid); method: EBULLIO:UFactor:16
Temperature, K	Vapor or sublimation pressure, kPa	uncertainty
380.72	101.3	1

System: 2-methylpropan-2-ol; phases: Liquid
Property: Mass density, kg/m3 (Liquid); method: UNKNOWN
Temperature, K	Pressure, kPa	Mass density, kg/m3	uncertainty
298.15	101.325	781	5

System: 2-methylpropan-2-ol; phases: Liquid, Gas
Property: Vapor or sublimation pressure, kPa (Liquid); method: EBULLIO:UFactor:16
Temperature, K	Vapor or sublimation pressure, kPa	uncertainty
355.5	101.3	1

System: 2-methyl-1-propanol + 1,3-dioxolane; phases: Liquid, Gas
Property: Azeotropic temperature, K (Liquid); method: TX:UFactor:2
Pressure, kPa	Azeotropic temperature, K	uncertainty
40	323	0.6
101.3	348	0.6

System: 2-methyl-1-propanol + 1,3-dioxolane; phases: Liquid, Gas
Property: Azeotropic composition: mole fraction of 1,3-dioxolane (Liquid); method: TPX:UFactor:8
Pressure, kPa	Azeotropic composition: mole fraction of 1,3-dioxolane	uncertainty
40	0.922	0.015
101.3	0.725	0.034

System: 2-methyl-1-propanol + 1,3-dioxolane; phases: Liquid, Gas
Property: Boiling temperature at pressure P, K (Liquid); method: EBULLIO:UFactor:16
Mole fraction of 1,3-dioxolane	Pressure, kPa	Boiling temperature at pressure P, K	uncertainty
0	101.3	380.72	1
0.0425	101.3	377.31	1
0.0436	40	352.63	0.87
0.081	101.3	374.38	0.99
0.084	40	348.56	0.87
0.1447	40	343.95	0.87
0.1627	101.3	369.88	0.97
0.2211	101.3	366.53	0.89
0.2259	40	339.36	0.87
0.3263	40	335.55	0.87
0.3517	101.3	361.79	0.8
0.4446	101.3	359.13	0.75
0.4615	40	331.9	0.87
0.5138	40	330.74	0.87
0.5237	101.3	356.68	0.65
0.6237	101.3	354.83	0.54
0.6263	40	328.8	0.87
0.6889	40	327.71	0.87
0.7019	101.3	353.26	0.55
0.7862	101.3	351.67	0.48
0.7898	40	326.22	0.87
0.8442	40	325.4	0.87
0.8525	101.3	350.7	0.41
0.9089	101.3	349.85	0.4
0.9163	40	324.43	0.87
0.9854	40	323.41	0.87
0.9867	101.3	348.74	0.39
1	101.3	348.55	0.39

System: 2-methyl-1-propanol + 1,3-dioxolane; phases: Gas, Liquid
Property: Mole fraction of 1,3-dioxolane (Gas); method: RIXVDN
Mole fraction of 1,3-dioxolane	Pressure, kPa	Mole fraction of 1,3-dioxolane	uncertainty
0.0425	101.3	0.1465	0.0334
0.0436	40	0.218	0.0419
0.081	101.3	0.2691	0.0253
0.084	40	0.3822	0.0319
0.1447	40	0.5296	0.0259
0.1627	101.3	0.4332	0.0218
0.2211	101.3	0.5383	0.0157
0.2259	40	0.6629	0.0212
0.3263	40	0.7443	0.0175
0.3517	101.3	0.6635	0.0135
0.4446	101.3	0.7302	0.0125
0.4615	40	0.8044	0.0168
0.5138	40	0.8333	0.0157
0.5237	101.3	0.7844	0.0117
0.6237	101.3	0.8317	0.0112
0.6263	40	0.8694	0.0149
0.6889	40	0.8919	0.0142
0.7019	101.3	0.8673	0.0111
0.7862	101.3	0.9054	0.011
0.7898	40	0.9245	0.0138
0.8442	40	0.9427	0.0134
0.8525	101.3	0.9334	0.0109
0.9089	101.3	0.9563	0.011
0.9163	40	0.9659	0.0131
0.9854	40	0.9943	0.0057
0.9867	101.3	0.9934	0.0066

System: 2-methylpropan-2-ol + 1,3-dioxolane; phases: Liquid, Gas
Property: Boiling temperature at pressure P, K (Liquid); method: EBULLIO:UFactor:8
Mole fraction of 1,3-dioxolane	Pressure, kPa	Boiling temperature at pressure P, K	uncertainty
0.0154	40	333.27	0.43
0.0206	101.3	354.19	0.43
0.0819	40	331.1	0.43
0.121	101.3	352.15	0.43
0.1725	101.3	351.89	0.41
0.1808	40	328.67	0.43
0.2436	40	327.13	0.34
0.2437	101.3	351.02	0.49
0.3372	40	326.14	0.43
0.363	101.3	349.8	0.41
0.5056	101.3	348.63	0.39
0.5159	40	324.39	0.43
0.5631	40	324.16	0.43
0.5672	101.3	348.38	0.36
0.6011	101.3	348.26	0.35
0.6018	40	323.78	0.43
0.7104	101.3	347.91	0.34
0.7114	40	323.32	0.44
0.7534	40	323.18	0.35
0.7535	101.3	347.88	0.51
0.845	40	322.94	0.36
0.8452	101.3	347.9	0.52
0.887	101.3	348.05	0.24
0.8881	40	322.95	0.44
0.9547	40	323.04	0.36
0.9548	101.3	348.28	0.52

System: 2-methylpropan-2-ol + 1,3-dioxolane; phases: Gas, Liquid
Property: Mole fraction of 1,3-dioxolane (Gas); method: RIXVDN
Mole fraction of 1,3-dioxolane	Pressure, kPa	Mole fraction of 1,3-dioxolane	uncertainty
0.0154	40	0.0439	0.0237
0.0206	101.3	0.0603	0.0176
0.0819	40	0.1869	0.02
0.121	101.3	0.2052	0.0169
0.1725	101.3	0.2643	0.0148
0.1808	40	0.3343	0.0189
0.2436	40	0.4144	0.0148
0.2437	101.3	0.3397	0.0137
0.3372	40	0.5048	0.0158
0.363	101.3	0.4428	0.0133
0.5056	101.3	0.5627	0.0134
0.5159	40	0.6338	0.0154
0.5631	40	0.6607	0.0153
0.5672	101.3	0.6148	0.0127
0.6011	101.3	0.6319	0.013
0.6018	40	0.6862	0.0148
0.7104	101.3	0.7243	0.0133
0.7114	40	0.7548	0.0145
0.7534	40	0.7846	0.0139
0.7535	101.3	0.7589	0.0132
0.845	40	0.8787	0.03
0.8452	101.3	0.8363	0.0133
0.887	101.3	0.8749	0.0142
0.8881	40	0.8858	0.014
0.9547	40	0.9486	0.0138
0.9548	101.3	0.9457	0.0145

System: 2-methyl-1-propanol + 1,4-dioxane; phases: Liquid, Gas
Property: Azeotropic temperature, K (Liquid); method: TX:UFactor:2
Pressure, kPa	Azeotropic temperature, K	uncertainty
40	374.4	0.6

System: 2-methyl-1-propanol + 1,4-dioxane; phases: Liquid, Gas
Property: Azeotropic composition: mole fraction of 1,4-dioxane (Liquid); method: TPX:UFactor:8
Pressure, kPa	Azeotropic composition: mole fraction of 1,4-dioxane	uncertainty
40	0.929	0.015

System: 2-methyl-1-propanol + 1,4-dioxane; phases: Liquid, Gas
Property: Boiling temperature at pressure P, K (Liquid); method: EBULLIO:UFactor:8
Mole fraction of 1,4-dioxane	Pressure, kPa	Boiling temperature at pressure P, K	uncertainty
0.0428	101.3	380.75	0.49
0.0432	40	356.97	0.34
0.0854	101.3	380.2	0.49
0.0874	40	355.95	0.43
0.1556	40	354.65	0.35
0.156	101.3	379.24	0.51
0.2323	40	353.39	0.43
0.2387	101.3	378.4	0.48
0.3322	101.3	377.4	0.48
0.3335	40	351.93	0.43
0.4334	40	350.76	0.43
0.4364	101.3	376.36	0.47
0.4866	101.3	375.99	0.53
0.4869	40	350.08	0.37
0.5952	40	349.08	0.43
0.5966	101.3	375.37	0.43
0.672	40	348.56	0.43
0.6756	101.3	375.05	0.42
0.7446	101.3	374.79	0.41
0.7498	40	347.96	0.43
0.8075	40	347.59	0.43
0.8106	101.3	374.59	0.39
0.881	40	347.02	0.43
0.8848	101.3	374.52	0.37
0.9538	101.3	374.49	0.37
0.9563	40	346.8	0.43

System: 2-methyl-1-propanol + 1,4-dioxane; phases: Gas, Liquid
Property: Mole fraction of 1,4-dioxane (Gas); method: RIXVDN
Mole fraction of 1,4-dioxane	Pressure, kPa	Mole fraction of 1,4-dioxane	uncertainty
0.0428	101.3	0.0618	0.017
0.0432	40	0.0846	0.0197
0.0854	101.3	0.1206	0.0164
0.0874	40	0.1597	0.0188
0.1556	40	0.2647	0.017
0.156	101.3	0.2094	0.0157
0.2323	40	0.3585	0.0167
0.2387	101.3	0.3067	0.0148
0.3322	101.3	0.401	0.0139
0.3335	40	0.4734	0.0159
0.4334	40	0.5573	0.0155
0.4364	101.3	0.4962	0.0136
0.4866	101.3	0.543	0.0135
0.4869	40	0.5997	0.0127
0.5952	40	0.6826	0.0146
0.5966	101.3	0.6416	0.0133
0.672	40	0.7378	0.0143
0.6756	101.3	0.7081	0.0131
0.7446	101.3	0.7676	0.0131
0.7498	40	0.7949	0.0142
0.8075	40	0.8379	0.0141
0.8106	101.3	0.822	0.0127
0.881	40	0.9241	0.03
0.8848	101.3	0.8778	0.0136
0.9538	101.3	0.9536	0.0149
0.9563	40	0.9583	0.014

System: 2-methylpropan-2-ol + 1,4-dioxane; phases: Liquid, Gas
Property: Boiling temperature at pressure P, K (Liquid); method: EBULLIO:UFactor:16
Mole fraction of 1,4-dioxane	Pressure, kPa	Boiling temperature at pressure P, K	uncertainty
0	101.3	355.5	0.9
0.1256	101.3	356.28	0.9
0.1296	40	334.21	0.87
0.2289	101.3	357.13	0.9
0.2298	40	334.9	0.87
0.3127	101.3	358.01	0.88
0.3135	40	335.07	0.87
0.4051	40	335.74	0.87
0.4154	101.3	359.38	0.89
0.5515	40	337.05	0.87
0.5524	101.3	360.82	0.88
0.5929	40	337.83	0.87
0.5949	101.3	361.78	0.79
0.653	40	338.55	0.68
0.653	101.3	362.57	0.98
0.7296	101.3	363.71	0.77
0.7406	40	339.63	0.87
0.7898	101.3	365.03	0.65
0.7926	40	340.61	0.87
0.8227	101.3	365.83	0.34
0.8344	40	341.41	0.87
0.8824	101.3	368.12	0.09
0.8872	40	341.99	0.87
0.9312	40	343.98	0.87
0.9413	101.3	370.84	0.3
1	101.3	374.56	0.6

System: 2-methylpropan-2-ol + 1,4-dioxane; phases: Gas, Liquid
Property: Mole fraction of 1,4-dioxane (Gas); method: RIXVDN
Mole fraction of 1,4-dioxane	Pressure, kPa	Mole fraction of 1,4-dioxane	uncertainty
0.1256	101.3	0.089	0.0119
0.1296	40	0.0972	0.0128
0.2289	101.3	0.1556	0.0121
0.2298	40	0.1765	0.0131
0.3127	101.3	0.2168	0.0123
0.3135	40	0.2524	0.013
0.4051	40	0.3228	0.013
0.4154	101.3	0.2906	0.0125
0.5515	40	0.4464	0.0129
0.5524	101.3	0.3956	0.0128
0.5929	40	0.4694	0.0129
0.5949	101.3	0.4354	0.0131
0.653	40	0.5177	0.0135
0.653	101.3	0.48	0.0138
0.7296	101.3	0.5613	0.0143
0.7406	40	0.6013	0.013
0.7898	101.3	0.6194	0.0148
0.7926	40	0.6493	0.0131
0.8227	101.3	0.6645	0.0165
0.8344	40	0.6988	0.0133
0.8824	101.3	0.7414	0.0173
0.8872	40	0.7747	0.0135
0.9312	40	0.8461	0.0136
0.9413	101.3	0.8318	0.0183
