Measured thermophysical data. Enthalpies of combustion and formation of fullerene C70 by isoperibolic combustion calorimetry
Source: J. Chem. Thermodyn., 2004, 10.1016/j.jct.2004.03.008
Compound 1: carbon dioxide, CO2, InChI=1S/CO2/c2-1-3
Compound 2: oxygen, O2, InChI=1S/O2/c1-2
Compound 3: fullerene carbon 70, C70, InChI=1S/C70/c1-2-22-5-6-24-13-14-26-11-9-23-4-3(21(1)51-52(22)54(24)55(26)53(23)51)33-31(1)61-35-7-8-27-15-16-29-19-20-30-18-17-28-12-10(25(7)56-57(27)59(29)60(30)58(28)56)37(35)63(33)65-36(4)40(9)67(44(17)42(12)65)69-46(11)47(14)70(50(20)49(18)69)68-43(13)39(6)66(45(16)48(19)68)64-34(5)32(2)62(61)38(8)41(15)64

Reaction: -1 fullerene carbon 70 + 70 carbon dioxide + -70 oxygen
Property: Molar internal energy of reaction at constant volume, kJ/mol
-30099.7
