Measured thermophysical data. Thermochemistry of Cu(II) and Ni(II) complexes with N,N-di-n-butyl-NaEUR2-thenoylthiourea and N,N-di-iso-butyl-NaEUR2-thenoylthiourea
Source: J. Chem. Thermodyn., 2008, 10.1016/j.jct.2007.11.008
Compound 1: sulfuric acid, H2O4S, InChI=1S/H2O4S/c1-5(2,3)4/h(H2,1,2,3,4)
Compound 2: carbon dioxide, CO2, InChI=1S/CO2/c2-1-3
Compound 3: nitrogen, N2, InChI=1S/N2/c1-2
Compound 4: water, H2O, InChI=1S/H2O/h1H2
Compound 5: oxygen, O2, InChI=1S/O2/c1-2
Compound 6: N-((dibutylamino)thioxomethyl)-2-thiophenecarboxamide, C14H22N2OS2, InChI=1S/C14H22N2OS2/c1-3-5-9-16(10-6-4-2)14(18)15-13(17)12-8-7-11-19-12/h7-8,11H,3-6,9-10H2,1-2H3,(H,15,17,18)
Compound 7: N-((bis(2-methylpropyl)amino)thioxomethyl)-2-thiophenecarboxamide, C14H22N2OS2, InChI=1S/C14H22N2OS2/c1-10(2)8-16(9-11(3)4)14(18)15-13(17)12-6-5-7-19-12/h5-7,10-11H,8-9H2,1-4H3,(H,15,17,18)

System: N-((dibutylamino)thioxomethyl)-2-thiophenecarboxamide; phases: Crystal, Gas
Property: Molar enthalpy of vaporization or sublimation, kJ/mol (Crystal); method: Static calorimetry
Temperature, K	Molar enthalpy of vaporization or sublimation, kJ/mol	uncertainty
298	204.7	1.1

System: N-((bis(2-methylpropyl)amino)thioxomethyl)-2-thiophenecarboxamide; phases: Crystal, Gas
Property: Molar enthalpy of vaporization or sublimation, kJ/mol (Crystal); method: Static calorimetry
Temperature, K	Molar enthalpy of vaporization or sublimation, kJ/mol	uncertainty
298	203.2	1.1

Reaction: 2 sulfuric acid + -1 N-((dibutylamino)thioxomethyl)-2-thiophenecarboxamide + 14 carbon dioxide + 1 nitrogen + 9 water + -22 oxygen
Property: Specific internal energy of reaction at constant volume, J/g
-32087.7

Reaction: 2 sulfuric acid + -1 N-((bis(2-methylpropyl)amino)thioxomethyl)-2-thiophenecarboxamide + 14 carbon dioxide + 1 nitrogen + 9 water + -22 oxygen
Property: Specific internal energy of reaction at constant volume, J/g
-31837.7
