Measured thermophysical data. Comprehensive analysis of thermodynamic properties of calcium nitrate
Source: J. Chem. Thermodyn., 2019, 10.1016/j.jct.2019.03.007
Compound 1: calcium nitrate, CaN2O6, InChI=1S/Ca.2NO3/c;2*2-1(3)4/q+2;2*-1

System: calcium nitrate; phases: Crystal 1, Liquid, Gas
Property: Triple point temperature, K (Crystal 1); method: DSC
Triple point temperature, K	uncertainty
823	4

System: calcium nitrate; phases: Crystal 1, Liquid, Gas
Property: Molar enthalpy of transition or fusion, kJ/mol (Crystal 1); method: DSC
Molar enthalpy of transition or fusion, kJ/mol	uncertainty
33.4	2.1

System: calcium nitrate; phases: Crystal 2, Crystal 1, Gas
Property: Triple point temperature, K (Crystal 2); method: DSC
Triple point temperature, K	uncertainty
290	4

System: calcium nitrate; phases: Crystal 2, Crystal 1, Gas
Property: Molar enthalpy of transition or fusion, kJ/mol (Crystal 2); method: DSC
Molar enthalpy of transition or fusion, kJ/mol	uncertainty
0.121	0.106

System: calcium nitrate; phases: Crystal 1
Fixed: Pressure, kPa = 100
Property: Molar volume, m3/mol (Crystal 1); method: X-ray diffraction
Temperature, K	Molar volume, m3/mol	uncertainty
298	6.616031e-05	5.356e-08
323	6.636939e-05	5.368e-08
348	6.65832e-05	5.38e-08
373	6.680182e-05	5.393e-08
398	6.702782e-05	5.406e-08
423	6.725855e-05	5.419e-08
448	6.749297e-05	5.433e-08
473	6.772674e-05	5.447e-08
498	6.796503e-05	5.461e-08
523	6.820815e-05	5.476e-08
548	6.845427e-05	5.491e-08
573	6.87115e-05	5.51e-08
598	6.90022e-05	5.52e-08
623	6.919895e-05	5.536e-08
648	6.94462e-05	5.55e-08
673	6.970201e-05	5.568e-08
698	6.993898e-05	5.583e-08
723	7.018887e-05	5.598e-08
698	6.992222e-05	5.582e-08
673	6.966958e-05	5.566e-08
648	6.940498e-05	5.549e-08
623	6.915331e-05	5.534e-08
598	6.890438e-05	5.518e-08
573	6.865991e-05	5.503e-08
548	6.841776e-05	5.489e-08
523	6.81794e-05	5.47e-08
498	6.794233e-05	5.46e-08
473	6.770804e-05	5.446e-08
448	6.747643e-05	5.432e-08
423	6.724774e-05	5.419e-08
398	6.702363e-05	5.406e-08
373	6.68013e-05	5.39e-08
348	6.65847e-05	5.38e-08
323	6.637505e-05	5.368e-08
298	6.616016e-05	5.356e-08
298	6.61417e-05	5.35e-08

System: calcium nitrate; phases: Crystal 2
Fixed: Pressure, kPa = 101.325
Property: Molar heat capacity at constant pressure, J/K/mol (Crystal 2); method: DSC
Temperature, K	Molar heat capacity at constant pressure, J/K/mol	uncertainty
140.18	107.65289	7.53022
141.18	107.78908	7.54758
142.18	107.92856	7.56902
143.18	108.0828	7.6016
144.18	108.2551	7.608
145.18	108.53405	7.6011
146.18	108.77034	7.62847
147.18	109.04273	7.64816
148.18	109.41029	7.6834
149.18	109.53172	7.68952
150.18	109.66135	7.70694
151.18	110.04368	7.73834
152.18	110.2012	7.7475
153.18	110.554	7.768
154.18	110.68199	7.78245
155.18	111.12339	7.82498
156.18	111.45157	7.84281
157.18	111.69278	7.87311
158.18	111.99471	7.87922
159.18	112.21459	7.8928
160.18	112.55589	7.91893
161.18	112.85618	7.93174
162.18	113.24343	7.96348
163.18	113.34845	7.96918
164.18	113.44854	7.97808
165.18	113.93589	8.01361
166.18	114.12131	8.0264
167.18	114.45442	8.05214
168.18	114.72845	8.08077
169.18	114.98443	8.11011
170.18	115.36019	8.12732
171.18	115.66048	8.15618
172.18	116.09696	8.18508
173.18	116.36935	8.20412
174.18	116.65979	8.22087
175.18	117.00766	8.25235
176.18	117.32599	8.26093
177.18	117.64104	8.28399
178.18	117.92	8.3
179.18	118.12347	8.31339
180.18	118.62066	8.34235
181.18	118.70271	8.34783
182.18	119.16216	8.37934
183.18	119.36071	8.39222
184.18	119.65935	8.42389
185.18	119.91369	8.42062
186.18	120.22874	8.46378
187.18	120.54051	8.47236
188.18	120.8047	8.4896
189.18	121.20344	8.52122
190.18	121.32158	8.52217
191.18	121.79416	8.55923
192.18	122.02389	8.56813
193.18	122.20439	8.57762
194.18	122.57851	8.60273
195.18	122.6983	8.609
196.18	123.09704	8.63529
197.18	123.27589	8.6479
198.18	123.48101	8.66583
199.18	123.86498	8.69165
200.18	123.9421	8.7065
201.18	124.38842	8.72976
202.18	124.62307	8.75253
203.18	124.88069	8.77673
204.18	125.24005	8.79701
205.18	125.5469	8.8259
206.18	125.79796	8.84109
207.18	126.10645	8.86273
208.18	126.43299	8.88316
209.18	126.73163	8.90421
210.18	126.95315	8.92239
211.18	127.36009	8.95145
212.18	127.60131	8.96898
213.18	127.81955	8.98114
214.18	128.18711	9.00538
215.18	128.54811	9.03022
216.18	128.81721	9.0449
217.18	129.14211	9.07046
218.18	129.4145	9.0926
219.18	129.69181	9.10309
220.18	129.91169	9.10904
221.18	130.24316	9.1345
222.18	130.54508	9.15232
223.18	130.82732	9.17237
224.18	131.02587	9.18672
225.18	131.19488	9.1997
226.18	131.51814	9.2213
227.18	131.7774	9.2368
228.18	132.06127	9.25448
229.18	132.35171	9.27731
230.18	132.59949	9.3042
231.18	132.91454	9.32195
232.18	133.16396	9.34037
233.18	133.40189	9.3488
234.18	133.66115	9.35695
235.18	134.03692	9.3792
236.18	134.27649	9.38612
237.18	134.56036	9.40892
238.18	134.6703	9.4257
239.18	134.73102	9.44328
240.18	134.88362	9.46029
241.18	134.93449	9.47018
242.18	135.27251	9.49493
243.18	135.7533	9.5361
244.18	136.32597	9.58478
245.18	136.84121	9.63028
246.18	137.21206	9.66846
247.18	137.52383	9.69222
248.18	137.78965	9.69527
249.18	138.02102	9.70163
250.18	138.35084	9.71347
251.18	138.61503	9.72585
252.18	138.99079	9.75367
253.18	139.21396	9.76645
254.18	139.61434	9.79406
255.18	139.92118	9.8127
256.18	140.17388	9.82788
257.18	140.52339	9.8465
258.18	140.73507	9.86057
259.18	140.9648	9.8694
260.18	141.24047	9.88334
261.18	141.45543	9.90103
262.18	141.70812	9.91342
263.18	141.91816	9.93006
264.18	142.15281	9.95067
265.18	142.33003	9.96288
266.18	142.65328	9.99125
267.18	142.87152	10.00756
268.18	143.13735	10.02989
269.18	143.47701	10.05895
270.18	143.75104	10.08267
271.18	144.1104	10.1075
272.18	144.391	10.129
273.18	144.69128	10.14815
274.18	145.049	10.173
275.18	145.32795	10.19133
276.18	145.65121	10.2114
277.18	145.90719	10.22858
278.18	146.14512	10.24489
279.18	146.48971	10.27222
280.18	146.74076	10.29632
281.18	147.05089	10.32867
282.18	147.32	10.36
283.18	147.617	10.404
284.18	148.0502	10.4517
285.18	148.47027	10.43192
286.18	149.01013	10.49506
287.18	149.55327	10.56731
288.18	150.14727	10.65067
289.18	150.77081	10.72318

System: calcium nitrate; phases: Crystal 1
Fixed: Pressure, kPa = 101.325
Property: Molar heat capacity at constant pressure, J/K/mol (Crystal 1); method: DSC
Temperature, K	Molar heat capacity at constant pressure, J/K/mol	uncertainty
290.18	151.37303	10.84856
291.18	151.12197	10.83938
292.18	150.20635	10.63764
293.18	149.35144	10.48103
294.18	148.69015	10.38197
295.18	148.17163	10.41332
296.18	147.87955	10.37003
297.18	147.79094	10.31937
298.18	147.73679	10.29201
299.18	147.75648	10.29089
300.18	147.87627	10.31137
301.18	148.08466	10.34405
302.18	148.34392	10.37959
303.18	148.69672	10.42496
304.18	149.01833	10.46437
305.18	149.46466	10.5105
306.18	149.88473	10.54894
307.18	150.29988	10.58495
308.18	150.73964	10.6168
309.18	151.11212	10.64759
310.18	151.51907	10.6758
311.18	151.89483	10.69831
312.18	152.28044	10.7232
313.18	152.65949	10.74528
314.18	153.06643	10.77105
315.18	153.51604	10.7985
316.18	153.88032	10.81593
317.18	154.26757	10.83569
318.18	154.63842	10.85039
319.18	154.97152	10.8601
320.18	155.31611	10.87014
321.18	155.5524	10.8745
322.18	155.80674	10.88136
323.18	155.96919	10.88257
324.18	156.09061	10.88416
325.18	156.21204	10.88751
326.18	156.2547	10.8877
327.18	156.30885	10.88969
328.18	156.31049	10.88911
329.18	156.33675	10.89044
330.18	156.39746	10.89483
331.18	156.44341	10.89849
332.18	156.54842	10.90672
333.18	156.6436	10.9135
334.18	156.71251	10.91835
335.18	156.85199	10.92738
336.18	156.94224	10.93421
337.18	157.08172	10.94313
338.18	157.09648	10.94444
339.18	157.12766	10.94712
340.18	157.12766	10.94621
341.18	157.22283	10.95354
342.18	157.25565	10.95584
343.18	157.37708	10.96599
344.18	157.49194	10.97581
345.18	157.54773	10.98193
346.18	157.70362	10.99278
347.18	157.84473	11.00351
348.18	157.99898	11.01393
349.18	158.15979	11.02697
350.18	158.29926	11.03834
351.18	158.39444	11.04463
352.18	158.47976	11.05005
353.18	158.58314	11.05792
354.18	158.79974	11.07423
355.18	158.94086	11.08537
356.18	159.08033	11.09931
357.18	159.1952	11.1101
358.18	159.3839	11.1247
359.18	159.60542	11.13934
360.18	159.80725	11.15437
361.18	160.0862	11.1758
362.18	160.28475	11.19048
363.18	160.44392	11.20085
364.18	160.63098	11.21298
365.18	160.80984	11.22461
366.18	161.02316	11.2386
367.18	161.17084	11.24757
368.18	161.33493	11.25979
369.18	161.52527	11.26991
370.18	161.69757	11.2822
371.18	161.94534	11.29922
372.18	162.09467	11.31157
373.18	162.28501	11.32585
374.18	162.34901	11.33103
375.18	162.54099	11.34587
376.18	162.7461	11.3592
377.18	162.97255	11.37666
378.18	163.17766	11.39326
379.18	163.3959	11.4138
380.18	163.62398	11.43072
381.18	163.83894	11.44493
382.18	164.05062	11.45891
383.18	164.32465	11.47565
384.18	164.56914	11.49076
385.18	164.79559	11.50588
386.18	164.97773	11.51825
387.18	165.1812	11.5317
388.18	165.31083	11.53886
389.18	165.46507	11.54805
390.18	165.67183	11.56028
391.18	165.87694	11.5734
392.18	166.06564	11.58472
393.18	166.27076	11.59991
394.18	166.45782	11.61195
395.18	166.60058	11.62124
396.18	166.73677	11.62839
397.18	166.86476	11.63757
398.18	167.03377	11.64791
399.18	167.147	11.656
400.18	167.32585	11.6706
401.18	167.42595	11.67915
402.18	167.62778	11.69515
403.18	167.76562	11.70675
404.18	167.98057	11.72428
405.18	168.20702	11.74219
406.18	168.41377	11.75769
407.18	168.62545	11.77332
408.18	168.87651	11.79002
409.18	169.08982	11.80502
410.18	169.34908	11.82109
411.18	169.4902	11.8318
412.18	169.72485	11.84588
413.18	169.83643	11.85172
414.18	170.05795	11.86596
415.18	170.21384	11.874
416.18	170.45341	11.88979
417.18	170.58304	11.89689
418.18	170.76026	11.90964
419.18	170.92763	11.91861
420.18	171.07039	11.9291
421.18	171.17377	11.93429
422.18	171.32145	11.94551
423.18	171.45272	11.9553
424.18	171.54625	11.96335
425.18	171.73003	11.97834
426.18	171.86787	11.99165
427.18	172.04672	12.0055
428.18	172.25676	12.02243
429.18	172.49961	12.04218
430.18	172.74411	12.05931
431.18	173.00665	12.07991
432.18	173.21176	12.09374
433.18	173.43328	12.10719
434.18	173.63347	12.12182
435.18	173.82218	12.13389
436.18	174.0437	12.1475
437.18	174.20779	12.15716
438.18	174.34891	12.16564
439.18	174.61801	12.18294
440.18	174.82477	12.19695
441.18	175.02168	12.20847
442.18	175.15951	12.21805
443.18	175.32852	12.22973
444.18	175.47128	12.2366
445.18	175.64522	12.24769
446.18	175.77321	12.25588
447.18	175.9373	12.2685
448.18	176.07513	12.27918
449.18	176.20312	12.29028
450.18	176.36065	12.30127
451.18	176.52146	12.31301
452.18	176.72165	12.32707
453.18	176.94153	12.34368
454.18	177.18602	12.36072
455.18	177.3616	12.3735
456.18	177.5142	12.3879
457.18	177.68486	12.39829
458.18	177.88012	12.41065
459.18	178.00975	12.41445
460.18	178.19025	12.42721

System: calcium nitrate; phases: Crystal 1
Fixed: Pressure, kPa = 101.325
Property: Molar heat capacity at constant pressure, J/K/mol (Crystal 1); method: DSC
Temperature, K	Molar heat capacity at constant pressure, J/K/mol	uncertainty
328.777	142.62703	10.24761
329.777	143.75925	10.19101
330.777	144.52227	10.18754
331.777	145.04079	10.20269
332.777	145.41492	10.22464
333.777	145.77756	10.33745
334.777	146.13855	10.30353
335.777	146.49299	10.29874
336.777	146.83758	10.30938
337.777	147.17724	10.32737
338.777	147.49722	10.34436
339.777	147.77781	10.35868
340.777	148.042	10.372
341.777	148.31111	10.38598
342.777	148.57529	10.39911
343.777	148.83127	10.41255
344.777	149.08233	10.42761
345.777	149.32846	10.4431
346.777	149.56147	10.4579
347.777	149.77479	10.47164
348.777	149.98482	10.48517
349.777	150.20306	10.49873
350.777	150.42458	10.51211
351.777	150.65595	10.52629
352.777	150.8906	10.5411
353.777	151.11704	10.55536
354.777	151.32216	10.56811
355.777	151.50922	10.57998
356.777	151.6848	10.591
357.777	151.85217	10.60149
358.777	152.01462	10.61209
359.777	152.18363	10.62365
360.777	152.36741	10.6366
361.777	152.55775	10.65032
362.777	152.75302	10.66472
363.777	152.95485	10.67981
364.777	153.1534	10.6945
365.777	153.34703	10.70849
366.777	153.54065	10.72237
367.777	153.73756	10.73624
368.777	153.93775	10.7499
369.777	154.13794	10.76332
370.777	154.33977	10.77686
371.777	154.54488	10.7905
372.777	154.74672	10.80372
373.777	154.94034	10.81626
374.777	155.12248	10.82792
375.777	155.2997	10.8394
376.777	155.47199	10.85038
377.777	155.64101	10.86132
378.777	155.80838	10.87237
379.777	155.97247	10.88345
380.777	156.14148	10.89499
381.777	156.31049	10.90666
382.777	156.48115	10.91848
383.777	156.6518	10.9304
384.777	156.82081	10.94229
385.777	156.98983	10.954
386.777	157.15884	10.96579
387.777	157.32621	10.97734
388.777	157.49522	10.98909
389.777	157.66588	11.00099
390.777	157.83325	11.01262
391.777	158.0039	11.0246
392.777	158.17127	11.0364
393.777	158.34193	11.04839
394.777	158.51258	11.06029
395.777	158.68159	11.07208
396.777	158.85553	11.08409
397.777	159.02946	11.09602
398.777	159.2034	11.1081
399.777	159.37569	11.12041
400.777	159.54471	11.1324
401.777	159.71208	11.14411
402.777	159.87289	11.15529
403.777	160.0419	11.167
404.777	160.22732	11.17989
405.777	160.40618	11.19232
406.777	160.5834	11.2047
407.777	160.75733	11.21693
408.777	160.93127	11.22898
409.777	161.10192	11.24036
410.777	161.27093	11.25179
411.777	161.43995	11.26318
412.777	161.60732	11.2745
413.777	161.77469	11.28583
414.777	161.94042	11.29708
415.777	162.10615	11.30834
416.777	162.2686	11.3194
417.777	162.42941	11.33032
418.777	162.59022	11.34124
419.777	162.74938	11.35212
420.777	162.90691	11.36289
421.777	163.06444	11.37377
422.777	163.22196	11.38473
423.777	163.37785	11.39553
424.777	163.53538	11.40652
425.777	163.6929	11.4175
426.777	163.85207	11.42858
427.777	164.01288	11.43976
428.777	164.17205	11.45086
429.777	164.33285	11.46212
430.777	164.49202	11.47326
431.777	164.64955	11.48425
432.777	164.80707	11.49524
433.777	164.9646	11.5062
434.777	165.12541	11.51745
435.777	165.28622	11.52867
436.777	165.44702	11.53996
437.777	165.60947	11.55136
438.777	165.77028	11.56273
439.777	165.93273	11.57413
440.777	166.09354	11.58546
441.777	166.25599	11.59683
442.777	166.41844	11.6082
443.777	166.58417	11.61972
444.777	166.7499	11.6312
445.777	166.91727	11.64277
446.777	167.08136	11.65407
447.777	167.24709	11.66541
448.777	167.4079	11.6763
449.777	167.56707	11.68701
450.777	167.72623	11.69769
451.777	167.88376	11.70837
452.777	168.03801	11.71875
453.777	168.19061	11.72919
454.777	168.33993	11.7394
455.777	168.48925	11.74958
456.777	168.64022	11.75995
457.777	168.78954	11.77023
458.777	168.94214	11.78078
459.777	169.0931	11.7912
460.777	169.24243	11.80163
461.777	169.39339	11.81206
462.777	169.54271	11.82238
463.777	169.69203	11.8326
464.777	169.83971	11.84268
465.777	169.98904	11.85287
466.777	170.13672	11.86282
467.777	170.28276	11.87266
468.777	170.42716	11.88239
469.777	170.56827	11.89189
470.777	170.70775	11.90126
471.777	170.8423	11.9103
472.777	170.97522	11.91923
473.777	171.10813	11.92819
474.777	171.2394	11.9371
475.777	171.37067	11.94599
476.777	171.5003	11.9549
477.777	171.62994	11.96388
478.777	171.75793	11.97276
479.777	171.88428	11.98152
480.777	172.01227	11.9904
481.777	172.1419	11.9994
482.777	172.27153	12.00847
483.777	172.4028	12.0177
484.777	172.53243	12.02679
485.777	172.66206	12.03587
486.777	172.79169	12.04489
487.777	172.92296	12.05399
488.777	173.05424	12.06307
489.777	173.18715	12.07229
490.777	173.31842	12.08136
491.777	173.44805	12.09033
492.777	173.57604	12.09918
493.777	173.70403	12.10803
494.777	173.83202	12.11685
495.777	173.95837	12.12561
496.777	174.08472	12.13435
497.777	174.21271	12.14323
498.777	174.3407	12.1521
499.777	174.46869	12.16093
500.777	174.59832	12.16992
501.777	174.72467	12.17868
502.777	174.85102	12.18742
503.777	174.97573	12.19602
504.777	175.10044	12.20461
505.777	175.22515	12.21316
506.777	175.34986	12.22173
507.777	175.47456	12.2303
508.777	175.59763	12.23884
509.777	175.7207	12.2473
510.777	175.84213	12.25571
511.777	175.96191	12.26398
512.777	176.0817	12.2722
513.777	176.20148	12.28051
514.777	176.32291	12.28896
515.777	176.44434	12.29744
516.777	176.56576	12.30589
517.777	176.68555	12.31426
518.777	176.80697	12.32276
519.777	176.9284	12.3312
520.777	177.04983	12.33971
521.777	177.17125	12.34818
522.777	177.29268	12.35669
523.777	177.41575	12.36522
524.777	177.53882	12.37376
525.777	177.66188	12.38233
526.777	177.78495	12.39092
527.777	177.90802	12.39948
528.777	178.0278	12.4078
529.777	178.14759	12.41615
530.777	178.26902	12.4246
531.777	178.39208	12.43314
532.777	178.51351	12.44151
533.777	178.63658	12.45008
534.777	178.75965	12.45861
535.777	178.88271	12.46713
536.777	179.00414	12.4755
537.777	179.12228	12.48367
538.777	179.24207	12.49193
539.777	179.36022	12.50005
540.777	179.47836	12.50818
541.777	179.59651	12.5163
542.777	179.71465	12.52447
543.777	179.83279	12.5326
544.777	179.9493	12.5407
545.777	180.0658	12.5487
546.777	180.18067	12.55659
547.777	180.29553	12.56449
548.777	180.40875	12.57227
549.777	180.52361	12.58017
550.777	180.63684	12.58798
551.777	180.74842	12.5957
552.777	180.86	12.6
553.777	180.97158	12.61116
554.777	181.08152	12.61876
555.777	181.1931	12.6265
556.777	181.30468	12.6343
557.777	181.41626	12.64208
558.777	181.52784	12.64987
559.777	181.63943	12.65769
560.777	181.75101	12.6655
561.777	181.86423	12.6734
562.777	181.97745	12.68133
563.777	182.09067	12.68926
564.777	182.2039	12.6972
565.777	182.31876	12.7052
566.777	182.43198	12.71308
567.777	182.54684	12.7211
568.777	182.66171	12.72912
569.777	182.77657	12.73716
570.777	182.88979	12.74506
571.777	183.00301	12.75303
572.777	183.11788	12.76108
573.777	183.23274	12.76912
574.777	183.34924	12.77723
575.777	183.46575	12.78534
576.777	183.58553	12.79365
577.777	183.70368	12.80182
578.777	183.82182	12.80997
579.777	183.93669	12.81783
580.777	184.04991	12.82552
581.777	184.16149	12.83304
582.777	184.27307	12.84053
583.777	184.38301	12.84792
584.777	184.48967	12.85511
585.777	184.59305	12.86209
586.777	184.69478	12.86898
587.777	184.79324	12.87565
588.777	184.89169	12.88234
589.777	184.9885	12.889
590.777	185.08532	12.8956
591.777	185.18213	12.90226
592.777	185.27894	12.90894
593.777	185.37575	12.91564
594.777	185.47257	12.92236
595.777	185.56774	12.92892
596.777	185.66291	12.93551
597.777	185.75644	12.94196
598.777	185.85162	12.94851
599.777	185.94679	12.95506
600.777	186.03868	12.9614
601.777	186.13221	12.96784
602.777	186.2241	12.9742
603.777	186.31435	12.98039
604.777	186.4046	12.9866
605.777	186.49485	12.99279
606.777	186.58346	12.99885
607.777	186.67207	13.00496
608.777	186.76067	13.01112
609.777	186.84764	13.01717
610.777	186.93297	13.02311
611.777	187.01665	13.02897
612.777	187.10362	13.03508
613.777	187.19223	13.0413
614.777	187.28248	13.04766
615.777	187.37273	13.05405
616.777	187.46462	13.06057
617.777	187.55815	13.0672
618.777	187.65168	13.0738
619.777	187.74521	13.08039
620.777	187.84039	13.08709
621.777	187.93556	13.09375
622.777	188.03237	13.10051
623.777	188.12919	13.10725
624.777	188.226	13.114
625.777	188.32281	13.12079
626.777	188.41798	13.12745
627.777	188.51316	13.13413
628.777	188.60669	13.1407
629.777	188.70186	13.14738
630.777	188.80031	13.15428
631.777	188.89877	13.16121
632.777	189.0005	13.1684
633.777	189.10224	13.17557
634.777	189.20397	13.18275
635.777	189.30407	13.18978
636.777	189.40581	13.19688
637.777	189.50754	13.20391
638.777	189.61092	13.21102
639.777	189.71429	13.21806
640.777	189.81767	13.22519
641.777	189.91777	13.2321
642.777	190.01458	13.23877
643.777	190.10975	13.24533
644.777	190.19836	13.2515
645.777	190.29353	13.25818
646.777	190.39035	13.26502
647.777	190.48552	13.27182
648.777	190.58397	13.27892
649.777	190.68735	13.28644
650.777	190.79565	13.29418
651.777	190.90395	13.30183
652.777	191.01553	13.30972
653.777	191.13039	13.3178
654.777	191.24525	13.32575
655.777	191.35684	13.33335
656.777	191.46185	13.34047
657.777	191.56687	13.34758
658.777	191.67189	13.3546
659.777	191.77198	13.36124
660.777	191.86716	13.36754
661.777	191.96069	13.3738
662.777	192.05586	13.38019
663.777	192.14775	13.38631
664.777	192.23472	13.3921
665.777	192.3184	13.3977
666.777	192.40209	13.40335
667.777	192.48577	13.40896
668.777	192.56454	13.41431
669.777	192.64002	13.41955
670.777	192.71714	13.42503
671.777	192.78934	13.43019
672.777	192.86154	13.43534
673.777	192.9403	13.441
674.777	193.02563	13.44711
675.777	193.1208	13.4539
676.777	193.21762	13.46089
677.777	193.31443	13.46784
678.777	193.4096	13.4746
679.777	193.50313	13.48107
680.777	193.5983	13.4874
681.777	193.69184	13.49348
682.777	193.78373	13.4994
683.777	193.87398	13.50525
684.777	193.95602	13.51065
685.777	194.02658	13.51535
686.777	194.07909	13.51892
687.777	194.12832	13.52228
688.777	194.17754	13.52555
689.777	194.23497	13.52936
690.777	194.30553	13.53412
691.777	194.38922	13.53984
692.777	194.4729	13.5455
693.777	194.54346	13.55041
694.777	194.60089	13.55441
695.777	194.65176	13.55791
696.777	194.6895	13.5605
697.777	194.72068	13.56287
698.777	194.76334	13.56633
699.777	194.82078	13.57091
700.777	194.88477	13.57609
701.777	194.9701	13.5831
702.777	195.07511	13.59166
703.777	195.21131	13.60235
704.777	195.3393	13.6125
705.777	195.46893	13.62342
706.777	195.61169	13.63595
707.777	195.75117	13.64918
708.777	195.889	13.662
709.777	196.03504	13.6753
710.777	196.22703	13.69051
711.777	196.46824	13.7078
712.777	196.76196	13.72502
713.777	197.05568	13.73771
714.777	197.32315	13.78055
715.777	197.53154	13.79601
716.777	197.69563	13.80288
717.777	197.69891	13.78852
718.777	197.45934	13.75524

System: calcium nitrate; phases: Crystal 1
Fixed: Pressure, kPa = 101.325
Property: Molar heat capacity at constant pressure, J/K/mol (Crystal 1); method: DSC
Temperature, K	Molar heat capacity at constant pressure, J/K/mol	uncertainty
403	160.68542	11.19475
404	160.77645	11.1991
405	161.04304	11.21539
406	160.25029	11.16756
407	160.31673	11.17504
408	160.29738	11.16432
409	160.49168	11.17863
410	161.08176	11.21899
411	160.75893	11.20537
412	160.91545	11.21677
413	161.04013	11.22975
414	161.26002	11.24916
415	161.40613	11.24878
416	161.42188	11.25925
417	161.51848	11.27126
418	161.72873	11.2893
419	162.11249	11.31496
420	162.15162	11.31882
421	162.32861	11.3316
422	162.70691	11.36675
423	162.96176	11.37819
424	163.14436	11.37946
425	163.33277	11.39394
426	163.36602	11.39151
427	163.76344	11.4152
428	163.76596	11.41903
429	163.70165	11.41735
430	163.80156	11.41962
431	163.75929	11.41707
432	163.92469	11.42352
433	164.37735	11.4594
434	164.69469	11.49075
435	164.65015	11.49565
436	164.70425	11.49761
437	164.79722	11.50504
438	165.06813	11.52409
439	165.4414	11.5419
440	165.84493	11.57468
441	165.73833	11.5636
442	165.93864	11.57381
443	166.39969	11.602
444	166.40235	11.59651
445	166.54766	11.60364
446	166.45634	11.6003
447	166.38873	11.59529
448	166.47248	11.59704
449	166.51348	11.6006
450	166.69142	11.61359
451	166.81232	11.62626
452	166.99218	11.641
453	167.11887	11.64988
454	167.18991	11.65244
455	167.38911	11.66358
456	167.60762	11.67974
457	167.67322	11.68114
458	167.76036	11.6869
459	167.65854	11.68075
460	167.6479	11.6786
461	167.83877	11.69141
462	167.76114	11.68735
463	167.85786	11.69433
464	168.01717	11.70759
465	168.08378	11.71451
466	168.24674	11.7276
467	168.45102	11.74178
468	168.56046	11.74842
469	168.63698	11.75303
470	168.78463	11.76151
471	169.08349	11.78336
472	169.00361	11.78036
473	169.04115	11.78372
474	169.15579	11.79266
475	169.09956	11.79197
476	169.33577	11.80434
477	169.70149	11.83409
478	169.85389	11.8494
479	169.98442	11.8617
480	170.29811	11.88583
481	170.3841	11.8893
482	170.52938	11.89395
483	170.78045	11.91325
484	171.02774	11.92895
485	171.06155	11.92702
486	171.19908	11.93676
487	171.33443	11.94768
488	171.56885	11.96141
489	171.63345	11.96407
490	171.7405	11.9698
491	171.83551	11.97914
492	172.05596	11.99661
493	172.17561	12.00092
494	172.32053	12.00804
495	172.25358	12.00343
496	172.54927	12.0221
497	172.79817	12.03754
498	172.81001	12.03858
499	172.68046	12.02906
500	172.79061	12.03873
501	172.73932	12.03369
502	172.78533	12.03634
503	172.92765	12.05033
504	173.02004	12.05894
505	173.14253	12.0664
506	173.30443	12.08201
507	173.4952	12.0977
508	173.85949	12.12222
509	173.87646	12.12205
510	173.9175	12.1263
511	174.12691	12.14215
512	174.29653	12.15852
513	174.39957	12.15878
514	174.42063	12.16018
515	174.61877	12.17174
516	174.84335	12.18487
517	175.24546	12.21279
518	175.27868	12.21737
519	175.29186	12.21926
520	175.20822	12.21104
521	175.26034	12.21328
522	175.42609	12.21915
523	175.67308	12.23825
524	175.75131	12.24495
525	175.80379	12.25205
526	175.93528	12.25967
527	175.81649	12.25156
528	176.06417	12.2678
529	176.19161	12.27935
530	176.36443	12.29348
531	176.31054	12.29143
532	176.48715	12.30596
533	176.65939	12.31487
534	176.92795	12.33211
535	177.1108	12.3428
536	177.33848	12.35807
537	177.33771	12.3597
538	177.42105	12.3673
539	177.46409	12.36812
540	177.5051	12.3703
541	177.41341	12.36068
542	177.70179	12.38422
543	177.9841	12.4056
544	178.11853	12.41363
545	178.25433	12.42698
546	178.24003	12.4321
547	178.49966	12.4468
548	178.69489	12.4558
549	178.65312	12.45169
550	178.92568	12.46882
551	179.13619	12.48424
552	179.2662	12.4925
553	179.3011	12.4956
554	179.36229	12.49942
555	179.37709	12.49973
556	179.41509	12.50332
557	179.6216	12.5168
558	179.86139	12.53279
559	179.79052	12.5296
560	180.01269	12.5456
561	180.28888	12.56609
562	180.35991	12.56777
563	180.3404	12.5636
564	180.52499	12.57759
565	180.57585	12.58129
566	180.69446	12.58722
567	180.6815	12.5871
568	180.69135	12.58912
569	180.71872	12.58962
570	180.95411	12.60601
571	181.01007	12.61106
572	181.16529	12.6227
573	181.26428	12.63094
574	181.32034	12.63464
575	181.37101	12.63653
576	181.59673	12.65224
577	181.65439	12.65644
578	181.76805	12.66341
579	181.78025	12.66413
580	181.88584	12.67293
581	181.94177	12.67495
582	182.11288	12.68677
583	182.12986	12.68861
584	182.17365	12.69379
585	182.34986	12.7064
586	182.41005	12.71056
587	182.45862	12.71308
588	182.63419	12.72666
589	182.82375	12.74018
590	182.9551	12.7481
591	183.00861	12.75199
592	183.11399	12.76049
593	183.23336	12.76768
594	183.30051	12.77218
595	183.38562	12.77742
596	183.46015	12.78386
597	183.59309	12.79564
598	183.68722	12.80197
599	183.86349	12.81354
600	183.94129	12.81879
601	184.09125	12.83108
602	184.36982	12.84888
603	184.47502	12.85666
604	184.49649	12.8561
605	184.56997	12.86082
606	184.76406	12.87439
607	184.79589	12.87349
608	184.92038	12.88319
609	184.95426	12.886
610	185.00292	12.888
611	185.15743	12.89775
612	185.16691	12.89933
613	185.36989	12.91296
614	185.43114	12.91808
615	185.37628	12.91535
616	185.46255	12.92009
617	185.59319	12.92917
618	185.66541	12.93344
619	185.78696	12.94244
620	185.93531	12.95353
621	185.97334	12.95606
622	185.98042	12.95501
623	186.10442	12.96364
624	186.22265	12.97282
625	186.24275	12.97412
626	186.31798	12.9794
627	186.28693	12.97815
628	186.35854	12.98228
629	186.58375	12.99788
630	186.72117	13.00843
631	186.76415	13.01021
632	186.85965	13.01942
633	186.9009	13.022
634	187.01075	13.02952
635	187.12633	13.03768
636	187.08172	13.03278
637	187.28707	13.04724
638	187.33101	13.05022
639	187.54926	13.06645
640	187.69655	13.07738
641	187.57615	13.06963
642	187.68729	13.07581
643	187.72113	13.07909
644	187.92803	13.09164
645	188.1021	13.1055
646	188.10948	13.10891
647	188.18212	13.11261
648	188.30653	13.12267
649	188.35516	13.12427
650	188.6622	13.144
651	188.76294	13.15194
652	188.77679	13.1529
653	188.91106	13.16185
654	188.98835	13.16857
655	189.02875	13.16864
656	189.11287	13.17455
657	189.18465	13.18139
658	189.27641	13.18868
659	189.43274	13.1992
660	189.50425	13.20367
661	189.61049	13.21142
662	189.78768	13.22378
663	189.99297	13.23583
664	190.04234	13.23856
665	190.04264	13.23858
666	190.1551	13.2459
667	190.22898	13.25144
668	190.12454	13.24263
669	190.20888	13.24922
670	190.28052	13.25526
671	190.32711	13.2589
672	190.55203	13.276
673	190.5663	13.2762
674	190.71164	13.28465
675	190.83118	13.29311
676	190.98402	13.30525
677	191.192	13.319
678	191.02043	13.30619
679	190.92863	13.2999
680	191.01627	13.30689
681	191.21621	13.32007
682	191.39795	13.33157
683	191.29061	13.3261
684	191.44747	13.33865
685	191.6618	13.3543
686	191.73629	13.35823
687	191.80432	13.36153
688	191.86134	13.36815
689	191.91849	13.37388
690	192.0683	13.382
691	192.16063	13.3884
692	192.20567	13.39216
693	192.33663	13.40137
694	192.62535	13.42122
695	192.66015	13.42264
696	192.7346	13.4259
697	192.85414	13.43562
698	192.91892	13.43959
699	192.95583	13.43985
700	193.0216	13.4452
701	192.92591	13.44087
702	193.11085	13.45541
703	193.19028	13.46545
704	193.20895	13.47338
705	193.34825	13.47876
706	193.66379	13.50147
707	193.9234	13.5163
708	194.29817	13.54328
709	194.69335	13.61073
710	194.53566	13.5811
711	194.48169	13.55988
712	194.47977	13.55126
713	194.61372	13.55563
