Measured thermophysical data. Separation of sulfur compounds from alkanes with 1-alkylcyanopyridinium-based ionic liquids
Source: J. Chem. Thermodyn., 2014, 10.1016/j.jct.2013.09.032
Compound 1: 1-butyl-3-cyanopyridinium bis(trifluoromethylsulfonyl)imide, C12H13F6N3O4S2, InChI=1S/C10H13N2.C2F6NO4S2/c1-2-3-6-12-7-4-5-10(8-11)9-12;3-1(4,5)14(10,11)9-15(12,13)2(6,7)8/h4-5,7,9H,2-3,6H2,1H3;/q+1;-1
Compound 2: 1-hexyl-4-cyanopyridinium bis(trifluoromethylsulfonyl)imide, C14H17F6N3O4S2, InChI=1S/C12H17N2.C2F6NO4S2/c1-2-3-4-5-8-14-9-6-12(11-13)7-10-14;3-1(4,5)14(10,11)9-15(12,13)2(6,7)8/h6-7,9-10H,2-5,8H2,1H3;/q+1;-1
Compound 3: 1-butyl-4-cyanopyridinium bis(trifluoromethylsulfonyl)imide, C12H13F6N3O4S2, InChI=1S/C10H13N2.C2F6NO4S2/c1-2-3-6-12-7-4-10(9-11)5-8-12;3-1(4,5)14(10,11)9-15(12,13)2(6,7)8/h4-5,7-8H,2-3,6H2,1H3;/q+1;-1
Compound 4: thiophene, C4H4S, InChI=1S/C4H4S/c1-2-4-5-3-1/h1-4H
Compound 5: benzo[b]thiophene, C8H6S, InChI=1S/C8H6S/c1-2-4-8-7(3-1)5-6-9-8/h1-6H
Compound 6: heptane, C7H16, InChI=1S/C7H16/c1-3-5-7-6-4-2/h3-7H2,1-2H3, purity 99.5%
Compound 7: propan-1-ol, C3H8O, InChI=1S/C3H8O/c1-2-3-4/h4H,2-3H2,1H3, purity 99.9%
Compound 8: acetone, C3H6O, InChI=1S/C3H6O/c1-3(2)4/h1-2H3, purity 99.9%

System: 1-butyl-3-cyanopyridinium bis(trifluoromethylsulfonyl)imide; phases: Liquid
Property: Mass density, kg/m3 (Liquid); method: Vibrating tube method
Temperature, K	Pressure, kPa	Mass density, kg/m3	uncertainty
298.15	101.33	1479.79	2.07

System: 1-hexyl-4-cyanopyridinium bis(trifluoromethylsulfonyl)imide; phases: Liquid
Property: Mass density, kg/m3 (Liquid); method: Vibrating tube method
Temperature, K	Pressure, kPa	Mass density, kg/m3	uncertainty
298.15	101.33	1407	1.9

System: 1-butyl-4-cyanopyridinium bis(trifluoromethylsulfonyl)imide; phases: Glass, Liquid, Air at 1 atmosphere
Property: Triple point temperature, K (Glass); method: DTA
Triple point temperature, K	uncertainty
219	3.8

System: 1-butyl-4-cyanopyridinium bis(trifluoromethylsulfonyl)imide; phases: Liquid
Fixed: Pressure, kPa = 101.33
Property: Mass density, kg/m3 (Liquid); method: Vibrating tube method
Temperature, K	Mass density, kg/m3	uncertainty
278.15	1492.99	2.1
288.15	1483.58	2.08
298.15	1474.23	2.06
308.15	1465.05	2.04
318.15	1455.88	2.02
328.15	1446.76	2
338.15	1437.73	1.98
348.15	1428.78	1.96
358.15	1419.9	1.94

System: 1-butyl-4-cyanopyridinium bis(trifluoromethylsulfonyl)imide; phases: Liquid
Fixed: Pressure, kPa = 101.33
Property: Viscosity, Pa*s (Liquid); method: Falling or rolling sphere viscometry
Temperature, K	Viscosity, Pa*s	uncertainty
308.15	0.25045	0.01385
318.15	0.13828	0.00538
328.15	0.08359	0.00233
338.15	0.05447	0.00125
348.15	0.03759	0.00089
358.15	0.02724	0.00065

System: thiophene; phases: Liquid
Property: Mass density, kg/m3 (Liquid); method: Vibrating tube method
Temperature, K	Pressure, kPa	Mass density, kg/m3	uncertainty
298.15	101.33	1058.64	1.03

System: thiophene; phases: Liquid
Property: Refractive index (Na D-line) (Liquid); method: Standard Abbe refractometry
Temperature, K	Pressure, kPa	Refractive index (Na D-line)	uncertainty
298.15	101.33	1.52527	0.0007

System: benzo[b]thiophene; phases: Liquid
Property: Refractive index (Na D-line) (Liquid); method: Standard Abbe refractometry
Temperature, K	Pressure, kPa	Refractive index (Na D-line)	uncertainty
310.15	101.33	1.638	0.0007

System: benzo[b]thiophene; phases: Liquid
Fixed: Pressure, kPa = 101.33
Property: Mass density, kg/m3 (Liquid); method: Vibrating tube method
Temperature, K	Mass density, kg/m3	uncertainty
308.15	1150.55	1.05
313.15	1146.05	1.05
318.15	1141.56	1.05
323.15	1137.07	1.05
328.15	1132.58	1.05
333.15	1128.08	1.05
338.15	1123.59	1.04
343.15	1119.1	1.04
348.15	1114.61	1.04
353.15	1110.11	1.04
358.15	1105.61	1.04
363.15	1101.11	1.04
310.15	1149.31	1.05

System: heptane; phases: Liquid
Property: Mass density, kg/m3 (Liquid); method: Vibrating tube method
Temperature, K	Pressure, kPa	Mass density, kg/m3	uncertainty
298.15	101.33	679.48	1.01

System: heptane; phases: Liquid
Property: Refractive index (Na D-line) (Liquid); method: Standard Abbe refractometry
Temperature, K	Pressure, kPa	Refractive index (Na D-line)	uncertainty
298.15	101.33	1.38519	0.00068

System: propan-1-ol; phases: Liquid
Property: Mass density, kg/m3 (Liquid); method: Vibrating tube method
Temperature, K	Pressure, kPa	Mass density, kg/m3	uncertainty
298.15	101.33	799.52	1.01

System: propan-1-ol; phases: Liquid
Property: Refractive index (Na D-line) (Liquid); method: Standard Abbe refractometry
Temperature, K	Pressure, kPa	Refractive index (Na D-line)	uncertainty
298.15	101.33	1.383745	0.000676

System: acetone; phases: Liquid
Property: Mass density, kg/m3 (Liquid); method: Vibrating tube method
Temperature, K	Pressure, kPa	Mass density, kg/m3	uncertainty
298.15	101.33	785.23	1.01

System: acetone; phases: Liquid
Property: Refractive index (Na D-line) (Liquid); method: Standard Abbe refractometry
Temperature, K	Pressure, kPa	Refractive index (Na D-line)	uncertainty
298.15	101.33	1.356	0.0007

System: thiophene + heptane + 1-butyl-3-cyanopyridinium bis(trifluoromethylsulfonyl)imide; phases: Liquid mixture 1, Liquid mixture 2
Fixed: Temperature, K = 308.15
Fixed: Pressure, kPa = 101.33
Property: Mole fraction of 1-butyl-3-cyanopyridinium bis(trifluoromethylsulfonyl)imide (Liquid mixture 1); method: Chromatography
Property: Mole fraction of thiophene (Liquid mixture 2); method: Chromatography
Property: Mole fraction of 1-butyl-3-cyanopyridinium bis(trifluoromethylsulfonyl)imide (Liquid mixture 2); method: Chromatography
Mole fraction of thiophene	Mole fraction of 1-butyl-3-cyanopyridinium bis(trifluoromethylsulfonyl)imide	uncertainty	Mole fraction of thiophene	uncertainty	Mole fraction of 1-butyl-3-cyanopyridinium bis(trifluoromethylsulfonyl)imide	uncertainty
0	0		0		0.975	
1	0		0.763	0.01	0.237	
0.188	0		0.294	0.014	0.682	
0.327	0		0.429	0.015	0.547	
0.415	0		0.482	0.015	0.496	
0.554	0		0.558	0.014	0.42	
0.656	0		0.604	0.015	0.374	
0.806	0		0.665	0.015	0.317	
0.866	0		0.69	0.015	0.295	
0.932	0		0.724	0.016	0.266	

System: thiophene + heptane + 1-hexyl-4-cyanopyridinium bis(trifluoromethylsulfonyl)imide; phases: Liquid mixture 1, Liquid mixture 2
Fixed: Temperature, K = 308.15
Fixed: Pressure, kPa = 101.33
Property: Mole fraction of 1-hexyl-4-cyanopyridinium bis(trifluoromethylsulfonyl)imide (Liquid mixture 1); method: Chromatography
Property: Mole fraction of thiophene (Liquid mixture 2); method: Chromatography
Property: Mole fraction of 1-hexyl-4-cyanopyridinium bis(trifluoromethylsulfonyl)imide (Liquid mixture 2); method: Chromatography
Mole fraction of thiophene	Mole fraction of 1-hexyl-4-cyanopyridinium bis(trifluoromethylsulfonyl)imide	uncertainty	Mole fraction of thiophene	uncertainty	Mole fraction of 1-hexyl-4-cyanopyridinium bis(trifluoromethylsulfonyl)imide	uncertainty
0	0		0		0.928	
0.853	0		0.762	0.018	0.2	
0.933	0		0.807	0.02	0.17	
1	0		0.856	0.01	0.144	
0.088	0		0.213	0.014	0.72	
0.226	0		0.411	0.015	0.528	
0.34	0		0.514	0.011	0.428	
0.366	0		0.531	0.011	0.412	
0.485	0		0.599	0.015	0.344	
0.594	0		0.649	0.015	0.296	
0.688	0		0.688	0.015	0.261	
0.783	0		0.731	0.016	0.223	

System: thiophene + heptane + 1-butyl-4-cyanopyridinium bis(trifluoromethylsulfonyl)imide; phases: Liquid mixture 1, Liquid mixture 2
Fixed: Temperature, K = 308.15
Fixed: Pressure, kPa = 101.33
Property: Mole fraction of 1-butyl-4-cyanopyridinium bis(trifluoromethylsulfonyl)imide (Liquid mixture 1); method: Chromatography
Property: Mole fraction of thiophene (Liquid mixture 2); method: Chromatography
Property: Mole fraction of 1-butyl-4-cyanopyridinium bis(trifluoromethylsulfonyl)imide (Liquid mixture 2); method: Chromatography
Mole fraction of thiophene	Mole fraction of 1-butyl-4-cyanopyridinium bis(trifluoromethylsulfonyl)imide	uncertainty	Mole fraction of thiophene	uncertainty	Mole fraction of 1-butyl-4-cyanopyridinium bis(trifluoromethylsulfonyl)imide	uncertainty
0	0		0		0.975	
1	0		0.787	0.01	0.213	
0.13	0		0.251	0.014	0.722	
0.296	0		0.415	0.014	0.562	
0.459	0		0.525	0.014	0.448	
0.619	0		0.613	0.015	0.362	
0.7	0		0.647	0.015	0.329	
0.784	0		0.678	0.015	0.3	
0.848	0		0.706	0.016	0.275	
0.933	0		0.747	0.017	0.241	

System: benzo[b]thiophene + heptane + 1-butyl-4-cyanopyridinium bis(trifluoromethylsulfonyl)imide; phases: Liquid mixture 1, Liquid mixture 2
Fixed: Temperature, K = 308.15
Fixed: Pressure, kPa = 101.33
Property: Mole fraction of 1-butyl-4-cyanopyridinium bis(trifluoromethylsulfonyl)imide (Liquid mixture 1); method: Chromatography
Property: Mole fraction of benzo[b]thiophene (Liquid mixture 2); method: Chromatography
Property: Mole fraction of 1-butyl-4-cyanopyridinium bis(trifluoromethylsulfonyl)imide (Liquid mixture 2); method: Chromatography
Mole fraction of benzo[b]thiophene	Mole fraction of 1-butyl-4-cyanopyridinium bis(trifluoromethylsulfonyl)imide	uncertainty	Mole fraction of benzo[b]thiophene	uncertainty	Mole fraction of 1-butyl-4-cyanopyridinium bis(trifluoromethylsulfonyl)imide	uncertainty
0	0		0		0.975	
0.917	0		0.78	0.019	0.189	
0.999	0.001	0.001	0.838	0.01	0.162	
0.062	0.001	0.001	0.217	0.014	0.755	
0.142	0.002	0.002	0.371	0.014	0.599	
0.223	0.001	0.001	0.426	0.014	0.545	
0.375	0		0.498	0.014	0.471	
0.454	0		0.589	0.014	0.368	
0.571	0		0.644	0.014	0.312	
0.734	0		0.691	0.014	0.263	
0.829	0		0.725	0.016	0.232	

System: benzo[b]thiophene + heptane + 1-hexyl-4-cyanopyridinium bis(trifluoromethylsulfonyl)imide; phases: Liquid mixture 2, Liquid mixture 1
Fixed: Temperature, K = 308.15
Fixed: Pressure, kPa = 101.33
Property: Mole fraction of 1-hexyl-4-cyanopyridinium bis(trifluoromethylsulfonyl)imide (Liquid mixture 2); method: Chromatography
Property: Mole fraction of 1-hexyl-4-cyanopyridinium bis(trifluoromethylsulfonyl)imide (Liquid mixture 1); method: Chromatography
Property: Mole fraction of benzo[b]thiophene (Liquid mixture 1); method: Chromatography
Mole fraction of benzo[b]thiophene	Mole fraction of 1-hexyl-4-cyanopyridinium bis(trifluoromethylsulfonyl)imide	uncertainty	Mole fraction of 1-hexyl-4-cyanopyridinium bis(trifluoromethylsulfonyl)imide	uncertainty	Mole fraction of benzo[b]thiophene	uncertainty
0	0.928	0.01	0		0	
0.623	0.296	0.015	0		0.433	
0.656	0.261	0.015	0		0.526	
0.721	0.192	0.014	0		0.73	
0.751	0.164	0.012	0.001	0.001	0.806	
0.813	0.125	0.011	0		0.903	
0.898	0.102	0.01	0.005	0.005	0.995	
0.064	0.865	0.01	0		0.012	
0.356	0.575	0.014	0		0.099	
0.454	0.478	0.015	0.002	0.002	0.161	
0.501	0.43	0.015	0		0.2	
0.576	0.347	0.015	0		0.319	

System: heptane + 1-butyl-3-cyanopyridinium bis(trifluoromethylsulfonyl)imide; phases: Liquid mixture 2, Liquid mixture 1
Property: Mole fraction of 1-butyl-3-cyanopyridinium bis(trifluoromethylsulfonyl)imide (Liquid mixture 2); method: Chromatography
Pressure, kPa	Temperature, K	Mole fraction of 1-butyl-3-cyanopyridinium bis(trifluoromethylsulfonyl)imide	uncertainty
101.33	308.15	0.975	0.01

System: thiophene + 1-butyl-3-cyanopyridinium bis(trifluoromethylsulfonyl)imide; phases: Liquid mixture 2, Liquid mixture 1
Property: Mole fraction of thiophene (Liquid mixture 2); method: Chromatography
Temperature, K	Pressure, kPa	Mole fraction of thiophene	uncertainty
308.15	101.33	0.763	0.01

System: heptane + 1-hexyl-4-cyanopyridinium bis(trifluoromethylsulfonyl)imide; phases: Liquid mixture 2, Liquid mixture 1
Property: Mole fraction of 1-hexyl-4-cyanopyridinium bis(trifluoromethylsulfonyl)imide (Liquid mixture 2); method: Chromatography
Pressure, kPa	Temperature, K	Mole fraction of 1-hexyl-4-cyanopyridinium bis(trifluoromethylsulfonyl)imide	uncertainty
101.33	308.15	0.928	0.01

System: thiophene + 1-hexyl-4-cyanopyridinium bis(trifluoromethylsulfonyl)imide; phases: Liquid mixture 2, Liquid mixture 1
Property: Mole fraction of thiophene (Liquid mixture 2); method: Chromatography
Temperature, K	Pressure, kPa	Mole fraction of thiophene	uncertainty
308.15	101.33	0.856	0.01

System: heptane + 1-butyl-4-cyanopyridinium bis(trifluoromethylsulfonyl)imide; phases: Liquid mixture 2, Liquid mixture 1
Property: Mole fraction of 1-butyl-4-cyanopyridinium bis(trifluoromethylsulfonyl)imide (Liquid mixture 2); method: Chromatography
Pressure, kPa	Temperature, K	Mole fraction of 1-butyl-4-cyanopyridinium bis(trifluoromethylsulfonyl)imide	uncertainty
101.33	308.15	0.975	0.01

System: thiophene + 1-butyl-4-cyanopyridinium bis(trifluoromethylsulfonyl)imide; phases: Liquid mixture 2, Liquid mixture 1
Property: Mole fraction of thiophene (Liquid mixture 2); method: Chromatography
Temperature, K	Pressure, kPa	Mole fraction of thiophene	uncertainty
308.15	101.33	0.787	0.01

System: benzo[b]thiophene + 1-butyl-4-cyanopyridinium bis(trifluoromethylsulfonyl)imide; phases: Liquid mixture 1, Liquid mixture 2
Property: Mole fraction of 1-butyl-4-cyanopyridinium bis(trifluoromethylsulfonyl)imide (Liquid mixture 1); method: Chromatography
Temperature, K	Pressure, kPa	Mole fraction of 1-butyl-4-cyanopyridinium bis(trifluoromethylsulfonyl)imide	uncertainty
308.15	101.33	0.001	0.001

System: benzo[b]thiophene + 1-butyl-4-cyanopyridinium bis(trifluoromethylsulfonyl)imide; phases: Liquid mixture 2, Liquid mixture 1
Property: Mole fraction of benzo[b]thiophene (Liquid mixture 2); method: Chromatography
Temperature, K	Pressure, kPa	Mole fraction of benzo[b]thiophene	uncertainty
308.15	101.33	0.838	0.01

System: benzo[b]thiophene + 1-hexyl-4-cyanopyridinium bis(trifluoromethylsulfonyl)imide; phases: Liquid mixture 2, Liquid mixture 1
Property: Mole fraction of 1-hexyl-4-cyanopyridinium bis(trifluoromethylsulfonyl)imide (Liquid mixture 2); method: Chromatography
Temperature, K	Pressure, kPa	Mole fraction of 1-hexyl-4-cyanopyridinium bis(trifluoromethylsulfonyl)imide	uncertainty
308.15	101.33	0.102	0.01

System: benzo[b]thiophene + 1-hexyl-4-cyanopyridinium bis(trifluoromethylsulfonyl)imide; phases: Liquid mixture 1, Liquid mixture 2
Property: Mole fraction of 1-hexyl-4-cyanopyridinium bis(trifluoromethylsulfonyl)imide (Liquid mixture 1); method: Chromatography
Temperature, K	Pressure, kPa	Mole fraction of 1-hexyl-4-cyanopyridinium bis(trifluoromethylsulfonyl)imide	uncertainty
308.15	101.33	0.005	0.005
