Measured thermophysical data. Standard molar enthalpies of formation of two crystalline bis[N-(diethylaminothiocarbonyl)benzamidinato]nickel(II) complexes
Source: J. Chem. Thermodyn., 2004, 10.1016/j.jct.2004.04.009
Compound 1: nickel, Ni, InChI=1S/Ni
Compound 2: sulfur, S, InChI=1S/S
Compound 3: hydrogen, H2, InChI=1S/H2/h1H
Compound 4: nitrogen, N2, InChI=1S/N2/c1-2
Compound 5: graphite, C
Compound 6: bis[N-[(diethylamino)thioxomethyl]-N'-phenylbenzenecarboximidamidato-N',S]nickel, C36H40N6NiS2, InChI=1S/2C18H21N3S.Ni/c2*1-3-21(4-2)18(22)20-17(15-11-7-5-8-12-15)19-16-13-9-6-10-14-16;/h2*5-14H,3-4H2,1-2H3,(H,19,20,22);/q;;+2/p-2
Compound 7: bis[N'-[(diethylamino)(thioxo-.kappa.S)methyl]benzenecarboximidamidato-.kappa.N]nickel, C24H32N6NiS2, InChI=1S/2C12H17N3S.Ni/c2*1-3-15(4-2)12(16)14-11(13)10-8-6-5-7-9-10;/h2*5-9H,3-4H2,1-2H3,(H2,13,14,16);/q;;+2/p-2

Reaction: -1 nickel + -2 sulfur + 1 bis[N-[(diethylamino)thioxomethyl]-N'-phenylbenzenecarboximidamidato-N',S]nickel + -20 hydrogen + -3 nitrogen + -36 graphite
Property: Molar enthalpy of reaction, kJ/mol
285.1

Reaction: -1 nickel + -2 sulfur + 1 bis[N'-[(diethylamino)(thioxo-.kappa.S)methyl]benzenecarboximidamidato-.kappa.N]nickel + -16 hydrogen + -3 nitrogen + -24 graphite
Property: Molar enthalpy of reaction, kJ/mol
6.5
