Measured thermophysical data. Separation of binary mixtures hexane/hex-1-ene, cyclohexane/cyclohexene and ethylbenzene/styrene based on gamma infinity data measurements
Source: J. Chem. Thermodyn., 2018, 10.1016/j.jct.2017.11.017
Compound 1: hexane, C6H14, InChI=1S/C6H14/c1-3-5-6-4-2/h3-6H2,1-2H3, purity 99%
Compound 2: 3-methylpentane, C6H14, InChI=1S/C6H14/c1-4-6(3)5-2/h6H,4-5H2,1-3H3, purity 99%
Compound 3: heptane, C7H16, InChI=1S/C7H16/c1-3-5-7-6-4-2/h3-7H2,1-2H3, purity 99.5%
Compound 4: octane, C8H18, InChI=1S/C8H18/c1-3-5-7-8-6-4-2/h3-8H2,1-2H3, purity 99%
Compound 5: 2,2,4-trimethylpentane, C8H18, InChI=1S/C8H18/c1-7(2)6-8(3,4)5/h7H,6H2,1-5H3, purity 99%
Compound 6: nonane, C9H20, InChI=1S/C9H20/c1-3-5-7-9-8-6-4-2/h3-9H2,1-2H3, purity 99%
Compound 7: decane, C10H22, InChI=1S/C10H22/c1-3-5-7-9-10-8-6-4-2/h3-10H2,1-2H3, purity 99%
Compound 8: cyclopentane, C5H10, InChI=1S/C5H10/c1-2-4-5-3-1/h1-5H2, purity 99%
Compound 9: cyclohexane, C6H12, InChI=1S/C6H12/c1-2-4-6-5-3-1/h1-6H2, purity 99%
Compound 10: methylcyclohexane, C7H14, InChI=1S/C7H14/c1-7-5-3-2-4-6-7/h7H,2-6H2,1H3, purity 99%
Compound 11: cycloheptane, C7H14, InChI=1S/C7H14/c1-2-4-6-7-5-3-1/h1-7H2, purity 98%
Compound 12: cyclooctane, C8H16, InChI=1S/C8H16/c1-2-4-6-8-7-5-3-1/h1-8H2, purity 99%
Compound 13: 1-pentene, C5H10, InChI=1S/C5H10/c1-3-5-4-2/h3H,1,4-5H2,2H3, purity 98.5%
Compound 14: hex-1-ene, C6H12, InChI=1S/C6H12/c1-3-5-6-4-2/h3H,1,4-6H2,2H3, purity 99%
Compound 15: cyclohexene, C6H10, InChI=1S/C6H10/c1-2-4-6-5-3-1/h1-2H,3-6H2, purity 99%
Compound 16: 1-heptene, C7H14, InChI=1S/C7H14/c1-3-5-7-6-4-2/h3H,1,4-7H2,2H3, purity 99%
Compound 17: oct-1-ene, C8H16, InChI=1S/C8H16/c1-3-5-7-8-6-4-2/h3H,1,4-8H2,2H3, purity 98%
Compound 18: 1-decene, C10H20, InChI=1S/C10H20/c1-3-5-7-9-10-8-6-4-2/h3H,1,4-10H2,2H3, purity 97%
Compound 19: 1-pentyne, C5H8, InChI=1S/C5H8/c1-3-5-4-2/h1H,4-5H2,2H3, purity 99%
Compound 20: 1-hexyne, C6H10, InChI=1S/C6H10/c1-3-5-6-4-2/h1H,4-6H2,2H3, purity 97%
Compound 21: 1-heptyne, C7H12, InChI=1S/C7H12/c1-3-5-7-6-4-2/h1H,4-7H2,2H3, purity 98%
Compound 22: 1-octyne, C8H14, InChI=1S/C8H14/c1-3-5-7-8-6-4-2/h1H,4-8H2,2H3, purity 97%
Compound 23: benzene, C6H6, InChI=1S/C6H6/c1-2-4-6-5-3-1/h1-6H, purity 99.8%
Compound 24: toluene, C7H8, InChI=1S/C7H8/c1-7-5-3-2-4-6-7/h2-6H,1H3, purity 99.8%
Compound 25: ethylbenzene, C8H10, InChI=1S/C8H10/c1-2-8-6-4-3-5-7-8/h3-7H,2H2,1H3, purity 99.8%
Compound 26: 1,2-dimethylbenzene, C8H10, InChI=1S/C8H10/c1-7-5-3-4-6-8(7)2/h3-6H,1-2H3, purity 99%
Compound 27: 1,3-dimethylbenzene, C8H10, InChI=1S/C8H10/c1-7-4-3-5-8(2)6-7/h3-6H,1-2H3, purity 99%
Compound 28: 1,4-dimethylbenzene, C8H10, InChI=1S/C8H10/c1-7-3-5-8(2)6-4-7/h3-6H,1-2H3, purity 99%
Compound 29: propylbenzene, C9H12, InChI=1S/C9H12/c1-2-6-9-7-4-3-5-8-9/h3-5,7-8H,2,6H2,1H3, purity 98%
Compound 30: isopropylbenzene, C9H12, InChI=1S/C9H12/c1-8(2)9-6-4-3-5-7-9/h3-8H,1-2H3, purity 99%
Compound 31: styrene, C8H8, InChI=1S/C8H8/c1-2-8-6-4-3-5-7-8/h2-7H,1H2, purity 99.9%
Compound 32: (1-methylethenyl)benzene, C9H10, InChI=1S/C9H10/c1-8(2)9-6-4-3-5-7-9/h3-7H,1H2,2H3, purity 99%
Compound 33: thiophene, C4H4S, InChI=1S/C4H4S/c1-2-4-5-3-1/h1-4H, purity 99%
Compound 34: pyridine, C5H5N, InChI=1S/C5H5N/c1-2-4-6-5-3-1/h1-5H, purity 99.8%
Compound 35: methanol, CH4O, InChI=1S/CH4O/c1-2/h2H,1H3, purity 99.9%
Compound 36: ethanol, C2H6O, InChI=1S/C2H6O/c1-2-3/h3H,2H2,1H3, purity 99.8%
Compound 37: propan-1-ol, C3H8O, InChI=1S/C3H8O/c1-2-3-4/h4H,2-3H2,1H3, purity 99.9%
Compound 38: propan-2-ol, C3H8O, InChI=1S/C3H8O/c1-3(2)4/h3-4H,1-2H3, purity 99.9%
Compound 39: butan-1-ol, C4H10O, InChI=1S/C4H10O/c1-2-3-4-5/h5H,2-4H2,1H3, purity 99.8%
Compound 40: butan-2-ol, C4H10O, InChI=1S/C4H10O/c1-3-4(2)5/h4-5H,3H2,1-2H3, purity 99.5%
Compound 41: 2-methyl-1-propanol, C4H10O, InChI=1S/C4H10O/c1-4(2)3-5/h4-5H,3H2,1-2H3, purity 99.8%
Compound 42: 2-methylpropan-2-ol, C4H10O, InChI=1S/C4H10O/c1-4(2,3)5/h5H,1-3H3, purity 99.7%
Compound 43: pentan-1-ol, C5H12O, InChI=1S/C5H12O/c1-2-3-4-5-6/h6H,2-5H2,1H3, purity 99.8%
Compound 44: water, H2O, InChI=1S/H2O/h1H2
Compound 45: methyl ethanoate, C3H6O2, InChI=1S/C3H6O2/c1-3(4)5-2/h1-2H3, purity 99.8%
Compound 46: methyl propanoate, C4H8O2, InChI=1S/C4H8O2/c1-3-4(5)6-2/h3H2,1-2H3, purity 99%
Compound 47: methyl butanoate, C5H10O2, InChI=1S/C5H10O2/c1-3-4-5(6)7-2/h3-4H2,1-2H3, purity 99%
Compound 48: ethyl acetate, C4H8O2, InChI=1S/C4H8O2/c1-3-6-4(2)5/h3H2,1-2H3, purity 99.8%
Compound 49: tetrahydrofuran, C4H8O, InChI=1S/C4H8O/c1-2-4-5-3-1/h1-4H2, purity 99.9%
Compound 50: 1,4-dioxane, C4H8O2, InChI=1S/C4H8O2/c1-2-6-4-3-5-1/h1-4H2, purity 99.8%
Compound 51: 2-methoxy-2-methylpropane, C5H12O, InChI=1S/C5H12O/c1-5(2,3)6-4/h1-4H3, purity 99.8%
Compound 52: 2-ethoxy-2-methylpropane, C6H14O, InChI=1S/C6H14O/c1-5-7-6(2,3)4/h5H2,1-4H3, purity 99%
Compound 53: 2-methoxy-2-methylbutane, C6H14O, InChI=1S/C6H14O/c1-5-6(2,3)7-4/h5H2,1-4H3, purity 97%
Compound 54: diethyl ether, C4H10O, InChI=1S/C4H10O/c1-3-5-4-2/h3-4H2,1-2H3, purity 99.9%
Compound 55: dipropyl ether, C6H14O, InChI=1S/C6H14O/c1-3-5-7-6-4-2/h3-6H2,1-2H3, purity 99%
Compound 56: diisopropyl ether, C6H14O, InChI=1S/C6H14O/c1-5(2)7-6(3)4/h5-6H,1-4H3, purity 99%
Compound 57: dibutyl ether, C8H18O, InChI=1S/C8H18O/c1-3-5-7-9-8-6-4-2/h3-8H2,1-2H3, purity 99.3%
Compound 58: acetone, C3H6O, InChI=1S/C3H6O/c1-3(2)4/h1-2H3, purity 99.9%
Compound 59: pentan-2-one, C5H10O, InChI=1S/C5H10O/c1-3-4-5(2)6/h3-4H2,1-2H3, purity 99%
Compound 60: pentan-3-one, C5H10O, InChI=1S/C5H10O/c1-3-5(6)4-2/h3-4H2,1-2H3, purity 99%
Compound 61: butanal, C4H8O, InChI=1S/C4H8O/c1-2-3-4-5/h4H,2-3H2,1H3, purity 99%
Compound 62: acetonitrile, C2H3N, InChI=1S/C2H3N/c1-2-3/h1H3, purity 99.9%
Compound 63: 1-nitropropane, C3H7NO2, InChI=1S/C3H7NO2/c1-2-3-4(5)6/h2-3H2,1H3, purity 98.5%
Compound 64: vinyl acetate, C4H6O2, InChI=1S/C4H6O2/c1-3-6-4(2)5/h3H,1H2,2H3, purity 99%
Compound 65: 4-(3-hydroxypropyl)-4-methylmorpholinium dicyanamide, C10H18N4O2, InChI=1S/C8H18NO2.C2N3/c1-9(3-2-6-10)4-7-11-8-5-9;3-1-5-2-4/h10H,2-8H2,1H3;/q+1;-1
Compound 66: 1-(3-hydroxypropyl)-3-methylimidazolium dicyanamide, C9H13N5O, InChI=1S/C7H13N2O.C2N3/c1-8-4-5-9(7-8)3-2-6-10;3-1-5-2-4/h4-5,7,10H,2-3,6H2,1H3;/q+1;-1

System: 4-(3-hydroxypropyl)-4-methylmorpholinium dicyanamide; phases: Liquid
Fixed: Pressure, kPa = 101.325
Property: Mass density, kg/m3 (Liquid); method: Vibrating tube method
Temperature, K	Mass density, kg/m3	uncertainty
298.15	1175.4	3.7
303.15	1172.4	3.7
308.15	1169.4	3.7
313.15	1166.5	3.7
318.15	1163.6	3.7
323.15	1160.7	3.7
328.15	1157.9	3.7
333.15	1155	3.7
338.15	1152.1	3.6
343.15	1149.3	3.6
348.15	1146.5	3.6
353.15	1143.7	3.6
358.15	1141	3.6
363.15	1138.2	3.6
368.15	1135.5	3.6

System: 1-(3-hydroxypropyl)-3-methylimidazolium dicyanamide; phases: Liquid
Fixed: Pressure, kPa = 101.325
Property: Mass density, kg/m3 (Liquid); method: Vibrating tube method
Temperature, K	Mass density, kg/m3	uncertainty
298.15	1171	10.9
303.15	1167.8	10.9
308.15	1164.6	10.8
313.15	1161.4	10.7
318.15	1158.2	10.7
323.15	1155.1	10.6
328.15	1152	10.6
333.15	1148.9	10.5
338.15	1145.8	10.4
343.15	1142.7	10.4
348.15	1139.6	10.3
353.15	1136.6	10.3
358.15	1133.6	10.2
363.15	1130.6	10.2
368.15	1127.6	10.1

System: 1-(3-hydroxypropyl)-3-methylimidazolium dicyanamide + hexane; phases: Liquid
Fixed: Mole fraction of hexane = 0
Fixed: Pressure, kPa = 101.325
Property: Activity coefficient of hexane (Liquid); method: Chromatography
Temperature, K	Activity coefficient of hexane	uncertainty
298.15	357	25
308.15	319	22
318.15	286	20
328.15	257	18
338.15	233	16

System: 1-(3-hydroxypropyl)-3-methylimidazolium dicyanamide + 3-methylpentane; phases: Liquid
Fixed: Mole fraction of 3-methylpentane = 0
Fixed: Pressure, kPa = 101.325
Property: Activity coefficient of 3-methylpentane (Liquid); method: Chromatography
Temperature, K	Activity coefficient of 3-methylpentane	uncertainty
298.15	327	22
308.15	284	20
318.15	249	17
328.15	221	15

System: 1-(3-hydroxypropyl)-3-methylimidazolium dicyanamide + heptane; phases: Liquid
Fixed: Mole fraction of heptane = 0
Fixed: Pressure, kPa = 101.325
Property: Activity coefficient of heptane (Liquid); method: Chromatography
Temperature, K	Activity coefficient of heptane	uncertainty
298.15	562	39
308.15	504	35
318.15	447	31
328.15	402	28
338.15	366	25
348.15	334	23
358.15	306	21

System: 1-(3-hydroxypropyl)-3-methylimidazolium dicyanamide + octane; phases: Liquid
Fixed: Mole fraction of octane = 0
Fixed: Pressure, kPa = 101.325
Property: Activity coefficient of octane (Liquid); method: Chromatography
Temperature, K	Activity coefficient of octane	uncertainty
298.15	881	61
308.15	779	54
318.15	698	48
328.15	626	43
338.15	560	39
348.15	509	35
358.15	465	32

System: 1-(3-hydroxypropyl)-3-methylimidazolium dicyanamide + 2,2,4-trimethylpentane; phases: Liquid
Fixed: Mole fraction of 2,2,4-trimethylpentane = 0
Fixed: Pressure, kPa = 101.325
Property: Activity coefficient of 2,2,4-trimethylpentane (Liquid); method: Chromatography
Temperature, K	Activity coefficient of 2,2,4-trimethylpentane	uncertainty
298.15	767	53
308.15	662	46
318.15	579	40
328.15	509	35

System: 1-(3-hydroxypropyl)-3-methylimidazolium dicyanamide + nonane; phases: Liquid
Fixed: Mole fraction of nonane = 0
Fixed: Pressure, kPa = 101.325
Property: Activity coefficient of nonane (Liquid); method: Chromatography
Temperature, K	Activity coefficient of nonane	uncertainty
298.15	1356	94
308.15	1199	83
318.15	1068	74
328.15	955	66
338.15	863	59
348.15	780	54
358.15	722	50

System: 1-(3-hydroxypropyl)-3-methylimidazolium dicyanamide + decane; phases: Liquid
Fixed: Mole fraction of decane = 0
Fixed: Pressure, kPa = 101.325
Property: Activity coefficient of decane (Liquid); method: Chromatography
Temperature, K	Activity coefficient of decane	uncertainty
298.15	1874	129
308.15	1679	116
318.15	1531	106
328.15	1381	95
338.15	1273	88
348.15	1170	81
358.15	1071	74

System: 1-(3-hydroxypropyl)-3-methylimidazolium dicyanamide + cyclopentane; phases: Liquid
Fixed: Mole fraction of cyclopentane = 0
Fixed: Pressure, kPa = 101.325
Property: Activity coefficient of cyclopentane (Liquid); method: Chromatography
Temperature, K	Activity coefficient of cyclopentane	uncertainty
298.15	69.3	4.7
308.15	63.7	4.4
318.15	58.7	4
328.15	54.5	3.7

System: 1-(3-hydroxypropyl)-3-methylimidazolium dicyanamide + cyclohexane; phases: Liquid
Fixed: Mole fraction of cyclohexane = 0
Fixed: Pressure, kPa = 101.325
Property: Activity coefficient of cyclohexane (Liquid); method: Chromatography
Temperature, K	Activity coefficient of cyclohexane	uncertainty
298.15	115	8
308.15	105	7
318.15	97.9	6.7
328.15	91.1	6.2
338.15	85.5	5.9
348.15	80.4	5.5
358.15	76.6	5.2

System: 1-(3-hydroxypropyl)-3-methylimidazolium dicyanamide + methylcyclohexane; phases: Liquid
Fixed: Mole fraction of methylcyclohexane = 0
Fixed: Pressure, kPa = 101.325
Property: Activity coefficient of methylcyclohexane (Liquid); method: Chromatography
Temperature, K	Activity coefficient of methylcyclohexane	uncertainty
298.15	207	14
308.15	187	13
318.15	169	12
328.15	154	11
338.15	141	10
348.15	131	9
358.15	121	8

System: 1-(3-hydroxypropyl)-3-methylimidazolium dicyanamide + cycloheptane; phases: Liquid
Fixed: Mole fraction of cycloheptane = 0
Fixed: Pressure, kPa = 101.325
Property: Activity coefficient of cycloheptane (Liquid); method: Chromatography
Temperature, K	Activity coefficient of cycloheptane	uncertainty
298.15	152	10
308.15	139	10
318.15	128	9
328.15	119	8
338.15	111	8
348.15	104	7
358.15	97.8	6.7

System: 1-(3-hydroxypropyl)-3-methylimidazolium dicyanamide + cyclooctane; phases: Liquid
Fixed: Mole fraction of cyclooctane = 0
Fixed: Pressure, kPa = 101.325
Property: Activity coefficient of cyclooctane (Liquid); method: Chromatography
Temperature, K	Activity coefficient of cyclooctane	uncertainty
298.15	216	15
308.15	198	14
318.15	181	12
328.15	165	11
338.15	153	11
348.15	143	10
358.15	137	9

System: 1-(3-hydroxypropyl)-3-methylimidazolium dicyanamide + 1-pentene; phases: Liquid
Fixed: Mole fraction of 1-pentene = 0
Fixed: Pressure, kPa = 101.325
Property: Activity coefficient of 1-pentene (Liquid); method: Chromatography
Temperature, K	Activity coefficient of 1-pentene	uncertainty
298.15	74	5.1
308.15	68.1	4.7
318.15	63.5	4.3
328.15	59.3	4.1

System: 1-(3-hydroxypropyl)-3-methylimidazolium dicyanamide + hex-1-ene; phases: Liquid
Fixed: Mole fraction of hex-1-ene = 0
Fixed: Pressure, kPa = 101.325
Property: Activity coefficient of hex-1-ene (Liquid); method: Chromatography
Temperature, K	Activity coefficient of hex-1-ene	uncertainty
298.15	123	8
308.15	116	8
318.15	109	7
328.15	102	7
338.15	97.5	6.7
348.15	92.5	6.3
358.15	89	6.1

System: 1-(3-hydroxypropyl)-3-methylimidazolium dicyanamide + cyclohexene; phases: Liquid
Fixed: Mole fraction of cyclohexene = 0
Fixed: Pressure, kPa = 101.325
Property: Activity coefficient of cyclohexene (Liquid); method: Chromatography
Temperature, K	Activity coefficient of cyclohexene	uncertainty
298.15	40.7	2.8
308.15	38.2	2.6
318.15	36.1	2.5
328.15	34.5	2.4
338.15	32.7	2.2
348.15	31.4	2.1
358.15	30	2.1

System: 1-(3-hydroxypropyl)-3-methylimidazolium dicyanamide + 1-heptene; phases: Liquid
Fixed: Mole fraction of 1-heptene = 0
Fixed: Pressure, kPa = 101.325
Property: Activity coefficient of 1-heptene (Liquid); method: Chromatography
Temperature, K	Activity coefficient of 1-heptene	uncertainty
298.15	208	14
308.15	194	13
318.15	176	12
328.15	166	11
338.15	156	11
348.15	146	10
358.15	139	10

System: 1-(3-hydroxypropyl)-3-methylimidazolium dicyanamide + oct-1-ene; phases: Liquid
Fixed: Mole fraction of oct-1-ene = 0
Fixed: Pressure, kPa = 101.325
Property: Activity coefficient of oct-1-ene (Liquid); method: Chromatography
Temperature, K	Activity coefficient of oct-1-ene	uncertainty
298.15	358	25
308.15	331	23
318.15	305	21
328.15	282	19
338.15	263	18
348.15	245	17
358.15	234	16

System: 1-(3-hydroxypropyl)-3-methylimidazolium dicyanamide + 1-decene; phases: Liquid
Fixed: Mole fraction of 1-decene = 0
Fixed: Pressure, kPa = 101.325
Property: Activity coefficient of 1-decene (Liquid); method: Chromatography
Temperature, K	Activity coefficient of 1-decene	uncertainty
298.15	879	61
308.15	819	56
318.15	764	53
328.15	710	49
338.15	662	46
348.15	627	43
358.15	590	41

System: 1-(3-hydroxypropyl)-3-methylimidazolium dicyanamide + 1-pentyne; phases: Liquid
Fixed: Mole fraction of 1-pentyne = 0
Fixed: Pressure, kPa = 101.325
Property: Activity coefficient of 1-pentyne (Liquid); method: Chromatography
Temperature, K	Activity coefficient of 1-pentyne	uncertainty
298.15	11.3	0.8
308.15	11.5	0.8
318.15	11.7	0.8
328.15	11.8	0.8
338.15	12	0.8
348.15	12.1	0.8
358.15	12.3	0.8

System: 1-(3-hydroxypropyl)-3-methylimidazolium dicyanamide + 1-hexyne; phases: Liquid
Fixed: Mole fraction of 1-hexyne = 0
Fixed: Pressure, kPa = 101.325
Property: Activity coefficient of 1-hexyne (Liquid); method: Chromatography
Temperature, K	Activity coefficient of 1-hexyne	uncertainty
298.15	18.8	1.3
308.15	19.3	1.3
318.15	19.6	1.3
328.15	20	1.4
338.15	20.3	1.4
348.15	20.6	1.4
358.15	21.4	1.5

System: 1-(3-hydroxypropyl)-3-methylimidazolium dicyanamide + 1-heptyne; phases: Liquid
Fixed: Mole fraction of 1-heptyne = 0
Fixed: Pressure, kPa = 101.325
Property: Activity coefficient of 1-heptyne (Liquid); method: Chromatography
Temperature, K	Activity coefficient of 1-heptyne	uncertainty
298.15	34	2.3
308.15	34.3	2.3
318.15	34.6	2.4
328.15	34.6	2.4
338.15	35.1	2.4
348.15	35.3	2.4
358.15	35.3	2.4

System: 1-(3-hydroxypropyl)-3-methylimidazolium dicyanamide + 1-octyne; phases: Liquid
Fixed: Mole fraction of 1-octyne = 0
Fixed: Pressure, kPa = 101.325
Property: Activity coefficient of 1-octyne (Liquid); method: Chromatography
Temperature, K	Activity coefficient of 1-octyne	uncertainty
298.15	60.1	4.1
308.15	60.2	4.1
318.15	59.8	4.1
328.15	59.6	4.1
338.15	59.6	4.1
348.15	59.4	4.1
358.15	59.6	4.1

System: 1-(3-hydroxypropyl)-3-methylimidazolium dicyanamide + benzene; phases: Liquid
Fixed: Mole fraction of benzene = 0
Fixed: Pressure, kPa = 101.325
Property: Activity coefficient of benzene (Liquid); method: Chromatography
Temperature, K	Activity coefficient of benzene	uncertainty
318.15	4.41	0.3
328.15	4.56	0.31
338.15	4.74	0.32
348.15	4.92	0.34
358.15	5.08	0.35
368.15	5.22	0.36

System: 1-(3-hydroxypropyl)-3-methylimidazolium dicyanamide + toluene; phases: Liquid
Fixed: Mole fraction of toluene = 0
Fixed: Pressure, kPa = 101.325
Property: Activity coefficient of toluene (Liquid); method: Chromatography
Temperature, K	Activity coefficient of toluene	uncertainty
318.15	7.75	0.53
328.15	8	0.55
338.15	8.27	0.56
348.15	8.51	0.58
358.15	8.84	0.6
368.15	9.09	0.62

System: 1-(3-hydroxypropyl)-3-methylimidazolium dicyanamide + ethylbenzene; phases: Liquid
Fixed: Mole fraction of ethylbenzene = 0
Fixed: Pressure, kPa = 101.325
Property: Activity coefficient of ethylbenzene (Liquid); method: Chromatography
Temperature, K	Activity coefficient of ethylbenzene	uncertainty
318.15	14.6	1
328.15	14.9	1
338.15	15.3	1
348.15	15.5	1.1
358.15	15.9	1.1
368.15	16.1	1.1

System: 1-(3-hydroxypropyl)-3-methylimidazolium dicyanamide + 1,2-dimethylbenzene; phases: Liquid
Fixed: Mole fraction of 1,2-dimethylbenzene = 0
Fixed: Pressure, kPa = 101.325
Property: Activity coefficient of 1,2-dimethylbenzene (Liquid); method: Chromatography
Temperature, K	Activity coefficient of 1,2-dimethylbenzene	uncertainty
318.15	10.9	0.7
328.15	11.3	0.8
338.15	11.7	0.8
348.15	12	0.8
358.15	12.5	0.9
368.15	12.8	0.9

System: 1-(3-hydroxypropyl)-3-methylimidazolium dicyanamide + 1,3-dimethylbenzene; phases: Liquid
Fixed: Mole fraction of 1,3-dimethylbenzene = 0
Fixed: Pressure, kPa = 101.325
Property: Activity coefficient of 1,3-dimethylbenzene (Liquid); method: Chromatography
Temperature, K	Activity coefficient of 1,3-dimethylbenzene	uncertainty
318.15	14.1	1
328.15	14.5	1
338.15	14.9	1
348.15	15.2	1
358.15	15.6	1.1
368.15	16	1.1

System: 1-(3-hydroxypropyl)-3-methylimidazolium dicyanamide + 1,4-dimethylbenzene; phases: Liquid
Fixed: Mole fraction of 1,4-dimethylbenzene = 0
Fixed: Pressure, kPa = 101.325
Property: Activity coefficient of 1,4-dimethylbenzene (Liquid); method: Chromatography
Temperature, K	Activity coefficient of 1,4-dimethylbenzene	uncertainty
318.15	13.5	0.9
328.15	13.9	1
338.15	14.3	1
348.15	14.7	1
358.15	15.1	1
368.15	15.5	1.1

System: 1-(3-hydroxypropyl)-3-methylimidazolium dicyanamide + propylbenzene; phases: Liquid
Fixed: Mole fraction of propylbenzene = 0
Fixed: Pressure, kPa = 101.325
Property: Activity coefficient of propylbenzene (Liquid); method: Chromatography
Temperature, K	Activity coefficient of propylbenzene	uncertainty
318.15	26.8	1.8
328.15	27.3	1.9
338.15	27.6	1.9
348.15	27.9	1.9
358.15	28.2	1.9
368.15	28.4	1.9

System: 1-(3-hydroxypropyl)-3-methylimidazolium dicyanamide + isopropylbenzene; phases: Liquid
Fixed: Mole fraction of isopropylbenzene = 0
Fixed: Pressure, kPa = 101.325
Property: Activity coefficient of isopropylbenzene (Liquid); method: Chromatography
Temperature, K	Activity coefficient of isopropylbenzene	uncertainty
318.15	25.8	1.8
328.15	26.2	1.8
338.15	26.6	1.8
348.15	26.8	1.8
358.15	27.1	1.9
368.15	27.4	1.9

System: 1-(3-hydroxypropyl)-3-methylimidazolium dicyanamide + styrene; phases: Liquid
Fixed: Mole fraction of styrene = 0
Fixed: Pressure, kPa = 101.325
Property: Activity coefficient of styrene (Liquid); method: Chromatography
Temperature, K	Activity coefficient of styrene	uncertainty
318.15	5.97	0.41
328.15	6.25	0.43
338.15	6.57	0.45
348.15	6.82	0.46
358.15	7.14	0.49
368.15	7.39	0.5

System: 1-(3-hydroxypropyl)-3-methylimidazolium dicyanamide + (1-methylethenyl)benzene; phases: Liquid
Fixed: Mole fraction of (1-methylethenyl)benzene = 0
Fixed: Pressure, kPa = 101.325
Property: Activity coefficient of (1-methylethenyl)benzene (Liquid); method: Chromatography
Temperature, K	Activity coefficient of (1-methylethenyl)benzene	uncertainty
318.15	10.2	0.7
328.15	10.9	0.7
338.15	11.5	0.8
348.15	12.1	0.8
358.15	12.7	0.9
368.15	13.3	0.9

System: 1-(3-hydroxypropyl)-3-methylimidazolium dicyanamide + thiophene; phases: Liquid
Fixed: Mole fraction of thiophene = 0
Fixed: Pressure, kPa = 101.325
Property: Activity coefficient of thiophene (Liquid); method: Chromatography
Temperature, K	Activity coefficient of thiophene	uncertainty
318.15	2.44	0.17
328.15	2.57	0.17
338.15	2.69	0.18
348.15	2.82	0.19
358.15	2.95	0.2
368.15	3.07	0.21

System: 1-(3-hydroxypropyl)-3-methylimidazolium dicyanamide + pyridine; phases: Liquid
Fixed: Mole fraction of pyridine = 0
Fixed: Pressure, kPa = 101.325
Property: Activity coefficient of pyridine (Liquid); method: Chromatography
Temperature, K	Activity coefficient of pyridine	uncertainty
318.15	1.33	0.09
328.15	1.41	0.09
338.15	1.5	0.1
348.15	1.58	0.1
358.15	1.67	0.11
368.15	1.75	0.12

System: 1-(3-hydroxypropyl)-3-methylimidazolium dicyanamide + methanol; phases: Liquid
Fixed: Mole fraction of methanol = 0
Fixed: Pressure, kPa = 101.325
Property: Activity coefficient of methanol (Liquid); method: Chromatography
Temperature, K	Activity coefficient of methanol	uncertainty
318.15	0.63	0.04
328.15	0.64	0.04
338.15	0.654	0.045
348.15	0.66	0.05
358.15	0.679	0.046
368.15	0.69	0.05

System: 1-(3-hydroxypropyl)-3-methylimidazolium dicyanamide + ethanol; phases: Liquid
Fixed: Mole fraction of ethanol = 0
Fixed: Pressure, kPa = 101.325
Property: Activity coefficient of ethanol (Liquid); method: Chromatography
Temperature, K	Activity coefficient of ethanol	uncertainty
318.15	1.17	0.07
328.15	1.17	0.07
338.15	1.18	0.08
348.15	1.19	0.08
358.15	1.2	0.08
368.15	1.2	0.08

System: 1-(3-hydroxypropyl)-3-methylimidazolium dicyanamide + propan-1-ol; phases: Liquid
Fixed: Mole fraction of propan-1-ol = 0
Fixed: Pressure, kPa = 101.325
Property: Activity coefficient of propan-1-ol (Liquid); method: Chromatography
Temperature, K	Activity coefficient of propan-1-ol	uncertainty
318.15	1.77	0.12
328.15	1.76	0.12
338.15	1.76	0.12
348.15	1.76	0.12
358.15	1.77	0.12
368.15	1.78	0.12

System: 1-(3-hydroxypropyl)-3-methylimidazolium dicyanamide + propan-2-ol; phases: Liquid
Fixed: Mole fraction of propan-2-ol = 0
Fixed: Pressure, kPa = 101.325
Property: Activity coefficient of propan-2-ol (Liquid); method: Chromatography
Temperature, K	Activity coefficient of propan-2-ol	uncertainty
318.15	1.92	0.13
328.15	1.92	0.13
338.15	1.92	0.13
348.15	1.91	0.13
358.15	1.91	0.13
368.15	1.92	0.13

System: 1-(3-hydroxypropyl)-3-methylimidazolium dicyanamide + butan-1-ol; phases: Liquid
Fixed: Mole fraction of butan-1-ol = 0
Fixed: Pressure, kPa = 101.325
Property: Activity coefficient of butan-1-ol (Liquid); method: Chromatography
Temperature, K	Activity coefficient of butan-1-ol	uncertainty
318.15	2.8	0.19
328.15	2.75	0.19
338.15	2.73	0.19
348.15	2.7	0.18
358.15	2.69	0.18
368.15	2.68	0.18

System: 1-(3-hydroxypropyl)-3-methylimidazolium dicyanamide + butan-2-ol; phases: Liquid
Fixed: Mole fraction of butan-2-ol = 0
Fixed: Pressure, kPa = 101.325
Property: Activity coefficient of butan-2-ol (Liquid); method: Chromatography
Temperature, K	Activity coefficient of butan-2-ol	uncertainty
318.15	2.74	0.19
328.15	2.72	0.19
338.15	2.72	0.19
348.15	2.72	0.19
358.15	2.7	0.18
368.15	2.71	0.18

System: 1-(3-hydroxypropyl)-3-methylimidazolium dicyanamide + 2-methyl-1-propanol; phases: Liquid
Fixed: Mole fraction of 2-methyl-1-propanol = 0
Fixed: Pressure, kPa = 101.325
Property: Activity coefficient of 2-methyl-1-propanol (Liquid); method: Chromatography
Temperature, K	Activity coefficient of 2-methyl-1-propanol	uncertainty
318.15	2.79	0.19
328.15	2.72	0.19
338.15	2.68	0.18
348.15	2.64	0.18
358.15	2.6	0.18
368.15	2.58	0.18

System: 1-(3-hydroxypropyl)-3-methylimidazolium dicyanamide + 2-methylpropan-2-ol; phases: Liquid
Fixed: Mole fraction of 2-methylpropan-2-ol = 0
Fixed: Pressure, kPa = 101.325
Property: Activity coefficient of 2-methylpropan-2-ol (Liquid); method: Chromatography
Temperature, K	Activity coefficient of 2-methylpropan-2-ol	uncertainty
318.15	2.58	0.18
328.15	2.63	0.18
338.15	2.68	0.18
348.15	2.71	0.18
358.15	2.74	0.19
368.15	2.79	0.19

System: 1-(3-hydroxypropyl)-3-methylimidazolium dicyanamide + pentan-1-ol; phases: Liquid
Fixed: Mole fraction of pentan-1-ol = 0
Fixed: Pressure, kPa = 101.325
Property: Activity coefficient of pentan-1-ol (Liquid); method: Chromatography
Temperature, K	Activity coefficient of pentan-1-ol	uncertainty
318.15	4.16	0.28
328.15	4.14	0.28
338.15	4.1	0.28
348.15	4.06	0.28
358.15	4.08	0.28
368.15	4.05	0.28

System: 1-(3-hydroxypropyl)-3-methylimidazolium dicyanamide + water; phases: Liquid
Fixed: Mole fraction of water = 0
Fixed: Pressure, kPa = 101.325
Property: Activity coefficient of water (Liquid); method: Chromatography
Temperature, K	Activity coefficient of water	uncertainty
318.15	0.35	0.03
328.15	0.36	0.03
338.15	0.37	0.03
348.15	0.38	0.03
358.15	0.4	0.03
368.15	0.41	0.03

System: 1-(3-hydroxypropyl)-3-methylimidazolium dicyanamide + methyl ethanoate; phases: Liquid
Fixed: Mole fraction of methyl ethanoate = 0
Fixed: Pressure, kPa = 101.325
Property: Activity coefficient of methyl ethanoate (Liquid); method: Chromatography
Temperature, K	Activity coefficient of methyl ethanoate	uncertainty
318.15	3.07	0.21
328.15	3.21	0.22
338.15	3.35	0.23
348.15	3.5	0.24
358.15	3.64	0.25
368.15	3.8	0.26

System: 1-(3-hydroxypropyl)-3-methylimidazolium dicyanamide + methyl propanoate; phases: Liquid
Fixed: Mole fraction of methyl propanoate = 0
Fixed: Pressure, kPa = 101.325
Property: Activity coefficient of methyl propanoate (Liquid); method: Chromatography
Temperature, K	Activity coefficient of methyl propanoate	uncertainty
318.15	5.29	0.36
328.15	5.48	0.37
338.15	5.73	0.39
348.15	5.92	0.4
358.15	6.14	0.42
368.15	6.34	0.43

System: 1-(3-hydroxypropyl)-3-methylimidazolium dicyanamide + methyl butanoate; phases: Liquid
Fixed: Mole fraction of methyl butanoate = 0
Fixed: Pressure, kPa = 101.325
Property: Activity coefficient of methyl butanoate (Liquid); method: Chromatography
Temperature, K	Activity coefficient of methyl butanoate	uncertainty
318.15	9.03	0.62
328.15	9.36	0.64
338.15	9.67	0.66
348.15	9.96	0.68
358.15	10.3	0.7
368.15	10.6	0.7

System: 1-(3-hydroxypropyl)-3-methylimidazolium dicyanamide + ethyl acetate; phases: Liquid
Fixed: Mole fraction of ethyl acetate = 0
Fixed: Pressure, kPa = 101.325
Property: Activity coefficient of ethyl acetate (Liquid); method: Chromatography
Temperature, K	Activity coefficient of ethyl acetate	uncertainty
318.15	5.72	0.39
328.15	5.95	0.41
338.15	6.18	0.42
348.15	6.36	0.43
358.15	6.61	0.45
368.15	6.86	0.47

System: 1-(3-hydroxypropyl)-3-methylimidazolium dicyanamide + vinyl acetate; phases: Liquid
Fixed: Mole fraction of vinyl acetate = 0
Fixed: Pressure, kPa = 101.325
Property: Activity coefficient of vinyl acetate (Liquid); method: Chromatography
Temperature, K	Activity coefficient of vinyl acetate	uncertainty
318.15	4.73	0.32
328.15	4.92	0.34
338.15	5.12	0.35
348.15	5.3	0.36
358.15	5.49	0.37
368.15	5.68	0.39

System: 1-(3-hydroxypropyl)-3-methylimidazolium dicyanamide + tetrahydrofuran; phases: Liquid
Fixed: Mole fraction of tetrahydrofuran = 0
Fixed: Pressure, kPa = 101.325
Property: Activity coefficient of tetrahydrofuran (Liquid); method: Chromatography
Temperature, K	Activity coefficient of tetrahydrofuran	uncertainty
318.15	3.07	0.21
328.15	3.19	0.22
338.15	3.33	0.23
348.15	3.44	0.23
358.15	3.57	0.24
368.15	3.67	0.25

System: 1-(3-hydroxypropyl)-3-methylimidazolium dicyanamide + 1,4-dioxane; phases: Liquid
Fixed: Mole fraction of 1,4-dioxane = 0
Fixed: Pressure, kPa = 101.325
Property: Activity coefficient of 1,4-dioxane (Liquid); method: Chromatography
Temperature, K	Activity coefficient of 1,4-dioxane	uncertainty
318.15	1.73	0.12
328.15	1.85	0.12
338.15	1.98	0.13
348.15	2.09	0.14
358.15	2.23	0.15
368.15	2.34	0.16

System: 1-(3-hydroxypropyl)-3-methylimidazolium dicyanamide + 2-methoxy-2-methylpropane; phases: Liquid
Fixed: Mole fraction of 2-methoxy-2-methylpropane = 0
Fixed: Pressure, kPa = 101.325
Property: Activity coefficient of 2-methoxy-2-methylpropane (Liquid); method: Chromatography
Temperature, K	Activity coefficient of 2-methoxy-2-methylpropane	uncertainty
318.15	22.8	1.6
328.15	23.2	1.6
338.15	23.5	1.6
348.15	24	1.6
358.15	24.3	1.7
368.15	24.7	1.7

System: 1-(3-hydroxypropyl)-3-methylimidazolium dicyanamide + 2-ethoxy-2-methylpropane; phases: Liquid
Fixed: Mole fraction of 2-ethoxy-2-methylpropane = 0
Fixed: Pressure, kPa = 101.325
Property: Activity coefficient of 2-ethoxy-2-methylpropane (Liquid); method: Chromatography
Temperature, K	Activity coefficient of 2-ethoxy-2-methylpropane	uncertainty
318.15	78.5	5.4
328.15	76.2	5.2
338.15	74.5	5.1
348.15	73.1	5
358.15	72.1	4.9
368.15	70.5	4.8

System: 1-(3-hydroxypropyl)-3-methylimidazolium dicyanamide + 2-methoxy-2-methylbutane; phases: Liquid
Fixed: Mole fraction of 2-methoxy-2-methylbutane = 0
Fixed: Pressure, kPa = 101.325
Property: Activity coefficient of 2-methoxy-2-methylbutane (Liquid); method: Chromatography
Temperature, K	Activity coefficient of 2-methoxy-2-methylbutane	uncertainty
318.15	36.8	2.5
328.15	37	2.5
338.15	37.2	2.5
348.15	37.5	2.6
358.15	37.7	2.6
368.15	38.1	2.6

System: 1-(3-hydroxypropyl)-3-methylimidazolium dicyanamide + diethyl ether; phases: Liquid
Fixed: Mole fraction of diethyl ether = 0
Fixed: Pressure, kPa = 101.325
Property: Activity coefficient of diethyl ether (Liquid); method: Chromatography
Temperature, K	Activity coefficient of diethyl ether	uncertainty
318.15	20.3	1.4
328.15	20.3	1.4
338.15	20.5	1.4
348.15	20.6	1.4
358.15	20.7	1.4
368.15	20.8	1.4

System: 1-(3-hydroxypropyl)-3-methylimidazolium dicyanamide + dipropyl ether; phases: Liquid
Fixed: Mole fraction of dipropyl ether = 0
Fixed: Pressure, kPa = 101.325
Property: Activity coefficient of dipropyl ether (Liquid); method: Chromatography
Temperature, K	Activity coefficient of dipropyl ether	uncertainty
318.15	82.3	5.6
328.15	79.9	5.5
338.15	77.7	5.3
348.15	75.8	5.2
358.15	74.4	5.1
368.15	72.5	5

System: 1-(3-hydroxypropyl)-3-methylimidazolium dicyanamide + diisopropyl ether; phases: Liquid
Fixed: Mole fraction of diisopropyl ether = 0
Fixed: Pressure, kPa = 101.325
Property: Activity coefficient of diisopropyl ether (Liquid); method: Chromatography
Temperature, K	Activity coefficient of diisopropyl ether	uncertainty
318.15	96	6.6
328.15	92.7	6.4
338.15	90.6	6.2
348.15	88	6
358.15	86.5	5.9
368.15	84.3	5.8

System: 1-(3-hydroxypropyl)-3-methylimidazolium dicyanamide + dibutyl ether; phases: Liquid
Fixed: Mole fraction of dibutyl ether = 0
Fixed: Pressure, kPa = 101.325
Property: Activity coefficient of dibutyl ether (Liquid); method: Chromatography
Temperature, K	Activity coefficient of dibutyl ether	uncertainty
318.15	228	16
328.15	218	15
338.15	208	14
348.15	200	14
358.15	193	13
368.15	185	13

System: 1-(3-hydroxypropyl)-3-methylimidazolium dicyanamide + acetone; phases: Liquid
Fixed: Mole fraction of acetone = 0
Fixed: Pressure, kPa = 101.325
Property: Activity coefficient of acetone (Liquid); method: Chromatography
Temperature, K	Activity coefficient of acetone	uncertainty
318.15	1.76	0.12
328.15	1.83	0.12
338.15	1.92	0.13
348.15	2	0.14
358.15	2.09	0.14
368.15	2.19	0.15

System: 1-(3-hydroxypropyl)-3-methylimidazolium dicyanamide + pentan-2-one; phases: Liquid
Fixed: Mole fraction of pentan-2-one = 0
Fixed: Pressure, kPa = 101.325
Property: Activity coefficient of pentan-2-one (Liquid); method: Chromatography
Temperature, K	Activity coefficient of pentan-2-one	uncertainty
318.15	4.94	0.34
328.15	5.14	0.35
338.15	5.32	0.36
348.15	5.46	0.37
358.15	5.67	0.39
368.15	5.81	0.4

System: 1-(3-hydroxypropyl)-3-methylimidazolium dicyanamide + pentan-3-one; phases: Liquid
Fixed: Mole fraction of pentan-3-one = 0
Fixed: Pressure, kPa = 101.325
Property: Activity coefficient of pentan-3-one (Liquid); method: Chromatography
Temperature, K	Activity coefficient of pentan-3-one	uncertainty
318.15	5.1	0.35
328.15	5.29	0.36
338.15	5.54	0.38
348.15	5.71	0.39
358.15	5.95	0.41
368.15	6.11	0.42

System: 1-(3-hydroxypropyl)-3-methylimidazolium dicyanamide + butanal; phases: Liquid
Fixed: Mole fraction of butanal = 0
Fixed: Pressure, kPa = 101.325
Property: Activity coefficient of butanal (Liquid); method: Chromatography
Temperature, K	Activity coefficient of butanal	uncertainty
318.15	2.68	0.18
328.15	2.92	0.2
338.15	3.19	0.22
348.15	3.43	0.23
358.15	3.72	0.25
368.15	3.95	0.27

System: 1-(3-hydroxypropyl)-3-methylimidazolium dicyanamide + acetonitrile; phases: Liquid
Fixed: Mole fraction of acetonitrile = 0
Fixed: Pressure, kPa = 101.325
Property: Activity coefficient of acetonitrile (Liquid); method: Chromatography
Temperature, K	Activity coefficient of acetonitrile	uncertainty
318.15	1.19	0.08
328.15	1.23	0.08
338.15	1.29	0.08
348.15	1.33	0.09
358.15	1.37	0.09
368.15	1.41	0.09

System: 1-(3-hydroxypropyl)-3-methylimidazolium dicyanamide + 1-nitropropane; phases: Liquid
Fixed: Mole fraction of 1-nitropropane = 0
Fixed: Pressure, kPa = 101.325
Property: Activity coefficient of 1-nitropropane (Liquid); method: Chromatography
Temperature, K	Activity coefficient of 1-nitropropane	uncertainty
318.15	2.69	0.18
328.15	2.79	0.19
338.15	2.89	0.2
348.15	2.97	0.2
358.15	3.08	0.21
368.15	3.17	0.22

System: 4-(3-hydroxypropyl)-4-methylmorpholinium dicyanamide + heptane; phases: Liquid
Fixed: Mole fraction of heptane = 0
Fixed: Pressure, kPa = 101.325
Property: Activity coefficient of heptane (Liquid); method: Chromatography
Temperature, K	Activity coefficient of heptane	uncertainty
298.15	1544	107
308.15	1287	89

System: 4-(3-hydroxypropyl)-4-methylmorpholinium dicyanamide + octane; phases: Liquid
Fixed: Mole fraction of octane = 0
Fixed: Pressure, kPa = 101.325
Property: Activity coefficient of octane (Liquid); method: Chromatography
Temperature, K	Activity coefficient of octane	uncertainty
298.15	2069	143
308.15	1727	119
318.15	1464	101
328.15	1259	87
338.15	1087	75

System: 4-(3-hydroxypropyl)-4-methylmorpholinium dicyanamide + nonane; phases: Liquid
Fixed: Mole fraction of nonane = 0
Fixed: Pressure, kPa = 101.325
Property: Activity coefficient of nonane (Liquid); method: Chromatography
Temperature, K	Activity coefficient of nonane	uncertainty
308.15	2265	156
318.15	1874	129
328.15	1568	108
338.15	1336	92
348.15	1155	80
358.15	994	69
368.15	867	60

System: 4-(3-hydroxypropyl)-4-methylmorpholinium dicyanamide + decane; phases: Liquid
Fixed: Mole fraction of decane = 0
Fixed: Pressure, kPa = 101.325
Property: Activity coefficient of decane (Liquid); method: Chromatography
Temperature, K	Activity coefficient of decane	uncertainty
308.15	2532	175
318.15	2218	153
328.15	1981	137
338.15	1771	122
348.15	1594	110
358.15	1428	99
368.15	1309	90

System: 4-(3-hydroxypropyl)-4-methylmorpholinium dicyanamide + cyclohexane; phases: Liquid
Fixed: Mole fraction of cyclohexane = 0
Fixed: Pressure, kPa = 101.325
Property: Activity coefficient of cyclohexane (Liquid); method: Chromatography
Temperature, K	Activity coefficient of cyclohexane	uncertainty
308.15	381	26
318.15	319	22
328.15	260	18
338.15	219	15
348.15	184	13
358.15	159	11
368.15	138	9

System: 4-(3-hydroxypropyl)-4-methylmorpholinium dicyanamide + methylcyclohexane; phases: Liquid
Fixed: Mole fraction of methylcyclohexane = 0
Fixed: Pressure, kPa = 101.325
Property: Activity coefficient of methylcyclohexane (Liquid); method: Chromatography
Temperature, K	Activity coefficient of methylcyclohexane	uncertainty
298.15	865	60
308.15	654	45
318.15	508	35
328.15	404	28
338.15	321	22

System: 4-(3-hydroxypropyl)-4-methylmorpholinium dicyanamide + cycloheptane; phases: Liquid
Fixed: Mole fraction of cycloheptane = 0
Fixed: Pressure, kPa = 101.325
Property: Activity coefficient of cycloheptane (Liquid); method: Chromatography
Temperature, K	Activity coefficient of cycloheptane	uncertainty
308.15	391	27
318.15	341	23
328.15	297	20
338.15	260	18
348.15	230	16
358.15	206	14
368.15	185	13

System: 4-(3-hydroxypropyl)-4-methylmorpholinium dicyanamide + cyclooctane; phases: Liquid
Fixed: Mole fraction of cyclooctane = 0
Fixed: Pressure, kPa = 101.325
Property: Activity coefficient of cyclooctane (Liquid); method: Chromatography
Temperature, K	Activity coefficient of cyclooctane	uncertainty
308.15	571	39
318.15	478	33
328.15	408	28
338.15	345	24
348.15	298	20
358.15	260	18
368.15	229	16

System: 4-(3-hydroxypropyl)-4-methylmorpholinium dicyanamide + cyclohexene; phases: Liquid
Fixed: Mole fraction of cyclohexene = 0
Fixed: Pressure, kPa = 101.325
Property: Activity coefficient of cyclohexene (Liquid); method: Chromatography
Temperature, K	Activity coefficient of cyclohexene	uncertainty
298.15	121	8
308.15	97	6.7
318.15	79.1	5.4
328.15	65.3	4.5

System: 4-(3-hydroxypropyl)-4-methylmorpholinium dicyanamide + 1-heptene; phases: Liquid
Fixed: Mole fraction of 1-heptene = 0
Fixed: Pressure, kPa = 101.325
Property: Activity coefficient of 1-heptene (Liquid); method: Chromatography
Temperature, K	Activity coefficient of 1-heptene	uncertainty
298.15	793	55
308.15	634	44
318.15	519	36
328.15	425	29
338.15	359	25

System: 4-(3-hydroxypropyl)-4-methylmorpholinium dicyanamide + oct-1-ene; phases: Liquid
Fixed: Mole fraction of oct-1-ene = 0
Fixed: Pressure, kPa = 101.325
Property: Activity coefficient of oct-1-ene (Liquid); method: Chromatography
Temperature, K	Activity coefficient of oct-1-ene	uncertainty
298.15	1169	81
308.15	937	65
318.15	764	53
328.15	635	44
338.15	534	37
348.15	453	31

System: 4-(3-hydroxypropyl)-4-methylmorpholinium dicyanamide + 1-decene; phases: Liquid
Fixed: Mole fraction of 1-decene = 0
Fixed: Pressure, kPa = 101.325
Property: Activity coefficient of 1-decene (Liquid); method: Chromatography
Temperature, K	Activity coefficient of 1-decene	uncertainty
308.15	1636	113
318.15	1455	100
328.15	1295	89
338.15	1162	80
348.15	1048	72
358.15	952	66
368.15	875	60

System: 4-(3-hydroxypropyl)-4-methylmorpholinium dicyanamide + 1-pentyne; phases: Liquid
Fixed: Mole fraction of 1-pentyne = 0
Fixed: Pressure, kPa = 101.325
Property: Activity coefficient of 1-pentyne (Liquid); method: Chromatography
Temperature, K	Activity coefficient of 1-pentyne	uncertainty
308.15	24.2	1.7
318.15	23.6	1.6
328.15	23.1	1.6
338.15	22.7	1.6
348.15	22.4	1.5
358.15	22	1.5
368.15	21.7	1.5

System: 4-(3-hydroxypropyl)-4-methylmorpholinium dicyanamide + 1-hexyne; phases: Liquid
Fixed: Mole fraction of 1-hexyne = 0
Fixed: Pressure, kPa = 101.325
Property: Activity coefficient of 1-hexyne (Liquid); method: Chromatography
Temperature, K	Activity coefficient of 1-hexyne	uncertainty
308.15	44.5	3
318.15	42.9	2.9
328.15	41.6	2.8
338.15	40.2	2.8
348.15	39.1	2.7
358.15	38	2.6
368.15	37	2.5

System: 4-(3-hydroxypropyl)-4-methylmorpholinium dicyanamide + 1-heptyne; phases: Liquid
Fixed: Mole fraction of 1-heptyne = 0
Fixed: Pressure, kPa = 101.325
Property: Activity coefficient of 1-heptyne (Liquid); method: Chromatography
Temperature, K	Activity coefficient of 1-heptyne	uncertainty
308.15	82.9	5.7
318.15	79.8	5.5
328.15	76.7	5.3
338.15	74	5.1
348.15	72	4.9
358.15	69.8	4.8
368.15	68.1	4.7

System: 4-(3-hydroxypropyl)-4-methylmorpholinium dicyanamide + 1-octyne; phases: Liquid
Fixed: Mole fraction of 1-octyne = 0
Fixed: Pressure, kPa = 101.325
Property: Activity coefficient of 1-octyne (Liquid); method: Chromatography
Temperature, K	Activity coefficient of 1-octyne	uncertainty
308.15	151	10
318.15	145	10
328.15	138	9
338.15	133	9
348.15	128	9
358.15	122	8
368.15	118	8

System: 4-(3-hydroxypropyl)-4-methylmorpholinium dicyanamide + benzene; phases: Liquid
Fixed: Mole fraction of benzene = 0
Fixed: Pressure, kPa = 101.325
Property: Activity coefficient of benzene (Liquid); method: Chromatography
Temperature, K	Activity coefficient of benzene	uncertainty
318.15	6.97	0.48
328.15	7.09	0.48
338.15	7.2	0.49
348.15	7.33	0.5
358.15	7.41	0.51
368.15	7.57	0.52

System: 4-(3-hydroxypropyl)-4-methylmorpholinium dicyanamide + toluene; phases: Liquid
Fixed: Mole fraction of toluene = 0
Fixed: Pressure, kPa = 101.325
Property: Activity coefficient of toluene (Liquid); method: Chromatography
Temperature, K	Activity coefficient of toluene	uncertainty
318.15	13	0.9
328.15	13.1	0.9
338.15	13.3	0.9
348.15	13.4	0.9
358.15	13.6	0.9
368.15	13.7	0.9

System: 4-(3-hydroxypropyl)-4-methylmorpholinium dicyanamide + ethylbenzene; phases: Liquid
Fixed: Mole fraction of ethylbenzene = 0
Fixed: Pressure, kPa = 101.325
Property: Activity coefficient of ethylbenzene (Liquid); method: Chromatography
Temperature, K	Activity coefficient of ethylbenzene	uncertainty
318.15	26.4	1.8
328.15	26.3	1.8
338.15	26.3	1.8
348.15	26.2	1.8
358.15	26.2	1.8
368.15	26.2	1.8

System: 4-(3-hydroxypropyl)-4-methylmorpholinium dicyanamide + 1,2-dimethylbenzene; phases: Liquid
Fixed: Mole fraction of 1,2-dimethylbenzene = 0
Fixed: Pressure, kPa = 101.325
Property: Activity coefficient of 1,2-dimethylbenzene (Liquid); method: Chromatography
Temperature, K	Activity coefficient of 1,2-dimethylbenzene	uncertainty
318.15	18.2	1.2
328.15	18.6	1.3
338.15	18.8	1.3
348.15	19	1.3
358.15	19.2	1.3
368.15	19.5	1.3

System: 4-(3-hydroxypropyl)-4-methylmorpholinium dicyanamide + 1,3-dimethylbenzene; phases: Liquid
Fixed: Mole fraction of 1,3-dimethylbenzene = 0
Fixed: Pressure, kPa = 101.325
Property: Activity coefficient of 1,3-dimethylbenzene (Liquid); method: Chromatography
Temperature, K	Activity coefficient of 1,3-dimethylbenzene	uncertainty
318.15	24.1	1.6
328.15	24.1	1.6
338.15	24.2	1.7
348.15	24.3	1.7
358.15	24.3	1.7
368.15	24.5	1.7

System: 4-(3-hydroxypropyl)-4-methylmorpholinium dicyanamide + 1,4-dimethylbenzene; phases: Liquid
Fixed: Mole fraction of 1,4-dimethylbenzene = 0
Fixed: Pressure, kPa = 101.325
Property: Activity coefficient of 1,4-dimethylbenzene (Liquid); method: Chromatography
Temperature, K	Activity coefficient of 1,4-dimethylbenzene	uncertainty
318.15	23.2	1.6
328.15	23.3	1.6
338.15	23.5	1.6
348.15	23.7	1.6
358.15	23.8	1.6
368.15	24.1	1.6

System: 4-(3-hydroxypropyl)-4-methylmorpholinium dicyanamide + propylbenzene; phases: Liquid
Fixed: Mole fraction of propylbenzene = 0
Fixed: Pressure, kPa = 101.325
Property: Activity coefficient of propylbenzene (Liquid); method: Chromatography
Temperature, K	Activity coefficient of propylbenzene	uncertainty
318.15	54.1	3.7
328.15	53.2	3.6
338.15	52.4	3.6
348.15	51.5	3.5
358.15	51	3.5
368.15	50.2	3.4

System: 4-(3-hydroxypropyl)-4-methylmorpholinium dicyanamide + isopropylbenzene; phases: Liquid
Fixed: Mole fraction of isopropylbenzene = 0
Fixed: Pressure, kPa = 101.325
Property: Activity coefficient of isopropylbenzene (Liquid); method: Chromatography
Temperature, K	Activity coefficient of isopropylbenzene	uncertainty
318.15	52.5	3.6
328.15	51.2	3.5
338.15	50.3	3.4
348.15	49.2	3.4
358.15	48.4	3.3
368.15	47.5	3.3

System: 4-(3-hydroxypropyl)-4-methylmorpholinium dicyanamide + styrene; phases: Liquid
Fixed: Mole fraction of styrene = 0
Fixed: Pressure, kPa = 101.325
Property: Activity coefficient of styrene (Liquid); method: Chromatography
Temperature, K	Activity coefficient of styrene	uncertainty
318.15	9.96	0.68
328.15	10.3	0.7
338.15	10.5	0.7
348.15	10.8	0.7
358.15	11	0.8
368.15	11.3	0.8

System: 4-(3-hydroxypropyl)-4-methylmorpholinium dicyanamide + (1-methylethenyl)benzene; phases: Liquid
Fixed: Mole fraction of (1-methylethenyl)benzene = 0
Fixed: Pressure, kPa = 101.325
Property: Activity coefficient of (1-methylethenyl)benzene (Liquid); method: Chromatography
Temperature, K	Activity coefficient of (1-methylethenyl)benzene	uncertainty
318.15	18.1	1.2
328.15	18.9	1.3
338.15	19.5	1.3
348.15	20.1	1.4
358.15	20.7	1.4
368.15	21.3	1.5

System: 4-(3-hydroxypropyl)-4-methylmorpholinium dicyanamide + thiophene; phases: Liquid
Fixed: Mole fraction of thiophene = 0
Fixed: Pressure, kPa = 101.325
Property: Activity coefficient of thiophene (Liquid); method: Chromatography
Temperature, K	Activity coefficient of thiophene	uncertainty
318.15	3.23	0.22
328.15	3.37	0.23
338.15	3.51	0.24
348.15	3.64	0.25
358.15	3.77	0.26
368.15	3.9	0.27

System: 4-(3-hydroxypropyl)-4-methylmorpholinium dicyanamide + pyridine; phases: Liquid
Fixed: Mole fraction of pyridine = 0
Fixed: Pressure, kPa = 101.325
Property: Activity coefficient of pyridine (Liquid); method: Chromatography
Temperature, K	Activity coefficient of pyridine	uncertainty
318.15	1.71	0.11
328.15	1.8	0.12
338.15	1.89	0.13
348.15	1.97	0.13
358.15	2.06	0.14
368.15	2.15	0.15

System: 4-(3-hydroxypropyl)-4-methylmorpholinium dicyanamide + methanol; phases: Liquid
Fixed: Mole fraction of methanol = 0
Fixed: Pressure, kPa = 101.325
Property: Activity coefficient of methanol (Liquid); method: Chromatography
Temperature, K	Activity coefficient of methanol	uncertainty
318.15	0.753	0.05
328.15	0.763	0.05
338.15	0.771	0.05
348.15	0.778	0.051
358.15	0.788	0.051
368.15	0.791	0.051

System: 4-(3-hydroxypropyl)-4-methylmorpholinium dicyanamide + ethanol; phases: Liquid
Fixed: Mole fraction of ethanol = 0
Fixed: Pressure, kPa = 101.325
Property: Activity coefficient of ethanol (Liquid); method: Chromatography
Temperature, K	Activity coefficient of ethanol	uncertainty
318.15	1.71	0.11
328.15	1.66	0.11
338.15	1.61	0.11
348.15	1.57	0.1
358.15	1.54	0.1
368.15	1.51	0.1

System: 4-(3-hydroxypropyl)-4-methylmorpholinium dicyanamide + propan-1-ol; phases: Liquid
Fixed: Mole fraction of propan-1-ol = 0
Fixed: Pressure, kPa = 101.325
Property: Activity coefficient of propan-1-ol (Liquid); method: Chromatography
Temperature, K	Activity coefficient of propan-1-ol	uncertainty
318.15	2.63	0.18
328.15	2.58	0.18
338.15	2.55	0.17
348.15	2.52	0.17
358.15	2.49	0.17
368.15	2.46	0.17

System: 4-(3-hydroxypropyl)-4-methylmorpholinium dicyanamide + propan-2-ol; phases: Liquid
Fixed: Mole fraction of propan-2-ol = 0
Fixed: Pressure, kPa = 101.325
Property: Activity coefficient of propan-2-ol (Liquid); method: Chromatography
Temperature, K	Activity coefficient of propan-2-ol	uncertainty
318.15	2.85	0.19
328.15	2.78	0.19
338.15	2.72	0.19
348.15	2.67	0.18
358.15	2.64	0.18
368.15	2.6	0.18

System: 4-(3-hydroxypropyl)-4-methylmorpholinium dicyanamide + butan-1-ol; phases: Liquid
Fixed: Mole fraction of butan-1-ol = 0
Fixed: Pressure, kPa = 101.325
Property: Activity coefficient of butan-1-ol (Liquid); method: Chromatography
Temperature, K	Activity coefficient of butan-1-ol	uncertainty
318.15	4.66	0.32
328.15	4.5	0.31
338.15	4.39	0.3
348.15	4.26	0.29
358.15	4.17	0.28
368.15	4.08	0.28

System: 4-(3-hydroxypropyl)-4-methylmorpholinium dicyanamide + butan-2-ol; phases: Liquid
Fixed: Mole fraction of butan-2-ol = 0
Fixed: Pressure, kPa = 101.325
Property: Activity coefficient of butan-2-ol (Liquid); method: Chromatography
Temperature, K	Activity coefficient of butan-2-ol	uncertainty
318.15	4.46	0.3
328.15	4.35	0.3
338.15	4.27	0.29
348.15	4.2	0.29
358.15	4.15	0.28
368.15	4.09	0.28

System: 4-(3-hydroxypropyl)-4-methylmorpholinium dicyanamide + 2-methyl-1-propanol; phases: Liquid
Fixed: Mole fraction of 2-methyl-1-propanol = 0
Fixed: Pressure, kPa = 101.325
Property: Activity coefficient of 2-methyl-1-propanol (Liquid); method: Chromatography
Temperature, K	Activity coefficient of 2-methyl-1-propanol	uncertainty
318.15	4.72	0.32
328.15	4.54	0.31
338.15	4.38	0.3
348.15	4.25	0.29
358.15	4.12	0.28
368.15	4	0.27

System: 4-(3-hydroxypropyl)-4-methylmorpholinium dicyanamide + 2-methylpropan-2-ol; phases: Liquid
Fixed: Mole fraction of 2-methylpropan-2-ol = 0
Fixed: Pressure, kPa = 101.325
Property: Activity coefficient of 2-methylpropan-2-ol (Liquid); method: Chromatography
Temperature, K	Activity coefficient of 2-methylpropan-2-ol	uncertainty
318.15	4.35	0.3
328.15	4.27	0.29
338.15	4.21	0.29
348.15	4.17	0.28
358.15	4.14	0.28
368.15	4.09	0.28

System: 4-(3-hydroxypropyl)-4-methylmorpholinium dicyanamide + pentan-1-ol; phases: Liquid
Fixed: Mole fraction of pentan-1-ol = 0
Fixed: Pressure, kPa = 101.325
Property: Activity coefficient of pentan-1-ol (Liquid); method: Chromatography
Temperature, K	Activity coefficient of pentan-1-ol	uncertainty
318.15	7.75	0.53
328.15	7.49	0.51
338.15	7.26	0.5
348.15	7.11	0.48
358.15	6.88	0.47
368.15	6.76	0.46

System: 4-(3-hydroxypropyl)-4-methylmorpholinium dicyanamide + water; phases: Liquid
Fixed: Mole fraction of water = 0
Fixed: Pressure, kPa = 101.325
Property: Activity coefficient of water (Liquid); method: Chromatography
Temperature, K	Activity coefficient of water	uncertainty
318.15	0.364	0.033
328.15	0.373	0.033
338.15	0.384	0.033
348.15	0.395	0.034
358.15	0.404	0.034
368.15	0.414	0.034

System: 4-(3-hydroxypropyl)-4-methylmorpholinium dicyanamide + methyl ethanoate; phases: Liquid
Fixed: Mole fraction of methyl ethanoate = 0
Fixed: Pressure, kPa = 101.325
Property: Activity coefficient of methyl ethanoate (Liquid); method: Chromatography
Temperature, K	Activity coefficient of methyl ethanoate	uncertainty
318.15	4.31	0.29
328.15	4.41	0.3
338.15	4.54	0.31
348.15	4.64	0.32
358.15	4.77	0.33
368.15	4.89	0.33

System: 4-(3-hydroxypropyl)-4-methylmorpholinium dicyanamide + methyl propanoate; phases: Liquid
Fixed: Mole fraction of methyl propanoate = 0
Fixed: Pressure, kPa = 101.325
Property: Activity coefficient of methyl propanoate (Liquid); method: Chromatography
Temperature, K	Activity coefficient of methyl propanoate	uncertainty
318.15	8.18	0.56
328.15	8.35	0.57
338.15	8.51	0.58
348.15	8.7	0.59
358.15	8.81	0.6
368.15	9.01	0.61

System: 4-(3-hydroxypropyl)-4-methylmorpholinium dicyanamide + methyl butanoate; phases: Liquid
Fixed: Mole fraction of methyl butanoate = 0
Fixed: Pressure, kPa = 101.325
Property: Activity coefficient of methyl butanoate (Liquid); method: Chromatography
Temperature, K	Activity coefficient of methyl butanoate	uncertainty
318.15	15.8	1.1
328.15	15.9	1.1
338.15	16.1	1.1
348.15	16.2	1.1
358.15	16.3	1.1
368.15	16.5	1.1

System: 4-(3-hydroxypropyl)-4-methylmorpholinium dicyanamide + ethyl acetate; phases: Liquid
Fixed: Mole fraction of ethyl acetate = 0
Fixed: Pressure, kPa = 101.325
Property: Activity coefficient of ethyl acetate (Liquid); method: Chromatography
Temperature, K	Activity coefficient of ethyl acetate	uncertainty
318.15	9.71	0.66
328.15	9.78	0.67
338.15	9.83	0.67
348.15	9.91	0.68
358.15	10	0.7
368.15	10.1	0.7

System: 4-(3-hydroxypropyl)-4-methylmorpholinium dicyanamide + vinyl acetate; phases: Liquid
Fixed: Mole fraction of vinyl acetate = 0
Fixed: Pressure, kPa = 101.325
Property: Activity coefficient of vinyl acetate (Liquid); method: Chromatography
Temperature, K	Activity coefficient of vinyl acetate	uncertainty
318.15	6.62	0.45
328.15	6.72	0.46
338.15	6.81	0.46
348.15	6.89	0.47
358.15	6.99	0.48
368.15	7.08	0.48

System: 4-(3-hydroxypropyl)-4-methylmorpholinium dicyanamide + tetrahydrofuran; phases: Liquid
Fixed: Mole fraction of tetrahydrofuran = 0
Fixed: Pressure, kPa = 101.325
Property: Activity coefficient of tetrahydrofuran (Liquid); method: Chromatography
Temperature, K	Activity coefficient of tetrahydrofuran	uncertainty
318.15	4.57	0.31
328.15	4.61	0.31
338.15	4.67	0.32
348.15	4.72	0.32
358.15	4.78	0.33
368.15	4.83	0.33

System: 4-(3-hydroxypropyl)-4-methylmorpholinium dicyanamide + 1,4-dioxane; phases: Liquid
Fixed: Mole fraction of 1,4-dioxane = 0
Fixed: Pressure, kPa = 101.325
Property: Activity coefficient of 1,4-dioxane (Liquid); method: Chromatography
Temperature, K	Activity coefficient of 1,4-dioxane	uncertainty
318.15	1.94	0.13
328.15	2.07	0.14
338.15	2.2	0.15
348.15	2.33	0.16
358.15	2.45	0.17
368.15	2.59	0.18

System: 4-(3-hydroxypropyl)-4-methylmorpholinium dicyanamide + 2-methoxy-2-methylpropane; phases: Liquid
Fixed: Mole fraction of 2-methoxy-2-methylpropane = 0
Fixed: Pressure, kPa = 101.325
Property: Activity coefficient of 2-methoxy-2-methylpropane (Liquid); method: Chromatography
Temperature, K	Activity coefficient of 2-methoxy-2-methylpropane	uncertainty
308.15	55.8	3.8
318.15	52.4	3.6
328.15	49.7	3.4
338.15	47.1	3.2
348.15	45	3.1
358.15	42.9	2.9
368.15	41.3	2.8

System: 4-(3-hydroxypropyl)-4-methylmorpholinium dicyanamide + 2-ethoxy-2-methylpropane; phases: Liquid
Fixed: Mole fraction of 2-ethoxy-2-methylpropane = 0
Fixed: Pressure, kPa = 101.325
Property: Activity coefficient of 2-ethoxy-2-methylpropane (Liquid); method: Chromatography
Temperature, K	Activity coefficient of 2-ethoxy-2-methylpropane	uncertainty
298.15	339	23
308.15	275	19
318.15	227	16
328.15	191	13

System: 4-(3-hydroxypropyl)-4-methylmorpholinium dicyanamide + 2-methoxy-2-methylbutane; phases: Liquid
Fixed: Mole fraction of 2-methoxy-2-methylbutane = 0
Fixed: Pressure, kPa = 101.325
Property: Activity coefficient of 2-methoxy-2-methylbutane (Liquid); method: Chromatography
Temperature, K	Activity coefficient of 2-methoxy-2-methylbutane	uncertainty
308.15	97.2	6.7
318.15	90.2	6.2
328.15	84.1	5.8
338.15	78.6	5.4
348.15	74	5.1
358.15	69.9	4.8
368.15	66	5

System: 4-(3-hydroxypropyl)-4-methylmorpholinium dicyanamide + diethyl ether; phases: Liquid
Fixed: Mole fraction of diethyl ether = 0
Fixed: Pressure, kPa = 101.325
Property: Activity coefficient of diethyl ether (Liquid); method: Chromatography
Temperature, K	Activity coefficient of diethyl ether	uncertainty
298.15	59.3	4.1
308.15	51.3	3.5
318.15	44.7	3.1
328.15	39.2	2.7
338.15	35	2.4

System: 4-(3-hydroxypropyl)-4-methylmorpholinium dicyanamide + dipropyl ether; phases: Liquid
Fixed: Mole fraction of dipropyl ether = 0
Fixed: Pressure, kPa = 101.325
Property: Activity coefficient of dipropyl ether (Liquid); method: Chromatography
Temperature, K	Activity coefficient of dipropyl ether	uncertainty
308.15	218	15
318.15	202	14
328.15	189	13
338.15	176	12
348.15	166	11
358.15	157	11
368.15	148	10

System: 4-(3-hydroxypropyl)-4-methylmorpholinium dicyanamide + diisopropyl ether; phases: Liquid
Fixed: Mole fraction of diisopropyl ether = 0
Fixed: Pressure, kPa = 101.325
Property: Activity coefficient of diisopropyl ether (Liquid); method: Chromatography
Temperature, K	Activity coefficient of diisopropyl ether	uncertainty
298.15	393	27
308.15	306	21
318.15	244	17

System: 4-(3-hydroxypropyl)-4-methylmorpholinium dicyanamide + dibutyl ether; phases: Liquid
Fixed: Mole fraction of dibutyl ether = 0
Fixed: Pressure, kPa = 101.325
Property: Activity coefficient of dibutyl ether (Liquid); method: Chromatography
Temperature, K	Activity coefficient of dibutyl ether	uncertainty
308.15	637	44
318.15	574	40
328.15	514	35
338.15	465	32
348.15	426	29
358.15	389	27
368.15	359	25

System: 4-(3-hydroxypropyl)-4-methylmorpholinium dicyanamide + acetone; phases: Liquid
Fixed: Mole fraction of acetone = 0
Fixed: Pressure, kPa = 101.325
Property: Activity coefficient of acetone (Liquid); method: Chromatography
Temperature, K	Activity coefficient of acetone	uncertainty
318.15	2.24	0.15
328.15	2.3	0.16
338.15	2.37	0.16
348.15	2.45	0.17
358.15	2.51	0.17
368.15	2.59	0.18

System: 4-(3-hydroxypropyl)-4-methylmorpholinium dicyanamide + pentan-2-one; phases: Liquid
Fixed: Mole fraction of pentan-2-one = 0
Fixed: Pressure, kPa = 101.325
Property: Activity coefficient of pentan-2-one (Liquid); method: Chromatography
Temperature, K	Activity coefficient of pentan-2-one	uncertainty
318.15	7.85	0.54
328.15	7.96	0.54
338.15	8.1	0.55
348.15	8.23	0.56
358.15	8.33	0.57
368.15	8.44	0.58

System: 4-(3-hydroxypropyl)-4-methylmorpholinium dicyanamide + pentan-3-one; phases: Liquid
Fixed: Mole fraction of pentan-3-one = 0
Fixed: Pressure, kPa = 101.325
Property: Activity coefficient of pentan-3-one (Liquid); method: Chromatography
Temperature, K	Activity coefficient of pentan-3-one	uncertainty
318.15	8.09	0.55
328.15	8.2	0.56
338.15	8.38	0.57
348.15	8.52	0.58
358.15	8.61	0.59
368.15	8.75	0.6

System: 4-(3-hydroxypropyl)-4-methylmorpholinium dicyanamide + butanal; phases: Liquid
Fixed: Mole fraction of butanal = 0
Fixed: Pressure, kPa = 101.325
Property: Activity coefficient of butanal (Liquid); method: Chromatography
Temperature, K	Activity coefficient of butanal	uncertainty
318.15	4.26	0.29
328.15	4.49	0.31
338.15	4.74	0.32
348.15	4.97	0.34
358.15	5.19	0.35
368.15	5.38	0.37

System: 4-(3-hydroxypropyl)-4-methylmorpholinium dicyanamide + acetonitrile; phases: Liquid
Fixed: Mole fraction of acetonitrile = 0
Fixed: Pressure, kPa = 101.325
Property: Activity coefficient of acetonitrile (Liquid); method: Chromatography
Temperature, K	Activity coefficient of acetonitrile	uncertainty
318.15	1.25	0.08
328.15	1.29	0.08
338.15	1.33	0.09
348.15	1.37	0.09
358.15	1.4	0.09
368.15	1.45	0.1

System: 4-(3-hydroxypropyl)-4-methylmorpholinium dicyanamide + 1-nitropropane; phases: Liquid
Fixed: Mole fraction of 1-nitropropane = 0
Fixed: Pressure, kPa = 101.325
Property: Activity coefficient of 1-nitropropane (Liquid); method: Chromatography
Temperature, K	Activity coefficient of 1-nitropropane	uncertainty
318.15	3.26	0.22
328.15	3.35	0.23
338.15	3.47	0.24
348.15	3.55	0.24
358.15	3.65	0.25
368.15	3.74	0.25
