Measured thermophysical data. Temperature and concentration dependence towards physicochemical and FTIR spectral studies of glycine, L-alanine and L-valine in aqueous solutions of nortriptyline hydrochloride
Source: J. Chem. Thermodyn., 2019, 10.1016/j.jct.2018.09.026
Compound 1: 2-aminoacetic acid, C2H5NO2, InChI=1S/C2H5NO2/c3-1-2(4)5/h1,3H2,(H,4,5), purity 99%
Compound 2: (S)-2-aminopropanoic acid, C3H7NO2, InChI=1S/C3H7NO2/c1-2(4)3(5)6/h2H,4H2,1H3,(H,5,6)/t2-/m0/s1, purity 99%
Compound 3: L-valine, C5H11NO2, InChI=1S/C5H11NO2/c1-3(2)4(6)5(7)8/h3-4H,6H2,1-2H3,(H,7,8)/t4-/m0/s1, purity 99%
Compound 4: 3-(10,110dihydro-5H-dibenzo[1,d]cyclohepten-5-ylidene)-N-methyl-1-propanamine hydrochloride, C19H22ClN, InChI=1S/C19H21N.ClH/c1-20-14-6-11-19-17-9-4-2-7-15(17)12-13-16-8-3-5-10-18(16)19;/h2-5,7-11,20H,6,12-14H2,1H3;1H, purity 98%
Compound 5: water, H2O, InChI=1S/H2O/h1H2, purity 99.8%

System: 2-aminoacetic acid + water + 3-(10,110dihydro-5H-dibenzo[1,d]cyclohepten-5-ylidene)-N-methyl-1-propanamine hydrochloride; phases: Liquid
Fixed: Pressure, kPa = 100
Property: Mass density, kg/m3 (Liquid); method: Vibrating tube method
Temperature, K	Solvent: Molality, mol/kg of 3-(10,110dihydro-5H-dibenzo[1,d]cyclohepten-5-ylidene)-N-methyl-1-propanamine hydrochloride	Molality, mol/kg of 2-aminoacetic acid	Mass density, kg/m3	uncertainty
288.15	0.025	0	1000.186	0.382
288.15	0.025	0.01971	1000.831	0.382
288.15	0.025	0.05987	1002.137	0.384
288.15	0.025	0.10004	1003.428	0.388
288.15	0.025	0.14038	1004.719	0.394
288.15	0.025	0.1673	1005.57	0.398
288.15	0.025	0.19783	1006.518	0.403
293.15	0.025	0	999.27	0.383
293.15	0.025	0.01971	999.907	0.381
293.15	0.025	0.05987	1001.197	0.383
293.15	0.025	0.10004	1002.471	0.387
293.15	0.025	0.14038	1003.744	0.393
293.15	0.025	0.1673	1004.582	0.397
293.15	0.025	0.19783	1005.517	0.399
298.15	0.025	0	998.086	0.383
298.15	0.025	0.01971	998.717	0.381
298.15	0.025	0.05987	999.993	0.383
298.15	0.025	0.10004	1001.254	0.387
298.15	0.025	0.14038	1002.514	0.392
298.15	0.025	0.1673	1003.341	0.396
298.15	0.025	0.19783	1004.267	0.399
303.15	0.025	0	996.667	0.383
303.15	0.025	0.01971	997.294	0.381
303.15	0.025	0.05987	998.557	0.383
303.15	0.025	0.10004	999.805	0.386
303.15	0.025	0.14038	1001.054	0.391
303.15	0.025	0.1673	1001.875	0.395
303.15	0.025	0.19783	1002.791	0.398
308.15	0.025	0	995.032	0.382
308.15	0.025	0.01971	995.653	0.381
308.15	0.025	0.05987	996.906	0.383
308.15	0.025	0.10004	998.148	0.386
308.15	0.025	0.14038	999.376	0.39
308.15	0.025	0.1673	1000.19	0.394
308.15	0.025	0.19783	1001.101	0.399
288.15	0.05	0	1001.245	0.385
288.15	0.05	0.02116	1001.925	0.384
288.15	0.05	0.06022	1003.192	0.386
288.15	0.05	0.09929	1004.466	0.39
288.15	0.05	0.13938	1005.779	0.396
288.15	0.05	0.17032	1006.8	0.402
288.15	0.05	0.19687	1007.693	0.404
293.15	0.05	0	1000.302	0.384
293.15	0.05	0.02116	1000.973	0.383
293.15	0.05	0.06022	1002.223	0.385
293.15	0.05	0.09929	1003.482	0.389
293.15	0.05	0.13938	1004.782	0.395
293.15	0.05	0.17032	1005.784	0.401
293.15	0.05	0.19687	1006.65	0.402
298.15	0.05	0	999.096	0.384
298.15	0.05	0.02116	999.761	0.383
298.15	0.05	0.06022	1000.993	0.385
298.15	0.05	0.09929	1002.237	0.389
298.15	0.05	0.13938	1003.522	0.394
298.15	0.05	0.17032	1004.518	0.4
298.15	0.05	0.19687	1005.38	0.401
303.15	0.05	0	997.655	0.384
303.15	0.05	0.02116	998.315	0.382
303.15	0.05	0.06022	999.537	0.384
303.15	0.05	0.09929	1000.77	0.388
303.15	0.05	0.13938	1002.043	0.393
303.15	0.05	0.17032	1003.031	0.399
303.15	0.05	0.19687	1003.876	0.4
308.15	0.05	0	995.999	0.383
308.15	0.05	0.02116	996.654	0.382
308.15	0.05	0.06022	997.869	0.384
308.15	0.05	0.09929	999.093	0.387
308.15	0.05	0.13938	1000.356	0.392
308.15	0.05	0.17032	1001.335	0.398
308.15	0.05	0.19687	1002.175	0.399
288.15	0.075	0	1002.26	0.388
288.15	0.075	0.0202	1002.896	0.387
288.15	0.075	0.06011	1004.164	0.389
288.15	0.075	0.09999	1005.445	0.393
288.15	0.075	0.13991	1006.736	0.398
288.15	0.075	0.16975	1007.711	0.404
288.15	0.075	0.20072	1008.728	0.41
293.15	0.075	0	1001.298	0.386
293.15	0.075	0.0202	1001.924	0.386
293.15	0.075	0.06011	1003.172	0.388
293.15	0.075	0.09999	1004.435	0.391
293.15	0.075	0.13991	1005.715	0.397
293.15	0.075	0.16975	1006.677	0.402
293.15	0.075	0.20072	1007.682	0.405
298.15	0.075	0	1000.07	0.386
298.15	0.075	0.0202	1000.687	0.385
298.15	0.075	0.06011	1001.919	0.387
298.15	0.075	0.09999	1003.171	0.391
298.15	0.075	0.13991	1004.441	0.396
298.15	0.075	0.16975	1005.393	0.401
298.15	0.075	0.20072	1006.39	0.405
303.15	0.075	0	998.612	0.386
303.15	0.075	0.0202	999.224	0.384
303.15	0.075	0.06011	1000.445	0.386
303.15	0.075	0.09999	1001.686	0.39
303.15	0.075	0.13991	1002.946	0.395
303.15	0.075	0.16975	1003.888	0.4
303.15	0.075	0.20072	1004.876	0.404
308.15	0.075	0	996.941	0.386
308.15	0.075	0.0202	997.548	0.385
308.15	0.075	0.06011	998.761	0.386
308.15	0.075	0.09999	999.992	0.389
308.15	0.075	0.13991	1001.242	0.394
308.15	0.075	0.16975	1002.179	0.399
308.15	0.075	0.20072	1003.155	0.406

System: 2-aminoacetic acid + water + 3-(10,110dihydro-5H-dibenzo[1,d]cyclohepten-5-ylidene)-N-methyl-1-propanamine hydrochloride; phases: Liquid
Fixed: Pressure, kPa = 100
Fixed: Frequency, MHz = 3
Property: Speed of sound, m/s (Liquid); method: Single path-length method
Temperature, K	Solvent: Molality, mol/kg of 3-(10,110dihydro-5H-dibenzo[1,d]cyclohepten-5-ylidene)-N-methyl-1-propanamine hydrochloride	Molality, mol/kg of 2-aminoacetic acid	Speed of sound, m/s	uncertainty
288.15	0.025	0	1471.79	1.47
288.15	0.025	0.01971	1472.9	1.47
288.15	0.025	0.05987	1475.11	1.47
288.15	0.025	0.10004	1477.39	1.47
288.15	0.025	0.14038	1479.61	1.48
288.15	0.025	0.1673	1481.09	1.48
288.15	0.025	0.19783	1482.49	1.48
293.15	0.025	0	1487.4	1.47
293.15	0.025	0.01971	1488.45	1.47
293.15	0.025	0.05987	1490.57	1.47
293.15	0.025	0.10004	1492.7	1.47
293.15	0.025	0.14038	1494.83	1.48
293.15	0.025	0.1673	1496.3	1.48
293.15	0.025	0.19783	1497.86	1.47
298.15	0.025	0	1501.22	1.47
298.15	0.025	0.01971	1502.24	1.47
298.15	0.025	0.05987	1504.32	1.47
298.15	0.025	0.10004	1506.4	1.47
298.15	0.025	0.14038	1508.47	1.48
298.15	0.025	0.1673	1509.9	1.48
298.15	0.025	0.19783	1511.04	1.47
303.15	0.025	0	1513.23	1.47
303.15	0.025	0.01971	1514.23	1.47
303.15	0.025	0.05987	1516.25	1.47
303.15	0.025	0.10004	1518.28	1.47
303.15	0.025	0.14038	1520.28	1.47
303.15	0.025	0.1673	1521.67	1.48
303.15	0.025	0.19783	1523.2	1.47
308.15	0.025	0	1523.56	1.47
308.15	0.025	0.01971	1524.54	1.47
308.15	0.025	0.05987	1526.51	1.47
308.15	0.025	0.10004	1528.47	1.47
308.15	0.025	0.14038	1530.43	1.47
308.15	0.025	0.1673	1531.79	1.48
308.15	0.025	0.19783	1533.3	1.48
288.15	0.05	0	1475.89	1.47
288.15	0.05	0.02116	1477.04	1.47
288.15	0.05	0.06022	1479.13	1.47
288.15	0.05	0.09929	1481.31	1.48
288.15	0.05	0.13938	1483.38	1.48
288.15	0.05	0.17032	1485.22	1.48
288.15	0.05	0.19687	1486.56	1.48
293.15	0.05	0	1491.2	1.47
293.15	0.05	0.02116	1492.32	1.47
293.15	0.05	0.06022	1494.41	1.47
293.15	0.05	0.09929	1496.5	1.48
293.15	0.05	0.13938	1498.53	1.48
293.15	0.05	0.17032	1500.3	1.48
293.15	0.05	0.19687	1501.61	1.48
298.15	0.05	0	1504.84	1.47
298.15	0.05	0.02116	1505.94	1.47
298.15	0.05	0.06022	1507.96	1.47
298.15	0.05	0.09929	1510	1.47
298.15	0.05	0.13938	1511.98	1.48
298.15	0.05	0.17032	1513.69	1.48
298.15	0.05	0.19687	1514.94	1.47
303.15	0.05	0	1516.65	1.47
303.15	0.05	0.02116	1517.72	1.47
303.15	0.05	0.06022	1519.7	1.47
303.15	0.05	0.09929	1521.69	1.47
303.15	0.05	0.13938	1523.62	1.48
303.15	0.05	0.17032	1525.28	1.48
303.15	0.05	0.19687	1526.49	1.47
308.15	0.05	0	1526.79	1.47
308.15	0.05	0.02116	1527.82	1.47
308.15	0.05	0.06022	1529.77	1.47
308.15	0.05	0.09929	1531.69	1.47
308.15	0.05	0.13938	1533.58	1.48
308.15	0.05	0.17032	1535.22	1.48
308.15	0.05	0.19687	1536.39	1.48
288.15	0.075	0	1478.35	1.47
288.15	0.075	0.0202	1479.42	1.47
288.15	0.075	0.06011	1481.57	1.48
288.15	0.075	0.09999	1483.71	1.48
288.15	0.075	0.13991	1486	1.48
288.15	0.075	0.16975	1487.62	1.49
288.15	0.075	0.20072	1489.26	1.49
293.15	0.075	0	1493.65	1.47
293.15	0.075	0.0202	1494.71	1.47
293.15	0.075	0.06011	1496.83	1.47
293.15	0.075	0.09999	1498.83	1.48
293.15	0.075	0.13991	1501.04	1.48
293.15	0.075	0.16975	1502.62	1.48
293.15	0.075	0.20072	1504.21	1.48
298.15	0.075	0	1507.24	1.47
298.15	0.075	0.0202	1508.25	1.47
298.15	0.075	0.06011	1510.31	1.47
298.15	0.075	0.09999	1512.24	1.47
298.15	0.075	0.13991	1514.37	1.48
298.15	0.075	0.16975	1515.92	1.48
298.15	0.075	0.20072	1517.47	1.48
303.15	0.075	0	1519.01	1.47
303.15	0.075	0.0202	1519.96	1.47
303.15	0.075	0.06011	1521.98	1.47
303.15	0.075	0.09999	1523.84	1.47
303.15	0.075	0.13991	1525.91	1.48
303.15	0.075	0.16975	1527.42	1.48
303.15	0.075	0.20072	1528.92	1.48
308.15	0.075	0	1529.06	1.47
308.15	0.075	0.0202	1529.99	1.47
308.15	0.075	0.06011	1531.96	1.47
308.15	0.075	0.09999	1533.78	1.47
308.15	0.075	0.13991	1535.8	1.48
308.15	0.075	0.16975	1537.27	1.48
308.15	0.075	0.20072	1538.74	1.48

System: (S)-2-aminopropanoic acid + water + 3-(10,110dihydro-5H-dibenzo[1,d]cyclohepten-5-ylidene)-N-methyl-1-propanamine hydrochloride; phases: Liquid
Fixed: Pressure, kPa = 100
Property: Mass density, kg/m3 (Liquid); method: Vibrating tube method
Temperature, K	Solvent: Molality, mol/kg of 3-(10,110dihydro-5H-dibenzo[1,d]cyclohepten-5-ylidene)-N-methyl-1-propanamine hydrochloride	Molality, mol/kg of (S)-2-aminopropanoic acid	Mass density, kg/m3	uncertainty
288.15	0.025	0	1000.186	0.382
288.15	0.025	0.01987	1000.775	0.381
288.15	0.025	0.06046	1001.964	0.383
288.15	0.025	0.10014	1003.107	0.387
288.15	0.025	0.13941	1004.216	0.391
288.15	0.025	0.16976	1005.059	0.395
288.15	0.025	0.19823	1005.845	0.399
293.15	0.025	0	999.27	0.382
293.15	0.025	0.01987	999.852	0.381
293.15	0.025	0.06046	1001.027	0.383
293.15	0.025	0.10014	1002.155	0.386
293.15	0.025	0.13941	1003.253	0.39
293.15	0.025	0.16976	1004.088	0.394
293.15	0.025	0.19823	1004.864	0.395
298.15	0.025	0	998.086	0.382
298.15	0.025	0.01987	998.663	0.381
298.15	0.025	0.06046	999.829	0.382
298.15	0.025	0.10014	1000.945	0.385
298.15	0.025	0.13941	1002.035	0.39
298.15	0.025	0.16976	1002.87	0.393
298.15	0.025	0.19823	1003.638	0.395
303.15	0.025	0	996.667	0.382
303.15	0.025	0.01987	997.239	0.381
303.15	0.025	0.06046	998.396	0.382
303.15	0.025	0.10014	999.506	0.385
303.15	0.025	0.13941	1000.586	0.389
303.15	0.025	0.16976	1001.407	0.392
303.15	0.025	0.19823	1002.17	0.394
308.15	0.025	0	995.032	0.382
308.15	0.025	0.01987	995.601	0.381
308.15	0.025	0.06046	996.75	0.382
308.15	0.025	0.10014	997.853	0.385
308.15	0.025	0.13941	998.929	0.388
308.15	0.025	0.16976	999.752	0.392
308.15	0.025	0.19823	1000.509	0.395
288.15	0.05	0	1001.245	0.384
288.15	0.05	0.02027	1001.843	0.384
288.15	0.05	0.06017	1003.009	0.386
288.15	0.05	0.09996	1004.159	0.389
288.15	0.05	0.13925	1005.279	0.393
288.15	0.05	0.1665	1006.052	0.397
288.15	0.05	0.19867	1006.958	0.401
293.15	0.05	0	1000.302	0.384
293.15	0.05	0.02027	1000.893	0.383
293.15	0.05	0.06017	1002.047	0.385
293.15	0.05	0.09996	1003.184	0.388
293.15	0.05	0.13925	1004.293	0.392
293.15	0.05	0.1665	1005.056	0.396
293.15	0.05	0.19867	1005.953	0.399
298.15	0.05	0	999.096	0.384
298.15	0.05	0.02027	999.682	0.383
298.15	0.05	0.06017	1000.825	0.384
298.15	0.05	0.09996	1001.953	0.387
298.15	0.05	0.13925	1003.05	0.391
298.15	0.05	0.1665	1003.805	0.395
298.15	0.05	0.19867	1004.698	0.399
303.15	0.05	0	997.655	0.384
303.15	0.05	0.02027	998.235	0.382
303.15	0.05	0.06017	999.368	0.384
303.15	0.05	0.09996	1000.486	0.387
303.15	0.05	0.13925	1001.581	0.391
303.15	0.05	0.1665	1002.331	0.394
303.15	0.05	0.19867	1003.218	0.398
308.15	0.05	0	995.999	0.383
308.15	0.05	0.02027	996.576	0.382
308.15	0.05	0.06017	997.703	0.384
308.15	0.05	0.09996	998.815	0.386
308.15	0.05	0.13925	999.9	0.39
308.15	0.05	0.1665	1000.648	0.393
308.15	0.05	0.19867	1001.529	0.398
288.15	0.075	0	1002.26	0.387
288.15	0.075	0.01945	1002.817	0.387
288.15	0.075	0.06002	1003.983	0.388
288.15	0.075	0.09978	1005.132	0.392
288.15	0.075	0.13954	1006.283	0.396
288.15	0.075	0.171	1007.193	0.401
288.15	0.075	0.19972	1008.029	0.406
293.15	0.075	0	1001.298	0.386
293.15	0.075	0.01945	1001.847	0.385
293.15	0.075	0.06002	1003.001	0.387
293.15	0.075	0.09978	1004.138	0.39
293.15	0.075	0.13954	1005.275	0.395
293.15	0.075	0.171	1006.177	0.4
293.15	0.075	0.19972	1007.007	0.401
298.15	0.075	0	1000.07	0.386
298.15	0.075	0.01945	1000.614	0.385
298.15	0.075	0.06002	1001.756	0.386
298.15	0.075	0.09978	1002.886	0.39
298.15	0.075	0.13954	1004.015	0.394
298.15	0.075	0.171	1004.906	0.399
298.15	0.075	0.19972	1005.726	0.401
303.15	0.075	0	998.612	0.385
303.15	0.075	0.01945	999.153	0.384
303.15	0.075	0.06002	1000.288	0.386
303.15	0.075	0.09978	1001.408	0.389
303.15	0.075	0.13954	1002.527	0.393
303.15	0.075	0.171	1003.414	0.398
303.15	0.075	0.19972	1004.221	0.4
308.15	0.075	0	996.941	0.385
308.15	0.075	0.01945	997.48	0.385
308.15	0.075	0.06002	998.609	0.386
308.15	0.075	0.09978	999.72	0.388
308.15	0.075	0.13954	1000.834	0.393
308.15	0.075	0.171	1001.717	0.397
308.15	0.075	0.19972	1002.525	0.402

System: (S)-2-aminopropanoic acid + water + 3-(10,110dihydro-5H-dibenzo[1,d]cyclohepten-5-ylidene)-N-methyl-1-propanamine hydrochloride; phases: Liquid
Fixed: Pressure, kPa = 100
Fixed: Frequency, MHz = 3
Property: Speed of sound, m/s (Liquid); method: Single path-length method
Temperature, K	Solvent: Molality, mol/kg of 3-(10,110dihydro-5H-dibenzo[1,d]cyclohepten-5-ylidene)-N-methyl-1-propanamine hydrochloride	Molality, mol/kg of (S)-2-aminopropanoic acid	Speed of sound, m/s	uncertainty
288.15	0.025	0	1471.79	1.47
288.15	0.025	0.01987	1473.17	1.47
288.15	0.025	0.06046	1476.03	1.47
288.15	0.025	0.10014	1478.59	1.48
288.15	0.025	0.13941	1481.56	1.48
288.15	0.025	0.16976	1483.59	1.49
288.15	0.025	0.19823	1485.65	1.5
293.15	0.025	0	1487.4	1.47
293.15	0.025	0.01987	1488.73	1.47
293.15	0.025	0.06046	1491.45	1.47
293.15	0.025	0.10014	1494.07	1.48
293.15	0.025	0.13941	1496.79	1.48
293.15	0.025	0.16976	1498.71	1.49
293.15	0.025	0.19823	1500.67	1.48
298.15	0.025	0	1501.22	1.47
298.15	0.025	0.01987	1502.51	1.47
298.15	0.025	0.06046	1505.15	1.47
298.15	0.025	0.10014	1507.7	1.47
298.15	0.025	0.13941	1510.31	1.48
298.15	0.025	0.16976	1512.16	1.48
298.15	0.025	0.19823	1514.04	1.48
303.15	0.025	0	1513.23	1.47
303.15	0.025	0.01987	1514.48	1.47
303.15	0.025	0.06046	1517.03	1.47
303.15	0.025	0.10014	1519.49	1.47
303.15	0.025	0.13941	1522.05	1.48
303.15	0.025	0.16976	1523.79	1.48
303.15	0.025	0.19823	1525.63	1.48
308.15	0.025	0	1523.56	1.47
308.15	0.025	0.01987	1524.76	1.47
308.15	0.025	0.06046	1527.22	1.47
308.15	0.025	0.10014	1529.61	1.47
308.15	0.025	0.13941	1532.1	1.48
308.15	0.025	0.16976	1533.78	1.48
308.15	0.025	0.19823	1535.78	1.49
288.15	0.05	0	1475.89	1.47
288.15	0.05	0.02027	1477.26	1.47
288.15	0.05	0.06017	1480.08	1.47
288.15	0.05	0.09996	1482.64	1.48
288.15	0.05	0.13925	1485.48	1.49
288.15	0.05	0.1665	1487.3	1.49
288.15	0.05	0.19867	1489.5	1.49
293.15	0.05	0	1491.2	1.47
293.15	0.05	0.02027	1492.53	1.47
293.15	0.05	0.06017	1495.21	1.47
293.15	0.05	0.09996	1497.78	1.48
293.15	0.05	0.13925	1500.48	1.48
293.15	0.05	0.1665	1502.26	1.49
293.15	0.05	0.19867	1504.39	1.48
298.15	0.05	0	1504.84	1.47
298.15	0.05	0.02027	1506.12	1.47
298.15	0.05	0.06017	1508.75	1.47
298.15	0.05	0.09996	1511.21	1.48
298.15	0.05	0.13925	1513.8	1.48
298.15	0.05	0.1665	1515.51	1.49
298.15	0.05	0.19867	1517.57	1.48
303.15	0.05	0	1516.65	1.47
303.15	0.05	0.02027	1517.91	1.47
303.15	0.05	0.06017	1520.37	1.47
303.15	0.05	0.09996	1522.86	1.48
303.15	0.05	0.13925	1525.37	1.48
303.15	0.05	0.1665	1526.99	1.48
303.15	0.05	0.19867	1528.98	1.48
308.15	0.05	0	1526.79	1.47
308.15	0.05	0.02027	1527.97	1.47
308.15	0.05	0.06017	1530.45	1.47
308.15	0.05	0.09996	1532.83	1.48
308.15	0.05	0.13925	1535.26	1.48
308.15	0.05	0.1665	1536.8	1.48
308.15	0.05	0.19867	1538.72	1.48
288.15	0.075	0	1478.35	1.47
288.15	0.075	0.01945	1479.67	1.47
288.15	0.075	0.06002	1482.49	1.48
288.15	0.075	0.09978	1485.26	1.48
288.15	0.075	0.13954	1488.23	1.49
288.15	0.075	0.171	1490.11	1.49
288.15	0.075	0.19972	1492	1.5
293.15	0.075	0	1493.65	1.47
293.15	0.075	0.01945	1494.91	1.47
293.15	0.075	0.06002	1497.59	1.47
293.15	0.075	0.09978	1500.27	1.48
293.15	0.075	0.13954	1503.19	1.48
293.15	0.075	0.171	1504.96	1.49
293.15	0.075	0.19972	1506.81	1.48
298.15	0.075	0	1507.24	1.47
298.15	0.075	0.01945	1508.47	1.47
298.15	0.075	0.06002	1511.03	1.47
298.15	0.075	0.09978	1513.6	1.48
298.15	0.075	0.13954	1516.42	1.48
298.15	0.075	0.171	1518.11	1.48
298.15	0.075	0.19972	1519.89	1.48
303.15	0.075	0	1519.01	1.47
303.15	0.075	0.01945	1520.19	1.47
303.15	0.075	0.06002	1522.65	1.47
303.15	0.075	0.09978	1525.15	1.48
303.15	0.075	0.13954	1527.9	1.48
303.15	0.075	0.171	1529.5	1.48
303.15	0.075	0.19972	1531.22	1.48
308.15	0.075	0	1529.06	1.47
308.15	0.075	0.01945	1530.2	1.47
308.15	0.075	0.06002	1532.57	1.47
308.15	0.075	0.09978	1535.03	1.48
308.15	0.075	0.13954	1537.69	1.48
308.15	0.075	0.171	1539.23	1.48
308.15	0.075	0.19972	1540.9	1.49

System: L-valine + water + 3-(10,110dihydro-5H-dibenzo[1,d]cyclohepten-5-ylidene)-N-methyl-1-propanamine hydrochloride; phases: Liquid
Fixed: Pressure, kPa = 100
Property: Mass density, kg/m3 (Liquid); method: Vibrating tube method
Temperature, K	Solvent: Molality, mol/kg of 3-(10,110dihydro-5H-dibenzo[1,d]cyclohepten-5-ylidene)-N-methyl-1-propanamine hydrochloride	Molality, mol/kg of L-valine	Mass density, kg/m3	uncertainty
288.15	0.025	0	1000.186	0.382
288.15	0.025	0.02001	1000.734	0.381
288.15	0.025	0.05952	1001.805	0.383
288.15	0.025	0.09988	1002.881	0.386
288.15	0.025	0.13982	1003.935	0.39
288.15	0.025	0.17091	1004.741	0.393
288.15	0.025	0.20088	1005.517	0.397
293.15	0.025	0	999.27	0.382
293.15	0.025	0.02001	999.811	0.381
293.15	0.025	0.05952	1000.868	0.383
293.15	0.025	0.09988	1001.93	0.385
293.15	0.025	0.13982	1002.969	0.389
293.15	0.025	0.17091	1003.767	0.393
293.15	0.025	0.20088	1004.532	0.394
298.15	0.025	0	998.086	0.382
298.15	0.025	0.02001	998.621	0.381
298.15	0.025	0.05952	999.665	0.382
298.15	0.025	0.09988	1000.72	0.385
298.15	0.025	0.13982	1001.748	0.388
298.15	0.025	0.17091	1002.536	0.392
298.15	0.025	0.20088	1003.294	0.393
303.15	0.025	0	996.667	0.382
303.15	0.025	0.02001	997.197	0.381
303.15	0.025	0.05952	998.233	0.382
303.15	0.025	0.09988	999.276	0.384
303.15	0.025	0.13982	1000.294	0.388
303.15	0.025	0.17091	1001.077	0.391
303.15	0.025	0.20088	1001.828	0.393
308.15	0.025	0	995.032	0.382
308.15	0.025	0.02001	995.558	0.381
308.15	0.025	0.05952	996.586	0.382
308.15	0.025	0.09988	997.62	0.384
308.15	0.025	0.13982	998.631	0.387
308.15	0.025	0.17091	999.408	0.39
308.15	0.025	0.20088	1000.151	0.394
288.15	0.05	0	1001.245	0.384
288.15	0.05	0.02023	1001.786	0.384
288.15	0.05	0.05967	1002.841	0.385
288.15	0.05	0.09993	1003.919	0.388
288.15	0.05	0.13946	1004.981	0.392
288.15	0.05	0.16946	1005.783	0.396
288.15	0.05	0.19786	1006.543	0.398
293.15	0.05	0	1000.302	0.384
293.15	0.05	0.02023	1000.836	0.383
293.15	0.05	0.05967	1001.878	0.385
293.15	0.05	0.09993	1002.941	0.387
293.15	0.05	0.13946	1003.99	0.391
293.15	0.05	0.16946	1004.783	0.395
293.15	0.05	0.19786	1005.532	0.397
298.15	0.05	0	999.096	0.383
298.15	0.05	0.02023	999.625	0.383
298.15	0.05	0.05967	1000.656	0.384
298.15	0.05	0.09993	1001.706	0.387
298.15	0.05	0.13946	1002.744	0.39
298.15	0.05	0.16946	1003.53	0.394
298.15	0.05	0.19786	1004.27	0.396
303.15	0.05	0	997.655	0.383
303.15	0.05	0.02023	998.179	0.382
303.15	0.05	0.05967	999.201	0.383
303.15	0.05	0.09993	1000.242	0.386
303.15	0.05	0.13946	1001.269	0.39
303.15	0.05	0.16946	1002.043	0.393
303.15	0.05	0.19786	1002.782	0.395
308.15	0.05	0	995.999	0.383
308.15	0.05	0.02023	996.519	0.382
308.15	0.05	0.05967	997.534	0.383
308.15	0.05	0.09993	998.566	0.386
308.15	0.05	0.13946	999.587	0.389
308.15	0.05	0.16946	1000.355	0.392
308.15	0.05	0.19786	1001.085	0.395
288.15	0.075	0	1002.26	0.387
288.15	0.075	0.01959	1002.771	0.387
288.15	0.075	0.05982	1003.829	0.388
288.15	0.075	0.09964	1004.883	0.391
288.15	0.075	0.14003	1005.968	0.395
288.15	0.075	0.16423	1006.612	0.398
288.15	0.075	0.201	1007.606	0.403
293.15	0.075	0	1001.298	0.386
293.15	0.075	0.01959	1001.803	0.385
293.15	0.075	0.05982	1002.848	0.387
293.15	0.075	0.09964	1003.89	0.39
293.15	0.075	0.14003	1004.954	0.393
293.15	0.075	0.16423	1005.593	0.397
293.15	0.075	0.201	1006.566	0.399
298.15	0.075	0	1000.07	0.385
298.15	0.075	0.01959	1000.571	0.385
298.15	0.075	0.05982	1001.605	0.386
298.15	0.075	0.09964	1002.639	0.389
298.15	0.075	0.14003	1003.689	0.392
298.15	0.075	0.16423	1004.321	0.396
298.15	0.075	0.201	1005.285	0.398
303.15	0.075	0	998.612	0.385
303.15	0.075	0.01959	999.11	0.384
303.15	0.075	0.05982	1000.138	0.385
303.15	0.075	0.09964	1001.161	0.388
303.15	0.075	0.14003	1002.203	0.392
303.15	0.075	0.16423	1002.825	0.395
303.15	0.075	0.201	1003.769	0.397
308.15	0.075	0	996.941	0.385
308.15	0.075	0.01959	997.435	0.385
308.15	0.075	0.05982	998.455	0.386
308.15	0.075	0.09964	999.469	0.388
308.15	0.075	0.14003	1000.497	0.391
308.15	0.075	0.16423	1001.12	0.394
308.15	0.075	0.201	1002.065	0.399

System: L-valine + water + 3-(10,110dihydro-5H-dibenzo[1,d]cyclohepten-5-ylidene)-N-methyl-1-propanamine hydrochloride; phases: Liquid
Fixed: Pressure, kPa = 100
Fixed: Frequency, MHz = 3
Property: Speed of sound, m/s (Liquid); method: Single path-length method
Temperature, K	Solvent: Molality, mol/kg of 3-(10,110dihydro-5H-dibenzo[1,d]cyclohepten-5-ylidene)-N-methyl-1-propanamine hydrochloride	Molality, mol/kg of L-valine	Speed of sound, m/s	uncertainty
288.15	0.025	0	1471.79	1.47
288.15	0.025	0.02001	1473.91	1.47
288.15	0.025	0.05952	1478.11	1.47
288.15	0.025	0.09988	1482.24	1.48
288.15	0.025	0.13982	1486.2	1.5
288.15	0.025	0.17091	1489.71	1.51
288.15	0.025	0.20088	1492.79	1.53
293.15	0.025	0	1487.4	1.47
293.15	0.025	0.02001	1489.4	1.47
293.15	0.025	0.05952	1493.34	1.47
293.15	0.025	0.09988	1497.34	1.48
293.15	0.025	0.13982	1501.26	1.49
293.15	0.025	0.17091	1504.42	1.51
293.15	0.025	0.20088	1507.37	1.5
298.15	0.025	0	1501.22	1.47
298.15	0.025	0.02001	1503.13	1.47
298.15	0.025	0.05952	1506.92	1.47
298.15	0.025	0.09988	1510.74	1.48
298.15	0.025	0.13982	1514.49	1.49
298.15	0.025	0.17091	1517.48	1.5
298.15	0.025	0.20088	1520.29	1.5
303.15	0.025	0	1513.23	1.47
303.15	0.025	0.02001	1515.06	1.47
303.15	0.025	0.05952	1518.67	1.47
303.15	0.025	0.09988	1522.32	1.48
303.15	0.025	0.13982	1525.96	1.49
303.15	0.025	0.17091	1528.79	1.5
303.15	0.025	0.20088	1531.43	1.5
308.15	0.025	0	1523.56	1.47
308.15	0.025	0.02001	1525.31	1.47
308.15	0.025	0.05952	1528.77	1.47
308.15	0.025	0.09988	1532.26	1.48
308.15	0.025	0.13982	1535.77	1.49
308.15	0.025	0.17091	1538.44	1.5
308.15	0.025	0.20088	1540.98	1.51
288.15	0.05	0	1475.89	1.47
288.15	0.05	0.02023	1477.96	1.47
288.15	0.05	0.05967	1482.04	1.48
288.15	0.05	0.09993	1486.23	1.49
288.15	0.05	0.13946	1490.47	1.5
288.15	0.05	0.16946	1493.27	1.51
288.15	0.05	0.19786	1496.2	1.51
293.15	0.05	0	1491.2	1.47
293.15	0.05	0.02023	1493.18	1.47
293.15	0.05	0.05967	1497.12	1.48
293.15	0.05	0.09993	1501.14	1.49
293.15	0.05	0.13946	1505.31	1.5
293.15	0.05	0.16946	1507.88	1.51
293.15	0.05	0.19786	1510.77	1.5
298.15	0.05	0	1504.84	1.47
298.15	0.05	0.02023	1506.76	1.47
298.15	0.05	0.05967	1510.53	1.48
298.15	0.05	0.09993	1514.32	1.48
298.15	0.05	0.13946	1518.35	1.49
298.15	0.05	0.16946	1520.83	1.5
298.15	0.05	0.19786	1523.52	1.5
303.15	0.05	0	1516.65	1.47
303.15	0.05	0.02023	1518.49	1.47
303.15	0.05	0.05967	1522.12	1.47
303.15	0.05	0.09993	1525.72	1.48
303.15	0.05	0.13946	1529.64	1.49
303.15	0.05	0.16946	1532.01	1.5
303.15	0.05	0.19786	1534.55	1.5
308.15	0.05	0	1526.79	1.47
308.15	0.05	0.02023	1528.56	1.47
308.15	0.05	0.05967	1532.04	1.47
308.15	0.05	0.09993	1535.45	1.48
308.15	0.05	0.13946	1539.27	1.49
308.15	0.05	0.16946	1541.48	1.49
308.15	0.05	0.19786	1543.94	1.5
288.15	0.075	0	1478.35	1.47
288.15	0.075	0.01959	1480.35	1.47
288.15	0.075	0.05982	1484.5	1.48
288.15	0.075	0.09964	1488.74	1.49
288.15	0.075	0.14003	1492.88	1.5
288.15	0.075	0.16423	1495.38	1.51
288.15	0.075	0.201	1498.82	1.52
293.15	0.075	0	1493.65	1.47
293.15	0.075	0.01959	1495.55	1.47
293.15	0.075	0.05982	1499.51	1.48
293.15	0.075	0.09964	1503.57	1.49
293.15	0.075	0.14003	1507.51	1.49
293.15	0.075	0.16423	1509.89	1.51
293.15	0.075	0.201	1513.37	1.5
298.15	0.075	0	1507.24	1.47
298.15	0.075	0.01959	1509.05	1.47
298.15	0.075	0.05982	1512.8	1.48
298.15	0.075	0.09964	1516.67	1.48
298.15	0.075	0.14003	1520.43	1.49
298.15	0.075	0.16423	1522.7	1.5
298.15	0.075	0.201	1525.99	1.5
303.15	0.075	0	1519.01	1.47
303.15	0.075	0.01959	1520.7	1.47
303.15	0.075	0.05982	1524.3	1.47
303.15	0.075	0.09964	1527.99	1.48
303.15	0.075	0.14003	1531.58	1.49
303.15	0.075	0.16423	1533.75	1.5
303.15	0.075	0.201	1536.95	1.5
308.15	0.075	0	1529.06	1.47
308.15	0.075	0.01959	1530.71	1.47
308.15	0.075	0.05982	1534.12	1.48
308.15	0.075	0.09964	1537.65	1.48
308.15	0.075	0.14003	1541.1	1.49
308.15	0.075	0.16423	1543.18	1.5
308.15	0.075	0.201	1546.29	1.51

System: water + 3-(10,110dihydro-5H-dibenzo[1,d]cyclohepten-5-ylidene)-N-methyl-1-propanamine hydrochloride; phases: Liquid
Fixed: Pressure, kPa = 100
Property: Mass density, kg/m3 (Liquid); method: Vibrating tube method
Temperature, K	Molality, mol/kg of 3-(10,110dihydro-5H-dibenzo[1,d]cyclohepten-5-ylidene)-N-methyl-1-propanamine hydrochloride	Mass density, kg/m3	uncertainty
288.15	0.025	1000.186	0.382
293.15	0.025	999.27	0.383
298.15	0.025	998.086	0.383
303.15	0.025	996.667	0.383
308.15	0.025	995.032	0.382
288.15	0.05	1001.245	0.385
293.15	0.05	1000.302	0.384
298.15	0.05	999.096	0.384
303.15	0.05	997.655	0.384
308.15	0.05	995.999	0.383
288.15	0.075	1002.26	0.388
293.15	0.075	1001.298	0.386
298.15	0.075	1000.07	0.386
303.15	0.075	998.612	0.386
308.15	0.075	996.941	0.386

System: water + 3-(10,110dihydro-5H-dibenzo[1,d]cyclohepten-5-ylidene)-N-methyl-1-propanamine hydrochloride; phases: Liquid
Fixed: Pressure, kPa = 100
Fixed: Frequency, MHz = 3
Property: Speed of sound, m/s (Liquid); method: Single path-length method
Temperature, K	Molality, mol/kg of 3-(10,110dihydro-5H-dibenzo[1,d]cyclohepten-5-ylidene)-N-methyl-1-propanamine hydrochloride	Speed of sound, m/s	uncertainty
288.15	0.025	1471.79	1.47
293.15	0.025	1487.4	1.47
298.15	0.025	1501.22	1.47
303.15	0.025	1513.23	1.47
308.15	0.025	1523.56	1.47
288.15	0.05	1475.89	1.47
293.15	0.05	1491.2	1.47
298.15	0.05	1504.84	1.47
303.15	0.05	1516.65	1.47
308.15	0.05	1526.79	1.47
288.15	0.075	1478.35	1.47
293.15	0.075	1493.65	1.47
298.15	0.075	1507.24	1.47
303.15	0.075	1519.01	1.47
308.15	0.075	1529.06	1.47
