Measured thermophysical data. Standard molar enthalpies of formation of hydroxy-, chlor-, and bromapatite
Source: J. Chem. Thermodyn., 2005, 10.1016/j.jct.2005.01.010
Compound 1: calcium, Ca, InChI=1S/Ca
Compound 2: phosphorus, P, InChI=1S/P
Compound 3: chlorine, Cl2, InChI=1S/Cl2/c1-2
Compound 4: oxygen, O2, InChI=1S/O2/c1-2
Compound 5: hydrogen, H2, InChI=1S/H2/h1H
Compound 6: bromine, Br2, InChI=1S/Br2/c1-2
Compound 7: bromapatite, BrCa5O12P3, InChI=1S/BrH.5Ca.3H3O4P/c;;;;;;3*1-5(2,3)4/h1H;;;;;;3*(H3,1,2,3,4)/q;5*+2;;;/p-10
Compound 8: chlorapatite, Ca5ClO12P3, InChI=1S/5Ca.ClH.3H3O4P/c;;;;;;3*1-5(2,3)4/h;;;;;1H;3*(H3,1,2,3,4)/q5*+2;;;;/p-10
Compound 9: hydroxyapatite, Ca5HO13P3, InChI=1S/5Ca.3H3O4P.H2O/c;;;;;3*1-5(2,3)4;/h;;;;;3*(H3,1,2,3,4);1H2/q5*+2;;;;/p-10

Reaction: -5 calcium + -3 phosphorus + -.5 chlorine + 1 chlorapatite + -6 oxygen
Property: Molar enthalpy of reaction, kJ/mol
-6615.5

Reaction: -5 calcium + -3 phosphorus + 1 hydroxyapatite + -.5 hydrogen + -6.5 oxygen
Property: Molar enthalpy of reaction, kJ/mol
-6699.5

Reaction: -5 calcium + -3 phosphorus + -.5 bromine + 1 bromapatite + -6 oxygen
Property: Molar enthalpy of reaction, kJ/mol
-6531.5
