Measured thermophysical data. Thermodynamic properties of three-ring aza-aromatics. 1. Experimental results for phenazine and acridine, and mutual validation of experiments and computational methods
Source: J. Chem. Thermodyn., 2010, 10.1016/j.jct.2009.11.010
Compound 1: carbon dioxide, CO2, InChI=1S/CO2/c2-1-3
Compound 2: nitrogen, N2, InChI=1S/N2/c1-2
Compound 3: water, H2O, InChI=1S/H2O/h1H2
Compound 4: oxygen, O2, InChI=1S/O2/c1-2
Compound 5: phenazine, C12H8N2, InChI=1S/C12H8N2/c1-2-6-10-9(5-1)13-11-7-3-4-8-12(11)14-10/h1-8H
Compound 6: acridine, C13H9N, InChI=1S/C13H9N/c1-3-7-12-10(5-1)9-11-6-2-4-8-13(11)14-12/h1-9H

System: phenazine; phases: Crystal, Liquid, Gas
Property: Molar enthalpy of transition or fusion, kJ/mol (Crystal); method: Adiabatic calorimetry
Molar enthalpy of transition or fusion, kJ/mol	uncertainty
24.92	0.026

System: phenazine; phases: Crystal, Liquid, Gas
Property: Triple point temperature, K (Crystal); method: Adiabatic calorimetry
Triple point temperature, K	uncertainty
447.91	0.05

System: phenazine; phases: Crystal
Fixed: Pressure, kPa = 101.325
Property: Molar heat capacity at constant pressure, J/K/mol (Crystal); method: Vacuum adiabatic calorimetry
Temperature, K	Molar heat capacity at constant pressure, J/K/mol	uncertainty
5	0.38	0.02
10	2.76	0.03
20	13.34	0.091
30	25.08	0.091
40	35.19	0.108
50	43.5	0.125
60	50.49	0.141
70	56.66	0.158
80	62.3	0.166
90	67.8	0.266
100	73.23	0.274
120	84.226	0.283
140	95.766	0.299
160	107.87	0.308
180	120.51	0.324
200	133.66	0.333
220	147.13	0.349
240	160.98	0.358
260	175.01	0.374
280	188.99	0.391
298.15	201.63	0.399
300	202.93	0.399
320	216.89	0.416
340	230.56	0.432
360	244.06	0.441
380	257.36	0.457
400	270.46	0.474
420	283.41	0.482
440	296.01	0.499
447.91	300.87	0.499

System: phenazine; phases: Liquid
Fixed: Pressure, kPa = 101.325
Property: Molar heat capacity at constant pressure, J/K/mol (Liquid); method: Vacuum adiabatic calorimetry
Temperature, K	Molar heat capacity at constant pressure, J/K/mol	uncertainty
447.91	331.96	0.532
460	337	0.54
480	345.14	0.549
500	353.07	0.557
520	360.67	0.557

System: phenazine; phases: Crystal, Gas
Property: Molar heat capacity at saturation pressure, J/K/mol (Crystal); method: Vacuum adiabatic calorimetry
Temperature, K	Molar heat capacity at saturation pressure, J/K/mol	uncertainty
6.135	0.71	0.02
7.091	1.09	0.02
8.146	1.57	0.02
9.073	2.09	0.03
9.999	2.77	0.03
11.102	3.68	0.04
12.322	4.78	0.05
13.682	6.14	0.06
15.187	7.78	0.07
16.849	9.645	0.07
18.691	11.81	0.083
20.748	14.23	0.091
23.037	16.99	0.1
25.576	20	0.1
28.4	23.28	0.1
31.539	26.77	0.1
35.036	30.43	0.1
38.95	34.21	0.108
43.295	38.1	0.116
48.116	42.05	0.125
52.695	45.41	0.133
53.493	46.07	0.133
57.627	48.91	0.141
59.456	50.14	0.141
63.445	52.68	0.15
69.824	56.56	0.15
76.908	60.58	0.158
84.708	64.9	0.166
93.407	69.64	0.266
102.689	74.69	0.274
112.244	79.93	0.283
121.981	85.34	0.283
131.776	90.96	0.291
141.715	96.78	0.299
148.266	100.69	0.299
151.74	102.79	0.299
156.995	106	0.308
161.795	108.99	0.308
166.828	112.14	0.316
176.792	118.44	0.316
186.877	124.97	0.324
197.06	131.7	0.333
207.289	138.54	0.341
217.545	145.45	0.349
227.79	152.5	0.349
238.017	159.59	0.358
248.227	166.76	0.366
258.428	173.9	0.374
268.615	181.08	0.382
278.794	188.12	0.391
288.975	195.25	0.399
292.446	197.59	0.399
299.09	202.31	0.399
303.138	205.11	0.407
315.256	213.62	0.416
327.337	221.93	0.424
339.579	230.27	0.432
341.216	231.31	0.432
351.334	238.27	0.441
362.676	245.89	0.449
375.174	254.22	0.457
383.735	259.84	0.457
387.733	262.47	0.466
394.217	266.7	0.466
400.353	270.7	0.474
404.56	273.47	0.474
413.041	278.97	0.482
415.929	280.86	0.482
426.292	287.62	0.491
428.384	288.92	0.491
438.378	296.29	0.499
439.144	296.66	0.499

System: phenazine; phases: Liquid, Gas
Property: Molar heat capacity at saturation pressure, J/K/mol (Liquid); method: Vacuum adiabatic calorimetry
Temperature, K	Molar heat capacity at saturation pressure, J/K/mol	uncertainty
453.293	334.17	0.532
455.836	335.26	0.532
456.632	335.61	0.532
460.6	337.14	0.54
461.493	337.63	0.54
475.449	343.31	0.54
490.192	349.18	0.549
504.279	354.75	0.557
510.363	357.26	0.557
516.76	359.48	0.557

System: phenazine; phases: Crystal, Gas
Property: Molar enthalpy function {Hm(T)-Hm(0)}/T, J/K/mol (Crystal); method: Vacuum adiabatic calorimetry
Temperature, K	Molar enthalpy function {Hm(T)-Hm(0)}/T, J/K/mol	uncertainty
5	0.091	0.008
10	0.73	0.02
20	4.23	0.03
30	9.254	0.06
40	14.52	0.07
50	19.51	0.083
60	24.1	0.091
70	28.32	0.1
80	32.22	0.108
90	35.87	0.233
100	39.34	0.241
120	45.9	0.249
140	52.19	0.249
160	58.38	0.258
180	64.58	0.266
200	70.83	0.274
220	77.15	0.274
240	83.56	0.283
260	90.054	0.291
280	96.622	0.299
298.15	102.63	0.299
300	103.24	0.299
320	109.91	0.308
340	116.61	0.316
360	123.31	0.324
380	130.02	0.333
400	136.71	0.341
420	143.39	0.341
440	150.04	0.349
447.91	152.66	0.349

System: phenazine; phases: Liquid, Gas
Property: Molar enthalpy function {Hm(T)-Hm(0)}/T, J/K/mol (Liquid); method: Vacuum adiabatic calorimetry
Temperature, K	Molar enthalpy function {Hm(T)-Hm(0)}/T, J/K/mol	uncertainty
447.91	208.3	0.407
460	211.62	0.416
480	217.02	0.416
500	222.3	0.424
520	227.48	0.424

System: phenazine; phases: Crystal, Gas
Property: Vapor or sublimation pressure, kPa (Crystal); method: Inclined piston gauge
Temperature, K	Vapor or sublimation pressure, kPa	uncertainty
389.948	0.0331	0.001
400.01	0.0682	0.0011
409.995	0.1346	0.0012
420.004	0.2572	0.0013
429.997	0.476	0.0015

System: phenazine; phases: Liquid, Gas
Property: Vapor or sublimation pressure, kPa (Liquid); method: Inclined piston gauge
Temperature, K	Vapor or sublimation pressure, kPa	uncertainty
449.964	1.4439	0.0027
454.968	1.7539	0.0031
460.062	2.1267	0.0035
464.964	2.5481	0.004
469.957	3.0497	0.0045
469.961	3.0497	0.0045
471.96	3.2732	0.0048

System: phenazine; phases: Crystal, Gas
Property: Molar entropy, J/K/mol (Crystal); method: Vacuum adiabatic calorimetry
Temperature, K	Molar entropy, J/K/mol	uncertainty
5	0.13	0.02
10	0.981	0.02
20	5.92	0.07
30	13.58	0.1
40	22.22	0.125
50	31	0.158
60	39.57	0.183
70	47.82	0.208
80	55.76	0.224
90	63.41	0.399
100	70.84	0.407
120	85.157	0.424
140	99	0.449
160	112.57	0.466
180	126.01	0.491
200	139.38	0.507
220	152.75	0.532
240	166.14	0.549
260	179.58	0.574
280	193.06	0.59
298.15	205.33	0.607
300	206.57	0.607
320	220.12	0.632
340	233.68	0.649
360	247.24	0.673
380	260.79	0.69
400	274.33	0.715
420	287.84	0.732
440	301.32	0.748
447.91	306.63	0.757

System: phenazine; phases: Liquid, Gas
Property: Molar entropy, J/K/mol (Liquid); method: Vacuum adiabatic calorimetry
Temperature, K	Molar entropy, J/K/mol	uncertainty
447.91	362.27	0.8398
460	371.17	0.8564
480	385.69	0.8813
500	399.94	0.898
520	413.94	0.9229

System: acridine; phases: Liquid, Gas
Property: Molar heat capacity at saturation pressure, J/K/mol (Liquid); method: SDSC:UFactor:0.5
Temperature, K	Molar heat capacity at saturation pressure, J/K/mol	uncertainty
460	343.6	3.409
480	352.2	3.492
500	360.6	3.575
520	368.7	3.658
540	376.4	3.742
560	383.8	3.825
580	390.8	3.908
600	397.3	3.991

System: acridine; phases: Liquid, Gas
Property: Mass density, kg/m3 (Liquid); method: Vibrating tube method
Temperature, K	Mass density, kg/m3	uncertainty
423.15	1064.9	1.1
448.15	1043.7	1
473.15	1023.9	1
498.15	1005.1	1
523.15	985.4	1
548.15	964.8	1

Reaction: -1 phenazine + 12 carbon dioxide + 1 nitrogen + 4 water + -14 oxygen
Property: Specific internal energy of reaction at constant volume, J/g
-33842.7
