Measured thermophysical data. Liquid range of ionic liquid - Metal salt mixtures for electrochemical applications
Source: J. Chem. Thermodyn., 2019, 10.1016/j.jct.2019.03.012
Compound 1: ethylammonium nitrate, C2H8N2O3, InChI=1S/C2H7N.NO3/c1-2-3;2-1(3)4/h2-3H2,1H3;/q;-1/p+1, purity 99.9%
Compound 2: lithium nitrate, LiNO3, InChI=1S/Li.NO3/c;2-1(3)4/q+1;-1, purity 99.9%
Compound 3: calcium nitrate, CaN2O6, InChI=1S/Ca.2NO3/c;2*2-1(3)4/q+2;2*-1, purity 99.9%
Compound 4: magnesium nitrate, MgN2O6, InChI=1S/Mg.2NO3/c;2*2-1(3)4/q+2;2*-1, purity 99.9%
Compound 5: aluminum trinitrate, AlN3O9, InChI=1S/Al.3NO3/c;3*2-1(3)4/q+3;3*-1, purity 99.9%
Compound 6: water, H2O, InChI=1S/H2O/h1H2, purity 99.9%

System: ethylammonium nitrate; phases: Glass, Liquid, Air at 1 atmosphere
Property: Triple point temperature, K (Glass); method: DSC
Triple point temperature, K	uncertainty
232.15	6

System: ethylammonium nitrate; phases: Crystal 1, Liquid, Air at 1 atmosphere
Property: Triple point temperature, K (Crystal 1); method: DSC
Triple point temperature, K	uncertainty
285.15	6

System: ethylammonium nitrate; phases: Crystal 1, Liquid, Air at 1 atmosphere
Property: Molar enthalpy of transition or fusion, kJ/mol (Crystal 1); method: DSC
Molar enthalpy of transition or fusion, kJ/mol	uncertainty
13.1877852	0.6485796

System: ethylammonium nitrate + lithium nitrate; phases: Liquid, Crystal of unknown type
Fixed: Pressure, kPa = 100.8
Property: Solid-liquid equilibrium temperature, K (Liquid); method: DTA
Molality, mol/kg of lithium nitrate	Solid-liquid equilibrium temperature, K	uncertainty
0	285.15	6
0.1	281.15	6
0.999	268.15	6

System: ethylammonium nitrate + calcium nitrate + water; phases: Liquid, Crystal of unknown type
Fixed: Pressure, kPa = 100.8
Property: Solid-liquid equilibrium temperature, K (Liquid); method: DTA
Molality, mol/kg of calcium nitrate	Molality, mol/kg of water	Solid-liquid equilibrium temperature, K	uncertainty
0	0	285.15	6
0.1	0.4	281.15	6
0.75	2.998	279.15	6

System: ethylammonium nitrate + magnesium nitrate + water; phases: Liquid, Crystal of unknown type
Fixed: Pressure, kPa = 100.8
Property: Solid-liquid equilibrium temperature, K (Liquid); method: DTA
Molality, mol/kg of magnesium nitrate	Molality, mol/kg of water	Solid-liquid equilibrium temperature, K	uncertainty
0	0	285.15	6
0.1	0.6	279.15	6
1	5.995	264.15	6

System: ethylammonium nitrate + aluminum trinitrate + water; phases: Liquid, Crystal of unknown type
Fixed: Pressure, kPa = 100.8
Property: Solid-liquid equilibrium temperature, K (Liquid); method: DTA
Molality, mol/kg of aluminum trinitrate	Molality, mol/kg of water	Solid-liquid equilibrium temperature, K	uncertainty
0	0	285.15	6
0.1	0.899	280.15	6
1	8.993	274.15	6
