Measured thermophysical data. Phase behaviour of the system 4'-pentyloxy-4-cyanobiphenyl + CO2
Source: J. Chem. Thermodyn., 2013, 10.1016/j.jct.2012.11.026
Compound 1: 4'-pentoxy-4-cyanobiphenyl, C18H19NO, InChI=1S/C18H19NO/c1-2-3-4-13-20-18-11-9-17(10-12-18)16-7-5-15(14-19)6-8-16/h5-12H,2-4,13H2,1H3, purity 99.9%
Compound 2: carbon dioxide, CO2, InChI=1S/CO2/c2-1-3

System: 4'-pentoxy-4-cyanobiphenyl; phases: Crystal, Nematic liquid crystal
Property: Solid-liquid equilibrium temperature, K (Crystal); method: VISOBS
Pressure, kPa	Solid-liquid equilibrium temperature, K	uncertainty
399	326.84	0.19
1399	327.21	0.21
4401	328.2	0.23
3001	327.72	0.23
2400	327.52	0.22
3400	327.86	0.23
5401	328.54	0.24
6402	328.84	0.24
7403	329.23	0.25
8403	329.55	0.25
9405	329.86	0.25
10005	330.08	0.26

System: 4'-pentoxy-4-cyanobiphenyl; phases: Nematic liquid crystal, Liquid
Property: Liquid-liquid equilibrium temperature, K (Nematic liquid crystal); method: VISOBS
Pressure, kPa	Liquid-liquid equilibrium temperature, K	uncertainty
399	341.58	0.19
1399	341.96	0.21
2400	342.38	0.23
3401	342.75	0.23
3901	342.91	0.24
4401	343.13	0.24
4902	343.32	0.24
5402	343.51	0.25
6403	343.9	0.25
7404	344.3	0.26
8404	344.7	0.26
9405	345.1	0.27
10005	345.33	0.27

System: carbon dioxide + 4'-pentoxy-4-cyanobiphenyl; phases: Liquid, Gas
Property: Boiling temperature at pressure P, K (Liquid); method: Closed cell (Static) method
Mole fraction of carbon dioxide	Pressure, kPa	Boiling temperature at pressure P, K	uncertainty
0.057	829	344.11	2.18
0.057	864	348.92	2.07
0.057	898	354.05	2.28
0.057	923	358.31	2.19
0.057	963	364.01	2.05
0.057	798	338.85	2.48
0.057	783	336.12	2.49
0.159	2066	328.26	0.73
0.159	2283	338.25	0.72
0.159	2717	358.24	0.75
0.159	2932	368.31	0.77
0.159	2039	326.97	0.73
0.159	2039	326.88	0.78
0.159	2031	326.24	0.88
0.241	3017	318.43	0.51
0.241	3177	323.34	0.5
0.241	3353	328.3	0.48
0.241	3534	333.3	0.48
0.241	3716	338.3	0.48
0.241	3904	343.35	0.49
0.241	4088	348.39	0.49
0.241	4274	353.21	0.5
0.241	4452	358.16	0.53
0.241	4635	363.21	0.53
0.241	4817	368.22	0.54
0.241	3020	318.43	0.52
0.241	3184	323.39	0.5
0.329	4522	323.45	0.26
0.329	4794	328.4	0.34
0.329	5086	333.47	0.28
0.329	5649	343.38	0.38
0.329	5940	348.49	0.39
0.329	6225	353.47	0.4
0.329	6503	358.42	0.41
0.329	5365	338.44	0.37
0.329	6788	363.45	0.42
0.329	7071	368.37	0.43
0.329	4260	318.55	0.42
0.329	3994	313.49	0.33
0.329	3734	308.5	0.39
0.329	3626	306.02	0.83
0.329	3646	306.49	0.83
0.4	6687	333.35	0.31
0.4	7077	338.36	0.31
0.4	7478	343.37	0.32
0.4	7868	348.26	0.33
0.4	8263	353.19	0.34
0.4	8683	358.4	0.36
0.4	6268	328.32	0.2
0.4	9069	363.37	0.38
0.4	9465	368.41	0.39
0.4	5512	318.39	0.33
0.4	5128	313.46	0.27
0.4	4761	308.44	0.27
0.4	4404	303.47	0.28
0.4	5879	323.38	0.38
0.4	3940	296.52	0.25
0.4	3895	295.75	0.31
0.4	4091	298.52	0.27
0.4	4018	297.46	0.24
0.497	7614	328.58	0.25
0.497	8095	333.26	0.27
0.497	8630	338.45	0.06
0.497	5478	306.82	0.22
0.497	5618	308.27	0.23
0.497	6093	313.32	0.24
0.497	6569	318.26	0.24
0.497	7079	323.35	0.25
0.497	8612	338.42	0.06
0.497	9158	343.48	0.29
0.497	9678	348.46	0.3
