Measured thermophysical data. Effect of sodium acetate on the volumetric behaviour of some mono-, di-, and tri-saccharides in aqueous solutions over temperature range (288.15 to 318.15) K
Source: J. Chem. Thermodyn., 2010, 10.1016/j.jct.2009.07.015
Compound 1: D-ribose, C5H10O5, InChI=1S/C5H10O5/c6-1-3(8)5(10)4(9)2-7/h1,3-5,7-10H,2H2/t3-,4+,5-/m0/s1, purity 99%
Compound 2: D-xylose, C5H10O5, InChI=1S/C5H10O5/c6-1-3(8)5(10)4(9)2-7/h1,3-5,7-10H,2H2/t3-,4+,5+/m0/s1, purity 99%
Compound 3: D-(-)-arabinose, C5H10O5, InChI=1S/C5H10O5/c6-1-3(8)5(10)4(9)2-7/h1,3-5,7-10H,2H2/t3-,4-,5+/m1/s1, purity 99%
Compound 4: L-sorbose, C6H12O6, InChI=1S/C6H12O6/c7-1-3(9)5(11)6(12)4(10)2-8/h3,5-9,11-12H,1-2H2/t3-,5+,6+/m0/s1, purity 98%
Compound 5: (+)-galactose, C6H12O6, InChI=1S/C6H12O6/c7-1-3(9)5(11)6(12)4(10)2-8/h1,3-6,8-12H,2H2/t3-,4+,5+,6-/m0/s1, purity 98%
Compound 6: D-glucose, C6H12O6, InChI=1S/C6H12O6/c7-1-3(9)5(11)6(12)4(10)2-8/h1,3-6,8-12H,2H2/t3-,4+,5+,6+/m0/s1, purity 99%
Compound 7: D-fructose, C6H12O6, InChI=1S/C6H12O6/c7-1-3(9)5(11)6(12)4(10)2-8/h3,5-9,11-12H,1-2H2/t3-,5-,6-/m1/s1, purity 99%
Compound 8: D-cellobiose, C12H22O11, InChI=1S/C12H22O11/c13-1-3-5(15)6(16)9(19)12(22-3)23-10-4(2-14)21-11(20)8(18)7(10)17/h3-20H,1-2H2/t3-,4-,5-,6+,7-,8-,9-,10-,11-,12+/m1/s1, purity 98%
Compound 9: D-(+)-maltose monohydrate, C12H24O12, InChI=1S/C12H22O11.H2O/c13-1-3-5(15)6(16)9(19)12(22-3)23-10-4(2-14)21-11(20)8(18)7(10)17;/h3-20H,1-2H2;1H2/t3-,4-,5-,6+,7-,8-,9-,10-,11-,12-;/m1./s1, purity 95%
Compound 10: D-raffinose, pentahydrate, C18H42O21, InChI=1S/C18H32O16.5H2O/c19-1-5-8(22)11(25)13(27)16(31-5)30-3-7-9(23)12(26)14(28)17(32-7)34-18(4-21)15(29)10(24)6(2-20)33-18;;;;;/h5-17,19-29H,1-4H2;5*1H2/t5-,6-,7-,8+,9-,10-,11+,12+,13-,14-,15+,16+,17-,18+;;;;;/m1...../s1, purity 99%
Compound 11: D-mannose, C6H12O6, InChI=1S/C6H12O6/c7-1-3(9)5(11)6(12)4(10)2-8/h1,3-6,8-12H,2H2/t3-,4-,5-,6-/m1/s1, purity 99%
Compound 12: D-sucrose, C12H22O11, InChI=1S/C12H22O11/c13-1-4-6(16)8(18)9(19)11(21-4)23-12(3-15)10(20)7(17)5(2-14)22-12/h4-11,13-20H,1-3H2/t4-,5-,6-,7-,8+,9-,10+,11-,12+/m1/s1, purity 99%
Compound 13: 4-O-.beta.-D-galactopyranosyl-D-glucose hydrate (1:1), C12H24O12, InChI=1S/C12H22O11.H2O/c13-1-4(16)7(18)11(5(17)2-14)23-12-10(21)9(20)8(19)6(3-15)22-12;/h1,4-12,14-21H,2-3H2;1H2/t4-,5+,6+,7+,8-,9-,10+,11+,12-;/m0./s1, purity 99%
Compound 14: 6-.alpha.-D-galactopyranosyl-D-glucopyranose, C12H22O11, InChI=1S/C12H22O11/c13-1-3-5(14)8(17)10(19)12(23-3)21-2-4-6(15)7(16)9(18)11(20)22-4/h3-20H,1-2H2/t3-,4-,5+,6-,7+,8+,9-,10-,11-,12+/m1/s1, purity 99%
Compound 15: D-(+)-trehalose dihydrate, C12H26O13, InChI=1S/C12H22O11.2H2O/c13-1-3-5(15)7(17)9(19)11(21-3)23-12-10(20)8(18)6(16)4(2-14)22-12;;/h3-20H,1-2H2;2*1H2/t3-,4-,5-,6-,7+,8+,9-,10-,11-,12-;;/m1../s1, purity 99%
Compound 16: O-.alpha.-glucopyranosyl-(1,3)-O-.beta.-D- fructofuranosyl-(2,1)-.alpha.-D-glucopyranoside, C18H32O16, InChI=1S/C18H32O16/c19-1-5-8(23)11(26)13(28)16(30-5)32-15-10(25)7(3-21)33-18(15,4-22)34-17-14(29)12(27)9(24)6(2-20)31-17/h5-17,19-29H,1-4H2/t5-,6-,7-,8-,9-,10-,11+,12+,13-,14-,15+,16-,17-,18+/m1/s1, purity 99%
Compound 17: sodium acetate trihydrate, C2H9NaO5, InChI=1S/C2H4O2.Na.3H2O/c1-2(3)4;;;;/h1H3,(H,3,4);;3*1H2/q;+1;;;/p-1, purity 99%
Compound 18: water, H2O, InChI=1S/H2O/h1H2

System: sodium acetate trihydrate + water; phases: Liquid
Fixed: Pressure, kPa = 101.3
Property: Mass density, kg/m3 (Liquid); method: Vibrating tube method
Temperature, K	Molality, mol/kg of sodium acetate trihydrate	Mass density, kg/m3	uncertainty
288.15	0	999.129	0.057
288.15	0.5	1019.351	0.064
288.15	1	1037.214	0.072
288.15	2	1067.841	0.094
288.15	3	1092.875	0.114
298.15	0	997.047	0.057
298.15	0.5	1016.746	0.064
298.15	1	1034.689	0.071
298.15	2	1062.037	0.093
298.15	3	1090.057	0.115
308.15	0	994.063	0.059
308.15	0.5	1013.546	0.063
308.15	1	1030.451	0.069
308.15	2	1056.99	0.09
308.15	3	1083.269	0.113
318.15	0	990.244	0.059
318.15	0.5	1009.511	0.063
318.15	1	1026.355	0.07
318.15	2	1052.017	0.088
318.15	3	1076.496	0.11

System: D-xylose + sodium acetate trihydrate + water; phases: Liquid
Fixed: Pressure, kPa = 101.3
Property: Mass density, kg/m3 (Liquid); method: Vibrating tube method
Temperature, K	Molality, mol/kg of sodium acetate trihydrate	Molality, mol/kg of D-xylose	Mass density, kg/m3	uncertainty
288.15	0	0.04967	1001.839	0.058
288.15	0	0.06953	1002.906	0.058
288.15	0	0.08906	1003.948	0.059
288.15	0	0.09915	1004.484	0.059
288.15	0.5	0.04475	1021.765	0.065
288.15	0.5	0.05492	1022.309	0.065
288.15	0.5	0.07012	1023.12	0.064
288.15	0.5	0.0895	1024.147	0.067
288.15	0.5	0.09978	1024.688	0.067
288.15	1	0.04512	1039.596	0.075
288.15	1	0.05472	1040.098	0.074
288.15	1	0.06843	1040.813	0.074
288.15	1	0.08965	1041.912	0.075
288.15	1	0.09946	1042.417	0.075
288.15	2	0.0446	1070.114	0.098
288.15	2	0.05535	1070.657	0.097
288.15	2	0.06957	1071.371	0.097
288.15	2	0.09	1072.392	0.097
288.15	2	0.09921	1072.848	0.098
288.15	3	0.04495	1095.098	0.116
288.15	3	0.05497	1095.587	0.116
288.15	3	0.07008	1096.324	0.117
288.15	3	0.08975	1097.277	0.118
288.15	3	0.09922	1097.733	0.118
298.15	0	0.04967	999.732	0.057
298.15	0	0.06953	1000.792	0.057
298.15	0	0.08906	1001.823	0.058
298.15	0	0.09915	1002.356	0.058
298.15	0.5	0.04475	1019.127	0.065
298.15	0.5	0.05492	1019.662	0.065
298.15	0.5	0.07012	1020.461	0.063
298.15	0.5	0.0895	1021.473	0.066
298.15	0.5	0.09978	1022.007	0.066
298.15	1	0.04512	1037.036	0.075
298.15	1	0.05472	1037.53	0.073
298.15	1	0.06843	1038.235	0.073
298.15	1	0.08965	1039.319	0.073
298.15	1	0.09946	1039.816	0.074
298.15	2	0.0446	1064.276	0.094
298.15	2	0.05535	1064.81	0.095
298.15	2	0.06957	1065.515	0.095
298.15	2	0.09	1066.519	0.096
298.15	2	0.09921	1066.97	0.096
298.15	3	0.04495	1092.219	0.117
298.15	3	0.05497	1092.693	0.117
298.15	3	0.07008	1093.408	0.117
298.15	3	0.08975	1094.331	0.118
298.15	3	0.09922	1094.772	0.118
308.15	0	0.04967	996.734	0.059
308.15	0	0.06953	997.789	0.058
308.15	0	0.08906	998.822	0.058
308.15	0	0.09915	999.352	0.058
308.15	0.5	0.04475	1015.906	0.063
308.15	0.5	0.05492	1016.437	0.063
308.15	0.5	0.07012	1017.227	0.062
308.15	0.5	0.0895	1018.228	0.065
308.15	0.5	0.09978	1018.755	0.065
308.15	1	0.04512	1032.767	0.072
308.15	1	0.05472	1033.254	0.071
308.15	1	0.06843	1033.946	0.071
308.15	1	0.08965	1035.013	0.072
308.15	1	0.09946	1035.503	0.072
308.15	2	0.0446	1059.199	0.091
308.15	2	0.05535	1059.727	0.092
308.15	2	0.06957	1060.422	0.092
308.15	2	0.09	1061.417	0.093
308.15	2	0.09921	1061.862	0.093
308.15	3	0.04495	1085.4	0.115
308.15	3	0.05497	1085.869	0.115
308.15	3	0.07008	1086.574	0.115
308.15	3	0.08975	1087.485	0.116
308.15	3	0.09922	1087.923	0.116
318.15	0	0.04967	992.892	0.059
318.15	0	0.06953	993.938	0.059
318.15	0	0.08906	994.958	0.059
318.15	0	0.09915	995.482	0.059
318.15	0.5	0.04475	1011.851	0.062
318.15	0.5	0.05492	1012.377	0.062
318.15	0.5	0.07012	1013.161	0.062
318.15	0.5	0.0895	1014.153	0.064
318.15	0.5	0.09978	1014.677	0.065
318.15	1	0.04512	1028.652	0.075
318.15	1	0.05472	1029.136	0.07
318.15	1	0.06843	1029.827	0.071
318.15	1	0.08965	1030.89	0.071
318.15	1	0.09946	1031.379	0.073
318.15	2	0.0446	1054.199	0.089
318.15	2	0.05535	1054.72	0.089
318.15	2	0.06957	1055.406	0.09
318.15	2	0.09	1056.386	0.09
318.15	2	0.09921	1056.825	0.091
318.15	3	0.04495	1078.601	0.111
318.15	3	0.05497	1079.065	0.111
318.15	3	0.07008	1079.764	0.112
318.15	3	0.08975	1080.666	0.113
318.15	3	0.09922	1081.098	0.113

System: sodium acetate trihydrate + water + D-(-)-arabinose; phases: Liquid
Fixed: Pressure, kPa = 101.3
Property: Mass density, kg/m3 (Liquid); method: Vibrating tube method
Temperature, K	Molality, mol/kg of sodium acetate trihydrate	Molality, mol/kg of D-(-)-arabinose	Mass density, kg/m3	uncertainty
288.15	0	0.04947	1001.949	0.058
288.15	0	0.06983	1003.091	0.058
288.15	0	0.08929	1004.175	0.059
288.15	0	0.09918	1004.719	0.059
288.15	0.5	0.04949	1022.138	0.066
288.15	0.5	0.06946	1023.252	0.067
288.15	0.5	0.08995	1024.388	0.067
288.15	0.5	0.09939	1024.907	0.067
288.15	1	0.04977	1039.974	0.074
288.15	1	0.06976	1041.071	0.074
288.15	1	0.08988	1042.168	0.075
288.15	1	0.09901	1042.664	0.075
288.15	2	0.0495	1070.496	0.097
288.15	2	0.06946	1071.555	0.099
288.15	2	0.08954	1072.614	0.098
288.15	2	0.09924	1073.123	0.098
288.15	3	0.04951	1095.454	0.116
288.15	3	0.06655	1096.332	0.117
288.15	3	0.09158	1097.615	0.118
288.15	3	0.09933	1098.009	0.118
298.15	0	0.04947	999.835	0.057
298.15	0	0.06983	1000.965	0.057
298.15	0	0.08929	1002.037	0.058
298.15	0	0.09918	1002.578	0.058
298.15	0.5	0.04949	1019.496	0.066
298.15	0.5	0.06946	1020.594	0.066
298.15	0.5	0.08995	1021.713	0.066
298.15	0.5	0.09939	1022.226	0.066
298.15	1	0.04977	1037.4	0.073
298.15	1	0.06976	1038.478	0.073
298.15	1	0.08988	1039.556	0.074
298.15	1	0.09901	1040.043	0.075
298.15	2	0.0495	1064.641	0.094
298.15	2	0.06946	1065.681	0.095
298.15	2	0.08954	1066.718	0.096
298.15	2	0.09924	1067.217	0.096
298.15	3	0.04951	1092.566	0.117
298.15	3	0.06655	1093.419	0.117
298.15	3	0.09158	1094.664	0.118
298.15	3	0.09933	1095.044	0.119
308.15	0	0.04947	996.816	0.059
308.15	0	0.06983	997.935	0.058
308.15	0	0.08929	998.988	0.058
308.15	0	0.09918	999.522	0.058
308.15	0.5	0.04949	1016.261	0.065
308.15	0.5	0.06946	1017.345	0.065
308.15	0.5	0.08995	1018.45	0.065
308.15	0.5	0.09939	1018.957	0.065
308.15	1	0.04977	1033.118	0.072
308.15	1	0.06976	1034.178	0.072
308.15	1	0.08988	1035.24	0.072
308.15	1	0.09901	1035.719	0.073
308.15	2	0.0495	1059.542	0.092
308.15	2	0.06946	1060.56	0.092
308.15	2	0.08954	1061.576	0.093
308.15	2	0.09924	1062.063	0.093
308.15	3	0.04951	1085.726	0.115
308.15	3	0.06655	1086.558	0.115
308.15	3	0.09158	1087.774	0.116
308.15	3	0.09933	1088.147	0.117
318.15	0	0.04947	992.954	0.059
318.15	0	0.06983	994.053	0.059
318.15	0	0.08929	995.098	0.059
318.15	0	0.09918	995.624	0.059
318.15	0.5	0.04949	1012.173	0.064
318.15	0.5	0.06946	1013.233	0.064
318.15	0.5	0.08995	1014.314	0.065
318.15	0.5	0.09939	1014.81	0.065
318.15	1	0.04977	1028.957	0.072
318.15	1	0.06976	1029.988	0.071
318.15	1	0.08988	1031.018	0.071
318.15	1	0.09901	1031.484	0.074
318.15	2	0.0495	1054.5	0.09
318.15	2	0.06946	1055.491	0.09
318.15	2	0.08954	1056.48	0.091
318.15	2	0.09924	1056.955	0.091
318.15	3	0.04951	1078.891	0.111
318.15	3	0.06655	1079.706	0.112
318.15	3	0.09158	1080.896	0.113
318.15	3	0.09933	1081.263	0.113

System: D-ribose + sodium acetate trihydrate + water; phases: Liquid
Fixed: Pressure, kPa = 101.3
Property: Mass density, kg/m3 (Liquid); method: Vibrating tube method
Temperature, K	Molality, mol/kg of sodium acetate trihydrate	Molality, mol/kg of D-ribose	Mass density, kg/m3	uncertainty
288.15	0	0.04928	1001.855	0.058
288.15	0	0.08882	1004.014	0.058
288.15	0	0.0999	1004.616	0.059
288.15	0.5	0.04999	1022.05	0.066
288.15	0.5	0.06904	1023.068	0.065
288.15	0.5	0.08898	1024.128	0.067
288.15	0.5	0.09907	1024.662	0.067
288.15	1	0.0498	1039.844	0.074
288.15	1	0.0698	1040.889	0.074
288.15	1	0.08904	1041.885	0.075
288.15	1	0.09958	1042.429	0.075
288.15	2	0.04988	1070.339	0.097
288.15	2	0.06948	1071.309	0.097
288.15	2	0.08877	1072.259	0.097
288.15	2	0.09918	1072.769	0.098
288.15	3	0.0498	1095.251	0.116
288.15	3	0.06989	1096.199	0.117
288.15	3	0.08829	1097.06	0.118
288.15	3	0.09903	1097.561	0.118
298.15	0	0.04928	999.736	0.057
298.15	0	0.08882	1001.867	0.058
298.15	0	0.0999	1002.458	0.058
298.15	0.5	0.04999	1019.403	0.066
298.15	0.5	0.06904	1020.405	0.065
298.15	0.5	0.08898	1021.445	0.066
298.15	0.5	0.09907	1021.969	0.066
298.15	1	0.0498	1037.275	0.073
298.15	1	0.0698	1038.302	0.073
298.15	1	0.08904	1039.283	0.073
298.15	1	0.09958	1039.818	0.074
298.15	2	0.04988	1064.478	0.094
298.15	2	0.06948	1065.424	0.095
298.15	2	0.08877	1066.349	0.096
298.15	2	0.09918	1066.845	0.096
298.15	3	0.0498	1092.363	0.117
298.15	3	0.06989	1093.28	0.117
298.15	3	0.08829	1094.114	0.118
298.15	3	0.09903	1094.599	0.118
308.15	0	0.04928	996.713	0.058
308.15	0	0.08882	998.809	0.058
308.15	0	0.0999	999.393	0.058
308.15	0.5	0.04999	1016.156	0.064
308.15	0.5	0.06904	1017.139	0.063
308.15	0.5	0.08898	1018.158	0.065
308.15	0.5	0.09907	1018.671	0.065
308.15	1	0.0498	1032.98	0.071
308.15	1	0.0698	1033.981	0.072
308.15	1	0.08904	1034.937	0.072
308.15	1	0.09958	1035.458	0.072
308.15	2	0.04988	1059.366	0.092
308.15	2	0.06948	1060.287	0.092
308.15	2	0.08877	1061.189	0.093
308.15	2	0.09918	1061.673	0.093
308.15	3	0.0498	1085.497	0.115
308.15	3	0.06989	1086.382	0.115
308.15	3	0.08829	1087.189	0.116
308.15	3	0.09903	1087.656	0.116
318.15	0	0.04928	992.857	0.059
318.15	0	0.08882	994.925	0.059
318.15	0	0.0999	995.5	0.059
318.15	0.5	0.04999	1012.084	0.064
318.15	0.5	0.06904	1013.053	0.062
318.15	0.5	0.08898	1014.062	0.064
318.15	0.5	0.09907	1014.57	0.065
318.15	1	0.0498	1028.841	0.072
318.15	1	0.0698	1029.828	0.071
318.15	1	0.08904	1030.772	0.071
318.15	1	0.09958	1031.285	0.073
318.15	2	0.04988	1054.329	0.089
318.15	2	0.06948	1055.226	0.09
318.15	2	0.08877	1056.103	0.09
318.15	2	0.09918	1056.572	0.091
318.15	3	0.0498	1078.663	0.111
318.15	3	0.06989	1079.524	0.112
318.15	3	0.08829	1080.309	0.112
318.15	3	0.09903	1080.765	0.113

System: L-sorbose + sodium acetate trihydrate + water; phases: Liquid
Fixed: Pressure, kPa = 101.3
Property: Mass density, kg/m3 (Liquid); method: Vibrating tube method
Temperature, K	Molality, mol/kg of sodium acetate trihydrate	Molality, mol/kg of L-sorbose	Mass density, kg/m3	uncertainty
288.15	0	0.04492	1002.282	0.059
288.15	0	0.05978	1003.316	0.059
288.15	0	0.08117	1004.794	0.06
288.15	0.5	0.04629	1022.593	0.068
288.15	0.5	0.05958	1023.514	0.068
288.15	0.5	0.0685	1024.13	0.067
288.15	0.5	0.07924	1024.869	0.067
288.15	1	0.04419	1040.274	0.075
288.15	1	0.06019	1041.372	0.076
288.15	1	0.07028	1042.061	0.075
288.15	2	0.04462	1070.833	0.099
288.15	2	0.06023	1071.87	0.098
288.15	2	0.06548	1072.218	0.101
288.15	2	0.08015	1073.184	0.102
288.15	3	0.04435	1095.755	0.118
288.15	3	0.06002	1096.762	0.119
288.15	3	0.0703	1097.421	0.12
288.15	3	0.08505	1098.361	0.121
298.15	0	0.04492	1000.153	0.058
298.15	0	0.05978	1001.17	0.058
298.15	0	0.08117	1002.623	0.059
298.15	0.5	0.04629	1019.933	0.066
298.15	0.5	0.05958	1020.838	0.067
298.15	0.5	0.0685	1021.443	0.067
298.15	0.5	0.07924	1022.168	0.065
298.15	1	0.04419	1037.684	0.075
298.15	1	0.06019	1038.759	0.074
298.15	1	0.07028	1039.435	0.074
298.15	2	0.04462	1064.982	0.096
298.15	2	0.06023	1066.003	0.097
298.15	2	0.06548	1066.344	0.097
298.15	2	0.08015	1067.296	0.099
298.15	3	0.04435	1092.853	0.118
298.15	3	0.06002	1093.83	0.119
298.15	3	0.0703	1094.469	0.12
298.15	3	0.08505	1095.38	0.12
308.15	0	0.04492	997.159	0.059
308.15	0	0.05978	998.172	0.059
308.15	0	0.08117	999.623	0.059
308.15	0.5	0.04629	1016.708	0.065
308.15	0.5	0.05958	1017.608	0.066
308.15	0.5	0.0685	1018.21	0.065
308.15	0.5	0.07924	1018.933	0.064
308.15	1	0.04419	1033.42	0.073
308.15	1	0.06019	1034.486	0.073
308.15	1	0.07028	1035.155	0.073
308.15	2	0.04462	1059.902	0.093
308.15	2	0.06023	1060.91	0.094
308.15	2	0.06548	1061.248	0.094
308.15	2	0.08015	1062.19	0.096
308.15	3	0.04435	1086.037	0.116
308.15	3	0.06002	1087.005	0.117
308.15	3	0.0703	1087.638	0.118
308.15	3	0.08505	1088.541	0.119
318.15	0	0.04492	993.332	0.06
318.15	0	0.05978	994.345	0.06
318.15	0	0.08117	995.796	0.06
318.15	0.5	0.04629	1012.653	0.069
318.15	0.5	0.05958	1013.547	0.065
318.15	0.5	0.0685	1014.145	0.064
318.15	0.5	0.07924	1014.863	0.067
318.15	1	0.04419	1029.299	0.074
318.15	1	0.06019	1030.355	0.072
318.15	1	0.07028	1031.018	0.074
318.15	2	0.04462	1054.896	0.091
318.15	2	0.06023	1055.892	0.091
318.15	2	0.06548	1056.226	0.092
318.15	2	0.08015	1057.157	0.093
318.15	3	0.04435	1079.238	0.113
318.15	3	0.06002	1080.197	0.114
318.15	3	0.0703	1080.824	0.114
318.15	3	0.08505	1081.718	0.115

System: D-fructose + sodium acetate trihydrate + water; phases: Liquid
Fixed: Pressure, kPa = 101.3
Property: Mass density, kg/m3 (Liquid); method: Vibrating tube method
Temperature, K	Molality, mol/kg of sodium acetate trihydrate	Molality, mol/kg of D-fructose	Mass density, kg/m3	uncertainty
288.15	0	0.04933	1002.559	0.058
288.15	0	0.0709	1004.044	0.059
288.15	0	0.08967	1005.324	0.059
288.15	0	0.11815	1007.253	0.06
288.15	0	0.14815	1009.274	0.061
288.15	0	0.20139	1012.806	0.062
288.15	0.5	0.03005	1021.425	0.066
288.15	0.5	0.05007	1022.797	0.067
288.15	0.5	0.09167	1025.628	0.068
288.15	0.5	0.2485	1036.045	0.072
288.15	0.5	0.49527	1051.659	0.081
288.15	0.5	1.0008	1080.929	0.098
288.15	1	0.0301	1039.254	0.074
288.15	1	0.04986	1040.584	0.074
288.15	1	0.08938	1043.223	0.075
288.15	1	0.09994	1043.919	0.077
288.15	1	0.24898	1053.603	0.082
288.15	1	0.50122	1069.134	0.091
288.15	2	0.02999	1069.813	0.097
288.15	2	0.04856	1071.026	0.097
288.15	2	0.08998	1073.709	0.098
288.15	2	0.24942	1083.781	0.105
288.15	2	0.50084	1098.86	0.115
288.15	2	1.00023	1126.152	0.135
288.15	3	0.02942	1094.761	0.116
288.15	3	0.04996	1096.067	0.117
288.15	3	0.08987	1098.586	0.119
288.15	3	0.24903	1108.387	0.125
288.15	3	0.49792	1122.931	0.136
288.15	3	0.99898	1149.622	0.156
298.15	0	0.04933	1000.437	0.058
298.15	0	0.0709	1001.9	0.058
298.15	0	0.08967	1003.167	0.058
298.15	0	0.11815	1005.078	0.059
298.15	0	0.14815	1007.071	0.06
298.15	0	0.20139	1010.553	0.062
298.15	0.5	0.03005	1018.781	0.065
298.15	0.5	0.05007	1020.127	0.066
298.15	0.5	0.09167	1022.903	0.067
298.15	0.5	0.2485	1033.129	0.072
298.15	0.5	0.49527	1048.472	0.08
298.15	0.5	1.0008	1077.284	0.096
298.15	1	0.0301	1036.689	0.073
298.15	1	0.04986	1037.992	0.073
298.15	1	0.08938	1040.579	0.074
298.15	1	0.09994	1041.265	0.077
298.15	1	0.24898	1050.754	0.08
298.15	1	0.50122	1065.984	0.09
298.15	2	0.02999	1063.968	0.094
298.15	2	0.04856	1065.154	0.095
298.15	2	0.08998	1067.78	0.097
298.15	2	0.24942	1077.637	0.103
298.15	2	0.50084	1092.382	0.113
298.15	2	1.00023	1119.032	0.133
298.15	3	0.02942	1091.89	0.117
298.15	3	0.04996	1093.159	0.117
298.15	3	0.08987	1095.607	0.119
298.15	3	0.24903	1105.112	0.125
298.15	3	0.49792	1119.198	0.135
298.15	3	0.99898	1144.921	0.155
308.15	0	0.04933	997.409	0.059
308.15	0	0.0709	998.857	0.058
308.15	0	0.08967	1000.106	0.058
308.15	0	0.11815	1001.989	0.059
308.15	0	0.14815	1003.96	0.06
308.15	0	0.20139	1007.413	0.061
308.15	0.5	0.03005	1015.551	0.064
308.15	0.5	0.05007	1016.877	0.065
308.15	0.5	0.09167	1019.613	0.066
308.15	0.5	0.2485	1029.691	0.07
308.15	0.5	0.49527	1044.811	0.078
308.15	0.5	1.0008	1073.223	0.094
308.15	1	0.0301	1032.414	0.071
308.15	1	0.04986	1033.692	0.072
308.15	1	0.08938	1036.231	0.073
308.15	1	0.09994	1036.903	0.076
308.15	1	0.24898	1046.221	0.079
308.15	1	0.50122	1061.189	0.088
308.15	2	0.02999	1058.881	0.091
308.15	2	0.04856	1060.043	0.092
308.15	2	0.08998	1062.617	0.094
308.15	2	0.24942	1072.274	0.1
308.15	2	0.50084	1086.734	0.11
308.15	2	1.00023	1112.937	0.129
308.15	3	0.02942	1085.063	0.114
308.15	3	0.04996	1086.305	0.115
308.15	3	0.08987	1088.698	0.117
308.15	3	0.24903	1098.005	0.123
308.15	3	0.49792	1111.798	0.133
308.15	3	0.99898	1137.025	0.152
318.15	0	0.04933	993.553	0.059
318.15	0	0.0709	994.985	0.059
318.15	0	0.08967	996.218	0.059
318.15	0	0.11815	998.081	0.058
318.15	0	0.14815	1000.023	0.058
318.15	0	0.20139	1003.426	0.06
318.15	0.5	0.03005	1011.489	0.064
318.15	0.5	0.05007	1012.797	0.064
318.15	0.5	0.09167	1015.495	0.065
318.15	0.5	0.2485	1025.43	0.069
318.15	0.5	0.49527	1040.332	0.077
318.15	0.5	1.0008	1068.323	0.092
318.15	1	0.0301	1028.284	0.072
318.15	1	0.04986	1029.542	0.071
318.15	1	0.08938	1032.038	0.072
318.15	1	0.09994	1032.699	0.074
318.15	1	0.24898	1041.851	0.078
318.15	1	0.50122	1056.562	0.088
318.15	2	0.02999	1053.874	0.089
318.15	2	0.04856	1055.015	0.09
318.15	2	0.08998	1057.542	0.091
318.15	2	0.24942	1067.017	0.098
318.15	2	0.50084	1081.207	0.108
318.15	2	1.00023	1106.901	0.127
318.15	3	0.02942	1078.259	0.111
318.15	3	0.04996	1079.48	0.112
318.15	3	0.08987	1081.836	0.113
318.15	3	0.24903	1090.986	0.12
318.15	3	0.49792	1104.563	0.13
318.15	3	0.99898	1129.443	0.148

System: (+)-galactose + sodium acetate trihydrate + water; phases: Liquid
Fixed: Pressure, kPa = 101.3
Property: Mass density, kg/m3 (Liquid); method: Vibrating tube method
Temperature, K	Molality, mol/kg of sodium acetate trihydrate	Molality, mol/kg of (+)-galactose	Mass density, kg/m3	uncertainty
288.15	0	0.04978	1002.619	0.059
288.15	0	0.06989	1004.014	0.059
288.15	0	0.08888	1005.321	0.06
288.15	0	0.09585	1005.798	0.06
288.15	0.5	0.04474	1022.45	0.066
288.15	0.5	0.07017	1024.194	0.068
288.15	0.5	0.08347	1025.101	0.066
288.15	0.5	0.0983	1026.109	0.069
288.15	0.5	0.10864	1026.809	0.069
288.15	0.5	0.11731	1027.394	0.07
288.15	1	0.04498	1040.274	0.075
288.15	1	0.06977	1041.942	0.076
288.15	1	0.0894	1043.255	0.077
288.15	1	0.10003	1043.962	0.078
288.15	1	0.10989	1044.616	0.079
288.15	1	0.11951	1045.251	0.079
288.15	2	0.0453	1070.835	0.098
288.15	2	0.07005	1072.45	0.099
288.15	2	0.08976	1073.728	0.102
288.15	2	0.09905	1074.325	0.101
288.15	2	0.10981	1075.017	0.102
288.15	2	0.11818	1075.551	0.103
288.15	3	0.04469	1095.746	0.118
288.15	3	0.06968	1097.331	0.119
288.15	3	0.08258	1098.143	0.12
288.15	3	0.09925	1099.188	0.122
288.15	3	0.10949	1099.825	0.122
288.15	3	0.11773	1100.335	0.123
298.15	0	0.04978	1000.504	0.058
298.15	0	0.06989	1001.884	0.059
298.15	0	0.08888	1003.179	0.059
298.15	0	0.09585	1003.651	0.06
298.15	0.5	0.04474	1019.796	0.066
298.15	0.5	0.07017	1021.512	0.067
298.15	0.5	0.08347	1022.404	0.065
298.15	0.5	0.0983	1023.397	0.068
298.15	0.5	0.10864	1024.086	0.068
298.15	0.5	0.11731	1024.662	0.069
298.15	1	0.04498	1037.695	0.074
298.15	1	0.06977	1039.333	0.075
298.15	1	0.0894	1040.622	0.075
298.15	1	0.10003	1041.316	0.077
298.15	1	0.10989	1041.959	0.077
298.15	1	0.11951	1042.581	0.078
298.15	2	0.0453	1064.976	0.096
298.15	2	0.07005	1066.564	0.097
298.15	2	0.08976	1067.82	0.099
298.15	2	0.09905	1068.408	0.099
298.15	2	0.10981	1069.087	0.1
298.15	2	0.11818	1069.612	0.101
298.15	3	0.04469	1092.866	0.118
298.15	3	0.06968	1094.42	0.12
298.15	3	0.08258	1095.219	0.121
298.15	3	0.09925	1096.245	0.122
298.15	3	0.10949	1096.872	0.122
298.15	3	0.11773	1097.376	0.123
308.15	0	0.04978	997.486	0.059
308.15	0	0.06989	998.848	0.059
308.15	0	0.08888	1000.123	0.059
308.15	0	0.09585	1000.59	0.059
308.15	0.5	0.04474	1016.557	0.063
308.15	0.5	0.07017	1018.253	0.066
308.15	0.5	0.08347	1019.135	0.064
308.15	0.5	0.0983	1020.114	0.066
308.15	0.5	0.10864	1020.795	0.066
308.15	0.5	0.11731	1021.363	0.067
308.15	1	0.04498	1033.418	0.075
308.15	1	0.06977	1035.034	0.073
308.15	1	0.0894	1036.304	0.074
308.15	1	0.10003	1036.988	0.076
308.15	1	0.10989	1037.622	0.076
308.15	1	0.11951	1038.234	0.076
308.15	2	0.0453	1059.878	0.093
308.15	2	0.07005	1061.436	0.094
308.15	2	0.08976	1062.667	0.096
308.15	2	0.09905	1063.245	0.096
308.15	2	0.10981	1063.91	0.097
308.15	2	0.11818	1064.425	0.097
308.15	3	0.04469	1086.021	0.116
308.15	3	0.06968	1087.542	0.118
308.15	3	0.08258	1088.322	0.119
308.15	3	0.09925	1089.324	0.12
308.15	3	0.10949	1089.936	0.121
308.15	3	0.11773	1090.427	0.121
318.15	0	0.05048	993.679	0.06
318.15	0	0.07027	995.008	0.06
318.15	0	0.08673	996.105	0.06
318.15	0	0.09667	996.767	0.06
318.15	0.5	0.05504	1013.136	0.069
318.15	0.5	0.07608	1014.504	0.064
318.15	0.5	0.0815	1014.851	0.064
318.15	0.5	0.09863	1015.95	0.065
318.15	0.5	0.11334	1016.893	0.066
318.15	0.5	0.118	1017.187	0.066
318.15	1	0.05033	1029.602	0.074
318.15	1	0.06788	1030.72	0.075
318.15	1	0.08228	1031.629	0.073
318.15	1	0.10521	1033.071	0.073
318.15	1	0.11409	1033.624	0.075
318.15	1	0.1172	1033.815	0.085
318.15	2	0.04883	1055.063	0.091
318.15	2	0.07917	1056.928	0.092
318.15	2	0.08226	1057.116	0.094
318.15	2	0.09767	1058.047	0.093
318.15	2	0.1125	1058.948	0.103
318.15	2	0.11381	1059.026	0.103
318.15	3	0.05179	1079.587	0.113
318.15	3	0.08281	1081.414	0.115
318.15	3	0.08836	1081.739	0.116
318.15	3	0.09407	1082.071	0.116
318.15	3	0.11071	1083.038	0.117
318.15	3	0.12112	1083.643	0.118

System: D-glucose + sodium acetate trihydrate + water; phases: Liquid
Fixed: Pressure, kPa = 101.3
Property: Mass density, kg/m3 (Liquid); method: Vibrating tube method
Temperature, K	Molality, mol/kg of sodium acetate trihydrate	Molality, mol/kg of D-glucose	Mass density, kg/m3	uncertainty
288.15	0	0.05137	1002.651	0.058
288.15	0	0.07007	1003.916	0.059
288.15	0	0.08886	1005.183	0.059
288.15	0	0.10319	1006.142	0.06
288.15	0	0.12237	1007.416	0.06
288.15	0	0.16079	1009.949	0.061
288.15	0.5	0.03072	1021.436	0.066
288.15	0.5	0.05046	1022.765	0.067
288.15	0.5	0.09055	1025.447	0.068
288.15	0.5	0.2497	1035.836	0.072
288.15	0.5	0.50125	1051.448	0.081
288.15	0.5	1.05403	1082.619	0.101
288.15	1	0.03087	1039.269	0.074
288.15	1	0.04953	1040.502	0.074
288.15	1	0.09	1043.156	0.076
288.15	1	0.24908	1053.34	0.081
288.15	1	0.49975	1068.596	0.091
288.15	1	1.01988	1097.394	0.11
288.15	2	0.03048	1069.809	0.097
288.15	2	0.05035	1071.082	0.097
288.15	2	0.08915	1073.55	0.098
288.15	2	0.24913	1083.469	0.105
288.15	2	0.49603	1098.002	0.115
288.15	2	1.00643	1125.319	0.134
288.15	3	0.03003	1094.749	0.116
288.15	3	0.04888	1095.917	0.117
288.15	3	0.08715	1098.268	0.118
288.15	3	0.2487	1107.952	0.125
288.15	3	0.49428	1121.901	0.135
288.15	3	0.99814	1147.882	0.155
298.15	0	0.05137	1000.527	0.058
298.15	0	0.07007	1001.778	0.058
298.15	0	0.08886	1003.029	0.058
298.15	0	0.10319	1003.973	0.059
298.15	0	0.12237	1005.228	0.059
298.15	0	0.16079	1007.724	0.06
298.15	0.5	0.03072	1018.793	0.065
298.15	0.5	0.05046	1020.099	0.066
298.15	0.5	0.09055	1022.734	0.067
298.15	0.5	0.2497	1032.943	0.072
298.15	0.5	0.50125	1048.304	0.08
298.15	0.5	1.05403	1079.033	0.099
298.15	1	0.03087	1036.705	0.073
298.15	1	0.04953	1037.915	0.073
298.15	1	0.09	1040.519	0.074
298.15	1	0.24908	1050.505	0.08
298.15	1	0.49975	1065.449	0.09
298.15	1	1.01988	1093.654	0.109
298.15	2	0.03048	1063.966	0.094
298.15	2	0.05035	1065.214	0.095
298.15	2	0.08915	1067.634	0.097
298.15	2	0.24913	1077.354	0.103
298.15	2	0.49603	1091.596	0.113
298.15	2	1.00643	1118.387	0.132
298.15	3	0.03003	1091.876	0.117
298.15	3	0.04888	1093.009	0.117
298.15	3	0.08715	1095.291	0.118
298.15	3	0.2487	1104.674	0.125
298.15	3	0.49428	1118.185	0.135
298.15	3	0.99814	1143.319	0.154
308.15	0	0.05137	997.504	0.059
308.15	0	0.07007	998.739	0.058
308.15	0	0.08886	999.974	0.058
308.15	0	0.10319	1000.911	0.058
308.15	0	0.12237	1002.151	0.059
308.15	0	0.16079	1004.618	0.059
308.15	0.5	0.03072	1015.559	0.064
308.15	0.5	0.05046	1016.842	0.065
308.15	0.5	0.09055	1019.428	0.066
308.15	0.5	0.2497	1029.456	0.07
308.15	0.5	0.50125	1044.521	0.078
308.15	0.5	1.05403	1074.59	0.097
308.15	1	0.03087	1032.431	0.071
308.15	1	0.04953	1033.619	0.071
308.15	1	0.09	1036.179	0.073
308.15	1	0.24908	1045.992	0.079
308.15	1	0.49975	1060.696	0.088
308.15	1	1.01988	1088.508	0.107
308.15	2	0.03048	1058.878	0.091
308.15	2	0.05035	1060.099	0.092
308.15	2	0.08915	1062.463	0.094
308.15	2	0.24913	1071.975	0.1
308.15	2	0.49603	1085.889	0.109
308.15	2	1.00643	1111.991	0.129
308.15	3	0.03003	1085.046	0.114
308.15	3	0.04888	1086.154	0.115
308.15	3	0.08715	1088.385	0.117
308.15	3	0.2487	1097.556	0.123
308.15	3	0.49428	1110.772	0.133
308.15	3	0.99814	1135.402	0.152
318.15	0	0.05137	993.655	0.059
318.15	0	0.07007	994.881	0.059
318.15	0	0.08886	996.102	0.059
318.15	0	0.10319	997.028	0.059
318.15	0	0.12237	998.262	0.058
318.15	0	0.16079	1000.705	0.058
318.15	0.5	0.03072	1011.498	0.063
318.15	0.5	0.05046	1012.765	0.064
318.15	0.5	0.09055	1015.318	0.065
318.15	0.5	0.2497	1025.228	0.069
318.15	0.5	0.50125	1040.082	0.078
318.15	0.5	1.05403	1069.732	0.095
318.15	1	0.03087	1028.309	0.072
318.15	1	0.04953	1029.482	0.071
318.15	1	0.09	1032.007	0.072
318.15	1	0.24908	1041.689	0.078
318.15	1	0.49975	1056.171	0.087
318.15	1	1.01988	1083.551	0.106
318.15	2	0.03048	1053.868	0.089
318.15	2	0.05035	1055.066	0.09
318.15	2	0.08915	1057.387	0.091
318.15	2	0.24913	1066.707	0.097
318.15	2	0.49603	1080.357	0.107
318.15	2	1.00643	1105.994	0.126
318.15	3	0.03003	1078.229	0.111
318.15	3	0.04888	1079.309	0.112
318.15	3	0.08715	1081.484	0.113
318.15	3	0.2487	1090.427	0.12
318.15	3	0.49428	1103.302	0.129
318.15	3	0.99814	1127.271	0.148

System: D-mannose + sodium acetate trihydrate + water; phases: Liquid
Fixed: Pressure, kPa = 101.3
Property: Mass density, kg/m3 (Liquid); method: Vibrating tube method
Temperature, K	Molality, mol/kg of sodium acetate trihydrate	Molality, mol/kg of D-mannose	Mass density, kg/m3	uncertainty
288.15	0	0.05057	1002.596	0.058
288.15	0	0.07019	1003.924	0.059
288.15	0	0.08797	1005.119	0.059
288.15	0	0.10075	1005.973	0.059
288.15	0	0.11876	1007.172	0.06
288.15	0.5	0.05133	1022.826	0.067
288.15	0.5	0.06927	1024.027	0.067
288.15	0.5	0.08666	1025.185	0.065
288.15	0.5	0.10055	1026.105	0.068
288.15	0.5	0.10946	1026.692	0.067
288.15	0.5	0.1172	1027.202	0.068
288.15	1	0.04984	1040.53	0.075
288.15	1	0.06989	1041.848	0.075
288.15	1	0.08994	1043.157	0.075
288.15	1	0.10063	1043.85	0.076
288.15	1	0.10732	1044.284	0.076
288.15	1	0.11926	1045.053	0.076
288.15	2	0.04969	1071.024	0.097
288.15	2	0.06906	1072.252	0.098
288.15	2	0.08918	1073.519	0.098
288.15	2	0.09883	1074.124	0.099
288.15	2	0.11038	1074.845	0.099
288.15	2	0.11779	1075.306	0.101
288.15	3	0.05151	1096.01	0.117
288.15	3	0.06967	1097.102	0.118
288.15	3	0.08857	1098.231	0.118
288.15	3	0.09799	1098.792	0.119
288.15	3	0.11048	1099.532	0.119
288.15	3	0.11845	1100.001	0.12
298.15	0	0.05057	1000.486	0.058
298.15	0	0.07019	1001.802	0.058
298.15	0	0.08797	1002.988	0.058
298.15	0	0.10075	1003.837	0.059
298.15	0	0.11876	1005.024	0.059
298.15	0.5	0.05133	1020.194	0.066
298.15	0.5	0.06927	1021.386	0.066
298.15	0.5	0.08666	1022.536	0.063
298.15	0.5	0.10055	1023.45	0.067
298.15	0.5	0.10946	1024.033	0.067
298.15	0.5	0.1172	1024.539	0.067
298.15	1	0.04984	1037.974	0.074
298.15	1	0.06989	1039.282	0.074
298.15	1	0.08994	1040.582	0.074
298.15	1	0.10063	1041.272	0.075
298.15	1	0.10732	1041.703	0.075
298.15	1	0.11926	1042.469	0.075
298.15	2	0.04969	1065.158	0.095
298.15	2	0.06906	1066.359	0.096
298.15	2	0.08918	1067.6	0.096
298.15	2	0.09883	1068.19	0.097
298.15	2	0.11038	1068.896	0.097
298.15	2	0.11779	1069.346	0.098
298.15	3	0.05151	1093.113	0.117
298.15	3	0.06967	1094.177	0.118
298.15	3	0.08857	1095.278	0.118
298.15	3	0.09799	1095.822	0.119
298.15	3	0.11048	1096.543	0.119
298.15	3	0.11845	1097.002	0.12
308.15	0	0.05057	997.477	0.059
308.15	0	0.07019	998.782	0.058
308.15	0	0.08797	999.961	0.058
308.15	0	0.10075	1000.8	0.058
308.15	0	0.11876	1001.978	0.059
308.15	0.5	0.05133	1016.961	0.065
308.15	0.5	0.06927	1018.143	0.065
308.15	0.5	0.08666	1019.281	0.062
308.15	0.5	0.10055	1020.186	0.066
308.15	0.5	0.10946	1020.765	0.065
308.15	0.5	0.1172	1021.265	0.066
308.15	1	0.04984	1033.688	0.072
308.15	1	0.06989	1034.973	0.072
308.15	1	0.08994	1036.251	0.073
308.15	1	0.10063	1036.929	0.073
308.15	1	0.10732	1037.349	0.073
308.15	1	0.11926	1038.1	0.074
308.15	2	0.04969	1060.051	0.092
308.15	2	0.06906	1061.232	0.093
308.15	2	0.08918	1062.451	0.094
308.15	2	0.09883	1063.032	0.094
308.15	2	0.11038	1063.726	0.094
308.15	2	0.11779	1064.169	0.095
308.15	3	0.05151	1086.269	0.115
308.15	3	0.06967	1087.311	0.116
308.15	3	0.08857	1088.391	0.117
308.15	3	0.09799	1088.924	0.117
308.15	3	0.11048	1089.632	0.118
308.15	3	0.11845	1090.078	0.118
318.15	0	0.05057	993.631	0.059
318.15	0	0.07019	994.927	0.059
318.15	0	0.08797	996.092	0.059
318.15	0	0.10075	996.926	0.059
318.15	0	0.11876	998.093	0.058
318.15	0.5	0.05133	1012.897	0.065
318.15	0.5	0.06927	1014.066	0.065
318.15	0.5	0.08666	1015.194	0.063
318.15	0.5	0.10055	1016.089	0.065
318.15	0.5	0.10946	1016.659	0.064
318.15	0.5	0.1172	1017.153	0.071
318.15	1	0.04984	1029.555	0.073
318.15	1	0.06989	1030.828	0.071
318.15	1	0.08994	1032.094	0.072
318.15	1	0.10063	1032.763	0.072
318.15	1	0.10732	1033.181	0.072
318.15	1	0.11926	1033.927	0.074
318.15	2	0.04969	1055.014	0.09
318.15	2	0.06906	1056.166	0.09
318.15	2	0.08918	1057.356	0.091
318.15	2	0.09883	1057.922	0.092
318.15	2	0.11038	1058.599	0.092
318.15	2	0.11779	1059.03	0.092
318.15	3	0.05151	1079.433	0.112
318.15	3	0.06967	1080.455	0.113
318.15	3	0.08857	1081.511	0.113
318.15	3	0.09799	1082.033	0.114
318.15	3	0.11048	1082.725	0.114
318.15	3	0.11845	1083.165	0.114

System: D-cellobiose + sodium acetate trihydrate + water; phases: Liquid
Fixed: Pressure, kPa = 101.3
Property: Mass density, kg/m3 (Liquid); method: Vibrating tube method
Temperature, K	Molality, mol/kg of sodium acetate trihydrate	Molality, mol/kg of D-cellobiose	Mass density, kg/m3	uncertainty
288.15	0	0.04931	1005.571	0.061
288.15	0	0.07027	1008.263	0.063
288.15	0	0.08886	1010.629	0.064
288.15	0	0.09986	1012.02	0.064
288.15	0.5	0.04908	1025.663	0.071
288.15	0.5	0.0691	1028.198	0.072
288.15	0.5	0.08841	1030.623	0.071
288.15	0.5	0.11141	1033.483	0.075
288.15	1	0.04903	1043.416	0.079
288.15	1	0.06897	1045.897	0.08
288.15	1	0.09047	1048.546	0.083
288.15	1	0.1089	1050.796	0.087
288.15	2	0.04919	1073.874	0.102
288.15	2	0.06937	1076.307	0.104
288.15	2	0.08917	1078.67	0.105
288.15	3	0.04777	1098.514	0.121
288.15	3	0.06892	1100.967	0.124
288.15	3	0.09008	1103.397	0.127
298.15	0	0.04931	1003.443	0.061
298.15	0	0.07027	1006.118	0.062
298.15	0	0.08886	1008.467	0.063
298.15	0	0.09986	1009.846	0.063
298.15	0.5	0.04908	1023.004	0.07
298.15	0.5	0.0691	1025.516	0.071
298.15	0.5	0.08841	1027.917	0.07
298.15	0.5	0.11141	1030.75	0.074
298.15	1	0.04903	1040.826	0.078
298.15	1	0.06897	1043.281	0.079
298.15	1	0.09047	1045.902	0.082
298.15	1	0.1089	1048.127	0.085
298.15	2	0.04919	1068.017	0.099
298.15	2	0.06937	1070.43	0.102
298.15	2	0.08917	1072.775	0.104
298.15	3	0.04777	1095.631	0.122
298.15	3	0.06892	1098.057	0.124
298.15	3	0.09008	1100.458	0.126
308.15	0	0.04931	1000.416	0.06
308.15	0	0.07027	1003.07	0.061
308.15	0	0.08886	1005.402	0.063
308.15	0	0.09986	1006.771	0.062
308.15	0.5	0.04908	1019.74	0.069
308.15	0.5	0.0691	1022.226	0.07
308.15	0.5	0.08841	1024.601	0.069
308.15	0.5	0.11141	1027.403	0.073
308.15	1	0.04903	1036.52	0.076
308.15	1	0.06897	1038.948	0.078
308.15	1	0.09047	1041.536	0.08
308.15	1	0.1089	1043.736	0.084
308.15	2	0.04919	1062.896	0.096
308.15	2	0.06937	1065.277	0.099
308.15	2	0.08917	1067.587	0.101
308.15	3	0.04777	1088.771	0.12
308.15	3	0.06892	1091.164	0.122
308.15	3	0.09008	1093.533	0.125
318.15	0	0.04931	996.557	0.061
318.15	0	0.07027	999.193	0.061
318.15	0	0.08886	1001.509	0.062
318.15	0	0.09986	1002.87	0.061
318.15	0.5	0.04908	1015.649	0.069
318.15	0.5	0.0691	1018.112	0.069
318.15	0.5	0.08841	1020.467	0.069
318.15	0.5	0.11141	1023.239	0.071
318.15	1	0.04903	1032.361	0.077
318.15	1	0.06897	1034.763	0.077
318.15	1	0.09047	1037.328	0.079
318.15	1	0.1089	1039.506	0.082
318.15	2	0.04919	1057.866	0.094
318.15	2	0.06937	1060.227	0.096
318.15	2	0.08917	1062.521	0.099
318.15	3	0.04777	1081.92	0.116
318.15	3	0.06892	1084.282	0.119
318.15	3	0.09008	1086.619	0.121

System: D-sucrose + sodium acetate trihydrate + water; phases: Liquid
Fixed: Pressure, kPa = 101.3
Property: Mass density, kg/m3 (Liquid); method: Vibrating tube method
Temperature, K	Molality, mol/kg of sodium acetate trihydrate	Molality, mol/kg of D-sucrose	Mass density, kg/m3	uncertainty
288.15	0	0.04459	1004.921	0.06
288.15	0	0.0548	1006.229	0.061
288.15	0	0.07008	1008.176	0.061
288.15	0	0.08843	1010.49	0.062
288.15	0	0.09825	1011.722	0.063
288.15	0.5	0.04453	1025.056	0.07
288.15	0.5	0.05493	1026.37	0.067
288.15	0.5	0.06934	1028.182	0.07
288.15	0.5	0.08942	1030.684	0.071
288.15	0.5	0.09729	1031.657	0.072
288.15	0.5	0.11869	1034.286	0.072
288.15	1	0.04462	1042.83	0.077
288.15	1	0.06917	1045.865	0.078
288.15	1	0.08799	1048.169	0.079
288.15	1	0.09889	1049.493	0.08
288.15	1	0.11976	1052.008	0.081
288.15	2	0.04465	1073.249	0.102
288.15	2	0.0548	1074.461	0.1
288.15	2	0.06946	1076.2	0.101
288.15	2	0.08937	1078.54	0.102
288.15	2	0.09905	1079.67	0.103
288.15	2	0.11894	1081.971	0.103
288.15	3	0.04299	1097.907	0.118
288.15	3	0.05484	1099.272	0.119
288.15	3	0.06975	1100.979	0.121
288.15	3	0.08788	1103.038	0.122
288.15	3	0.09932	1104.326	0.123
288.15	3	0.11992	1106.627	0.125
298.15	0	0.04459	1002.806	0.06
298.15	0	0.0548	1004.108	0.06
298.15	0	0.07008	1006.04	0.06
298.15	0	0.08843	1008.34	0.061
298.15	0	0.09825	1009.564	0.061
298.15	0.5	0.04453	1022.4	0.069
298.15	0.5	0.05493	1023.703	0.065
298.15	0.5	0.06934	1025.499	0.069
298.15	0.5	0.08942	1027.98	0.07
298.15	0.5	0.09729	1028.946	0.071
298.15	0.5	0.11869	1031.555	0.071
298.15	1	0.04462	1040.247	0.076
298.15	1	0.06917	1043.254	0.077
298.15	1	0.08799	1045.537	0.078
298.15	1	0.09889	1046.849	0.079
298.15	1	0.11976	1049.342	0.079
298.15	2	0.04465	1067.392	0.096
298.15	2	0.0548	1068.591	0.098
298.15	2	0.06946	1070.312	0.099
298.15	2	0.08937	1072.629	0.1
298.15	2	0.09905	1073.746	0.101
298.15	2	0.11894	1076.028	0.102
298.15	3	0.04299	1095.017	0.12
298.15	3	0.05484	1096.365	0.12
298.15	3	0.06975	1098.046	0.121
298.15	3	0.08788	1100.073	0.122
298.15	3	0.09932	1101.341	0.123
298.15	3	0.11992	1103.61	0.124
308.15	0	0.04459	999.795	0.06
308.15	0	0.0548	1001.087	0.059
308.15	0	0.07008	1003.013	0.06
308.15	0	0.08843	1005.301	0.061
308.15	0	0.09825	1006.517	0.061
308.15	0.5	0.04453	1019.15	0.068
308.15	0.5	0.05493	1020.442	0.064
308.15	0.5	0.06934	1022.221	0.068
308.15	0.5	0.08942	1024.68	0.069
308.15	0.5	0.09729	1025.638	0.07
308.15	0.5	0.11869	1028.225	0.07
308.15	1	0.04462	1035.944	0.074
308.15	1	0.06917	1038.914	0.075
308.15	1	0.08799	1041.17	0.076
308.15	1	0.09889	1042.465	0.077
308.15	1	0.11976	1044.926	0.078
308.15	2	0.04465	1062.29	0.094
308.15	2	0.0548	1063.477	0.095
308.15	2	0.06946	1065.182	0.096
308.15	2	0.08937	1067.478	0.097
308.15	2	0.09905	1068.585	0.098
308.15	2	0.11894	1070.843	0.099
308.15	3	0.04299	1088.182	0.117
308.15	3	0.05484	1089.515	0.118
308.15	3	0.06975	1091.18	0.119
308.15	3	0.08788	1093.187	0.12
308.15	3	0.09932	1094.439	0.121
308.15	3	0.11992	1096.681	0.123
318.15	0	0.04459	995.943	0.06
318.15	0	0.0548	997.228	0.059
318.15	0	0.07008	999.141	0.059
318.15	0	0.08843	1001.415	0.06
318.15	0	0.09825	1002.626	0.06
318.15	0.5	0.04453	1015.059	0.068
318.15	0.5	0.05493	1016.338	0.065
318.15	0.5	0.06934	1018.099	0.067
318.15	0.5	0.08942	1020.533	0.068
318.15	0.5	0.09729	1021.481	0.069
318.15	0.5	0.11869	1024.04	0.068
318.15	1	0.04462	1031.786	0.075
318.15	1	0.06917	1034.724	0.074
318.15	1	0.08799	1036.95	0.075
318.15	1	0.09889	1038.23	0.077
318.15	1	0.11976	1040.664	0.078
318.15	2	0.04465	1057.251	0.092
318.15	2	0.0548	1058.423	0.094
318.15	2	0.06946	1060.106	0.093
318.15	2	0.08937	1062.369	0.095
318.15	2	0.09905	1063.46	0.096
318.15	2	0.11894	1065.688	0.097
318.15	3	0.04299	1081.357	0.113
318.15	3	0.05484	1082.677	0.114
318.15	3	0.06975	1084.327	0.115
318.15	3	0.08788	1086.317	0.117
318.15	3	0.09932	1087.561	0.118
318.15	3	0.11992	1089.785	0.119

System: 6-.alpha.-D-galactopyranosyl-D-glucopyranose + sodium acetate trihydrate + water; phases: Liquid
Fixed: Pressure, kPa = 101.3
Property: Mass density, kg/m3 (Liquid); method: Vibrating tube method
Temperature, K	Molality, mol/kg of sodium acetate trihydrate	Molality, mol/kg of 6-.alpha.-D-galactopyranosyl-D-glucopyranose	Mass density, kg/m3	uncertainty
288.15	0	0.05005	1005.536	0.06
288.15	0	0.06831	1007.839	0.061
288.15	0	0.0946	1011.122	0.062
288.15	0	0.12302	1014.629	0.062
288.15	0.5	0.04942	1025.577	0.069
288.15	0.5	0.06946	1028.06	0.07
288.15	0.5	0.09049	1030.64	0.07
288.15	0.5	0.1094	1032.938	0.071
288.15	1	0.05019	1043.419	0.077
288.15	1	0.06938	1045.753	0.078
288.15	1	0.08946	1048.172	0.079
288.15	1	0.10957	1050.573	0.082
288.15	2	0.04968	1073.735	0.1
288.15	2	0.06904	1075.989	0.1
288.15	2	0.08889	1078.278	0.101
288.15	3	0.04954	1098.541	0.119
288.15	3	0.06835	1100.652	0.12
288.15	3	0.08861	1102.902	0.122
298.15	0	0.05005	1003.402	0.06
298.15	0	0.06831	1005.685	0.06
298.15	0	0.0946	1008.94	0.062
298.15	0	0.12302	1012.418	0.062
298.15	0.5	0.04942	1022.897	0.068
298.15	0.5	0.06946	1025.351	0.069
298.15	0.5	0.09049	1027.902	0.07
298.15	0.5	0.1094	1030.174	0.071
298.15	1	0.05019	1040.802	0.077
298.15	1	0.06938	1043.102	0.077
298.15	1	0.08946	1045.486	0.078
298.15	1	0.10957	1047.851	0.081
298.15	2	0.04968	1067.854	0.097
298.15	2	0.06904	1070.08	0.098
298.15	2	0.08889	1072.338	0.1
298.15	3	0.04954	1095.623	0.12
298.15	3	0.06835	1097.698	0.121
298.15	3	0.08861	1099.912	0.122
308.15	0	0.05005	1000.364	0.059
308.15	0	0.06831	1002.628	0.06
308.15	0	0.0946	1005.856	0.061
308.15	0	0.12302	1009.301	0.061
308.15	0.5	0.04942	1019.617	0.067
308.15	0.5	0.06946	1022.038	0.068
308.15	0.5	0.09049	1024.555	0.068
308.15	0.5	0.1094	1026.796	0.069
308.15	1	0.05019	1036.476	0.075
308.15	1	0.06938	1038.742	0.075
308.15	1	0.08946	1041.09	0.076
308.15	1	0.10957	1043.421	0.08
308.15	2	0.04968	1062.725	0.094
308.15	2	0.06904	1064.921	0.096
308.15	2	0.08889	1067.152	0.097
308.15	3	0.04954	1088.755	0.117
308.15	3	0.06835	1090.801	0.119
308.15	3	0.08861	1092.983	0.12
318.15	0	0.05005	996.5	0.06
318.15	0	0.06831	998.748	0.059
318.15	0	0.0946	1001.954	0.06
318.15	0	0.12302	1005.377	0.06
318.15	0.5	0.04942	1015.506	0.067
318.15	0.5	0.06946	1017.896	0.067
318.15	0.5	0.09049	1020.378	0.067
318.15	0.5	0.1094	1022.587	0.068
318.15	1	0.05019	1032.297	0.076
318.15	1	0.06938	1034.532	0.074
318.15	1	0.08946	1036.849	0.075
318.15	1	0.10957	1039.148	0.078
318.15	2	0.04968	1057.672	0.092
318.15	2	0.06904	1059.839	0.093
318.15	2	0.08889	1062.039	0.095
318.15	3	0.04954	1081.899	0.114
318.15	3	0.06835	1083.913	0.115
318.15	3	0.08861	1086.058	0.117

System: sodium acetate trihydrate + water + 4-O-.beta.-D-galactopyranosyl-D-glucose hydrate (1:1); phases: Liquid
Fixed: Pressure, kPa = 101.3
Property: Mass density, kg/m3 (Liquid); method: Vibrating tube method
Temperature, K	Molality, mol/kg of sodium acetate trihydrate	Molality, mol/kg of 4-O-.beta.-D-galactopyranosyl-D-glucose hydrate (1:1)	Mass density, kg/m3	uncertainty
288.15	0	0.04468	1005.078	0.06
288.15	0	0.07025	1008.421	0.061
288.15	0	0.08682	1010.567	0.062
288.15	0	0.0994	1012.183	0.063
288.15	0	0.11974	1014.775	0.064
288.15	0.5	0.04474	1025.213	0.069
288.15	0.5	0.07011	1028.478	0.07
288.15	0.5	0.09113	1031.153	0.07
288.15	0.5	0.09958	1032.22	0.072
288.15	0.5	0.10953	1033.471	0.072
288.15	0.5	0.1202	1034.804	0.072
288.15	1	0.04491	1042.975	0.077
288.15	1	0.06953	1046.074	0.078
288.15	1	0.08994	1048.613	0.079
288.15	1	0.09931	1049.768	0.08
288.15	1	0.10993	1051.071	0.081
288.15	1	0.1192	1052.202	0.08
288.15	2	0.04436	1073.29	0.099
288.15	2	0.06801	1076.142	0.1
288.15	2	0.08975	1078.733	0.102
288.15	2	0.09804	1079.712	0.105
288.15	2	0.10935	1081.042	0.104
288.15	2	0.11941	1082.218	0.103
288.15	3	0.04469	1098.181	0.119
288.15	3	0.06971	1101.095	0.121
288.15	3	0.08977	1103.401	0.122
288.15	3	0.10338	1104.952	0.123
288.15	3	0.10985	1105.684	0.124
288.15	3	0.11878	1106.691	0.125
298.15	0	0.04468	1002.947	0.06
298.15	0	0.07025	1006.261	0.061
298.15	0	0.08682	1008.387	0.061
298.15	0	0.0994	1009.988	0.062
298.15	0	0.11974	1012.557	0.063
298.15	0.5	0.04474	1022.529	0.068
298.15	0.5	0.07011	1025.75	0.069
298.15	0.5	0.09113	1028.387	0.07
298.15	0.5	0.09958	1029.438	0.071
298.15	0.5	0.10953	1030.671	0.071
298.15	0.5	0.1202	1031.986	0.072
298.15	1	0.04491	1040.363	0.076
298.15	1	0.06953	1043.417	0.077
298.15	1	0.08994	1045.918	0.078
298.15	1	0.09931	1047.057	0.079
298.15	1	0.10993	1048.342	0.08
298.15	1	0.1192	1049.457	0.079
298.15	2	0.04436	1067.418	0.097
298.15	2	0.06801	1070.234	0.099
298.15	2	0.08975	1072.787	0.1
298.15	2	0.09804	1073.755	0.101
298.15	2	0.10935	1075.067	0.102
298.15	2	0.11941	1076.226	0.103
298.15	3	0.04469	1095.258	0.119
298.15	3	0.06971	1098.114	0.121
298.15	3	0.08977	1100.376	0.122
298.15	3	0.10338	1101.896	0.123
298.15	3	0.10985	1102.614	0.124
298.15	3	0.11878	1103.6	0.124
308.15	0	0.04468	999.911	0.059
308.15	0	0.07025	1003.196	0.06
308.15	0	0.08682	1005.299	0.061
308.15	0	0.0994	1006.88	0.061
308.15	0	0.11974	1009.417	0.062
308.15	0.5	0.04474	1019.259	0.067
308.15	0.5	0.07011	1022.437	0.068
308.15	0.5	0.09113	1025.038	0.068
308.15	0.5	0.09958	1026.076	0.07
308.15	0.5	0.10953	1027.291	0.069
308.15	0.5	0.1202	1028.588	0.07
308.15	1	0.04491	1036.05	0.074
308.15	1	0.06953	1039.063	0.075
308.15	1	0.08994	1041.534	0.076
308.15	1	0.09931	1042.658	0.077
308.15	1	0.10993	1043.927	0.078
308.15	1	0.1192	1045.028	0.078
308.15	2	0.04436	1062.299	0.094
308.15	2	0.06801	1065.079	0.096
308.15	2	0.08975	1067.603	0.097
308.15	2	0.09804	1068.557	0.098
308.15	2	0.10935	1069.853	0.099
308.15	2	0.11941	1070.999	0.099
308.15	3	0.04469	1088.401	0.117
308.15	3	0.06971	1091.219	0.119
308.15	3	0.08977	1093.452	0.121
308.15	3	0.10338	1094.953	0.122
308.15	3	0.10985	1095.662	0.122
308.15	3	0.11878	1096.635	0.123
318.15	0	0.04468	996.053	0.06
318.15	0	0.07025	999.314	0.059
318.15	0	0.08682	1001.407	0.059
318.15	0	0.0994	1002.981	0.06
318.15	0	0.11974	1005.508	0.061
318.15	0.5	0.04474	1015.154	0.067
318.15	0.5	0.07011	1018.298	0.067
318.15	0.5	0.09113	1020.872	0.067
318.15	0.5	0.09958	1021.898	0.069
318.15	0.5	0.10953	1023.101	0.068
318.15	0.5	0.1202	1024.385	0.07
318.15	1	0.04491	1031.862	0.075
318.15	1	0.06953	1034.824	0.074
318.15	1	0.08994	1037.251	0.075
318.15	1	0.09931	1038.356	0.076
318.15	1	0.10993	1039.602	0.077
318.15	1	0.1192	1040.683	0.078
318.15	2	0.04436	1057.255	0.092
318.15	2	0.06801	1059.997	0.093
318.15	2	0.08975	1062.485	0.095
318.15	2	0.09804	1063.427	0.096
318.15	2	0.10935	1064.703	0.096
318.15	2	0.11941	1065.831	0.097
318.15	3	0.04469	1081.544	0.114
318.15	3	0.06971	1084.316	0.116
318.15	3	0.08977	1086.51	0.117
318.15	3	0.10338	1087.984	0.118
318.15	3	0.10985	1088.681	0.119
318.15	3	0.11878	1089.638	0.119

System: sodium acetate trihydrate + D-(+)-trehalose dihydrate + water; phases: Liquid
Fixed: Pressure, kPa = 101.3
Property: Mass density, kg/m3 (Liquid); method: Vibrating tube method
Temperature, K	Molality, mol/kg of sodium acetate trihydrate	Molality, mol/kg of D-(+)-trehalose dihydrate	Mass density, kg/m3	uncertainty
288.15	0	0.05047	1005.921	0.06
288.15	0	0.06659	1008.054	0.06
288.15	0	0.09888	1012.278	0.062
288.15	0.5	0.05162	1026.123	0.069
288.15	0.5	0.0707	1028.58	0.069
288.15	0.5	0.08678	1030.632	0.069
288.15	1	0.05004	1043.632	0.078
288.15	1	0.06815	1045.914	0.078
288.15	1	0.09888	1049.737	0.079
288.15	2	0.04923	1073.894	0.1
288.15	2	0.07	1076.398	0.101
288.15	2	0.09607	1079.503	0.103
288.15	3	0.05084	1098.845	0.119
288.15	3	0.07036	1101.09	0.121
288.15	3	0.09731	1104.145	0.123
298.15	0	0.05047	1003.772	0.06
298.15	0	0.06659	1005.885	0.059
298.15	0	0.09888	1010.066	0.061
298.15	0.5	0.05162	1023.424	0.067
298.15	0.5	0.0707	1025.845	0.069
298.15	0.5	0.08678	1027.865	0.067
298.15	1	0.05004	1041.008	0.077
298.15	1	0.06815	1043.254	0.077
298.15	1	0.09888	1047.017	0.078
298.15	2	0.04923	1068.015	0.097
298.15	2	0.07	1070.489	0.099
298.15	2	0.09607	1073.554	0.101
298.15	3	0.05084	1095.929	0.12
298.15	3	0.07036	1098.136	0.121
298.15	3	0.09731	1101.14	0.123
308.15	0	0.05047	1000.731	0.06
308.15	0	0.06659	1002.825	0.058
308.15	0	0.09888	1006.971	0.06
308.15	0.5	0.05162	1020.142	0.067
308.15	0.5	0.0707	1022.533	0.067
308.15	0.5	0.08678	1024.529	0.065
308.15	1	0.05004	1036.687	0.075
308.15	1	0.06815	1038.902	0.075
308.15	1	0.09888	1042.612	0.077
308.15	2	0.04923	1062.886	0.094
308.15	2	0.07	1065.326	0.096
308.15	2	0.09607	1068.35	0.098
308.15	3	0.05084	1089.068	0.118
308.15	3	0.07036	1091.251	0.119
308.15	3	0.09731	1094.227	0.121
318.15	0	0.05047	996.856	0.06
318.15	0	0.06659	998.933	0.058
318.15	0	0.09888	1003.044	0.059
318.15	0.5	0.05162	1016.009	0.069
318.15	0.5	0.0707	1018.365	0.066
318.15	0.5	0.08678	1020.331	0.064
318.15	1	0.05004	1032.494	0.076
318.15	1	0.06815	1034.673	0.074
318.15	1	0.09888	1038.326	0.081
318.15	2	0.04923	1057.816	0.093
318.15	2	0.07	1060.213	0.094
318.15	2	0.09607	1063.18	0.095
318.15	3	0.05084	1082.201	0.114
318.15	3	0.07036	1084.349	0.116
318.15	3	0.09731	1087.274	0.118

System: sodium acetate trihydrate + D-(+)-maltose monohydrate + water; phases: Liquid
Fixed: Pressure, kPa = 101.3
Property: Mass density, kg/m3 (Liquid); method: Vibrating tube method
Temperature, K	Molality, mol/kg of sodium acetate trihydrate	Molality, mol/kg of D-(+)-maltose monohydrate	Mass density, kg/m3	uncertainty
288.15	0	0.04501	1005.081	0.065
288.15	0	0.06996	1008.322	0.069
288.15	0	0.08975	1010.859	0.074
288.15	0	0.09945	1012.092	0.076
288.15	0	0.11936	1014.611	0.081
288.15	0.5	0.04454	1025.122	0.075
288.15	0.5	0.06962	1028.314	0.08
288.15	0.5	0.08826	1030.658	0.085
288.15	0.5	0.09932	1032.04	0.088
288.15	0.5	0.10984	1033.347	0.09
288.15	0.5	0.11792	1034.346	0.092
288.15	1	0.04454	1042.854	0.084
288.15	1	0.06962	1045.974	0.09
288.15	1	0.08826	1048.266	0.095
288.15	1	0.09932	1049.617	0.098
288.15	1	0.10984	1050.894	0.101
288.15	1	0.11792	1051.869	0.106
288.15	2	0.0447	1073.24	0.108
288.15	2	0.06908	1076.129	0.114
288.15	2	0.08865	1078.419	0.12
288.15	2	0.10012	1079.751	0.124
288.15	2	0.10997	1080.886	0.127
288.15	3	0.04416	1097.967	0.128
288.15	3	0.06978	1100.862	0.136
288.15	3	0.08959	1103.072	0.143
288.15	3	0.09964	1104.183	0.146
288.15	3	0.11037	1105.362	0.15
288.15	3	0.11903	1106.307	0.153
298.15	0	0.04501	1002.941	0.064
298.15	0	0.06996	1006.148	0.068
298.15	0	0.08975	1008.663	0.072
298.15	0	0.09945	1009.885	0.075
298.15	0	0.11936	1012.378	0.08
298.15	0.5	0.04454	1022.45	0.074
298.15	0.5	0.06962	1025.605	0.079
298.15	0.5	0.08826	1027.925	0.084
298.15	0.5	0.09932	1029.291	0.087
298.15	0.5	0.10984	1030.584	0.089
298.15	0.5	0.11792	1031.571	0.091
298.15	1	0.04454	1040.247	0.083
298.15	1	0.06962	1043.321	0.088
298.15	1	0.08826	1045.579	0.094
298.15	1	0.09932	1046.908	0.097
298.15	1	0.10984	1048.165	0.1
298.15	1	0.11792	1049.126	0.104
298.15	2	0.0447	1067.355	0.105
298.15	2	0.06908	1070.199	0.112
298.15	2	0.08865	1072.455	0.118
298.15	2	0.10012	1073.765	0.122
298.15	2	0.10997	1074.883	0.125
298.15	3	0.04416	1095.037	0.128
298.15	3	0.06978	1097.867	0.136
298.15	3	0.08959	1100.027	0.142
298.15	3	0.09964	1101.113	0.146
298.15	3	0.11037	1102.266	0.149
298.15	3	0.11903	1103.19	0.152
308.15	0	0.04501	999.898	0.063
308.15	0	0.06996	1003.071	0.068
308.15	0	0.08975	1005.56	0.072
308.15	0	0.09945	1006.772	0.074
308.15	0	0.11936	1009.234	0.079
308.15	0.5	0.04454	1019.174	0.073
308.15	0.5	0.06962	1022.29	0.078
308.15	0.5	0.08826	1024.58	0.082
308.15	0.5	0.09932	1025.929	0.085
308.15	0.5	0.10984	1027.206	0.087
308.15	0.5	0.11792	1028.181	0.089
308.15	1	0.04454	1035.928	0.081
308.15	1	0.06962	1038.954	0.087
308.15	1	0.08826	1041.177	0.092
308.15	1	0.09932	1042.484	0.095
308.15	1	0.10984	1043.722	0.098
308.15	1	0.11792	1044.666	0.103
308.15	2	0.0447	1062.217	0.102
308.15	2	0.06908	1065.014	0.109
308.15	2	0.08865	1067.233	0.115
308.15	2	0.10012	1068.522	0.119
308.15	2	0.10997	1069.623	0.122
308.15	3	0.04416	1088.176	0.126
308.15	3	0.06978	1090.966	0.134
308.15	3	0.08959	1093.096	0.14
308.15	3	0.09964	1094.167	0.143
308.15	3	0.11037	1095.305	0.147
308.15	3	0.11903	1096.217	0.15
318.15	0	0.04501	996.021	0.064
318.15	0	0.06996	999.158	0.067
318.15	0	0.08975	1001.616	0.07
318.15	0	0.09945	1002.816	0.072
318.15	0	0.11936	1005.244	0.077
318.15	0.5	0.04454	1015.069	0.072
318.15	0.5	0.06962	1018.143	0.077
318.15	0.5	0.08826	1020.402	0.081
318.15	0.5	0.09932	1021.731	0.084
318.15	0.5	0.10984	1022.99	0.086
318.15	0.5	0.11792	1023.951	0.089
318.15	1	0.04454	1031.745	0.082
318.15	1	0.06962	1034.724	0.086
318.15	1	0.08826	1036.91	0.091
318.15	1	0.09932	1038.196	0.094
318.15	1	0.10984	1039.415	0.097
318.15	1	0.11792	1040.343	0.1
318.15	2	0.0447	1057.157	0.1
318.15	2	0.06908	1059.906	0.107
318.15	2	0.08865	1062.086	0.113
318.15	2	0.10012	1063.353	0.116
318.15	2	0.10997	1064.436	0.119
318.15	3	0.04416	1081.316	0.122
318.15	3	0.06978	1084.058	0.13
318.15	3	0.08959	1086.149	0.136
318.15	3	0.09964	1087.203	0.14
318.15	3	0.11037	1088.316	0.143
318.15	3	0.11903	1089.213	0.146

System: O-.alpha.-glucopyranosyl-(1,3)-O-.beta.-D- fructofuranosyl-(2,1)-.alpha.-D-glucopyranoside + sodium acetate trihydrate + water; phases: Liquid
Fixed: Pressure, kPa = 101.3
Property: Mass density, kg/m3 (Liquid); method: Vibrating tube method
Temperature, K	Molality, mol/kg of sodium acetate trihydrate	Molality, mol/kg of O-.alpha.-glucopyranosyl-(1,3)-O-.beta.-D- fructofuranosyl-(2,1)-.alpha.-D-glucopyranoside	Mass density, kg/m3	uncertainty
288.15	0	0.04525	1007.389	0.062
288.15	0	0.05916	1009.878	0.063
288.15	0	0.08072	1013.689	0.065
288.15	0.5	0.04434	1027.313	0.072
288.15	0.5	0.05879	1029.853	0.071
288.15	0.5	0.06751	1031.374	0.072
288.15	0.5	0.08014	1033.559	0.069
288.15	1	0.04504	1045.109	0.08
288.15	1	0.05975	1047.632	0.08
288.15	1	0.07032	1049.43	0.08
288.15	1	0.07857	1050.823	0.08
288.15	2	0.04498	1075.341	0.103
288.15	2	0.05857	1077.559	0.102
288.15	2	0.06755	1079.013	0.103
288.15	2	0.0794	1080.917	0.103
288.15	3	0.04454	1100.002	0.12
288.15	3	0.05853	1102.192	0.122
288.15	3	0.06869	1103.77	0.123
288.15	3	0.07979	1105.479	0.124
298.15	0	0.04525	1005.288	0.062
298.15	0	0.05916	1007.769	0.062
298.15	0	0.08072	1011.57	0.064
298.15	0.5	0.04434	1024.663	0.071
298.15	0.5	0.05879	1027.19	0.071
298.15	0.5	0.06751	1028.703	0.071
298.15	0.5	0.08014	1030.879	0.068
298.15	1	0.04504	1042.535	0.08
298.15	1	0.05975	1045.045	0.079
298.15	1	0.07032	1046.834	0.08
298.15	1	0.07857	1048.221	0.079
298.15	2	0.04498	1069.501	0.098
298.15	2	0.05857	1071.707	0.1
298.15	2	0.06755	1073.153	0.101
298.15	2	0.0794	1075.047	0.103
298.15	3	0.04454	1097.11	0.122
298.15	3	0.05853	1099.275	0.122
298.15	3	0.06869	1100.831	0.123
298.15	3	0.07979	1102.518	0.123
308.15	0	0.04525	1002.259	0.062
308.15	0	0.05916	1004.727	0.062
308.15	0	0.08072	1008.506	0.063
308.15	0.5	0.04434	1021.395	0.07
308.15	0.5	0.05879	1023.901	0.07
308.15	0.5	0.06751	1025.402	0.069
308.15	0.5	0.08014	1027.557	0.067
308.15	1	0.04504	1038.226	0.077
308.15	1	0.05975	1040.711	0.077
308.15	1	0.07032	1042.482	0.079
308.15	1	0.07857	1043.854	0.077
308.15	2	0.04498	1064.399	0.096
308.15	2	0.05857	1066.59	0.097
308.15	2	0.06755	1068.026	0.098
308.15	2	0.0794	1069.906	0.099
308.15	3	0.04454	1090.292	0.119
308.15	3	0.05853	1092.451	0.12
308.15	3	0.06869	1094.004	0.121
308.15	3	0.07979	1095.688	0.123
318.15	0	0.04525	998.379	0.061
318.15	0	0.05916	1000.827	0.061
318.15	0	0.08072	1004.572	0.062
318.15	0.5	0.04434	1017.28	0.07
318.15	0.5	0.05879	1019.76	0.069
318.15	0.5	0.06751	1021.245	0.068
318.15	0.5	0.08014	1023.378	0.068
318.15	1	0.04504	1034.044	0.079
318.15	1	0.05975	1036.502	0.076
318.15	1	0.07032	1038.251	0.077
318.15	1	0.07857	1039.607	0.077
318.15	2	0.04498	1059.339	0.094
318.15	2	0.05857	1061.505	0.095
318.15	2	0.06755	1062.924	0.096
318.15	2	0.0794	1064.782	0.097
318.15	3	0.04454	1083.448	0.115
318.15	3	0.05853	1085.583	0.117
318.15	3	0.06869	1087.118	0.118
318.15	3	0.07979	1088.782	0.119

System: sodium acetate trihydrate + water + D-raffinose, pentahydrate; phases: Liquid
Fixed: Pressure, kPa = 101.3
Property: Mass density, kg/m3 (Liquid); method: Vibrating tube method
Temperature, K	Molality, mol/kg of sodium acetate trihydrate	Molality, mol/kg of D-raffinose, pentahydrate	Mass density, kg/m3	uncertainty
288.15	0	0.0491	1008.71	0.063
288.15	0	0.06991	1012.655	0.065
288.15	0	0.08905	1016.222	0.066
288.15	0	0.09776	1017.827	0.067
288.15	0.5	0.04995	1028.839	0.073
288.15	0.5	0.06802	1032.176	0.072
288.15	0.5	0.08835	1035.873	0.072
288.15	0.5	0.09899	1037.783	0.075
288.15	1	0.04999	1046.436	0.081
288.15	1	0.0691	1049.859	0.08
288.15	1	0.09048	1053.626	0.082
288.15	1	0.09858	1055.035	0.083
288.15	2	0.04884	1076.356	0.103
288.15	2	0.06585	1079.237	0.104
288.15	2	0.08455	1082.355	0.106
288.15	2	0.09966	1084.837	0.106
288.15	3	0.04952	1101.036	0.122
288.15	3	0.06716	1103.853	0.124
288.15	3	0.08894	1107.271	0.126
288.15	3	0.10023	1109.016	0.127
298.15	0	0.0491	1006.57	0.063
298.15	0	0.06991	1010.489	0.064
298.15	0	0.08905	1014.034	0.065
298.15	0	0.09776	1015.629	0.065
298.15	0.5	0.04995	1026.161	0.072
298.15	0.5	0.06802	1029.471	0.072
298.15	0.5	0.08835	1033.137	0.071
298.15	0.5	0.09899	1035.03	0.075
298.15	1	0.04999	1043.842	0.08
298.15	1	0.0691	1047.237	0.08
298.15	1	0.09048	1050.972	0.082
298.15	1	0.09858	1052.369	0.082
298.15	2	0.04884	1070.5	0.099
298.15	2	0.06585	1073.36	0.102
298.15	2	0.08455	1076.457	0.104
298.15	2	0.09966	1078.921	0.106
298.15	3	0.04952	1098.116	0.123
298.15	3	0.06716	1100.897	0.124
298.15	3	0.08894	1104.271	0.126
298.15	3	0.10023	1105.992	0.126
308.15	0	0.0491	1003.529	0.062
308.15	0	0.06991	1007.425	0.063
308.15	0	0.08905	1010.951	0.065
308.15	0	0.09776	1012.536	0.065
308.15	0.5	0.04995	1022.899	0.071
308.15	0.5	0.06802	1026.188	0.07
308.15	0.5	0.08835	1029.828	0.07
308.15	0.5	0.09899	1031.709	0.073
308.15	1	0.04999	1039.541	0.078
308.15	1	0.0691	1042.914	0.078
308.15	1	0.09048	1046.623	0.08
308.15	1	0.09858	1048.009	0.08
308.15	2	0.04884	1065.393	0.097
308.15	2	0.06585	1068.236	0.099
308.15	2	0.08455	1071.313	0.101
308.15	2	0.09966	1073.761	0.103
308.15	3	0.04952	1091.278	0.12
308.15	3	0.06716	1094.043	0.122
308.15	3	0.08894	1097.398	0.124
308.15	3	0.10023	1099.11	0.126
318.15	0	0.0491	999.684	0.061
318.15	0	0.06991	1003.568	0.062
318.15	0	0.08905	1007.082	0.063
318.15	0	0.09776	1008.661	0.064
318.15	0.5	0.04995	1018.829	0.071
318.15	0.5	0.06802	1022.104	0.069
318.15	0.5	0.08835	1025.733	0.07
318.15	0.5	0.09899	1027.606	0.072
318.15	1	0.04999	1035.404	0.079
318.15	1	0.0691	1038.762	0.078
318.15	1	0.09048	1042.458	0.079
318.15	1	0.09858	1043.839	0.08
318.15	2	0.04884	1060.369	0.095
318.15	2	0.06585	1063.193	0.096
318.15	2	0.08455	1066.25	0.098
318.15	2	0.09966	1068.682	0.1
318.15	3	0.04952	1084.464	0.116
318.15	3	0.06716	1087.214	0.118
318.15	3	0.08894	1090.551	0.121
318.15	3	0.10023	1092.254	0.122
