Measured thermophysical data. Thermodynamic functions for solubility of 2-mercaptobenzothiazole in eleven pure organic solvents at temperatures from 273.15 K to 318.15 K and mixing properties of solutions
Source: J. Chem. Thermodyn., 2017, 10.1016/j.jct.2017.05.013
Compound 1: 2(3H)-benzothiazolethione, C7H5NS2, InChI=1S/C7H5NS2/c9-7-8-5-3-1-2-4-6(5)10-7/h1-4H,(H,8,9), purity 98.5%
Compound 2: methanol, CH4O, InChI=1S/CH4O/c1-2/h2H,1H3, purity 99.4%
Compound 3: propan-1-ol, C3H8O, InChI=1S/C3H8O/c1-2-3-4/h4H,2-3H2,1H3, purity 99.2%
Compound 4: butan-1-ol, C4H10O, InChI=1S/C4H10O/c1-2-3-4-5/h5H,2-4H2,1H3, purity 99.3%
Compound 5: acetonitrile, C2H3N, InChI=1S/C2H3N/c1-2-3/h1H3, purity 99.5%
Compound 6: ethyl acetate, C4H8O2, InChI=1S/C4H8O2/c1-3-6-4(2)5/h3H2,1-2H3, purity 99.3%
Compound 7: toluene, C7H8, InChI=1S/C7H8/c1-7-5-3-2-4-6-7/h2-6H,1H3, purity 99.2%
Compound 8: butanone, C4H8O, InChI=1S/C4H8O/c1-3-4(2)5/h3H2,1-2H3, purity 99.2%
Compound 9: trichloromethane, CHCl3, InChI=1S/CHCl3/c2-1(3)4/h1H, purity 99.3%
Compound 10: 1,4-dioxane, C4H8O2, InChI=1S/C4H8O2/c1-2-6-4-3-5-1/h1-4H2, purity 99.2%
Compound 11: 2-methyl-1-propanol, C4H10O, InChI=1S/C4H10O/c1-4(2)3-5/h4-5H,3H2,1-2H3, purity 99.2%
Compound 12: propan-2-ol, C3H8O, InChI=1S/C3H8O/c1-3(2)4/h3-4H,1-2H3, purity 99.2%

System: methanol + 2(3H)-benzothiazolethione; phases: Liquid, Crystal
Fixed: Pressure, kPa = 101.2
Property: Mole fraction of 2(3H)-benzothiazolethione (Liquid); method: Chromatography
Temperature, K	Mole fraction of 2(3H)-benzothiazolethione	uncertainty
273.15	0.007327	0.000396
275.65	0.007945	0.000429
278.15	0.008676	0.000469
280.65	0.009457	0.000511
283.15	0.01027	0.00056
285.65	0.01107	0.0006
288.15	0.01212	0.00066
290.65	0.01311	0.00071
293.15	0.01408	0.00076
295.65	0.0153	0.00083
298.15	0.01643	0.00089
300.65	0.01776	0.00096
303.15	0.01919	0.00104
305.65	0.02049	0.00111
308.15	0.02198	0.00119
310.65	0.02346	0.00127
313.15	0.0252	0.00136
315.65	0.02692	0.00146
318.15	0.02885	0.00156

System: propan-1-ol + 2(3H)-benzothiazolethione; phases: Liquid, Crystal
Fixed: Pressure, kPa = 101.2
Property: Mole fraction of 2(3H)-benzothiazolethione (Liquid); method: Chromatography
Temperature, K	Mole fraction of 2(3H)-benzothiazolethione	uncertainty
273.15	0.01505	0.00081
275.65	0.01602	0.00087
278.15	0.01702	0.00092
280.65	0.01813	0.00098
283.15	0.01939	0.00105
285.65	0.02054	0.00111
288.15	0.02188	0.00118
290.65	0.02321	0.00125
293.15	0.02454	0.00133
295.65	0.02604	0.00141
298.15	0.02766	0.00149
300.65	0.02905	0.00157
303.15	0.03089	0.00167
305.65	0.03239	0.00175
308.15	0.0342	0.00185
310.65	0.03596	0.00194
313.15	0.03796	0.00205
315.65	0.04002	0.00216
318.15	0.04211	0.00228

System: butan-1-ol + 2(3H)-benzothiazolethione; phases: Liquid, Crystal
Fixed: Pressure, kPa = 101.2
Property: Mole fraction of 2(3H)-benzothiazolethione (Liquid); method: Chromatography
Temperature, K	Mole fraction of 2(3H)-benzothiazolethione	uncertainty
273.15	0.01985	0.00107
275.65	0.0211	0.00114
278.15	0.02242	0.00121
280.65	0.02375	0.00128
283.15	0.02524	0.00136
285.65	0.02651	0.00143
288.15	0.02812	0.00152
290.65	0.02987	0.00161
293.15	0.03141	0.0017
295.65	0.03324	0.0018
298.15	0.03494	0.00189
300.65	0.03681	0.00199
303.15	0.03862	0.00209
305.65	0.04052	0.00219
308.15	0.04251	0.0023
310.65	0.04505	0.00243
313.15	0.04684	0.00253
315.65	0.04892	0.00264
318.15	0.05131	0.00277

System: 2-methyl-1-propanol + 2(3H)-benzothiazolethione; phases: Liquid, Crystal
Fixed: Pressure, kPa = 101.2
Property: Mole fraction of 2(3H)-benzothiazolethione (Liquid); method: Chromatography
Temperature, K	Mole fraction of 2(3H)-benzothiazolethione	uncertainty
273.15	0.01008	0.00054
275.65	0.01102	0.0006
278.15	0.01203	0.00065
280.65	0.01317	0.00071
283.15	0.01435	0.00078
285.65	0.01552	0.00084
288.15	0.0169	0.00091
290.65	0.0184	0.00099
293.15	0.0199	0.00108
295.65	0.0215	0.00116
298.15	0.02312	0.00125
300.65	0.02516	0.00136
303.15	0.02696	0.00146
305.65	0.02916	0.00158
308.15	0.03114	0.00168
310.65	0.03364	0.00182
313.15	0.03614	0.00195
315.65	0.03859	0.00209
318.15	0.04115	0.00222

System: propan-2-ol + 2(3H)-benzothiazolethione; phases: Liquid, Crystal
Fixed: Pressure, kPa = 101.2
Property: Mole fraction of 2(3H)-benzothiazolethione (Liquid); method: Chromatography
Temperature, K	Mole fraction of 2(3H)-benzothiazolethione	uncertainty
273.15	0.009495	0.000513
275.65	0.01028	0.00056
278.15	0.01106	0.0006
280.65	0.01218	0.00066
283.15	0.01343	0.00073
285.65	0.0148	0.0008
288.15	0.01607	0.00087
290.65	0.01751	0.00095
293.15	0.01915	0.00104
295.65	0.02076	0.00112
298.15	0.02236	0.00121
300.65	0.02421	0.00131
303.15	0.02609	0.00141
305.65	0.02821	0.00152
308.15	0.03048	0.00165
310.65	0.03283	0.00177
313.15	0.03518	0.0019
315.65	0.03778	0.00204
318.15	0.04075	0.0022

System: acetonitrile + 2(3H)-benzothiazolethione; phases: Liquid, Crystal
Fixed: Pressure, kPa = 101.2
Property: Mole fraction of 2(3H)-benzothiazolethione (Liquid); method: Chromatography
Temperature, K	Mole fraction of 2(3H)-benzothiazolethione	uncertainty
273.15	0.004263	0.00023
275.65	0.004674	0.000253
278.15	0.005074	0.000274
280.65	0.00553	0.000299
283.15	0.005968	0.000323
285.65	0.006465	0.000349
288.15	0.00705	0.000381
290.65	0.007623	0.000412
293.15	0.008193	0.000443
295.65	0.008845	0.000478
298.15	0.009559	0.000517
300.65	0.01024	0.00055
303.15	0.01102	0.0006
305.65	0.01182	0.00064
308.15	0.0127	0.00069
310.65	0.01365	0.00074
313.15	0.01461	0.00079
315.65	0.01546	0.00084
318.15	0.01668	0.0009

System: ethyl acetate + 2(3H)-benzothiazolethione; phases: Liquid, Crystal
Fixed: Pressure, kPa = 101.2
Property: Mole fraction of 2(3H)-benzothiazolethione (Liquid); method: Chromatography
Temperature, K	Mole fraction of 2(3H)-benzothiazolethione	uncertainty
273.15	0.02739	0.00148
275.65	0.02856	0.00154
278.15	0.02971	0.00161
280.65	0.03087	0.00167
283.15	0.03228	0.00174
285.65	0.03359	0.00182
288.15	0.03475	0.00188
290.65	0.03609	0.00195
293.15	0.03737	0.00202
295.65	0.03892	0.0021
298.15	0.04031	0.00218
300.65	0.04188	0.00226
303.15	0.04337	0.00234
305.65	0.04478	0.00242
308.15	0.04654	0.00252
310.65	0.0482	0.0026
313.15	0.0499	0.0027
315.65	0.05132	0.00277
318.15	0.05321	0.00288

System: toluene + 2(3H)-benzothiazolethione; phases: Liquid, Crystal
Fixed: Pressure, kPa = 101.2
Property: Mole fraction of 2(3H)-benzothiazolethione (Liquid); method: Chromatography
Temperature, K	Mole fraction of 2(3H)-benzothiazolethione	uncertainty
273.15	0.001915	0.000104
275.65	0.002049	0.000111
278.15	0.002203	0.000119
280.65	0.002362	0.000128
283.15	0.002538	0.000137
285.65	0.002716	0.000147
288.15	0.002904	0.000157
290.65	0.0031	0.000168
293.15	0.00333	0.00018
295.65	0.00354	0.000191
298.15	0.003783	0.000204
300.65	0.004046	0.000219
303.15	0.004272	0.000231
305.65	0.004543	0.000246
308.15	0.004823	0.000261
310.65	0.005102	0.000276
313.15	0.005436	0.000294
315.65	0.005724	0.000309
318.15	0.00608	0.000329

System: butanone + 2(3H)-benzothiazolethione; phases: Liquid, Crystal
Fixed: Pressure, kPa = 101.2
Property: Mole fraction of 2(3H)-benzothiazolethione (Liquid); method: Chromatography
Temperature, K	Mole fraction of 2(3H)-benzothiazolethione	uncertainty
273.15	0.06953	0.00376
275.65	0.07225	0.0039
278.15	0.07525	0.00407
280.65	0.07781	0.00421
283.15	0.08073	0.00436
285.65	0.08365	0.00452
288.15	0.0867	0.00469
290.65	0.0902	0.00487
293.15	0.09295	0.00502
295.65	0.0967	0.00523
298.15	0.09948	0.00538
300.65	0.103	0.0056
303.15	0.1064	0.0058
305.65	0.1097	0.0059
308.15	0.113	0.0061
310.65	0.1164	0.0063
313.15	0.1202	0.0065
315.65	0.1242	0.0067
318.15	0.1278	0.0069

System: 1,4-dioxane + 2(3H)-benzothiazolethione; phases: Liquid, Crystal
Fixed: Pressure, kPa = 101.2
Property: Mole fraction of 2(3H)-benzothiazolethione (Liquid); method: Chromatography
Temperature, K	Mole fraction of 2(3H)-benzothiazolethione	uncertainty
285.65	0.04383	0.00237
288.15	0.04658	0.00252
290.65	0.05018	0.00271
293.15	0.05364	0.0029
295.65	0.0574	0.0031
298.15	0.06133	0.00331
300.65	0.06516	0.00352
303.15	0.0698	0.00377
305.65	0.0742	0.00401
308.15	0.07896	0.00427
310.65	0.08349	0.00451
313.15	0.08929	0.00483
315.65	0.09431	0.0051
318.15	0.1008	0.0054

System: trichloromethane + 2(3H)-benzothiazolethione; phases: Liquid, Crystal
Fixed: Pressure, kPa = 101.2
Property: Mole fraction of 2(3H)-benzothiazolethione (Liquid); method: Chromatography
Temperature, K	Mole fraction of 2(3H)-benzothiazolethione	uncertainty
273.15	0.006832	0.000369
275.65	0.007199	0.000389
278.15	0.007657	0.000414
280.65	0.008163	0.000441
283.15	0.00865	0.000468
285.65	0.009224	0.000499
288.15	0.009723	0.000526
290.65	0.01036	0.00056
293.15	0.01088	0.00059
295.65	0.01149	0.00062
298.15	0.01209	0.00065
300.65	0.01277	0.00069
303.15	0.01347	0.00073
305.65	0.01417	0.00077
308.15	0.01489	0.0008
310.65	0.01564	0.00085
313.15	0.01647	0.00089
315.65	0.01717	0.00093
318.15	0.01819	0.00098
