Measured thermophysical data. Thermodynamic and structural investigation of caesium-nickel monophosphate CsNiPO4
Source: J. Chem. Thermodyn., 2019, 10.1016/j.jct.2018.10.006
Compound 1: cesium nickel monophosphate, CsNiO4P, InChI=1S/Cs.Ni.H3O4P/c;;1-5(2,3)4/h;;(H3,1,2,3,4)/q+1;+2;/p-3, purity 99.5%

System: cesium nickel monophosphate; phases: Crystal 2, Crystal 1, Air at 1 atmosphere
Property: Molar enthalpy of transition or fusion, kJ/mol (Crystal 2); method: DSC
Molar enthalpy of transition or fusion, kJ/mol	uncertainty
1.405	0.121

System: cesium nickel monophosphate; phases: Crystal 2, Crystal 1, Air at 1 atmosphere
Property: Triple point temperature, K (Crystal 2); method: DSC
Triple point temperature, K	uncertainty
382.8	0.8

System: cesium nickel monophosphate; phases: Crystal 2
Fixed: Pressure, kPa = 101.325
Property: Molar heat capacity at constant pressure, J/K/mol (Crystal 2); method: Small (less than 1 g) adiabatic calorimetry
Temperature, K	Molar heat capacity at constant pressure, J/K/mol	uncertainty
6.21	1.2554834298	0.041572299
6.51	1.413458166	0.041572299
6.82	1.6046907414	0.0498867588
7.13	1.787608857	0.0498867588
7.51	1.9871558922	0.0582012186
7.97	2.1950173872	0.0582012186
8.43	2.4444511812	0.0665156784
8.87	2.6273692968	0.0665156784
9.32	2.9017464702	0.0748301382
9.77	3.1761236436	0.083144598
10.24	3.492073116	0.0914590578
10.72	3.907796106	0.0997735176
11.23	4.2985757166	0.1080879774
11.76	4.7558710056	0.1164024372
12.55	5.4958579278	0.1330313568
13.09	6.1194424128	0.1496602764
13.82	6.8261714958	0.1579747362
14.55	7.566158418	0.1746036558
15.28	8.4308622372	0.1080879774
16.02	9.14590578	0.1164024372
16.77	9.8443204032	0.1164024372
17.78	10.7339676018	0.124716897
18.33	11.307665328	0.1330313568
19.12	12.0725956296	0.1330313568
19.94	13.0287585066	0.1413458166
21.96	15.215461434	0.1579747362
24.23	17.5601390976	0.166289196
26.66	20.6697470628	0.1829181156
29.06	23.4966633948	0.1912325754
31.53	26.2820074278	0.207861495
34.01	28.6266850914	0.2244904146
36.46	30.8133880188	0.2411193342
38.9	33.3243548784	0.249433794
41.34	35.6025168636	0.2244904146
43.79	38.0635969644	0.2328048744
46.25	40.1006396154	0.2411193342
48.71	42.5617197162	0.2577482538
51.87	45.563239704	0.2660627136
53.99	47.5670245158	0.2826916332
56.52	50.1195636744	0.291006093
58.51	51.8656002324	0.2993205528
61.71	54.334994793	0.3076350126
63.47	55.4241890268	0.3159494724
67.49	58.658513889	0.332578392
68.37	59.489959869	0.332578392
70.84	61.1777952084	0.3408928518
73.34	62.6161967538	0.3492073116
75.82	64.02134046	0.3575217714
78.29	65.3350251084	0.3575217714
80.75	66.681967596	0.3658362312
83.21	67.9125076464	0.374150691
85.67	69.259450134	0.374150691
88.13	70.9555999332	0.3824651508
81.73	67.2307219428	0.3658362312
85.55	69.259450134	0.374150691
88.91	71.0387445312	0.3824651508
92.27	73.0757871822	0.41572299
95.63	74.8218237402	0.41572299
98.99	76.7507784138	0.4240374498
102.34	78.9541102608	0.4323519096
105.7	80.6668889796	0.4406663694
109.06	82.687302711	0.4489808292
112.41	84.059188578	0.498867588
115.76	85.555791342	0.498867588
119.1	86.802960312	0.498867588
122.44	88.216418478	0.498867588
125.78	89.962455036	0.498867588
129.12	91.04333481	0.498867588
132.46	92.373648378	0.498867588
135.8	93.288238956	0.498867588
139.13	94.951130916	0.498867588
142.46	96.614022876	0.498867588
145.78	97.861191846	0.498867588
149.1	99.025216218	0.498867588
152.42	100.438674384	0.498867588
155.74	101.685843354	0.498867588
159.04	103.265590716	0.498867588
162.35	104.76219348	0.582012186
165.65	106.00936245	0.582012186
168.95	107.838543606	0.582012186
172.25	108.753134184	0.582012186
175.54	109.834013958	0.582012186
178.83	111.496905918	0.582012186
182.12	112.827219486	0.582012186
185.4	113.824954662	0.582012186
188.67	115.238412828	0.582012186
191.94	116.319292602	0.582012186
195.21	116.984449386	0.582012186
198.48	118.06532916	0.582012186
201.74	119.561931924	0.582012186
205	120.14394411	0.582012186
208.27	121.058534688	0.582012186
211.53	122.139414462	0.582012186
214.79	122.555137452	0.582012186
218.05	123.636017226	0.582012186
221.32	124.218029412	0.582012186
224.58	125.631487578	0.665156784
227.84	126.37978896	0.665156784
231.11	127.128090342	0.665156784
234.38	128.208970116	0.665156784
237.64	129.123560694	0.665156784
240.88	129.622428282	0.665156784
244.15	130.703308056	0.665156784
247.41	131.534754036	0.665156784
250.68	132.283055418	0.665156784
253.95	133.0313568	0.665156784
257.21	133.696513584	0.665156784
260.47	135.10997175	0.665156784
263.74	135.94141773	0.665156784
266.99	137.1885867	0.665156784
270.25	138.685189464	0.665156784
273.51	139.516635444	0.665156784
276.77	140.431226022	0.665156784
280.02	141.595250394	0.665156784
283.26	142.676130168	0.665156784
286.51	143.84015454	0.665156784
289.74	145.004178912	0.665156784
292.94	146.500781676	0.748301382
296.16	147.249083058	0.748301382
299.38	148.579396626	0.748301382
302.59	150.408577782	0.748301382
305.8	151.406312958	0.748301382
309.01	152.57033733	0.748301382
312.23	153.8175063	0.748301382
315.44	154.815241476	0.748301382
318.66	155.48039826	0.748301382
321.9	156.228699642	0.748301382
325.15	157.392724014	0.748301382
328.41	158.224169994	0.748301382
331.69	159.388194366	0.748301382
334.97	160.302784944	0.748301382
338.28	161.217375522	0.748301382
341.58	162.797122884	0.748301382

System: cesium nickel monophosphate; phases: Crystal 2
Fixed: Pressure, kPa = 101.325
Property: Molar heat capacity at constant pressure, J/K/mol (Crystal 2); method: DSC
Temperature, K	Molar heat capacity at constant pressure, J/K/mol	uncertainty
320.8	155.48039826	6.65156784
321.8	156.31184424	6.65156784
322.8	156.31184424	6.65156784
323.8	156.31184424	6.65156784
324.8	157.14329022	6.65156784
325.8	157.14329022	6.65156784
326.8	157.9747362	6.65156784
327.8	157.9747362	6.65156784
328.8	158.80618218	6.65156784
329.8	158.80618218	6.65156784
330.8	159.63762816	6.65156784
331.8	159.63762816	6.65156784
332.8	159.63762816	6.65156784
333.8	160.46907414	6.65156784
334.8	160.46907414	6.65156784
335.8	161.30052012	6.65156784
336.8	161.30052012	6.65156784
337.8	161.30052012	6.65156784
338.8	162.1319661	6.65156784
339.8	162.1319661	6.65156784
340.8	162.1319661	6.65156784
341.8	162.96341208	7.48301382
342.8	162.96341208	7.48301382
343.8	162.96341208	7.48301382
344.8	162.96341208	7.48301382
345.8	163.79485806	7.48301382
346.8	163.79485806	7.48301382
347.8	163.79485806	7.48301382
348.8	164.62630404	7.48301382
349.8	165.45775002	7.48301382
350.8	165.45775002	7.48301382
351.8	165.45775002	7.48301382
352.8	166.289196	7.48301382
353.8	167.12064198	7.48301382
354.8	167.12064198	7.48301382
355.8	167.12064198	7.48301382
356.8	167.95208796	7.48301382
357.8	167.95208796	7.48301382
358.8	168.78353394	7.48301382
359.8	168.78353394	7.48301382
360.8	169.61497992	7.48301382
361.8	170.4464259	7.48301382
362.8	170.4464259	7.48301382
363.8	170.4464259	7.48301382
364.8	171.27787188	7.48301382
365.8	172.10931786	7.48301382
366.8	172.10931786	7.48301382
367.8	172.94076384	7.48301382
368.8	172.94076384	7.48301382
369.8	172.94076384	7.48301382
370.8	173.77220982	7.48301382
371.8	173.77220982	7.48301382
372.8	174.6036558	7.48301382
373.8	175.43510178	7.48301382
374.8	177.09799374	7.48301382
376.3	180.42377766	7.48301382

System: cesium nickel monophosphate; phases: Crystal 1
Fixed: Pressure, kPa = 101.325
Property: Molar heat capacity at constant pressure, J/K/mol (Crystal 1); method: DSC
Temperature, K	Molar heat capacity at constant pressure, J/K/mol	uncertainty
387.8	183.74956158	8.3144598
388.8	179.59233168	7.48301382
389.8	177.92943972	7.48301382
390.8	177.09799374	7.48301382
391.8	177.09799374	7.48301382
392.8	177.09799374	7.48301382
393.8	177.09799374	7.48301382
394.8	176.26654776	7.48301382
395.8	177.09799374	7.48301382
396.8	176.26654776	7.48301382
397.8	176.26654776	7.48301382
398.8	176.26654776	7.48301382
399.8	176.26654776	7.48301382
400.8	175.43510178	7.48301382
402.8	175.43510178	7.48301382
404.8	174.6036558	7.48301382
407.1	174.6036558	7.48301382
408.8	174.6036558	7.48301382
410.8	174.6036558	7.48301382
412.8	174.6036558	7.48301382
414.8	174.6036558	7.48301382
416.8	174.6036558	7.48301382
418.8	174.6036558	7.48301382
420.8	174.6036558	7.48301382
422.8	174.6036558	7.48301382
424.8	174.6036558	7.48301382
426.8	174.6036558	7.48301382
428.8	174.6036558	7.48301382
430.8	174.6036558	7.48301382
432.8	174.6036558	7.48301382
434.8	174.6036558	7.48301382
436.8	174.6036558	7.48301382
438.8	174.6036558	7.48301382
440.8	173.77220982	7.48301382
442.8	174.6036558	7.48301382
444.8	174.6036558	7.48301382
446.8	174.6036558	7.48301382
448.8	173.77220982	7.48301382
450.8	173.77220982	7.48301382
452.8	173.77220982	7.48301382
454.8	174.6036558	7.48301382
456.8	173.77220982	7.48301382
458.8	174.6036558	7.48301382
460.8	174.6036558	7.48301382
462.8	174.6036558	7.48301382
464.8	174.6036558	7.48301382
466.8	174.6036558	7.48301382
468.8	175.43510178	7.48301382
470.8	175.43510178	7.48301382
472.8	175.43510178	7.48301382
474.8	175.43510178	7.48301382
476.8	176.26654776	7.48301382
478.8	176.26654776	7.48301382
480.8	176.26654776	7.48301382
482.8	176.26654776	7.48301382
484.8	176.26654776	7.48301382
486.8	176.26654776	7.48301382
488.8	176.26654776	7.48301382
490.8	177.09799374	7.48301382
492.8	177.09799374	7.48301382
494.8	177.09799374	7.48301382
496.8	177.09799374	7.48301382
498.8	177.09799374	7.48301382
500.8	177.09799374	7.48301382
502.8	177.09799374	7.48301382
504.8	177.09799374	7.48301382
506.8	177.09799374	7.48301382
508.8	177.09799374	7.48301382
510.8	177.09799374	7.48301382
512.8	177.09799374	7.48301382
514.8	177.09799374	7.48301382
516.8	177.09799374	7.48301382
518.8	177.09799374	7.48301382
520.8	177.92943972	7.48301382
522.8	177.92943972	7.48301382
524.8	177.92943972	7.48301382
526.8	177.92943972	7.48301382
528.8	177.92943972	7.48301382
530.8	177.92943972	7.48301382
532.8	177.92943972	7.48301382
534.8	177.92943972	7.48301382
536.8	177.92943972	7.48301382
538.8	178.7608857	7.48301382
540.8	178.7608857	7.48301382
542.8	178.7608857	7.48301382
544.8	178.7608857	7.48301382
546.8	178.7608857	7.48301382
548.8	178.7608857	7.48301382
550.8	178.7608857	7.48301382
552.8	178.7608857	7.48301382
554.8	179.59233168	7.48301382
556.8	179.59233168	7.48301382
558.8	179.59233168	7.48301382
560.8	179.59233168	7.48301382
562.8	179.59233168	7.48301382
564.8	179.59233168	7.48301382
566.8	180.42377766	7.48301382
568.8	180.42377766	7.48301382
570.8	180.42377766	7.48301382
572.8	180.42377766	7.48301382
574.8	180.42377766	7.48301382
576.8	180.42377766	7.48301382
578.8	180.42377766	7.48301382
580.8	180.42377766	7.48301382
582.8	180.42377766	7.48301382
584.8	180.42377766	7.48301382
586.8	180.42377766	7.48301382
588.8	180.42377766	7.48301382
590.8	181.25522364	7.48301382
592.8	181.25522364	7.48301382
594.8	181.25522364	7.48301382
596.8	181.25522364	7.48301382
598.8	181.25522364	7.48301382
600.8	181.25522364	7.48301382
602.8	181.25522364	7.48301382
604.8	181.25522364	7.48301382
606.8	181.25522364	7.48301382
608.8	182.08666962	7.48301382
610.8	182.08666962	7.48301382
612.8	182.08666962	7.48301382
614.8	182.08666962	7.48301382
616.8	182.08666962	7.48301382
618.8	182.08666962	7.48301382
620.8	182.08666962	7.48301382
622.8	182.9181156	8.3144598
624.8	182.9181156	8.3144598
626.8	182.9181156	8.3144598
628.8	182.9181156	8.3144598
630.8	182.9181156	8.3144598
632.8	183.74956158	8.3144598
634.8	183.74956158	8.3144598
636.8	183.74956158	8.3144598
638.8	184.58100756	8.3144598
640.8	184.58100756	8.3144598
642.8	184.58100756	8.3144598
644.8	184.58100756	8.3144598
646.8	185.41245354	8.3144598
648.8	185.41245354	8.3144598

System: cesium nickel monophosphate; phases: Crystal 2
Fixed: Pressure, kPa = 101.325
Property: Molar heat capacity at constant pressure, J/K/mol (Crystal 2); method: Small (less than 1 g) adiabatic calorimetry
Temperature, K	Molar heat capacity at constant pressure, J/K/mol	uncertainty
5	0.8979616584	0.0332578392
6	1.2721123494	0.041572299
7	1.7210931786	0.0498867588
8	2.203331847	0.0582012186
9	2.7188283546	0.0748301382
10	3.3507272994	0.083144598
15	8.0317681668	0.1829181156
20	13.0620163458	0.1413458166
25	18.541245354	0.1746036558
30	24.6191154678	0.1995470352
35	29.557904589	0.2328048744
40	34.2638888358	0.2577482538
45	39.0696466002	0.2411193342
50	43.900347744	0.2660627136
60	52.9298510868	0.2993205528
70	60.4128649068	0.3408928518
80	66.3826470432	0.3658362312
90	71.6540145564	0.4074085302
100	77.5822243938	0.4323519096
110	82.9284220452	0.4489808292
120	87.3018279	0.498867588
130	91.375913202	0.498867588
140	95.366853906	0.498867588
150	99.524083806	0.498867588
160	103.681313706	0.498867588
170	107.838543606	0.582012186
180	111.82948431	0.582012186
190	115.404702024	0.582012186
200	118.730485944	0.582012186
210	121.640546874	0.582012186
220	124.384318608	0.582012186
230	126.878656548	0.665156784
240	129.372994488	0.665156784
250	132.033621624	0.665156784
260	134.943682554	0.665156784
270	138.186321876	0.665156784
273.15	139.26720165	0.665156784
280	141.678394992	0.665156784
290	145.419901902	0.665156784
298.15	148.41310743	0.748301382
300	149.078264214	0.748301382
310	152.653481928	0.748301382
320	155.89612125	0.748301382
330	158.889326778	0.748301382
340	161.965676904	4.074085302
350	165.04202703	4.1572299
360	169.19925693	4.240374498
370	173.35648683	4.406663694
380	176.26654776	4.489808292
382.8	176.68227075	4.489808292

System: cesium nickel monophosphate; phases: Crystal 2
Fixed: Pressure, kPa = 101.325
Property: Molar enthalpy function {Hm(T)-Hm(0)}/T, J/K/mol (Crystal 2); method: Small (less than 1 g) adiabatic calorimetry
Temperature, K	Molar enthalpy function {Hm(T)-Hm(0)}/T, J/K/mol	uncertainty
5	0.30015199878	0.01995470352
6	0.43318335558	0.02161759548
7	0.58533796992	0.0249433794
8	0.76243596366	0.0291006093
9	0.9478484172	0.0332578392
10	1.164024372	0.041572299
15	2.619054837	0.0665156784
20	4.60537928322	0.06318989448
25	6.82367715786	0.0789873681
30	9.2872515966	0.124716897
35	11.8397907552	0.1413458166
40	14.3507576148	0.1579747362
45	16.8284666352	0.1579747362
50	19.2978611958	0.166289196
60	24.1618201788	0.1995470352
70	28.8179176668	0.2244904146
80	33.1497512226	0.249433794
90	37.1490063864	0.3076350126
100	40.8905132964	0.332578392
110	44.4657310104	0.3492073116
120	47.8663450686	0.3658362312
130	51.0590976318	0.3824651508
140	54.0772465392	0.3990940704
150	56.9706785496	0.41572299
160	59.7560225826	0.4323519096
170	62.4665364774	0.4489808292
180	65.102220234	0.457295289
190	67.6547593926	0.4739242086
200	70.1241539532	0.4905531282
210	72.5104039158	0.498867588
220	74.8135092804	0.5154965076
230	77.0168411274	0.5238109674
240	79.1453428362	0.540439887
250	81.2073288666	0.5487543468
260	83.227742598	0.582012186
270	85.22321295	0.582012186
273.15	85.805225136	0.582012186
280	87.135538704	0.582012186
290	89.131009056	0.582012186
298.15	90.710756418	0.582012186
300	91.04333481	0.582012186
310	92.955660564	0.582012186
320	94.867986318	0.665156784
330	96.780312072	0.665156784
340	98.609493228	2.660627136
350	100.521818982	2.743771734
360	102.351000138	2.826916332
370	104.180181294	2.826916332
380	106.092507048	2.91006093
382.8	106.591374636	2.91006093

System: cesium nickel monophosphate; phases: Crystal 2
Fixed: Pressure, kPa = 101.325
Property: Molar entropy, J/K/mol (Crystal 2); method: Small (less than 1 g) adiabatic calorimetry
Temperature, K	Molar entropy, J/K/mol	uncertainty
5	0.46644119478	0.03408928518
6	0.66183100008	0.04074085302
7	0.8896471986	0.0498867588
8	1.1473954524	0.0582012186
9	1.4384015454	0.0665156784
10	1.7626654776	0.083144598
15	3.9410539452	0.1579747362
20	6.94423682496	0.13802003268
25	10.4263325892	0.1829181156
30	14.3507576148	0.249433794
35	18.5246164344	0.2993205528
40	22.781619852	0.3575217714
45	27.0968244882	0.3492073116
50	31.4619158832	0.3907796106
60	40.2752432712	0.4822386684
70	49.013740521	0.5736977262
80	57.494489517	0.665156784
90	65.6260312014	0.7649303016
100	73.4665667928	0.8397604398
110	81.1158698088	0.914590578
120	88.54899687	0.997735176
130	95.699432298	1.080879774
140	102.600433932	1.164024372
150	109.33514637	1.164024372
160	115.903569612	1.24716897
170	122.305703658	1.330313568
180	128.541548508	1.413458166
190	134.69424876	1.413458166
200	140.680659816	1.496602764
210	146.583926274	1.579747362
220	152.320903536	1.579747362
230	157.891591602	1.66289196
240	163.37913507	1.746036558
250	168.700389342	1.746036558
260	173.938499016	1.829181156
270	179.093464092	1.912325754
273.15	180.673211454	1.912325754
280	184.16528457	1.912325754
290	189.15396045	1.995470352
298.15	193.228045752	1.995470352
300	194.14263633	1.995470352
310	199.13131221	2.07861495
320	204.036843492	2.161759548
330	208.859230176	2.161759548
340	213.68161686	9.644773368
350	218.420858946	9.894207162
360	223.076956434	10.143640956
370	227.81619852	10.309930152
380	232.472296008	10.559363946
382.8	233.719464978	10.559363946

System: cesium nickel monophosphate; phases: Crystal 1
Fixed: Pressure, kPa = 101.325
Property: Molar heat capacity at constant pressure, J/K/mol (Crystal 1); method: DSC
Temperature, K	Molar heat capacity at constant pressure, J/K/mol	uncertainty
382.8	178.262018112	7.732447614
390	177.09799374	7.649303016
400	175.85082477	7.649303016
410	175.01937879	7.566158418
420	174.520511202	7.566158418
430	174.271077408	7.566158418
440	174.271077408	7.566158418
450	174.437366604	7.566158418
460	174.769944996	7.566158418
470	175.185667986	7.566158418
480	175.684535574	7.566158418
490	176.183403162	7.649303016
500	176.765415348	7.649303016
510	177.264282936	7.649303016
520	177.763150524	7.732447614
530	178.262018112	7.732447614
540	178.7608857	7.732447614
550	179.17660869	7.732447614
560	179.59233168	7.815592212
570	180.00805467	7.815592212
580	180.340633062	7.815592212
590	180.756356052	7.815592212
600	181.25522364	7.815592212
610	181.837235826	7.89873681
620	182.50239261	7.89873681
630	183.250693992	7.89873681
640	184.331573766	7.981881408
650	185.578742736	8.065026006

System: cesium nickel monophosphate; phases: Crystal 1
Fixed: Pressure, kPa = 101.325
Property: Molar enthalpy function {Hm(T)-Hm(0)}/T, J/K/mol (Crystal 1); method: DSC
Temperature, K	Molar enthalpy function {Hm(T)-Hm(0)}/T, J/K/mol	uncertainty
382.8	110.249736948	4.905531282
390	111.496905918	4.98867588
400	113.159797878	5.071820478
410	114.656400642	5.071820478
420	116.069858808	5.154965076
430	117.400172376	5.238109674
440	118.730485944	5.321254272
450	119.977654914	5.321254272
460	121.141679286	5.40439887
470	122.305703658	5.40439887
480	123.386583432	5.487543468
490	124.467463206	5.570688066
500	125.54834298	5.570688066
510	126.546078156	5.653832664
520	127.460668734	5.653832664
530	128.45840391	5.736977262
540	129.372994488	5.736977262
550	130.287585066	5.82012186
560	131.119031046	5.82012186
570	132.033621624	5.903266458
580	132.865067604	5.903266458
590	133.613368986	5.903266458
600	134.444814966	5.986411056
610	135.193116348	5.986411056
620	135.94141773	6.069555654
630	136.689719112	6.069555654
640	137.438020494	6.152700252
650	138.186321876	6.152700252

System: cesium nickel monophosphate; phases: Crystal 1
Fixed: Pressure, kPa = 101.325
Property: Molar entropy, J/K/mol (Crystal 1); method: DSC
Temperature, K	Molar entropy, J/K/mol	uncertainty
382.8	237.460971888	16.545775002
390	240.70361121	16.712064198
400	245.193419502	17.04464259
410	249.516938598	17.377220982
420	253.757313096	17.626654776
430	257.831398398	17.959233168
440	261.822339102	18.208666962
450	265.730135208	18.458100756
460	269.637931314	18.790679148
470	273.379438224	19.040112942
480	277.037800536	19.289546736
490	280.696162848	19.53898053
500	284.271380562	19.788414324
510	287.763453678	20.037848118
520	291.172382196	20.287281912
530	294.581310714	20.453571108
540	297.907094634	20.703004902
550	301.232878554	20.952438696
560	304.475517876	21.20187249
570	307.6350126	21.368161686
580	310.794507324	21.61759548
590	313.87085745	21.867029274
600	316.864062978	22.03331847
610	319.857268506	22.282752264
620	322.850474034	22.44904146
630	325.760534964	22.698475254
640	328.670595894	22.86476445
650	331.580656824	23.031053646

System: cesium nickel monophosphate; phases: Crystal 2
Property: Mass density, kg/m3 (Crystal 2); method: X-ray diffraction
Temperature, K	Pressure, kPa	Mass density, kg/m3	uncertainty
298	101.325	4218.3	10.3

System: cesium nickel monophosphate; phases: Crystal 1
Fixed: Pressure, kPa = 101.325
Property: Mass density, kg/m3 (Crystal 1); method: X-ray diffraction
Temperature, K	Mass density, kg/m3	uncertainty
473	4124	22
573	4090	80
673	4080	80
773	4040	18
873	4030	160
973	4000	80
1073	3980	60
