Measured thermophysical data. (Solid + liquid) equilibria of (naphthalene + isomeric dichlorobenzenes)
Source: J. Chem. Thermodyn., 2009, 10.1016/j.jct.2008.10.005
Compound 1: naphthalene, C10H8, InChI=1S/C10H8/c1-2-6-10-8-4-3-7-9(10)5-1/h1-8H
Compound 2: 1,2-dichlorobenzene, C6H4Cl2, InChI=1S/C6H4Cl2/c7-5-3-1-2-4-6(5)8/h1-4H
Compound 3: 1,3-dichlorobenzene, C6H4Cl2, InChI=1S/C6H4Cl2/c7-5-2-1-3-6(8)4-5/h1-4H
Compound 4: 1,4-dichlorobenzene, C6H4Cl2, InChI=1S/C6H4Cl2/c7-5-1-2-6(8)4-3-5/h1-4H

System: naphthalene; phases: Crystal, Liquid, Air at 1 atmosphere
Property: Molar enthalpy of transition or fusion, kJ/mol (Crystal); method: DSC
Molar enthalpy of transition or fusion, kJ/mol	uncertainty
19.01	0.9

System: naphthalene; phases: Crystal, Liquid, Air at 1 atmosphere
Property: Normal melting temperature, K (Crystal); method: DTA
Normal melting temperature, K	uncertainty
353.25	0.53

System: 1,2-dichlorobenzene; phases: Crystal, Liquid, Air at 1 atmosphere
Property: Molar enthalpy of transition or fusion, kJ/mol (Crystal); method: DSC
Molar enthalpy of transition or fusion, kJ/mol	uncertainty
12.4	0.85

System: 1,2-dichlorobenzene; phases: Crystal, Liquid, Air at 1 atmosphere
Property: Normal melting temperature, K (Crystal); method: DTA
Normal melting temperature, K	uncertainty
255.85	0.53

System: 1,3-dichlorobenzene; phases: Crystal, Liquid, Air at 1 atmosphere
Property: Molar enthalpy of transition or fusion, kJ/mol (Crystal); method: DSC
Molar enthalpy of transition or fusion, kJ/mol	uncertainty
12.6	0.85

System: 1,3-dichlorobenzene; phases: Crystal, Liquid, Air at 1 atmosphere
Property: Normal melting temperature, K (Crystal); method: DTA
Normal melting temperature, K	uncertainty
248.25	0.53

System: 1,4-dichlorobenzene; phases: Crystal, Liquid, Air at 1 atmosphere
Property: Molar enthalpy of transition or fusion, kJ/mol (Crystal); method: DSC
Molar enthalpy of transition or fusion, kJ/mol	uncertainty
18.19	0.89

System: 1,4-dichlorobenzene; phases: Crystal, Liquid, Air at 1 atmosphere
Property: Normal melting temperature, K (Crystal); method: DTA
Normal melting temperature, K	uncertainty
326.15	0.53

System: naphthalene + 1,2-dichlorobenzene; phases: Liquid, Crystal, Crystal, Air at 1 atmosphere
Property: Eutectic temperature, K (Liquid); method: DTA
Eutectic temperature, K	uncertainty
232.55	0.4

System: naphthalene + 1,2-dichlorobenzene; phases: Crystal, Crystal of intercomponent compound 1, Liquid, Air at 1 atmosphere
Property: Quadruple (quintuple) point temperature, K (Crystal); method: DTA
Quadruple (quintuple) point temperature, K	uncertainty
250.15	0.5

System: naphthalene + 1,2-dichlorobenzene; phases: Liquid, Crystal
Fixed: Pressure, kPa = 101
Property: Solid-liquid equilibrium temperature, K (Liquid); method: DTA
Mole fraction of naphthalene	Solid-liquid equilibrium temperature, K	uncertainty
0.1421	252.15	0.53
0.209	270.75	0.53
0.2432	278.25	0.53
0.2801	285.35	0.53
0.2982	289.25	0.53
0.3415	295.65	0.53
0.3964	304.95	0.53
0.43	309.15	0.53
0.4669	313.55	0.53
0.529	319.45	0.53
0.5612	323.35	0.53
0.623	329.45	0.53
0.649	330.65	0.53
0.7213	336.65	0.53
0.7692	339.25	0.53
0.8471	344.45	0.53
0.8902	347.65	0.53
0.9221	349.15	0.53
1	353.25	0.53

System: naphthalene + 1,2-dichlorobenzene; phases: Liquid, Crystal
Property: Solid-liquid equilibrium temperature, K (Liquid); method: DTA
Mole fraction of naphthalene	Pressure, kPa	Solid-liquid equilibrium temperature, K	uncertainty
0.0289	101	244.25	0.53

System: naphthalene + 1,2-dichlorobenzene; phases: Liquid, Crystal of intercomponent compound 1
Property: Solid-liquid equilibrium temperature, K (Liquid); method: DTA
Mole fraction of naphthalene	Pressure, kPa	Solid-liquid equilibrium temperature, K	uncertainty
0.0749	101	240.65	0.5

System: naphthalene + 1,3-dichlorobenzene; phases: Liquid, Crystal, Crystal, Air at 1 atmosphere
Property: Eutectic temperature, K (Liquid); method: DTA
Eutectic temperature, K	uncertainty
244.85	0.4

System: naphthalene + 1,3-dichlorobenzene; phases: Liquid, Crystal
Fixed: Pressure, kPa = 101
Property: Solid-liquid equilibrium temperature, K (Liquid); method: DTA
Mole fraction of naphthalene	Solid-liquid equilibrium temperature, K	uncertainty
0.1114	261.15	0.53
0.158	272.35	0.53
0.2178	283.45	0.53
0.2811	293.05	0.53
0.325	299.25	0.53
0.3671	304.15	0.53
0.436	311.65	0.53
0.4962	317.55	0.53
0.5458	321.85	0.53
0.5701	324.15	0.53
0.597	326.55	0.53
0.658	331.05	0.53
0.7051	334.45	0.53
0.7321	336.35	0.53
0.7542	338.15	0.53
0.7962	340.95	0.53
0.8319	343.65	0.53
0.8748	346.15	0.53
0.9082	347.95	0.53
0.9289	349.15	0.53
0.9571	350.95	0.53

System: naphthalene + 1,4-dichlorobenzene; phases: Liquid, Crystal, Crystal, Air at 1 atmosphere
Property: Eutectic temperature, K (Liquid); method: DTA
Eutectic temperature, K	uncertainty
302.85	0.4

System: naphthalene + 1,4-dichlorobenzene; phases: Liquid, Crystal
Fixed: Pressure, kPa = 101
Property: Solid-liquid equilibrium temperature, K (Liquid); method: DTA
Mole fraction of naphthalene	Solid-liquid equilibrium temperature, K	uncertainty
0.4228	306.25	0.53
0.4831	312.35	0.53
0.559	320.15	0.53
0.626	326.65	0.53
0.6843	331.35	0.53
0.7311	335.05	0.53
0.7958	339.65	0.53
0.8432	343.55	0.53
0.9209	347.95	0.53
0.953	350.75	0.53

System: naphthalene + 1,4-dichlorobenzene; phases: Liquid, Crystal
Fixed: Pressure, kPa = 101
Property: Solid-liquid equilibrium temperature, K (Liquid); method: DTA
Mole fraction of naphthalene	Solid-liquid equilibrium temperature, K	uncertainty
0.0737	321.95	0.53
0.15	317.05	0.53
0.1922	314.15	0.53
0.237	311.65	0.53
0.2563	310.65	0.53
0.3062	307.15	0.53
0.3438	305.15	0.53
