Measured thermophysical data. Influence of alkyl chain on the thermodynamic properties of aqueous solutions  of ionic liquids 1-alkyl-3-methylimidazolium bromide at different temperatures
Source: J. Chem. Thermodyn., 2009, 10.1016/j.jct.2008.07.011
Compound 1: water, H2O, InChI=1S/H2O/h1H2
Compound 2: 1-methyl-3-propylimidazolium bromide, C7H13BrN2, InChI=1S/C7H13N2.BrH/c1-3-4-9-6-5-8(2)7-9;/h5-7H,3-4H2,1-2H3;1H/q+1;/p-1
Compound 3: 1-pentyl-3-methylimidazolium bromide, C9H17BrN2, InChI=1S/C9H17N2.BrH/c1-3-4-5-6-11-8-7-10(2)9-11;/h7-9H,3-6H2,1-2H3;1H/q+1;/p-1
Compound 4: 3-hexyl-1-methyl-1H-imidazolium bromide, C10H19BrN2, InChI=1S/C10H19N2.BrH/c1-3-4-5-6-7-12-9-8-11(2)10-12;/h8-10H,3-7H2,1-2H3;1H/q+1;/p-1

System: water + 1-methyl-3-propylimidazolium bromide; phases: Liquid, Gas
Property: Osmotic coefficient (Liquid); method: vapor pressure osmometry
Temperature, K	Molality, mol/kg of 1-methyl-3-propylimidazolium bromide	Osmotic coefficient	uncertainty
298.15	0.0071	0.942	0.038
298.15	0.0141	0.917	0.037
298.15	0.0243	0.903	0.036
298.15	0.0338	0.894	0.036
298.15	0.0462	0.89	0.036
298.15	0.0667	0.865	0.035
298.15	0.0898	0.855	0.035
298.15	0.1081	0.839	0.034
298.15	0.1529	0.82	0.033
298.15	0.194	0.807	0.033
298.15	0.2403	0.798	0.033
298.15	0.3018	0.783	0.032
298.15	0.3677	0.762	0.032
298.15	0.4338	0.755	0.031
298.15	0.5359	0.742	0.031
298.15	0.8595	0.706	0.03
298.15	1.0292	0.702	0.03
298.15	1.6039	0.674	0.029
298.15	2.1041	0.676	0.029
298.15	2.7049	0.671	0.029
308.15	0.0071	0.928	0.037
308.15	0.0141	0.925	0.037
308.15	0.0243	0.902	0.036
308.15	0.0338	0.904	0.036
308.15	0.0462	0.892	0.036
308.15	0.0667	0.875	0.035
308.15	0.0898	0.864	0.035
308.15	0.1081	0.851	0.034
308.15	0.1529	0.835	0.034
308.15	0.194	0.816	0.033
308.15	0.2403	0.802	0.033
308.15	0.3018	0.792	0.033
308.15	0.3677	0.772	0.032
308.15	0.4338	0.761	0.032
308.15	0.5359	0.749	0.031
308.15	0.8595	0.72	0.03
308.15	1.0292	0.714	0.03
308.15	1.6039	0.696	0.03
308.15	2.1041	0.69	0.03
308.15	2.7049	0.683	0.03
318.15	0.0071	0.961	0.038
318.15	0.0141	0.951	0.038
318.15	0.0243	0.925	0.037
318.15	0.0338	0.92	0.037
318.15	0.0462	0.91	0.037
318.15	0.0667	0.898	0.036
318.15	0.0898	0.874	0.035
318.15	0.1081	0.867	0.035
318.15	0.1529	0.857	0.035
318.15	0.194	0.836	0.034
318.15	0.2403	0.812	0.033
318.15	0.3018	0.805	0.033
318.15	0.3677	0.793	0.033
318.15	0.4338	0.776	0.032
318.15	0.5359	0.753	0.031
318.15	0.8595	0.728	0.031
318.15	1.0292	0.717	0.03
318.15	1.6039	0.702	0.03
318.15	2.1041	0.694	0.03
318.15	2.7049	0.701	0.03
328.15	0.0071	0.947	0.038
328.15	0.0141	0.95	0.038
328.15	0.0243	0.924	0.037
328.15	0.0338	0.926	0.037
328.15	0.0462	0.91	0.037
328.15	0.0667	0.896	0.036
328.15	0.0898	0.875	0.035
328.15	0.1081	0.864	0.035
328.15	0.1529	0.851	0.034
328.15	0.194	0.842	0.034
328.15	0.2403	0.818	0.033
328.15	0.3018	0.813	0.033
328.15	0.3677	0.794	0.033
328.15	0.4338	0.787	0.032
328.15	0.5359	0.76	0.032
328.15	0.8595	0.735	0.031
328.15	1.0292	0.724	0.031
328.15	1.6039	0.704	0.03
328.15	2.1041	0.701	0.03
328.15	2.7049	0.709	0.03

System: water + 1-pentyl-3-methylimidazolium bromide; phases: Liquid, Gas
Property: Osmotic coefficient (Liquid); method: vapor pressure osmometry
Temperature, K	Molality, mol/kg of 1-pentyl-3-methylimidazolium bromide	Osmotic coefficient	uncertainty
298.15	0.0179	0.911	0.037
298.15	0.025	0.925	0.037
298.15	0.0301	0.906	0.036
298.15	0.0518	0.878	0.035
298.15	0.0722	0.861	0.035
298.15	0.0904	0.852	0.034
298.15	0.1155	0.826	0.034
298.15	0.1697	0.808	0.033
298.15	0.2113	0.793	0.033
298.15	0.2308	0.785	0.032
298.15	0.3311	0.745	0.031
298.15	0.3787	0.726	0.031
298.15	0.4716	0.704	0.03
298.15	0.5627	0.694	0.03
298.15	0.6532	0.679	0.029
298.15	0.7246	0.669	0.029
298.15	0.8353	0.657	0.029
298.15	1.0258	0.618	0.028
298.15	1.5089	0.583	0.028
298.15	2.0049	0.561	0.027
308.15	0.0179	0.987	0.039
308.15	0.025	0.964	0.039
308.15	0.0301	0.933	0.037
308.15	0.0518	0.892	0.036
308.15	0.0722	0.872	0.035
308.15	0.0904	0.856	0.035
308.15	0.1155	0.843	0.034
308.15	0.1697	0.811	0.033
308.15	0.2113	0.798	0.033
308.15	0.2308	0.786	0.032
308.15	0.3311	0.76	0.032
308.15	0.3787	0.745	0.031
308.15	0.4716	0.727	0.031
308.15	0.5627	0.709	0.03
308.15	0.6532	0.689	0.03
308.15	0.7246	0.682	0.03
308.15	0.8353	0.666	0.029
308.15	1.0258	0.637	0.029
308.15	1.5089	0.588	0.028
308.15	2.0049	0.565	0.027
318.15	0.0179	0.94	0.038
318.15	0.025	0.924	0.037
318.15	0.0301	0.912	0.037
318.15	0.0518	0.895	0.036
318.15	0.0722	0.882	0.036
318.15	0.0904	0.871	0.035
318.15	0.1155	0.857	0.035
318.15	0.1697	0.831	0.034
318.15	0.2113	0.816	0.033
318.15	0.2308	0.813	0.033
318.15	0.3311	0.776	0.032
318.15	0.3787	0.762	0.032
318.15	0.4716	0.749	0.031
318.15	0.5627	0.72	0.03
318.15	0.6532	0.697	0.03
318.15	0.7246	0.692	0.03
318.15	0.8353	0.68	0.029
318.15	1.0258	0.632	0.028
318.15	1.5089	0.594	0.028
318.15	2.0049	0.568	0.027
328.15	0.0179	1.008	0.04
328.15	0.025	0.996	0.04
328.15	0.0301	0.982	0.039
328.15	0.0518	0.955	0.038
328.15	0.0722	0.92	0.037
328.15	0.0904	0.91	0.037
328.15	0.1155	0.852	0.034
328.15	0.1697	0.843	0.034
328.15	0.2113	0.827	0.034
328.15	0.2308	0.811	0.033
328.15	0.3311	0.782	0.032
328.15	0.3787	0.766	0.032
328.15	0.4716	0.754	0.031
328.15	0.5627	0.734	0.031
328.15	0.6532	0.706	0.03
328.15	0.7246	0.697	0.03
328.15	0.8353	0.681	0.029
328.15	1.0258	0.649	0.029
328.15	1.5089	0.608	0.028
328.15	2.0049	0.594	0.028

System: water + 3-hexyl-1-methyl-1H-imidazolium bromide; phases: Liquid, Gas
Property: Osmotic coefficient (Liquid); method: vapor pressure osmometry
Temperature, K	Molality, mol/kg of 3-hexyl-1-methyl-1H-imidazolium bromide	Osmotic coefficient	uncertainty
298.15	0.0155	0.876	0.035
298.15	0.021	0.869	0.035
298.15	0.0305	0.854	0.035
298.15	0.0467	0.835	0.034
298.15	0.0633	0.815	0.033
298.15	0.0819	0.761	0.032
298.15	0.121	0.741	0.031
298.15	0.158	0.703	0.03
298.15	0.1845	0.708	0.03
298.15	0.2503	0.67	0.029
298.15	0.3312	0.65	0.029
298.15	0.4111	0.602	0.028
298.15	0.5114	0.554	0.027
298.15	0.5898	0.54	0.027
298.15	0.6829	0.517	0.027
298.15	0.7428	0.488	0.027
298.15	1.1189	0.384	0.027
298.15	1.6856	0.312	0.027
298.15	2.3976	0.271	0.028
308.15	0.0155	0.889	0.036
308.15	0.021	0.87	0.035
308.15	0.0305	0.858	0.035
308.15	0.0467	0.838	0.034
308.15	0.0633	0.811	0.033
308.15	0.0819	0.763	0.032
308.15	0.121	0.742	0.031
308.15	0.158	0.732	0.031
308.15	0.1845	0.727	0.031
308.15	0.2503	0.69	0.03
308.15	0.3312	0.659	0.029
308.15	0.4111	0.605	0.028
308.15	0.5114	0.585	0.028
308.15	0.5898	0.546	0.027
308.15	0.6829	0.513	0.027
308.15	0.7428	0.489	0.027
308.15	1.1189	0.397	0.027
308.15	1.6856	0.322	0.027
308.15	2.3976	0.292	0.028
318.15	0.0155	0.91	0.037
318.15	0.021	0.876	0.035
318.15	0.0305	0.866	0.035
318.15	0.0467	0.848	0.034
318.15	0.0633	0.816	0.033
318.15	0.0819	0.8	0.033
318.15	0.121	0.775	0.032
318.15	0.158	0.754	0.031
318.15	0.1845	0.742	0.031
318.15	0.2503	0.702	0.03
318.15	0.3312	0.672	0.029
318.15	0.4111	0.625	0.028
318.15	0.5114	0.589	0.028
318.15	0.5898	0.555	0.027
318.15	0.6829	0.537	0.027
318.15	0.7428	0.509	0.027
318.15	1.1189	0.413	0.027
318.15	1.6856	0.352	0.027
318.15	2.3976	0.309	0.027
328.15	0.0155	0.935	0.037
328.15	0.021	0.911	0.037
328.15	0.0305	0.869	0.035
328.15	0.0467	0.861	0.035
328.15	0.0633	0.821	0.033
328.15	0.0819	0.815	0.033
328.15	0.121	0.79	0.032
328.15	0.158	0.76	0.032
328.15	0.1845	0.75	0.031
328.15	0.2503	0.719	0.03
328.15	0.3312	0.67	0.029
328.15	0.4111	0.63	0.028
328.15	0.5114	0.592	0.028
328.15	0.5898	0.569	0.027
328.15	0.6829	0.544	0.027
328.15	0.7428	0.514	0.027
328.15	1.1189	0.429	0.027
328.15	1.6856	0.362	0.027
328.15	2.3976	0.328	0.027
