Measured thermophysical data. Physicochemical and thermodynamic properties of the {1-alkyl-1-methylmorpholinium bromide, [C1Cn=3,4,5MOR]Br, or 1-methyl-1-pentylpiperidinium bromide, [C1C5PIP]Br + water} binary systems
Source: J. Chem. Thermodyn., 2016, 10.1016/j.jct.2016.03.030
Compound 1: 4-methyl-4-propylmorpholinium bromide, C8H18BrNO, InChI=1S/C8H18NO.BrH/c1-3-4-9(2)5-7-10-8-6-9;/h3-8H2,1-2H3;1H/q+1;/p-1, purity 95%
Compound 2: 4-butyl-4-methylmorpholinium bromide, C9H20BrNO, InChI=1S/C9H20NO.BrH/c1-3-4-5-10(2)6-8-11-9-7-10;/h3-9H2,1-2H3;1H/q+1;/p-1, purity 95%
Compound 3: 4-methyl-4-pentylmorpholinium bromide, C10H22BrNO, InChI=1S/C10H22NO.BrH/c1-3-4-5-6-11(2)7-9-12-10-8-11;/h3-10H2,1-2H3;1H/q+1;/p-1, purity 94%
Compound 4: 1-methyl-1-pentylpiperidinium bromide, C11H24BrN, InChI=1S/C11H24N.BrH/c1-3-4-6-9-12(2)10-7-5-8-11-12;/h3-11H2,1-2H3;1H/q+1;/p-1, purity 95%
Compound 5: water, H2O, InChI=1S/H2O/h1H2, purity 99.9%

System: 4-methyl-4-propylmorpholinium bromide; phases: Crystal 2, Crystal 1, Air at 1 atmosphere
Property: Molar enthalpy of transition or fusion, kJ/mol (Crystal 2); method: DSC
Molar enthalpy of transition or fusion, kJ/mol	uncertainty
2.3	1.04

System: 4-methyl-4-propylmorpholinium bromide; phases: Crystal 1, Liquid, Air at 1 atmosphere
Property: Normal melting temperature, K (Crystal 1); method: DTA
Normal melting temperature, K	uncertainty
453.94	0.41

System: 4-methyl-4-propylmorpholinium bromide; phases: Crystal 1, Liquid, Air at 1 atmosphere
Property: Molar enthalpy of transition or fusion, kJ/mol (Crystal 1); method: DSC
Molar enthalpy of transition or fusion, kJ/mol	uncertainty
11.38	1.07

System: 4-methyl-4-propylmorpholinium bromide; phases: Crystal 2, Crystal 1, Air at 1 atmosphere
Property: Triple point temperature, K (Crystal 2); method: DSC
Triple point temperature, K	uncertainty
341.13	0.77

System: 4-butyl-4-methylmorpholinium bromide; phases: Crystal 1, Liquid, Air at 1 atmosphere
Property: Normal melting temperature, K (Crystal 1); method: DTA
Normal melting temperature, K	uncertainty
484.47	0.41

System: 4-butyl-4-methylmorpholinium bromide; phases: Crystal 1, Liquid, Air at 1 atmosphere
Property: Molar enthalpy of transition or fusion, kJ/mol (Crystal 1); method: DSC
Molar enthalpy of transition or fusion, kJ/mol	uncertainty
14.11	1.08

System: 4-methyl-4-pentylmorpholinium bromide; phases: Crystal 1, Liquid, Air at 1 atmosphere
Property: Normal melting temperature, K (Crystal 1); method: DTA
Normal melting temperature, K	uncertainty
467	0.41

System: 4-methyl-4-pentylmorpholinium bromide; phases: Crystal 1, Liquid, Air at 1 atmosphere
Property: Molar enthalpy of transition or fusion, kJ/mol (Crystal 1); method: DSC
Molar enthalpy of transition or fusion, kJ/mol	uncertainty
8.13	1.07

System: 1-methyl-1-pentylpiperidinium bromide; phases: Crystal 1, Liquid, Air at 1 atmosphere
Property: Normal melting temperature, K (Crystal 1); method: DTA
Normal melting temperature, K	uncertainty
446.8	0.41

System: 1-methyl-1-pentylpiperidinium bromide; phases: Crystal 1, Liquid, Air at 1 atmosphere
Property: Molar enthalpy of transition or fusion, kJ/mol (Crystal 1); method: DSC
Molar enthalpy of transition or fusion, kJ/mol	uncertainty
8.82	1.06

System: water; phases: Crystal, Liquid, Air at 1 atmosphere
Property: Normal melting temperature, K (Crystal); method: VISOBS
Normal melting temperature, K	uncertainty
273.15	0.39

System: water; phases: Liquid
Fixed: Pressure, kPa = 100
Property: Viscosity, Pa*s (Liquid); method: Falling or rolling sphere viscometry
Temperature, K	Viscosity, Pa*s	uncertainty
298.15	0.000912	9.1e-05
303.15	0.000819	8.2e-05
308.15	0.000739	7.4e-05
313.15	0.000671	6.7e-05
318.15	0.000611	6.1e-05
323.15	0.000559	5.6e-05
328.15	0.000514	5.2e-05
333.15	0.000474	4.8e-05
338.15	0.000439	4.4e-05
343.15	0.000408	4.1e-05

System: water + 4-methyl-4-propylmorpholinium bromide; phases: Liquid
Fixed: Pressure, kPa = 100
Property: Mass density, kg/m3 (Liquid); method: Vibrating tube method
Temperature, K	Mole fraction of 4-methyl-4-propylmorpholinium bromide	Mass density, kg/m3	uncertainty
298.15	0	997.1	1
298.15	0.0336	1084.6	1.1
298.15	0.0618	1135.4	1.1
298.15	0.0875	1170.4	1
298.15	0.1298	1213	1
298.15	0.1709	1242.8	1.1
298.15	0.2036	1260.9	1.1
298.15	0.254	1282.4	1.2
298.15	0.2742	1289.4	1.3
298.15	0.3025	1298.2	1.4
303.15	0	995.7	1
303.15	0.0336	1082.5	1.1
303.15	0.0618	1132.9	1.1
303.15	0.0875	1167.6	1
303.15	0.1298	1209.9	1
303.15	0.1709	1239.6	1.1
303.15	0.2036	1257.7	1.1
303.15	0.254	1279.2	1.2
303.15	0.2742	1286.1	1.3
303.15	0.3025	1294.9	1.3
308.15	0	994	1
308.15	0.0336	1080.2	1.1
308.15	0.0618	1130.2	1.1
308.15	0.0875	1164.7	1
308.15	0.1298	1206.8	1
308.15	0.1709	1236.4	1.1
308.15	0.2036	1254.4	1.1
308.15	0.254	1275.9	1.2
308.15	0.2742	1282.8	1.3
308.15	0.3025	1291.6	1.3
313.15	0	992.2	1
313.15	0.0336	1077.8	1.1
313.15	0.0618	1127.5	1.1
313.15	0.0875	1161.7	1
313.15	0.1298	1203.6	1
313.15	0.1709	1233.1	1.1
313.15	0.2036	1251.1	1.1
313.15	0.254	1272.6	1.2
313.15	0.2742	1279.5	1.3
313.15	0.3025	1288.3	1.3
318.15	0	990.1	1
318.15	0.0336	1075.3	1.1
318.15	0.0618	1124.7	1.1
318.15	0.0875	1158.7	1
318.15	0.1298	1200.4	1
318.15	0.1709	1229.9	1.1
318.15	0.2036	1247.8	1.1
318.15	0.254	1269.2	1.2
318.15	0.2742	1276.2	1.3
318.15	0.3025	1285.1	1.3
323.15	0	987.9	1
323.15	0.0336	1072.3	1.1
323.15	0.0618	1121.8	1.1
323.15	0.0875	1155.7	1
323.15	0.1298	1197.2	1
323.15	0.1709	1226.6	1.1
323.15	0.2036	1244.5	1.1
323.15	0.254	1265.9	1.2
323.15	0.2742	1272.9	1.2
323.15	0.3025	1281.7	1.3
328.15	0	985.6	1
328.15	0.0336	1069.9	1.1
328.15	0.0618	1118.8	1.1
328.15	0.0875	1152.5	1
328.15	0.1298	1193.9	1
328.15	0.1709	1223.2	1.1
328.15	0.2036	1241.1	1.1
328.15	0.254	1262.6	1.2
328.15	0.2742	1269.5	1.2
328.15	0.3025	1278.4	1.3
333.15	0	983.2	1
333.15	0.0336	1066.3	1.1
333.15	0.0618	1115.5	1.1
333.15	0.0875	1149.1	1
333.15	0.1298	1190.6	1
333.15	0.1709	1219.9	1.1
333.15	0.2036	1237.8	1.1
333.15	0.254	1259.2	1.2
333.15	0.2742	1266.2	1.2
333.15	0.3025	1275.1	1.3
338.15	0	980.3	1
338.15	0.0336	1064.5	1.1
338.15	0.0618	1113.1	1.1
338.15	0.0875	1145.3	1
338.15	0.1298	1187.3	1
338.15	0.1709	1216.5	1.1
338.15	0.2036	1234.4	1.1
338.15	0.254	1255.9	1.2
338.15	0.2742	1262.9	1.2
338.15	0.3025	1271.7	1.3
343.15	0	978.1	1
343.15	0.0336	1061.9	1.1
343.15	0.0618	1110.2	1.1
343.15	0.0875	1142	1
343.15	0.1298	1183.9	1
343.15	0.1709	1213.1	1.1
343.15	0.2036	1231	1.1
343.15	0.254	1252.5	1.2
343.15	0.2742	1259.5	1.2
343.15	0.3025	1268.4	1.3

System: water + 4-methyl-4-propylmorpholinium bromide; phases: Liquid
Fixed: Pressure, kPa = 100
Property: Viscosity, Pa*s (Liquid); method: Falling or rolling sphere viscometry
Temperature, K	Mole fraction of 4-methyl-4-propylmorpholinium bromide	Viscosity, Pa*s	uncertainty
298.15	0	0.000912	9.1e-05
298.15	0.0336	0.001651	0.000166
298.15	0.0618	0.002638	0.000265
298.15	0.0875	0.004066	0.000408
298.15	0.1298	0.008208	0.000824
298.15	0.1709	0.01589	0.0016
298.15	0.2036	0.02667	0.00268
298.15	0.254	0.06245	0.00628
298.15	0.2742	0.09009	0.00919
298.15	0.3025	0.154	0.0163
303.15	0	0.000819	8.2e-05
303.15	0.0336	0.00145	0.000145
303.15	0.0618	0.002291	0.00023
303.15	0.0875	0.003483	0.00035
303.15	0.1298	0.006823	0.000685
303.15	0.1709	0.0129	0.0013
303.15	0.2036	0.02098	0.00211
303.15	0.254	0.04652	0.00468
303.15	0.2742	0.06614	0.00666
303.15	0.3025	0.1088	0.0112
308.15	0	0.000739	7.4e-05
308.15	0.0336	0.001281	0.000129
308.15	0.0618	0.002002	0.000201
308.15	0.0875	0.003	0.000301
308.15	0.1298	0.005723	0.000574
308.15	0.1709	0.01062	0.00107
308.15	0.2036	0.01676	0.00168
308.15	0.254	0.03535	0.00355
308.15	0.2742	0.04951	0.00498
308.15	0.3025	0.07928	0.00804
313.15	0	0.000671	6.7e-05
313.15	0.0336	0.00114	0.000114
313.15	0.0618	0.001761	0.000177
313.15	0.0875	0.00261	0.000262
313.15	0.1298	0.004854	0.000487
313.15	0.1709	0.008847	0.000888
313.15	0.2036	0.01362	0.00137
313.15	0.254	0.0274	0.00275
313.15	0.2742	0.0384	0.00386
313.15	0.3025	0.05926	0.00596
318.15	0	0.000611	6.1e-05
318.15	0.0336	0.00102	0.000102
318.15	0.0618	0.001559	0.000156
318.15	0.0875	0.002287	0.000229
318.15	0.1298	0.004155	0.000417
318.15	0.1709	0.007459	0.000749
318.15	0.2036	0.01123	0.00113
318.15	0.254	0.0217	0.00218
318.15	0.2742	0.03007	0.00302
318.15	0.3025	0.04523	0.00455
323.15	0	0.000559	5.6e-05
323.15	0.0336	0.000909	9.1e-05
323.15	0.0618	0.001372	0.000138
323.15	0.0875	0.001988	0.000199
323.15	0.1298	0.003541	0.000355
323.15	0.1709	0.006268	0.000629
323.15	0.2036	0.009267	0.000931
323.15	0.254	0.01723	0.00173
323.15	0.2742	0.02366	0.00238
323.15	0.3025	0.03494	0.00351
328.15	0	0.000514	5.2e-05
328.15	0.0336	0.000812	8.1e-05
328.15	0.0618	0.001215	0.000122
328.15	0.0875	0.001742	0.000175
328.15	0.1298	0.003047	0.000306
328.15	0.1709	0.005322	0.000534
328.15	0.2036	0.007756	0.000779
328.15	0.254	0.01396	0.0014
328.15	0.2742	0.0191	0.00192
328.15	0.3025	0.02752	0.00277
333.15	0	0.000474	4.8e-05
333.15	0.0336	0.000736	7.4e-05
333.15	0.0618	0.001088	0.000109
333.15	0.0875	0.001547	0.000155
333.15	0.1298	0.002654	0.000266
333.15	0.1709	0.004582	0.00046
333.15	0.2036	0.006587	0.000662
333.15	0.254	0.01153	0.00116
333.15	0.2742	0.01571	0.00158
333.15	0.3025	0.02211	0.00222
338.15	0	0.000439	4.4e-05
338.15	0.0336	0.000668	6.7e-05
338.15	0.0618	0.000979	9.8e-05
338.15	0.0875	0.001378	0.000138
338.15	0.1298	0.002426	0.000243
338.15	0.1709	0.004142	0.000416
338.15	0.2036	0.005636	0.000566
338.15	0.254	0.009633	0.000968
338.15	0.2742	0.01297	0.0013
338.15	0.3025	0.01805	0.00182
343.15	0	0.000408	4.1e-05
343.15	0.0336	0.00063	6.3e-05
343.15	0.0618	0.000925	9.3e-05
343.15	0.0875	0.001303	0.000131
343.15	0.1298	0.002269	0.000228
343.15	0.1709	0.004062	0.000813
343.15	0.2036	0.004879	0.00049
343.15	0.254	0.008213	0.000825
343.15	0.2742	0.01096	0.0011
343.15	0.3025	0.01499	0.00151

System: water + 4-methyl-4-propylmorpholinium bromide; phases: Liquid, Gas
Property: Vapor or sublimation pressure, kPa (Liquid); method: Ebulliometric method (Recirculating still)
Temperature, K	Mole fraction of 4-methyl-4-propylmorpholinium bromide	Vapor or sublimation pressure, kPa	uncertainty
338.15	0	25.1	1
338.15	0.005	24.7	1
338.15	0.018	24.2	1
338.15	0.021	24.1	1
338.15	0.027	23.8	1
338.15	0.033	23.6	1
338.15	0.037	23.4	1
338.15	0.044	23.1	1
338.15	0.055	22.6	1
338.15	0.062	22.4	1
338.15	0.07	22.2	1
338.15	0.078	21.7	1
338.15	0.083	21.6	1
338.15	0.09	21.2	1
338.15	0.095	21	1
338.15	0.109	20.1	1
348.15	0	38.6	1
348.15	0.005	38.3	1.1
348.15	0.018	37.4	1
348.15	0.021	37.1	1
348.15	0.027	36.8	1
348.15	0.033	36.4	1
348.15	0.038	36.2	1.1
348.15	0.045	35.8	1.1
348.15	0.055	35	1
348.15	0.063	34.5	1
348.15	0.07	34.2	1
348.15	0.078	33.5	1
348.15	0.084	33.2	1.1
348.15	0.09	32.7	1.1
348.15	0.095	32.2	1.1
348.15	0.11	30.8	1.1
348.15	0.122	30	1.1
348.15	0.133	29	1.1
358.15	0	57.9	1
358.15	0.005	57.1	1.2
358.15	0.018	56	1.1
358.15	0.021	55.7	1
358.15	0.027	55.2	1.1
358.15	0.033	54.7	1.1
358.15	0.038	54.2	1.2
358.15	0.046	53.6	1.2
358.15	0.055	52.6	1.1
358.15	0.063	51.6	1.1
358.15	0.071	50.9	1.1
358.15	0.078	50.2	1.1
358.15	0.084	49.4	1.1
358.15	0.09	48.9	1.1
358.15	0.096	48.1	1.2
358.15	0.111	46.2	1.1
358.15	0.123	44.7	1.1
358.15	0.137	43	1
368.15	0	84.4	1.1
368.15	0.005	83.7	1.2
368.15	0.018	81.9	1.2
368.15	0.022	81.2	1.2
368.15	0.027	80.4	1.1
368.15	0.033	80	1.1
368.15	0.038	79.2	1.2
368.15	0.045	78.3	1.2
368.15	0.055	76.7	1.2
368.15	0.063	75.6	1.2
368.15	0.071	74.3	1.2
368.15	0.078	73.1	1.2
368.15	0.084	72.1	1.2
368.15	0.09	71.1	1.2
368.15	0.098	70	1.3
368.15	0.11	67.4	1.3
368.15	0.125	64.8	1.3
368.15	0.138	62.2	1.3

System: water + 4-methyl-4-propylmorpholinium bromide; phases: Liquid, Crystal 1
Fixed: Pressure, kPa = 100
Property: Solid-liquid equilibrium temperature, K (Liquid); method: VISOBS
Mole fraction of 4-methyl-4-propylmorpholinium bromide	Solid-liquid equilibrium temperature, K	uncertainty
1	453.94	0.17
0.5032	354.02	0.18
0.4945	352.73	0.18
0.4796	347.29	0.19
0.4695	342.67	0.2

System: water + 4-methyl-4-propylmorpholinium bromide; phases: Liquid, Crystal 2
Fixed: Pressure, kPa = 100
Property: Solid-liquid equilibrium temperature, K (Liquid); method: VISOBS
Mole fraction of 4-methyl-4-propylmorpholinium bromide	Solid-liquid equilibrium temperature, K	uncertainty
0.4596	339.49	0.19
0.4475	335.17	0.19
0.4415	333.49	0.18
0.429	329.34	0.19
0.4142	323.61	0.19
0.4039	320.02	0.19
0.3979	317.38	0.19
0.393	315.37	0.19

System: water + 4-methyl-4-propylmorpholinium bromide; phases: Liquid, Crystal
Fixed: Pressure, kPa = 100
Property: Solid-liquid equilibrium temperature, K (Liquid); method: VISOBS
Mole fraction of 4-methyl-4-propylmorpholinium bromide	Solid-liquid equilibrium temperature, K	uncertainty
0.1697	235.57	0.18
0.1441	243.64	0.2
0.1425	244.5	0.2
0.1184	250.64	0.18
0.0984	256.27	0.18
0.0787	260.98	0.18
0.0629	263.97	0.18
0.0308	269.27	0.18
0.0144	271.76	0.18
0	273.15	0.17

System: water + 4-methyl-4-propylmorpholinium bromide; phases: Liquid
Fixed: Pressure, kPa = 100
Property: Molar heat capacity at constant pressure, J/K/mol (Liquid); method: Small sample (50 mg) DSC
Temperature, K	Mole fraction of 4-methyl-4-propylmorpholinium bromide	Molar heat capacity at constant pressure, J/K/mol	uncertainty
298.15	0.0336	82.579735655648	8.330302539712
298.15	0.0618	89.616296031976	9.041589235896
298.15	0.1298	107.627307716496	10.879133017932
298.15	0.2036	125.06247035028	12.656202035448
298.15	0.2742	132.596538906084	13.41617594328
298.15	0.3025	146.99234488105	14.86800645325
303.15	0.0336	82.903968988032	8.380184590848
303.15	0.0618	89.923833080816	9.07234294078
303.15	0.1298	108.209318947908	10.923903112656
303.15	0.2036	125.722272352128	12.716184035616
303.15	0.2742	133.192813392452	13.41617594328
303.15	0.3025	147.63528570065	14.9483740557
308.15	0.0336	83.228202320416	8.405125616416
308.15	0.0618	90.538907178496	9.133850350548
308.15	0.1298	109.104720842388	11.013443302104
308.15	0.2036	126.801948355152	12.836148035952
308.15	0.2742	134.310828054392	13.565244564872
308.15	0.3025	148.8407997374	15.02874165815
313.15	0.0336	83.527494627232	8.430066641984
313.15	0.0618	91.03096645664	9.195357760316
313.15	0.1298	110.000122736868	11.102983491552
313.15	0.2036	127.701678357672	12.89613003612
313.15	0.2742	135.27977409474	13.639778875668
313.15	0.3025	149.8052109668	15.1091092606
318.15	0.0336	83.776904882912	8.455007667552
318.15	0.0618	91.4922720299	9.2261114652
318.15	0.1298	110.8059844419	11.192523681
318.15	0.2036	128.601408360192	13.016094036456
318.15	0.2742	136.099651513496	13.714313186464
318.15	0.3025	150.84998979865	15.2698444655
323.15	0.0336	84.05125616416	8.47994869312
323.15	0.0618	92.045838717812	9.287618874968
323.15	0.1298	111.611846146932	11.282063870448
323.15	0.2036	129.501138362712	13.076076036624
323.15	0.2742	137.14313186464	13.863381808056
323.15	0.3025	151.81440102805	15.35021206795
328.15	0.0336	84.275725394272	8.504889718688
328.15	0.0618	92.445636881304	9.349126284736
328.15	0.1298	112.417707851964	11.371604059896
328.15	0.2036	130.16094036456	13.136058036792
328.15	0.2742	137.8884749726	13.937916118852
328.15	0.3025	152.698444655	15.4305796704
333.15	0.0336	84.500194624384	8.529830744256
333.15	0.0618	92.906942454564	9.37987998962
333.15	0.1298	113.089259272824	11.41637415462
333.15	0.2036	130.580814365736	13.19604003696
333.15	0.2742	138.559283769764	14.012450429648
333.15	0.3025	153.5021206795	15.51094727285
338.15	0.0336	84.724663854496	8.554771769824
338.15	0.0618	93.245233208288	9.410633694504
338.15	0.1298	113.805580788408	11.505914344068
338.15	0.2036	130.940706366744	13.19604003696
338.15	0.2742	139.230092566928	14.086984740444
338.15	0.3025	154.38616430645	15.5913148753
343.15	0.0336	84.949133084608	8.579712795392
343.15	0.0618	93.64503137178	9.472141104272
343.15	0.1298	114.432362114544	11.550684438792
343.15	0.2036	131.120652367248	13.256022037128
343.15	0.2742	140.049969985684	14.16151905124
343.15	0.3025	155.02910512605	15.67168247775

System: water + 4-methyl-4-propylmorpholinium bromide; phases: Liquid, Crystal of intercomponent compound 1
Fixed: Pressure, kPa = 100
Property: Solid-liquid equilibrium temperature, K (Liquid); method: VISOBS
Mole fraction of 4-methyl-4-propylmorpholinium bromide	Solid-liquid equilibrium temperature, K	uncertainty
0.3776	310.71	0.18
0.3641	308.49	0.18
0.3563	307.13	0.18
0.3467	304.97	0.18
0.3362	302.96	0.18
0.3257	300.25	0.18
0.317	298.04	0.18
0.2998	293.12	0.18
0.2837	288.74	0.19
0.2734	284.34	0.19
0.2601	279.32	0.19
0.2433	272.56	0.19
0.2203	262.7	0.2
0.2041	254.84	0.2

System: water + 4-butyl-4-methylmorpholinium bromide; phases: Liquid
Fixed: Pressure, kPa = 100
Property: Mass density, kg/m3 (Liquid); method: Vibrating tube method
Temperature, K	Mole fraction of 4-butyl-4-methylmorpholinium bromide	Mass density, kg/m3	uncertainty
298.15	0.0017	1002.2	1.2
298.15	0.0033	1007.1	1.2
298.15	0.0066	1016.8	1.2
298.15	0.0088	1022.9	1.1
298.15	0.0167	1043.3	1.1
298.15	0.034	1081.4	1.1
298.15	0.0363	1086	1.1
298.15	0.0601	1125.3	1
298.15	0.0988	1170.8	1
298.15	0.1242	1192	1
298.15	0.154	1211.4	1.1
298.15	0.2027	1234.7	1.1
298.15	0.2383	1247.4	1.2
298.15	0.2569	1252.8	1.2
298.15	0.3007	1263.9	1.3
303.15	0.0017	1000.7	1.2
303.15	0.0033	1005.6	1.2
303.15	0.0066	1015.2	1.2
303.15	0.0088	1021.3	1.1
303.15	0.0167	1041.5	1.1
303.15	0.034	1079.1	1.1
303.15	0.0363	1083.7	1.1
303.15	0.0601	1122.6	1
303.15	0.0988	1167.7	1
303.15	0.1242	1188.7	1
303.15	0.154	1208.1	1.1
303.15	0.2027	1231.3	1.1
303.15	0.2383	1244	1.2
303.15	0.2569	1249.4	1.2
303.15	0.3007	1260.5	1.3
308.15	0.0017	999.1	1.2
308.15	0.0033	1003.9	1.2
308.15	0.0066	1013.4	1.2
308.15	0.0088	1019.5	1.1
308.15	0.0167	1039.5	1.1
308.15	0.034	1076.7	1.1
308.15	0.0363	1081.3	1.1
308.15	0.0601	1119.7	1
308.15	0.0988	1164.5	1
308.15	0.1242	1185.4	1
308.15	0.154	1204.7	1
308.15	0.2027	1227.9	1.1
308.15	0.2383	1240.7	1.2
308.15	0.2569	1246.1	1.2
308.15	0.3007	1257.2	1.3
313.15	0.0017	997.2	1.2
313.15	0.0033	1002	1.2
313.15	0.0066	1011.4	1.1
313.15	0.0088	1017.4	1.1
313.15	0.0167	1037.3	1.1
313.15	0.034	1074.2	1.1
313.15	0.0363	1078.7	1.1
313.15	0.0601	1116.8	1
313.15	0.0988	1161.3	1
313.15	0.1242	1182.1	1
313.15	0.154	1201.3	1
313.15	0.2027	1224.5	1.1
313.15	0.2383	1237.3	1.1
313.15	0.2569	1242.7	1.2
313.15	0.3007	1253.9	1.3
318.15	0.0017	995.2	1.2
318.15	0.0033	999.9	1.2
318.15	0.0066	1009.3	1.1
318.15	0.0088	1015.3	1.1
318.15	0.0167	1034.9	1.1
318.15	0.034	1071.5	1.1
318.15	0.0363	1076	1.1
318.15	0.0601	1113.8	1
318.15	0.0988	1158	1
318.15	0.1242	1178.7	1
318.15	0.154	1197.9	1
318.15	0.2027	1221.1	1.1
318.15	0.2383	1233.9	1.1
318.15	0.2569	1239.3	1.2
318.15	0.3007	1250.6	1.3
323.15	0.0017	993	1.2
323.15	0.0033	997.7	1.2
323.15	0.0066	1007	1.1
323.15	0.0088	1012.9	1.1
323.15	0.0167	1032.5	1.1
323.15	0.034	1068.8	1.1
323.15	0.0363	1073.2	1.1
323.15	0.0601	1110.8	1
323.15	0.0988	1154.6	1
323.15	0.1242	1175.3	1
323.15	0.154	1194.4	1
323.15	0.2027	1217.7	1.1
323.15	0.2383	1230.5	1.1
323.15	0.2569	1235.9	1.2
323.15	0.3007	1247.2	1.3
328.15	0.0017	990.6	1.2
328.15	0.0033	995.3	1.2
328.15	0.0066	1004.5	1.1
328.15	0.0088	1010.4	1.1
328.15	0.0167	1029.8	1.1
328.15	0.034	1065.9	1.1
328.15	0.0363	1070.1	1.1
328.15	0.0601	1107.6	1
328.15	0.0988	1151.2	1
328.15	0.1242	1171.8	1
328.15	0.154	1191	1
328.15	0.2027	1214.3	1.1
328.15	0.2383	1227.1	1.1
328.15	0.2569	1232.5	1.2
328.15	0.3007	1243.9	1.3
333.15	0.0017	988.1	1.2
333.15	0.0033	992.7	1.1
333.15	0.0066	1001.9	1.1
333.15	0.0088	1007.8	1.1
333.15	0.0167	1027.1	1.1
333.15	0.034	1062.9	1.1
333.15	0.0363	1067.3	1.1
333.15	0.0601	1104.4	1
333.15	0.0988	1147.8	1
333.15	0.1242	1168.4	1
333.15	0.154	1187.5	1
333.15	0.2027	1210.8	1.1
333.15	0.2383	1223.7	1.1
333.15	0.2569	1229.1	1.2
333.15	0.3007	1240.5	1.3
338.15	0.0017	985.4	1.2
338.15	0.0033	990	1.1
338.15	0.0066	999.2	1.1
338.15	0.0088	1005	1.1
338.15	0.0167	1024.2	1.1
338.15	0.034	1059.9	1.1
338.15	0.0363	1064.3	1.1
338.15	0.0601	1101.1	1
338.15	0.0988	1144.3	1
338.15	0.1242	1164.8	1
338.15	0.154	1184	1
338.15	0.2027	1207.3	1.1
338.15	0.2383	1220.3	1.1
338.15	0.2569	1225.8	1.2
338.15	0.3007	1237.2	1.3
343.15	0.0017	982.6	1.1
343.15	0.0033	987.2	1.1
343.15	0.0066	996.3	1.1
343.15	0.0088	1002.1	1.1
343.15	0.0167	1021.2	1.1
343.15	0.034	1056.7	1.1
343.15	0.0363	1061.1	1.1
343.15	0.0601	1097.5	1
343.15	0.0988	1140.8	1
343.15	0.1242	1161.3	1
343.15	0.154	1180.4	1
343.15	0.2027	1203.8	1.1
343.15	0.2383	1216.8	1.1
343.15	0.2569	1222.4	1.2
343.15	0.3007	1233.8	1.3
298.15	0	997.1	1
303.15	0	995.7	1
308.15	0	994	1
313.15	0	992.2	1
318.15	0	990.1	1
323.15	0	987.9	1
328.15	0	985.6	1
333.15	0	983.2	1
338.15	0	980.3	1
343.15	0	978.1	1

System: water + 4-butyl-4-methylmorpholinium bromide; phases: Liquid
Fixed: Pressure, kPa = 100
Property: Viscosity, Pa*s (Liquid); method: Falling or rolling sphere viscometry
Temperature, K	Mole fraction of 4-butyl-4-methylmorpholinium bromide	Viscosity, Pa*s	uncertainty
298.15	0.0363	0.00196	0.000197
298.15	0.0601	0.003204	0.000322
298.15	0.0988	0.006179	0.00062
298.15	0.1242	0.009576	0.000961
298.15	0.154	0.01507	0.00151
298.15	0.2027	0.03261	0.00328
298.15	0.2383	0.0574	0.00576
298.15	0.2569	0.08123	0.00824
298.15	0.3007	0.1591	0.0169
303.15	0.0363	0.001715	0.000172
303.15	0.0601	0.002745	0.000275
303.15	0.0988	0.00516	0.000518
303.15	0.1242	0.007888	0.000792
303.15	0.154	0.01219	0.00122
303.15	0.2027	0.02531	0.00254
303.15	0.2383	0.04275	0.0043
303.15	0.2569	0.06027	0.00606
303.15	0.3007	0.1135	0.0117
308.15	0.0363	0.0015	0.00015
308.15	0.0601	0.002367	0.000238
308.15	0.0988	0.004353	0.000437
308.15	0.1242	0.006566	0.000659
308.15	0.154	0.009969	0.001001
308.15	0.2027	0.02	0.00201
308.15	0.2383	0.03282	0.0033
308.15	0.2569	0.04577	0.0046
308.15	0.3007	0.08289	0.00842
313.15	0.0363	0.001323	0.000133
313.15	0.0601	0.002061	0.000207
313.15	0.0988	0.003716	0.000373
313.15	0.1242	0.005497	0.000552
313.15	0.154	0.008279	0.000831
313.15	0.2027	0.01607	0.00161
313.15	0.2383	0.02569	0.00258
313.15	0.2569	0.03546	0.00357
313.15	0.3007	0.06218	0.00625
318.15	0.0363	0.001175	0.000118
318.15	0.0601	0.00181	0.000182
318.15	0.0988	0.003204	0.000321
318.15	0.1242	0.00465	0.000467
318.15	0.154	0.006951	0.000698
318.15	0.2027	0.01312	0.00132
318.15	0.2383	0.02044	0.00205
318.15	0.2569	0.02804	0.00282
318.15	0.3007	0.04776	0.0048
323.15	0.0363	0.001039	0.000104
323.15	0.0601	0.001578	0.000158
323.15	0.0988	0.002745	0.000275
323.15	0.1242	0.003912	0.000393
323.15	0.154	0.005805	0.000583
323.15	0.2027	0.01072	0.00108
323.15	0.2383	0.01636	0.00164
323.15	0.2569	0.02235	0.00225
323.15	0.3007	0.0369	0.00371
328.15	0.0363	0.000923	9.3e-05
328.15	0.0601	0.001387	0.000139
328.15	0.0988	0.002377	0.000238
328.15	0.1242	0.003323	0.000333
328.15	0.154	0.004888	0.000491
328.15	0.2027	0.008882	0.000892
328.15	0.2383	0.01328	0.00133
328.15	0.2569	0.01801	0.00181
328.15	0.3007	0.02903	0.00292
333.15	0.0363	0.00083	8.3e-05
333.15	0.0601	0.001233	0.000124
333.15	0.0988	0.002082	0.000209
333.15	0.1242	0.002867	0.000288
333.15	0.154	0.00416	0.000418
333.15	0.2027	0.007465	0.00075
333.15	0.2383	0.01098	0.0011
333.15	0.2569	0.01486	0.00149
333.15	0.3007	0.02347	0.00236
338.15	0.0363	0.000751	7.5e-05
338.15	0.0601	0.001106	0.000111
338.15	0.0988	0.001836	0.000184
338.15	0.1242	0.002502	0.000251
338.15	0.154	0.003568	0.000358
338.15	0.2027	0.006337	0.000636
338.15	0.2383	0.009093	0.000914
338.15	0.2569	0.01232	0.00124
338.15	0.3007	0.01919	0.00193
343.15	0.0363	0.000685	6.9e-05
343.15	0.0601	0.000992	0.0001
343.15	0.0988	0.001633	0.000164
343.15	0.1242	0.002288	0.00023
343.15	0.154	0.003149	0.000316
343.15	0.2027	0.005442	0.000546
343.15	0.2383	0.007452	0.000749
343.15	0.2569	0.01042	0.00105
343.15	0.3007	0.01592	0.0016
298.15	0	0.000912	9.1e-05
303.15	0	0.000819	8.2e-05
308.15	0	0.000739	7.4e-05
313.15	0	0.000671	6.7e-05
318.15	0	0.000611	6.1e-05
323.15	0	0.000559	5.6e-05
328.15	0	0.000514	5.2e-05
333.15	0	0.000474	4.8e-05
338.15	0	0.000439	4.4e-05
343.15	0	0.000408	4.1e-05

System: water + 4-butyl-4-methylmorpholinium bromide; phases: Liquid, Gas
Property: Vapor or sublimation pressure, kPa (Liquid); method: Ebulliometric method (Recirculating still)
Temperature, K	Mole fraction of 4-butyl-4-methylmorpholinium bromide	Vapor or sublimation pressure, kPa	uncertainty
338.15	0	25.1	1
338.15	0.008	24.8	1
338.15	0.012	24.7	1
338.15	0.016	24.6	1
338.15	0.021	24.4	1
338.15	0.029	24.2	1
338.15	0.037	24	1
338.15	0.045	23.7	1
338.15	0.055	23.2	1
338.15	0.063	22.9	1
338.15	0.085	21.8	1
338.15	0.11	20.6	1
338.15	0.123	20	1
348.15	0	38.6	1
348.15	0.008	37.8	1.1
348.15	0.012	37.6	1
348.15	0.017	37.2	1.1
348.15	0.021	37.2	1
348.15	0.029	36.6	1
348.15	0.038	36.3	1
348.15	0.046	35.8	1.1
348.15	0.056	35	1
348.15	0.066	34.6	1.1
348.15	0.068	34.1	1.1
348.15	0.086	32.8	1
348.15	0.094	32	1.1
348.15	0.109	31	1
348.15	0.123	29.9	1
358.15	0	57.9	1
358.15	0.008	56.9	1.1
358.15	0.012	56.7	1
358.15	0.017	56.3	1.1
358.15	0.022	56	1.2
358.15	0.029	55.3	1.1
358.15	0.038	54.6	1.1
358.15	0.046	53.9	1.1
358.15	0.057	52.8	1.1
358.15	0.065	52	1.1
358.15	0.072	51.3	1.2
358.15	0.088	49.3	1.1
358.15	0.1	48.3	1.2
358.15	0.113	46.7	1.2
358.15	0.125	45.1	1.3
358.15	0.136	42.4	1.4
368.15	0	84.4	1.1
368.15	0.008	83	1.2
368.15	0.012	82.5	1.2
368.15	0.017	82.1	1.1
368.15	0.021	81.5	1.1
368.15	0.029	80.7	1.2
368.15	0.038	79.3	1.2
368.15	0.046	78.4	1.2
368.15	0.056	76.7	1.2
368.15	0.065	75.6	1.2
368.15	0.072	74.3	1.3
368.15	0.086	71.9	1.3
368.15	0.096	70	1.2
368.15	0.113	67.6	1.2
368.15	0.126	65.3	1.2
368.15	0.148	61.8	1.2

System: water + 4-butyl-4-methylmorpholinium bromide; phases: Liquid, Crystal
Fixed: Pressure, kPa = 100
Property: Solid-liquid equilibrium temperature, K (Liquid); method: VISOBS
Mole fraction of 4-butyl-4-methylmorpholinium bromide	Solid-liquid equilibrium temperature, K	uncertainty
1	484.47	0.17
0.4461	364.18	0.19
0.4357	360.46	0.19
0.4139	352.52	0.19
0.4001	346.8	0.2
0.3811	337.69	0.19
0.3655	331.95	0.2
0.3469	321.84	0.2
0.3376	316.93	0.2
0.3253	310.54	0.2
0.285	290.5	0.2

System: water + 4-butyl-4-methylmorpholinium bromide; phases: Liquid, Crystal
Fixed: Pressure, kPa = 100
Property: Solid-liquid equilibrium temperature, K (Liquid); method: VISOBS
Mole fraction of 4-butyl-4-methylmorpholinium bromide	Solid-liquid equilibrium temperature, K	uncertainty
0.1671	237.26	0.19
0.1584	240.26	0.19
0.1231	249.15	0.18
0.1003	255.27	0.18
0.0721	262.02	0.18
0.0526	265.64	0.18
0.0323	269.14	0.18
0.0259	270.07	0.18
0.0132	271.78	0.17
0	273.15	0.17

System: water + 4-butyl-4-methylmorpholinium bromide; phases: Liquid
Fixed: Pressure, kPa = 100
Property: Molar heat capacity at constant pressure, J/K/mol (Liquid); method: Small sample (50 mg) DSC
Temperature, K	Mole fraction of 4-butyl-4-methylmorpholinium bromide	Molar heat capacity at constant pressure, J/K/mol	uncertainty
298.15	0.0363	87.850712145144	8.868292729868
298.15	0.0601	94.20757217694	9.53011924178
298.15	0.1242	111.80723590388	11.294118352968
298.15	0.2383	149.975088915904	15.15255832562
298.15	0.2569	154.139920364508	15.585507187316
298.15	0.3007	165.397028517008	16.674445848456
303.15	0.0363	87.90272559224	8.868292729868
303.15	0.0601	94.488788810304	9.53011924178
303.15	0.1242	112.442246574328	11.339476258
303.15	0.2383	150.750336086052	15.223035341088
303.15	0.2569	155.10935382592	15.66007899204
303.15	0.3007	166.239172246728	16.758660221428
308.15	0.0363	88.240812998364	8.920306176964
308.15	0.0601	95.082468369628	9.592611826972
308.15	0.1242	113.485478390064	11.475549973096
308.15	0.2383	152.159876395412	15.363989372024
308.15	0.2569	156.451646310952	15.809222601488
308.15	0.3007	167.670816587252	16.927088967372
313.15	0.0363	88.500880233844	8.946312900512
313.15	0.0601	95.61365534376	9.655104412164
313.15	0.1242	114.392636490704	11.56626578316
313.15	0.2383	153.357985658368	15.50494340296
313.15	0.2569	157.644795186536	15.958366210936
313.15	0.3007	168.934032181832	17.095517713316
318.15	0.0363	88.760947469324	8.97231962406
318.15	0.0601	96.113596025296	9.717596997356
318.15	0.1242	115.299794591344	11.656981593224
318.15	0.2383	154.556094921324	15.575420418428
318.15	0.2569	158.763372257396	16.03293801566
318.15	0.3007	170.11303340344	17.179732086288
323.15	0.0363	89.021014704804	8.998326347608
323.15	0.0601	96.144842317892	9.717596997356
323.15	0.1242	116.206952691984	11.747697403288
323.15	0.2383	155.824681199748	15.716374449364
323.15	0.2569	160.031092937704	16.182081625108
323.15	0.3007	171.544677743964	17.348160832232
328.15	0.0363	89.229068493188	9.024333071156
328.15	0.0601	96.738521877216	9.780089582548
328.15	0.1242	117.02339498256	11.838413213352
328.15	0.2383	156.952313447236	15.8573284803
328.15	0.2569	161.224241813288	16.256653429832
328.15	0.3007	172.723678965572	17.432375205204
333.15	0.0363	89.411115558024	9.024333071156
333.15	0.0601	97.082231095772	9.811335875144
333.15	0.1242	117.794479368104	11.883771118384
333.15	0.2383	158.079945694724	15.998282511236
333.15	0.2569	162.268247079424	16.40579703928
333.15	0.3007	173.818465814208	17.516589578176
338.15	0.0363	89.567155899312	9.050339794704
338.15	0.0601	97.238462558752	9.811335875144
338.15	0.1242	118.61092165868	11.974486928448
338.15	0.2383	159.207577942212	16.068759526704
338.15	0.2569	163.386824150284	16.480368844004
338.15	0.3007	174.997467035816	17.68501832412
343.15	0.0363	89.801216411244	9.076346518252
343.15	0.0601	97.269708851348	9.811335875144
343.15	0.1242	119.336648139192	12.065202738512
343.15	0.2383	160.264733174232	16.20971355764
343.15	0.2569	164.505401221144	16.629512453452
343.15	0.3007	176.092253884452	17.769232697092

System: water + 4-methyl-4-pentylmorpholinium bromide; phases: Liquid
Fixed: Pressure, kPa = 100
Property: Mass density, kg/m3 (Liquid); method: Vibrating tube method
Temperature, K	Mole fraction of 4-methyl-4-pentylmorpholinium bromide	Mass density, kg/m3	uncertainty
298.15	0.0316	1072.8	1.1
298.15	0.0695	1127.6	1
298.15	0.0965	1153.8	1
298.15	0.1196	1170	1
298.15	0.1522	1187.7	1.1
298.15	0.2054	1208.2	1.1
298.15	0.219	1212.2	1.2
298.15	0.2438	1218.9	1.3
298.15	0.2754	1226	1.4
303.15	0.0316	1070.5	1.1
303.15	0.0695	1124.5	1
303.15	0.0965	1150.6	1
303.15	0.1196	1166.6	1
303.15	0.1522	1184.4	1.1
303.15	0.2054	1204.9	1.1
303.15	0.219	1208.8	1.2
303.15	0.2438	1215.6	1.2
303.15	0.2754	1222.7	1.4
308.15	0.0316	1067.9	1.1
308.15	0.0695	1121.3	1
308.15	0.0965	1147.2	1
308.15	0.1196	1163.3	1
308.15	0.1522	1181	1.1
308.15	0.2054	1201.5	1.1
308.15	0.219	1205.5	1.2
308.15	0.2438	1212.2	1.2
308.15	0.2754	1219.4	1.4
313.15	0.0316	1065.3	1.1
313.15	0.0695	1118.1	1
313.15	0.0965	1143.9	1
313.15	0.1196	1159.8	1
313.15	0.1522	1177.5	1.1
313.15	0.2054	1198.1	1.1
313.15	0.219	1202.1	1.2
313.15	0.2438	1208.9	1.2
313.15	0.2754	1216.1	1.4
318.15	0.0316	1062.6	1.1
318.15	0.0695	1114.9	1
318.15	0.0965	1140.5	1
318.15	0.1196	1156.4	1
318.15	0.1522	1174.1	1.1
318.15	0.2054	1194.7	1.1
318.15	0.219	1198.7	1.2
318.15	0.2438	1205.5	1.2
318.15	0.2754	1212.7	1.4
323.15	0.0316	1059.7	1.1
323.15	0.0695	1111.5	1
323.15	0.0965	1137	1
323.15	0.1196	1152.9	1
323.15	0.1522	1170.6	1.1
323.15	0.2054	1191.3	1.1
323.15	0.219	1195.4	1.2
323.15	0.2438	1202.2	1.2
323.15	0.2754	1209.4	1.3
328.15	0.0316	1056.6	1.1
328.15	0.0695	1108.1	1
328.15	0.0965	1133.5	1
328.15	0.1196	1149.4	1
328.15	0.1522	1167.1	1.1
328.15	0.2054	1187.9	1.1
328.15	0.219	1191.9	1.2
328.15	0.2438	1198.8	1.2
328.15	0.2754	1206.1	1.3
333.15	0.0316	1053.5	1.1
333.15	0.0695	1104.7	1
333.15	0.0965	1130	1
333.15	0.1196	1145.9	1
333.15	0.1522	1163.6	1.1
333.15	0.2054	1184.4	1.1
333.15	0.219	1188.5	1.2
333.15	0.2438	1195.4	1.2
333.15	0.2754	1202.7	1.3
338.15	0.0316	1050.5	1.1
338.15	0.0695	1101.2	1
338.15	0.0965	1126.5	1
338.15	0.1196	1142.3	1
338.15	0.1522	1160.1	1.1
338.15	0.2054	1180.9	1.1
338.15	0.219	1185.1	1.2
338.15	0.2438	1192	1.2
338.15	0.2754	1199.3	1.3
343.15	0.0316	1047.2	1.1
343.15	0.0695	1097.8	1
343.15	0.0965	1122.9	1
343.15	0.1196	1138.7	1
343.15	0.1522	1156.5	1.1
343.15	0.2054	1177.5	1.1
343.15	0.219	1181.6	1.2
343.15	0.2438	1188.5	1.2
343.15	0.2754	1196	1.3
298.15	0	997.1	1
303.15	0	995.7	1
308.15	0	994	1
313.15	0	992.2	1
318.15	0	990.1	1
323.15	0	987.9	1
328.15	0	985.6	1
333.15	0	983.2	1
338.15	0	980.3	1
343.15	0	978.1	1

System: water + 4-methyl-4-pentylmorpholinium bromide; phases: Liquid
Fixed: Pressure, kPa = 100
Property: Viscosity, Pa*s (Liquid); method: Falling or rolling sphere viscometry
Temperature, K	Mole fraction of 4-methyl-4-pentylmorpholinium bromide	Viscosity, Pa*s	uncertainty
298.15	0.0316	0.001957	0.000196
298.15	0.0695	0.004131	0.000415
298.15	0.0965	0.006746	0.000677
298.15	0.1196	0.009795	0.000983
298.15	0.1522	0.01625	0.00163
298.15	0.2054	0.03611	0.00363
298.15	0.219	0.04438	0.00446
298.15	0.2438	0.06459	0.0065
298.15	0.2754	0.1039	0.0107
303.15	0.0316	0.0017	0.000171
303.15	0.0695	0.003505	0.000352
303.15	0.0965	0.00563	0.000565
303.15	0.1196	0.008076	0.000811
303.15	0.1522	0.01314	0.00132
303.15	0.2054	0.02807	0.00282
303.15	0.219	0.03404	0.00342
303.15	0.2438	0.04866	0.0049
303.15	0.2754	0.07646	0.00774
308.15	0.0316	0.001484	0.000149
308.15	0.0695	0.002997	0.000301
308.15	0.0965	0.00474	0.000476
308.15	0.1196	0.006709	0.000674
308.15	0.1522	0.01079	0.00108
308.15	0.2054	0.02224	0.00223
308.15	0.219	0.02662	0.00268
308.15	0.2438	0.03745	0.00377
308.15	0.2754	0.05757	0.00579
313.15	0.0316	0.001309	0.000131
313.15	0.0695	0.002586	0.000259
313.15	0.0965	0.004035	0.000405
313.15	0.1196	0.005642	0.000566
313.15	0.1522	0.008994	0.000903
313.15	0.2054	0.01782	0.00179
313.15	0.219	0.0212	0.00213
313.15	0.2438	0.02917	0.00293
313.15	0.2754	0.04403	0.00443
318.15	0.0316	0.001159	0.000116
318.15	0.0695	0.002252	0.000226
318.15	0.0965	0.003465	0.000348
318.15	0.1196	0.004796	0.000481
318.15	0.1522	0.007569	0.00076
318.15	0.2054	0.01456	0.00146
318.15	0.219	0.01713	0.00172
318.15	0.2438	0.02322	0.00234
318.15	0.2754	0.03422	0.00344
323.15	0.0316	0.001023	0.000103
323.15	0.0695	0.00195	0.000196
323.15	0.0965	0.002963	0.000297
323.15	0.1196	0.004065	0.000408
323.15	0.1522	0.006349	0.000638
323.15	0.2054	0.0119	0.0012
323.15	0.219	0.01389	0.0014
323.15	0.2438	0.01852	0.00186
323.15	0.2754	0.02685	0.0027
328.15	0.0316	0.000908	9.1e-05
328.15	0.0695	0.001703	0.000171
328.15	0.0965	0.002557	0.000257
328.15	0.1196	0.003475	0.000349
328.15	0.1522	0.005382	0.00054
328.15	0.2054	0.00986	0.000991
328.15	0.219	0.01144	0.00115
328.15	0.2438	0.01502	0.00151
328.15	0.2754	0.02135	0.00215
333.15	0.0316	0.000817	8.2e-05
333.15	0.0695	0.001504	0.000151
333.15	0.0965	0.002234	0.000224
333.15	0.1196	0.003003	0.000301
333.15	0.1522	0.004616	0.000464
333.15	0.2054	0.008297	0.000834
333.15	0.219	0.009561	0.000961
333.15	0.2438	0.01238	0.00125
333.15	0.2754	0.01733	0.00174
338.15	0.0316	0.00074	7.4e-05
338.15	0.0695	0.001374	0.000138
338.15	0.0965	0.001965	0.000197
338.15	0.1196	0.002724	0.000273
338.15	0.1522	0.003961	0.000398
338.15	0.2054	0.007055	0.000709
338.15	0.219	0.008079	0.000812
338.15	0.2438	0.01039	0.00104
338.15	0.2754	0.01454	0.00146
343.15	0.0316	0.000677	6.8e-05
343.15	0.0695	0.001288	0.000129
343.15	0.0965	0.001733	0.000174
343.15	0.1196	0.002554	0.000256
343.15	0.1522	0.003412	0.000343
343.15	0.2054	0.006064	0.000609
343.15	0.219	0.007061	0.00071
343.15	0.2438	0.008615	0.000866
343.15	0.2754	0.01293	0.0013
298.15	0	0.000912	9.1e-05
303.15	0	0.000819	8.2e-05
308.15	0	0.000739	7.4e-05
313.15	0	0.000671	6.7e-05
318.15	0	0.000611	6.1e-05
323.15	0	0.000559	5.6e-05
328.15	0	0.000514	5.2e-05
333.15	0	0.000474	4.8e-05
338.15	0	0.000439	4.4e-05
343.15	0	0.000408	4.1e-05

System: water + 4-methyl-4-pentylmorpholinium bromide; phases: Liquid, Gas
Property: Vapor or sublimation pressure, kPa (Liquid); method: Ebulliometric method (Recirculating still)
Temperature, K	Mole fraction of 4-methyl-4-pentylmorpholinium bromide	Vapor or sublimation pressure, kPa	uncertainty
338.15	0	25.1	1
338.15	0.003	25	1
338.15	0.005	24.9	1
338.15	0.008	24.7	1
338.15	0.011	24.6	1
338.15	0.012	24.6	1
338.15	0.015	24.4	1
338.15	0.018	24.4	1
338.15	0.021	24.2	1
338.15	0.026	24.1	1
338.15	0.029	23.9	1
338.15	0.035	23.8	1
338.15	0.04	23.7	1
338.15	0.046	23.3	1
338.15	0.054	23.2	1
338.15	0.065	22.7	1
338.15	0.08	22.1	1
338.15	0.097	21.4	1
338.15	0.117	20.5	1
338.15	0.125	20	1
338.15	0.149	18.9	1
348.15	0	38.6	1
348.15	0.003	38.1	1.8
348.15	0.006	37.9	1.2
348.15	0.008	37.6	1.1
348.15	0.011	37.5	1.1
348.15	0.012	37.4	1.1
348.15	0.012	37.3	1.1
348.15	0.018	37.1	1.1
348.15	0.021	36.9	1
348.15	0.026	36.7	1.1
348.15	0.03	36.5	1
348.15	0.036	36.2	1.1
348.15	0.041	36	1.1
348.15	0.047	35.7	1.1
348.15	0.055	35.3	1.1
348.15	0.064	34.7	1.1
348.15	0.078	34	1
348.15	0.097	32.6	1.1
348.15	0.12	31.1	1
348.15	0.126	30.6	1.1
348.15	0.147	29.1	1.1
348.15	0.17	27.1	1.1
348.15	0.188	25.5	1.1
358.15	0	57.9	1
358.15	0.003	57.3	2
358.15	0.005	57.1	1.4
358.15	0.008	56.9	1.2
358.15	0.011	56.7	1.1
358.15	0.013	56.5	1.4
358.15	0.015	56.3	1.3
358.15	0.018	56.1	1.1
358.15	0.021	55.9	1
358.15	0.026	55.5	1.2
358.15	0.03	55.1	1
358.15	0.035	54.8	1.1
358.15	0.041	54.4	1.1
358.15	0.047	53.9	1.1
358.15	0.055	53.2	1.1
358.15	0.064	52.3	1.1
358.15	0.08	50.9	1.1
358.15	0.098	49.3	1.1
358.15	0.118	46.8	1.1
358.15	0.125	46.2	1.2
358.15	0.147	43.8	1.1
358.15	0.169	41.3	1.1
358.15	0.19	38.6	1.1
368.15	0	84.4	1.1
368.15	0.003	83.8	1.1
368.15	0.005	83.6	1.2
368.15	0.008	83.1	1.1
368.15	0.011	82.9	1.2
368.15	0.013	82.7	1.1
368.15	0.015	82.4	1.1
368.15	0.018	82	1.1
368.15	0.021	81.7	1.1
368.15	0.026	81.2	1.2
368.15	0.03	80.8	1.1
368.15	0.035	80.1	1.2
368.15	0.041	79.5	1.1
368.15	0.047	78.8	1.2
368.15	0.055	77.8	1.2
368.15	0.065	76.5	1.2
368.15	0.08	74.2	1.2
368.15	0.099	71.5	1.2
368.15	0.115	68.5	1.2
368.15	0.125	67.5	1.2
368.15	0.147	63.9	1.2
368.15	0.171	59.9	1.3
368.15	0.182	56.2	1.7

System: water + 4-methyl-4-pentylmorpholinium bromide; phases: Liquid, Crystal
Fixed: Pressure, kPa = 100
Property: Solid-liquid equilibrium temperature, K (Liquid); method: VISOBS
Mole fraction of 4-methyl-4-pentylmorpholinium bromide	Solid-liquid equilibrium temperature, K	uncertainty
1	467	0.17
0.5439	328.86	0.18
0.5316	325.08	0.18
0.5227	322.17	0.18
0.5127	319.23	0.18
0.5053	316.62	0.18
0.4956	313.75	0.18
0.4797	308.84	0.18
0.4578	302.47	0.18
0.4397	297.05	0.19
0.4284	292.51	0.19

System: water + 4-methyl-4-pentylmorpholinium bromide; phases: Liquid, Crystal
Fixed: Pressure, kPa = 100
Property: Solid-liquid equilibrium temperature, K (Liquid); method: VISOBS
Mole fraction of 4-methyl-4-pentylmorpholinium bromide	Solid-liquid equilibrium temperature, K	uncertainty
0.1597	244.56	0.18
0.1342	250.45	0.18
0.1151	254.05	0.18
0.0954	258.02	0.18
0.0742	261.94	0.18
0.0574	264.92	0.18
0.0464	266.83	0.18
0.0349	268.53	0.18
0.0297	269.03	0.17
0.018	270.47	0.18
0.0094	271.76	0.18
0.0026	272.85	0.18
0	273.15	0.17

System: water + 4-methyl-4-pentylmorpholinium bromide; phases: Liquid
Fixed: Pressure, kPa = 100
Property: Molar heat capacity at constant pressure, J/K/mol (Liquid); method: Small sample (50 mg) DSC
Temperature, K	Mole fraction of 4-methyl-4-pentylmorpholinium bromide	Molar heat capacity at constant pressure, J/K/mol	uncertainty
298.15	0.0316	94.112702832792	9.505306740336
298.15	0.0695	105.99208859723	10.69865145336
298.15	0.1522	133.015577532852	13.414237347
298.15	0.2054	153.7177035597	15.53705820926
298.15	0.219	149.6878752816	15.10738741268
298.15	0.2438	159.528373440048	16.14811689718
298.15	0.2754	165.675058224928	16.749022320548
303.15	0.0316	94.16353335012	9.505306740336
303.15	0.0695	106.33499409253	10.73294200289
303.15	0.1522	133.713117874896	13.521551245776
303.15	0.2054	154.577200396808	15.603173350576
303.15	0.219	150.58877453098	15.17668735494
303.15	0.2438	160.504771205924	16.223224417632
303.15	0.2754	166.66514821432	16.831529819664
308.15	0.0316	94.443101195424	9.530721999
308.15	0.0695	106.88364288501	10.80152310195
308.15	0.1522	134.94722771082	13.628865144552
308.15	0.2054	156.03173350576	15.735403633208
308.15	0.219	151.97477337618	15.31528723946
308.15	0.2438	161.931814094512	16.373439458536
308.15	0.2754	168.150283198408	16.996544817896
313.15	0.0316	94.722669040728	9.556137257664
313.15	0.0695	107.39800112796	10.83581365148
313.15	0.1522	135.913052799804	13.736179043328
313.15	0.2054	157.221806049448	15.86763391584
313.15	0.219	153.29147227912	15.45388712398
313.15	0.2438	163.208641942196	16.448546978988
313.15	0.2754	169.635418182496	17.161559816128
318.15	0.0316	94.976821627368	9.581552516328
318.15	0.0695	107.91235937091	10.90439475054
318.15	0.1522	136.932534838176	13.843492942104
318.15	0.2054	158.411878593136	15.999864198472
318.15	0.219	154.5388712398	15.5924870085
318.15	0.2438	164.560577310332	16.598762019892
318.15	0.2754	170.955538168352	17.244067315244
323.15	0.0316	95.30721999	9.632383033656
323.15	0.0695	108.42671761386	10.93868530007
323.15	0.1522	138.005673825936	13.95080684088
323.15	0.2054	159.601951136824	16.132094481104
323.15	0.219	155.78627020048	15.73108689302
323.15	0.2438	165.912512678468	16.748977060796
323.15	0.2754	172.275658154208	17.409082313476
328.15	0.0316	95.535957317976	9.65779829232
328.15	0.0695	108.87249475775	11.00726639913
328.15	0.1522	138.864185016144	14.004463790268
328.15	0.2054	160.725908539196	16.264324763736
328.15	0.219	156.9643692189	15.86968677754
328.15	0.2438	167.264448046604	16.8991921017
328.15	0.2754	173.513270640948	17.491589812592
333.15	0.0316	95.764694645952	9.683213550984
333.15	0.0695	109.28398135211	11.04155694866
333.15	0.1522	139.77635315574	14.111777689044
333.15	0.2054	161.915981082884	16.330439905052
333.15	0.219	158.0038683528	15.9389867198
333.15	0.2438	168.391060853384	16.974299622152
333.15	0.2754	174.91589812592	17.656604810824
338.15	0.0316	95.9426014566	9.683213550984
338.15	0.0695	109.729758496	11.07584749819
338.15	0.1522	140.688521295336	14.21909158782
338.15	0.2054	163.039938485256	16.462670187684
338.15	0.219	159.0433674867	16.07758660432
338.15	0.2438	169.592781180616	17.124514663056
338.15	0.2754	176.15351061266	17.821619809056
343.15	0.0316	96.095093008584	9.708628809648
343.15	0.0695	110.14124509036	11.11013804772
343.15	0.1522	141.547032485544	14.272748537208
343.15	0.2054	164.031665604996	16.594900470316
343.15	0.219	160.0828666206	16.14688654658
343.15	0.2438	170.719393987396	17.27472970396
343.15	0.2754	177.3911230994	17.904127308172

System: water + 1-methyl-1-pentylpiperidinium bromide; phases: Liquid
Fixed: Pressure, kPa = 100
Property: Mass density, kg/m3 (Liquid); method: Vibrating tube method
Temperature, K	Mole fraction of 1-methyl-1-pentylpiperidinium bromide	Mass density, kg/m3	uncertainty
298.15	0.003	1003.5	1.1
298.15	0.0072	1012	1.1
298.15	0.0119	1021.1	1.1
298.15	0.0427	1070.7	1
298.15	0.0615	1091.4	1
298.15	0.0839	1110.2	1
298.15	0.1192	1131.1	1
298.15	0.1491	1144	1
298.15	0.2004	1159.3	1.1
298.15	0.2206	1163.7	1.1
298.15	0.2393	1167.7	1.1
298.15	0.2655	1172.3	1.2
298.15	0.2745	1173.8	1.2
303.15	0.003	1002	1.1
303.15	0.0072	1010.4	1.1
303.15	0.0119	1019.3	1.1
303.15	0.0427	1067.8	1
303.15	0.0615	1088.2	1
303.15	0.0839	1106.7	1
303.15	0.1192	1127.5	1
303.15	0.1491	1140.4	1
303.15	0.2004	1153.7	1.1
303.15	0.2206	1160.2	1.1
303.15	0.2393	1164.2	1.1
303.15	0.2655	1168.8	1.2
303.15	0.2745	1170.3	1.2
308.15	0.003	1000.2	1.1
308.15	0.0072	1008.6	1.1
308.15	0.0119	1017.3	1.1
308.15	0.0427	1064.8	1
308.15	0.0615	1084.9	1
308.15	0.0839	1103.2	1
308.15	0.1192	1123.9	1
308.15	0.1491	1136.8	1
308.15	0.2004	1152.1	1.1
308.15	0.2206	1156.7	1.1
308.15	0.2393	1160.7	1.1
308.15	0.2655	1165.3	1.2
308.15	0.2745	1166.8	1.2
313.15	0.003	998.2	1.1
313.15	0.0072	1006.5	1.1
313.15	0.0119	1015.1	1.1
313.15	0.0427	1061.8	1
313.15	0.0615	1081.5	1
313.15	0.0839	1099.7	1
313.15	0.1192	1120.3	1
313.15	0.1491	1133.2	1
313.15	0.2004	1148.2	1.1
313.15	0.2206	1153.1	1.1
313.15	0.2393	1157.1	1.1
313.15	0.2655	1161.8	1.2
313.15	0.2745	1163.3	1.2
318.15	0.003	996.1	1.1
318.15	0.0072	1004.2	1.1
318.15	0.0119	1012.8	1.1
318.15	0.0427	1058.7	1
318.15	0.0615	1078.1	1
318.15	0.0839	1096.1	1
318.15	0.1192	1116.6	1
318.15	0.1491	1129.5	1
318.15	0.2004	1144.5	1.1
318.15	0.2206	1149.5	1.1
318.15	0.2393	1153.6	1.1
318.15	0.2655	1158.3	1.2
318.15	0.2745	1159.8	1.2
323.15	0.003	993.7	1.1
323.15	0.0072	1001.9	1.1
323.15	0.0119	1010.3	1.1
323.15	0.0427	1055.5	1
323.15	0.0615	1074.7	1
323.15	0.0839	1092.5	1
323.15	0.1192	1113	1
323.15	0.1491	1125.8	1
323.15	0.2004	1141.2	1.1
323.15	0.2206	1145.9	1.1
323.15	0.2393	1150.1	1.1
323.15	0.2655	1154.8	1.1
323.15	0.2745	1156.3	1.2
328.15	0.003	990.9	1.1
328.15	0.0072	999.4	1.1
328.15	0.0119	1007.7	1.1
328.15	0.0427	1052.2	1
328.15	0.0615	1071.2	1
328.15	0.0839	1088.9	1
328.15	0.1192	1109.3	1
328.15	0.1491	1122.1	1
328.15	0.2004	1137.5	1.1
328.15	0.2206	1142.3	1.1
328.15	0.2393	1146.5	1.1
328.15	0.2655	1151.3	1.1
328.15	0.2745	1152.8	1.2
333.15	0.003	989.3	1.1
333.15	0.0072	996.3	1.1
333.15	0.0119	1004.9	1.1
333.15	0.0427	1048.8	1
333.15	0.0615	1067.6	1
333.15	0.0839	1085.2	1
333.15	0.1192	1105.5	1
333.15	0.1491	1118.4	1
333.15	0.2004	1132.9	1.1
333.15	0.2206	1138.7	1.1
333.15	0.2393	1143	1.1
333.15	0.2655	1147.7	1.1
333.15	0.2745	1149.3	1.2
338.15	0.003	986	1.1
338.15	0.0072	993.1	1.1
338.15	0.0119	1002	1.1
338.15	0.0427	1045.4	1
338.15	0.0615	1064	1
338.15	0.0839	1081.4	1
338.15	0.1192	1101.8	1
338.15	0.1491	1114.7	1
338.15	0.2004	1131.2	1.1
338.15	0.2206	1135.1	1.1
338.15	0.2393	1139.4	1.1
338.15	0.2655	1144.2	1.1
338.15	0.2745	1145.8	1.2
343.15	0.003	983.6	1.1
343.15	0.0072	990.1	1.1
343.15	0.0119	999	1.1
343.15	0.0427	1041.8	1
343.15	0.0615	1060.3	1
343.15	0.0839	1077.7	1
343.15	0.1192	1098	1
343.15	0.1491	1110.9	1
343.15	0.2004	1126.4	1.1
343.15	0.2206	1131.5	1.1
343.15	0.2393	1135.9	1.1
343.15	0.2655	1140.6	1.1
343.15	0.2745	1142.3	1.2
298.15	0	997.1	1
303.15	0	995.7	1
308.15	0	994	1
313.15	0	992.2	1
318.15	0	990.1	1
323.15	0	987.9	1
328.15	0	985.6	1
333.15	0	983.2	1
338.15	0	980.3	1
343.15	0	978.1	1

System: water + 1-methyl-1-pentylpiperidinium bromide; phases: Liquid
Fixed: Pressure, kPa = 100
Property: Viscosity, Pa*s (Liquid); method: Falling or rolling sphere viscometry
Temperature, K	Mole fraction of 1-methyl-1-pentylpiperidinium bromide	Viscosity, Pa*s	uncertainty
298.15	0.0427	0.002961	0.000297
298.15	0.0615	0.004385	0.00044
298.15	0.0839	0.006713	0.000674
298.15	0.1192	0.01234	0.00124
298.15	0.1491	0.01714	0.00172
298.15	0.2004	0.02779	0.00279
298.15	0.2206	0.04158	0.00418
298.15	0.2393	0.05811	0.00583
298.15	0.2655	0.09522	0.00973
298.15	0.2745	0.1078	0.0111
303.15	0.0427	0.002439	0.000245
303.15	0.0615	0.003663	0.000368
303.15	0.0839	0.005513	0.000553
303.15	0.1192	0.009841	0.000987
303.15	0.1491	0.01293	0.0013
303.15	0.2004	0.02175	0.00218
303.15	0.2206	0.02941	0.00296
303.15	0.2393	0.04451	0.00447
303.15	0.2655	0.06859	0.00691
303.15	0.2745	0.07728	0.00782
308.15	0.0427	0.001881	0.000189
308.15	0.0615	0.003087	0.00031
308.15	0.0839	0.004576	0.000459
308.15	0.1192	0.008001	0.000803
308.15	0.1491	0.009983	0.001002
308.15	0.2004	0.01635	0.00164
308.15	0.2206	0.02302	0.00231
308.15	0.2393	0.03369	0.00339
308.15	0.2655	0.05052	0.00507
308.15	0.2745	0.05651	0.00567
313.15	0.0427	0.001639	0.000164
313.15	0.0615	0.002632	0.000264
313.15	0.0839	0.003846	0.000386
313.15	0.1192	0.006581	0.00066
313.15	0.1491	0.008698	0.000873
313.15	0.2004	0.01409	0.00141
313.15	0.2206	0.01811	0.00182
313.15	0.2393	0.02585	0.0026
313.15	0.2655	0.03816	0.00384
313.15	0.2745	0.04234	0.00426
318.15	0.0427	0.001441	0.000145
318.15	0.0615	0.002267	0.000227
318.15	0.0839	0.003269	0.000328
318.15	0.1192	0.005458	0.000548
318.15	0.1491	0.007311	0.000734
318.15	0.2004	0.01122	0.00113
318.15	0.2206	0.0141	0.00142
318.15	0.2393	0.02021	0.00203
318.15	0.2655	0.02944	0.00296
318.15	0.2745	0.0325	0.00327
323.15	0.0427	0.001261	0.000127
323.15	0.0615	0.001945	0.000195
323.15	0.0839	0.00277	0.000278
323.15	0.1192	0.004499	0.000451
323.15	0.1491	0.006029	0.000605
323.15	0.2004	0.009723	0.000976
323.15	0.2206	0.01233	0.00124
323.15	0.2393	0.01588	0.0016
323.15	0.2655	0.02279	0.00229
323.15	0.2745	0.02506	0.00252
328.15	0.0427	0.00111	0.000111
328.15	0.0615	0.001682	0.000169
328.15	0.0839	0.002369	0.000238
328.15	0.1192	0.003749	0.000376
328.15	0.1491	0.005354	0.000537
328.15	0.2004	0.008195	0.000823
328.15	0.2206	0.01068	0.00107
328.15	0.2393	0.01274	0.00128
328.15	0.2655	0.01803	0.00181
328.15	0.2745	0.01971	0.00198
333.15	0.0427	0.001034	0.000104
333.15	0.0615	0.001474	0.000148
333.15	0.0839	0.002055	0.000206
333.15	0.1192	0.003014	0.000302
333.15	0.1491	0.004513	0.000453
333.15	0.2004	0.007033	0.000706
333.15	0.2206	0.008945	0.000898
333.15	0.2393	0.01047	0.00105
333.15	0.2655	0.01456	0.00146
333.15	0.2745	0.01586	0.00159
338.15	0.0427	0.000886	8.9e-05
338.15	0.0615	0.0013	0.00013
338.15	0.0839	0.001835	0.000184
338.15	0.1192	0.002724	0.000273
338.15	0.1491	0.004032	0.000405
338.15	0.2004	0.006088	0.000611
338.15	0.2206	0.007421	0.000745
338.15	0.2393	0.008696	0.000874
338.15	0.2655	0.01195	0.0012
338.15	0.2745	0.01294	0.0013
343.15	0.0427	0.00085	8.5e-05
343.15	0.0615	0.001142	0.000115
343.15	0.0839	0.001634	0.000164
343.15	0.1192	0.002382	0.000239
343.15	0.1491	0.003697	0.000371
343.15	0.2004	0.005341	0.000536
343.15	0.2206	0.006243	0.000627
343.15	0.2393	0.00734	0.000738
343.15	0.2655	0.009976	0.001003
343.15	0.2745	0.01075	0.00108
298.15	0	0.000912	9.1e-05
303.15	0	0.000819	8.2e-05
308.15	0	0.000739	7.4e-05
313.15	0	0.000671	6.7e-05
318.15	0	0.000611	6.1e-05
323.15	0	0.000559	5.6e-05
328.15	0	0.000514	5.2e-05
333.15	0	0.000474	4.8e-05
338.15	0	0.000439	4.4e-05
343.15	0	0.000408	4.1e-05

System: water + 1-methyl-1-pentylpiperidinium bromide; phases: Liquid, Gas
Property: Vapor or sublimation pressure, kPa (Liquid); method: Ebulliometric method (Recirculating still)
Temperature, K	Mole fraction of 1-methyl-1-pentylpiperidinium bromide	Vapor or sublimation pressure, kPa	uncertainty
338.15	0	25.1	1
338.15	0.003	24.9	1
338.15	0.008	25	1
338.15	0.012	24.7	1
338.15	0.018	24.4	1
338.15	0.021	24.3	1
338.15	0.03	24.2	1
338.15	0.042	23.8	1
338.15	0.052	23.4	1
338.15	0.07	22.8	1
338.15	0.083	22.5	1
338.15	0.095	22.1	1
348.15	0	38.6	1
348.15	0.003	38.4	1.6
348.15	0.008	38.2	1.1
348.15	0.012	38.2	1
348.15	0.018	37.8	1.1
348.15	0.021	37.4	1
348.15	0.03	37.3	1
348.15	0.041	36.7	1
348.15	0.051	36.2	1.1
348.15	0.069	35.2	1
348.15	0.082	34.4	1
348.15	0.093	33.8	1
348.15	0.121	32.4	1
348.15	0.128	31.7	1.1
348.15	0.154	29.9	1.1
348.15	0.18	28.1	1
348.15	0.199	27	1
358.15	0	57.9	1
358.15	0.003	57.5	2.1
358.15	0.008	56.9	1.1
358.15	0.012	56.8	1
358.15	0.018	56.6	1.1
358.15	0.021	56.2	1.1
358.15	0.029	55.6	1.1
358.15	0.041	54.9	1.1
358.15	0.052	54.1	1.1
358.15	0.07	52.5	1.1
358.15	0.083	51.6	1.1
358.15	0.096	50.4	1.2
358.15	0.118	47.9	1
358.15	0.129	46.9	1.1
358.15	0.163	44	1.1
358.15	0.188	41.5	1.2
358.15	0.225	36.5	1.5
358.15	0.232	34.6	1.5
368.15	0	84.4	1.1
368.15	0.003	84.1	1.2
368.15	0.008	83.3	1.1
368.15	0.012	83	1.2
368.15	0.018	82.4	1.1
368.15	0.02	81.9	1.1
368.15	0.029	81.2	1.1
368.15	0.041	79.9	1.1
368.15	0.052	78.8	1.1
368.15	0.069	76.7	1.2
368.15	0.083	74.6	1.2
368.15	0.093	73.1	1.2
368.15	0.124	69.3	1.2
368.15	0.137	66.8	1.2
368.15	0.16	63.8	1.2
368.15	0.191	60.1	1.2
368.15	0.211	57.5	1.3
368.15	0.228	52.4	1.7
368.15	0.235	49.6	1.9

System: water + 1-methyl-1-pentylpiperidinium bromide; phases: Liquid, Crystal
Fixed: Pressure, kPa = 100
Property: Solid-liquid equilibrium temperature, K (Liquid); method: VISOBS
Mole fraction of 1-methyl-1-pentylpiperidinium bromide	Solid-liquid equilibrium temperature, K	uncertainty
1	446.8	0.17
0.5235	361.69	0.19
0.5001	353.13	0.19
0.464	338.95	0.19
0.4268	322.36	0.2
0.3963	307.77	0.2
0.3552	289.92	0.19
0.3225	275.88	0.19
0.2996	266.72	0.19
0.2865	260.15	0.2

System: water + 1-methyl-1-pentylpiperidinium bromide; phases: Liquid, Crystal
Fixed: Pressure, kPa = 100
Property: Solid-liquid equilibrium temperature, K (Liquid); method: VISOBS
Mole fraction of 1-methyl-1-pentylpiperidinium bromide	Solid-liquid equilibrium temperature, K	uncertainty
0.0988	256.16	0.18
0.0718	261.22	0.18
0.0505	265.32	0.18
0.0274	269.72	0.18
0.0113	272.07	0.18
0	273.15	0.17
