Measured thermophysical data. Thermodynamic properties of the N-octylquinolinium bis{(trifluoromethyl)sulfonyl}imide
Source: J. Chem. Thermodyn., 2012, 10.1016/j.jct.2011.12.037
Compound 1: 1-octylquinolinium bis[(trifluoromethyl)sulfonyl]imide, C19H24F6N2O4S2, InChI=1S/C17H24N.C2F6NO4S2/c1-2-3-4-5-6-9-14-18-15-10-12-16-11-7-8-13-17(16)18;3-1(4,5)14(10,11)9-15(12,13)2(6,7)8/h7-8,10-13,15H,2-6,9,14H2,1H3;/q+1;-1
Compound 2: benzene, C6H6, InChI=1S/C6H6/c1-2-4-6-5-3-1/h1-6H, purity 99.7%
Compound 3: ethylbenzene, C8H10, InChI=1S/C8H10/c1-2-8-6-4-3-5-7-8/h3-7H,2H2,1H3, purity 99.8%
Compound 4: propylbenzene, C9H12, InChI=1S/C9H12/c1-2-6-9-7-4-3-5-8-9/h3-5,7-8H,2,6H2,1H3, purity 98%
Compound 5: thiophene, C4H4S, InChI=1S/C4H4S/c1-2-4-5-3-1/h1-4H, purity 99%
Compound 6: toluene, C7H8, InChI=1S/C7H8/c1-7-5-3-2-4-6-7/h2-6H,1H3, purity 99.5%
Compound 7: butan-1-ol, C4H10O, InChI=1S/C4H10O/c1-2-3-4-5/h5H,2-4H2,1H3, purity 99.8%
Compound 8: hexan-1-ol, C6H14O, InChI=1S/C6H14O/c1-2-3-4-5-6-7/h7H,2-6H2,1H3, purity 99%
Compound 9: octan-1-ol, C8H18O, InChI=1S/C8H18O/c1-2-3-4-5-6-7-8-9/h9H,2-8H2,1H3, purity 99%
Compound 10: decan-1-ol, C10H22O, InChI=1S/C10H22O/c1-2-3-4-5-6-7-8-9-10-11/h11H,2-10H2,1H3, purity 99%
Compound 11: dodecan-1-ol, C12H26O, InChI=1S/C12H26O/c1-2-3-4-5-6-7-8-9-10-11-12-13/h13H,2-12H2,1H3, purity 98%

System: 1-octylquinolinium bis[(trifluoromethyl)sulfonyl]imide; phases: Glass, Liquid, Air at 1 atmosphere
Property: Triple point temperature, K (Glass); method: DTA
Triple point temperature, K	uncertainty
220.8	10.01

System: 1-octylquinolinium bis[(trifluoromethyl)sulfonyl]imide; phases: Crystal, Liquid, Air at 1 atmosphere
Property: Molar enthalpy of transition or fusion, kJ/mol (Crystal); method: DSC
Molar enthalpy of transition or fusion, kJ/mol	uncertainty
62.91	1.68

System: 1-octylquinolinium bis[(trifluoromethyl)sulfonyl]imide; phases: Crystal, Liquid, Air at 1 atmosphere
Property: Triple point temperature, K (Crystal); method: DTA
Triple point temperature, K	uncertainty
321.5	0.5

System: 1-octylquinolinium bis[(trifluoromethyl)sulfonyl]imide; phases: Crystal, Liquid, Air at 1 atmosphere
Property: Normal melting temperature, K (Crystal); method: VISOBS
Normal melting temperature, K	uncertainty
321.3	1.1

System: 1-octylquinolinium bis[(trifluoromethyl)sulfonyl]imide; phases: Liquid
Fixed: Pressure, kPa = 101.325
Property: Mass density, kg/m3 (Liquid); method: Vibrating tube method
Temperature, K	Mass density, kg/m3	uncertainty
323.15	1317.99	6
328.15	1313.82	5.96
333.15	1309.64	5.92
338.15	1305.46	5.88
343.15	1301.29	5.84
348.15	1297.14	5.81
353.15	1292.99	5.77
358.15	1288.85	5.73
363.15	1284.71	5.69

System: 1-octylquinolinium bis[(trifluoromethyl)sulfonyl]imide; phases: Liquid
Fixed: Pressure, kPa = 101.325
Property: Viscosity, Pa*s (Liquid); method: Falling or rolling sphere viscometry
Temperature, K	Viscosity, Pa*s	uncertainty
323.15	0.09846	0.003483
328.15	0.077269	0.002445
333.15	0.061751	0.001812
338.15	0.05006	0.001431
343.15	0.041149	0.00121
348.15	0.034224	0.001005
353.15	0.028873	0.000847
358.15	0.024699	0.000724
363.15	0.021187	0.000622

System: benzene; phases: Crystal, Liquid, Air at 1 atmosphere
Property: Normal melting temperature, K (Crystal); method: VISOBS
Normal melting temperature, K	uncertainty
278.6	1.06

System: benzene + 1-octylquinolinium bis[(trifluoromethyl)sulfonyl]imide; phases: Liquid, Crystal
Fixed: Pressure, kPa = 101.3
Property: Solid-liquid equilibrium temperature, K (Liquid); method: VISOBS
Mole fraction of 1-octylquinolinium bis[(trifluoromethyl)sulfonyl]imide	Solid-liquid equilibrium temperature, K	uncertainty
1	321.3	1
0.9526	319.9	1
0.8897	318.8	1
0.8268	316.8	1
0.7667	315	1
0.7009	312.9	1
0.6521	310.5	1
0.5913	307.7	1
0.537	304.6	1
0.4861	301.5	1
0.3906	292.9	1
0.3478	288.1	1
0.3066	282.7	1
0.2608	275.5	1

System: benzene + 1-octylquinolinium bis[(trifluoromethyl)sulfonyl]imide; phases: Liquid, Crystal
Fixed: Pressure, kPa = 101.3
Property: Solid-liquid equilibrium temperature, K (Liquid); method: VISOBS
Mole fraction of 1-octylquinolinium bis[(trifluoromethyl)sulfonyl]imide	Solid-liquid equilibrium temperature, K	uncertainty
0.2281	264.5	2
0.2019	268.8	2
0.1811	271.8	2
0.1502	275.3	2
0.1267	277.2	2
0	278.6	2.01

System: ethylbenzene + 1-octylquinolinium bis[(trifluoromethyl)sulfonyl]imide; phases: Crystal, Liquid mixture 1, Liquid mixture 2, Air at 1 atmosphere
Property: Quadruple (quintuple) point temperature, K (Crystal); method: visual
Quadruple (quintuple) point temperature, K	uncertainty
275.7	1.1

System: ethylbenzene + 1-octylquinolinium bis[(trifluoromethyl)sulfonyl]imide; phases: Liquid, Crystal
Fixed: Pressure, kPa = 101.3
Property: Solid-liquid equilibrium temperature, K (Liquid); method: VISOBS
Mole fraction of 1-octylquinolinium bis[(trifluoromethyl)sulfonyl]imide	Solid-liquid equilibrium temperature, K	uncertainty
1	321.3	2
0.9931	321.1	2
0.9594	320.6	2
0.9467	320.1	2
0.9237	319.6	2
0.8765	318.3	2
0.8392	317.1	2
0.7895	315.9	2
0.7787	315.6	2
0.7466	314.8	2
0.6851	312.3	2
0.6262	309.6	2
0.5966	307.9	2
0.5565	306.3	2
0.5017	303.1	2
0.4583	300.6	2
0.4105	297.5	2
0.397	296.1	2
0.3746	294.9	2
0.3387	291.6	2
0.3098	288.9	2
0.2758	285.6	2
0.2383	281.6	2
0.2332	281.1	2
0.1977	277.7	2

System: propylbenzene + 1-octylquinolinium bis[(trifluoromethyl)sulfonyl]imide; phases: Crystal, Liquid mixture 1, Liquid mixture 2, Air at 1 atmosphere
Property: Quadruple (quintuple) point temperature, K (Crystal); method: visual
Quadruple (quintuple) point temperature, K	uncertainty
285.8	1.1

System: propylbenzene + 1-octylquinolinium bis[(trifluoromethyl)sulfonyl]imide; phases: Liquid, Crystal
Fixed: Pressure, kPa = 101.3
Property: Solid-liquid equilibrium temperature, K (Liquid); method: VISOBS
Mole fraction of 1-octylquinolinium bis[(trifluoromethyl)sulfonyl]imide	Solid-liquid equilibrium temperature, K	uncertainty
1	321.3	1
0.9747	321	1
0.9316	320	1
0.8869	318.9	1
0.8448	317.4	1
0.7996	316.2	1
0.7469	314.4	1
0.6694	311.3	1
0.6012	308.8	1
0.5405	305.6	1
0.461	301.4	1
0.3944	297.5	1
0.35	294.6	1
0.31	291.7	1
0.2784	289.5	1
0.2306	286.5	1

System: thiophene + 1-octylquinolinium bis[(trifluoromethyl)sulfonyl]imide; phases: Liquid, Crystal
Fixed: Pressure, kPa = 101.3
Property: Solid-liquid equilibrium temperature, K (Liquid); method: VISOBS
Mole fraction of 1-octylquinolinium bis[(trifluoromethyl)sulfonyl]imide	Solid-liquid equilibrium temperature, K	uncertainty
1	321.3	1
0.9267	319.7	1
0.8634	317.9	1
0.7938	315.6	1
0.7066	312.4	1
0.6195	308	1
0.5681	305.5	1
0.5208	302.9	1
0.4656	298.8	1
0.4104	294.7	1
0.3519	288.1	1
0.3144	282.3	1
0.2735	275.9	1
0.2426	270.1	1
0.2168	265.1	1
0.196	259.8	1.1
0.1788	253.2	1.1

System: thiophene + 1-octylquinolinium bis[(trifluoromethyl)sulfonyl]imide; phases: Liquid mixture 1, Liquid mixture 2
Fixed: Pressure, kPa = 101.3
Property: Liquid-liquid equilibrium temperature, K (Liquid mixture 1); method: VISOBS
Mole fraction of 1-octylquinolinium bis[(trifluoromethyl)sulfonyl]imide	Liquid-liquid equilibrium temperature, K	uncertainty
0.071	303.1	4.4
0.0687	307.3	4.4
0.0656	313.1	4.4
0.0617	319.7	4.1
0.0569	321.7	4.2
0.0494	333	4.3
0.0413	345.5	4.2
0.0333	351.5	4
0.0277	353.6	4
0.0227	355	4
0.0167	354.4	4
0.012	353.7	4

System: toluene + 1-octylquinolinium bis[(trifluoromethyl)sulfonyl]imide; phases: Liquid, Crystal
Fixed: Pressure, kPa = 101.3
Property: Solid-liquid equilibrium temperature, K (Liquid); method: VISOBS
Mole fraction of 1-octylquinolinium bis[(trifluoromethyl)sulfonyl]imide	Solid-liquid equilibrium temperature, K	uncertainty
1	321.3	1
0.9651	320.6	1
0.9191	319.6	1
0.8886	318.6	1
0.8803	318.8	1
0.8292	317.2	1
0.7992	316.4	1
0.7485	314.6	1
0.6986	312.5	1
0.6595	310.8	1
0.607	308.4	1
0.561	305.8	1
0.5151	303	1
0.4699	300.2	1
0.3863	292.7	1
0.3608	289.9	1
0.3439	288.2	1
0.3246	285.8	1
0.3085	282.6	1
0.2995	282.5	1
0.2731	278.6	1
0.2447	274.2	1
0.2161	269	1
0.213	268.7	1
0.1791	261.2	1

System: toluene + 1-octylquinolinium bis[(trifluoromethyl)sulfonyl]imide; phases: Liquid mixture 1, Liquid mixture 2
Fixed: Pressure, kPa = 101.3
Property: Liquid-liquid equilibrium temperature, K (Liquid mixture 1); method: VISOBS
Mole fraction of 1-octylquinolinium bis[(trifluoromethyl)sulfonyl]imide	Liquid-liquid equilibrium temperature, K	uncertainty
0.1166	331.2	4.3
0.1127	346.2	4.9
0.1092	364.2	5.5

System: butan-1-ol + 1-octylquinolinium bis[(trifluoromethyl)sulfonyl]imide; phases: Liquid, Crystal
Fixed: Pressure, kPa = 101.3
Property: Solid-liquid equilibrium temperature, K (Liquid); method: VISOBS
Mole fraction of 1-octylquinolinium bis[(trifluoromethyl)sulfonyl]imide	Solid-liquid equilibrium temperature, K	uncertainty
1	321.3	1
0.9429	320.7	1
0.9114	320.3	1
0.8446	319.3	1
0.7648	317	1
0.7175	316	1
0.6433	313.9	1
0.5037	309	1
0.4772	308	1
0.4191	306.9	1
0.3585	305.2	1
0.2972	303.8	1
0.1875	301.7	1
0.104	300.7	1
0.0641	300.2	1

System: hexan-1-ol + 1-octylquinolinium bis[(trifluoromethyl)sulfonyl]imide; phases: Liquid, Crystal
Fixed: Pressure, kPa = 101.3
Property: Solid-liquid equilibrium temperature, K (Liquid); method: VISOBS
Mole fraction of 1-octylquinolinium bis[(trifluoromethyl)sulfonyl]imide	Solid-liquid equilibrium temperature, K	uncertainty
1	321.3	1
0.9671	320.8	1
0.9252	320	1
0.8868	319.1	1
0.8489	318.3	1
0.8123	317.5	1
0.7756	316.5	1
0.736	315.5	1
0.6968	314.5	1
0.6541	313.4	1
0.6106	312.4	1
0.5605	311.3	1
0.557	310.9	1
0.499	309.6	1
0.4682	309	1
0.4181	308.1	1
0.3783	307.6	1
0.3643	307.3	1
0.3236	307	1
0.2651	306.4	1
0.2101	306.1	1
0.1836	306.1	1
0.1521	306	1
0.1083	306	1
0.1067	306	1
0.0794	305.9	1
0.0545	305.9	1
0.0434	305.8	1
0.0425	305.9	1
0.0344	305.6	1
0.022	305.4	1

System: octan-1-ol + 1-octylquinolinium bis[(trifluoromethyl)sulfonyl]imide; phases: Crystal, Liquid mixture 1, Liquid mixture 2, Air at 1 atmosphere
Property: Quadruple (quintuple) point temperature, K (Crystal); method: visual
Quadruple (quintuple) point temperature, K	uncertainty
310.7	1.1

System: octan-1-ol + 1-octylquinolinium bis[(trifluoromethyl)sulfonyl]imide; phases: Liquid, Crystal
Fixed: Pressure, kPa = 101.3
Property: Solid-liquid equilibrium temperature, K (Liquid); method: VISOBS
Mole fraction of 1-octylquinolinium bis[(trifluoromethyl)sulfonyl]imide	Solid-liquid equilibrium temperature, K	uncertainty
1	321.3	1
0.9543	319.8	1
0.8599	318	1
0.8311	317.3	1
0.7653	316.4	1
0.6912	314.6	1
0.6194	313.3	1
0.6165	313.1	1
0.5537	311.9	1
0.4695	311	1

System: octan-1-ol + 1-octylquinolinium bis[(trifluoromethyl)sulfonyl]imide; phases: Liquid mixture 1, Liquid mixture 2
Fixed: Pressure, kPa = 101.3
Property: Liquid-liquid equilibrium temperature, K (Liquid mixture 1); method: VISOBS
Mole fraction of 1-octylquinolinium bis[(trifluoromethyl)sulfonyl]imide	Liquid-liquid equilibrium temperature, K	uncertainty
0.364	315.1	2
0.3633	315.5	2
0.3269	317.5	2
0.2951	319.8	2
0.2655	321.5	2
0.2578	322.3	2
0.235	323	2
0.2061	324	2
0.204	324.2	2
0.1718	324.5	2
0.148	324.8	2
0.1145	324.8	2
0.1027	325.1	2
0.0859	324.7	2
0.0532	323.3	2
0.0529	323.5	2
0.0314	319.8	2
0.0202	315.8	2
0.017	313.9	2.1

System: decan-1-ol + 1-octylquinolinium bis[(trifluoromethyl)sulfonyl]imide; phases: Crystal, Liquid mixture 1, Liquid mixture 2, Air at 1 atmosphere
Property: Quadruple (quintuple) point temperature, K (Crystal); method: visual
Quadruple (quintuple) point temperature, K	uncertainty
313.5	1.1

System: decan-1-ol + 1-octylquinolinium bis[(trifluoromethyl)sulfonyl]imide; phases: Liquid, Crystal
Fixed: Pressure, kPa = 101.3
Property: Solid-liquid equilibrium temperature, K (Liquid); method: VISOBS
Mole fraction of 1-octylquinolinium bis[(trifluoromethyl)sulfonyl]imide	Solid-liquid equilibrium temperature, K	uncertainty
1	321.3	1
0.9331	318.9	1
0.8348	317.5	1
0.7784	316.1	1
0.728	315	1
0.6497	313.9	1

System: decan-1-ol + 1-octylquinolinium bis[(trifluoromethyl)sulfonyl]imide; phases: Liquid mixture 1, Liquid mixture 2
Fixed: Pressure, kPa = 101.3
Property: Liquid-liquid equilibrium temperature, K (Liquid mixture 1); method: VISOBS
Mole fraction of 1-octylquinolinium bis[(trifluoromethyl)sulfonyl]imide	Liquid-liquid equilibrium temperature, K	uncertainty
0.4897	326.5	2
0.4349	332.1	2
0.3704	337.6	2
0.3135	341.7	2
0.2563	344.8	2
0.2143	346.2	2
0.1823	346.9	2
0.1097	347.5	2
0.0852	347.4	2
0.0646	346.8	2
0.038	344	2
0.0243	339.5	2
0.0163	334.6	2.1
0.0119	330	2.3

System: dodecan-1-ol + 1-octylquinolinium bis[(trifluoromethyl)sulfonyl]imide; phases: Crystal, Liquid mixture 1, Liquid mixture 2, Air at 1 atmosphere
Property: Quadruple (quintuple) point temperature, K (Crystal); method: visual
Quadruple (quintuple) point temperature, K	uncertainty
316.5	1.1

System: dodecan-1-ol + 1-octylquinolinium bis[(trifluoromethyl)sulfonyl]imide; phases: Liquid, Crystal
Fixed: Pressure, kPa = 101.3
Property: Solid-liquid equilibrium temperature, K (Liquid); method: VISOBS
Mole fraction of 1-octylquinolinium bis[(trifluoromethyl)sulfonyl]imide	Solid-liquid equilibrium temperature, K	uncertainty
1	321.3	1
0.9247	320	1
0.8405	317.9	1
0.7825	317.1	1

System: dodecan-1-ol + 1-octylquinolinium bis[(trifluoromethyl)sulfonyl]imide; phases: Liquid mixture 1, Liquid mixture 2
Fixed: Pressure, kPa = 101.3
Property: Liquid-liquid equilibrium temperature, K (Liquid mixture 1); method: VISOBS
Mole fraction of 1-octylquinolinium bis[(trifluoromethyl)sulfonyl]imide	Liquid-liquid equilibrium temperature, K	uncertainty
0.6902	321.25	2.01
0.6317	331.25	2.01
0.5767	338.55	2.01
0.5143	346.25	2.01
0.4559	351.75	2.01
0.4102	355.75	2.01
0.3578	359.85	2.01
0.3121	362.75	2.01
0.2711	364.95	2.01
0.2181	366.7	2
0.1699	367.55	2.01
0.1064	366.85	2.01
0.0738	366.5	2
0.0493	364.8	2
0.032	360.2	2
0.0244	357.45	2.04
