Measured thermophysical data. Liquid phase PVTx properties of (water + tert-butanol) binary mixtures at temperatures from 278.15 to 323.15 K and pressures from 0.1 to 100 MPa. I. Experimental results, excess and partial molar volumes
Source: J. Chem. Thermodyn., 2013, 10.1016/j.jct.2012.09.026
Compound 1: 2-methylpropan-2-ol, C4H10O, InChI=1S/C4H10O/c1-4(2,3)5/h5H,1-3H3
Compound 2: water, H2O, InChI=1S/H2O/h1H2, purity 99.8%

System: 2-methylpropan-2-ol; phases: Liquid
Property: Mass density, kg/m3 (Liquid); method: Vibrating tube method
Temperature, K	Pressure, kPa	Mass density, kg/m3	uncertainty
308.15	101.3	770.14	1.01
323.15	101.3	753.94	1.01
323.15	10000	764.58	1.03
323.15	25000	778.73	1.07
323.15	50000	798.2	1.15
323.15	75000	813.79	1.22
323.15	100000	827.34	1.32

System: water; phases: Liquid
Property: Mass density, kg/m3 (Liquid); method: Vibrating tube method
Temperature, K	Pressure, kPa	Mass density, kg/m3	uncertainty
278.15	101.3	999.96	1
288.15	101.3	999.09	1
298.15	101.3	997.04	1
308.15	101.3	994.03	1
323.15	101.3	988.03	1
278.15	10000	1004.77	1.03
288.15	10000	1003.67	1.03
298.15	10000	1001.47	1.03
308.15	10000	998.36	1.03
323.15	10000	992.31	1.03
278.15	25000	1011.88	1.06
288.15	25000	1010.42	1.07
298.15	25000	1007.99	1.07
308.15	25000	1004.75	1.07
323.15	25000	998.61	1.08
278.15	50000	1023.2	1.12
288.15	50000	1021.21	1.12
298.15	50000	1018.44	1.13
308.15	50000	1014.97	1.13
323.15	50000	1008.68	1.13
278.15	75000	1033.91	1.22
288.15	75000	1031.47	1.22
298.15	75000	1028.37	1.23
308.15	75000	1024.71	1.23
323.15	75000	1018.27	1.24
278.15	100000	1044.08	1.32
288.15	100000	1041.23	1.33
298.15	100000	1037.86	1.33
308.15	100000	1034	1.34
323.15	100000	1027.42	1.34

System: 2-methylpropan-2-ol + water; phases: Liquid
Fixed: Pressure, kPa = 101.3
Property: Mass density, kg/m3 (Liquid); method: Vibrating tube method
Temperature, K	Mole fraction of 2-methylpropan-2-ol	Mass density, kg/m3	uncertainty
278.15	0	999.96	1
288.15	0	999.09	1
298.15	0	997.04	1
308.15	0	994.03	1
323.15	0	988.03	1
278.15	0.0248	986.88	1
288.15	0.0248	985.26	1
298.15	0.0248	982.45	1
308.15	0.0248	978.65	1
323.15	0.0248	971.52	1
278.15	0.04241	981.87	1
288.15	0.04241	978.77	1
298.15	0.04241	974.54	1
308.15	0.04241	969.43	1
323.15	0.04241	960.77	1
278.15	0.05887	977	1
288.15	0.05887	971.81	1
298.15	0.05887	965.94	1
308.15	0.05887	959.67	1
323.15	0.05887	949.57	1
278.15	0.08929	963.35	1
288.15	0.08929	956.03	1
298.15	0.08929	949.01	1
308.15	0.08929	941.57	1
323.15	0.08929	930.6	1
278.15	0.1125	951.21	1
288.15	0.1125	943.7	1
298.15	0.1125	936.18	1
308.15	0.1125	928.56	1
323.15	0.1125	916.92	1
278.15	0.15662	929.91	1
288.15	0.15662	922.09	1
298.15	0.15662	914.18	1
308.15	0.15662	906.33	1
323.15	0.15662	893.97	1
278.15	0.208	910.57	1
288.15	0.208	902.66	1
298.15	0.208	894.55	1
308.15	0.208	886.22	1
323.15	0.208	873.34	1
278.15	0.30233	882.17	1.01
288.15	0.30233	874	1.01
298.15	0.30233	865.6	1.01
308.15	0.30233	856.97	1.01
323.15	0.30233	843.45	1.01
278.15	0.4045	860.22	1.01
288.15	0.4045	851.78	1.01
298.15	0.4045	843.11	1.01
308.15	0.4045	834.17	1.01
323.15	0.4045	820.18	1.01
278.15	0.48268	847.15	1.01
288.15	0.48268	838.7	1.01
298.15	0.48268	830.01	1.01
308.15	0.48268	820.93	1.01
323.15	0.48268	806.67	1.01
278.15	0.53444	839.61	1.01
288.15	0.53444	830.98	1.01
298.15	0.53444	822.05	1.01
308.15	0.53444	812.83	1.01
323.15	0.53444	798.37	1.01
278.15	0.60288	831.08	1.01
288.15	0.60288	822.27	1.01
298.15	0.60288	813.22	1.01
308.15	0.60288	803.86	1.01
323.15	0.60288	789.18	1.01
278.15	0.72599	818.36	1.01
288.15	0.72599	809.38	1.01
298.15	0.72599	800.1	1.01
308.15	0.72599	790.54	1.01
323.15	0.72599	775.51	1.01
278.15	0.79993	812.56	1.01
288.15	0.79993	803.46	1.01
298.15	0.79993	794.07	1.01
308.15	0.79993	784.37	1.01
323.15	0.79993	768.91	1.01
288.15	0.8711	797.8	1.01
298.15	0.8711	788.3	1.01
308.15	0.8711	778.45	1.01
323.15	0.8711	763	1.01
288.15	0.9183	794.66	1.01
298.15	0.9183	785.07	1.01
308.15	0.9183	775.09	1.01
323.15	0.9183	759.52	1.01
298.15	0.95735	782.74	1.01
308.15	0.95735	772.63	1.01
323.15	0.95735	756.76	1.01
308.15	1	770.14	1.01
323.15	1	753.94	1.01

System: 2-methylpropan-2-ol + water; phases: Liquid
Property: Mass density, kg/m3 (Liquid); method: Constant-volume piezometry
Mole fraction of 2-methylpropan-2-ol	Temperature, K	Pressure, kPa	Mass density, kg/m3	uncertainty
0	278.15	10000	1004.77	1.03
0	288.15	10000	1003.67	1.03
0	298.15	10000	1001.47	1.03
0	308.15	10000	998.36	1.03
0	323.15	10000	992.31	1.03
0.0248	278.15	10000	990.83	1.03
0.0248	288.15	10000	989.1	1.03
0.0248	298.15	10000	986.4	1.03
0.0248	308.15	10000	982.6	1.03
0.0248	323.15	10000	975.58	1.03
0.04241	278.15	10000	985.44	1.03
0.04241	288.15	10000	982.35	1.03
0.04241	298.15	10000	978.4	1.03
0.04241	308.15	10000	973.49	1.03
0.04241	323.15	10000	965.03	1.03
0.05887	278.15	10000	980.38	1.03
0.05887	288.15	10000	975.51	1.03
0.05887	298.15	10000	969.98	1.03
0.05887	308.15	10000	963.89	1.03
0.05887	323.15	10000	954.03	1.03
0.08929	278.15	10000	967.1	1.03
0.08929	288.15	10000	960.11	1.03
0.08929	298.15	10000	953.39	1.03
0.08929	308.15	10000	946.1	1.03
0.08929	323.15	10000	935.46	1.03
0.1125	278.15	10000	955.35	1.03
0.1125	288.15	10000	948.15	1.03
0.1125	298.15	10000	940.81	1.03
0.1125	308.15	10000	933.31	1.03
0.1125	323.15	10000	922.12	1.03
0.15662	278.15	10000	934.55	1.03
0.15662	288.15	10000	927.05	1.03
0.15662	298.15	10000	919.21	1.03
0.15662	308.15	10000	911.53	1.03
0.15662	323.15	10000	899.59	1.03
0.208	278.15	10000	915.88	1.03
0.208	288.15	10000	908.09	1.03
0.208	298.15	10000	899.99	1.03
0.208	308.15	10000	891.88	1.03
0.208	323.15	10000	879.35	1.03
0.30233	278.15	10000	888.19	1.03
0.30233	288.15	10000	880.07	1.03
0.30233	298.15	10000	871.71	1.03
0.30233	308.15	10000	863.34	1.03
0.30233	323.15	10000	850.13	1.03
0.4045	278.15	10000	866.8	1.03
0.4045	288.15	10000	858.48	1.03
0.4045	298.15	10000	849.93	1.03
0.4045	308.15	10000	841.23	1.03
0.4045	323.15	10000	827.69	1.03
0.48268	278.15	10000	854.18	1.03
0.48268	288.15	10000	845.78	1.03
0.48268	298.15	10000	837.26	1.03
0.48268	308.15	10000	828.5	1.03
0.48268	323.15	10000	814.74	1.03
0.53444	288.15	10000	838.32	1.03
0.53444	298.15	10000	829.58	1.03
0.53444	308.15	10000	820.71	1.03
0.53444	323.15	10000	806.74	1.03
0.60288	298.15	10000	821.11	1.03
0.60288	308.15	10000	812.19	1.03
0.60288	323.15	10000	797.93	1.03
0.72599	308.15	10000	799.44	1.03
0.72599	323.15	10000	784.92	1.03
0.79993	323.15	10000	778.73	1.03
0.8711	323.15	10000	773.1	1.03
0.9183	323.15	10000	769.84	1.03
0.95735	323.15	10000	767.23	1.03
1	323.15	10000	764.58	1.03
0	278.15	25000	1011.88	1.06
0	288.15	25000	1010.42	1.07
0	298.15	25000	1007.99	1.07
0	308.15	25000	1004.75	1.07
0	323.15	25000	998.61	1.08
0.0248	278.15	25000	996.63	1.04
0.0248	288.15	25000	994.94	1.05
0.0248	298.15	25000	992.33	1.05
0.0248	308.15	25000	988.54	1.05
0.0248	323.15	25000	981.52	1.05
0.04241	278.15	25000	990.81	1.04
0.04241	288.15	25000	987.9	1.05
0.04241	298.15	25000	984.21	1.05
0.04241	308.15	25000	979.65	1.05
0.04241	323.15	25000	971.36	1.05
0.05887	278.15	25000	985.66	1.04
0.05887	288.15	25000	981.16	1.05
0.05887	298.15	25000	975.95	1.05
0.05887	308.15	25000	970.24	1.05
0.05887	323.15	25000	960.64	1.07
0.08929	278.15	25000	972.88	1.04
0.08929	288.15	25000	966.27	1.05
0.08929	298.15	25000	959.85	1.05
0.08929	308.15	25000	952.8	1.07
0.08929	323.15	25000	942.55	1.07
0.1125	278.15	25000	961.59	1.05
0.1125	288.15	25000	954.74	1.05
0.1125	298.15	25000	947.61	1.07
0.1125	308.15	25000	940.3	1.07
0.1125	323.15	25000	929.62	1.07
0.15662	278.15	25000	941.34	1.06
0.15662	288.15	25000	934.17	1.07
0.15662	298.15	25000	926.51	1.07
0.15662	308.15	25000	919.1	1.07
0.15662	323.15	25000	907.6	1.07
0.208	278.15	25000	923.3	1.06
0.208	288.15	25000	915.74	1.07
0.208	298.15	25000	907.83	1.07
0.208	308.15	25000	900.03	1.07
0.208	323.15	25000	887.94	1.07
0.30233	278.15	25000	896.35	1.06
0.30233	288.15	25000	888.45	1.07
0.30233	298.15	25000	880.25	1.07
0.30233	308.15	25000	872.28	1.07
0.30233	323.15	25000	859.69	1.07
0.4045	278.15	25000	875.55	1.06
0.4045	288.15	25000	867.58	1.07
0.4045	298.15	25000	859.23	1.07
0.4045	308.15	25000	850.99	1.07
0.4045	323.15	25000	838.16	1.07
0.48268	278.15	25000	863.45	1.06
0.48268	288.15	25000	855.38	1.06
0.48268	298.15	25000	847.01	1.07
0.48268	308.15	25000	838.84	1.07
0.48268	323.15	25000	825.82	1.07
0.53444	288.15	25000	848.18	1.06
0.53444	298.15	25000	839.65	1.07
0.53444	308.15	25000	831.4	1.07
0.53444	323.15	25000	818.13	1.07
0.60288	298.15	25000	831.63	1.06
0.60288	308.15	25000	823.36	1.07
0.60288	323.15	25000	809.81	1.07
0.72599	308.15	25000	811.34	1.07
0.72599	323.15	25000	797.59	1.07
0.79993	323.15	25000	791.84	1.07
0.8711	323.15	25000	786.62	1.07
0.9183	323.15	25000	783.6	1.07
0.95735	323.15	25000	781.19	1.07
1	323.15	25000	778.73	1.07
0	278.15	50000	1023.2	1.12
0	288.15	50000	1021.21	1.12
0	298.15	50000	1018.44	1.13
0	308.15	50000	1014.97	1.13
0	323.15	50000	1008.68	1.13
0.0248	278.15	50000	1005.84	1.12
0.0248	288.15	50000	1004.75	1.12
0.0248	298.15	50000	1002.03	1.12
0.0248	308.15	50000	998.04	1.13
0.0248	323.15	50000	991.13	1.13
0.04241	278.15	50000	999.56	1.12
0.04241	288.15	50000	997.38	1.12
0.04241	298.15	50000	993.67	1.12
0.04241	308.15	50000	989.37	1.13
0.04241	323.15	50000	981.39	1.13
0.05887	278.15	50000	994.6	1.11
0.05887	288.15	50000	990.56	1.12
0.05887	298.15	50000	985.61	1.12
0.05887	308.15	50000	980.26	1.12
0.05887	323.15	50000	971.01	1.13
0.08929	278.15	50000	982.34	1.11
0.08929	288.15	50000	976.26	1.12
0.08929	298.15	50000	970.06	1.12
0.08929	308.15	50000	963.39	1.12
0.08929	323.15	50000	953.61	1.13
0.1125	278.15	50000	971.7	1.11
0.1125	288.15	50000	965.1	1.12
0.1125	298.15	50000	958.37	1.12
0.1125	308.15	50000	951.52	1.12
0.1125	323.15	50000	941.17	1.13
0.15662	278.15	50000	952.1	1.11
0.15662	288.15	50000	945.1	1.11
0.15662	298.15	50000	937.98	1.12
0.15662	308.15	50000	931.05	1.12
0.15662	323.15	50000	920.03	1.12
0.208	278.15	50000	934.42	1.11
0.208	288.15	50000	927.25	1.11
0.208	298.15	50000	920	1.11
0.208	308.15	50000	912.67	1.12
0.208	323.15	50000	901.32	1.12
0.30233	278.15	50000	908.07	1.11
0.30233	288.15	50000	900.8	1.11
0.30233	298.15	50000	893.22	1.11
0.30233	308.15	50000	885.81	1.11
0.30233	323.15	50000	874.39	1.14
0.4045	278.15	50000	887.79	1.11
0.4045	288.15	50000	880.62	1.11
0.4045	298.15	50000	872.83	1.13
0.4045	308.15	50000	865.39	1.13
0.4045	323.15	50000	853.64	1.13
0.48268	278.15	50000	876.1	1.1
0.48268	288.15	50000	869.2	1.13
0.48268	298.15	50000	861.18	1.13
0.48268	308.15	50000	853.93	1.13
0.48268	323.15	50000	841.81	1.13
0.53444	288.15	50000	862.25	1.12
0.53444	298.15	50000	854.14	1.13
0.53444	308.15	50000	846.76	1.13
0.53444	323.15	50000	834.43	1.13
0.60288	298.15	50000	846.6	1.12
0.60288	308.15	50000	839.04	1.13
0.60288	323.15	50000	826.63	1.13
0.72599	308.15	50000	827.94	1.13
0.72599	323.15	50000	815.19	1.13
0.79993	323.15	50000	809.91	1.13
0.8711	323.15	50000	805.23	1.13
0.9183	323.15	50000	802.47	1.15
0.95735	323.15	50000	800.32	1.15
1	323.15	50000	798.2	1.15
0	278.15	75000	1033.91	1.22
0	288.15	75000	1031.47	1.22
0	298.15	75000	1028.37	1.23
0	308.15	75000	1024.71	1.23
0	323.15	75000	1018.27	1.24
0.0248	278.15	75000	1014.43	1.19
0.0248	288.15	75000	1014.19	1.22
0.0248	298.15	75000	1011.23	1.22
0.0248	308.15	75000	1006.97	1.21
0.0248	323.15	75000	1000.34	1.23
0.04241	278.15	75000	1007.73	1.19
0.04241	288.15	75000	1006.42	1.2
0.04241	298.15	75000	1002.58	1.2
0.04241	308.15	75000	998.3	1.22
0.04241	323.15	75000	990.63	1.23
0.05887	278.15	75000	1002.96	1.19
0.05887	288.15	75000	999.48	1.2
0.05887	298.15	75000	994.71	1.2
0.05887	308.15	75000	989.51	1.22
0.05887	323.15	75000	980.49	1.23
0.08929	278.15	75000	991.23	1.19
0.08929	288.15	75000	985.6	1.21
0.08929	298.15	75000	979.52	1.21
0.08929	308.15	75000	973.24	1.22
0.08929	323.15	75000	963.7	1.22
0.1125	278.15	75000	981	1.2
0.1125	288.15	75000	974.66	1.21
0.1125	298.15	75000	968.17	1.21
0.1125	308.15	75000	961.84	1.21
0.1125	323.15	75000	951.62	1.22
0.15662	278.15	75000	961.89	1.2
0.15662	288.15	75000	955.07	1.2
0.15662	298.15	75000	948.39	1.21
0.15662	308.15	75000	941.93	1.21
0.15662	323.15	75000	931.22	1.21
0.208	278.15	75000	944.32	1.2
0.208	288.15	75000	937.59	1.2
0.208	298.15	75000	930.82	1.2
0.208	308.15	75000	924	1.2
0.208	323.15	75000	913.19	1.21
0.30233	278.15	75000	918.19	1.19
0.30233	288.15	75000	911.52	1.19
0.30233	298.15	75000	904.74	1.2
0.30233	308.15	75000	897.73	1.2
0.30233	323.15	75000	887.1	1.2
0.4045	278.15	75000	898.01	1.19
0.4045	288.15	75000	891.74	1.19
0.4045	298.15	75000	884.67	1.19
0.4045	308.15	75000	877.69	1.19
0.4045	323.15	75000	866.87	1.22
0.48268	278.15	75000	886.19	1.18
0.48268	288.15	75000	880.7	1.19
0.48268	298.15	75000	873.35	1.19
0.48268	308.15	75000	866.59	1.21
0.48268	323.15	75000	855.33	1.21
0.53444	288.15	75000	873.92	1.19
0.53444	298.15	75000	866.45	1.19
0.53444	308.15	75000	859.52	1.21
0.53444	323.15	75000	848.15	1.21
0.60288	298.15	75000	859.03	1.2
0.60288	308.15	75000	851.9	1.21
0.60288	323.15	75000	840.58	1.21
0.72599	308.15	75000	841.27	1.2
0.72599	323.15	75000	829.57	1.21
0.79993	323.15	75000	824.52	1.21
0.8711	323.15	75000	820.17	1.21
0.9183	323.15	75000	817.6	1.22
0.95735	323.15	75000	815.64	1.22
1	323.15	75000	813.79	1.22
0	278.15	100000	1044.08	1.32
0	288.15	100000	1041.23	1.33
0	298.15	100000	1037.86	1.33
0	308.15	100000	1034	1.34
0	323.15	100000	1027.42	1.34
0.0248	278.15	100000	1022.28	1.31
0.0248	288.15	100000	1022.71	1.32
0.0248	298.15	100000	1019.69	1.32
0.0248	308.15	100000	1015.14	1.33
0.0248	323.15	100000	1009.12	1.33
0.04241	278.15	100000	1014.85	1.31
0.04241	288.15	100000	1014.15	1.31
0.04241	298.15	100000	1010.64	1.32
0.04241	308.15	100000	1006.32	1.32
0.04241	323.15	100000	998.9	1.33
0.05887	278.15	100000	1009.82	1.31
0.05887	288.15	100000	1007.36	1.31
0.05887	298.15	100000	1003.04	1.32
0.05887	308.15	100000	997.93	1.32
0.05887	323.15	100000	989.01	1.33
0.08929	278.15	100000	999.16	1.3
0.08929	288.15	100000	993.91	1.31
0.08929	298.15	100000	988.13	1.31
0.08929	308.15	100000	982.34	1.31
0.08929	323.15	100000	972.81	1.32
0.1125	278.15	100000	988.91	1.3
0.1125	288.15	100000	983.36	1.3
0.1125	298.15	100000	976.75	1.31
0.1125	308.15	100000	970.82	1.31
0.1125	323.15	100000	961.04	1.31
0.15662	278.15	100000	970.36	1.29
0.15662	288.15	100000	964.36	1.3
0.15662	298.15	100000	957.51	1.3
0.15662	308.15	100000	951.42	1.3
0.15662	323.15	100000	941.06	1.32
0.208	278.15	100000	953.46	1.29
0.208	288.15	100000	947.22	1.29
0.208	298.15	100000	940.04	1.29
0.208	308.15	100000	933.91	1.31
0.208	323.15	100000	923.15	1.31
0.30233	278.15	100000	927.69	1.28
0.30233	288.15	100000	921.12	1.3
0.30233	298.15	100000	915	1.3
0.30233	308.15	100000	908.14	1.3
0.30233	323.15	100000	897.26	1.3
0.4045	278.15	100000	907.4	1.29
0.4045	288.15	100000	901.88	1.29
0.4045	298.15	100000	895.56	1.29
0.4045	308.15	100000	888.2	1.29
0.4045	323.15	100000	878.13	1.3
0.48268	278.15	100000	895.03	1.28
0.48268	288.15	100000	890.44	1.29
0.48268	298.15	100000	884.31	1.29
0.48268	308.15	100000	877.25	1.29
0.48268	323.15	100000	867.33	1.31
0.53444	288.15	100000	883.95	1.28
0.53444	298.15	100000	877.51	1.28
0.53444	308.15	100000	870.36	1.29
0.53444	323.15	100000	860.41	1.31
0.60288	298.15	100000	869.84	1.28
0.60288	308.15	100000	863.06	1.28
0.60288	323.15	100000	852.9	1.3
0.72599	308.15	100000	852.47	1.3
0.72599	323.15	100000	842.31	1.3
0.79993	323.15	100000	837.55	1.3
0.8711	323.15	100000	833.28	1.3
0.9183	323.15	100000	830.96	1.3
0.95735	323.15	100000	829.12	1.32
1	323.15	100000	827.34	1.32
