Measured thermophysical data. Synthesis and temperature dependence of physical properties of four pyridinium-based ionic liquids: Influence of the size of the cation
Source: J. Chem. Thermodyn., 2010, 10.1016/j.jct.2010.05.011
Compound 1: 1,2-diethylpyridinium ethylsulfate, C11H19NO4S, InChI=1S/C9H14N.C2H6O4S/c1-3-9-7-5-6-8-10(9)4-2;1-2-6-7(3,4)5/h5-8H,3-4H2,1-2H3;2H2,1H3,(H,3,4,5)/q+1;/p-1
Compound 2: 1-methylpyridinium methylsulfate, C7H11NO4S, InChI=1S/C6H8N.CH4O4S/c1-7-5-3-2-4-6-7;1-5-6(2,3)4/h2-6H,1H3;1H3,(H,2,3,4)/q+1;/p-1
Compound 3: 1,3-dimethylpyridinium methyl sulfate, C8H13NO4S, InChI=1S/C7H10N.CH4O4S/c1-7-4-3-5-8(2)6-7;1-5-6(2,3)4/h3-6H,1-2H3;1H3,(H,2,3,4)/q+1;/p-1
Compound 4: 2-ethyl-1-methylpyridinium methyl sulfate, C9H15NO4S, InChI=1S/C8H12N.CH4O4S/c1-3-8-6-4-5-7-9(8)2;1-5-6(2,3)4/h4-7H,3H2,1-2H3;1H3,(H,2,3,4)/q+1;/p-1

System: 1,2-diethylpyridinium ethylsulfate; phases: Liquid
Fixed: Pressure, kPa = 101.325
Property: Mass density, kg/m3 (Liquid); method: Vibrating tube method
Temperature, K	Mass density, kg/m3	uncertainty
293.15	1223.6	1.33
298.15	1220.2	1.32
303.15	1217	1.31
308.15	1213.9	1.3
313.15	1210.3	1.3
318.15	1206.8	1.29
323.15	1203.4	1.28
328.15	1200.1	1.27
333.15	1196.8	1.27
338.15	1193.6	1.26
343.15	1190.3	1.25

System: 1,2-diethylpyridinium ethylsulfate; phases: Liquid
Fixed: Pressure, kPa = 101.325
Property: Viscosity, Pa*s (Liquid); method: Capillary tube (Ostwald; Ubbelohde) method
Temperature, K	Viscosity, Pa*s	uncertainty
298.15	0.3247	0.0222
303.15	0.2332	0.0155
308.15	0.1758	0.0114
313.15	0.1355	0.0086
318.15	0.104	0.0065
323.15	0.0833	0.0052
328.15	0.0672	0.0041
333.15	0.055	0.0034
338.15	0.0456	0.0028
343.15	0.03812	0.00234

System: 1,2-diethylpyridinium ethylsulfate; phases: Liquid
Fixed: Pressure, kPa = 101.325
Property: Refractive index (Na D-line) (Liquid); method: Standard Abbe refractometry
Temperature, K	Refractive index (Na D-line)	uncertainty
293.15	1.5146	0.00051
298.15	1.51328	0.00051
303.15	1.51192	0.00051
308.15	1.51057	0.00051
313.15	1.5092	0.00051
318.15	1.50788	0.00051
323.15	1.50648	0.00051
328.15	1.50513	0.00051
333.15	1.50376	0.00051
338.15	1.50239	0.00051
343.15	1.5009	0.00051

System: 1,2-diethylpyridinium ethylsulfate; phases: Liquid
Fixed: Pressure, kPa = 101.325
Property: Speed of sound, m/s (Liquid); method: Sing-around technique in a fixed-path interferometer
Temperature, K	Speed of sound, m/s	uncertainty
293.15	1759.3	4.5
298.15	1745.6	4.5
303.15	1731.3	4.5
308.15	1718.6	4.5
313.15	1705.7	4.5
318.15	1693	4.5
323.15	1680.5	4.5
328.15	1668.1	4.5
333.15	1656.2	4.5
338.15	1644.3	4.5
343.15	1632.7	4.5

System: 1-methylpyridinium methylsulfate; phases: Liquid
Fixed: Pressure, kPa = 101.325
Property: Mass density, kg/m3 (Liquid); method: Vibrating tube method
Temperature, K	Mass density, kg/m3	uncertainty
293.15	1348.22	1.64
298.15	1344.83	1.63
303.15	1341.44	1.62
308.15	1338.07	1.61
313.15	1334.71	1.6
318.15	1331.35	1.59
323.15	1328.01	1.58
328.15	1324.69	1.58
333.15	1321.38	1.57
338.15	1318.09	1.56
343.15	1314.82	1.55

System: 1-methylpyridinium methylsulfate; phases: Liquid
Fixed: Pressure, kPa = 101.325
Property: Viscosity, Pa*s (Liquid); method: Capillary tube (Ostwald; Ubbelohde) method
Temperature, K	Viscosity, Pa*s	uncertainty
298.15	0.1162	0.0073
303.15	0.091	0.0057
308.15	0.0731	0.0045
313.15	0.0597	0.0037
318.15	0.0493	0.003
323.15	0.04129	0.00253
328.15	0.03541	0.00217
333.15	0.03022	0.00185
338.15	0.02616	0.0016
343.15	0.02277	0.00139

System: 1-methylpyridinium methylsulfate; phases: Liquid
Fixed: Pressure, kPa = 101.325
Property: Refractive index (Na D-line) (Liquid); method: Standard Abbe refractometry
Temperature, K	Refractive index (Na D-line)	uncertainty
293.15	1.51431	0.00051
298.15	1.51296	0.00051
303.15	1.51162	0.00051
308.15	1.51029	0.00051
313.15	1.50895	0.00051
318.15	1.50764	0.00051
323.15	1.50629	0.00051
328.15	1.50497	0.00051
333.15	1.50361	0.00051
338.15	1.50226	0.00051
343.15	1.5009	0.00051

System: 1-methylpyridinium methylsulfate; phases: Liquid
Fixed: Pressure, kPa = 101.325
Property: Speed of sound, m/s (Liquid); method: Sing-around technique in a fixed-path interferometer
Temperature, K	Speed of sound, m/s	uncertainty
293.15	1888.6	4.5
298.15	1876.4	4.5
303.15	1864.4	4.5
308.15	1852.6	4.5
313.15	1840.9	4.5
318.15	1829.4	4.5
323.15	1817.9	4.5
328.15	1806.5	4.5
333.15	1795.2	4.5
338.15	1784	4.5
343.15	1772.8	4.5

System: 1,3-dimethylpyridinium methyl sulfate; phases: Liquid
Fixed: Pressure, kPa = 101.325
Property: Mass density, kg/m3 (Liquid); method: Vibrating tube method
Temperature, K	Mass density, kg/m3	uncertainty
293.15	1305.87	1.53
298.15	1302.51	1.52
303.15	1299.14	1.51
308.15	1295.77	1.5
313.15	1292.42	1.5
318.15	1289.07	1.49
323.15	1285.74	1.48
328.15	1282.42	1.47
333.15	1279.11	1.46
338.15	1275.82	1.45
343.15	1272.55	1.45

System: 1,3-dimethylpyridinium methyl sulfate; phases: Liquid
Fixed: Pressure, kPa = 101.325
Property: Viscosity, Pa*s (Liquid); method: Capillary tube (Ostwald; Ubbelohde) method
Temperature, K	Viscosity, Pa*s	uncertainty
298.15	0.1286	0.0081
303.15	0.0971	0.0061
308.15	0.0768	0.0048
313.15	0.0612	0.0038
318.15	0.0496	0.0031
323.15	0.04086	0.00251
328.15	0.03419	0.0021
333.15	0.0288	0.00177
338.15	0.02458	0.00151
343.15	0.02115	0.0013

System: 1,3-dimethylpyridinium methyl sulfate; phases: Liquid
Fixed: Pressure, kPa = 101.325
Property: Refractive index (Na D-line) (Liquid); method: Standard Abbe refractometry
Temperature, K	Refractive index (Na D-line)	uncertainty
293.15	1.5147	0.00051
298.15	1.5133	0.00051
303.15	1.51184	0.00051
308.15	1.51051	0.00051
313.15	1.50911	0.00051
318.15	1.5077	0.00051
323.15	1.5062	0.00051
328.15	1.50472	0.00051
333.15	1.50331	0.00051
338.15	1.50193	0.00051
343.15	1.50046	0.00051

System: 1,3-dimethylpyridinium methyl sulfate; phases: Liquid
Fixed: Pressure, kPa = 101.325
Property: Speed of sound, m/s (Liquid); method: Sing-around technique in a fixed-path interferometer
Temperature, K	Speed of sound, m/s	uncertainty
293.15	1834.9	4.5
298.15	1822.2	4.5
303.15	1809.7	4.5
308.15	1797.5	4.5
313.15	1785.4	4.5
318.15	1773.5	4.5
323.15	1761.7	4.5
328.15	1750	4.5
333.15	1738.4	4.5
338.15	1726.9	4.5
343.15	1715.6	4.5

System: 2-ethyl-1-methylpyridinium methyl sulfate; phases: Liquid
Fixed: Pressure, kPa = 101.325
Property: Mass density, kg/m3 (Liquid); method: Vibrating tube method
Temperature, K	Mass density, kg/m3	uncertainty
293.15	1288.3	1.48
298.15	1284.7	1.48
303.15	1281.3	1.47
308.15	1277.9	1.46
313.15	1274.49	1.45
318.15	1271.15	1.44
323.15	1267.6	1.43
328.15	1264.5	1.43
333.15	1261.3	1.42
338.15	1258.1	1.41
343.15	1254	1.4

System: 2-ethyl-1-methylpyridinium methyl sulfate; phases: Liquid
Fixed: Pressure, kPa = 101.325
Property: Viscosity, Pa*s (Liquid); method: Capillary tube (Ostwald; Ubbelohde) method
Temperature, K	Viscosity, Pa*s	uncertainty
298.15	4.559	0.424
303.15	3.207	0.286
308.15	2.329	0.2
313.15	1.728	0.143
318.15	1.293	0.103
323.15	1.012	0.078
328.15	0.802	0.06
333.15	0.646	0.047
338.15	0.528	0.038
343.15	0.437	0.031

System: 2-ethyl-1-methylpyridinium methyl sulfate; phases: Liquid
Fixed: Pressure, kPa = 101.325
Property: Refractive index (Na D-line) (Liquid); method: Standard Abbe refractometry
Temperature, K	Refractive index (Na D-line)	uncertainty
293.15	1.52031	0.00051
298.15	1.51902	0.00051
303.15	1.5177	0.00051
308.15	1.5164	0.00051
313.15	1.51508	0.00051
318.15	1.51374	0.00051
323.15	1.51245	0.00051
328.15	1.51115	0.00051
333.15	1.50982	0.00051
338.15	1.50852	0.00051
343.15	1.50722	0.00051

System: 2-ethyl-1-methylpyridinium methyl sulfate; phases: Liquid
Fixed: Pressure, kPa = 101.325
Property: Speed of sound, m/s (Liquid); method: Sing-around technique in a fixed-path interferometer
Temperature, K	Speed of sound, m/s	uncertainty
293.15	1869.2	4.5
298.15	1856	4.5
303.15	1842.4	4.5
308.15	1830.5	4.5
313.15	1818.4	4.5
318.15	1806.5	4.5
323.15	1794.9	4.5
328.15	1783	4.5
333.15	1770.2	4.5
338.15	1758.5	4.5
343.15	1747	4.5
