Measured thermophysical data. Vapor pressure and vaporization enthalpy studies of the major components of ginger, alpha-zingiberene, beta-sesquiphellandrene and (-) ar curcumene by correlation gas chromatography
Source: J. Chem. Thermodyn., 2019, 10.1016/j.jct.2019.06.011
Compound 1: zingiberene, C15H24, InChI=1S/C15H24/c1-12(2)6-5-7-14(4)15-10-8-13(3)9-11-15/h6,8-10,14-15H,5,7,11H2,1-4H3/t14-,15+/m0/s1
Compound 2: (-)-.alpha.-curcumene, C15H22, InChI=1S/C15H22/c1-12(2)6-5-7-14(4)15-10-8-13(3)9-11-15/h6,8-11,14H,5,7H2,1-4H3/t14-/m1/s1
Compound 3: .beta.-sesquiphellandrene, C15H24, InChI=1S/C15H24/c1-12(2)6-5-7-14(4)15-10-8-13(3)9-11-15/h6,8,10,14-15H,3,5,7,9,11H2,1-2,4H3/t14-,15+/m0/s1

System: zingiberene; phases: Liquid, Gas
Property: Molar enthalpy of vaporization or sublimation, kJ/mol (Liquid); method: Correlation gas chromatography
Temperature, K	Molar enthalpy of vaporization or sublimation, kJ/mol	uncertainty
298.15	73.3	5.8

System: zingiberene; phases: Liquid, Gas
Property: Vapor or sublimation pressure, kPa (Liquid); method: Gas chromatography
Temperature, K	Vapor or sublimation pressure, kPa	uncertainty
298.15	0.00081	8e-05
310	0.0025	0.0003
320	0.006	0.0006
330	0.013	0.001
340	0.028	0.003
350	0.056	0.006
360	0.11	0.011
370	0.19	0.019
380	0.33	0.033
390	0.56	0.056
400	0.91	0.091
410	1.4	0.141
420	2.2	0.221
430	3.3	0.332
440	4.8	0.482
450	6.8	0.683
460	9.6	0.965
470	13	1.307
480	18	1.809
490	24	2.412
500	31	3.116
510	41	4.121
520	52	5.226
530	66	6.633
540	83	8.341
549.5	101.3	10.181

System: (-)-.alpha.-curcumene; phases: Liquid, Gas
Property: Molar enthalpy of vaporization or sublimation, kJ/mol (Liquid); method: Correlation gas chromatography
Temperature, K	Molar enthalpy of vaporization or sublimation, kJ/mol	uncertainty
298.15	72.4	6

System: (-)-.alpha.-curcumene; phases: Liquid, Gas
Property: Vapor or sublimation pressure, kPa (Liquid); method: Gas chromatography
Temperature, K	Vapor or sublimation pressure, kPa	uncertainty
298.15	0.00097	0.0001
310	0.003	0.0003
320	0.007	0.0007
330	0.015	0.002
340	0.032	0.003
350	0.063	0.006
360	0.12	0.012
370	0.21	0.021
380	0.37	0.037
390	0.62	0.062
400	0.99	0.1
410	1.6	0.161
420	2.4	0.241
430	3.5	0.352
440	5.1	0.513
450	7.3	0.734
460	10	1.005
470	14	1.407
480	19	1.91
490	25	2.513
500	33	3.317
510	42	4.221
520	54	5.427
530	68	6.834
540	85	8.542
548.3	101.3	10.181

System: .beta.-sesquiphellandrene; phases: Liquid, Gas
Property: Molar enthalpy of vaporization or sublimation, kJ/mol (Liquid); method: Correlation gas chromatography
Temperature, K	Molar enthalpy of vaporization or sublimation, kJ/mol	uncertainty
298.15	74	5.8

System: .beta.-sesquiphellandrene; phases: Liquid, Gas
Property: Vapor or sublimation pressure, kPa (Liquid); method: Gas chromatography
Temperature, K	Vapor or sublimation pressure, kPa	uncertainty
298.15	0.00063	6e-05
310	0.002	0.0002
320	0.0048	0.0005
330	0.011	0.001
340	0.023	0.002
350	0.046	0.005
360	0.087	0.009
370	0.16	0.016
380	0.28	0.028
390	0.47	0.047
400	0.76	0.076
410	1.2	0.121
420	1.8	0.181
430	2.8	0.281
440	4	0.402
450	5.8	0.583
460	8.2	0.824
470	11	1.106
480	15	1.508
490	20	2.01
500	27	2.714
510	35	3.518
520	45	4.522
530	57	5.728
540	71	7.135
556.5	101.3	10.181
