Measured thermophysical data. Experimental isobaric vapour-liquid equilibrium data for the binary system (N, N-dimethyl acetamide + dimethyl sulfoxide) and the quaternary system (sec-butyl acetate + sec-butyl alcohol + N, N-dimethyl acetamide + dimethyl sulfoxide) at 101.3 kPa
Source: J. Chem. Thermodyn., 2019, 10.1016/j.jct.2019.05.005
Compound 1: N,N-dimethylethanamide, C4H9NO, InChI=1S/C4H9NO/c1-4(6)5(2)3/h1-3H3, purity 99.7%
Compound 2: dimethyl sulfoxide, C2H6OS, InChI=1S/C2H6OS/c1-4(2)3/h1-2H3, purity 99.8%
Compound 3: 1-methylpropyl ethanoate, C6H12O2, InChI=1S/C6H12O2/c1-4-5(2)8-6(3)7/h5H,4H2,1-3H3, purity 99.7%
Compound 4: butan-2-ol, C4H10O, InChI=1S/C4H10O/c1-3-4(2)5/h4-5H,3H2,1-2H3, purity 99.6%
Compound 5: methanol, CH4O, InChI=1S/CH4O/c1-2/h2H,1H3, purity 99.7%
Compound 6: water, H2O, InChI=1S/H2O/h1H2, purity 99.9%

System: N,N-dimethylethanamide; phases: Liquid, Gas
Property: Normal boiling temperature, K (Liquid); method: Ebulliometric method (Recirculating still)
Normal boiling temperature, K	uncertainty
438.95	1

System: dimethyl sulfoxide; phases: Liquid, Gas
Property: Normal boiling temperature, K (Liquid); method: Ebulliometric method (Recirculating still)
Normal boiling temperature, K	uncertainty
463.17	1

System: 1-methylpropyl ethanoate; phases: Liquid, Gas
Property: Normal boiling temperature, K (Liquid); method: Ebulliometric method (Recirculating still)
Normal boiling temperature, K	uncertainty
385.33	1

System: butan-2-ol; phases: Liquid, Gas
Property: Normal boiling temperature, K (Liquid); method: Ebulliometric method (Recirculating still)
Normal boiling temperature, K	uncertainty
372.63	1

System: N,N-dimethylethanamide + dimethyl sulfoxide; phases: Liquid, Gas
Fixed: Pressure, kPa = 101.3
Property: Boiling temperature at pressure P, K (Liquid); method: Ebulliometric method (Recirculating still)
Mole fraction of N,N-dimethylethanamide	Boiling temperature at pressure P, K	uncertainty
1	438.95	1
0.876	440.59	1.01
0.834	441.49	1.01
0.8	442.38	1.01
0.742	443.57	1.01
0.694	444.68	1.01
0.656	445.66	1.01
0.616	446.65	1.01
0.574	447.52	1.01
0.528	448.54	1.01
0.489	449.33	1.01
0.443	450.43	1.01
0.403	451.53	1.01
0.361	452.35	1.01
0.331	453.05	1.01
0.288	454.12	1.01
0.241	455.27	1.01
0.206	456.19	1.01
0.182	456.83	1.01
0.137	457.88	1.01
0.124	458.2	1.02
0.105	458.86	1.02
0.076	459.92	1.02
0.034	461.43	1.03
0	463.17	1

System: N,N-dimethylethanamide + dimethyl sulfoxide; phases: Gas, Liquid
Fixed: Pressure, kPa = 101.3
Property: Mole fraction of N,N-dimethylethanamide (Gas); method: Chromatography
Mole fraction of N,N-dimethylethanamide	Mole fraction of N,N-dimethylethanamide	uncertainty
1	1	
0.876	0.933	0.006
0.834	0.911	0.006
0.8	0.886	0.006
0.742	0.842	0.006
0.694	0.814	0.006
0.656	0.779	0.007
0.616	0.745	0.007
0.574	0.712	0.007
0.528	0.671	0.007
0.489	0.638	0.007
0.443	0.594	0.008
0.403	0.541	0.008
0.361	0.514	0.008
0.331	0.481	0.009
0.288	0.428	0.009
0.241	0.37	0.009
0.206	0.321	0.009
0.182	0.286	0.008
0.137	0.243	0.007
0.124	0.227	0.009
0.105	0.197	0.01
0.076	0.145	0.01
0.034	0.071	0.011
0	0	

System: methanol + water; phases: Liquid, Gas
Fixed: Pressure, kPa = 101.3
Property: Boiling temperature at pressure P, K (Liquid); method: Ebulliometric method (Recirculating still)
Mole fraction of methanol	Boiling temperature at pressure P, K	uncertainty
0.914	338.47	1.01
0.805	340.52	1.01
0.615	343.58	1.01
0.522	345.02	1.01
0.379	348.22	1.01
0.306	350.77	1.02
0.202	355.02	1.04
0.117	360.49	1.07
0.071	365.15	1.11
0.023	369.5	1.1

System: methanol + water; phases: Gas, Liquid
Fixed: Pressure, kPa = 101.3
Property: Mole fraction of methanol (Gas); method: Chromatography
Mole fraction of methanol	Mole fraction of methanol	uncertainty
0.914	0.958	0.005
0.805	0.912	0.005
0.615	0.847	0.005
0.522	0.815	0.006
0.379	0.739	0.006
0.306	0.688	0.007
0.202	0.587	0.009
0.117	0.423	0.012
0.071	0.311	0.017
0.023	0.123	0.02
