Measured thermophysical data. Densities of a dissolving mixture of molten (AgI + NaCl)
Source: J. Chem. Thermodyn., 2013, 10.1016/j.jct.2013.03.027
Compound 1: silver iodide, AgI, InChI=1S/Ag.HI/h;1H/q+1;/p-1, purity 99%
Compound 2: sodium chloride, ClNa, InChI=1S/ClH.Na/h1H;/q;+1/p-1, purity 99.5%

System: silver iodide; phases: Crystal, Liquid, Air at 1 atmosphere
Property: Normal melting temperature, K (Crystal); method: VISOBS
Normal melting temperature, K	uncertainty
832	1

System: sodium chloride; phases: Crystal, Liquid, Air at 1 atmosphere
Property: Normal melting temperature, K (Crystal); method: VISOBS
Normal melting temperature, K	uncertainty
1074	1

System: sodium chloride + silver iodide; phases: Liquid mixture 1, Liquid mixture 2
Fixed: Pressure, kPa = 101
Property: Mass density, kg/m3 (Liquid mixture 1); method: Archimedean displacement method
Temperature, K	Mass density, kg/m3	uncertainty
1028	4841	59
1033	4669	58
1038	4499	54
1043	4370	49
1048	4289	47
1053	4170	49
1057	4062	55
1060	3908	61
1063	3780	57

System: sodium chloride + silver iodide; phases: Liquid mixture 2, Liquid mixture 1
Fixed: Pressure, kPa = 101
Property: Mass density, kg/m3 (Liquid mixture 2); method: Archimedean displacement method
Temperature, K	Mass density, kg/m3	uncertainty
1028	2301	29
1033	2388	29
1038	2459	31
1043	2580	40
1048	2769	42
1053	2900	41
1057	3032	53
1060	3209	75
1063	3440	84

System: sodium chloride + silver iodide; phases: Liquid
Fixed: Pressure, kPa = 101
Fixed: Mole fraction of silver iodide = 0.5
Property: Mass density, kg/m3 (Liquid); method: Archimedean displacement method
Temperature, K	Mass density, kg/m3	uncertainty
1065	3670	37
1069	3669	37
1072	3664	37
1073	3663	37
1074	3660	37
1078	3657	37
1084	3652	37

System: sodium chloride + silver iodide; phases: Liquid mixture 1, Liquid mixture 2
Property: Liquid-liquid equilibrium temperature, K (Liquid mixture 1); method: VISOBS
Mole fraction of silver iodide	Pressure, kPa	Liquid-liquid equilibrium temperature, K	uncertainty
0.5	101	1063.5	1
