Measured thermophysical data. High-pressure phase equilibrium data for the (carbon dioxide + L-lactide + ethanol) system
Source: J. Chem. Thermodyn., 2015, 10.1016/j.jct.2015.02.005
Compound 1: (3S,6S)-3,6-dimethyl-1,4-dioxane-2,5-dione, C6H8O4, InChI=1S/C6H8O4/c1-3-5(7)10-4(2)6(8)9-3/h3-4H,1-2H3/t3-,4-/m0/s1, purity 98%
Compound 2: ethanol, C2H6O, InChI=1S/C2H6O/c1-2-3/h3H,2H2,1H3, purity 99.9%
Compound 3: carbon dioxide, CO2, InChI=1S/CO2/c2-1-3, purity 99.9%

System: ethanol + carbon dioxide + (3S,6S)-3,6-dimethyl-1,4-dioxane-2,5-dione; phases: Liquid, Gas
Property: Vapor or sublimation pressure, kPa (Liquid); method: Closed cell (Static) method
Temperature, K	Mole fraction of carbon dioxide	Mole fraction of (3S,6S)-3,6-dimethyl-1,4-dioxane-2,5-dione	Vapor or sublimation pressure, kPa	uncertainty
323	0.6663	0.2227	12610	300
333	0.6663	0.2227	15410	300
343	0.6663	0.2227	18130	300
323	0.726	0.1824	16600	310
333	0.726	0.1824	19400	300
343	0.726	0.1824	21830	290
323	0.7587	0.1607	18520	300
333	0.7587	0.1607	21080	300
343	0.7587	0.1607	23630	310
323	0.79	0.1398	19590	300
333	0.79	0.1398	22090	330
343	0.79	0.1398	25130	360
323	0.8235	0.1177	20750	320
333	0.8235	0.1177	23470	330
323	0.8366	0.1087	22300	260
323	0.857	0.0953	23320	360
323	0.8914	0.0724	23720	350
323	0.599	0.2006	9840	240
333	0.599	0.2006	11920	240
343	0.599	0.2006	13760	230
323	0.6661	0.1672	11710	290
333	0.6661	0.1672	14290	280
343	0.6661	0.1672	16630	270
323	0.6844	0.1578	12250	220
333	0.6844	0.1578	14720	280
343	0.6844	0.1578	17310	360
323	0.7015	0.1495	13450	280
333	0.7015	0.1495	15850	270
343	0.7015	0.1495	18070	260
323	0.7389	0.1305	14860	270
333	0.7389	0.1305	17150	270
343	0.7389	0.1305	19400	260
323	0.7774	0.1115	16050	270
333	0.7774	0.1115	18250	270
343	0.7774	0.1115	20570	270
323	0.8182	0.0909	17650	300
333	0.8182	0.0909	19950	270
343	0.8182	0.0909	21800	240
323	0.8606	0.0697	18350	260
333	0.8606	0.0697	20500	250
343	0.8606	0.0697	22650	250
323	0.9053	0.0474	18830	380
333	0.9053	0.0474	21630	300
343	0.9053	0.0474	23700	270
323	0.5455	0.1818	9210	220
333	0.5455	0.1818	11030	240
343	0.5455	0.1818	13240	240
353	0.5455	0.1818	15250	230
323	0.6153	0.1539	10130	260
333	0.6153	0.1539	12500	270
343	0.6153	0.1539	15010	250
353	0.6153	0.1539	16760	220
323	0.6935	0.1225	11550	300
333	0.6935	0.1225	14270	290
343	0.6935	0.1225	16760	270
353	0.6935	0.1225	18960	260
323	0.7151	0.114	12180	300
333	0.7151	0.114	14830	290
343	0.7151	0.114	17390	280
353	0.7151	0.114	19600	3900
323	0.7371	0.1052	13290	290
333	0.7371	0.1052	15850	290
343	0.7371	0.1052	18380	280
353	0.7371	0.1052	20780	270
323	0.7829	0.0869	14500	300
333	0.7829	0.0869	17000	290
343	0.7829	0.0869	19300	270
353	0.7829	0.0869	21500	280
323	0.8207	0.0717	15500	350
333	0.8207	0.0717	18520	320
343	0.8207	0.0717	21000	270
353	0.8207	0.0717	23000	240
323	0.8522	0.0591	17140	310
333	0.8522	0.0591	19840	300
343	0.8522	0.0591	22470	290
323	0.8836	0.0465	17460	360
333	0.8836	0.0465	20010	290
343	0.8836	0.0465	22070	270

System: ethanol + carbon dioxide + (3S,6S)-3,6-dimethyl-1,4-dioxane-2,5-dione; phases: Gas, Liquid
Property: Vapor or sublimation pressure, kPa (Gas); method: Closed cell (Static) method
Temperature, K	Mole fraction of carbon dioxide	Mole fraction of (3S,6S)-3,6-dimethyl-1,4-dioxane-2,5-dione	Vapor or sublimation pressure, kPa	uncertainty
323	0.9263	0.0489	23300	450
323	0.9481	0.0344	22250	550
323	0.9706	0.0198	19800	840
333	0.9706	0.0198	21810	790
343	0.9706	0.0198	23800	760
323	0.9849	0.01	15360	540
333	0.9849	0.01	17570	580
343	0.9849	0.01	19800	570
323	0.9602	0.0202	17280	570
333	0.9602	0.0202	19570	680
343	0.9602	0.0202	21480	690
323	0.9801	0.01	15250	770
333	0.9801	0.01	17250	720
343	0.9801	0.01	19450	690
323	0.9167	0.0333	16790	460
333	0.9167	0.0333	19480	450
343	0.9167	0.0333	21800	1090
353	0.9167	0.0333	23940	630
323	0.9515	0.0194	15720	560
333	0.9515	0.0194	18540	530
343	0.9515	0.0194	20430	460
353	0.9515	0.0194	22500	820
323	0.9755	0.0098	13380	920
333	0.9755	0.0098	15690	840
343	0.9755	0.0098	18060	840
353	0.9755	0.0098	19620	670
