Measured thermophysical data. Isobaric vapor-liquid equilibria for the extractive distillation of tert-butyl alcohol + water mixtures using 1-ethyl-3-methylimidazolium dicyanamide ionic liquid
Source: J. Chem. Thermodyn., 2019, 10.1016/j.jct.2019.07.008
Compound 1: 2-methylpropan-2-ol, C4H10O, InChI=1S/C4H10O/c1-4(2,3)5/h5H,1-3H3, purity 99.5%
Compound 2: water, H2O, InChI=1S/H2O/h1H2
Compound 3: 1-ethyl-3-methylimidazolium dicyanamide, C8H11N5, InChI=1S/C6H11N2.C2N3/c1-3-8-5-4-7(2)6-8;3-1-5-2-4/h4-6H,3H2,1-2H3;/q+1;-1, purity 98%

System: 2-methylpropan-2-ol; phases: Liquid, Gas
Property: Vapor or sublimation pressure, kPa (Liquid); method: Ebulliometric method (Recirculating still)
Temperature, K	Vapor or sublimation pressure, kPa	uncertainty
355.2	100	2

System: water; phases: Liquid, Gas
Property: Vapor or sublimation pressure, kPa (Liquid); method: Ebulliometric method (Recirculating still)
Temperature, K	Vapor or sublimation pressure, kPa	uncertainty
372.8	100	2

System: 2-methylpropan-2-ol + water; phases: Liquid, Gas
Fixed: Pressure, kPa = 100
Property: Boiling temperature at pressure P, K (Liquid); method: Ebulliometric method (Recirculating still)
Mole fraction of 2-methylpropan-2-ol	Boiling temperature at pressure P, K	uncertainty
0	372.8	0.4
0.001	371.1	0.4
0.002	369.3	0.4
0.004	367	0.4
0.007	364.2	0.4
0.013	361	0.4
0.021	357.9	0.4
0.033	355.5	0.4
0.049	354.3	0.4
0.068	354.1	0.4
0.091	353.9	0.4
0.106	353.9	0.4
0.149	353.8	0.4
0.183	353.8	0.4
0.22	353.7	0.4
0.26	353.6	0.4
0.303	353.5	0.4
0.344	353.3	0.4
0.389	353.2	0.4
0.43	353	0.4
0.483	352.9	0.4
0.526	352.8	0.4
0.581	352.7	0.4
0.647	352.6	0.4
0.705	352.7	0.4
0.773	352.9	0.4
0.847	353.3	0.4
0.899	353.8	0.4
0.954	354.5	0.4
0.978	354.8	0.4
1	355.2	0.4

System: 2-methylpropan-2-ol + water; phases: Gas, Liquid
Fixed: Pressure, kPa = 100
Property: Mole fraction of 2-methylpropan-2-ol (Gas); method: Chromatography
Mole fraction of 2-methylpropan-2-ol	Mole fraction of 2-methylpropan-2-ol	uncertainty
0	0	
0.001	0.046	0.002
0.002	0.098	0.002
0.004	0.176	0.003
0.007	0.27	0.003
0.013	0.376	0.004
0.021	0.444	0.004
0.033	0.493	0.005
0.049	0.522	0.005
0.068	0.528	0.005
0.091	0.53	0.005
0.106	0.531	0.005
0.149	0.533	0.005
0.183	0.534	0.005
0.22	0.537	0.005
0.26	0.539	0.005
0.303	0.542	0.005
0.344	0.548	0.005
0.389	0.556	0.004
0.43	0.565	0.004
0.483	0.577	0.004
0.526	0.592	0.004
0.581	0.614	0.004
0.647	0.647	0.004
0.705	0.682	0.004
0.773	0.737	0.003
0.847	0.807	0.003
0.899	0.863	0.002
0.954	0.933	0.002
0.978	0.967	0.002
1	1	

System: 2-methylpropan-2-ol + 1-ethyl-3-methylimidazolium dicyanamide; phases: Liquid, Gas
Fixed: Pressure, kPa = 100
Property: Boiling temperature at pressure P, K (Liquid); method: Ebulliometric method (Recirculating still)
Mole fraction of 1-ethyl-3-methylimidazolium dicyanamide	Boiling temperature at pressure P, K	uncertainty
0	355.2	0.4
0.023	355.5	0.4
0.036	355.6	0.4
0.051	355.7	0.4
0.067	355.9	0.4
0.082	356	0.4
0.099	356.4	0.4
0.114	356.6	0.4
0.129	357	0.4
0.146	357.3	0.4
0.162	357.9	0.4
0.178	358.3	0.4
0.185	358.5	0.4
0.197	358.9	0.4
0.206	359.3	0.4
0.221	359.7	0.4
0.241	360.4	0.4
0.265	361.1	0.4
0.273	361.3	0.4
0.284	361.8	0.4
0.305	362.6	0.4
0.32	362.8	0.4
0.336	363.5	0.4
0.356	364.3	0.4
0.364	364.6	0.4
0.375	365.1	0.4
0.384	365.5	0.4
0.393	365.6	0.4
0.398	365.7	0.4
0.098	356.4	0.4
0.23	359.8	0.4

System: 2-methylpropan-2-ol + 1-ethyl-3-methylimidazolium dicyanamide + water; phases: Liquid, Gas
Fixed: Pressure, kPa = 100
Property: Mole fraction of water (Liquid); method: Chromatography
Property: Mole fraction of water (Gas); method: Chromatography
Property: Mole fraction of 2-methylpropan-2-ol (Gas); method: Chromatography
Temperature, K	Mole fraction of 2-methylpropan-2-ol	Mole fraction of water	uncertainty	Mole fraction of water	uncertainty	Mole fraction of 2-methylpropan-2-ol	uncertainty
374.6	0	0.946	0.002	1		0	
371.1	0.005	0.942	0.002	0.9	0.002	0.1	
366.4	0.016	0.931	0.002	0.762	0.003	0.238	
361.9	0.037	0.91	0.002	0.619	0.004	0.381	
358.4	0.066	0.881	0.002	0.525	0.005	0.475	
355.9	0.103	0.843	0.002	0.481	0.005	0.519	
355	0.154	0.791	0.003	0.458	0.005	0.542	
354.3	0.219	0.726	0.003	0.439	0.004	0.561	
353.9	0.293	0.652	0.003	0.417	0.004	0.583	
353.6	0.366	0.578	0.004	0.393	0.004	0.607	
353.6	0.442	0.5	0.004	0.362	0.004	0.638	
353.6	0.532	0.41	0.004	0.325	0.004	0.675	
353.8	0.617	0.324	0.003	0.279	0.003	0.721	
354	0.7	0.242	0.003	0.228	0.003	0.772	
354.3	0.764	0.178	0.002	0.179	0.003	0.821	
354.6	0.824	0.122	0.002	0.131	0.002	0.869	
355	0.872	0.073	0.002	0.081	0.002	0.919	
355.5	0.897	0.038	0.002	0.043	0.002	0.957	
355.7	0.949	0		0		1	
376.6	0	0.902	0.002	1		0	
374.1	0.005	0.897	0.002	0.914	0.002	0.086	
369.8	0.017	0.885	0.002	0.806	0.003	0.194	
364.8	0.042	0.86	0.002	0.643	0.004	0.357	
360.3	0.085	0.816	0.002	0.527	0.005	0.473	
357.3	0.133	0.767	0.003	0.468	0.005	0.532	
356.2	0.191	0.708	0.003	0.429	0.004	0.571	
355.4	0.272	0.627	0.003	0.391	0.004	0.609	
354.9	0.36	0.539	0.004	0.358	0.004	0.642	
354.6	0.437	0.461	0.004	0.321	0.003	0.679	
354.8	0.519	0.379	0.003	0.283	0.003	0.717	
355	0.593	0.305	0.003	0.241	0.003	0.759	
355.2	0.663	0.235	0.003	0.201	0.003	0.799	
355.4	0.716	0.181	0.002	0.163	0.002	0.837	
355.6	0.761	0.136	0.002	0.124	0.002	0.876	
355.8	0.793	0.102	0.002	0.095	0.002	0.905	
356	0.822	0.072	0.002	0.068	0.002	0.932	
356.3	0.847	0.047	0.002	0.044	0.002	0.956	
356.4	0.902	0		0		1	
380.3	0	0.834	0.002	1		0	
376.4	0.002	0.839	0.002	0.917	0.002	0.083	
373.1	0.015	0.824	0.002	0.797	0.003	0.203	
369.2	0.043	0.789	0.003	0.672	0.004	0.328	
365.2	0.073	0.755	0.003	0.563	0.004	0.437	
360.7	0.134	0.692	0.003	0.458	0.005	0.542	
358.5	0.207	0.624	0.004	0.388	0.004	0.612	
357.1	0.275	0.558	0.004	0.346	0.004	0.654	
356.8	0.332	0.494	0.004	0.311	0.003	0.689	
357	0.399	0.425	0.004	0.274	0.003	0.726	
357.2	0.469	0.351	0.003	0.235	0.003	0.765	
357.3	0.531	0.287	0.003	0.2	0.003	0.8	
357.4	0.588	0.231	0.003	0.165	0.003	0.835	
357.7	0.636	0.181	0.002	0.134	0.002	0.866	
357.8	0.68	0.143	0.002	0.109	0.002	0.891	
357.8	0.714	0.106	0.002	0.082	0.002	0.918	
358	0.752	0.073	0.002	0.058	0.002	0.942	
358.1	0.779	0.05	0.002	0.04	0.002	0.96	
358.3	0.822	0		0		1	
384.2	0	0.776	0.003	1		0	
381.8	0.01	0.771	0.003	0.929	0.002	0.071	
378.3	0.024	0.744	0.003	0.822	0.003	0.178	
374.9	0.044	0.724	0.003	0.691	0.003	0.309	
369.9	0.074	0.696	0.003	0.566	0.004	0.434	
366.1	0.112	0.655	0.003	0.481	0.005	0.519	
362.9	0.171	0.602	0.004	0.392	0.004	0.608	
360	0.243	0.536	0.004	0.332	0.004	0.668	
359.7	0.302	0.474	0.004	0.295	0.003	0.705	
359.8	0.349	0.42	0.004	0.259	0.003	0.741	
359.8	0.406	0.358	0.003	0.224	0.003	0.776	
360	0.452	0.302	0.003	0.194	0.003	0.806	
359.9	0.517	0.242	0.003	0.158	0.002	0.842	
360	0.564	0.194	0.002	0.128	0.002	0.872	
360.1	0.608	0.153	0.002	0.102	0.002	0.898	
360.2	0.65	0.113	0.002	0.077	0.002	0.923	
360.1	0.693	0.074	0.002	0.052	0.002	0.948	
359.8	0.733	0.048	0.002	0.035	0.002	0.965	
359.8	0.77	0		0		1	
388.8	0	0.724	0.003	1		0	
386.3	0.008	0.719	0.003	0.948	0.002	0.052	
383.3	0.017	0.714	0.003	0.851	0.002	0.149	
379.6	0.033	0.697	0.003	0.717	0.003	0.283	
376	0.057	0.665	0.003	0.621	0.004	0.379	
373.4	0.082	0.635	0.004	0.529	0.005	0.471	
371	0.104	0.6	0.004	0.466	0.005	0.534	
368.2	0.148	0.552	0.004	0.388	0.004	0.612	
366.7	0.192	0.501	0.004	0.332	0.004	0.668	
364.1	0.25	0.445	0.004	0.277	0.003	0.723	
363.4	0.315	0.386	0.004	0.233	0.003	0.767	
363.1	0.354	0.338	0.003	0.199	0.003	0.801	
362.8	0.408	0.283	0.003	0.166	0.003	0.834	
362.6	0.463	0.232	0.003	0.139	0.002	0.861	
363.1	0.493	0.188	0.002	0.109	0.002	0.891	
363.3	0.546	0.14	0.002	0.079	0.002	0.921	
363.3	0.596	0.091	0.002	0.055	0.002	0.945	
363.5	0.63	0.058	0.002	0.032	0.002	0.968	
362.6	0.695	0		0		1	

System: 1-ethyl-3-methylimidazolium dicyanamide + water; phases: Liquid, Gas
Fixed: Pressure, kPa = 100
Property: Boiling temperature at pressure P, K (Liquid); method: Ebulliometric method (Recirculating still)
Mole fraction of water	Boiling temperature at pressure P, K	uncertainty
0.946	374.6	0.6
0.902	376.6	0.6
0.834	380.3	0.6
0.776	384.2	0.6
0.724	388.8	0.6
