Measured thermophysical data. High-pressure (vapor + liquid) equilibria in the (nitrogen + n-heptane) system
Source: J. Chem. Thermodyn., 2007, 10.1016/j.jct.2006.11.007
Compound 1: nitrogen, N2, InChI=1S/N2/c1-2, purity 99.999%
Compound 2: heptane, C7H16, InChI=1S/C7H16/c1-3-5-7-6-4-2/h3-7H2,1-2H3, purity 99%

System: heptane + nitrogen; phases: Liquid, Gas
Property: Vapor or sublimation pressure, kPa (Liquid); method: Closed cell (Static) method
Mole fraction of nitrogen	Temperature, K	Vapor or sublimation pressure, kPa	uncertainty
0.0172	523.7	2650	40
0.0216	497.3	2370	40
0.0217	523.7	2780	40
0.0255	313.6	1990	60
0.0265	472.6	2280	50
0.0269	353.4	2170	60
0.0271	433	2050	50
0.0277	376.5	2160	60
0.0287	452.9	2280	50
0.0304	523.7	3020	50
0.0305	413.1	2300	60
0.0307	400.4	2440	60
0.037	523.7	3240	50
0.0466	497.3	3360	60
0.0471	523.7	3530	50
0.0482	313.6	3910	90
0.0561	433	3760	80
0.0582	452.9	3840	70
0.0587	523.7	3850	50
0.0589	472.6	3830	70
0.0661	353.4	5240	120
0.0662	523.7	4070	60
0.0713	376.5	5270	110
0.0727	497.3	4380	70
0.0749	400.4	5160	110
0.0779	413.1	5280	110
0.0813	433	5190	100
0.0814	523.7	4450	60
0.0817	313.6	6850	160
0.0852	452.9	5260	100
0.0894	472.6	5250	90
0.0962	523.7	4850	70
0.0973	497.3	5330	90
0.1094	523.7	5200	70
0.1205	313.6	10450	240
0.1226	497.3	6270	100
0.1249	523.7	5580	80
0.1264	353.4	10210	220
0.1268	433	7730	150
0.1354	452.9	7860	150
0.1377	376.5	10200	220
0.1413	523.7	5960	80
0.1475	472.6	7860	140
0.1498	497.3	7260	120
0.1519	400.4	10220	210
0.1555	413.1	10250	210
0.1555	523.7	6290	80
0.1688	313.6	15350	360
0.1707	433	10280	200
0.1744	523.7	6680	90
0.1822	452.9	10240	200
0.1849	353.4	15140	330
0.1911	523.7	7030	90
0.1935	497.3	8870	150
0.2002	472.6	10310	190
0.201	376.5	15210	330
0.2062	523.7	7310	90
0.2142	433	12780	260
0.2174	313.6	20510	490
0.2247	523.7	7610	90
0.2259	400.4	15310	330
0.2317	413.1	15310	310
0.2368	497.3	10340	170
0.2446	523.7	7910	80
0.245	353.4	20440	460
0.2547	433	15240	320
0.2547	472.6	12780	240
0.2583	313.6	25270	630
0.2608	376.5	20140	450
0.271	523.7	8070	80
0.2763	452.9	15280	300
0.2797	497.3	11730	190
0.2909	400.4	20130	450
0.295	433	17750	370
0.2951	353.4	25190	590
0.2982	313.6	30320	780
0.3053	413.1	20180	420
0.3096	472.6	15220	280
0.3195	376.5	25190	560
0.3274	497.3	13110	200
0.3283	433	19650	410
0.3359	313.6	35330	930
0.3453	353.4	30180	690
0.3542	400.4	25090	560
0.3653	497.3	14210	210
0.3683	472.6	17720	290
0.3702	452.9	20210	390
0.3713	313.6	40320	1120
0.3753	433	22690	480
0.3767	376.5	30020	650
0.3767	413.1	25080	530
0.3924	497.3	14770	160
0.3925	353.4	35100	850
0.4008	313.6	45050	1320
0.4147	433	25080	480
0.422	452.9	22780	400
0.4229	400.4	30210	640
0.4279	497.3	15320	140
0.4311	313.6	50110	1450
0.438	353.4	40250	1050
0.438	376.5	35150	800
0.4407	472.6	20240	290
0.4506	413.1	30250	630
0.4541	497.3	15470	110
0.4598	433	27410	520
0.4767	353.4	45130	1200
0.4819	452.9	25270	390
0.4869	413.1	32630	640
0.489	400.4	35140	720
0.4897	376.5	40120	920
0.4929	433	29400	520
0.4985	472.6	21740	230
0.5177	353.4	50160	1290
0.5246	452.9	26740	310
0.528	413.1	35250	670
0.5412	433	31610	470
0.5455	376.5	45130	950
0.5589	400.4	40090	800
0.5595	472.6	22670	210
0.5664	413.1	37410	600
0.5772	433	32870	390
0.5838	400.4	41790	690
0.5902	452.9	28240	260
0.6067	376.5	50180	1020
0.6078	413.1	39330	550
0.6163	400.4	43380	600
0.6215	433	34210	330
0.6305	452.9	28670	200
0.6384	413.1	40420	440
0.6534	400.4	45090	490
0.6551	433	34630	210
0.6753	413.1	41390	350
0.6917	413.1	41540	320
0.696	433	34980	210
0.6961	400.4	46170	490
0.7033	400.4	46400	490

System: heptane + nitrogen; phases: Gas, Liquid
Property: Mole fraction of nitrogen (Gas); method: Chromatography
Mole fraction of nitrogen	Temperature, K	Mole fraction of nitrogen	uncertainty
0.0172	523.7	0.1186	0.0039
0.0216	497.3	0.2837	0.0071
0.0217	523.7	0.1438	0.0044
0.0255	313.6	0.9882	0.0118
0.0265	472.6	0.4863	0.0114
0.0269	353.4	0.967	0.0193
0.0271	433	0.738	0.0152
0.0277	376.5	0.9335	0.0187
0.0287	452.9	0.6325	0.0136
0.0304	523.7	0.185	0.0052
0.0305	413.1	0.8406	0.017
0.0307	400.4	0.8871	0.0178
0.037	523.7	0.2064	0.006
0.0466	497.3	0.4372	0.011
0.0471	523.7	0.2412	0.0067
0.0482	313.6	0.9926	0.0074
0.0561	433	0.836	0.0171
0.0582	452.9	0.7615	0.0159
0.0587	523.7	0.2706	0.0073
0.0589	472.6	0.6564	0.0144
0.0661	353.4	0.983	0.017
0.0662	523.7	0.2903	0.0077
0.0713	376.5	0.9667	0.0193
0.0727	497.3	0.5253	0.0125
0.0749	400.4	0.9383	0.0188
0.0779	413.1	0.9172	0.0184
0.0813	433	0.8717	0.0176
0.0814	523.7	0.3161	0.0082
0.0817	313.6	0.9946	0.0054
0.0852	452.9	0.8095	0.0165
0.0894	472.6	0.7241	0.015
0.0962	523.7	0.3402	0.0087
0.0973	497.3	0.5795	0.0132
0.1094	523.7	0.3556	0.0089
0.1205	313.6	0.9949	0.0051
0.1226	497.3	0.6171	0.0137
0.1249	523.7	0.3717	0.0093
0.1264	353.4	0.9861	0.0139
0.1268	433	0.8982	0.018
0.1354	452.9	0.8488	0.0172
0.1377	376.5	0.9741	0.0195
0.1413	523.7	0.3836	0.0095
0.1475	472.6	0.7797	0.016
0.1498	497.3	0.6451	0.0138
0.1519	400.4	0.9547	0.0191
0.1555	413.1	0.9399	0.0188
0.1555	523.7	0.3924	0.0095
0.1688	313.6	0.9943	0.0057
0.1707	433	0.9089	0.0182
0.1744	523.7	0.3972	0.0096
0.1822	452.9	0.864	0.0174
0.1849	353.4	0.9856	0.0144
0.1911	523.7	0.3988	0.0097
0.1935	497.3	0.6668	0.0141
0.2002	472.6	0.8015	0.0163
0.201	376.5	0.9734	0.0195
0.2062	523.7	0.3974	0.0097
0.2142	433	0.9105	0.0183
0.2174	313.6	0.9932	0.0068
0.2247	523.7	0.3898	0.0099
0.2259	400.4	0.9551	0.0191
0.2317	413.1	0.9431	0.0189
0.2368	497.3	0.6782	0.0146
0.2446	523.7	0.3787	0.0104
0.245	353.4	0.9829	0.0171
0.2547	433	0.9139	0.0183
0.2547	472.6	0.81	0.0164
0.2583	313.6	0.9915	0.0085
0.2608	376.5	0.9712	0.0194
0.271	523.7	0.3496	0.011
0.2763	452.9	0.8716	0.0175
0.2797	497.3	0.6775	0.0147
0.2909	400.4	0.9525	0.0191
0.295	433	0.9115	0.0183
0.2951	353.4	0.9801	0.0196
0.2982	313.6	0.9896	0.0104
0.3053	413.1	0.9397	0.0188
0.3096	472.6	0.8082	0.0163
0.3195	376.5	0.9674	0.0194
0.3274	497.3	0.6672	0.014
0.3283	433	0.9083	0.0182
0.3359	313.6	0.9876	0.0124
0.3453	353.4	0.9765	0.0195
0.3542	400.4	0.9462	0.019
0.3653	497.3	0.6553	0.0141
0.3683	472.6	0.7976	0.0163
0.3702	452.9	0.8611	0.0173
0.3713	313.6	0.985	0.015
0.3753	433	0.9022	0.0181
0.3767	376.5	0.9623	0.0193
0.3767	413.1	0.9316	0.0187
0.3924	497.3	0.6361	0.0144
0.3925	353.4	0.9718	0.0195
0.4008	313.6	0.982	0.018
0.4147	433	0.8958	0.0181
0.422	452.9	0.848	0.0172
0.4229	400.4	0.9375	0.0188
0.4279	497.3	0.6127	0.0146
0.4311	313.6	0.9781	0.0196
0.438	353.4	0.9664	0.0194
0.438	376.5	0.9549	0.0192
0.4407	472.6	0.7717	0.0163
0.4506	413.1	0.9183	0.0185
0.4541	497.3	0.5886	0.0152
0.4598	433	0.8835	0.0178
0.4767	353.4	0.9604	0.0193
0.4819	452.9	0.8283	0.0171
0.4869	413.1	0.9097	0.0184
0.489	400.4	0.9243	0.0186
0.4897	376.5	0.9451	0.019
0.4929	433	0.8744	0.0178
0.4985	472.6	0.7381	0.0163
0.5177	353.4	0.9515	0.0192
0.5246	452.9	0.8076	0.0174
0.528	413.1	0.8981	0.0184
0.5412	433	0.8556	0.0179
0.5455	376.5	0.9306	0.0189
0.5589	400.4	0.9051	0.0184
0.5595	472.6	0.6957	0.0162
0.5664	413.1	0.8839	0.0183
0.5772	433	0.8381	0.0177
0.5838	400.4	0.8949	0.0186
0.5902	452.9	0.7652	0.0177
0.6067	376.5	0.913	0.0186
0.6078	413.1	0.8656	0.0185
0.6163	400.4	0.8813	0.0187
0.6215	433	0.8093	0.0185
0.6305	452.9	0.7297	0.0186
0.6384	413.1	0.8469	0.019
0.6534	400.4	0.8603	0.0188
0.6551	433	0.783	0.0217
0.6753	413.1	0.8233	0.0189
0.6917	413.1	0.8111	0.0254
0.696	433	0.7252	0.0246
0.6961	400.4	0.8351	0.0234
0.7033	400.4	0.8267	0.0234
