Measured thermophysical data. Measuring solubility of hydrogen sulphide in aqueous blends of N-methyldiethanolamine and 2-((2 aminoethyl)amino)ethanol and correlating by the Deshmukh-Mather model
Source: J. Chem. Thermodyn., 2016, 10.1016/j.jct.2016.04.012
Compound 1: water, H2O, InChI=1S/H2O/h1H2, purity 99%
Compound 2: hydrogen sulfide, H2S, InChI=1S/H2S/h1H2, purity 99.95%
Compound 3: N-methyldiethanolamine, C5H13NO2, InChI=1S/C5H13NO2/c1-6(2-4-7)3-5-8/h7-8H,2-5H2,1H3, purity 99%

System: N-methyldiethanolamine + water + hydrogen sulfide; phases: Liquid, Gas
Fixed: Temperature, K = 313.2
Fixed: Solvent: Mole fraction of N-methyldiethanolamine = 0.0449
Property: Mole fraction of hydrogen sulfide (Liquid); method: volumetric method
Pressure, kPa of hydrogen sulfide	Mole fraction of hydrogen sulfide	uncertainty
14	0.0222	0.0031
28	0.0301	0.0024
63	0.0373	0.0025
163	0.0441	0.0029
314	0.0487	0.0032
427	0.0514	0.0034
571	0.0536	0.0036
738	0.0567	0.0038
939	0.0602	0.004
1029	0.0611	0.0041
1205	0.0658	0.0044
1361	0.0685	0.0047
