Measured thermophysical data. Liquid-liquid equilibrium of alcohol-ester systems with deep eutectic solvent on the base of choline chloride
Source: J. Chem. Thermodyn., 2019, 10.1016/j.jct.2018.11.019
Compound 1: ethyl propanoate, C5H10O2, InChI=1S/C5H10O2/c1-3-5(6)7-4-2/h3-4H2,1-2H3, purity 99%
Compound 2: propyl propanoate, C6H12O2, InChI=1S/C6H12O2/c1-3-5-8-6(7)4-2/h3-5H2,1-2H3, purity 99%
Compound 3: propanedioic acid, C3H4O4, InChI=1S/C3H4O4/c4-2(5)1-3(6)7/h1H2,(H,4,5)(H,6,7)
Compound 4: choline chloride, C5H14ClNO, InChI=1S/C5H14NO.ClH/c1-6(2,3)4-5-7;/h7H,4-5H2,1-3H3;1H/q+1;/p-1

System: ethyl propanoate + propanedioic acid + choline chloride; phases: Liquid mixture 1, Liquid mixture 2
Fixed: Pressure, kPa = 101.3
Fixed: Solvent: Mole fraction of propanedioic acid = 0.5
Property: Mass fraction of ethyl propanoate (Liquid mixture 1); method: Chromatography
Temperature, K	Mass fraction of ethyl propanoate	uncertainty
293.15	0.001	0.001
313.15	0.012	0.012

System: propyl propanoate + propanedioic acid + choline chloride; phases: Liquid mixture 1, Liquid mixture 2
Fixed: Pressure, kPa = 101.3
Fixed: Solvent: Mole fraction of propanedioic acid = 0.5
Property: Mass fraction of propyl propanoate (Liquid mixture 1); method: Chromatography
Temperature, K	Mass fraction of propyl propanoate	uncertainty
293.15	0.009	0.009
313.15	0.011	0.011
