Measured thermophysical data. Compressed liquid density measurements of dimethyl ether with a vibrating tube densimeter
Source: J. Chem. Thermodyn., 2011, 10.1016/j.jct.2011.04.011
Compound 1: dimethyl ether, C2H6O, InChI=1S/C2H6O/c1-3-2/h1-2H3, purity 99.95%

System: dimethyl ether; phases: Liquid
Property: Mass density, kg/m3 (Liquid); method: Vibrating tube method
Temperature, K	Pressure, kPa	Mass density, kg/m3	uncertainty
293.84	1000	669.27	1.3
293.84	3000	673.21	1.3
293.84	5000	676.85	1.28
293.84	10000	685.08	1.28
293.84	15000	692.61	1.28
293.84	20000	699.44	1.29
293.84	25000	705.75	1.3
293.84	30000	711.53	1.31
293.84	35000	717	1.32
293.84	40000	722.21	1.33
293.84	50000	731.68	1.36
293.84	60000	740.35	1.39
293.84	70000	748.4	1.42
303.45	1000	653.54	1.33
303.45	3000	657.94	1.32
303.45	5000	662.06	1.3
303.45	10000	671.42	1.3
303.45	15000	679.73	1.3
303.45	20000	687.19	1.3
303.45	25000	694.14	1.31
303.45	30000	700.39	1.32
303.45	35000	706.33	1.33
303.45	40000	711.79	1.34
303.45	50000	721.98	1.37
303.45	60000	731.17	1.4
303.45	70000	739.59	1.44
313.18	3000	641.72	1.36
313.18	5000	646.5	1.33
313.18	10000	657.11	1.32
313.18	15000	666.38	1.31
313.18	20000	674.68	1.31
313.18	25000	682.06	1.32
313.18	30000	688.96	1.33
313.18	35000	695.3	1.34
313.18	40000	701.19	1.35
313.18	50000	711.96	1.38
313.18	60000	721.63	1.42
313.18	70000	730.55	1.45
323	3000	624.46	1.42
323	5000	630.01	1.36
323	10000	642.19	1.35
323	15000	652.54	1.33
323	20000	661.65	1.33
323	25000	669.81	1.33
323	30000	677.2	1.34
323	35000	684.06	1.35
323	40000	690.37	1.36
323	50000	701.9	1.39
323	60000	712.04	1.43
323	70000	721.44	1.47
332.83	3000	605.7	1.5
332.83	5000	612.33	1.41
332.83	10000	626.46	1.38
332.83	15000	638.17	1.36
332.83	20000	648.33	1.35
332.83	25000	657.3	1.35
332.83	30000	665.34	1.35
332.83	35000	672.7	1.36
332.83	40000	679.54	1.37
332.83	50000	691.67	1.41
332.83	60000	702.5	1.44
332.83	70000	712.29	1.49
343.01	3000	584.39	1.64
343.01	5000	592.63	1.49
343.01	10000	609.39	1.44
343.01	15000	622.87	1.39
343.01	20000	634.17	1.37
343.01	25000	644.06	1.36
343.01	30000	652.87	1.37
343.01	35000	660.84	1.38
343.01	40000	668.11	1.39
343.01	50000	681.15	1.42
343.01	60000	692.63	1.46
343.01	70000	702.89	1.5
353	3000	560.89	1.8
353	5000	571.39	1.61
353	10000	591.7	1.51
353	15000	607.19	1.43
353	20000	619.91	1.4
353	25000	630.86	1.39
353	30000	640.46	1.39
353	35000	649.09	1.39
353	40000	656.92	1.4
353	50000	670.8	1.44
353	60000	682.9	1.48
353	70000	693.76	1.52
362.91	5000	547.69	1.78
362.91	10000	572.99	1.62
362.91	15000	591.04	1.48
362.91	20000	605.41	1.43
362.91	25000	617.51	1.41
362.91	30000	627.99	1.41
362.91	35000	637.26	1.41
362.91	40000	645.67	1.42
362.91	50000	660.45	1.45
362.91	60000	673.27	1.49
362.91	70000	684.63	1.54
372.94	5000	519.39	2.01
372.94	10000	552.4	1.81
372.94	15000	573.78	1.56
372.94	20000	590.14	1.47
372.94	25000	603.55	1.44
372.94	30000	615.07	1.43
372.94	35000	625.15	1.43
372.94	40000	634.21	1.43
372.94	50000	649.98	1.47
372.94	60000	663.51	1.51
372.94	70000	675.48	1.56
