Measured thermophysical data. Study of the stability of 5,10,15,20-tetraphenylporphine (TPP) and metalloporphyrins NiTPP, CoTPP, CuTPP, and ZnTPP by differential scanning calorimetry and thermogravimetry
Source: J. Chem. Thermodyn., 2010, 10.1016/j.jct.2009.12.007
Compound 1: .alpha.,.beta.,.gamma.,.delta.-tetraphenylporphine, C44H30N4, InChI=1S/C44H30N4/c1-5-13-29(14-6-1)41-33-21-23-35(45-33)42(30-15-7-2-8-16-30)37-25-27-39(47-37)44(32-19-11-4-12-20-32)40-28-26-38(48-40)43(31-17-9-3-10-18-31)36-24-22-34(41)46-36/h1-28,45,48H/b41-33-,41-34-,42-35-,42-37-,43-36-,43-38-,44-39-,44-40-
Compound 2: cobalt(II) 5,10,15,20-tetraphenylporphyrin-21,23-diide, C44H28CoN4, InChI=1S/C44H28N4.Co/c1-5-13-29(14-6-1)41-33-21-23-35(45-33)42(30-15-7-2-8-16-30)37-25-27-39(47-37)44(32-19-11-4-12-20-32)40-28-26-38(48-40)43(31-17-9-3-10-18-31)36-24-22-34(41)46-36;/h1-28H;/q-2;+2/b41-33-,41-34-,42-35-,42-37-,43-36-,43-38-,44-39-,44-40-;
Compound 3: [5,10,15,20-tetraphenyl-21H,23H-porphinato(2-)-N21,N22,N23,N24]copper, C44H28CuN4, InChI=1S/C44H28N4.Cu/c1-5-13-29(14-6-1)41-33-21-23-35(45-33)42(30-15-7-2-8-16-30)37-25-27-39(47-37)44(32-19-11-4-12-20-32)40-28-26-38(48-40)43(31-17-9-3-10-18-31)36-24-22-34(41)46-36;/h1-28H;/q-2;+2/b41-33-,41-34-,42-35-,42-37-,43-36-,43-38-,44-39-,44-40-;
Compound 4: nickel meso-tetraphenylporphine, C44H28N4Ni, InChI=1S/C44H28N4.Ni/c1-5-13-29(14-6-1)41-33-21-23-35(45-33)42(30-15-7-2-8-16-30)37-25-27-39(47-37)44(32-19-11-4-12-20-32)40-28-26-38(48-40)43(31-17-9-3-10-18-31)36-24-22-34(41)46-36;/h1-28H;/q-2;+2/b41-33-,41-34-,42-35-,42-37-,43-36-,43-38-,44-39-,44-40-;
Compound 5: [5,10,15,20-tetraphenyl-21H,23H-porphinato(2-)-N21,N22,N23,N24]zinc, C44H28N4Zn, InChI=1S/C44H28N4.Zn/c1-5-13-29(14-6-1)41-33-21-23-35(45-33)42(30-15-7-2-8-16-30)37-25-27-39(47-37)44(32-19-11-4-12-20-32)40-28-26-38(48-40)43(31-17-9-3-10-18-31)36-24-22-34(41)46-36;/h1-28H;/q-2;+2/b41-33-,41-34-,42-35-,42-37-,43-36-,43-38-,44-39-,44-40-;

System: .alpha.,.beta.,.gamma.,.delta.-tetraphenylporphine; phases: Crystal, Liquid, Air at 1 atmosphere
Property: Normal melting temperature, K (Crystal); method: Differential scanning calorimeter
Normal melting temperature, K	uncertainty
723.5	

System: .alpha.,.beta.,.gamma.,.delta.-tetraphenylporphine; phases: Crystal, Liquid, Gas
Property: Molar enthalpy of transition or fusion, kJ/mol (Crystal); method: Differential scanning calorimeter
Molar enthalpy of transition or fusion, kJ/mol	uncertainty
44.2	

System: cobalt(II) 5,10,15,20-tetraphenylporphyrin-21,23-diide; phases: Crystal, Liquid, Air at 1 atmosphere
Property: Normal melting temperature, K (Crystal); method: Differential scanning calorimeter
Normal melting temperature, K	uncertainty
747.2	

System: cobalt(II) 5,10,15,20-tetraphenylporphyrin-21,23-diide; phases: Crystal, Liquid, Gas
Property: Molar enthalpy of transition or fusion, kJ/mol (Crystal); method: Differential scanning calorimeter
Molar enthalpy of transition or fusion, kJ/mol	uncertainty
57.5	

System: [5,10,15,20-tetraphenyl-21H,23H-porphinato(2-)-N21,N22,N23,N24]copper; phases: Crystal, Liquid, Air at 1 atmosphere
Property: Normal melting temperature, K (Crystal); method: Differential scanning calorimeter
Normal melting temperature, K	uncertainty
741.4	

System: [5,10,15,20-tetraphenyl-21H,23H-porphinato(2-)-N21,N22,N23,N24]copper; phases: Crystal, Liquid, Gas
Property: Molar enthalpy of transition or fusion, kJ/mol (Crystal); method: Differential scanning calorimeter
Molar enthalpy of transition or fusion, kJ/mol	uncertainty
51.6	

System: nickel meso-tetraphenylporphine; phases: Crystal, Liquid, Air at 1 atmosphere
Property: Normal melting temperature, K (Crystal); method: Differential scanning calorimeter
Normal melting temperature, K	uncertainty
760.1	

System: nickel meso-tetraphenylporphine; phases: Crystal, Liquid, Gas
Property: Molar enthalpy of transition or fusion, kJ/mol (Crystal); method: Differential scanning calorimeter
Molar enthalpy of transition or fusion, kJ/mol	uncertainty
58.4	

System: [5,10,15,20-tetraphenyl-21H,23H-porphinato(2-)-N21,N22,N23,N24]zinc; phases: Crystal, Liquid, Air at 1 atmosphere
Property: Normal melting temperature, K (Crystal); method: Differential scanning calorimeter
Normal melting temperature, K	uncertainty
770.4	

System: [5,10,15,20-tetraphenyl-21H,23H-porphinato(2-)-N21,N22,N23,N24]zinc; phases: Crystal, Liquid, Gas
Property: Molar enthalpy of transition or fusion, kJ/mol (Crystal); method: Differential scanning calorimeter
Molar enthalpy of transition or fusion, kJ/mol	uncertainty
54.9	
