Measured thermophysical data. Experimental studies on the liquid thermal conductivity of three saturated fatty acid methyl esters components of biodiesel
Source: J. Chem. Thermodyn., 2018, 10.1016/j.jct.2018.06.005
Compound 1: methyl tetradecanoate, C15H30O2, InChI=1S/C15H30O2/c1-3-4-5-6-7-8-9-10-11-12-13-14-15(16)17-2/h3-14H2,1-2H3, purity 98%
Compound 2: methyl dodecanoate, C13H26O2, InChI=1S/C13H26O2/c1-3-4-5-6-7-8-9-10-11-12-13(14)15-2/h3-12H2,1-2H3, purity 99%
Compound 3: methyl decanoate, C11H22O2, InChI=1S/C11H22O2/c1-3-4-5-6-7-8-9-10-11(12)13-2/h3-10H2,1-2H3, purity 99%

System: methyl tetradecanoate; phases: Liquid
Fixed: Pressure, kPa = 101.325
Property: Thermal conductivity, W/m/K (Liquid); method: THOTW
Temperature, K	Thermal conductivity, W/m/K	uncertainty
304.02	0.1481	0.006
304.33	0.1479	0.006
320.1	0.1447	0.0059
320.81	0.1443	0.0058
327.18	0.1435	0.0058
327.53	0.1428	0.0058
338.31	0.1407	0.0057
338.55	0.1408	0.0057
342.21	0.1402	0.0057
342.28	0.1398	0.0057
354.31	0.1375	0.0056
354.58	0.1366	0.0055
359.14	0.1366	0.0055
359.27	0.1361	0.0055
369.45	0.1338	0.0054
369.47	0.1337	0.0054
377.12	0.1324	0.0054
377.13	0.1322	0.0054
386.13	0.13	0.0053
386.27	0.13	0.0053
394.31	0.1284	0.0052
394.48	0.1283	0.0052
402.41	0.1261	0.0051
402.41	0.1265	0.0051

System: methyl dodecanoate; phases: Liquid
Fixed: Pressure, kPa = 101.325
Property: Thermal conductivity, W/m/K (Liquid); method: THOTW
Temperature, K	Thermal conductivity, W/m/K	uncertainty
283.81	0.1488	0.006
284.03	0.1484	0.006
295.89	0.1465	0.0059
295.9	0.1464	0.0059
306.72	0.144	0.0058
306.79	0.144	0.0058
307.82	0.1434	0.0058
307.84	0.1443	0.0058
317.62	0.1414	0.0057
317.69	0.141	0.0057
327.44	0.1394	0.0056
327.69	0.1388	0.0056
337.37	0.1373	0.0055
337.57	0.137	0.0055
349.53	0.1346	0.0054
349.67	0.1339	0.0054
359.29	0.1323	0.0053
359.31	0.1325	0.0053
369.45	0.1291	0.0052
369.47	0.1296	0.0052
379.17	0.128	0.0052
379.47	0.1274	0.0051
390.25	0.1254	0.0051
390.33	0.125	0.005
402.63	0.1222	0.0049
402.69	0.1214	0.0049

System: methyl decanoate; phases: Liquid
Fixed: Pressure, kPa = 101.325
Property: Thermal conductivity, W/m/K (Liquid); method: THOTW
Temperature, K	Thermal conductivity, W/m/K	uncertainty
267.1	0.1492	0.006
267.11	0.1494	0.006
277	0.1461	0.0059
277.07	0.1471	0.0059
288.82	0.1444	0.0058
288.84	0.1445	0.0058
300.83	0.1426	0.0057
300.86	0.1423	0.0057
311.66	0.1393	0.0056
311.87	0.1392	0.0056
324.72	0.137	0.0055
324.92	0.1368	0.0055
336.71	0.1342	0.0054
336.71	0.134	0.0054
348.66	0.1313	0.0053
348.81	0.1312	0.0053
354.58	0.1297	0.0052
354.59	0.1299	0.0052
360.11	0.1297	0.0052
360.61	0.1285	0.0052
368.98	0.1274	0.0051
369.47	0.1262	0.0051
379.5	0.1247	0.005
379.65	0.1236	0.005
389.35	0.1206	0.0049
389.39	0.1205	0.0049
399.87	0.1183	0.0048
399.95	0.119	0.0048
