Measured thermophysical data. Standard molar enthalpy of formation of 1-benzosuberone: An experimental and computational study
Source: J. Chem. Thermodyn., 2010, 10.1016/j.jct.2010.04.007
Compound 1: carbon dioxide, CO2, InChI=1S/CO2/c2-1-3
Compound 2: water, H2O, InChI=1S/H2O/h1H2
Compound 3: oxygen, O2, InChI=1S/O2/c1-2
Compound 4: 1-benzosuberone, C11H12O, InChI=1S/C11H12O/c12-11-8-4-6-9-5-2-1-3-7-10(9)11/h1,3,5,7H,2,4,6,8H2, purity 99.45%

System: 1-benzosuberone; phases: Liquid, Gas
Property: Molar enthalpy of vaporization or sublimation, kJ/mol (Liquid); method: Static calorimetry
Temperature, K	Molar enthalpy of vaporization or sublimation, kJ/mol	uncertainty
298.15	69	1.7

System: 1-benzosuberone; phases: Gas
Property: Molar enthalpy, kJ/mol (Gas); method: Calvet Microcalorimetry
Temperature, K	Pressure, kPa	Molar enthalpy, kJ/mol	uncertainty
362	101.325	81.1	3.4

Reaction: -1 1-benzosuberone + 11 carbon dioxide + 6 water + -13.5 oxygen
Property: Specific internal energy of reaction at constant volume, J/g
-36653.2
