Measured thermophysical data. Experimental and correlational study of phase equilibria in aqueous mixtures of phosphoric acid with aromatic hydrocarbons at various temperatures
Source: J. Chem. Thermodyn., 2015, 10.1016/j.jct.2015.07.020
Compound 1: phosphoric acid, H3O4P, InChI=1S/H3O4P/c1-5(2,3)4/h(H3,1,2,3,4), purity 97%
Compound 2: ethylbenzene, C8H10, InChI=1S/C8H10/c1-2-8-6-4-3-5-7-8/h3-7H,2H2,1H3, purity 99%
Compound 3: isopropylbenzene, C9H12, InChI=1S/C9H12/c1-8(2)9-6-4-3-5-7-9/h3-8H,1-2H3, purity 99%
Compound 4: water, H2O, InChI=1S/H2O/h1H2

System: ethylbenzene; phases: Liquid
Property: Refractive index (Na D-line) (Liquid); method: Standard Abbe refractometry
Temperature, K	Pressure, kPa	Refractive index (Na D-line)	uncertainty
298.15	101.325	1.493	0.0005

System: ethylbenzene; phases: Liquid
Property: Mass density, kg/m3 (Liquid); method: Vibrating tube method
Temperature, K	Pressure, kPa	Mass density, kg/m3	uncertainty
298.15	101.325	862.51	0.3

System: isopropylbenzene; phases: Liquid
Property: Refractive index (Na D-line) (Liquid); method: Standard Abbe refractometry
Temperature, K	Pressure, kPa	Refractive index (Na D-line)	uncertainty
293.15	101.325	1.4912	0.0005

System: isopropylbenzene; phases: Liquid
Property: Mass density, kg/m3 (Liquid); method: Vibrating tube method
Temperature, K	Pressure, kPa	Mass density, kg/m3	uncertainty
293.15	101.325	863.82	0.3

System: water; phases: Liquid
Property: Refractive index (Na D-line) (Liquid); method: Standard Abbe refractometry
Temperature, K	Pressure, kPa	Refractive index (Na D-line)	uncertainty
298.15	101.325	1.3324	0.0005

System: water; phases: Liquid
Property: Mass density, kg/m3 (Liquid); method: Vibrating tube method
Temperature, K	Pressure, kPa	Mass density, kg/m3	uncertainty
298.15	101.325	997.01	0.06

System: isopropylbenzene + phosphoric acid + water; phases: Liquid mixture 1, Liquid mixture 2
Fixed: Pressure, kPa = 101.32
Property: Mass fraction of water (Liquid mixture 1); method: Titration method
Temperature, K	Mass fraction of phosphoric acid	Mass fraction of water	uncertainty
298.15	0	0.0005	0.0005
298.15	0.0104	0.0031	0.0031
298.15	0.0212	0.0034	0.0034
298.15	0.0328	0.0039	0.0039
298.15	0.0616	0.0053	0.0053
298.15	0.8485	0.1497	0.0109
298.15	0.804	0.1942	0.0114
298.15	0.7149	0.2833	0.0128
298.15	0.6247	0.3735	0.0145
298.15	0.5038	0.4944	0.0172
298.15	0.4309	0.5674	0.0158
298.15	0.2958	0.7024	0.0131
298.15	0.2132	0.785	0.0117
298.15	0.1757	0.8227	0.0112
298.15	0.0482	0.9501	0.0101
298.15	0	0.9996	0.0004
308.15	0	0.0005	0.0005
308.15	0.0112	0.0034	0.0034
308.15	0.0218	0.0041	0.0041
308.15	0.0346	0.0054	0.0054
308.15	0.0635	0.0061	0.0061
308.15	0.8485	0.1497	0.0109
308.15	0.7194	0.2788	0.0127
308.15	0.5013	0.4969	0.0172
308.15	0.4226	0.5756	0.0156
308.15	0.2957	0.7025	0.0131
308.15	0.2119	0.7863	0.0117
308.15	0.1404	0.8578	0.0108
308.15	0.0898	0.9084	0.0103
308.15	0.0577	0.9405	0.0101
308.15	0.0311	0.9671	0.01
308.15	0	0.9994	0.0006
318.15	0	0.0008	0.0008
318.15	0.0125	0.0032	0.0032
318.15	0.0288	0.0041	0.0041
318.15	0.0409	0.0048	0.0048
318.15	0.0574	0.0063	0.0063
318.15	0.0721	0.0078	0.0078
318.15	0.8485	0.1497	0.0109
318.15	0.7616	0.2366	0.012
318.15	0.6242	0.374	0.0146
318.15	0.5525	0.4457	0.0161
318.15	0.4692	0.529	0.0167
318.15	0.3763	0.6219	0.0146
318.15	0.3015	0.6967	0.0132
318.15	0.2141	0.7841	0.0117
318.15	0.1363	0.8622	0.0107
318.15	0	0.9991	0.0009

System: isopropylbenzene + phosphoric acid + water; phases: Liquid mixture 2, Liquid mixture 1
Fixed: Pressure, kPa = 101.32
Property: Mass fraction of water (Liquid mixture 2); method: Titration method
Property: Mass fraction of water (Liquid mixture 1); method: Titration method
Property: Mass fraction of phosphoric acid (Liquid mixture 1); method: Titration method
Temperature, K	Mass fraction of phosphoric acid	Mass fraction of water	uncertainty	Mass fraction of water	uncertainty	Mass fraction of phosphoric acid	uncertainty
298.15	0.012	0.003	0.003	0.843	0.023	0.155	
298.15	0.022	0.003	0.003	0.751	0.023	0.247	
298.15	0.035	0.004	0.004	0.704	0.024	0.293	
298.15	0.049	0.004	0.004	0.629	0.024	0.368	
298.15	0.063	0.005	0.005	0.583	0.024	0.414	
298.15	0.075	0.006	0.006	0.545	0.025	0.451	
308.15	0.014	0.003	0.003	0.83	0.023	0.167	
308.15	0.025	0.004	0.004	0.742	0.023	0.255	
308.15	0.038	0.005	0.005	0.682	0.024	0.314	
308.15	0.05	0.005	0.005	0.615	0.024	0.38	
308.15	0.066	0.006	0.006	0.571	0.025	0.423	
308.15	0.076	0.006	0.006	0.532	0.025	0.462	
318.15	0.015	0.003	0.003	0.819	0.023	0.178	
318.15	0.028	0.004	0.004	0.731	0.023	0.265	
318.15	0.039	0.005	0.005	0.664	0.024	0.331	
318.15	0.054	0.006	0.006	0.602	0.024	0.391	
318.15	0.068	0.008	0.008	0.555	0.025	0.437	
318.15	0.079	0.008	0.008	0.512	0.025	0.48	

System: ethylbenzene + phosphoric acid + water; phases: Liquid mixture 1, Liquid mixture 2
Fixed: Pressure, kPa = 101.32
Property: Mass fraction of water (Liquid mixture 1); method: Titration method
Temperature, K	Mass fraction of phosphoric acid	Mass fraction of water	uncertainty
298.15	0	0.0008	0.0008
298.15	0.0106	0.0032	0.0032
298.15	0.0225	0.0037	0.0037
298.15	0.0331	0.0051	0.0051
298.15	0.0427	0.0055	0.0055
298.15	0.0546	0.0059	0.0059
298.15	0.0697	0.0072	0.0072
298.15	0.8486	0.1498	0.0109
298.15	0.8014	0.197	0.0114
298.15	0.7217	0.2767	0.0127
298.15	0.6281	0.3703	0.0145
298.15	0.549	0.4494	0.0162
298.15	0.4248	0.5736	0.0157
298.15	0.3448	0.6537	0.014
298.15	0.2165	0.7819	0.0117
298.15	0	0.9997	0.0003
308.15	0	0.0009	0.0009
308.15	0.0119	0.0034	0.0034
308.15	0.0236	0.0043	0.0043
308.15	0.0336	0.0048	0.0048
308.15	0.0454	0.0052	0.0052
308.15	0.0661	0.0057	0.0057
308.15	0.8486	0.1498	0.0109
308.15	0.8053	0.1931	0.0114
308.15	0.7121	0.2863	0.0129
308.15	0.6331	0.3653	0.0144
308.15	0.549	0.4494	0.0162
308.15	0.4255	0.5729	0.0157
308.15	0.297	0.7014	0.0131
308.15	0.2086	0.7898	0.0116
308.15	0.1423	0.8561	0.0108
308.15	0	0.9996	0.0004
318.15	0	0.0009	0.0009
318.15	0.0123	0.0035	0.0035
318.15	0.024	0.0028	0.0028
318.15	0.0403	0.0035	0.0035
318.15	0.0477	0.0051	0.0051
318.15	0.0683	0.0059	0.0059
318.15	0.8486	0.1498	0.0109
318.15	0.805	0.1934	0.0114
318.15	0.7115	0.2869	0.0129
318.15	0.6364	0.362	0.0143
318.15	0.5127	0.4857	0.017
318.15	0.417	0.5814	0.0155
318.15	0.3801	0.6183	0.0147
318.15	0.2113	0.7871	0.0117
318.15	0.1363	0.8622	0.0107
318.15	0	0.9994	0.0006

System: ethylbenzene + phosphoric acid + water; phases: Liquid mixture 2, Liquid mixture 1
Fixed: Pressure, kPa = 101.32
Property: Mass fraction of water (Liquid mixture 2); method: Titration method
Property: Mass fraction of water (Liquid mixture 1); method: Titration method
Property: Mass fraction of phosphoric acid (Liquid mixture 1); method: Titration method
Temperature, K	Mass fraction of phosphoric acid	Mass fraction of water	uncertainty	Mass fraction of water	uncertainty	Mass fraction of phosphoric acid	uncertainty
298.15	0.024	0.003	0.003	0.802	0.023	0.196	
298.15	0.037	0.005	0.005	0.709	0.024	0.288	
298.15	0.053	0.006	0.006	0.603	0.024	0.394	
298.15	0.071	0.007	0.007	0.527	0.025	0.469	
298.15	0.084	0.007	0.007	0.455	0.025	0.54	
298.15	0.105	0.008	0.008	0.398	0.025	0.595	
308.15	0.025	0.004	0.004	0.778	0.023	0.219	
308.15	0.04	0.005	0.005	0.695	0.024	0.302	
308.15	0.054	0.005	0.005	0.585	0.024	0.411	
308.15	0.073	0.006	0.006	0.504	0.025	0.49	
308.15	0.085	0.008	0.008	0.441	0.025	0.553	
308.15	0.107	0.008	0.008	0.381	0.024	0.612	
318.15	0.027	0.003	0.003	0.767	0.023	0.23	
318.15	0.045	0.004	0.004	0.673	0.024	0.323	
318.15	0.058	0.005	0.005	0.571	0.024	0.425	
318.15	0.076	0.005	0.005	0.49	0.025	0.505	
318.15	0.089	0.007	0.007	0.424	0.025	0.569	
318.15	0.11	0.008	0.008	0.372	0.024	0.621	

System: isopropylbenzene + water; phases: Liquid mixture 1, Liquid mixture 2
Fixed: Pressure, kPa = 101.32
Property: Mass fraction of water (Liquid mixture 1); method: Titration method
Temperature, K	Mass fraction of water	uncertainty
298.15	0.0005	0.0005
298.15	0.9996	0.0004
308.15	0.0005	0.0005
308.15	0.9994	0.0006
318.15	0.0008	0.0008
318.15	0.9991	0.0009

System: ethylbenzene + water; phases: Liquid mixture 1, Liquid mixture 2
Fixed: Pressure, kPa = 101.32
Property: Mass fraction of water (Liquid mixture 1); method: Titration method
Temperature, K	Mass fraction of water	uncertainty
298.15	0.0008	0.0008
298.15	0.9997	0.0003
308.15	0.0009	0.0009
308.15	0.9996	0.0004
318.15	0.0009	0.0009
318.15	0.9994	0.0006
