Measured thermophysical data. Thermodynamic and optical studies of some ethylene glycol ethers in aqueous solutions at T = 298.15 K
Source: J. Chem. Thermodyn., 2009, 10.1016/j.jct.2009.01.010
Compound 1: 2-methoxyethan-1-ol, C3H8O2, InChI=1S/C3H8O2/c1-5-3-2-4/h4H,2-3H2,1H3
Compound 2: 2-ethoxyethan-1-ol, C4H10O2, InChI=1S/C4H10O2/c1-2-6-4-3-5/h5H,2-4H2,1H3
Compound 3: 3,6-dioxa-1-octanol, C6H14O3, InChI=1S/C6H14O3/c1-2-8-5-6-9-4-3-7/h7H,2-6H2,1H3
Compound 4: 2-(2-methoxyethoxy)ethanol, C5H12O3, InChI=1S/C5H12O3/c1-7-4-5-8-3-2-6/h6H,2-5H2,1H3
Compound 5: water, H2O, InChI=1S/H2O/h1H2

System: 2-methoxyethan-1-ol; phases: Liquid
Property: Refractive index (Na D-line) (Liquid); method: ABBE:monoch
Temperature, K	Pressure, kPa	Refractive index (Na D-line)	uncertainty
298.15	101.325	1.4002	0.001

System: 2-methoxyethan-1-ol; phases: Liquid
Property: Speed of sound, m/s (Liquid); method: Linear variable-path acoustic interferometer
Pressure, kPa	Temperature, K	Speed of sound, m/s	uncertainty
101	298.15	1341.7	5.4

System: 2-methoxyethan-1-ol; phases: Liquid
Property: Mass density, kg/m3 (Liquid); method: Pycnometric method
Pressure, kPa	Temperature, K	Mass density, kg/m3	uncertainty
101	298.15	960.23	6.73

System: 2-ethoxyethan-1-ol; phases: Liquid
Property: Refractive index (Na D-line) (Liquid); method: ABBE:monoch
Temperature, K	Pressure, kPa	Refractive index (Na D-line)	uncertainty
298.15	101.325	1.4058	0.001

System: 2-ethoxyethan-1-ol; phases: Liquid
Property: Speed of sound, m/s (Liquid); method: Linear variable-path acoustic interferometer
Pressure, kPa	Temperature, K	Speed of sound, m/s	uncertainty
101	298.15	1302.5	5.4

System: 2-ethoxyethan-1-ol; phases: Liquid
Property: Mass density, kg/m3 (Liquid); method: Pycnometric method
Pressure, kPa	Temperature, K	Mass density, kg/m3	uncertainty
101	298.15	925.39	6.27

System: 3,6-dioxa-1-octanol; phases: Liquid
Property: Refractive index (Na D-line) (Liquid); method: ABBE:monoch
Temperature, K	Pressure, kPa	Refractive index (Na D-line)	uncertainty
298.15	101.325	1.425	0.001

System: 3,6-dioxa-1-octanol; phases: Liquid
Property: Speed of sound, m/s (Liquid); method: Linear variable-path acoustic interferometer
Pressure, kPa	Temperature, K	Speed of sound, m/s	uncertainty
101	298.15	1378	5.4

System: 3,6-dioxa-1-octanol; phases: Liquid
Property: Mass density, kg/m3 (Liquid); method: Pycnometric method
Pressure, kPa	Temperature, K	Mass density, kg/m3	uncertainty
101	298.15	984.6	7.07

System: 2-(2-methoxyethoxy)ethanol; phases: Liquid
Property: Refractive index (Na D-line) (Liquid); method: ABBE:monoch
Temperature, K	Pressure, kPa	Refractive index (Na D-line)	uncertainty
298.15	101.325	1.425	0.001

System: 2-(2-methoxyethoxy)ethanol; phases: Liquid
Property: Speed of sound, m/s (Liquid); method: Linear variable-path acoustic interferometer
Pressure, kPa	Temperature, K	Speed of sound, m/s	uncertainty
101	298.15	1422.6	5.4

System: 2-(2-methoxyethoxy)ethanol; phases: Liquid
Property: Mass density, kg/m3 (Liquid); method: Pycnometric method
Pressure, kPa	Temperature, K	Mass density, kg/m3	uncertainty
101	298.15	1016.95	7.53

System: water; phases: Liquid
Fixed: Temperature, K = 298.15
Fixed: Pressure, kPa = 101.325
Property: Refractive index (Na D-line) (Liquid); method: ABBE:monoch
Refractive index (Na D-line)	uncertainty
1.333	0.001
1.3325	0.0007

System: water; phases: Liquid
Property: Speed of sound, m/s (Liquid); method: Linear variable-path acoustic interferometer
Pressure, kPa	Temperature, K	Speed of sound, m/s	uncertainty
101	298.15	1496.6	2

System: water; phases: Liquid
Property: Mass density, kg/m3 (Liquid); method: Pycnometric method
Pressure, kPa	Temperature, K	Mass density, kg/m3	uncertainty
101	298.15	999.704	0.905

System: 2-methoxyethan-1-ol + water; phases: Liquid
Fixed: Pressure, kPa = 101
Fixed: Temperature, K = 298.15
Property: Refractive index (Na D-line) (Liquid); method: ABBE:monoch
Mole fraction of 2-methoxyethan-1-ol	Refractive index (Na D-line)	uncertainty
0	1.333	0.001
0.0202	1.34	0.001
0.04	1.346	0.001
0.0539	1.35	0.001
0.0822	1.357	0.001
0.101	1.361	0.001
0.1509	1.37	0.001
0.2036	1.378	0.001
0.3025	1.386	0.001
0.4033	1.391	0.001
0.5009	1.394	0.001
0.5514	1.395	0.001
0.6976	1.396	0.001
0.7855	1.398	0.001
0.889	1.398	0.001
1	1.4002	0.001

System: 2-methoxyethan-1-ol + water; phases: Liquid
Fixed: Pressure, kPa = 101
Fixed: Temperature, K = 298.15
Property: Speed of sound, m/s (Liquid); method: Linear variable-path acoustic interferometer
Mole fraction of 2-methoxyethan-1-ol	Speed of sound, m/s	uncertainty
0	1496.6	2
0.0202	1546.5	2
0.04	1581	2.1
0.0539	1600.9	2.1
0.0822	1636.5	2.1
0.101	1643.7	2.1
0.1509	1654.7	2.2
0.2036	1641.7	2.3
0.3025	1587.3	2.6
0.4033	1532.3	2.9
0.5009	1488.5	3.2
0.5514	1470.9	3.4
0.6976	1418.8	4
0.7855	1392	4.4
0.889	1369.3	4.8
1	1341.7	5.4

System: 2-methoxyethan-1-ol + water; phases: Liquid
Fixed: Pressure, kPa = 101
Fixed: Temperature, K = 298.15
Property: Mass density, kg/m3 (Liquid); method: Pycnometric method
Mole fraction of 2-methoxyethan-1-ol	Mass density, kg/m3	uncertainty
0	999.704	0.905
0.0202	999.08	0.91
0.04	1001.08	0.91
0.0539	1002.4	0.91
0.0822	1004.71	0.93
0.101	1005.84	0.94
0.1509	1007.02	0.97
0.2036	1005.67	1.04
0.3025	999.82	1.24
0.4033	992.74	1.6
0.5009	985.91	2.09
0.5514	982.57	2.4
0.6976	974	3.51
0.7855	969.57	4.31
0.889	964.87	5.4
1	960.23	6.73

System: 2-ethoxyethan-1-ol + water; phases: Liquid
Fixed: Pressure, kPa = 101
Fixed: Temperature, K = 298.15
Property: Refractive index (Na D-line) (Liquid); method: ABBE:monoch
Mole fraction of 2-ethoxyethan-1-ol	Refractive index (Na D-line)	uncertainty
0	1.3325	0.0003
0.0092	1.3389	0.0003
0.0177	1.3415	0.0003
0.025	1.3442	0.0003
0.0502	1.3542	0.0003
0.0767	1.3628	0.0003
0.1024	1.3709	0.0003
0.183	1.3854	0.0004
0.299	1.394	0.0004
0.4058	1.3979	0.0005
0.5059	1.4012	0.0006
0.5996	1.4025	0.0007
0.706	1.4039	0.0008
0.8431	1.4046	0.0009
0.8716	1.4049	0.0009
1	1.4058	0.001

System: 2-ethoxyethan-1-ol + water; phases: Liquid
Fixed: Pressure, kPa = 101
Fixed: Temperature, K = 298.15
Property: Speed of sound, m/s (Liquid); method: Linear variable-path acoustic interferometer
Mole fraction of 2-ethoxyethan-1-ol	Speed of sound, m/s	uncertainty
0	1496.6	2
0.0092	1541.3	2
0.0177	1553.1	2
0.025	1575.6	2
0.0502	1626.9	2.1
0.0767	1649.6	2.1
0.1024	1646.5	2.1
0.183	1567.6	2.2
0.299	1517.4	2.5
0.4058	1458.1	2.8
0.5059	1415.2	3.2
0.5996	1385.7	3.6
0.706	1359.6	4
0.8431	1330.4	4.6
0.8716	1325.6	4.8
1	1302.5	5.4

System: 2-ethoxyethan-1-ol + water; phases: Liquid
Fixed: Pressure, kPa = 101
Fixed: Temperature, K = 298.15
Property: Mass density, kg/m3 (Liquid); method: Pycnometric method
Mole fraction of 2-ethoxyethan-1-ol	Mass density, kg/m3	uncertainty
0	999.704	0.905
0.0092	996.93	0.9
0.0177	997.02	0.9
0.025	997.2	0.9
0.0502	998.06	0.91
0.0767	998.24	0.92
0.1024	996.67	0.93
0.183	988.37	0.99
0.299	974.41	1.19
0.4058	963.11	1.54
0.5059	954.22	2.01
0.5996	947.01	2.57
0.706	940.07	3.35
0.8431	933.47	4.58
0.8716	932.35	4.87
1	925.39	6.27

System: 3,6-dioxa-1-octanol + water; phases: Liquid
Fixed: Pressure, kPa = 101
Fixed: Temperature, K = 298.15
Property: Refractive index (Na D-line) (Liquid); method: ABBE:monoch
Mole fraction of 3,6-dioxa-1-octanol	Refractive index (Na D-line)	uncertainty
0	1.3325	0.0003
0.013	1.3424	0.0003
0.025	1.3515	0.0003
0.05	1.3654	0.0003
0.06	1.3695	0.0003
0.076	1.376	0.0003
0.101	1.3837	0.0003
0.152	1.396	0.0003
0.202	1.4028	0.0004
0.302	1.4108	0.0004
0.402	1.414	0.0005
0.519	1.4198	0.0006
0.59	1.4203	0.0007
0.775	1.4228	0.0008
0.852	1.4235	0.0009
1	1.425	0.001

System: 3,6-dioxa-1-octanol + water; phases: Liquid
Fixed: Pressure, kPa = 101
Fixed: Temperature, K = 298.15
Property: Speed of sound, m/s (Liquid); method: Linear variable-path acoustic interferometer
Mole fraction of 3,6-dioxa-1-octanol	Speed of sound, m/s	uncertainty
0	1496.6	2
0.013	1562	2
0.025	1602	2.1
0.05	1656	2.1
0.06	1670.5	2.1
0.076	1670	2.1
0.101	1658	2.1
0.152	1621	2.2
0.202	1601.9	2.3
0.302	1549.5	2.5
0.402	1500	2.8
0.519	1460	3.3
0.59	1442	3.6
0.775	1412	4.3
0.852	1398	4.7
1	1378	5.4

System: 3,6-dioxa-1-octanol + water; phases: Liquid
Fixed: Pressure, kPa = 101
Fixed: Temperature, K = 298.15
Property: Mass density, kg/m3 (Liquid); method: Pycnometric method
Mole fraction of 3,6-dioxa-1-octanol	Mass density, kg/m3	uncertainty
0	999.704	0.905
0.013	1001.37	0.91
0.025	1005.93	0.91
0.05	1013.24	0.92
0.06	1015.27	0.93
0.076	1017.84	0.94
0.101	1020.05	0.95
0.152	1019.56	0.99
0.202	1017.51	1.05
0.302	1011.81	1.26
0.402	1005.59	1.63
0.519	999.21	2.26
0.59	996.2	2.75
0.775	990.78	4.39
0.852	988.76	5.22
1	984.6	7.07

System: 2-(2-methoxyethoxy)ethanol + water; phases: Liquid
Fixed: Pressure, kPa = 101
Fixed: Temperature, K = 298.15
Property: Refractive index (Na D-line) (Liquid); method: ABBE:monoch
Mole fraction of 2-(2-methoxyethoxy)ethanol	Refractive index (Na D-line)	uncertainty
0	1.333	0.001
0.013	1.341	0.001
0.026	1.349	0.001
0.051	1.36	0.001
0.064	1.366	0.001
0.074	1.37	0.001
0.101	1.378	0.001
0.15	1.39	0.001
0.187	1.396	0.001
0.305	1.408	0.001
0.401	1.412	0.001
0.506	1.415	0.001
0.646	1.418	0.001
0.766	1.419	0.001
0.895	1.422	0.001
1	1.425	0.001

System: 2-(2-methoxyethoxy)ethanol + water; phases: Liquid
Fixed: Pressure, kPa = 101
Fixed: Temperature, K = 298.15
Property: Speed of sound, m/s (Liquid); method: Linear variable-path acoustic interferometer
Mole fraction of 2-(2-methoxyethoxy)ethanol	Speed of sound, m/s	uncertainty
0	1496.6	2
0.013	1546	2
0.026	1582	2
0.051	1640	2.1
0.064	1646.7	2.1
0.074	1662	2.1
0.101	1674	2.2
0.15	1674	2.2
0.187	1660	2.3
0.305	1606	2.6
0.401	1562	2.9
0.506	1514	3.2
0.646	1474	3.8
0.766	1454	4.3
0.895	1442	4.9
1	1422.6	5.4

System: 2-(2-methoxyethoxy)ethanol + water; phases: Liquid
Fixed: Pressure, kPa = 101
Fixed: Temperature, K = 298.15
Property: Mass density, kg/m3 (Liquid); method: Pycnometric method
Mole fraction of 2-(2-methoxyethoxy)ethanol	Mass density, kg/m3	uncertainty
0	999.704	0.905
0.013	1002.42	0.91
0.026	1008.21	0.91
0.051	1017.19	0.93
0.064	1021.22	0.94
0.074	1023.92	0.94
0.101	1029.24	0.96
0.15	1034.64	1
0.187	1035.66	1.05
0.305	1034.8	1.31
0.401	1031.91	1.69
0.506	1028.25	2.29
0.646	1024.01	3.37
0.766	1021.27	4.55
0.895	1018.65	6.08
1	1016.95	7.53
