Measured thermophysical data. The standard molar enthalpy of formation, molar heat capacities, and thermal stability of anhydrous caffeine
Source: J. Chem. Thermodyn., 2007, 10.1016/j.jct.2006.05.009
Compound 1: carbon dioxide, CO2, InChI=1S/CO2/c2-1-3
Compound 2: nitrogen, N2, InChI=1S/N2/c1-2
Compound 3: water, H2O, InChI=1S/H2O/h1H2
Compound 4: oxygen, O2, InChI=1S/O2/c1-2
Compound 5: caffeine, C8H10N4O2, InChI=1S/C8H10N4O2/c1-10-4-9-6-5(10)7(13)12(3)8(14)11(6)2/h4H,1-3H3, purity 99.9%

System: caffeine; phases: Crystal 2, Crystal 1, Air at 1 atmosphere
Property: Molar enthalpy of transition or fusion, kJ/mol (Crystal 2); method: DSC:UFactor:4
Molar enthalpy of transition or fusion, kJ/mol	uncertainty
3.43	0.58

System: caffeine; phases: Crystal 1, Liquid, Air at 1 atmosphere
Property: Molar enthalpy of transition or fusion, kJ/mol (Crystal 1); method: DSC:UFactor:2
Molar enthalpy of transition or fusion, kJ/mol	uncertainty
19.86	0.92

System: caffeine; phases: Crystal 1, Liquid, Air at 1 atmosphere
Property: Triple point temperature, K (Crystal 1); method: DTA:UFactor:2
Triple point temperature, K	uncertainty
509	0.8

System: caffeine; phases: Crystal 2, Crystal 1, Air at 1 atmosphere
Property: Triple point temperature, K (Crystal 2); method: DTA:UFactor:2
Triple point temperature, K	uncertainty
413.39	0.77

System: caffeine; phases: Crystal 2
Fixed: Pressure, kPa = 101.325
Property: Molar heat capacity at constant pressure, J/K/mol (Crystal 2); method: SMALLAD:UFactor:3
Temperature, K	Molar heat capacity at constant pressure, J/K/mol	uncertainty
80.826	98.310316928	1.770982536
84.153	101.952055664	1.82918384
87.221	104.621001176	1.8707562
90.147	106.267266632	1.879070672
93.047	109.019356864	1.91232856
95.912	112.228743056	1.945586448
98.728	116.52732508	1.99547328
101.493	119.06323904	2.028731168
104.209	121.466121448	2.053674584
106.882	123.985406464	2.086932472
109.981	125.773017944	2.111875888
113.031	127.485799176	2.128504832
115.962	130.479009096	2.16176272
118.812	132.665715232	2.195020608
121.578	134.835792424	2.219964024
124.269	136.756435456	2.24490744
126.886	139.358865192	2.269850856
129.434	140.97187276	2.294794272
131.917	142.96734604	2.319737688
134.337	144.92124696	2.336366632
136.693	145.985499376	2.352995576
138.994	148.529727808	2.386253464
141.237	149.976445936	2.402882408
143.423	150.466999784	2.402882408
145.524	151.980233688	2.427825824
148.004	155.829834224	2.469398184
150.058	156.985545832	2.486027128
152.082	157.875194336	2.4943416
154.083	159.380113768	2.510970544
156.057	160.610655624	2.527599488
158.014	161.816254064	2.544228432
159.948	162.5479276	2.552542904
161.867	163.138255112	2.560857376
163.768	164.643174544	2.57748632
165.793	164.909237648	2.57748632
168.465	166.397528136	2.594115264
171.411	166.82988068	2.602429736
174.321	167.902447568	2.610744208
177.211	169.058159176	2.627373152
180.029	169.581970912	2.635687624
182.802	171.502613944	2.66063104
185.571	172.699897912	2.668945512
188.303	174.637169888	2.693888928
191.005	176.300064288	2.718832344
193.708	178.378682288	2.74377576
196.392	179.30158868	2.752090232
199.054	180.407413456	2.768719176
201.698	181.58806848	2.777033648
204.312	182.993214248	2.793662592
206.908	184.7891402	2.818606008
209.467	186.11945572	2.835234952
212.084	187.009104224	2.843549424
214.756	189.969056256	2.876807312
217.468	191.199598112	2.893436256
220.201	192.679574128	2.9100652
222.949	194.209436976	2.926694144
226.265	195.05751312	2.943323088
230.045	197.335678448	2.968266504
233.759	198.990258376	2.984895448
237.433	200.096083152	3.001524392
241.093	202.066613016	3.026467808
244.698	202.598739224	3.03478228
248.279	203.139179904	3.03478228
251.821	203.172437792	3.03478228
255.321	204.062086296	3.051411224
258.779	205.749924112	3.068040168
259.391	207.720453976	3.092983584
262.248	207.770340808	3.092983584
265.069	209.125599744	3.109612528
267.834	210.93815464	3.134555944
270.583	212.276784632	3.151184888
273.312	213.55721332	3.15949936
276.035	215.353139272	3.184442776
278.761	217.04929156	3.20107172
281.489	217.988826896	3.217700664
284.224	220.067444896	3.24264408
286.924	223.218629784	3.275901968
289.579	223.750755992	3.28421644
292.229	225.688027968	3.309159856
294.871	226.469588336	3.317474328
297.516	227.118117152	3.3257888
300.144	227.168003984	3.3257888
302.748	228.98055888	3.350732216
305.329	230.285930984	3.36736116
307.913	230.709969056	3.36736116
310.509	233.270826432	3.400619048
313.087	234.226990712	3.40893352
315.649	234.609456424	3.417247992
318.193	235.233041824	3.425562464
320.857	237.369861128	3.45050588
323.423	238.29276752	3.458820352
325.989	238.91635292	3.467134824
328.628	240.12195136	3.483763768
331.311	243.065274448	3.517021656
333.956	245.077376672	3.541965072
336.613	246.307918528	3.558594016
339.219	248.211932616	3.57522296
341.762	249.292813976	3.591851904
344.273	251.546035888	3.61679532
346.827	253.200615816	3.641738736
349.179	254.040377488	3.650053208
351.687	255.21271804	3.666682152
354.356	256.942128216	3.683311096
357.006	258.671538392	3.69994004
359.656	260.509036704	3.724883456
362.271	261.855981168	3.7415124
364.859	262.895290168	3.758141344
367.435	264.990537112	3.78308476
369.947	266.237707912	3.791399232
372.452	266.462198656	3.799713704
374.906	267.260387968	3.808028176
377.388	269.438779632	3.832971592
379.841	270.328428136	3.841286064
382.284	271.84166204	3.86622948
384.695	272.7146816	3.874543952
387.078	274.87644432	3.899487368

Reaction: -1 caffeine + 8 carbon dioxide + 2 nitrogen + 5 water + -9.5 oxygen
Property: Molar internal energy of reaction at constant volume, kJ/mol
-4256.32
