Measured thermophysical data. Acoustic, volumetric and osmotic properties of binary mixtures containing the ionic liquid 1-butyl-3-methylimidazolim dicyanamide mixed with primary and secondary alcohols
Source: J. Chem. Thermodyn., 2012, 10.1016/j.jct.2012.02.007
Compound 1: 1-butyl-3-methylimidazolium dicyanamide, C10H15N5, InChI=1S/C8H15N2.C2N3/c1-3-4-5-10-7-6-9(2)8-10;3-1-5-2-4/h6-8H,3-5H2,1-2H3;/q+1;-1, purity 98%
Compound 2: propan-1-ol, C3H8O, InChI=1S/C3H8O/c1-2-3-4/h4H,2-3H2,1H3, purity 99.9%
Compound 3: propan-2-ol, C3H8O, InChI=1S/C3H8O/c1-3(2)4/h3-4H,1-2H3, purity 99.8%
Compound 4: butan-1-ol, C4H10O, InChI=1S/C4H10O/c1-2-3-4-5/h5H,2-4H2,1H3, purity 99.9%
Compound 5: butan-2-ol, C4H10O, InChI=1S/C4H10O/c1-3-4(2)5/h4-5H,3H2,1-2H3, purity 99.8%
Compound 6: pentan-1-ol, C5H12O, InChI=1S/C5H12O/c1-2-3-4-5-6/h6H,2-5H2,1H3, purity 99%

System: 1-butyl-3-methylimidazolium dicyanamide; phases: Liquid
Fixed: Pressure, kPa = 101.325
Property: Speed of sound, m/s (Liquid); method: Sing-around technique in a fixed-path interferometer
Temperature, K	Speed of sound, m/s	uncertainty
293.15	1750.2	2.2
308.15	1712.6	2.2
323.15	1667.3	2.2

System: 1-butyl-3-methylimidazolium dicyanamide; phases: Liquid
Fixed: Pressure, kPa = 101.325
Property: Mass density, kg/m3 (Liquid); method: Vibrating tube method
Temperature, K	Mass density, kg/m3	uncertainty
293.15	1063.32	0.97
308.15	1053.81	0.95
323.15	1044.42	0.93

System: propan-1-ol; phases: Liquid
Fixed: Pressure, kPa = 101.325
Property: Speed of sound, m/s (Liquid); method: Sing-around technique in a fixed-path interferometer
Temperature, K	Speed of sound, m/s	uncertainty
293.15	1223.4	0.8
308.15	1172.3	0.8
323.15	1121.8	0.8

System: propan-1-ol; phases: Liquid
Fixed: Pressure, kPa = 101.325
Property: Mass density, kg/m3 (Liquid); method: Vibrating tube method
Temperature, K	Mass density, kg/m3	uncertainty
293.15	803.87	0.12
308.15	791.79	0.12
323.15	779.3	0.13

System: propan-2-ol; phases: Liquid
Fixed: Pressure, kPa = 101.325
Property: Speed of sound, m/s (Liquid); method: Sing-around technique in a fixed-path interferometer
Temperature, K	Speed of sound, m/s	uncertainty
293.15	1157.3	0.8
308.15	1104.8	0.8
323.15	1051.6	0.8

System: propan-2-ol; phases: Liquid
Fixed: Pressure, kPa = 101.325
Property: Mass density, kg/m3 (Liquid); method: Vibrating tube method
Temperature, K	Mass density, kg/m3	uncertainty
293.15	785.4	0.13
308.15	772.6	0.13
323.15	759	0.14

System: butan-1-ol; phases: Liquid
Fixed: Pressure, kPa = 101.325
Property: Speed of sound, m/s (Liquid); method: Sing-around technique in a fixed-path interferometer
Temperature, K	Speed of sound, m/s	uncertainty
293.15	1256.7	0.8
308.15	1206.5	0.8
323.15	1156.9	0.8

System: butan-1-ol; phases: Liquid
Fixed: Pressure, kPa = 101.325
Property: Mass density, kg/m3 (Liquid); method: Vibrating tube method
Temperature, K	Mass density, kg/m3	uncertainty
293.15	809.53	0.12
308.15	798.06	0.12
323.15	786.21	0.12

System: butan-2-ol; phases: Liquid
Fixed: Pressure, kPa = 101.325
Property: Speed of sound, m/s (Liquid); method: Sing-around technique in a fixed-path interferometer
Temperature, K	Speed of sound, m/s	uncertainty
293.15	1229.5	0.9
308.15	1175.5	0.8
323.15	1120.3	0.8

System: butan-2-ol; phases: Liquid
Fixed: Pressure, kPa = 101.325
Property: Mass density, kg/m3 (Liquid); method: Vibrating tube method
Temperature, K	Mass density, kg/m3	uncertainty
293.15	806.47	0.12
308.15	793.92	0.12
323.15	780.44	0.13

System: pentan-1-ol; phases: Liquid
Fixed: Pressure, kPa = 101.325
Property: Speed of sound, m/s (Liquid); method: Sing-around technique in a fixed-path interferometer
Temperature, K	Speed of sound, m/s	uncertainty
293.15	1292.5	1.3
308.15	1242.4	1.3
323.15	1192.8	1.3

System: pentan-1-ol; phases: Liquid
Fixed: Pressure, kPa = 101.325
Property: Mass density, kg/m3 (Liquid); method: Vibrating tube method
Temperature, K	Mass density, kg/m3	uncertainty
293.15	814.54	0.24
308.15	803.53	0.24
323.15	792.17	0.24

System: propan-1-ol + 1-butyl-3-methylimidazolium dicyanamide; phases: Liquid, Gas
Fixed: Temperature, K = 323.15
Property: Osmotic coefficient (Liquid); method: Vapor Pressure Osmometer
Molality, mol/kg of 1-butyl-3-methylimidazolium dicyanamide	Osmotic coefficient	uncertainty
0.0543	0.973	0.012
0.0899	0.898	0.013
0.1032	0.871	0.013
0.2057	0.816	0.014
0.3018	0.78	0.014
0.4097	0.748	0.015
0.5035	0.737	0.015
0.8276	0.714	0.016
1.2396	0.691	0.016
1.6404	0.668	0.017
2.0487	0.646	0.017
2.4495	0.634	0.018
2.8374	0.616	0.018
3.3237	0.599	0.019

System: propan-1-ol + 1-butyl-3-methylimidazolium dicyanamide; phases: Gas, Liquid
Fixed: Temperature, K = 323.15
Property: Vapor or sublimation pressure, kPa (Gas); method: Vapor Pressure Osmometer
Molality, mol/kg of 1-butyl-3-methylimidazolium dicyanamide	Vapor or sublimation pressure, kPa	uncertainty
0.0543	12.025	0.034
0.0899	11.985	0.034
0.1032	11.971	0.034
0.2057	11.859	0.034
0.3018	11.762	0.034
0.4097	11.661	0.034
0.5035	11.57	0.034
0.8276	11.267	0.033
1.2396	10.91	0.032
1.6404	10.599	0.032
2.0487	10.31	0.031
2.4495	10.029	0.031
2.8374	9.795	0.03
3.3237	9.512	0.03

System: propan-1-ol + 1-butyl-3-methylimidazolium dicyanamide; phases: Liquid
Fixed: Pressure, kPa = 101.3
Property: Speed of sound, m/s (Liquid); method: Sing-around technique in a fixed-path interferometer
Temperature, K	Molality, mol/kg of 1-butyl-3-methylimidazolium dicyanamide	Speed of sound, m/s	uncertainty
293.15	0.0646	1229.5	0.8
293.15	0.1004	1232.4	0.8
293.15	0.154	1236.7	0.9
293.15	0.2041	1240.4	0.9
293.15	0.2521	1243.9	0.9
293.15	0.5071	1261.1	0.9
293.15	0.7606	1277.2	0.9
293.15	1.0122	1292.2	1
293.15	1.2626	1306.2	1
293.15	1.5124	1319.4	1
293.15	1.7648	1331.8	1.1
293.15	2.017	1343.6	1.1
293.15	2.5204	1365.8	1.1
293.15	2.8259	1377.8	1.2
293.15	3.4879	1401.8	1.3
308.15	0.0646	1178.7	0.8
308.15	0.1004	1181.7	0.8
308.15	0.154	1186.2	0.8
308.15	0.2041	1190	0.8
308.15	0.2521	1193.4	0.9
308.15	0.5071	1211.6	0.9
308.15	0.7606	1228.3	0.9
308.15	1.0122	1243.8	0.9
308.15	1.2626	1258.2	1
308.15	1.5124	1271.9	1
308.15	1.7648	1284.7	1
308.15	2.017	1297	1.1
308.15	2.5204	1319.7	1.1
308.15	2.8259	1332.3	1.2
308.15	3.4879	1357.1	1.2
323.15	0.0646	1128.5	0.8
323.15	0.1004	1131.7	0.8
323.15	0.154	1136.4	0.8
323.15	0.2041	1140.4	0.8
323.15	0.2521	1143.8	0.8
323.15	0.5071	1162.8	0.9
323.15	0.7606	1180.1	0.9
323.15	1.0122	1196.2	0.9
323.15	1.2626	1211.2	1
323.15	1.5124	1225.3	1
323.15	1.7648	1238.6	1
323.15	2.017	1251.3	1.1
323.15	2.5204	1274.6	1.1
323.15	2.8259	1287.8	1.2
323.15	3.4879	1313.3	1.2

System: propan-1-ol + 1-butyl-3-methylimidazolium dicyanamide; phases: Liquid
Fixed: Pressure, kPa = 101.3
Property: Mass density, kg/m3 (Liquid); method: Vibrating tube method
Temperature, K	Molality, mol/kg of 1-butyl-3-methylimidazolium dicyanamide	Mass density, kg/m3	uncertainty
293.15	0.0646	807.07	0.12
293.15	0.1004	808.7	0.12
293.15	0.154	811.09	0.12
293.15	0.2041	813.27	0.12
293.15	0.2521	815.21	0.12
293.15	0.5071	825.41	0.12
293.15	0.7606	834.72	0.12
293.15	1.0122	843.22	0.12
293.15	1.2626	851.11	0.13
293.15	1.5124	858.43	0.13
293.15	1.7648	865.25	0.14
293.15	2.017	871.65	0.15
293.15	2.5204	883.38	0.16
293.15	2.8259	889.83	0.17
293.15	3.4879	902.23	0.2
308.15	0.0646	795.05	0.12
308.15	0.1004	796.71	0.12
308.15	0.154	799.15	0.12
308.15	0.2041	801.36	0.12
308.15	0.2521	803.31	0.12
308.15	0.5071	813.67	0.12
308.15	0.7606	823.09	0.12
308.15	1.0122	831.69	0.13
308.15	1.2626	839.67	0.13
308.15	1.5124	847.07	0.14
308.15	1.7648	853.97	0.14
308.15	2.017	860.45	0.15
308.15	2.5204	872.29	0.17
308.15	2.8259	878.84	0.18
308.15	3.4879	891.37	0.2
323.15	0.0646	782.64	0.12
323.15	0.1004	784.35	0.12
323.15	0.154	786.83	0.12
323.15	0.2041	789.09	0.12
323.15	0.2521	791.08	0.12
323.15	0.5071	801.63	0.13
323.15	0.7606	811.21	0.13
323.15	1.0122	819.94	0.13
323.15	1.2626	828.03	0.13
323.15	1.5124	835.54	0.14
323.15	1.7648	842.54	0.15
323.15	2.017	849.11	0.15
323.15	2.5204	861.11	0.17
323.15	2.8259	867.75	0.18
323.15	3.4879	880.45	0.2

System: propan-2-ol + 1-butyl-3-methylimidazolium dicyanamide; phases: Liquid, Gas
Fixed: Temperature, K = 323.15
Property: Osmotic coefficient (Liquid); method: Vapor Pressure Osmometer
Molality, mol/kg of 1-butyl-3-methylimidazolium dicyanamide	Osmotic coefficient	uncertainty
0.0572	0.973	0.012
0.0884	0.925	0.012
0.1125	0.905	0.012
0.2169	0.838	0.013
0.3275	0.795	0.014
0.4213	0.77	0.015
0.5065	0.757	0.015
0.8172	0.712	0.016
1.1532	0.682	0.016
1.5997	0.665	0.017
2.0492	0.641	0.017
2.416	0.619	0.018
2.8627	0.592	0.019
3.3144	0.565	0.02

System: propan-2-ol + 1-butyl-3-methylimidazolium dicyanamide; phases: Gas, Liquid
Fixed: Temperature, K = 323.15
Property: Vapor or sublimation pressure, kPa (Gas); method: Vapor Pressure Osmometer
Molality, mol/kg of 1-butyl-3-methylimidazolium dicyanamide	Vapor or sublimation pressure, kPa	uncertainty
0.0572	23.431	0.06
0.0884	23.357	0.06
0.1125	23.3	0.06
0.2169	23.074	0.059
0.3275	22.854	0.059
0.4213	22.676	0.058
0.5065	22.512	0.058
0.8172	21.974	0.057
1.1532	21.433	0.056
1.5997	20.721	0.054
2.0492	20.103	0.053
2.416	19.663	0.052
2.8627	19.189	0.051
3.3144	18.781	0.05

System: propan-2-ol + 1-butyl-3-methylimidazolium dicyanamide; phases: Liquid
Fixed: Pressure, kPa = 101.3
Property: Speed of sound, m/s (Liquid); method: Sing-around technique in a fixed-path interferometer
Temperature, K	Molality, mol/kg of 1-butyl-3-methylimidazolium dicyanamide	Speed of sound, m/s	uncertainty
293.15	0.0497	1163.1	0.8
293.15	0.1012	1167.4	0.9
293.15	0.1541	1171.9	0.9
293.15	0.2003	1175.6	0.9
293.15	0.2521	1179.7	0.9
293.15	0.5105	1199.3	0.9
293.15	0.7616	1216.7	0.9
293.15	1.0164	1233.3	1
293.15	1.2635	1248.4	1
293.15	1.5234	1263.4	1.1
293.15	1.7841	1278	1.1
293.15	2.0221	1289.6	1.1
293.15	2.5189	1312.7	1.2
293.15	3.0136	1333.7	1.2
293.15	3.5529	1356	1
308.15	0.0497	1110.6	0.8
308.15	0.1012	1115.4	0.8
308.15	0.1541	1120.2	0.8
308.15	0.2003	1124.1	0.9
308.15	0.2521	1128.4	0.9
308.15	0.5105	1148.9	0.9
308.15	0.7616	1167	0.9
308.15	1.0164	1184.4	1
308.15	1.2635	1200	1
308.15	1.5234	1215.6	1
308.15	1.7841	1230.6	1.1
308.15	2.0221	1242.8	1.1
308.15	2.5189	1266.6	1.2
308.15	3.0136	1288.3	1.2
308.15	3.5529	1311.2	1.3
323.15	0.0497	1057.6	0.8
323.15	0.1012	1062.8	0.8
323.15	0.1541	1067.8	0.8
323.15	0.2003	1072	0.8
323.15	0.2521	1076.6	0.9
323.15	0.5105	1098.1	0.9
323.15	0.7616	1117.1	0.9
323.15	1.0164	1135.3	1
323.15	1.2635	1151.6	1
323.15	1.5234	1167.9	1
323.15	1.7841	1183.3	1.1
323.15	2.0221	1196.1	1.1
323.15	2.5189	1220.9	1.2
323.15	3.0136	1243.4	1.2
323.15	3.5529	1267	1.3

System: propan-2-ol + 1-butyl-3-methylimidazolium dicyanamide; phases: Liquid
Fixed: Pressure, kPa = 101.3
Property: Mass density, kg/m3 (Liquid); method: Vibrating tube method
Temperature, K	Molality, mol/kg of 1-butyl-3-methylimidazolium dicyanamide	Mass density, kg/m3	uncertainty
293.15	0.0497	788.07	0.13
293.15	0.1012	790.54	0.13
293.15	0.1541	793.01	0.13
293.15	0.2003	795.12	0.13
293.15	0.2521	797.4	0.13
293.15	0.5105	808.27	0.13
293.15	0.7616	817.89	0.13
293.15	1.0164	826.92	0.14
293.15	1.2635	835.03	0.14
293.15	1.5234	843.01	0.15
293.15	1.7841	850.52	0.16
293.15	2.0221	856.61	0.16
293.15	2.5189	868.38	0.18
293.15	3.0136	878.91	0.2
293.15	3.5529	889.91	0.22
308.15	0.0497	775.35	0.13
308.15	0.1012	777.9	0.13
308.15	0.1541	780.44	0.13
308.15	0.2003	782.61	0.13
308.15	0.2521	784.94	0.13
308.15	0.5105	796.04	0.13
308.15	0.7616	805.84	0.14
308.15	1.0164	815.02	0.14
308.15	1.2635	823.26	0.15
308.15	1.5234	831.36	0.15
308.15	1.7841	838.97	0.16
308.15	2.0221	845.16	0.17
308.15	2.5189	857.09	0.18
308.15	3.0136	867.77	0.2
308.15	3.5529	878.92	0.22
323.15	0.0497	761.85	0.13
323.15	0.1012	764.5	0.1
323.15	0.1541	767.13	0.13
323.15	0.2003	769.37	0.13
323.15	0.2521	771.79	0.13
323.15	0.5105	783.22	0.14
323.15	0.7616	793.27	0.14
323.15	1.0164	802.67	0.14
323.15	1.2635	811.1	0.2
323.15	1.5234	819.36	0.15
323.15	1.7841	827.12	0.16
323.15	2.0221	833.43	0.17
323.15	2.5189	845.59	0.19
323.15	3.0136	856.45	0.2
323.15	3.5529	867.79	0.22

System: butan-1-ol + 1-butyl-3-methylimidazolium dicyanamide; phases: Liquid, Gas
Fixed: Temperature, K = 323.15
Property: Osmotic coefficient (Liquid); method: Vapor Pressure Osmometer
Molality, mol/kg of 1-butyl-3-methylimidazolium dicyanamide	Osmotic coefficient	uncertainty
0.0803	0.739	0.015
0.1014	0.707	0.016
0.2018	0.653	0.017
0.31	0.625	0.018
0.4166	0.604	0.018
0.5175	0.594	0.019
0.8182	0.585	0.019
1.2207	0.564	0.02
1.6328	0.551	0.02
2.0261	0.536	0.02
2.4135	0.528	0.021
2.8197	0.522	0.021
3.3061	0.508	0.021

System: butan-1-ol + 1-butyl-3-methylimidazolium dicyanamide; phases: Gas, Liquid
Fixed: Temperature, K = 323.15
Property: Vapor or sublimation pressure, kPa (Gas); method: Vapor Pressure Osmometer
Molality, mol/kg of 1-butyl-3-methylimidazolium dicyanamide	Vapor or sublimation pressure, kPa	uncertainty
0.0803	4.436	0.023
0.1014	4.428	0.023
0.2018	4.389	0.022
0.31	4.348	0.022
0.4166	4.311	0.022
0.5175	4.275	0.022
0.8182	4.167	0.022
1.2207	4.039	0.022
1.6328	3.914	0.022
2.0261	3.806	0.022
2.4135	3.701	0.022
2.8197	3.594	0.022
3.3061	3.485	0.022

System: butan-1-ol + 1-butyl-3-methylimidazolium dicyanamide; phases: Liquid
Fixed: Pressure, kPa = 101.3
Property: Speed of sound, m/s (Liquid); method: Sing-around technique in a fixed-path interferometer
Temperature, K	Molality, mol/kg of 1-butyl-3-methylimidazolium dicyanamide	Speed of sound, m/s	uncertainty
293.15	0.0564	1261.4	0.9
293.15	0.1049	1264.8	0.9
293.15	0.156	1268.3	0.9
293.15	0.204	1271.7	0.9
293.15	0.2581	1275.2	0.9
293.15	0.5068	1290.3	0.9
293.15	0.7637	1304.9	0.9
293.15	1.0065	1317.6	1
293.15	1.2711	1330.6	1
293.15	1.5164	1341.9	1
293.15	1.7657	1352.9	1.1
293.15	2.0042	1362.9	1.1
293.15	2.5094	1382.3	1.1
293.15	2.9929	1399.5	1.2
293.15	3.5355	1416.7	1.3
308.15	0.0564	1211.3	0.8
308.15	0.1049	1214.9	0.8
308.15	0.156	1218.6	0.8
308.15	0.204	1222	0.9
308.15	0.2581	1225.8	0.9
308.15	0.5068	1241.6	0.9
308.15	0.7637	1256.7	0.9
308.15	1.0065	1270	0.9
308.15	1.2711	1283.5	1
308.15	1.5164	1295.3	1
308.15	1.7657	1306.7	1
308.15	2.0042	1317.1	1.1
308.15	2.5094	1337.5	1.1
308.15	2.9929	1355.1	1.2
308.15	3.5355	1373	1.3
323.15	0.0564	1161.9	0.8
323.15	0.1049	1165.8	0.8
323.15	0.156	1169.6	0.8
323.15	0.204	1173.1	0.8
323.15	0.2581	1177.1	0.8
323.15	0.5068	1193.7	0.9
323.15	0.7637	1209.3	0.9
323.15	1.0065	1223.2	0.9
323.15	1.2711	1237.4	1
323.15	1.5164	1249.7	1
323.15	1.7657	1261.6	1
323.15	2.0042	1272.3	1.1
323.15	2.5094	1293.4	1.1
323.15	2.9929	1311.7	1.2
323.15	3.5355	1330.2	1.2

System: butan-1-ol + 1-butyl-3-methylimidazolium dicyanamide; phases: Liquid
Fixed: Pressure, kPa = 101.3
Property: Mass density, kg/m3 (Liquid); method: Vibrating tube method
Temperature, K	Molality, mol/kg of 1-butyl-3-methylimidazolium dicyanamide	Mass density, kg/m3	uncertainty
293.15	0.0564	812.2	0.12
293.15	0.1049	814.3	0.12
293.15	0.156	816.47	0.12
293.15	0.204	818.49	0.12
293.15	0.2581	820.7	0.12
293.15	0.5068	830.31	0.12
293.15	0.7637	839.41	0.12
293.15	1.0065	847.36	0.12
293.15	1.2711	855.38	0.13
293.15	1.5164	862.28	0.13
293.15	1.7657	868.85	0.14
293.15	2.0042	874.76	0.15
293.15	2.5094	886.17	0.16
293.15	2.9929	895.87	0.18
293.15	3.5355	905.44	0.2
308.15	0.0564	800.77	0.12
308.15	0.1049	802.91	0.12
308.15	0.156	805.11	0.12
308.15	0.204	807.15	0.12
308.15	0.2581	809.41	0.12
308.15	0.5068	819.12	0.12
308.15	0.7637	828.32	0.12
308.15	1.0065	836.34	0.13
308.15	1.2711	844.45	0.13
308.15	1.5164	851.41	0.14
308.15	1.7657	858.05	0.14
308.15	2.0042	864.01	0.15
308.15	2.5094	875.53	0.16
308.15	2.9929	885.33	0.18
308.15	3.5355	895.01	0.2
323.15	0.0564	788.99	0.12
323.15	0.1049	791.18	0.12
323.15	0.156	793.43	0.12
323.15	0.204	795.51	0.12
323.15	0.2581	797.8	0.12
323.15	0.5068	807.68	0.12
323.15	0.7637	817.01	0.13
323.15	1.0065	825.14	0.13
323.15	1.2711	833.35	0.13
323.15	1.5164	840.4	0.14
323.15	1.7657	847.12	0.14
323.15	2.0042	853.15	0.15
323.15	2.5094	864.81	0.17
323.15	2.9929	874.72	0.18
323.15	3.5355	884.51	0.2

System: butan-2-ol + 1-butyl-3-methylimidazolium dicyanamide; phases: Liquid, Gas
Fixed: Temperature, K = 323.15
Property: Osmotic coefficient (Liquid); method: Vapor Pressure Osmometer
Molality, mol/kg of 1-butyl-3-methylimidazolium dicyanamide	Osmotic coefficient	uncertainty
0.0525	0.893	0.013
0.0792	0.826	0.014
0.0995	0.811	0.014
0.2159	0.76	0.015
0.3148	0.715	0.016
0.4003	0.687	0.016
0.5143	0.653	0.017
0.8478	0.592	0.019
1.2407	0.556	0.02
1.6388	0.538	0.02
2.0377	0.524	0.021
2.4389	0.517	0.021
2.8416	0.502	0.021
3.3072	0.492	0.022

System: butan-2-ol + 1-butyl-3-methylimidazolium dicyanamide; phases: Gas, Liquid
Fixed: Temperature, K = 323.15
Property: Vapor or sublimation pressure, kPa (Gas); method: Vapor Pressure Osmometer
Molality, mol/kg of 1-butyl-3-methylimidazolium dicyanamide	Vapor or sublimation pressure, kPa	uncertainty
0.0525	10.56	0.032
0.0792	10.53	0.032
0.0995	10.506	0.032
0.2159	10.376	0.032
0.3148	10.282	0.032
0.4003	10.205	0.032
0.5143	10.112	0.032
0.8478	9.864	0.031
1.2407	9.59	0.031
1.6388	9.318	0.03
2.0377	9.063	0.03
2.4389	8.804	0.029
2.8416	8.589	0.029
3.3072	8.336	0.028

System: butan-2-ol + 1-butyl-3-methylimidazolium dicyanamide; phases: Liquid
Fixed: Pressure, kPa = 101.3
Property: Speed of sound, m/s (Liquid); method: Sing-around technique in a fixed-path interferometer
Temperature, K	Molality, mol/kg of 1-butyl-3-methylimidazolium dicyanamide	Speed of sound, m/s	uncertainty
293.15	0.0516	1234.5	0.9
293.15	0.1009	1238.1	0.9
293.15	0.1501	1241.8	0.9
293.15	0.2081	1246	0.9
293.15	0.2579	1249.3	0.9
293.15	0.5079	1265.7	0.9
293.15	0.7631	1281.1	1
293.15	1.0156	1295.3	1
293.15	1.2668	1308.6	1
293.15	1.5166	1321.1	1.1
293.15	1.7824	1333.7	1.1
293.15	1.9503	1341.3	1.1
293.15	2.5233	1365.1	1.2
293.15	3.5596	1401.6	1.3
308.15	0.0516	1180.7	0.9
308.15	0.1009	1184.9	0.9
308.15	0.1501	1188.8	0.9
308.15	0.2081	1193.3	0.9
308.15	0.2579	1197.1	0.9
308.15	0.5079	1214.4	0.9
308.15	0.7631	1230.8	0.9
308.15	1.0156	1245.9	1
308.15	1.2668	1260	1
308.15	1.5166	1273	1.1
308.15	1.7824	1286.2	1.1
308.15	1.9503	1294.2	1.1
308.15	2.5233	1319.1	1.2
308.15	3.5596	1356.4	1.3
323.15	0.0516	1125.7	0.8
323.15	0.1009	1130.4	0.8
323.15	0.1501	1134.6	0.9
323.15	0.2081	1139.5	0.9
323.15	0.2579	1143.6	0.9
323.15	0.5079	1162.3	0.9
323.15	0.7631	1179.8	0.9
323.15	1.0156	1195.9	1
323.15	1.2668	1210.9	1
323.15	1.5166	1224.8	1
323.15	1.7824	1238.7	1.1
323.15	1.9503	1247	1.1
323.15	2.5233	1273.2	1.2
323.15	3.5596	1312.5	1.3

System: butan-2-ol + 1-butyl-3-methylimidazolium dicyanamide; phases: Liquid
Fixed: Pressure, kPa = 101.3
Property: Mass density, kg/m3 (Liquid); method: Vibrating tube method
Temperature, K	Molality, mol/kg of 1-butyl-3-methylimidazolium dicyanamide	Mass density, kg/m3	uncertainty
293.15	0.0516	809.04	0.12
293.15	0.1009	811.17	0.12
293.15	0.1501	813.3	0.12
293.15	0.2081	815.7	0.12
293.15	0.2579	817.76	0.12
293.15	0.5079	827.23	0.12
293.15	0.7631	836.25	0.13
293.15	1.0156	844.37	0.13
293.15	1.2668	851.96	0.14
293.15	1.5166	858.95	0.14
293.15	1.7824	865.94	0.15
293.15	1.9503	870.16	0.16
293.15	2.5233	883.17	0.18
293.15	3.5596	902.51	0.22
308.15	0.0516	796.59	0.12
308.15	0.1009	798.81	0.12
308.15	0.1501	801.01	0.12
308.15	0.2081	803.5	0.12
308.15	0.2579	805.61	0.12
308.15	0.5079	815.35	0.13
308.15	0.7631	824.57	0.13
308.15	1.0156	832.86	0.14
308.15	1.2668	840.59	0.14
308.15	1.5166	847.71	0.15
308.15	1.7824	854.81	0.16
308.15	1.9503	859.09	0.16
308.15	2.5233	872.28	0.18
308.15	3.5596	891.67	0.22
323.15	0.0516	783.23	0.13
323.15	0.1009	785.57	0.13
323.15	0.1501	787.88	0.13
323.15	0.2081	790.47	0.13
323.15	0.2579	792.68	0.13
323.15	0.5079	802.8	0.1
323.15	0.7631	812.32	0.13
323.15	1.0156	820.86	0.14
323.15	1.2668	828.79	0.14
323.15	1.5166	836.09	0.15
323.15	1.7824	843.35	0.16
323.15	1.9503	847.71	0.16
323.15	2.5233	861.18	0.18
323.15	3.5596	880.92	0.22

System: pentan-1-ol + 1-butyl-3-methylimidazolium dicyanamide; phases: Liquid, Gas
Fixed: Temperature, K = 323.15
Property: Osmotic coefficient (Liquid); method: Vapor Pressure Osmometer
Molality, mol/kg of 1-butyl-3-methylimidazolium dicyanamide	Osmotic coefficient	uncertainty
0.0625	0.784	0.014
0.0829	0.719	0.016
0.1019	0.669	0.017
0.2131	0.627	0.018
0.3093	0.596	0.019
0.4113	0.582	0.019
0.5349	0.566	0.019
0.8273	0.537	0.02
1.1309	0.52	0.021
1.4433	0.509	0.021
1.7486	0.502	0.021
2.2458	0.493	0.022
2.7556	0.478	0.022
3.2296	0.458	0.023

System: pentan-1-ol + 1-butyl-3-methylimidazolium dicyanamide; phases: Gas, Liquid
Fixed: Temperature, K = 323.15
Property: Vapor or sublimation pressure, kPa (Gas); method: Vapor Pressure Osmometer
Molality, mol/kg of 1-butyl-3-methylimidazolium dicyanamide	Vapor or sublimation pressure, kPa	uncertainty
0.0625	1.629	0.021
0.0829	1.625	0.021
0.1019	1.623	0.021
0.2131	1.604	0.021
0.3093	1.59	0.021
0.4113	1.575	0.021
0.5349	1.557	0.021
0.8273	1.519	0.021
1.1309	1.481	0.021
1.4433	1.443	0.021
1.7486	1.406	0.02
2.2458	1.351	0.02
2.7556	1.301	0.02
3.2296	1.265	0.02

System: pentan-1-ol + 1-butyl-3-methylimidazolium dicyanamide; phases: Liquid
Fixed: Pressure, kPa = 101.3
Property: Speed of sound, m/s (Liquid); method: Sing-around technique in a fixed-path interferometer
Temperature, K	Molality, mol/kg of 1-butyl-3-methylimidazolium dicyanamide	Speed of sound, m/s	uncertainty
293.15	0.0499	1296.1	1.3
293.15	0.1005	1299.3	1.3
293.15	0.1579	1302.8	1.3
293.15	0.2012	1305.5	1.3
293.15	0.2575	1308.7	1.4
293.15	0.5093	1322.3	1.4
293.15	0.7636	1334.4	1.4
293.15	1.0216	1346.7	1.5
293.15	1.2713	1357	1.5
293.15	1.5205	1367.7	1.5
293.15	1.7662	1377	1.5
293.15	1.9819	1385	1.6
293.15	2.5267	1403.6	1.6
293.15	2.9977	1418.4	1.6
293.15	3.5122	1432.6	1.7
308.15	0.0499	1246.2	1.3
308.15	0.1005	1249.5	1.3
308.15	0.1579	1253.2	1.3
308.15	0.2012	1256	1.3
308.15	0.2575	1259.4	1.3
308.15	0.5093	1273.7	1.4
308.15	0.7636	1286.4	1.4
308.15	1.0216	1299.3	1.5
308.15	1.2713	1310.2	1.5
308.15	1.5205	1321.4	1.5
308.15	1.7662	1331.2	1.5
308.15	1.9819	1339.5	1.6
308.15	2.5267	1358.9	1.6
308.15	2.9977	1374.3	1.6
308.15	3.5122	1389.6	1.7
323.15	0.0499	1196.7	1.3
323.15	0.1005	1200.3	1.3
323.15	0.1579	1204.2	1.3
323.15	0.2012	1207.2	1.3
323.15	0.2575	1210.8	1.3
323.15	0.5093	1225.8	1.4
323.15	0.7636	1238.6	1.4
323.15	1.0216	1252.8	1.4
323.15	1.2713	1263.7	1.5
323.15	1.5205	1275.9	1.5
323.15	1.7662	1286.1	1.5
323.15	1.9819	1294.8	1.5
323.15	2.5267	1315.1	1.6
323.15	2.9977	1331.1	1.6
323.15	3.5122	1347	1.7

System: pentan-1-ol + 1-butyl-3-methylimidazolium dicyanamide; phases: Liquid
Fixed: Pressure, kPa = 101.3
Property: Mass density, kg/m3 (Liquid); method: Vibrating tube method
Temperature, K	Molality, mol/kg of 1-butyl-3-methylimidazolium dicyanamide	Mass density, kg/m3	uncertainty
293.15	0.0499	816.84	0.24
293.15	0.1005	818.99	0.24
293.15	0.1579	821.34	0.24
293.15	0.2012	823.14	0.25
293.15	0.2575	825.39	0.25
293.15	0.5093	834.72	0.26
293.15	0.7636	843.46	0.27
293.15	1.0216	851.58	0.29
293.15	1.2713	858.96	0.3
293.15	1.5205	865.82	0.31
293.15	1.7662	872.07	0.32
293.15	1.9819	877.32	0.33
293.15	2.5267	889.3	0.36
293.15	2.9977	898.47	0.38
293.15	3.5122	907.39	0.4
308.15	0.0499	805.86	0.24
308.15	0.1005	808.05	0.24
308.15	0.1579	810.43	0.24
308.15	0.2012	812.25	0.25
308.15	0.2575	814.53	0.25
308.15	0.5093	823.96	0.26
308.15	0.7636	832.73	0.27
308.15	1.0216	840.96	0.29
308.15	1.2713	848.35	0.3
308.15	1.5205	855.32	0.31
308.15	1.7662	861.65	0.32
308.15	1.9819	866.91	0.33
308.15	2.5267	878.99	0.36
308.15	2.9977	888.26	0.37
308.15	3.5122	897.32	0.39
323.15	0.0499	794.56	0.24
323.15	0.1005	796.79	0.24
323.15	0.1579	799.21	0.24
323.15	0.2012	801.07	0.25
323.15	0.2575	803.38	0.25
323.15	0.5093	812.96	0.26
323.15	0.7636	821.84	0.27
323.15	1.0216	830.18	0.29
323.15	1.2713	837.65	0.3
323.15	1.5205	844.69	0.31
323.15	1.7662	851.09	0.32
323.15	1.9819	856.41	0.33
323.15	2.5267	868.61	0.35
323.15	2.9977	877.98	0.37
323.15	3.5122	887.14	0.39
