Measured thermophysical data. Construction and evaluation of ternary solid-liquid phase diagram of pyraclostrobin (form IV) and its intermediate in ethanol and N,N-dimethylformamide
Source: J. Chem. Thermodyn., 2019, 10.1016/j.jct.2018.07.025
Compound 1: Pyraclostrobin, C19H18ClN3O4, InChI=1S/C19H18ClN3O4/c1-25-19(24)23(26-2)17-6-4-3-5-14(17)13-27-18-11-12-22(21-18)16-9-7-15(20)8-10-16/h3-12H,13H2,1-2H3, purity 99.5%
Compound 2: methyl (2-(((1-(4-chlorophenyl)-1H-pyrazol-3-yl)oxy)methyl)phenyl)(hydroxy)carbamate, C18H16ClN3O4, InChI=1S/C18H16ClN3O4/c1-25-18(23)22(24)16-5-3-2-4-13(16)12-26-17-10-11-21(20-17)15-8-6-14(19)7-9-15/h2-11,24H,12H2,1H3, purity 99.4%
Compound 3: ethanol, C2H6O, InChI=1S/C2H6O/c1-2-3/h3H,2H2,1H3
Compound 4: dimethylformamide, C3H7NO, InChI=1S/C3H7NO/c1-4(2)3-5/h3H,1-2H3

System: Pyraclostrobin; phases: Crystal, Liquid, Air at 1 atmosphere
Property: Normal melting temperature, K (Crystal); method: DTA
Normal melting temperature, K	uncertainty
333.75	1.06

System: Pyraclostrobin; phases: Crystal, Liquid, Air at 1 atmosphere
Property: Molar enthalpy of transition or fusion, kJ/mol (Crystal); method: DSC
Molar enthalpy of transition or fusion, kJ/mol	uncertainty
30.2	1

System: methyl (2-(((1-(4-chlorophenyl)-1H-pyrazol-3-yl)oxy)methyl)phenyl)(hydroxy)carbamate; phases: Crystal, Liquid, Air at 1 atmosphere
Property: Normal melting temperature, K (Crystal); method: DTA
Normal melting temperature, K	uncertainty
416.45	1.06

System: methyl (2-(((1-(4-chlorophenyl)-1H-pyrazol-3-yl)oxy)methyl)phenyl)(hydroxy)carbamate; phases: Crystal, Liquid, Air at 1 atmosphere
Property: Molar enthalpy of transition or fusion, kJ/mol (Crystal); method: DSC
Molar enthalpy of transition or fusion, kJ/mol	uncertainty
51.55	1.27

System: Pyraclostrobin + ethanol; phases: Liquid, Crystal
Fixed: Pressure, kPa = 101.2
Property: Mole fraction of Pyraclostrobin (Liquid); method: Chromatography
Temperature, K	Mole fraction of Pyraclostrobin	uncertainty
293.15	0.01027	0.00044
298.15	0.01702	0.00072
303.15	0.02725	0.00115
308.15	0.04279	0.00181
313.15	0.06524	0.00275
318.15	0.09769	0.00412
323.15	0.1512	0.0064

System: Pyraclostrobin + ethanol; phases: Liquid, Crystal
Fixed: Pressure, kPa = 101.2
Property: Mass fraction of Pyraclostrobin (Liquid); method: Chromatography
Temperature, K	Mass fraction of Pyraclostrobin	uncertainty
293.15	0.0803	0.00468
303.15	0.1908	0.0111
313.15	0.3701	0.0215

System: Pyraclostrobin + dimethylformamide; phases: Liquid, Crystal
Fixed: Pressure, kPa = 101.2
Property: Mole fraction of Pyraclostrobin (Liquid); method: Chromatography
Temperature, K	Mole fraction of Pyraclostrobin	uncertainty
293.15	0.0365	0.00154
298.15	0.05156	0.00217
303.15	0.0711	0.00299
308.15	0.09475	0.00399
313.15	0.1267	0.0053
318.15	0.1671	0.007
323.15	0.2251	0.0095

System: Pyraclostrobin + dimethylformamide; phases: Liquid, Crystal
Fixed: Pressure, kPa = 101.2
Property: Mass fraction of Pyraclostrobin (Liquid); method: Chromatography
Temperature, K	Mass fraction of Pyraclostrobin	uncertainty
293.15	0.1674	0.0111
303.15	0.2888	0.0191
313.15	0.4349	0.0287

System: methyl (2-(((1-(4-chlorophenyl)-1H-pyrazol-3-yl)oxy)methyl)phenyl)(hydroxy)carbamate + ethanol; phases: Liquid, Crystal
Fixed: Pressure, kPa = 101.2
Property: Mole fraction of methyl (2-(((1-(4-chlorophenyl)-1H-pyrazol-3-yl)oxy)methyl)phenyl)(hydroxy)carbamate (Liquid); method: Chromatography
Temperature, K	Mole fraction of methyl (2-(((1-(4-chlorophenyl)-1H-pyrazol-3-yl)oxy)methyl)phenyl)(hydroxy)carbamate	uncertainty
293.15	0.003168	0.000133
298.15	0.003852	0.000162
303.15	0.005161	0.000217
308.15	0.006441	0.000271
313.15	0.007914	0.000333
318.15	0.009557	0.000402
323.15	0.01127	0.00047

System: methyl (2-(((1-(4-chlorophenyl)-1H-pyrazol-3-yl)oxy)methyl)phenyl)(hydroxy)carbamate + ethanol; phases: Liquid, Crystal
Fixed: Pressure, kPa = 101.2
Property: Mass fraction of methyl (2-(((1-(4-chlorophenyl)-1H-pyrazol-3-yl)oxy)methyl)phenyl)(hydroxy)carbamate (Liquid); method: Chromatography
Temperature, K	Mass fraction of methyl (2-(((1-(4-chlorophenyl)-1H-pyrazol-3-yl)oxy)methyl)phenyl)(hydroxy)carbamate	uncertainty
293.15	0.02514	0.00146
303.15	0.04039	0.00235
313.15	0.06079	0.00353

System: methyl (2-(((1-(4-chlorophenyl)-1H-pyrazol-3-yl)oxy)methyl)phenyl)(hydroxy)carbamate + dimethylformamide; phases: Liquid, Crystal
Fixed: Pressure, kPa = 101.2
Property: Mole fraction of methyl (2-(((1-(4-chlorophenyl)-1H-pyrazol-3-yl)oxy)methyl)phenyl)(hydroxy)carbamate (Liquid); method: Chromatography
Temperature, K	Mole fraction of methyl (2-(((1-(4-chlorophenyl)-1H-pyrazol-3-yl)oxy)methyl)phenyl)(hydroxy)carbamate	uncertainty
293.15	0.01971	0.00083
298.15	0.0287	0.00121
303.15	0.04157	0.00175
308.15	0.05792	0.00244
313.15	0.07956	0.00335
318.15	0.1072	0.0045
323.15	0.1424	0.006

System: methyl (2-(((1-(4-chlorophenyl)-1H-pyrazol-3-yl)oxy)methyl)phenyl)(hydroxy)carbamate + dimethylformamide; phases: Liquid, Crystal
Fixed: Pressure, kPa = 101.2
Property: Mass fraction of methyl (2-(((1-(4-chlorophenyl)-1H-pyrazol-3-yl)oxy)methyl)phenyl)(hydroxy)carbamate (Liquid); method: Chromatography
Temperature, K	Mass fraction of methyl (2-(((1-(4-chlorophenyl)-1H-pyrazol-3-yl)oxy)methyl)phenyl)(hydroxy)carbamate	uncertainty
293.15	0.09326	0.00617
303.15	0.1815	0.012
313.15	0.3065	0.0202

System: methyl (2-(((1-(4-chlorophenyl)-1H-pyrazol-3-yl)oxy)methyl)phenyl)(hydroxy)carbamate + Pyraclostrobin + ethanol; phases: Liquid, Crystal
Fixed: Pressure, kPa = 101.2
Property: Mass fraction of Pyraclostrobin (Liquid); method: Chromatography
Temperature, K	Mass fraction of methyl (2-(((1-(4-chlorophenyl)-1H-pyrazol-3-yl)oxy)methyl)phenyl)(hydroxy)carbamate	Mass fraction of Pyraclostrobin	uncertainty
293.15	0	0.0803	0.00468
293.15	0.002628	0.0797	0.00465
293.15	0.005363	0.07891	0.0046
293.15	0.00935	0.0783	0.00456
293.15	0.0165	0.07752	0.00452
293.15	0.02052	0.07697	0.00449
303.15	0	0.1908	0.0111
303.15	0.005157	0.1882	0.0109
303.15	0.0104	0.185	0.0108
303.15	0.01613	0.1814	0.0106
303.15	0.02303	0.1778	0.0104
303.15	0.02917	0.1739	0.0102
313.15	0	0.3701	0.0215
313.15	0.005548	0.3626	0.0211
313.15	0.01439	0.3535	0.0205
313.15	0.02682	0.3437	0.02
313.15	0.03375	0.3394	0.0197
313.15	0.03959	0.3429	0.02

System: methyl (2-(((1-(4-chlorophenyl)-1H-pyrazol-3-yl)oxy)methyl)phenyl)(hydroxy)carbamate + Pyraclostrobin + ethanol; phases: Liquid, Crystal
Fixed: Pressure, kPa = 101.2
Property: Mass fraction of methyl (2-(((1-(4-chlorophenyl)-1H-pyrazol-3-yl)oxy)methyl)phenyl)(hydroxy)carbamate (Liquid); method: Chromatography
Temperature, K	Mass fraction of Pyraclostrobin	Mass fraction of methyl (2-(((1-(4-chlorophenyl)-1H-pyrazol-3-yl)oxy)methyl)phenyl)(hydroxy)carbamate	uncertainty
293.15	0.07697	0.02052	0.00124
293.15	0.06393	0.0215	0.00128
293.15	0.05264	0.02225	0.00131
293.15	0.03705	0.02327	0.00136
293.15	0.01772	0.02431	0.00141
293.15	0	0.02514	0.00146
303.15	0.1739	0.02917	0.00177
303.15	0.1544	0.03016	0.00186
303.15	0.1274	0.0323	0.00194
303.15	0.08151	0.03514	0.00206
303.15	0.03638	0.03803	0.00221
303.15	0	0.04039	0.00235
313.15	0.3429	0.03959	0.00239
313.15	0.2732	0.04185	0.00253
313.15	0.224	0.04489	0.00275
313.15	0.1513	0.05012	0.00297
313.15	0.0735	0.05469	0.00319
313.15	0	0.06079	0.00353

System: methyl (2-(((1-(4-chlorophenyl)-1H-pyrazol-3-yl)oxy)methyl)phenyl)(hydroxy)carbamate + Pyraclostrobin + dimethylformamide; phases: Liquid, Crystal
Fixed: Pressure, kPa = 101.2
Property: Mass fraction of Pyraclostrobin (Liquid); method: Chromatography
Temperature, K	Mass fraction of methyl (2-(((1-(4-chlorophenyl)-1H-pyrazol-3-yl)oxy)methyl)phenyl)(hydroxy)carbamate	Mass fraction of Pyraclostrobin	uncertainty
293.15	0	0.1674	0.0111
293.15	0.01436	0.164	0.0108
293.15	0.03482	0.1607	0.0106
293.15	0.05618	0.157	0.0104
293.15	0.06239	0.1559	0.0103
293.15	0.07342	0.1552	0.0103
303.15	0	0.2888	0.0191
303.15	0.02264	0.2779	0.0184
303.15	0.05769	0.2623	0.0174
303.15	0.09394	0.2457	0.0165
303.15	0.1132	0.2358	0.0161
303.15	0.1342	0.2241	0.0156
313.15	0	0.4349	0.0287
313.15	0.03492	0.413	0.0273
313.15	0.08454	0.3855	0.0257
313.15	0.1146	0.3686	0.0247
313.15	0.1412	0.3544	0.0239
313.15	0.1899	0.3282	0.0227

System: methyl (2-(((1-(4-chlorophenyl)-1H-pyrazol-3-yl)oxy)methyl)phenyl)(hydroxy)carbamate + Pyraclostrobin + dimethylformamide; phases: Liquid, Crystal
Fixed: Pressure, kPa = 101.2
Property: Mass fraction of methyl (2-(((1-(4-chlorophenyl)-1H-pyrazol-3-yl)oxy)methyl)phenyl)(hydroxy)carbamate (Liquid); method: Chromatography
Temperature, K	Mass fraction of Pyraclostrobin	Mass fraction of methyl (2-(((1-(4-chlorophenyl)-1H-pyrazol-3-yl)oxy)methyl)phenyl)(hydroxy)carbamate	uncertainty
293.15	0.1552	0.07342	0.00502
293.15	0.1211	0.07768	0.00525
293.15	0.07633	0.08412	0.00561
293.15	0.04633	0.08834	0.00586
293.15	0.01903	0.09115	0.00603
293.15	0	0.09326	0.00617
303.15	0.2241	0.1342	0.0094
303.15	0.1753	0.1449	0.0103
303.15	0.1383	0.1539	0.0102
303.15	0.09311	0.1629	0.0109
303.15	0.04075	0.1728	0.0114
303.15	0	0.1815	0.012
313.15	0.3282	0.1899	0.014
313.15	0.2666	0.2076	0.015
313.15	0.2147	0.2299	0.0164
313.15	0.1571	0.2553	0.0173
313.15	0.07373	0.2823	0.0187
313.15	0	0.3065	0.0202
