Measured thermophysical data. Thermochemical study of cyanopyrazines: Experimental and theoretical approaches
Source: J. Chem. Thermodyn., 2006, 10.1016/j.jct.2005.07.006
Compound 1: carbon dioxide, CO2, InChI=1S/CO2/c2-1-3
Compound 2: nitrogen, N2, InChI=1S/N2/c1-2
Compound 3: water, H2O, InChI=1S/H2O/h1H2
Compound 4: oxygen, O2, InChI=1S/O2/c1-2
Compound 5: 2,3-pyrazinedicarbonitrile, C6H2N4, InChI=1S/C6H2N4/c7-3-5-6(4-8)10-2-1-9-5/h1-2H

System: 2,3-pyrazinedicarbonitrile; phases: Crystal, Liquid, Air at 1 atmosphere
Property: Molar enthalpy of transition or fusion, kJ/mol (Crystal); method: DSC
Molar enthalpy of transition or fusion, kJ/mol	uncertainty
19.8	0.75

System: 2,3-pyrazinedicarbonitrile; phases: Crystal, Liquid, Air at 1 atmosphere
Property: Triple point temperature, K (Crystal); method: DTA
Triple point temperature, K	uncertainty
405.06	0.39

System: 2,3-pyrazinedicarbonitrile; phases: Crystal
Property: Mass density, kg/m3 (Crystal); method: Estimation
Temperature, K	Pressure, kPa	Mass density, kg/m3	uncertainty
298	101.325	1130	620

Reaction: -1 2,3-pyrazinedicarbonitrile + 6 carbon dioxide + 2 nitrogen + 1 water + -6.5 oxygen
Property: Specific internal energy of reaction at constant volume, J/g
-23674.3
