Measured thermophysical data. Effect of temperature on the volumetric properties of dilute  aqueous solutions of 1,2-hexanediol, 1,5-hexanediol,  1,6-hexanediol, and 2,5-hexanediol
Source: J. Chem. Thermodyn., 2007, 10.1016/j.jct.2007.01.009
Compound 1: 1,2-hexanediol, C6H14O2, InChI=1S/C6H14O2/c1-2-3-4-6(8)5-7/h6-8H,2-5H2,1H3
Compound 2: 1,6-hexanediol, C6H14O2, InChI=1S/C6H14O2/c7-5-3-1-2-4-6-8/h7-8H,1-6H2
Compound 3: 2,5-hexanediol, C6H14O2, InChI=1S/C6H14O2/c1-5(7)3-4-6(2)8/h5-8H,3-4H2,1-2H3
Compound 4: 1,5-hexanediol, C6H14O2, InChI=1S/C6H14O2/c1-6(8)4-2-3-5-7/h6-8H,2-5H2,1H3
Compound 5: water, H2O, InChI=1S/H2O/h1H2

System: 1,2-hexanediol; phases: Liquid
Fixed: Pressure, kPa = 101.325
Property: Mass density, kg/m3 (Liquid); method: PYCNOM:UFactor:2
Temperature, K	Mass density, kg/m3	uncertainty
283.15	958.87	1.23
288.15	955.23	1.2
293.15	951.68	1.17
298.15	948.08	1.18
303.15	944.54	1.2
308.15	940.88	1.21

System: 2,5-hexanediol; phases: Liquid
Fixed: Pressure, kPa = 101.325
Property: Mass density, kg/m3 (Liquid); method: PYCNOM:UFactor:2
Temperature, K	Mass density, kg/m3	uncertainty
283.15	968.85	0.68
288.15	965.56	0.65
293.15	962.17	0.63
298.15	959.09	0.65
303.15	955.72	0.67
308.15	952.39	0.68

System: 1,5-hexanediol; phases: Liquid
Fixed: Pressure, kPa = 101.325
Property: Mass density, kg/m3 (Liquid); method: PYCNOM:UFactor:2
Temperature, K	Mass density, kg/m3	uncertainty
283.15	978.41	0.69
288.15	975.51	0.66
293.15	972.31	0.64
298.15	968.91	0.66
303.15	965.51	0.67
308.15	962.15	0.69

System: 1,2-hexanediol + water; phases: Liquid
Fixed: Pressure, kPa = 101
Property: Mass density, kg/m3 (Liquid); method: Pycnometric method
Mole fraction of 1,2-hexanediol	Temperature, K	Mass density, kg/m3	uncertainty
0	283.15	999.69	0.3
0.0009	283.15	999.77	0.31
0.0018	283.15	999.85	0.31
0.0036	283.15	1000.05	0.31
0.0055	283.15	1000.31	0.31
0.0077	283.15	1000.69	0.31
0.009	283.15	1000.93	0.32
0.0106	283.15	1001.22	0.31
0.0124	283.15	1001.49	0.31
0.0143	283.15	1001.65	0.31
0.016	283.15	1001.69	0.31
0.0178	283.15	1001.64	0.31
0.0351	283.15	999.52	0.32
0.0672	283.15	995.27	0.33
0.0968	283.15	991.84	0.34
0.1119	283.15	990.47	0.34
0	288.15	999.1	0.29
0.0009	288.15	999.33	0.3
0.0018	288.15	999.35	0.29
0.0036	288.15	999.43	0.29
0.0055	288.15	999.57	0.3
0.0077	288.15	999.81	0.3
0.009	288.15	999.97	0.3
0.0106	288.15	1000.16	0.3
0.0124	288.15	1000.33	0.3
0.0143	288.15	1000.41	0.3
0.016	288.15	1000.38	0.3
0.0178	288.15	1000.25	0.3
0.0351	288.15	997.75	0.31
0.0672	288.15	993.06	0.32
0.0968	288.15	989.37	0.32
0.1119	288.15	987.91	0.33
0	293.15	998.21	0.28
0.0009	293.15	998.26	0.28
0.0018	293.15	998.28	0.28
0.0036	293.15	998.39	0.28
0.0055	293.15	998.54	0.29
0.0077	293.15	998.75	0.29
0.009	293.15	998.86	0.29
0.0106	293.15	998.97	0.29
0.0124	293.15	999.03	0.29
0.0143	293.15	999.01	0.29
0.016	293.15	998.91	0.29
0.0178	293.15	998.73	0.29
0.0351	293.15	995.76	0.3
0.0672	293.15	990.72	0.31
0.0968	293.15	986.7	0.31
0.1119	293.15	985.24	0.32
0	298.15	997.04	0.29
0.0009	298.15	997.06	0.29
0.0018	298.15	997.06	0.29
0.0036	298.15	997.13	0.29
0.0055	298.15	997.24	0.3
0.0077	298.15	997.43	0.3
0.009	298.15	997.49	0.3
0.0106	298.15	997.52	0.3
0.0124	298.15	997.47	0.3
0.0143	298.15	997.32	0.3
0.016	298.15	997.13	0.3
0.0178	298.15	996.87	0.31
0.0351	298.15	993.77	0.31
0.0672	298.15	988.37	0.32
0.0968	298.15	983.93	0.32
0.1119	298.15	982.11	0.33
0	303.15	995.65	0.3
0.0009	303.15	995.65	0.3
0.0018	303.15	995.66	0.3
0.0036	303.15	995.76	0.3
0.0055	303.15	995.78	0.31
0.0077	303.15	995.64	0.31
0.009	303.15	995.53	0.31
0.0106	303.15	995.37	0.31
0.0124	303.15	995.17	0.31
0.0143	303.15	994.93	0.31
0.016	303.15	994.7	0.31
0.0178	303.15	994.45	0.31
0.0351	303.15	991.54	0.32
0.0672	303.15	985.8	0.33
0.0968	303.15	981.37	0.33
0.1119	303.15	979.56	0.34
0	308.15	994.03	0.31
0.0009	308.15	993.92	0.32
0.0018	308.15	993.92	0.31
0.0036	308.15	993.98	0.32
0.0055	308.15	994.13	0.32
0.0077	308.15	994.2274	0.3169
0.009	308.15	994.2776	0.3169
0.0106	308.15	994.2763	0.3177
0.0124	308.15	994.1413	0.3217
0.0143	308.15	993.8174	0.3288
0.016	308.15	993.3949	0.3366
0.0178	308.15	992.8687	0.3397
0.0351	308.15	988.24	0.33
0.0672	308.15	981.8469	0.3375
0.0968	308.15	977.5691	0.3433
0.1119	308.15	975.7462	0.347

System: 1,5-hexanediol + water; phases: Liquid
Fixed: Pressure, kPa = 101
Property: Mass density, kg/m3 (Liquid); method: Pycnometric method
Mole fraction of 1,5-hexanediol	Temperature, K	Mass density, kg/m3	uncertainty
0	283.15	999.7	0.3
0.001	283.15	999.62	0.31
0.0021	283.15	999.54	0.31
0.0037	283.15	999.45	0.35
0.0053	283.15	999.39	0.3
0.0071	283.15	999.38	0.31
0.0089	283.15	999.41	0.31
0.0111	283.15	999.49	0.31
0.0145	283.15	999.68	0.31
0.0194	283.15	1000.04	0.31
0.0324	283.15	1001.21	0.31
0.0507	283.15	1002.48	0.31
0.0738	283.15	1002.95	0.31
0	288.15	999.1	0.29
0.001	288.15	999.01	0.29
0.0021	288.15	998.92	0.29
0.0037	288.15	998.83	0.29
0.0053	288.15	998.77	0.29
0.0071	288.15	998.74	0.29
0.0089	288.15	998.73	0.29
0.0111	288.15	998.75	0.29
0.0145	288.15	998.84	0.29
0.0194	288.15	999.07	0.3
0.0324	288.15	999.91	0.3
0.0507	288.15	1000.63	0.3
0.0738	288.15	1000.72	0.3
0	293.15	998.21	0.28
0.001	293.15	998.08	0.28
0.0021	293.15	997.97	0.28
0.0037	293.15	997.87	0.28
0.0053	293.15	997.8	0.28
0.0071	293.15	997.74	0.28
0.0089	293.15	997.7	0.28
0.0111	293.15	997.68	0.28
0.0145	293.15	997.7	0.28
0.0194	293.15	997.8	0.28
0.0324	293.15	998.22	0.28
0.0507	293.15	998.55	0.29
0.0738	293.15	998.24	0.29
0.001	298.15	996.9	0.29
0.0021	298.15	996.78	0.29
0.0037	298.15	996.64	0.29
0.0053	298.15	996.54	0.29
0.0071	298.15	996.46	0.29
0.0089	298.15	996.4	0.29
0.0111	298.15	996.36	0.29
0.0145	298.15	996.34	0.29
0.0194	298.15	996.37	0.29
0.0324	298.15	996.47	0.3
0.0507	298.15	996.31	0.3
0.0738	298.15	995.66	0.3
0.001	303.15	995.49	0.3
0.0021	303.15	995.34	0.31
0.0037	303.15	995.17	0.31
0.0053	303.15	995.05	0.3
0.0071	303.15	994.97	0.3
0.0089	303.15	994.91	0.3
0.0111	303.15	994.86	0.3
0.0145	303.15	994.79	0.3
0.0194	303.15	994.7	0.3
0.0324	303.15	994.45	0.31
0.0507	303.15	994.04	0.31
0.0738	303.15	993.05	0.31
0.001	308.15	993.87	0.32
0.0021	308.15	993.69	0.32
0.0037	308.15	993.47	0.36
0.0053	308.15	993.32	0.32
0.0071	308.15	993.19	0.49
0.0089	308.15	993.09	0.32
0.0111	308.15	992.99	0.32
0.0145	308.15	992.85	0.32
0.0194	308.15	992.68	0.32
0.0324	308.15	992.23	0.32
0.0507	308.15	991.47	0.32
0.0738	308.15	990.3	0.32

System: 1,6-hexanediol + water; phases: Liquid
Fixed: Pressure, kPa = 101
Property: Mass density, kg/m3 (Liquid); method: Pycnometric method
Mole fraction of 1,6-hexanediol	Temperature, K	Mass density, kg/m3	uncertainty
0	283.15	999.7	0.3
0.0009	283.15	999.67	0.3
0.0019	283.15	999.65	0.3
0.0037	283.15	999.63	0.3
0.0054	283.15	999.64	0.3
0.0074	283.15	999.66	0.3
0.009	283.15	999.68	0.31
0.0107	283.15	999.71	0.31
0.0125	283.15	999.76	0.31
0.0145	283.15	999.83	0.31
0.0159	283.15	999.88	0.31
0.0177	283.15	999.96	0.31
0.0349	283.15	1000.78	0.31
0.0514	283.15	1001.11	0.31
0.0694	283.15	1001.08	0.31
0.0983	283.15	1000.63	0.31
0.112	283.15	1000.09	0.32
0	288.15	999.1	0.29
0.0009	288.15	999.02	0.29
0.0019	288.15	998.96	0.29
0.0037	288.15	998.86	0.29
0.0054	288.15	998.8	0.29
0.0074	288.15	998.78	0.29
0.009	288.15	998.78	0.29
0.0107	288.15	998.8	0.29
0.0125	288.15	998.83	0.29
0.0145	288.15	998.88	0.29
0.0159	288.15	998.92	0.29
0.0177	288.15	998.98	0.29
0.0349	288.15	999.42	0.3
0.0514	288.15	999.3	0.3
0.0694	288.15	998.88	0.3
0.0983	288.15	997.95	0.3
0.112	288.15	997.54	0.3
0	293.15	998.2	0.28
0.0009	293.15	998.12	0.28
0.0019	293.15	998.04	0.28
0.0037	293.15	997.92	0.28
0.0054	293.15	997.84	0.28
0.0074	293.15	997.78	0.28
0.009	293.15	997.76	0.28
0.0107	293.15	997.72	0.28
0.0125	293.15	997.7	0.28
0.0145	293.15	997.68	0.28
0.0159	293.15	997.67	0.28
0.0177	293.15	997.66	0.28
0.0349	293.15	997.56	0.28
0.0514	293.15	997.34	0.29
0.0694	293.15	996.87	0.29
0.0983	293.15	995.62	0.29
0.112	293.15	994.84	0.29
0	298.15	997.04	0.29
0.0009	298.15	996.93	0.3
0.0019	298.15	996.83	0.29
0.0037	298.15	996.68	0.29
0.0054	298.15	996.58	0.29
0.0074	298.15	996.49	0.29
0.009	298.15	996.43	0.29
0.0107	298.15	996.38	0.29
0.0125	298.15	996.32	0.29
0.0145	298.15	996.26	0.29
0.0159	298.15	996.23	0.29
0.0177	298.15	996.18	0.3
0.0349	298.15	995.67	0.3
0.0514	298.15	995.07	0.3
0.0694	298.15	994.3	0.3
0.0983	298.15	992.81	0.3
0.112	298.15	992.04	0.3
0	303.15	995.65	0.3
0.0009	303.15	995.54	0.31
0.0019	303.15	995.42	0.31
0.0037	303.15	995.24	0.31
0.0054	303.15	995.11	0.3
0.0074	303.15	994.99	0.3
0.009	303.15	994.89	0.3
0.0107	303.15	994.79	0.3
0.0125	303.15	994.69	0.3
0.0145	303.15	994.59	0.3
0.0159	303.15	994.52	0.3
0.0177	303.15	994.43	0.31
0.0349	303.15	993.61	0.31
0.0514	303.15	992.8	0.31
0.0694	303.15	991.84	0.31
0.0983	303.15	990.14	0.31
0.112	303.15	989.26	0.31
0	308.15	994.03	0.31
0.0009	308.15	993.92	0.32
0.0019	308.15	993.78	0.32
0.0037	308.15	993.57	0.32
0.0054	308.15	993.41	0.32
0.0074	308.15	993.24	0.32
0.009	308.15	993.11	0.32
0.0107	308.15	992.99	0.32
0.0125	308.15	992.87	0.32
0.0145	308.15	992.74	0.32
0.0159	308.15	992.65	0.32
0.0177	308.15	992.54	0.32
0.0349	308.15	991.57	0.32
0.0514	308.15	990.58	0.32
0.0694	308.15	989.39	0.32
0.0983	308.15	987.3	0.32
0.112	308.15	986.33	0.32

System: 2,5-hexanediol + water; phases: Liquid
Fixed: Pressure, kPa = 101
Property: Mass density, kg/m3 (Liquid); method: Pycnometric method
Mole fraction of 2,5-hexanediol	Temperature, K	Mass density, kg/m3	uncertainty
0	283.15	999.7	0.3
0.0008	283.15	999.67	0.3
0.002	283.15	999.6	0.3
0.0037	283.15	999.53	0.3
0.0073	283.15	999.48	0.3
0.009	283.15	999.54	0.31
0.0102	283.15	999.61	0.31
0.0123	283.15	999.75	0.31
0.0142	283.15	999.92	0.31
0.0159	283.15	1000.08	0.31
0.0177	283.15	1000.27	0.31
0.0263	283.15	1001.32	0.31
0.0353	283.15	1002.49	0.31
0.0516	283.15	1004.41	0.31
0.0672	283.15	1005.71	0.31
0.0688	283.15	1005.83	0.32
0.0821	283.15	1006.35	0.32
0.098	283.15	1006.33	0.32
0.112	283.15	1005.71	0.32
0	288.15	999.1	0.29
0.0008	288.15	999.06	0.29
0.002	288.15	998.98	0.29
0.0037	288.15	998.88	0.29
0.0073	288.15	998.82	0.29
0.009	288.15	998.85	0.29
0.0102	288.15	998.88	0.29
0.0123	288.15	998.97	0.29
0.0142	288.15	999.08	0.29
0.0159	288.15	999.2	0.3
0.0177	288.15	999.34	0.29
0.0263	288.15	1000.14	0.3
0.0353	288.15	1001.07	0.3
0.0516	288.15	1002.55	0.3
0.0672	288.15	1003.37	0.3
0.0688	288.15	1003.42	0.3
0.0821	288.15	1003.53	0.3
0.098	288.15	1003.14	0.3
0.112	288.15	1002.53	0.31
0	293.15	998.21	0.28
0.0008	293.15	998.13	0.28
0.002	293.15	998.04	0.28
0.0037	293.15	997.94	0.28
0.0073	293.15	997.86	0.28
0.009	293.15	997.84	0.28
0.0102	293.15	997.84	0.28
0.0123	293.15	997.89	0.28
0.0142	293.15	997.96	0.28
0.0159	293.15	998.04	0.28
0.0177	293.15	998.14	0.28
0.0263	293.15	998.73	0.29
0.0353	293.15	999.39	0.29
0.0516	293.15	1000.35	0.29
0.0672	293.15	1000.75	0.29
0.0688	293.15	1000.76	0.29
0.0821	293.15	1000.63	0.29
0.098	293.15	1000.02	0.29
0.112	293.15	999.19	0.29
0	298.15	997.04	0.29
0.0008	298.15	996.94	0.29
0.002	298.15	996.84	0.29
0.0037	298.15	996.73	0.29
0.0073	298.15	996.6	0.29
0.009	298.15	996.58	0.29
0.0102	298.15	996.58	0.29
0.0123	298.15	996.6	0.29
0.0142	298.15	996.64	0.29
0.0159	298.15	996.68	0.29
0.0177	298.15	996.74	0.29
0.0263	298.15	997.13	0.3
0.0353	298.15	997.56	0.3
0.0516	298.15	998.09	0.3
0.0672	298.15	998.16	0.3
0.0688	298.15	998.14	0.3
0.0821	298.15	997.8	0.3
0.098	298.15	996.97	0.3
0.112	298.15	996.16	0.3
0	303.15	995.65	0.3
0.0008	303.15	995.52	0.31
0.002	303.15	995.4	0.3
0.0037	303.15	995.27	0.3
0.0073	303.15	995.14	0.3
0.009	303.15	995.09	0.3
0.0102	303.15	995.07	0.3
0.0123	303.15	995.05	0.3
0.0142	303.15	995.05	0.3
0.0159	303.15	995.06	0.3
0.0177	303.15	995.07	0.31
0.0263	303.15	995.23	0.31
0.0353	303.15	995.43	0.31
0.0516	303.15	995.59	0.31
0.0672	303.15	995.35	0.31
0.0688	303.15	995.31	0.31
0.0821	303.15	994.75	0.31
0.098	303.15	993.8	0.31
0.112	303.15	992.78	0.31
0	308.15	994.03	0.31
0.0008	308.15	993.87	0.32
0.002	308.15	993.73	0.32
0.0037	308.15	993.58	0.32
0.0073	308.15	993.42	0.32
0.009	308.15	993.35	0.32
0.0102	308.15	993.31	0.32
0.0123	308.15	993.25	0.32
0.0142	308.15	993.21	0.32
0.0159	308.15	993.19	0.32
0.0177	308.15	993.17	0.32
0.0263	308.15	993.17	0.32
0.0353	308.15	993.19	0.32
0.0516	308.15	993	0.32
0.0672	308.15	992.44	0.32
0.0688	308.15	992.36	0.32
0.0821	308.15	991.62	0.32
0.098	308.15	990.55	0.32
0.112	308.15	989.51	0.33
