Measured thermophysical data. The dissolution behaviour and apparent thermodynamic analysis of diprophylline in pure and mixed solvents
Source: J. Chem. Thermodyn., 2019, 10.1016/j.jct.2019.06.007
Compound 1: 7-(2,3-dihydroxypropyl)-1,3-dimethyl-3,7-dihydro-1H-purine-2,6-dione, C10H14N4O4, InChI=1S/C10H14N4O4/c1-12-8-7(9(17)13(2)10(12)18)14(5-11-8)3-6(16)4-15/h5-6,15-16H,3-4H2,1-2H3, purity 99.5%
Compound 2: ethanol, C2H6O, InChI=1S/C2H6O/c1-2-3/h3H,2H2,1H3, purity 99.8%
Compound 3: propan-2-ol, C3H8O, InChI=1S/C3H8O/c1-3(2)4/h3-4H,1-2H3, purity 99.8%
Compound 4: methanol, CH4O, InChI=1S/CH4O/c1-2/h2H,1H3, purity 99.5%
Compound 5: propan-1-ol, C3H8O, InChI=1S/C3H8O/c1-2-3-4/h4H,2-3H2,1H3, purity 99.6%
Compound 6: ethyl acetate, C4H8O2, InChI=1S/C4H8O2/c1-3-6-4(2)5/h3H2,1-2H3, purity 99.5%
Compound 7: acetonitrile, C2H3N, InChI=1S/C2H3N/c1-2-3/h1H3, purity 99.6%
Compound 8: 1,4-dioxane, C4H8O2, InChI=1S/C4H8O2/c1-2-6-4-3-5-1/h1-4H2, purity 99.5%
Compound 9: acetone, C3H6O, InChI=1S/C3H6O/c1-3(2)4/h1-2H3, purity 99.5%
Compound 10: toluene, C7H8, InChI=1S/C7H8/c1-7-5-3-2-4-6-7/h2-6H,1H3, purity 99.6%
Compound 11: water, H2O, InChI=1S/H2O/h1H2

System: 7-(2,3-dihydroxypropyl)-1,3-dimethyl-3,7-dihydro-1H-purine-2,6-dione; phases: Crystal, Liquid, Air at 1 atmosphere
Property: Normal melting temperature, K (Crystal); method: DTA
Normal melting temperature, K	uncertainty
433.05	1.06

System: 7-(2,3-dihydroxypropyl)-1,3-dimethyl-3,7-dihydro-1H-purine-2,6-dione + methanol; phases: Liquid, Crystal
Fixed: Pressure, kPa = 101.3
Property: Mole fraction of 7-(2,3-dihydroxypropyl)-1,3-dimethyl-3,7-dihydro-1H-purine-2,6-dione (Liquid); method: Chromatography
Temperature, K	Mole fraction of 7-(2,3-dihydroxypropyl)-1,3-dimethyl-3,7-dihydro-1H-purine-2,6-dione	uncertainty
283.15	0.000554	2.1e-05
288.15	0.000735	2.8e-05
293.15	0.000964	3.7e-05
298.15	0.001254	4.8e-05
303.15	0.001577	6e-05
308.15	0.001989	7.6e-05
313.15	0.002471	9.4e-05
318.15	0.003104	0.000118
323.15	0.00382	0.000145

System: 7-(2,3-dihydroxypropyl)-1,3-dimethyl-3,7-dihydro-1H-purine-2,6-dione + ethanol; phases: Liquid, Crystal
Fixed: Pressure, kPa = 101.3
Property: Mole fraction of 7-(2,3-dihydroxypropyl)-1,3-dimethyl-3,7-dihydro-1H-purine-2,6-dione (Liquid); method: Chromatography
Temperature, K	Mole fraction of 7-(2,3-dihydroxypropyl)-1,3-dimethyl-3,7-dihydro-1H-purine-2,6-dione	uncertainty
283.15	0.000223	9e-06
288.15	0.000326	1.2e-05
293.15	0.000451	1.7e-05
298.15	0.000632	2.4e-05
303.15	0.000851	3.2e-05
308.15	0.001132	4.3e-05
313.15	0.001459	5.6e-05
318.15	0.001921	7.3e-05
323.15	0.00253	9.6e-05

System: 7-(2,3-dihydroxypropyl)-1,3-dimethyl-3,7-dihydro-1H-purine-2,6-dione + propan-1-ol; phases: Liquid, Crystal
Fixed: Pressure, kPa = 101.3
Property: Mole fraction of 7-(2,3-dihydroxypropyl)-1,3-dimethyl-3,7-dihydro-1H-purine-2,6-dione (Liquid); method: Chromatography
Temperature, K	Mole fraction of 7-(2,3-dihydroxypropyl)-1,3-dimethyl-3,7-dihydro-1H-purine-2,6-dione	uncertainty
283.15	0.000195	7e-06
288.15	0.000269	1e-05
293.15	0.000375	1.4e-05
298.15	0.000516	2e-05
303.15	0.000726	2.8e-05
308.15	0.000989	3.8e-05
313.15	0.001266	4.8e-05
318.15	0.00172	6.6e-05
323.15	0.00235	9e-05

System: 7-(2,3-dihydroxypropyl)-1,3-dimethyl-3,7-dihydro-1H-purine-2,6-dione + propan-2-ol; phases: Liquid, Crystal
Fixed: Pressure, kPa = 101.3
Property: Mole fraction of 7-(2,3-dihydroxypropyl)-1,3-dimethyl-3,7-dihydro-1H-purine-2,6-dione (Liquid); method: Chromatography
Temperature, K	Mole fraction of 7-(2,3-dihydroxypropyl)-1,3-dimethyl-3,7-dihydro-1H-purine-2,6-dione	uncertainty
283.15	0.000271	1e-05
288.15	0.000386	1.5e-05
293.15	0.000543	2.1e-05
298.15	0.000704	2.7e-05
303.15	0.000923	3.5e-05
308.15	0.001222	4.7e-05
313.15	0.001582	6e-05
318.15	0.002093	8e-05
323.15	0.002725	0.000104

System: 7-(2,3-dihydroxypropyl)-1,3-dimethyl-3,7-dihydro-1H-purine-2,6-dione + acetone; phases: Liquid, Crystal
Fixed: Pressure, kPa = 101.3
Property: Mole fraction of 7-(2,3-dihydroxypropyl)-1,3-dimethyl-3,7-dihydro-1H-purine-2,6-dione (Liquid); method: Chromatography
Temperature, K	Mole fraction of 7-(2,3-dihydroxypropyl)-1,3-dimethyl-3,7-dihydro-1H-purine-2,6-dione	uncertainty
283.15	1.2e-05	1e-06
288.15	1.5e-05	1e-06
293.15	1.8e-05	1e-06
298.15	2.1e-05	1e-06
303.15	2.5e-05	1e-06
308.15	3e-05	1e-06
313.15	3.5e-05	1e-06
318.15	4.1e-05	2e-06
323.15	4.9e-05	2e-06

System: 7-(2,3-dihydroxypropyl)-1,3-dimethyl-3,7-dihydro-1H-purine-2,6-dione + acetonitrile; phases: Liquid, Crystal
Fixed: Pressure, kPa = 101.3
Property: Mole fraction of 7-(2,3-dihydroxypropyl)-1,3-dimethyl-3,7-dihydro-1H-purine-2,6-dione (Liquid); method: Chromatography
Temperature, K	Mole fraction of 7-(2,3-dihydroxypropyl)-1,3-dimethyl-3,7-dihydro-1H-purine-2,6-dione	uncertainty
283.15	0.000517	2e-05
288.15	0.00065	2.5e-05
293.15	0.000845	3.2e-05
298.15	0.00109	4.2e-05
303.15	0.001346	5.1e-05
308.15	0.001664	6.3e-05
313.15	0.002043	7.8e-05
318.15	0.002502	9.5e-05
323.15	0.003092	0.000118

System: 7-(2,3-dihydroxypropyl)-1,3-dimethyl-3,7-dihydro-1H-purine-2,6-dione + ethyl acetate; phases: Liquid, Crystal
Fixed: Pressure, kPa = 101.3
Property: Mole fraction of 7-(2,3-dihydroxypropyl)-1,3-dimethyl-3,7-dihydro-1H-purine-2,6-dione (Liquid); method: Chromatography
Temperature, K	Mole fraction of 7-(2,3-dihydroxypropyl)-1,3-dimethyl-3,7-dihydro-1H-purine-2,6-dione	uncertainty
283.15	0.000129	5e-06
288.15	0.000167	6e-06
293.15	0.000209	8e-06
298.15	0.000262	1e-05
303.15	0.000341	1.3e-05
308.15	0.000438	1.7e-05
313.15	0.000543	2.1e-05
318.15	0.000706	2.7e-05
323.15	0.000918	3.5e-05

System: 7-(2,3-dihydroxypropyl)-1,3-dimethyl-3,7-dihydro-1H-purine-2,6-dione + water; phases: Liquid, Crystal
Fixed: Pressure, kPa = 101.3
Property: Mole fraction of 7-(2,3-dihydroxypropyl)-1,3-dimethyl-3,7-dihydro-1H-purine-2,6-dione (Liquid); method: Chromatography
Temperature, K	Mole fraction of 7-(2,3-dihydroxypropyl)-1,3-dimethyl-3,7-dihydro-1H-purine-2,6-dione	uncertainty
283.15	0.00317	0.000121
288.15	0.00404	0.000154
293.15	0.00517	0.000197
298.15	0.00673	0.000256
303.15	0.00857	0.000327
308.15	0.01066	0.000406
313.15	0.013021	0.000496
318.15	0.015868	0.000604
323.15	0.019098	0.000727

System: 7-(2,3-dihydroxypropyl)-1,3-dimethyl-3,7-dihydro-1H-purine-2,6-dione + 1,4-dioxane; phases: Liquid, Crystal
Fixed: Pressure, kPa = 101.3
Property: Mole fraction of 7-(2,3-dihydroxypropyl)-1,3-dimethyl-3,7-dihydro-1H-purine-2,6-dione (Liquid); method: Chromatography
Temperature, K	Mole fraction of 7-(2,3-dihydroxypropyl)-1,3-dimethyl-3,7-dihydro-1H-purine-2,6-dione	uncertainty
288.15	0.001392	5.3e-05
293.15	0.002072	7.9e-05
298.15	0.002864	0.000109
303.15	0.003823	0.000146
308.15	0.004981	0.00019
313.15	0.006585	0.000251
318.15	0.008589	0.000327
323.15	0.010947	0.000417

System: 7-(2,3-dihydroxypropyl)-1,3-dimethyl-3,7-dihydro-1H-purine-2,6-dione + toluene; phases: Liquid, Crystal
Fixed: Pressure, kPa = 101.3
Property: Mole fraction of 7-(2,3-dihydroxypropyl)-1,3-dimethyl-3,7-dihydro-1H-purine-2,6-dione (Liquid); method: Chromatography
Temperature, K	Mole fraction of 7-(2,3-dihydroxypropyl)-1,3-dimethyl-3,7-dihydro-1H-purine-2,6-dione	uncertainty
283.15	9.1e-05	4e-06
288.15	0.000111	4e-06
293.15	0.00013	5e-06
298.15	0.000151	6e-06
303.15	0.000173	7e-06
308.15	0.000198	8e-06
313.15	0.000226	9e-06
318.15	0.000256	1e-05
323.15	0.000291	1.1e-05

System: 7-(2,3-dihydroxypropyl)-1,3-dimethyl-3,7-dihydro-1H-purine-2,6-dione + methanol + water; phases: Liquid, Crystal
Fixed: Pressure, kPa = 101.3
Property: Mole fraction of 7-(2,3-dihydroxypropyl)-1,3-dimethyl-3,7-dihydro-1H-purine-2,6-dione (Liquid); method: Chromatography
Solvent: Mass fraction of methanol	Temperature, K	Mole fraction of 7-(2,3-dihydroxypropyl)-1,3-dimethyl-3,7-dihydro-1H-purine-2,6-dione	uncertainty
0	283.15	0.00317	0.00026
0	288.15	0.00404	0.000331
0	293.15	0.00517	0.000424
0	298.15	0.00673	0.000552
0	303.15	0.00857	0.000703
0	308.15	0.01066	0.000875
0	313.15	0.013021	0.001068
0	318.15	0.015868	0.001302
0	323.15	0.019098	0.001567
0.2	283.15	0.00433	0.00036
0.2	288.15	0.00541	0.00044
0.2	293.15	0.0068	0.00056
0.2	298.15	0.00881	0.00072
0.2	303.15	0.01115	0.00091
0.2	308.15	0.01366	0.00112
0.2	313.15	0.01631	0.00134
0.2	318.15	0.01966	0.00161
0.2	323.15	0.0233	0.00191
0.4	283.15	0.00573	0.00047
0.4	288.15	0.00702	0.00058
0.4	293.15	0.00854	0.0007
0.4	298.15	0.01045	0.00086
0.4	303.15	0.01294	0.00106
0.4	308.15	0.01575	0.00129
0.4	313.15	0.01883	0.00154
0.4	318.15	0.0219	0.0018
0.4	323.15	0.0252	0.00207
0.6	283.15	0.00362	0.0003
0.6	288.15	0.00439	0.00036
0.6	293.15	0.00549	0.00045
0.6	298.15	0.00719	0.00059
0.6	303.15	0.0089	0.00073
0.6	308.15	0.01105	0.00091
0.6	313.15	0.01361	0.00112
0.6	318.15	0.01654	0.00136
0.6	323.15	0.01944	0.0016
0.8	283.15	0.00195	0.00016
0.8	288.15	0.00261	0.00021
0.8	293.15	0.00331	0.00027
0.8	298.15	0.00413	0.00034
0.8	303.15	0.00535	0.00044
0.8	308.15	0.00666	0.00055
0.8	313.15	0.00808	0.00066
0.8	318.15	0.01007	0.00083
0.8	323.15	0.01209	0.00099
1	283.15	0.000554	4.5e-05
1	288.15	0.000735	6e-05
1	293.15	0.000964	7.9e-05
1	298.15	0.001254	0.000103
1	303.15	0.001577	0.000129
1	308.15	0.001989	0.000163
1	313.15	0.002471	0.000203
1	318.15	0.003104	0.000255
1	323.15	0.00382	0.00031
