Measured thermophysical data. Measurement and study of density, surface tension, and viscosity of quaternary ammonium-based ionic liquids ([N222(n)]Tf2N)
Source: J. Chem. Thermodyn., 2013, 10.1016/j.jct.2013.05.031
Compound 1: triethylhexylammonium bis((trifluoromethyl)sulfonyl)imide, C14H28F6N2O4S2, InChI=1S/C12H28N.C2F6NO4S2/c1-5-9-10-11-12-13(6-2,7-3)8-4;3-1(4,5)14(10,11)9-15(12,13)2(6,7)8/h5-12H2,1-4H3;/q+1;-1, purity 98%
Compound 2: triethyloctylammonium bis[(trifluoromethyl)sulfonyl]imide, C16H32F6N2O4S2, InChI=1S/C14H32N.C2F6NO4S2/c1-5-9-10-11-12-13-14-15(6-2,7-3)8-4;3-1(4,5)14(10,11)9-15(12,13)2(6,7)8/h5-14H2,1-4H3;/q+1;-1, purity 98%
Compound 3: triethylpentylammonium bis(trifluoromethylsulfonyl)imide, C13H26F6N2O4S2, InChI=1S/C11H26N.C2F6NO4S2/c1-5-9-10-11-12(6-2,7-3)8-4;3-1(4,5)14(10,11)9-15(12,13)2(6,7)8/h5-11H2,1-4H3;/q+1;-1, purity 98%
Compound 4: N,N,N-triethyl-1-decanaminium 1,1,1-trifluoro-N-[(trifluoromethyl)sulfonyl]methanesulfonamide, C18H36F6N2O4S2, InChI=1S/C16H36N.C2F6NO4S2/c1-5-9-10-11-12-13-14-15-16-17(6-2,7-3)8-4;3-1(4,5)14(10,11)9-15(12,13)2(6,7)8/h5-16H2,1-4H3;/q+1;-1, purity 98%
Compound 5: N,N,N-triethyldodecan-1-aminium bis((trifluoromethyl)sulfonyl)amide, C20H40F6N2O4S2, InChI=1S/C18H40N.C2F6NO4S2/c1-5-9-10-11-12-13-14-15-16-17-18-19(6-2,7-3)8-4;3-1(4,5)14(10,11)9-15(12,13)2(6,7)8/h5-18H2,1-4H3;/q+1;-1, purity 98%

System: triethylhexylammonium bis((trifluoromethyl)sulfonyl)imide; phases: Liquid
Fixed: Pressure, kPa = 101.325
Property: Mass density, kg/m3 (Liquid); method: Pycnometric method
Temperature, K	Mass density, kg/m3	uncertainty
298	1291.4	2.2
303	1287.4	2.2
308	1283.4	2.1
313	1279.5	2.2
318	1275.2	2.2
323	1271.3	2.2
328	1267.1	2.2
333	1262.5	2.2
338	1258.5	2.2
343	1254.5	2.1
348	1251.3	2.1
353	1247.3	2.2
358	1243.3	2.2
363	1238.4	2.2
368	1234.9	2.1
373	1231.1	2.1

System: triethylhexylammonium bis((trifluoromethyl)sulfonyl)imide; phases: Liquid, Air at 1 atmosphere
Property: Surface tension liquid-gas, N/m (Liquid); method: Capillary rise
Temperature, K	Surface tension liquid-gas, N/m	uncertainty
298	0.0341	0.0005
303	0.0337	0.0005
308	0.0333	0.0005
313	0.0329	0.0005
318	0.0325	0.0005
323	0.0321	0.0005
328	0.0317	0.0005
333	0.0313	0.0005
338	0.0309	0.0005
343	0.0305	0.0005
348	0.0301	0.0005
353	0.0297	0.0005
358	0.0293	0.0005
363	0.0289	0.0005
368	0.0285	0.0005
373	0.0282	0.0005

System: triethylhexylammonium bis((trifluoromethyl)sulfonyl)imide; phases: Liquid
Fixed: Pressure, kPa = 101.325
Property: Viscosity, Pa*s (Liquid); method: Capillary tube (Ostwald; Ubbelohde) method
Temperature, K	Viscosity, Pa*s	uncertainty
298	0.1866	0.0129
303	0.1379	0.0102
308	0.1051	0.0072
313	0.08164	0.00525
318	0.06532	0.00402
323	0.05203	0.00314
328	0.04234	0.00242
333	0.03541	0.00199
338	0.02894	0.0016
343	0.02477	0.00131
348	0.02096	0.0011
353	0.01803	0.00091
358	0.01583	0.00078
363	0.0139	0.00068
368	0.01225	0.00058
373	0.01086	0.00053

System: triethyloctylammonium bis[(trifluoromethyl)sulfonyl]imide; phases: Liquid
Fixed: Pressure, kPa = 101.325
Property: Mass density, kg/m3 (Liquid); method: Pycnometric method
Temperature, K	Mass density, kg/m3	uncertainty
298	1251.2	2.1
303	1247.2	2.1
308	1242.9	2.1
313	1239.4	2.1
318	1235.2	2.1
323	1231.3	2.1
328	1227.5	2.1
333	1223.2	2.1
338	1219	2
343	1216	2
348	1212.9	2.1
353	1207.8	2.2
358	1203.5	2.1
363	1200.2	2.1
368	1196	2.1
373	1192.3	2.1

System: triethyloctylammonium bis[(trifluoromethyl)sulfonyl]imide; phases: Liquid, Air at 1 atmosphere
Property: Surface tension liquid-gas, N/m (Liquid); method: Capillary rise
Temperature, K	Surface tension liquid-gas, N/m	uncertainty
298	0.0331	0.0005
303	0.0328	0.0005
308	0.0323	0.0005
313	0.0318	0.0005
318	0.0314	0.0005
323	0.031	0.0005
328	0.0306	0.0005
333	0.0301	0.0005
338	0.0297	0.0005
343	0.0293	0.0005
348	0.0289	0.0005
353	0.0286	0.0005
358	0.0281	0.0005
363	0.0277	0.0005
368	0.0273	0.0005
373	0.0269	0.0005

System: triethyloctylammonium bis[(trifluoromethyl)sulfonyl]imide; phases: Liquid
Fixed: Pressure, kPa = 101.325
Property: Viscosity, Pa*s (Liquid); method: Capillary tube (Ostwald; Ubbelohde) method
Temperature, K	Viscosity, Pa*s	uncertainty
298	0.2214	0.0155
303	0.1639	0.0122
308	0.1247	0.0086
313	0.09676	0.00634
318	0.07647	0.00483
323	0.06052	0.00374
328	0.04863	0.00288
333	0.03985	0.00226
338	0.0332	0.00179
343	0.02823	0.00149
348	0.0238	0.00127
353	0.02036	0.00104
358	0.01783	0.00089
363	0.01555	0.00077
368	0.0135	0.00066
373	0.01205	0.00058

System: triethylpentylammonium bis(trifluoromethylsulfonyl)imide; phases: Liquid
Fixed: Pressure, kPa = 101.325
Property: Mass density, kg/m3 (Liquid); method: Pycnometric method
Temperature, K	Mass density, kg/m3	uncertainty
298	1321.5	2.2
303	1317.4	2.2
308	1313.2	2.2
313	1308.9	2.2
318	1304.9	2.2
323	1301	2.2
328	1296.6	2.2
333	1293.1	2.2
338	1289.1	2.2
343	1284.7	2.2
348	1280.9	2.2
353	1277.3	2.2
358	1272.9	2.3
363	1268.6	2.2
368	1265.1	2.2
373	1260.7	2.3

System: triethylpentylammonium bis(trifluoromethylsulfonyl)imide; phases: Liquid, Air at 1 atmosphere
Property: Surface tension liquid-gas, N/m (Liquid); method: Capillary rise
Temperature, K	Surface tension liquid-gas, N/m	uncertainty
298	0.0357	0.0005
303	0.0354	0.0005
308	0.035	0.0005
313	0.0347	0.0005
318	0.0343	0.0005
323	0.034	0.0005
328	0.0336	0.0005
333	0.0333	0.0005
338	0.0329	0.0005
343	0.0326	0.0005
348	0.0322	0.0005
353	0.0318	0.0005
358	0.0315	0.0005
363	0.0311	0.0005
368	0.0307	0.0005
373	0.0304	0.0005

System: triethylpentylammonium bis(trifluoromethylsulfonyl)imide; phases: Liquid
Fixed: Pressure, kPa = 101.325
Property: Viscosity, Pa*s (Liquid); method: Capillary tube (Ostwald; Ubbelohde) method
Temperature, K	Viscosity, Pa*s	uncertainty
298	0.1616	0.0108
303	0.1214	0.0087
308	0.09211	0.0063
313	0.07186	0.00458
318	0.05752	0.00346
323	0.04674	0.00276
328	0.03778	0.00219
333	0.03143	0.00172
338	0.02657	0.00142
343	0.02247	0.00118
348	0.01927	0.00099
353	0.01671	0.00082
358	0.01479	0.00073
363	0.01287	0.00063
368	0.0115	0.00055
373	0.01017	0.00049

System: N,N,N-triethyl-1-decanaminium 1,1,1-trifluoro-N-[(trifluoromethyl)sulfonyl]methanesulfonamide; phases: Liquid
Fixed: Pressure, kPa = 101.325
Property: Mass density, kg/m3 (Liquid); method: Pycnometric method
Temperature, K	Mass density, kg/m3	uncertainty
298	1218.1	2
303	1214.4	2
308	1210.8	2
313	1207.6	2
318	1203.5	2.1
323	1199.3	2
328	1195.8	2
333	1191.4	2
338	1187.9	2
343	1183.7	2
348	1180.2	2
353	1176.4	2
358	1172.9	2.1
363	1168.2	2.1
368	1164.7	2
373	1160.7	2.1

System: N,N,N-triethyl-1-decanaminium 1,1,1-trifluoro-N-[(trifluoromethyl)sulfonyl]methanesulfonamide; phases: Liquid, Air at 1 atmosphere
Property: Surface tension liquid-gas, N/m (Liquid); method: Capillary rise
Temperature, K	Surface tension liquid-gas, N/m	uncertainty
298	0.0324	0.0005
303	0.032	0.0005
308	0.0316	0.0005
313	0.0311	0.0005
318	0.0307	0.0005
323	0.0302	0.0005
328	0.0298	0.0005
333	0.0293	0.0005
338	0.029	0.0005
343	0.0285	0.0005
348	0.0281	0.0005
353	0.0276	0.0005
358	0.0273	0.0005
363	0.0269	0.0005
368	0.0264	0.0005
373	0.026	0.0005

System: N,N,N-triethyl-1-decanaminium 1,1,1-trifluoro-N-[(trifluoromethyl)sulfonyl]methanesulfonamide; phases: Liquid
Fixed: Pressure, kPa = 101.325
Property: Viscosity, Pa*s (Liquid); method: Capillary tube (Ostwald; Ubbelohde) method
Temperature, K	Viscosity, Pa*s	uncertainty
298	0.2819	0.0206
303	0.2054	0.0161
308	0.1527	0.0114
313	0.1151	0.008
318	0.08965	0.00582
323	0.07091	0.00432
328	0.05814	0.00341
333	0.04668	0.00272
338	0.03899	0.00213
343	0.03278	0.00178
348	0.02754	0.00149
353	0.02323	0.00121
358	0.02011	0.00101
363	0.01751	0.00087
368	0.01537	0.00075
373	0.01364	0.00066

System: N,N,N-triethyldodecan-1-aminium bis((trifluoromethyl)sulfonyl)amide; phases: Liquid
Fixed: Pressure, kPa = 101.325
Property: Mass density, kg/m3 (Liquid); method: Pycnometric method
Temperature, K	Mass density, kg/m3	uncertainty
298	1191.1	2
303	1187.1	2
308	1183.1	2
313	1179.4	2
318	1175.7	2
323	1171.6	2
328	1167.9	2
333	1164.2	2
338	1160.7	1.9
343	1157.2	2
348	1153.3	2
353	1149.5	2
358	1145.5	2
363	1141.4	2
368	1137.6	2
373	1133.7	2

System: N,N,N-triethyldodecan-1-aminium bis((trifluoromethyl)sulfonyl)amide; phases: Liquid, Air at 1 atmosphere
Property: Surface tension liquid-gas, N/m (Liquid); method: Capillary rise
Temperature, K	Surface tension liquid-gas, N/m	uncertainty
298	0.0318	0.0005
303	0.0313	0.0005
308	0.0309	0.0005
313	0.0303	0.0005
318	0.0299	0.0005
323	0.0295	0.0005
328	0.0291	0.0005
333	0.0285	0.0005
338	0.0282	0.0005
343	0.0277	0.0005
348	0.0272	0.0005
353	0.0268	0.0005
358	0.0264	0.0005
363	0.026	0.0005
368	0.0255	0.0005
373	0.0252	0.0005

System: N,N,N-triethyldodecan-1-aminium bis((trifluoromethyl)sulfonyl)amide; phases: Liquid
Fixed: Pressure, kPa = 101.325
Property: Viscosity, Pa*s (Liquid); method: Capillary tube (Ostwald; Ubbelohde) method
Temperature, K	Viscosity, Pa*s	uncertainty
298	0.3118	0.0229
303	0.2276	0.018
308	0.1677	0.0117
313	0.1378	0.0094
318	0.09882	0.00726
323	0.07871	0.0049
328	0.06252	0.00388
333	0.04982	0.00295
338	0.04148	0.00229
343	0.03469	0.00187
348	0.02944	0.00155
353	0.02513	0.00132
358	0.0213	0.00112
363	0.01831	0.0009
368	0.01651	0.0008
373	0.0142	0.00074
