Measured thermophysical data. Thermochemical properties of two mixed alkali-alkaline earth metal borates as non-linear optical materials: NaSrBO3 and KSr4B3O9
Source: J. Chem. Thermodyn., 2014, 10.1016/j.jct.2013.11.033
Compound 1: sodium, Na, InChI=1S/Na
Compound 2: strontium, Sr, InChI=1S/Sr
Compound 3: boron, B, InChI=1S/B
Compound 4: oxygen, O2, InChI=1S/O2/c1-2
Compound 5: potassium, K, InChI=1S/K
Compound 6: sodium strontium borate (NaSrBO3), BNaO3Sr, InChI=1S/BO3.Na.Sr/c2-1(3)4;;/q-3;+1;+2, purity 97%
Compound 7: potassium strontium borate (KSr4(BO3)3), B3KO9Sr4, InChI=1S/3BO3.K.4Sr/c3*2-1(3)4;;;;;/q3*-3;+1;4*+2, purity 97%
Compound 8: hydrogen chloride, ClH, InChI=1S/ClH/h1H
Compound 9: water, H2O, InChI=1S/H2O/h1H2, purity 98%

System: hydrogen chloride + water + sodium strontium borate (NaSrBO3); phases: Liquid
Property: Molar enthalpy of solution, kJ/mol (Liquid); method: Calvet calorimetry
Mole fraction of sodium strontium borate (NaSrBO3)	Pressure, kPa	Temperature, K	Solvent: Amount concentration (molarity), mol/dm3 of hydrogen chloride	Molar enthalpy of solution, kJ/mol	uncertainty
0	101	298.15	1	-206.84	1.6

System: hydrogen chloride + water + potassium strontium borate (KSr4(BO3)3); phases: Liquid
Property: Molar enthalpy of solution, kJ/mol (Liquid); method: Calvet calorimetry
Mole fraction of potassium strontium borate (KSr4(BO3)3)	Pressure, kPa	Temperature, K	Solvent: Amount concentration (molarity), mol/dm3 of hydrogen chloride	Molar enthalpy of solution, kJ/mol	uncertainty
0	101	298.15	1	-494.59	3.83

Reaction: -1 sodium + -1 strontium + -1 boron + 1 sodium strontium borate (NaSrBO3) + -1.5 oxygen
Property: Molar enthalpy of reaction, kJ/mol
-1653.1

Reaction: -1 potassium + -4 strontium + -3 boron + 1 potassium strontium borate (KSr4(BO3)3) + -4.5 oxygen
Property: Molar enthalpy of reaction, kJ/mol
-5071.1
