Measured thermophysical data. Partial molar volumes of organic solutes in water. XII. Methanol(aq), ethanol(aq), 1-propanol(aq), and 2-propanol(aq) at temperatures T = 298 K to 573 K and at pressures up to 30 MPa.
Source: J. Chem. Thermodyn., 2004, 10.1016/j.jct.2004.07.019
Compound 1: ethanol, C2H6O, InChI=1S/C2H6O/c1-2-3/h3H,2H2,1H3, purity 99.92%
Compound 2: propan-1-ol, C3H8O, InChI=1S/C3H8O/c1-2-3-4/h4H,2-3H2,1H3, purity 99.9%
Compound 3: propan-2-ol, C3H8O, InChI=1S/C3H8O/c1-3(2)4/h3-4H,1-2H3, purity 99.5%
Compound 4: water, H2O, InChI=1S/H2O/h1H2
Compound 5: methanol, CH4O, InChI=1S/CH4O/c1-2/h2H,1H3, purity 99.5%

System: methanol + water; phases: Liquid
Property: Mass density, kg/m3 (Liquid); method: Vibrating tube method
Temperature, K	Pressure, kPa	Molality, mol/kg of methanol	Mass density, kg/m3	uncertainty
298.16	14450	0.10243	-0.6308	0.0026
298.16	14450	0.19833	-1.2112	0.0032
298.16	14450	0.35111	-2.1094	0.0041
298.16	14450	0.52912	-3.1426	0.0051
298.16	14450	0.74847	-4.3834	0.0064
298.16	14450	0.98932	-5.7028	0.0077
298.16	29990	0.10243	-0.6321	0.0026
298.16	29990	0.19833	-1.2194	0.0032
298.16	29990	0.3511	-2.1329	0.0041
298.16	29990	0.52911	-3.1782	0.0052
298.16	29990	0.74846	-4.4341	0.0064
298.16	29990	0.98931	-5.7779	0.0078
298.16	14450	0.10243	-0.6295	0.0026
298.16	14450	0.19833	-1.2099	0.0032
298.16	14450	0.35111	-2.1093	0.0041
298.16	14450	0.52912	-3.1393	0.0051
298.16	14450	0.74847	-4.3805	0.0064
298.16	14450	0.98932	-5.7004	0.0077
298.16	29990	0.10243	-0.6313	0.0026
298.16	29990	0.19833	-1.2175	0.0032
298.16	29990	0.3511	-2.1317	0.0041
298.16	29990	0.52911	-3.1779	0.0052
298.16	29990	0.74846	-4.4325	0.0064
298.16	29990	0.98931	-5.7745	0.0078
298.16	14450	0.10243	-0.6288	0.0026
298.16	14450	0.19833	-1.2074	0.0032
298.16	14450	0.35111	-2.1083	0.0041
298.16	14450	0.52912	-3.1388	0.0051
298.16	14450	0.74847	-4.3797	0.0064
298.16	14450	0.98932	-5.6989	0.0077
298.16	29990	0.10243	-0.6295	0.0026
298.16	29990	0.19833	-1.2164	0.0032
298.16	29990	0.3511	-2.1309	0.0041
298.16	29990	0.52911	-3.1747	0.0052
298.16	29990	0.74846	-4.4298	0.0064
298.16	29990	0.98931	-5.7723	0.0078
298.24	400	0.07706	-0.4646	0.0025
298.24	400	0.10244	-0.6173	0.0026
298.24	400	0.10684	-0.6498	0.0026
298.24	400	0.19834	-1.1889	0.0032
298.24	400	0.35111	-2.0747	0.0041
298.24	400	0.35112	-2.0784	0.0041
298.24	400	0.52914	-3.0862	0.0051
298.24	400	0.52915	-3.0893	0.0051
298.24	400	0.74848	-4.3109	0.0063
298.24	400	0.7485	-4.3097	0.0063
298.24	400	0.98932	-5.6141	0.0076
298.24	400	0.98934	-5.6103	0.0076
298.24	400	0.07706	-0.4639	0.0025
298.24	400	0.10244	-0.6167	0.0026
298.24	400	0.10684	-0.6545	0.0027
298.24	400	0.19834	-1.1864	0.0032
298.24	400	0.35111	-2.0734	0.0041
298.24	400	0.52914	-3.0861	0.0051
298.24	400	0.52915	-3.0861	0.0051
298.24	400	0.74848	-4.3101	0.0063
298.24	400	0.07706	-0.4632	0.0025
298.24	400	0.10244	-0.6155	0.0026
298.24	400	0.19834	-1.186	0.0032
298.24	400	0.35111	-2.0731	0.0041
298.24	400	0.52914	-3.0853	0.0051
298.24	400	0.74848	-4.3085	0.0063
298.24	400	0.07706	-0.4694	0.0025
298.24	400	0.10244	-0.6199	0.0026
298.24	400	0.19834	-1.1858	0.0032
298.24	400	0.35111	-2.0727	0.0041
298.24	400	0.74848	-4.3064	0.0063
298.24	400	0.07706	-0.4686	0.0025
298.24	400	0.10244	-0.6199	0.0026
298.24	400	0.19834	-1.1915	0.0032
298.24	400	0.07706	-0.4669	0.0025
298.24	400	0.10244	-0.6193	0.0026
318.14	390	0.09689	-0.5929	0.0026
318.14	390	0.20874	-1.2609	0.0033
318.14	390	0.37471	-2.2359	0.0042
318.14	390	0.52947	-3.136	0.0051
318.14	390	0.71144	-4.175	0.0062
318.14	15370	0.09689	-0.598	0.0026
318.14	15370	0.20874	-1.2698	0.0033
318.14	15370	0.37472	-2.2504	0.0043
318.14	15370	0.52949	-3.1556	0.0052
318.14	15370	0.71146	-4.2	0.0062
318.14	390	0.09689	-0.5894	0.0026
318.14	390	0.20874	-1.2592	0.0033
318.14	390	0.37471	-2.2357	0.0042
318.14	390	0.52947	-3.1353	0.0051
318.14	390	0.71144	-4.174	0.0062
318.14	15370	0.09689	-0.5967	0.0026
318.14	15370	0.20874	-1.2693	0.0033
318.14	15370	0.37472	-2.2496	0.0042
318.14	15370	0.52949	-3.1554	0.0052
318.14	15370	0.71146	-4.1999	0.0062
318.14	390	0.09689	-0.5893	0.0026
318.14	390	0.20874	-1.2587	0.0033
318.14	390	0.37471	-2.2355	0.0042
318.14	390	0.52947	-3.1347	0.0051
318.14	390	0.71144	-4.1729	0.0062
318.14	15370	0.09689	-0.5958	0.0026
318.14	15370	0.20874	-1.2693	0.0033
318.14	15370	0.37472	-2.249	0.0042
318.14	15370	0.52949	-3.1552	0.0052
318.14	15370	0.71146	-4.1998	0.0062
318.15	29980	0.09818	-0.6024	0.0026
318.15	29980	0.20875	-1.2761	0.0033
318.15	29980	0.37474	-2.2578	0.0043
318.15	29980	0.5295	-3.1663	0.0052
318.15	29980	0.71149	-4.215	0.0062
318.15	29980	0.09818	-0.601	0.0026
318.15	29980	0.20875	-1.2759	0.0033
318.15	29980	0.37474	-2.2577	0.0043
318.15	29980	0.5295	-3.1655	0.0052
318.15	29980	0.71149	-4.2144	0.0062
318.15	29980	0.09818	-0.6009	0.0026
318.15	29980	0.20875	-1.2756	0.0033
318.15	29980	0.37474	-2.2576	0.0043
318.15	29980	0.5295	-3.1654	0.0052
318.15	29980	0.71149	-4.2139	0.0062
338.15	14810	0.10242	-0.6447	0.0026
338.15	14810	0.19831	-1.2238	0.0032
338.15	14810	0.35107	-2.1512	0.0042
338.15	14810	0.52904	-3.2152	0.0052
338.15	14810	0.7484	-4.5061	0.0065
338.15	14810	0.98922	-5.8941	0.0079
338.15	14810	0.10242	-0.6355	0.0026
338.15	14810	0.19831	-1.2236	0.0032
338.15	14810	0.35107	-2.1488	0.0041
338.15	14810	0.52904	-3.2148	0.0052
338.15	14810	0.7484	-4.506	0.0065
338.15	14810	0.98922	-5.8937	0.0079
338.15	14810	0.10242	-0.6333	0.0026
338.15	14810	0.19831	-1.2229	0.0032
338.15	14810	0.35107	-2.148	0.0041
338.15	14810	0.52904	-3.2122	0.0052
338.15	14810	0.7484	-4.5032	0.0065
338.15	14810	0.98922	-5.8926	0.0079
338.16	460	0.10243	-0.6416	0.0026
338.16	460	0.19833	-1.2317	0.0032
338.16	460	0.35109	-2.1594	0.0042
338.16	460	0.5291	-3.2284	0.0052
338.16	460	0.74844	-4.5251	0.0065
338.16	460	0.98929	-5.9152	0.0079
338.16	30210	0.09688	-0.6057	0.0026
338.16	30210	0.20872	-1.2915	0.0033
338.16	30210	0.37469	-2.2899	0.0043
338.16	30210	0.52944	-3.2148	0.0052
338.16	30210	0.71142	-4.2846	0.0063
338.16	460	0.10243	-0.6376	0.0026
338.16	460	0.19833	-1.2307	0.0032
338.16	460	0.35109	-2.157	0.0042
338.16	460	0.5291	-3.227	0.0052
338.16	460	0.74844	-4.5244	0.0065
338.16	460	0.98929	-5.9141	0.0079
338.16	30210	0.09688	-0.6053	0.0026
338.16	30210	0.20872	-1.2908	0.0033
338.16	30210	0.37469	-2.2898	0.0043
338.16	30210	0.52944	-3.2147	0.0052
338.16	30210	0.71142	-4.2842	0.0063
338.16	460	0.10243	-0.6372	0.0026
338.16	460	0.19833	-1.2301	0.0032
338.16	460	0.35109	-2.1563	0.0042
338.16	460	0.5291	-3.2252	0.0052
338.16	460	0.74844	-4.5218	0.0065
338.16	460	0.98929	-5.9139	0.0079
338.16	30210	0.09688	-0.6051	0.0026
338.16	30210	0.20872	-1.2904	0.0033
338.16	30210	0.37469	-2.2897	0.0043
338.16	30210	0.52944	-3.2138	0.0052
338.16	30210	0.71142	-4.2841	0.0063
373.17	2090	0.10241	-0.6808	0.0027
373.17	2090	0.1983	-1.3111	0.0033
373.17	2090	0.35105	-2.301	0.0043
373.17	2090	0.49053	-3.2003	0.0052
373.17	2090	0.72705	-4.7004	0.0067
373.17	2090	0.98918	-6.3373	0.0083
373.17	14890	0.094	-0.6126	0.0026
373.17	14890	0.19829	-1.2921	0.0033
373.17	14890	0.35104	-2.2713	0.0043
373.17	14890	0.49053	-3.1616	0.0052
373.17	14890	0.72704	-4.6403	0.0066
373.17	14890	0.98915	-6.2575	0.0083
373.17	30120	0.09399	-0.6103	0.0026
373.17	30120	0.24565	-1.5793	0.0036
373.17	30120	0.36257	-2.3208	0.0043
373.17	30120	0.49052	-3.1291	0.0051
373.17	30120	0.72703	-4.5889	0.0066
373.17	30120	1.0111	-6.3192	0.0083
373.17	2090	0.10241	-0.6805	0.0027
373.17	2090	0.1983	-1.3108	0.0033
373.17	2090	0.35105	-2.3002	0.0043
373.17	2090	0.49053	-3.2003	0.0052
373.17	2090	0.72705	-4.7002	0.0067
373.17	2090	0.98918	-6.3365	0.0083
373.17	14890	0.094	-0.611	0.0026
373.17	14890	0.19829	-1.292	0.0033
373.17	14890	0.35104	-2.2708	0.0043
373.17	14890	0.49053	-3.1587	0.0052
373.17	14890	0.72704	-4.6395	0.0066
373.17	14890	0.98915	-6.257	0.0083
373.17	30120	0.09399	-0.6089	0.0026
373.17	30120	0.24565	-1.5786	0.0036
373.17	30120	0.36257	-2.3179	0.0043
373.17	30120	0.49052	-3.1265	0.0051
373.17	30120	0.72703	-4.588	0.0066
373.17	30120	1.0111	-6.3187	0.0083
373.17	2090	0.10241	-0.6788	0.0027
373.17	2090	0.1983	-1.31	0.0033
373.17	2090	0.35105	-2.2993	0.0043
373.17	2090	0.49053	-3.2	0.0052
373.17	2090	0.72705	-4.6995	0.0067
373.17	2090	0.98918	-6.3363	0.0083
373.17	14890	0.094	-0.6107	0.0026
373.17	14890	0.19829	-1.2891	0.0033
373.17	14890	0.35104	-2.2705	0.0043
373.17	14890	0.49053	-3.158	0.0052
373.17	14890	0.72704	-4.6388	0.0066
373.17	14890	0.98915	-6.2554	0.0083
373.17	30120	0.09399	-0.6082	0.0026
373.17	30120	0.24565	-1.577	0.0036
373.17	30120	0.36257	-2.317	0.0043
373.17	30120	0.49052	-3.1261	0.0051
373.17	30120	0.72703	-4.5861	0.0066
373.17	30120	1.0111	-6.3179	0.0083
408.15	2070	0.09399	-0.6745	0.0027
408.15	2070	0.24565	-1.7472	0.0037
408.15	2070	0.36256	-2.5719	0.0046
408.15	2070	0.49051	-3.4644	0.0055
408.15	2070	0.72702	-5.0929	0.0071
408.15	2070	1.01108	-7.021	0.009
408.15	15000	0.09399	-0.6626	0.0027
408.15	15000	0.24565	-1.7122	0.0037
408.15	15000	0.36256	-2.5181	0.0045
408.15	15000	0.49051	-3.3921	0.0054
408.15	15000	0.727	-4.9866	0.007
408.15	15000	1.01107	-6.8718	0.0089
408.15	2070	0.09399	-0.6735	0.0027
408.15	2070	0.24565	-1.7465	0.0037
408.15	2070	0.36256	-2.5715	0.0046
408.15	2070	0.49051	-3.4632	0.0055
408.15	2070	0.72702	-5.0929	0.0071
408.15	2070	1.01108	-7.0201	0.009
408.15	15000	0.09399	-0.6623	0.0027
408.15	15000	0.24565	-1.711	0.0037
408.15	15000	0.36256	-2.5177	0.0045
408.15	15000	0.49051	-3.3921	0.0054
408.15	15000	0.727	-4.9854	0.007
408.15	15000	1.01107	-6.8717	0.0089
408.15	2070	0.09399	-0.6721	0.0027
408.15	2070	0.24565	-1.7457	0.0037
408.15	2070	0.36256	-2.5704	0.0046
408.15	2070	0.49051	-3.4629	0.0055
408.15	2070	0.72702	-5.0918	0.0071
408.15	2070	1.01108	-7.0201	0.009
408.15	15000	0.09399	-0.6616	0.0027
408.15	15000	0.24565	-1.7107	0.0037
408.15	15000	0.36256	-2.5175	0.0045
408.15	15000	0.49051	-3.3918	0.0054
408.15	15000	0.727	-4.9835	0.007
408.15	15000	1.01107	-6.8707	0.0089
408.16	30030	0.09399	-0.6475	0.0026
408.16	30030	0.24564	-1.6779	0.0037
408.16	30030	0.36255	-2.466	0.0045
408.16	30030	0.49049	-3.3229	0.0053
408.16	30030	0.72699	-4.8793	0.0069
408.16	30030	1.01105	-6.7246	0.0087
408.16	30030	0.09399	-0.6452	0.0026
408.16	30030	0.24564	-1.6761	0.0037
408.16	30030	0.36255	-2.4642	0.0045
408.16	30030	0.49049	-3.3199	0.0053
408.16	30030	0.72699	-4.8789	0.0069
408.16	30030	1.01105	-6.7224	0.0087
408.16	30030	0.09399	-0.644	0.0026
408.16	30030	0.24564	-1.6751	0.0037
408.16	30030	0.36255	-2.4636	0.0045
408.16	30030	0.49049	-3.319	0.0053
408.16	30030	0.72699	-4.8775	0.0069
408.16	30030	1.01105	-6.7209	0.0087
443.16	30320	0.09398	-0.6843	0.0027
443.16	30320	0.24562	-1.7822	0.0038
443.16	30320	0.36252	-2.6249	0.0046
443.16	30320	0.49044	-3.537	0.0055
443.16	30320	0.72691	-5.2432	0.0072
443.16	30320	1.01097	-7.1798	0.0092
443.16	30320	0.09398	-0.6829	0.0027
443.16	30320	0.24562	-1.7819	0.0038
443.16	30320	0.36252	-2.6241	0.0046
443.16	30320	0.49044	-3.5369	0.0055
443.16	30320	0.72691	-5.2399	0.0072
443.16	30320	1.01097	-7.1763	0.0092
443.16	30320	0.49044	-3.5367	0.0055
443.16	30320	0.72691	-5.2387	0.0072
443.16	30320	1.01097	-7.1738	0.0092
443.17	2040	0.09399	-0.7347	0.0027
443.17	2040	0.24564	-1.9112	0.0039
443.17	2040	0.36254	-2.8114	0.0048
443.17	2040	0.49048	-3.7896	0.0058
443.17	2040	0.72696	-5.5792	0.0076
443.17	2040	1.01102	-7.6944	0.0097
443.17	14920	0.09398	-0.7098	0.0027
443.17	14920	0.24563	-1.848	0.0038
443.17	14920	0.36253	-2.7204	0.0047
443.17	14920	0.49046	-3.6656	0.0057
443.17	14920	0.72693	-5.435	0.0074
443.17	14920	1.01099	-7.4408	0.0094
443.17	2040	0.09399	-0.7337	0.0027
443.17	2040	0.24564	-1.9099	0.0039
443.17	2040	0.36254	-2.8112	0.0048
443.17	2040	0.49048	-3.7891	0.0058
443.17	2040	0.72696	-5.5772	0.0076
443.17	2040	1.01102	-7.6922	0.0097
443.17	14920	0.09398	-0.7092	0.0027
443.17	14920	0.24563	-1.8473	0.0038
443.17	14920	0.36253	-2.7193	0.0047
443.17	14920	0.49046	-3.6655	0.0057
443.17	14920	0.72693	-5.4347	0.0074
443.17	14920	1.01099	-7.4395	0.0094
443.17	2040	0.09399	-0.7315	0.0027
443.17	2040	0.24564	-1.9097	0.0039
443.17	2040	0.36254	-2.8094	0.0048
443.17	2040	0.49048	-3.788	0.0058
443.17	2040	0.72696	-5.5762	0.0076
443.17	2040	1.01102	-7.6916	0.0097
443.17	14920	0.09398	-0.7087	0.0027
443.17	14920	0.24563	-1.8469	0.0038
443.17	14920	0.36253	-2.7171	0.0047
443.17	14920	0.49046	-3.6648	0.0057
443.17	14920	0.72693	-5.4331	0.0074
443.17	14920	1.01099	-7.4388	0.0094
473.16	2750	0.09398	-0.7987	0.0028
473.16	2750	0.24561	-2.078	0.0041
473.16	2750	0.36251	-3.0588	0.0051
473.16	2750	0.49042	-4.1203	0.0061
473.16	2750	0.72687	-6.0713	0.0081
473.16	2750	1.01093	-8.3743	0.0104
473.16	15010	0.10575	-0.8608	0.0029
473.16	15010	0.24561	-1.9915	0.004
473.16	15010	0.3625	-2.9291	0.0049
473.16	15010	0.49039	-3.9482	0.0059
473.16	15010	0.72682	-5.8173	0.0078
473.16	15010	1.0109	-8.0216	0.01
473.16	30060	0.10575	-0.8249	0.0028
473.16	30060	0.20507	-1.5972	0.0036
473.16	30060	0.36462	-2.8264	0.0048
473.16	30060	0.52223	-4.0288	0.006
473.16	30060	0.70735	-5.4252	0.0074
473.16	30060	1.01641	-7.7256	0.0097
473.16	2750	0.09398	-0.7984	0.0028
473.16	2750	0.24561	-2.0774	0.0041
473.16	2750	0.36251	-3.0561	0.0051
473.16	2750	0.49042	-4.1191	0.0061
473.16	2750	0.72687	-6.0697	0.0081
473.16	2750	1.01093	-8.3737	0.0104
473.16	15010	0.10575	-0.8604	0.0029
473.16	15010	0.24561	-1.9914	0.004
473.16	15010	0.3625	-2.9285	0.0049
473.16	15010	0.49039	-3.948	0.0059
473.16	15010	0.72682	-5.8149	0.0078
473.16	15010	1.0109	-8.0208	0.01
473.16	30060	0.10575	-0.8249	0.0028
473.16	30060	0.20507	-1.5972	0.0036
473.16	30060	0.36462	-2.8252	0.0048
473.16	30060	0.52223	-4.0266	0.006
473.16	30060	0.70735	-5.4239	0.0074
473.16	30060	1.01641	-7.7233	0.0097
473.16	2750	0.09398	-0.7983	0.0028
473.16	2750	0.24561	-2.0773	0.0041
473.16	2750	0.36251	-3.0542	0.0051
473.16	2750	0.49042	-4.1191	0.0061
473.16	2750	0.72687	-6.0688	0.0081
473.16	2750	1.01093	-8.3734	0.0104
473.16	15010	0.10575	-0.8604	0.0029
473.16	15010	0.24561	-1.9911	0.004
473.16	15010	0.3625	-2.9278	0.0049
473.16	15010	0.49039	-3.9479	0.0059
473.16	15010	0.72682	-5.814	0.0078
473.16	15010	1.0109	-8.0195	0.01
473.16	30060	0.10575	-0.8231	0.0028
473.16	30060	0.20507	-1.5959	0.0036
473.16	30060	0.36462	-2.8243	0.0048
473.16	30060	0.52223	-4.0261	0.006
473.16	30060	0.70735	-5.4236	0.0074
498.15	3840	0.10575	-0.9741	0.003
498.15	3840	0.20507	-1.8827	0.0039
498.15	3840	0.36462	-3.3288	0.0053
498.15	3840	0.52222	-4.7456	0.0067
498.15	3840	0.70734	-6.3969	0.0084
498.15	3840	1.0164	-9.1182	0.0111
498.15	15030	0.10574	-0.9257	0.0029
498.15	15030	0.20506	-1.7907	0.0038
498.15	15030	0.3646	-3.1655	0.0052
498.15	15030	0.5222	-4.5078	0.0065
498.15	15030	0.70731	-6.0781	0.0081
498.15	15030	1.01635	-8.6519	0.0107
498.15	30150	0.10574	-0.8817	0.0029
498.15	30150	0.10575	-0.8713	0.0029
498.15	30150	0.20507	-1.6895	0.0037
498.15	30150	0.36461	-2.9946	0.005
498.15	30150	0.52221	-4.2585	0.0063
498.15	30150	0.70732	-5.7414	0.0077
498.15	30150	1.01637	-8.1703	0.0102
498.15	3840	0.10575	-0.9725	0.003
498.15	3840	0.20507	-1.8813	0.0039
498.15	3840	0.36462	-3.3287	0.0053
498.15	3840	0.52222	-4.7452	0.0067
498.15	3840	0.70734	-6.3954	0.0084
498.15	3840	1.0164	-9.1144	0.0111
498.15	15030	0.10574	-0.9246	0.0029
498.15	15030	0.20506	-1.7869	0.0038
498.15	15030	0.3646	-3.1652	0.0052
498.15	15030	0.5222	-4.5053	0.0065
498.15	15030	0.70731	-6.0773	0.0081
498.15	15030	1.01635	-8.6493	0.0106
498.15	30150	0.10574	-0.8743	0.0029
498.15	30150	0.10575	-0.8706	0.0029
498.15	30150	0.20507	-1.6876	0.0037
498.15	30150	0.36461	-2.9894	0.005
498.15	30150	0.52221	-4.2514	0.0063
498.15	30150	0.70732	-5.7374	0.0077
498.15	30150	1.01637	-8.1666	0.0102
498.15	3840	0.10575	-0.9656	0.003
498.15	3840	0.20507	-1.8809	0.0039
498.15	3840	0.36462	-3.3274	0.0053
498.15	3840	0.52222	-4.7421	0.0067
498.15	3840	0.70734	-6.3939	0.0084
498.15	3840	1.0164	-9.112	0.0111
498.15	15030	0.10574	-0.9218	0.0029
498.15	15030	0.20506	-1.7852	0.0038
498.15	15030	0.3646	-3.1641	0.0052
498.15	15030	0.5222	-4.5024	0.0065
498.15	15030	0.70731	-6.0773	0.0081
498.15	15030	1.01635	-8.6485	0.0106
498.15	30150	0.20507	-1.6771	0.0037
498.15	30150	0.36461	-2.9843	0.005
498.15	30150	0.52221	-4.251	0.0063
498.15	30150	0.70732	-5.7358	0.0077
498.15	30150	1.01637	-8.1605	0.0102
523.14	5880	0.10574	-1.061	0.0031
523.14	5880	0.20506	-2.0516	0.0041
523.14	5880	0.36458	-3.6332	0.0056
523.14	5880	0.52219	-5.1785	0.0072
523.14	5880	0.70729	-6.9812	0.009
523.14	5880	1.01632	-9.9531	0.012
523.14	15600	0.10574	-0.9939	0.003
523.14	15600	0.20505	-1.9281	0.0039
523.14	15600	0.36458	-3.4146	0.0054
523.14	15600	0.52217	-4.8684	0.0069
523.14	15600	0.70727	-6.5644	0.0086
523.14	15600	1.01629	-9.3473	0.0113
523.14	30090	0.10573	-0.9292	0.0029
523.14	30090	0.20504	-1.7985	0.0038
523.14	30090	0.36457	-3.1827	0.0052
523.14	30090	0.52215	-4.5331	0.0065
523.14	30090	0.70725	-6.1072	0.0081
523.14	30090	1.01627	-8.6936	0.0107
523.14	5880	0.10574	-1.0595	0.0031
523.14	5880	0.20506	-2.0502	0.0041
523.14	5880	0.36458	-3.6305	0.0056
523.14	5880	0.52219	-5.1772	0.0072
523.14	5880	0.70729	-6.9808	0.009
523.14	5880	1.01632	-9.9525	0.012
523.14	15600	0.10574	-0.9938	0.003
523.14	15600	0.20505	-1.9273	0.0039
523.14	15600	0.36458	-3.4137	0.0054
523.14	15600	0.52217	-4.868	0.0069
523.14	15600	0.70727	-6.5617	0.0086
523.14	15600	1.01629	-9.3454	0.0113
523.14	30090	0.10573	-0.9284	0.0029
523.14	30090	0.20504	-1.7979	0.0038
523.14	30090	0.36457	-3.1811	0.0052
523.14	30090	0.52215	-4.5325	0.0065
523.14	30090	0.70725	-6.1066	0.0081
523.14	30090	1.01627	-8.6934	0.0107
523.14	5880	0.10574	-1.0594	0.0031
523.14	5880	0.20506	-2.049	0.004
523.14	5880	0.36458	-3.6303	0.0056
523.14	5880	0.52219	-5.1768	0.0072
523.14	5880	0.70729	-6.9807	0.009
523.14	5880	1.01632	-9.9523	0.012
523.14	15600	0.10574	-0.993	0.003
523.14	15600	0.20505	-1.926	0.0039
523.14	15600	0.36458	-3.4135	0.0054
523.14	15600	0.52217	-4.867	0.0069
523.14	15600	0.70727	-6.5613	0.0086
523.14	15600	1.01629	-9.3352	0.0113
523.14	30090	0.10573	-0.9275	0.0029
523.14	30090	0.20504	-1.797	0.0038
523.14	30090	0.36457	-3.1789	0.0052
523.14	30090	0.52215	-4.5324	0.0065
523.14	30090	0.70725	-6.1058	0.0081
523.14	30090	1.01627	-8.6934	0.0107
548.16	8000	0.09819	-1.096	0.0031
548.16	8000	0.20503	-2.2814	0.0043
548.16	8000	0.36455	-4.0416	0.006
548.16	8000	0.52213	-5.7653	0.0078
548.16	8000	0.70722	-7.7779	0.0098
548.16	8000	1.01623	-11.0973	0.0131
548.16	15970	0.09819	-1.0211	0.003
548.16	15970	0.20502	-2.1263	0.0041
548.16	15970	0.36453	-3.7633	0.0058
548.16	15970	0.52211	-5.3608	0.0074
548.16	15970	0.70719	-7.2272	0.0092
548.16	15970	1.01618	-10.2986	0.0123
548.16	30120	0.09819	-0.928	0.0029
548.16	30120	0.20877	-1.9674	0.004
548.16	30120	0.37477	-3.507	0.0055
548.16	30120	0.52208	-4.8594	0.0069
548.16	30120	0.70715	-6.5442	0.0085
548.16	30120	1.04694	-9.5934	0.0116
548.16	8000	0.09819	-1.0958	0.0031
548.16	8000	0.20503	-2.2806	0.0043
548.16	8000	0.36455	-4.041	0.006
548.16	8000	0.52213	-5.765	0.0078
548.16	8000	0.70722	-7.776	0.0098
548.16	8000	1.01623	-11.0921	0.0131
548.16	15970	0.09819	-1.0211	0.003
548.16	15970	0.20502	-2.1235	0.0041
548.16	15970	0.36453	-3.7603	0.0058
548.16	15970	0.52211	-5.3602	0.0074
548.16	15970	0.70719	-7.2271	0.0092
548.16	15970	1.01618	-10.2979	0.0123
548.16	30120	0.09819	-0.9279	0.0029
548.16	30120	0.20877	-1.9656	0.004
548.16	30120	0.37477	-3.5027	0.0055
548.16	30120	0.52208	-4.8591	0.0069
548.16	30120	0.70715	-6.5437	0.0085
548.16	30120	1.04694	-9.591	0.0116
548.16	8000	0.09819	-1.0956	0.0031
548.16	8000	0.20503	-2.2794	0.0043
548.16	8000	0.36455	-4.0407	0.006
548.16	8000	0.52213	-5.7645	0.0078
548.16	8000	0.70722	-7.7754	0.0098
548.16	8000	1.01623	-11.091	0.0131
548.16	15970	0.09819	-1.0204	0.003
548.16	15970	0.20502	-2.1231	0.0041
548.16	15970	0.52211	-5.359	0.0074
548.16	15970	0.70719	-7.2269	0.0092
548.16	15970	1.01618	-10.2972	0.0123
548.16	30120	0.09819	-0.9253	0.0029
548.16	30120	0.20877	-1.9651	0.004
548.16	30120	0.37477	-3.502	0.0055
548.16	30120	0.52208	-4.8568	0.0069
548.16	30120	0.70715	-6.5425	0.0085
548.16	30120	1.04694	-9.5898	0.0116
573.15	10140	0.09819	-1.2862	0.0033
573.15	10140	0.20877	-2.6994	0.0047
573.15	10140	0.37476	-4.8275	0.0068
573.15	10140	0.52954	-6.7967	0.0088
573.15	10140	0.71154	-9.0998	0.0111
573.15	10140	1.04693	-13.3065	0.0153
573.15	17990	0.09818	-1.1343	0.0031
573.15	17990	0.20876	-2.4073	0.0044
573.15	17990	0.37476	-4.3052	0.0063
573.15	17990	0.52953	-6.0605	0.0081
573.15	17990	0.71153	-8.1029	0.0101
573.15	17990	1.0469	-11.8248	0.0138
573.15	30110	0.09818	-1.0068	0.003
573.15	30110	0.20876	-2.1313	0.0041
573.15	30110	0.37475	-3.8044	0.0058
573.15	30110	0.52952	-5.3572	0.0074
573.15	30110	0.71151	-7.1571	0.0092
573.15	30110	1.04688	-10.4269	0.0124
573.15	10140	0.09819	-1.2736	0.0033
573.15	10140	0.20877	-2.6939	0.0047
573.15	10140	0.37476	-4.8201	0.0068
573.15	10140	0.52954	-6.79	0.0088
573.15	10140	0.71154	-9.0913	0.0111
573.15	10140	1.04693	-13.3035	0.0153
573.15	17990	0.09818	-1.1328	0.0031
573.15	17990	0.20876	-2.4071	0.0044
573.15	17990	0.37476	-4.3044	0.0063
573.15	17990	0.52953	-6.0579	0.0081
573.15	17990	0.71153	-8.1027	0.0101
573.15	17990	1.0469	-11.824	0.0138
573.15	30110	0.09818	-1.0059	0.003
573.15	30110	0.20876	-2.1293	0.0041
573.15	30110	0.37475	-3.8044	0.0058
573.15	30110	0.52952	-5.3538	0.0074
573.15	30110	0.71151	-7.1551	0.0092
573.15	30110	1.04688	-10.4238	0.0124
573.15	10140	0.09819	-1.2695	0.0033
573.15	10140	0.20877	-2.6914	0.0047
573.15	10140	0.37476	-4.8171	0.0068
573.15	10140	0.52954	-6.7885	0.0088
573.15	10140	0.71154	-9.0884	0.0111
573.15	10140	1.04693	-13.2994	0.0153
573.15	17990	0.09818	-1.1328	0.0031
573.15	17990	0.20876	-2.4045	0.0044
573.15	17990	0.37476	-4.3008	0.0063
573.15	17990	0.52953	-6.0557	0.0081
573.15	17990	0.71153	-8.0991	0.0101
573.15	17990	1.0469	-11.8223	0.0138
573.15	30110	0.09818	-1.0044	0.003
573.15	30110	0.20876	-2.1267	0.0041
573.15	30110	0.37475	-3.8041	0.0058
573.15	30110	0.52952	-5.3532	0.0074
573.15	30110	0.71151	-7.1541	0.0092
573.15	30110	1.04688	-10.4212	0.0124

System: ethanol + water; phases: Liquid
Property: Mass density, kg/m3 (Liquid); method: Vibrating tube method
Temperature, K	Pressure, kPa	Molality, mol/kg of ethanol	Mass density, kg/m3	uncertainty
298.15	410	0.09647	-0.8568	0.0029
298.15	410	0.20059	-1.7454	0.0037
298.15	410	0.33561	-2.8671	0.0049
298.15	410	0.51109	-4.274	0.0063
298.15	410	0.6906	-5.6583	0.0077
298.15	410	0.94275	-7.4996	0.0095
298.15	14450	0.09647	-0.8784	0.0029
298.15	14450	0.20059	-1.7914	0.0038
298.15	14450	0.33561	-2.9476	0.0049
298.15	14450	0.51109	-4.3929	0.0064
298.15	14450	0.69059	-5.8101	0.0078
298.15	14450	0.94273	-7.71	0.0097
298.15	410	0.09647	-0.8546	0.0029
298.15	410	0.20059	-1.743	0.0037
298.15	410	0.33561	-2.8662	0.0049
298.15	410	0.51109	-4.2722	0.0063
298.15	410	0.6906	-5.6546	0.0077
298.15	410	0.94275	-7.4959	0.0095
298.15	14450	0.09647	-0.874	0.0029
298.15	14450	0.20059	-1.7882	0.0038
298.15	14450	0.33561	-2.9413	0.0049
298.15	14450	0.51109	-4.3871	0.0064
298.15	14450	0.69059	-5.8096	0.0078
298.15	14450	0.94273	-7.7053	0.0097
298.15	410	0.09647	-0.8532	0.0029
298.15	410	0.20059	-1.7427	0.0037
298.15	410	0.33561	-2.8653	0.0049
298.15	410	0.51109	-4.2719	0.0063
298.15	410	0.6906	-5.6524	0.0077
298.15	410	0.94275	-7.4954	0.0095
298.15	14450	0.09647	-0.874	0.0029
298.15	14450	0.20059	-1.7881	0.0038
298.15	14450	0.33561	-2.9406	0.0049
298.15	14450	0.51109	-4.3863	0.0064
298.15	14450	0.69059	-5.8085	0.0078
298.15	14450	0.94273	-7.7051	0.0097
298.18	29930	0.09646	-0.9032	0.0029
298.18	29930	0.20059	-1.8415	0.0038
298.18	29930	0.3356	-3.0246	0.005
298.18	29930	0.51108	-4.5178	0.0065
298.18	29930	0.69058	-5.9743	0.008
298.18	29930	0.94271	-7.9243	0.0099
298.18	29930	0.09646	-0.9031	0.0029
298.18	29930	0.20059	-1.8399	0.0038
298.18	29930	0.3356	-3.0242	0.005
298.18	29930	0.51108	-4.5118	0.0065
298.18	29930	0.69058	-5.9738	0.008
298.18	29930	0.94271	-7.9243	0.0099
298.18	29930	0.09646	-0.9011	0.0029
298.18	29930	0.20059	-1.8389	0.0038
298.18	29930	0.3356	-3.0225	0.005
298.18	29930	0.51108	-4.511	0.0065
298.18	29930	0.69058	-5.9732	0.008
298.18	29930	0.94271	-7.9233	0.0099
318.14	390	0.08808	-0.7811	0.0028
318.14	390	0.19241	-1.6839	0.0037
318.14	390	0.36954	-3.1808	0.0052
318.14	390	0.55206	-4.6779	0.0067
318.14	15370	0.08808	-0.7955	0.0028
318.14	15370	0.19242	-1.7129	0.0037
318.14	15370	0.36955	-3.2339	0.0052
318.14	15370	0.55207	-4.7543	0.0068
318.14	390	0.08808	-0.7809	0.0028
318.14	390	0.19241	-1.6839	0.0037
318.14	390	0.36954	-3.1804	0.0052
318.14	390	0.55206	-4.6778	0.0067
318.14	15370	0.08808	-0.7952	0.0028
318.14	15370	0.19242	-1.7123	0.0037
318.14	15370	0.36955	-3.2338	0.0052
318.14	15370	0.55207	-4.7536	0.0068
318.14	390	0.08808	-0.7809	0.0028
318.14	390	0.19241	-1.6832	0.0037
318.14	390	0.55206	-4.6775	0.0067
318.14	15370	0.08808	-0.7943	0.0028
318.14	15370	0.36955	-3.233	0.0052
318.14	15370	0.55207	-4.7536	0.0068
318.15	29980	0.08809	-0.807	0.0028
318.15	29980	0.19242	-1.7349	0.0037
318.15	29980	0.36956	-3.2756	0.0053
318.15	29980	0.55208	-4.8174	0.0068
318.15	29980	0.08809	-0.8069	0.0028
318.15	29980	0.19242	-1.7346	0.0037
318.15	29980	0.36956	-3.2754	0.0053
318.15	29980	0.55208	-4.8167	0.0068
318.15	29980	0.08809	-0.8061	0.0028
318.15	29980	0.19242	-1.7342	0.0037
318.15	29980	0.36956	-3.2754	0.0053
318.15	29980	0.55208	-4.8167	0.0068
338.15	510	0.09646	-0.8829	0.0029
338.15	510	0.20058	-1.8103	0.0038
338.15	510	0.33559	-2.9944	0.005
338.15	510	0.51107	-4.5021	0.0065
338.15	510	0.69057	-6.011	0.008
338.15	510	0.9427	-8.0628	0.0101
338.15	14860	0.09646	-0.889	0.0029
338.15	14860	0.20057	-1.827	0.0038
338.15	14860	0.33557	-3.014	0.005
338.15	14860	0.51104	-4.5301	0.0065
338.15	14860	0.69053	-6.0707	0.0081
338.15	14860	0.94264	-8.1024	0.0101
338.15	510	0.09646	-0.8798	0.0029
338.15	510	0.20058	-1.8103	0.0038
338.15	510	0.33559	-2.9935	0.005
338.15	510	0.51107	-4.5018	0.0065
338.15	510	0.69057	-6.0106	0.008
338.15	510	0.9427	-8.0623	0.0101
338.15	14860	0.09646	-0.8878	0.0029
338.15	14860	0.20057	-1.8247	0.0038
338.15	14860	0.33557	-3.0136	0.005
338.15	14860	0.51104	-4.5293	0.0065
338.15	14860	0.69053	-6.0695	0.0081
338.15	14860	0.94264	-8.101	0.0101
338.15	510	0.09646	-0.8794	0.0029
338.15	510	0.20058	-1.8098	0.0038
338.15	510	0.33559	-2.9927	0.005
338.15	510	0.51107	-4.5014	0.0065
338.15	510	0.69057	-6.0098	0.008
338.15	510	0.9427	-8.0621	0.0101
338.15	14860	0.09646	-0.8864	0.0029
338.15	14860	0.20057	-1.8236	0.0038
338.15	14860	0.33557	-3.013	0.005
338.15	14860	0.51104	-4.5292	0.0065
338.15	14860	0.69053	-6.0691	0.0081
338.15	14860	0.94264	-8.0995	0.0101
338.16	30230	0.10088	-0.9338	0.0029
338.16	30230	0.19239	-1.7579	0.0038
338.16	30230	0.36953	-3.3286	0.0053
338.16	30230	0.55204	-4.909	0.0069
338.16	30230	0.10088	-0.9335	0.0029
338.16	30230	0.19239	-1.7566	0.0038
338.16	30230	0.36953	-3.3282	0.0053
338.16	30230	0.55204	-4.9074	0.0069
373.17	2090	0.09645	-0.9483	0.0029
373.17	2090	0.20057	-1.9585	0.004
373.17	2090	0.33556	-3.2498	0.0052
373.17	2090	0.51103	-4.9085	0.0069
373.17	2090	0.69052	-6.5726	0.0086
373.17	2090	0.94262	-8.8555	0.0109
373.17	14860	0.09645	-0.9395	0.0029
373.17	14860	0.20056	-1.9421	0.0039
373.17	14860	0.33555	-3.2231	0.0052
373.17	14860	0.511	-4.8653	0.0069
373.17	14860	0.69049	-6.5157	0.0085
373.17	14860	0.94259	-8.7729	0.0108
373.17	30110	0.09645	-0.9366	0.0029
373.17	30110	0.20055	-1.9322	0.0039
373.17	30110	0.33553	-3.2024	0.0052
373.17	30110	0.51099	-4.8303	0.0068
373.17	30110	0.69045	-6.4705	0.0085
373.17	30110	0.94256	-8.7019	0.0107
373.17	2090	0.09645	-0.948	0.0029
373.17	2090	0.20057	-1.9583	0.004
373.17	2090	0.33556	-3.2486	0.0052
373.17	2090	0.51103	-4.9056	0.0069
373.17	2090	0.69052	-6.5725	0.0086
373.17	2090	0.94262	-8.8549	0.0109
373.17	14860	0.09645	-0.9387	0.0029
373.17	14860	0.20056	-1.9409	0.0039
373.17	14860	0.33555	-3.2218	0.0052
373.17	14860	0.511	-4.8625	0.0069
373.17	14860	0.69049	-6.5153	0.0085
373.17	14860	0.94259	-8.7728	0.0108
373.17	30110	0.09645	-0.936	0.0029
373.17	30110	0.20055	-1.9322	0.0039
373.17	30110	0.33553	-3.2023	0.0052
373.17	30110	0.51099	-4.8303	0.0068
373.17	30110	0.69045	-6.4691	0.0085
373.17	30110	0.94256	-8.7019	0.0107
373.17	2090	0.09645	-0.9474	0.0029
373.17	2090	0.20057	-1.9579	0.004
373.17	2090	0.33556	-3.2475	0.0052
373.17	2090	0.51103	-4.9055	0.0069
373.17	2090	0.69052	-6.5712	0.0086
373.17	2090	0.94262	-8.854	0.0109
373.17	14860	0.09645	-0.9386	0.0029
373.17	14860	0.20056	-1.9402	0.0039
373.17	14860	0.33555	-3.2216	0.0052
373.17	14860	0.511	-4.862	0.0069
373.17	14860	0.69049	-6.515	0.0085
373.17	14860	0.94259	-8.7725	0.0108
373.17	30110	0.09645	-0.9356	0.0029
373.17	30110	0.20055	-1.932	0.0039
373.17	30110	0.33553	-3.2015	0.0052
373.17	30110	0.51099	-4.8243	0.0068
373.17	30110	0.69045	-6.469	0.0085
373.17	30110	0.94256	-8.7018	0.0107
408.15	2040	0.09572	-1.0328	0.003
408.15	2040	0.20419	-2.1885	0.0042
408.15	2040	0.34812	-3.7073	0.0057
408.15	2040	0.51097	-5.3994	0.0074
408.15	2040	0.69042	-7.2588	0.0093
408.15	2040	0.94252	-9.7809	0.0118
408.15	14990	0.09572	-1.0135	0.003
408.15	14990	0.20419	-2.148	0.0041
408.15	14990	0.34811	-3.6366	0.0056
408.15	14990	0.51093	-5.297	0.0073
408.15	14990	0.66823	-6.8901	0.0089
408.15	14990	0.94247	-9.585	0.0116
408.15	29940	0.09571	-0.9932	0.003
408.15	29940	0.20418	-2.1061	0.0041
408.15	29940	0.3481	-3.5671	0.0056
408.15	29940	0.50823	-5.1706	0.0072
408.15	29940	0.6682	-6.755	0.0088
408.15	29940	0.99979	-9.9551	0.012
408.15	2040	0.09572	-1.0326	0.003
408.15	2040	0.20419	-2.1882	0.0042
408.15	2040	0.34812	-3.706	0.0057
408.15	2040	0.51097	-5.3992	0.0074
408.15	2040	0.69042	-7.2546	0.0093
408.15	2040	0.94252	-9.7799	0.0118
408.15	14990	0.09572	-1.013	0.003
408.15	14990	0.20419	-2.148	0.0041
408.15	14990	0.34811	-3.6362	0.0056
408.15	14990	0.51093	-5.2956	0.0073
408.15	14990	0.66823	-6.8872	0.0089
408.15	14990	0.94247	-9.5835	0.0116
408.15	29940	0.09571	-0.9929	0.003
408.15	29940	0.20418	-2.1055	0.0041
408.15	29940	0.3481	-3.567	0.0056
408.15	29940	0.50823	-5.1674	0.0072
408.15	29940	0.6682	-6.7527	0.0088
408.15	29940	0.99979	-9.9543	0.012
408.15	2040	0.09572	-1.0313	0.003
408.15	2040	0.20419	-2.1878	0.0042
408.15	2040	0.34812	-3.7045	0.0057
408.15	2040	0.51097	-5.3986	0.0074
408.15	2040	0.69042	-7.2536	0.0093
408.15	2040	0.94252	-9.779	0.0118
408.15	14990	0.09572	-1.0118	0.003
408.15	14990	0.20419	-2.1464	0.0041
408.15	14990	0.34811	-3.6354	0.0056
408.15	14990	0.51093	-5.2951	0.0073
408.15	14990	0.66823	-6.8867	0.0089
408.15	14990	0.94247	-9.5822	0.0116
408.15	29940	0.09571	-0.992	0.003
408.15	29940	0.20418	-2.1052	0.0041
408.15	29940	0.3481	-3.5643	0.0056
408.15	29940	0.50823	-5.166	0.0072
408.15	29940	0.6682	-6.7435	0.0087
443.16	14970	0.0957	-1.1038	0.0031
443.16	14970	0.20416	-2.3415	0.0043
443.16	14970	0.34807	-3.9695	0.006
443.16	14970	0.50821	-5.7588	0.0078
443.16	14970	0.66816	-7.5668	0.0096
443.16	14970	0.99975	-11.1138	0.0131
443.16	30300	0.0957	-1.065	0.0031
443.16	30300	0.20416	-2.2617	0.0043
443.16	30300	0.34806	-3.8352	0.0058
443.16	30300	0.50819	-5.5655	0.0076
443.16	30300	0.66814	-7.2704	0.0093
443.16	30300	0.99973	-10.7304	0.0127
443.16	14970	0.0957	-1.1037	0.0031
443.16	14970	0.20416	-2.3414	0.0043
443.16	14970	0.34807	-3.9693	0.006
443.16	14970	0.50821	-5.7581	0.0078
443.16	14970	0.66816	-7.5587	0.0096
443.16	14970	0.99975	-11.1119	0.0131
443.16	30300	0.0957	-1.0643	0.0031
443.16	30300	0.20416	-2.2609	0.0043
443.16	30300	0.34806	-3.8342	0.0058
443.16	30300	0.50819	-5.5633	0.0076
443.16	30300	0.66814	-7.2698	0.0093
443.16	30300	0.99973	-10.7289	0.0127
443.16	14970	0.0957	-1.1033	0.0031
443.16	14970	0.20416	-2.3413	0.0043
443.16	14970	0.34807	-3.9685	0.006
443.16	14970	0.50821	-5.7575	0.0078
443.16	14970	0.66816	-7.5582	0.0096
443.16	14970	0.99975	-11.1094	0.0131
443.16	30300	0.0957	-1.0627	0.0031
443.16	30300	0.20416	-2.2596	0.0043
443.16	30300	0.34806	-3.8335	0.0058
443.16	30300	0.50819	-5.5616	0.0076
443.16	30300	0.66814	-7.2694	0.0093
443.16	30300	0.99973	-10.727	0.0127
443.17	2110	0.09571	-1.1362	0.0031
443.17	2110	0.20417	-2.4136	0.0044
443.17	2110	0.34809	-4.0916	0.0061
443.17	2110	0.50822	-5.9406	0.0079
443.17	2110	0.66817	-7.7843	0.0098
443.17	2110	0.99977	-11.4793	0.0135
443.17	2110	0.09571	-1.1362	0.0031
443.17	2110	0.20417	-2.413	0.0044
443.17	2110	0.34809	-4.0916	0.0061
443.17	2110	0.50822	-5.939	0.0079
443.17	2110	0.66817	-7.7801	0.0098
443.17	2110	0.99977	-11.4786	0.0135
443.17	2110	0.09571	-1.1352	0.0031
443.17	2110	0.20417	-2.4122	0.0044
443.17	2110	0.34809	-4.0913	0.0061
443.17	2110	0.50822	-5.9389	0.0079
443.17	2110	0.99977	-11.4775	0.0135
473.16	2780	0.0957	-1.2407	0.0032
473.16	2780	0.20415	-2.6361	0.0046
473.16	2780	0.34805	-4.471	0.0065
473.16	2780	0.50719	-6.4887	0.0085
473.16	2780	0.66812	-8.4913	0.0105
473.16	2780	0.9997	-12.5432	0.0145
473.16	14990	0.10419	-1.2978	0.0033
473.16	14990	0.20413	-2.5282	0.0045
473.16	14990	0.34803	-4.2898	0.0063
473.16	14990	0.50816	-6.2223	0.0082
473.16	14990	0.6681	-8.1396	0.0101
473.16	14990	0.99967	-12.0186	0.014
473.16	30050	0.10418	-1.2438	0.0032
473.16	30050	0.19982	-2.3748	0.0044
473.16	30050	0.34801	-4.1077	0.0061
473.16	30050	0.50814	-5.9599	0.008
473.16	30050	0.66807	-7.794	0.0098
473.16	30050	0.99964	-11.4895	0.0135
473.16	2780	0.0957	-1.2406	0.0032
473.16	2780	0.20415	-2.636	0.0046
473.16	2780	0.34805	-4.4703	0.0065
473.16	2780	0.50719	-6.4883	0.0085
473.16	2780	0.66812	-8.4903	0.0105
473.16	2780	0.9997	-12.5428	0.0145
473.16	14990	0.10419	-1.2974	0.0033
473.16	14990	0.20413	-2.5264	0.0045
473.16	14990	0.34803	-4.2888	0.0063
473.16	14990	0.50816	-6.2219	0.0082
473.16	14990	0.6681	-8.1385	0.0101
473.16	14990	0.99967	-12.008	0.014
473.16	30050	0.10418	-1.2433	0.0032
473.16	30050	0.19982	-2.3747	0.0044
473.16	30050	0.34801	-4.1074	0.0061
473.16	30050	0.50814	-5.9585	0.008
473.16	30050	0.66807	-7.7932	0.0098
473.16	30050	0.99964	-11.489	0.0135
473.16	2780	0.0957	-1.2406	0.0032
473.16	2780	0.20415	-2.6326	0.0046
473.16	2780	0.34805	-4.4697	0.0065
473.16	2780	0.50719	-6.4822	0.0085
473.16	2780	0.66812	-8.4871	0.0105
473.16	2780	0.9997	-12.5419	0.0145
473.16	14990	0.10419	-1.2973	0.0033
473.16	14990	0.20413	-2.5252	0.0045
473.16	14990	0.34803	-4.2879	0.0063
473.16	14990	0.50816	-6.2216	0.0082
473.16	14990	0.6681	-8.1382	0.0101
473.16	14990	0.99967	-12.0058	0.014
473.16	30050	0.10418	-1.2416	0.0032
473.16	30050	0.19982	-2.373	0.0044
473.16	30050	0.34801	-4.1071	0.0061
473.16	30050	0.50814	-5.9572	0.008
473.16	30050	0.66807	-7.7919	0.0098
473.16	30050	0.99964	-11.478	0.0135
498.15	3810	0.10418	-1.4651	0.0035
498.15	3810	0.19982	-2.7946	0.0048
498.15	3810	0.34528	-4.8009	0.0068
498.15	3810	0.5081	-7.0189	0.009
498.15	3810	0.66803	-9.171	0.0112
498.15	3810	0.99959	-13.5611	0.0156
498.15	30190	0.10418	-1.3157	0.0033
498.15	30190	0.19982	-2.5107	0.0045
498.15	30190	0.34528	-4.3093	0.0063
498.15	30190	0.51721	-6.4064	0.0084
498.15	30190	0.66798	-8.218	0.0102
498.15	30190	0.99954	-12.1289	0.0141
498.15	3810	0.10418	-1.4635	0.0035
498.15	3810	0.19982	-2.7933	0.0048
498.15	3810	0.34528	-4.8	0.0068
498.15	3810	0.5081	-7.0149	0.009
498.15	3810	0.66803	-9.1699	0.0112
498.15	3810	0.99959	-13.5604	0.0156
498.15	30190	0.10418	-1.3116	0.0033
498.15	30190	0.19982	-2.5069	0.0045
498.15	30190	0.34528	-4.3059	0.0063
498.15	30190	0.51721	-6.4046	0.0084
498.15	30190	0.66798	-8.2131	0.0102
498.15	30190	0.99954	-12.1284	0.0141
498.15	3810	0.10418	-1.4613	0.0035
498.15	3810	0.19982	-2.7932	0.0048
498.15	3810	0.34528	-4.7986	0.0068
498.15	3810	0.5081	-7.0136	0.009
498.15	3810	0.66803	-9.1694	0.0112
498.15	3810	0.99959	-13.5595	0.0156
498.15	30190	0.10418	-1.307	0.0033
498.15	30190	0.19982	-2.5056	0.0045
498.15	30190	0.34528	-4.3046	0.0063
498.15	30190	0.51721	-6.4045	0.0084
498.15	30190	0.66798	-8.2128	0.0102
498.15	30190	0.99954	-12.1242	0.0141
498.15	30190	0.10418	-1.3031	0.0033
498.15	30190	0.19982	-2.4984	0.0045
498.15	30190	0.34528	-4.2987	0.0063
498.15	30190	0.51721	-6.4039	0.0084
498.15	30190	0.66798	-8.2115	0.0102
498.15	30190	0.99954	-12.1229	0.0141
498.16	15030	0.10418	-1.3903	0.0034
498.16	15030	0.19981	-2.6536	0.0047
498.16	15030	0.34527	-4.5619	0.0066
498.16	15030	0.5172	-6.7856	0.0088
498.16	15030	0.7056	-9.1928	0.0112
498.16	15030	1.04067	-13.3718	0.0154
498.16	15030	0.10418	-1.3886	0.0034
498.16	15030	0.19981	-2.6531	0.0047
498.16	15030	0.34527	-4.5602	0.0066
498.16	15030	0.5172	-6.7845	0.0088
498.16	15030	0.7056	-9.1921	0.0112
498.16	15030	1.04067	-13.3715	0.0154
498.16	15030	0.10418	-1.3877	0.0034
498.16	15030	0.19981	-2.6528	0.0047
498.16	15030	0.34527	-4.558	0.0066
498.16	15030	0.5172	-6.7837	0.0088
498.16	15030	0.7056	-9.1913	0.0112
498.16	15030	1.04067	-13.3596	0.0154
523.14	5880	0.10417	-1.589	0.0036
523.14	5880	0.1998	-3.0379	0.005
523.14	5880	0.34526	-5.2172	0.0072
523.14	5880	0.51719	-7.7712	0.0098
523.14	5880	0.70558	-10.5432	0.0125
523.14	5880	1.04065	-15.3473	0.0173
523.14	15560	0.10417	-1.4951	0.0035
523.14	15560	0.1998	-2.8602	0.0049
523.14	15560	0.34525	-4.9078	0.0069
523.14	15560	0.51718	-7.3037	0.0093
523.14	15560	0.70557	-9.9466	0.0119
523.14	15560	1.04063	-14.4002	0.0164
523.14	30170	0.10416	-1.392	0.0034
523.14	30170	0.19979	-2.6612	0.0047
523.14	30170	0.34523	-4.5681	0.0066
523.14	30170	0.51716	-6.796	0.0088
523.14	30170	0.70555	-9.2396	0.0112
523.14	30170	1.04062	-13.3657	0.0154
523.14	5880	0.10417	-1.5879	0.0036
523.14	5880	0.1998	-3.0358	0.005
523.14	5880	0.34526	-5.2164	0.0072
523.14	5880	0.51719	-7.771	0.0098
523.14	5880	0.70558	-10.543	0.0125
523.14	5880	1.04065	-15.3466	0.0173
523.14	15560	0.10417	-1.4931	0.0035
523.14	15560	0.1998	-2.856	0.0049
523.14	15560	0.34525	-4.9077	0.0069
523.14	15560	0.51718	-7.3035	0.0093
523.14	15560	0.70557	-9.9356	0.0119
523.14	15560	1.04063	-14.3983	0.0164
523.14	30170	0.10416	-1.3917	0.0034
523.14	30170	0.19979	-2.6609	0.0047
523.14	30170	0.34523	-4.5673	0.0066
523.14	30170	0.51716	-6.7929	0.0088
523.14	30170	0.70555	-9.2358	0.0112
523.14	30170	1.04062	-13.3647	0.0154
523.14	5880	0.10417	-1.5874	0.0036
523.14	5880	0.1998	-3.0344	0.005
523.14	5880	0.34526	-5.2162	0.0072
523.14	5880	0.51719	-7.77	0.0098
523.14	5880	0.70558	-10.5421	0.0125
523.14	5880	1.04065	-15.3466	0.0173
523.14	15560	0.10417	-1.4921	0.0035
523.14	15560	0.1998	-2.8558	0.0049
523.14	15560	0.34525	-4.9074	0.0069
523.14	15560	0.51718	-7.3027	0.0093
523.14	15560	0.70557	-9.9318	0.0119
523.14	15560	1.04063	-14.3935	0.0164
523.14	30170	0.10416	-1.3907	0.0034
523.14	30170	0.19979	-2.66	0.0047
523.14	30170	0.34523	-4.5671	0.0066
523.14	30170	0.51716	-6.7926	0.0088
523.14	30170	0.70555	-9.2316	0.0112
523.14	30170	1.04062	-13.3619	0.0154
548.16	8000	0.0881	-1.4898	0.0035
548.16	8000	0.19978	-3.3597	0.0054
548.16	8000	0.34522	-5.7725	0.0078
548.16	8000	0.51714	-8.6021	0.0106
548.16	8000	0.70553	-11.6557	0.0137
548.16	8000	1.04058	-17.0046	0.019
548.16	15960	0.0881	-1.3853	0.0034
548.16	15960	0.19976	-3.1245	0.0051
548.16	15960	0.3452	-5.3637	0.0074
548.16	15960	0.51712	-7.9882	0.01
548.16	15960	0.70551	-10.8263	0.0128
548.16	15960	1.04054	-15.7466	0.0177
548.16	30120	0.0881	-1.2576	0.0033
548.16	30120	0.19244	-2.7335	0.0047
548.16	30120	0.34518	-4.8623	0.0069
548.16	30120	0.51711	-7.2364	0.0092
548.16	30120	0.70549	-9.7893	0.0118
548.16	30120	1.04051	-14.2262	0.0162
548.16	8000	0.0881	-1.4881	0.0035
548.16	8000	0.19978	-3.3588	0.0054
548.16	8000	0.34522	-5.7698	0.0078
548.16	8000	0.51714	-8.5993	0.0106
548.16	8000	0.70553	-11.6544	0.0137
548.16	8000	1.04058	-17.0025	0.019
548.16	15960	0.0881	-1.3846	0.0034
548.16	15960	0.19976	-3.1222	0.0051
548.16	15960	0.3452	-5.3624	0.0074
548.16	15960	0.51712	-7.9865	0.01
548.16	15960	0.70551	-10.8224	0.0128
548.16	15960	1.04054	-15.7445	0.0177
548.16	30120	0.0881	-1.2553	0.0033
548.16	30120	0.19244	-2.7314	0.0047
548.16	30120	0.34518	-4.8618	0.0069
548.16	30120	0.51711	-7.2354	0.0092
548.16	30120	0.70549	-9.7893	0.0118
548.16	30120	1.04051	-14.2262	0.0162
548.16	8000	0.0881	-1.4865	0.0035
548.16	8000	0.19978	-3.3575	0.0054
548.16	8000	0.34522	-5.7686	0.0078
548.16	8000	0.51714	-8.5992	0.0106
548.16	8000	0.70553	-11.6526	0.0137
548.16	8000	1.04058	-17.0005	0.019
548.16	15960	0.0881	-1.3838	0.0034
548.16	15960	0.19976	-3.1217	0.0051
548.16	15960	0.3452	-5.3622	0.0074
548.16	15960	0.51712	-7.9864	0.01
548.16	15960	0.70551	-10.8208	0.0128
548.16	15960	1.04054	-15.7444	0.0177
548.16	30120	0.0881	-1.2547	0.0033
548.16	30120	0.19244	-2.7314	0.0047
548.16	30120	0.34518	-4.8596	0.0069
548.16	30120	0.51711	-7.2339	0.0092
548.16	30120	0.70549	-9.7881	0.0118
548.16	30120	1.04051	-14.2253	0.0162
573.14	30090	0.08809	-1.3523	0.0034
573.14	30090	0.19243	-2.9436	0.0049
573.14	30090	0.36957	-5.6093	0.0076
573.14	30090	0.51702	-7.7946	0.0098
573.14	30090	1.04039	-15.3285	0.0173
573.14	30090	0.08809	-1.3478	0.0033
573.14	30090	0.19243	-2.939	0.0049
573.14	30090	0.36957	-5.6023	0.0076
573.14	30090	0.51702	-7.7923	0.0098
573.14	30090	1.04039	-15.3273	0.0173
573.14	30090	0.08809	-1.3474	0.0033
573.14	30090	0.19243	-2.9376	0.0049
573.14	30090	0.36957	-5.5993	0.0076
573.14	30090	0.51702	-7.7899	0.0098
573.14	30090	1.04039	-15.3201	0.0173
573.15	10150	0.0881	-1.7058	0.0037
573.15	10150	0.19244	-3.7153	0.0057
573.15	10150	0.34515	-6.6271	0.0086
573.15	10150	0.51708	-9.8942	0.0119
573.15	10150	0.70547	-13.4248	0.0154
573.15	10150	1.04048	-19.634	0.0216
573.15	18040	0.08809	-1.5262	0.0035
573.15	18040	0.19243	-3.317	0.0053
573.15	18040	0.36958	-6.3275	0.0083
573.15	18040	0.51705	-8.8069	0.0108
573.15	18040	0.70544	-12.0583	0.0141
573.15	18040	1.04045	-17.3873	0.0194
573.15	10150	0.0881	-1.7037	0.0037
573.15	10150	0.19244	-3.7144	0.0057
573.15	10150	0.34515	-6.6258	0.0086
573.15	10150	0.51708	-9.8915	0.0119
573.15	10150	0.70547	-13.4201	0.0154
573.15	10150	1.04048	-19.6309	0.0216
573.15	18040	0.08809	-1.5239	0.0035
573.15	18040	0.19243	-3.3164	0.0053
573.15	18040	0.36958	-6.3261	0.0083
573.15	18040	0.51705	-8.8014	0.0108
573.15	18040	0.70544	-12.0477	0.014
573.15	18040	1.04045	-17.3844	0.0194
573.15	10150	0.0881	-1.7035	0.0037
573.15	10150	0.19244	-3.7109	0.0057
573.15	10150	0.34515	-6.6246	0.0086
573.15	10150	0.51708	-9.8913	0.0119
573.15	10150	0.70547	-13.4195	0.0154
573.15	10150	1.04048	-19.6305	0.0216
573.15	18040	0.08809	-1.5198	0.0035
573.15	18040	0.19243	-3.312	0.0053
573.15	18040	0.36958	-6.3258	0.0083
573.15	18040	0.51705	-8.8013	0.0108
573.15	18040	0.70544	-12.0476	0.014
573.15	18040	1.04045	-17.3814	0.0194

System: propan-1-ol + water; phases: Liquid
Property: Mass density, kg/m3 (Liquid); method: Vibrating tube method
Temperature, K	Pressure, kPa	Molality, mol/kg of propan-1-ol	Mass density, kg/m3	uncertainty
298.15	420	0.10076	-1.0456	0.003
298.15	420	0.21222	-2.149	0.0041
298.15	420	0.35404	-3.4984	0.0055
298.15	420	0.53097	-5.0885	0.0071
298.15	420	0.77737	-7.1764	0.0092
298.15	14450	0.10076	-1.0846	0.0031
298.15	14450	0.21222	-2.2269	0.0042
298.15	14450	0.35404	-3.6266	0.0056
298.15	14450	0.53097	-5.2798	0.0073
298.15	14450	0.77735	-7.4429	0.0094
298.15	420	0.10076	-1.0439	0.003
298.15	420	0.21222	-2.1476	0.0041
298.15	420	0.35404	-3.4955	0.0055
298.15	420	0.53097	-5.088	0.0071
298.15	420	0.77737	-7.1762	0.0092
298.15	14450	0.10076	-1.0787	0.0031
298.15	14450	0.21222	-2.2237	0.0042
298.15	14450	0.35404	-3.6215	0.0056
298.15	14450	0.53097	-5.2745	0.0073
298.15	14450	0.77735	-7.439	0.0094
298.15	420	0.10076	-1.0433	0.003
298.15	420	0.21222	-2.1469	0.0041
298.15	420	0.35404	-3.4954	0.0055
298.15	420	0.77737	-7.1751	0.0092
298.15	14450	0.10076	-1.0769	0.0031
298.15	14450	0.21222	-2.2237	0.0042
298.15	14450	0.35404	-3.6212	0.0056
298.15	14450	0.53097	-5.2738	0.0073
298.15	14450	0.77735	-7.4377	0.0094
298.18	29930	0.10076	-1.1268	0.0031
298.18	29930	0.21221	-2.3094	0.0043
298.18	29930	0.35403	-3.764	0.0058
298.18	29930	0.53095	-5.4785	0.0075
298.18	29930	0.77734	-7.7183	0.0097
298.18	29930	0.10076	-1.1227	0.0031
298.18	29930	0.21221	-2.3093	0.0043
298.18	29930	0.35403	-3.7596	0.0058
298.18	29930	0.53095	-5.4728	0.0075
298.18	29930	0.77734	-7.7164	0.0097
298.18	29930	0.10076	-1.1215	0.0031
298.18	29930	0.21221	-2.3072	0.0043
298.18	29930	0.35403	-3.7578	0.0058
298.18	29930	0.53095	-5.4723	0.0075
298.18	29930	0.77734	-7.7159	0.0097
318.14	490	0.10914	-1.1639	0.0032
318.14	490	0.20362	-2.1431	0.0041
318.14	490	0.35983	-3.7151	0.0057
318.14	490	0.53268	-5.3972	0.0074
318.14	490	0.10914	-1.1629	0.0032
318.14	490	0.20362	-2.1425	0.0041
318.14	490	0.35983	-3.7151	0.0057
318.14	490	0.53268	-5.397	0.0074
318.14	490	0.10914	-1.1609	0.0032
318.14	490	0.20362	-2.1423	0.0041
318.14	490	0.35983	-3.7143	0.0057
318.14	490	0.53268	-5.3948	0.0074
318.15	15320	0.10915	-1.1875	0.0032
318.15	15320	0.20364	-2.1887	0.0042
318.15	15320	0.35988	-3.7918	0.0058
318.15	15320	0.53278	-5.505	0.0075
318.15	29990	0.10915	-1.2106	0.0032
318.15	29990	0.20364	-2.2325	0.0042
318.15	29990	0.35988	-3.8604	0.0059
318.15	29990	0.53278	-5.6027	0.0076
318.15	15320	0.10915	-1.1872	0.0032
318.15	15320	0.20364	-2.1879	0.0042
318.15	15320	0.35988	-3.791	0.0058
318.15	15320	0.53278	-5.5049	0.0075
318.15	29990	0.10915	-1.2102	0.0032
318.15	29990	0.20364	-2.2301	0.0042
318.15	29990	0.35988	-3.8589	0.0059
318.15	29990	0.53278	-5.6005	0.0076
318.15	15320	0.10915	-1.1871	0.0032
318.15	15320	0.20364	-2.1873	0.0042
318.15	15320	0.35988	-3.791	0.0058
318.15	15320	0.53278	-5.5044	0.0075
318.15	29990	0.10915	-1.2092	0.0032
318.15	29990	0.20364	-2.2288	0.0042
318.15	29990	0.35988	-3.8587	0.0059
318.15	29990	0.53278	-5.6	0.0076
338.14	510	0.10076	-1.1313	0.0031
338.14	510	0.2122	-2.3557	0.0044
338.14	510	0.35402	-3.8787	0.0059
338.14	510	0.53094	-5.7292	0.0077
338.14	510	0.77732	-8.2367	0.0102
338.14	510	0.10076	-1.1312	0.0031
338.14	510	0.2122	-2.3543	0.0044
338.14	510	0.35402	-3.8784	0.0059
338.14	510	0.53094	-5.7288	0.0077
338.14	510	0.77732	-8.2362	0.0102
338.14	510	0.10076	-1.1305	0.0031
338.14	510	0.2122	-2.3526	0.0044
338.14	510	0.35402	-3.8783	0.0059
338.14	510	0.53094	-5.7287	0.0077
338.14	510	0.77732	-8.236	0.0102
338.15	14860	0.10075	-1.1442	0.0031
338.15	14860	0.21218	-2.3764	0.0044
338.15	14860	0.354	-3.9103	0.0059
338.15	14860	0.5309	-5.7706	0.0078
338.15	14860	0.77726	-8.2843	0.0103
338.15	14860	0.10075	-1.1441	0.0031
338.15	14860	0.21218	-2.3763	0.0044
338.15	14860	0.354	-3.9101	0.0059
338.15	14860	0.5309	-5.7693	0.0078
338.15	14860	0.77726	-8.2834	0.0103
338.15	14860	0.10075	-1.1434	0.0031
338.15	14860	0.21218	-2.3756	0.0044
338.15	14860	0.354	-3.91	0.0059
338.15	14860	0.5309	-5.7687	0.0078
338.15	14860	0.77726	-8.2811	0.0103
338.16	30100	0.10913	-1.2476	0.0032
338.16	30100	0.2036	-2.3014	0.0043
338.16	30100	0.20361	-2.2628	0.0043
338.16	30100	0.34832	-3.8804	0.0059
338.16	30100	0.54258	-5.7522	0.0078
338.16	30100	0.10913	-1.2468	0.0032
338.16	30100	0.2036	-2.3009	0.0043
338.16	30100	0.20361	-2.1635	0.0042
338.16	30100	0.34832	-3.7375	0.0057
338.16	30100	0.54258	-5.721	0.0077
338.16	30100	0.10913	-1.2232	0.0032
338.16	30100	0.10913	-1.1709	0.0032
373.17	2090	0.10075	-1.2574	0.0033
373.17	2090	0.21218	-2.6277	0.0046
373.17	2090	0.35398	-4.3503	0.0064
373.17	2090	0.53088	-6.4589	0.0085
373.17	2090	0.77724	-9.3435	0.0113
373.17	14860	0.10074	-1.2467	0.0032
373.17	14860	0.21217	-2.6077	0.0046
373.17	14860	0.35397	-4.3136	0.0063
373.17	14860	0.53085	-6.3992	0.0084
373.17	14860	0.77721	-9.2493	0.0112
373.17	30120	0.10074	-1.2429	0.0032
373.17	30120	0.21216	-2.5918	0.0046
373.17	30120	0.35395	-4.2821	0.0063
373.17	30120	0.53082	-6.3475	0.0083
373.17	30120	0.77717	-9.1662	0.0112
373.17	2090	0.10075	-1.2569	0.0033
373.17	2090	0.21218	-2.6271	0.0046
373.17	2090	0.35398	-4.3489	0.0063
373.17	2090	0.53088	-6.4572	0.0085
373.17	2090	0.77724	-9.3418	0.0113
373.17	14860	0.10074	-1.2467	0.0032
373.17	14860	0.21217	-2.6066	0.0046
373.17	14860	0.35397	-4.3108	0.0063
373.17	14860	0.53085	-6.3988	0.0084
373.17	14860	0.77721	-9.2484	0.0112
373.17	30120	0.10074	-1.2426	0.0032
373.17	30120	0.21216	-2.5916	0.0046
373.17	30120	0.35395	-4.2817	0.0063
373.17	30120	0.53082	-6.3468	0.0083
373.17	30120	0.77717	-9.1648	0.0112
373.17	2090	0.10075	-1.2554	0.0033
373.17	2090	0.21218	-2.6264	0.0046
373.17	2090	0.35398	-4.3486	0.0063
373.17	2090	0.53088	-6.4566	0.0085
373.17	2090	0.77724	-9.3416	0.0113
373.17	14860	0.10074	-1.2439	0.0032
373.17	14860	0.21217	-2.606	0.0046
373.17	14860	0.35397	-4.31	0.0063
373.17	14860	0.53085	-6.3987	0.0084
373.17	14860	0.77721	-9.248	0.0112
373.17	30120	0.10074	-1.2412	0.0032
373.17	30120	0.21216	-2.5908	0.0046
373.17	30120	0.35395	-4.2814	0.0063
373.17	30120	0.53082	-6.3467	0.0083
373.17	30120	0.77717	-9.1648	0.0112
408.15	2040	0.10073	-1.403	0.0034
408.15	2040	0.21214	-2.9367	0.0049
408.15	2040	0.35393	-4.8642	0.0069
408.15	2040	0.53079	-7.2353	0.0092
408.15	2040	0.77712	-10.4815	0.0125
408.15	14990	0.09434	-1.2918	0.0033
408.15	14990	0.19192	-2.6097	0.0046
408.15	14990	0.35272	-4.76	0.0068
408.15	14990	0.53075	-7.0845	0.0091
408.15	14990	0.77707	-10.2537	0.0123
408.15	29940	0.09433	-1.2631	0.0033
408.15	29940	0.1919	-2.558	0.0046
408.15	29940	0.35269	-4.6644	0.0067
408.15	29940	0.51505	-6.7861	0.0088
408.15	29940	0.71834	-9.3217	0.0113
408.15	2040	0.10073	-1.402	0.0034
408.15	2040	0.21214	-2.9352	0.0049
408.15	2040	0.35393	-4.8642	0.0069
408.15	2040	0.53079	-7.2331	0.0092
408.15	2040	0.77712	-10.4801	0.0125
408.15	14990	0.09434	-1.2894	0.0033
408.15	14990	0.19192	-2.6089	0.0046
408.15	14990	0.35272	-4.7591	0.0068
408.15	14990	0.53075	-7.0839	0.0091
408.15	14990	0.77707	-10.2525	0.0123
408.15	29940	0.09433	-1.2622	0.0033
408.15	29940	0.1919	-2.5569	0.0046
408.15	29940	0.35269	-4.6637	0.0067
408.15	29940	0.51505	-6.786	0.0088
408.15	29940	0.71834	-9.3206	0.0113
408.15	2040	0.10073	-1.4018	0.0034
408.15	2040	0.21214	-2.9351	0.0049
408.15	2040	0.35393	-4.8636	0.0069
408.15	2040	0.53079	-7.2316	0.0092
408.15	2040	0.77712	-10.4787	0.0125
408.15	14990	0.09434	-1.2879	0.0033
408.15	14990	0.19192	-2.6079	0.0046
408.15	14990	0.35272	-4.757	0.0068
408.15	14990	0.53075	-7.0816	0.0091
408.15	14990	0.77707	-10.2508	0.0123
408.15	29940	0.09433	-1.2608	0.0033
408.15	29940	0.1919	-2.5544	0.0046
408.15	29940	0.35269	-4.663	0.0067
408.15	29940	0.51505	-6.7827	0.0088
443.16	14970	0.09432	-1.4187	0.0034
443.16	14970	0.19189	-2.8694	0.0049
443.16	14970	0.35267	-5.23	0.0072
443.16	14970	0.51502	-7.613	0.0096
443.16	14970	0.7183	-10.4618	0.0125
443.16	30310	0.09432	-1.365	0.0034
443.16	30310	0.19189	-2.7696	0.0048
443.16	30310	0.35266	-5.0489	0.007
443.16	30310	0.51501	-7.3419	0.0093
443.16	30310	0.71828	-10.0893	0.0121
443.16	14970	0.09432	-1.4158	0.0034
443.16	14970	0.19189	-2.8617	0.0049
443.16	14970	0.35267	-5.2288	0.0072
443.16	14970	0.51502	-7.6087	0.0096
443.16	14970	0.7183	-10.4612	0.0125
443.16	30310	0.09432	-1.3629	0.0034
443.16	30310	0.19189	-2.7672	0.0048
443.16	30310	0.35266	-5.0475	0.007
443.16	30310	0.51501	-7.3411	0.0093
443.16	30310	0.71828	-10.0891	0.0121
443.16	14970	0.09432	-1.4158	0.0034
443.16	14970	0.7183	-10.461	0.0125
443.16	30310	0.09432	-1.3619	0.0034
443.16	30310	0.19189	-2.7643	0.0048
443.16	30310	0.35266	-5.0448	0.007
443.16	30310	0.71828	-10.0868	0.0121
443.17	2090	0.09432	-1.4626	0.0035
443.17	2090	0.09433	-1.4567	0.0035
443.17	2090	0.1919	-2.9577	0.005
443.17	2090	0.35268	-5.3992	0.0074
443.17	2090	0.51503	-7.8663	0.0099
443.17	2090	0.71832	-10.8198	0.0128
443.17	2090	0.09432	-1.4565	0.0035
443.17	2090	0.09433	-1.4548	0.0035
443.17	2090	0.1919	-2.9575	0.005
443.17	2090	0.35268	-5.3988	0.0074
443.17	2090	0.51503	-7.8649	0.0099
443.17	2090	0.71832	-10.8189	0.0128
443.17	2090	0.1919	-2.9629	0.005
443.17	2090	0.35268	-5.3987	0.0074
443.17	2090	0.71832	-10.8185	0.0128
443.17	2090	0.1919	-2.9594	0.005
473.16	2780	0.09431	-1.5944	0.0036
473.16	2780	0.19188	-3.2335	0.0052
473.16	2780	0.35265	-5.9004	0.0079
473.16	2780	0.515	-8.5894	0.0106
473.16	2780	0.71825	-11.8086	0.0138
473.16	15000	0.09431	-1.536	0.0035
473.16	15000	0.19187	-3.1207	0.0051
473.16	15000	0.35264	-5.6519	0.0077
473.16	15000	0.51498	-8.2349	0.0102
473.16	15000	0.71822	-11.2912	0.0133
473.16	30040	0.0943	-1.4651	0.0035
473.16	30040	0.19186	-2.9692	0.005
473.16	30040	0.35263	-5.4138	0.0074
473.16	30040	0.51496	-7.9248	0.0099
473.16	30040	0.71819	-10.7905	0.0128
473.16	2780	0.09431	-1.5934	0.0036
473.16	2780	0.19188	-3.2265	0.0052
473.16	2780	0.515	-8.5854	0.0106
473.16	2780	0.71825	-11.8036	0.0138
473.16	15000	0.09431	-1.5294	0.0035
473.16	15000	0.19187	-3.093	0.0051
473.16	15000	0.35264	-5.6512	0.0077
473.16	15000	0.51498	-8.2184	0.0102
473.16	15000	0.71822	-11.2886	0.0133
473.16	30040	0.0943	-1.4648	0.0035
473.16	30040	0.19186	-2.9639	0.005
473.16	30040	0.35263	-5.4095	0.0074
473.16	30040	0.51496	-7.8642	0.0099
473.16	30040	0.71819	-10.7896	0.0128
473.16	2780	0.515	-8.5845	0.0106
473.16	2780	0.71825	-11.8004	0.0138
473.16	15000	0.09431	-1.5286	0.0035
473.16	15000	0.35264	-5.6485	0.0076
473.16	15000	0.71822	-11.2879	0.0133
473.16	30040	0.0943	-1.4643	0.0035
473.16	30040	0.19186	-2.9616	0.005
473.16	30040	0.51496	-7.8615	0.0099
473.16	30040	0.71819	-10.7878	0.0128
498.15	3800	0.10443	-1.9116	0.0039
498.15	3800	0.19186	-3.5305	0.0055
498.15	3800	0.35262	-6.3809	0.0084
498.15	3800	0.51496	-9.2644	0.0113
498.15	3800	0.71814	-12.7096	0.0147
498.15	30190	0.10443	-1.7088	0.0037
498.15	30190	0.19186	-3.1751	0.0052
498.15	30190	0.35261	-5.7495	0.0077
498.15	30190	0.51493	-8.2993	0.0103
498.15	30190	0.71808	-11.3446	0.0133
498.15	3800	0.10443	-1.9063	0.0039
498.15	3800	0.19186	-3.5063	0.0055
498.15	3800	0.35262	-6.3608	0.0084
498.15	3800	0.51496	-9.248	0.0112
498.15	3800	0.71814	-12.707	0.0147
498.15	30190	0.10443	-1.7068	0.0037
498.15	30190	0.19186	-3.1504	0.0052
498.15	30190	0.35261	-5.7008	0.0077
498.15	30190	0.51493	-8.2761	0.0103
498.15	30190	0.71808	-11.3411	0.0133
498.15	3800	0.51496	-9.2478	0.0112
498.15	3800	0.71814	-12.7016	0.0147
498.15	30190	0.19186	-3.1292	0.0051
498.15	30190	0.71808	-11.3375	0.0133
498.16	15030	0.10443	-1.8127	0.0038
498.16	15030	0.19185	-3.3209	0.0053
498.16	15030	0.3526	-6.041	0.008
498.16	15030	0.51491	-8.7602	0.0108
498.16	15030	0.51492	-8.797	0.0108
498.16	15030	0.71804	-12.0407	0.014
498.16	15030	0.10443	-1.8095	0.0038
498.16	15030	0.19185	-3.3131	0.0053
498.16	15030	0.3526	-6.0367	0.008
498.16	15030	0.51492	-8.7836	0.0108
498.16	15030	0.71804	-12.0394	0.014
498.16	15030	0.10443	-1.8068	0.0038
498.16	15030	0.19185	-3.3077	0.0053
498.16	15030	0.3526	-6.0305	0.008
498.16	15030	0.71804	-12.0375	0.014
523.14	5880	0.10442	-2.0721	0.0041
523.14	5880	0.20282	-4.0033	0.006
523.14	5880	0.35256	-6.9005	0.0089
523.14	5880	0.5149	-10.0256	0.012
523.14	5880	0.84695	-16.0931	0.0181
523.14	15570	0.10442	-1.9502	0.004
523.14	15570	0.35999	-6.5677	0.0086
523.14	15570	0.84692	-15.0802	0.0171
523.14	30180	0.10442	-1.8009	0.0038
523.14	30180	0.20281	-3.4786	0.0055
523.14	30180	0.35998	-6.1157	0.0081
523.14	30180	0.53291	-8.9606	0.011
523.14	30180	0.84691	-13.9805	0.016
523.14	5880	0.10442	-2.0658	0.0041
523.14	5880	0.20282	-3.9845	0.006
523.14	5880	0.35256	-6.8862	0.0089
523.14	5880	0.5149	-10.0207	0.012
523.14	5880	0.84695	-16.0928	0.0181
523.14	15570	0.10442	-1.9394	0.0039
523.14	15570	0.35999	-6.5542	0.0086
523.14	15570	0.84692	-15.0797	0.0171
523.14	30180	0.10442	-1.8001	0.0038
523.14	30180	0.20281	-3.4775	0.0055
523.14	30180	0.35998	-6.1156	0.0081
523.14	30180	0.53291	-8.9598	0.011
523.14	30180	0.84691	-13.9801	0.016
523.14	5880	0.10442	-2.0596	0.0041
523.14	5880	0.20282	-3.9834	0.006
523.14	5880	0.35256	-6.8712	0.0089
523.14	5880	0.5149	-10.0051	0.012
523.14	5880	0.84695	-16.0916	0.0181
523.14	15570	0.84692	-15.0796	0.0171
523.14	30180	0.10442	-1.7993	0.0038
523.14	30180	0.20281	-3.4769	0.0055
523.14	30180	0.35998	-6.1147	0.0081
523.14	30180	0.53291	-8.9597	0.011
523.14	30180	0.84691	-13.9794	0.016
548.16	8010	0.10441	-2.2615	0.0043
548.16	8010	0.2028	-4.3656	0.0064
548.16	8010	0.35997	-7.6932	0.0097
548.16	8010	0.5329	-11.2939	0.0133
548.16	8010	0.84687	-17.6788	0.0197
548.16	15960	0.10441	-2.1024	0.0041
548.16	15960	0.20279	-4.06	0.0061
548.16	15960	0.35996	-7.1435	0.0091
548.16	15960	0.53288	-10.4686	0.0125
548.16	15960	0.84684	-16.3534	0.0184
548.16	30120	0.1044	-1.9056	0.0039
548.16	30120	0.20279	-3.6793	0.0057
548.16	30120	0.35995	-6.467	0.0085
548.16	30120	0.53286	-9.4717	0.0115
548.16	30120	0.84681	-14.7638	0.0168
548.16	8010	0.10441	-2.2586	0.0043
548.16	8010	0.2028	-4.3643	0.0064
548.16	8010	0.35997	-7.6921	0.0097
548.16	8010	0.5329	-11.2897	0.0133
548.16	8010	0.84687	-17.6764	0.0197
548.16	15960	0.10441	-2.1013	0.0041
548.16	15960	0.20279	-4.0598	0.0061
548.16	15960	0.35996	-7.1406	0.0091
548.16	15960	0.53288	-10.468	0.0125
548.16	15960	0.84684	-16.3508	0.0184
548.16	30120	0.1044	-1.9046	0.0039
548.16	30120	0.20279	-3.6779	0.0057
548.16	30120	0.35995	-6.4665	0.0085
548.16	30120	0.53286	-9.4713	0.0115
548.16	30120	0.84681	-14.7619	0.0168
548.16	8010	0.10441	-2.2555	0.0043
548.16	8010	0.2028	-4.3639	0.0064
548.16	8010	0.35997	-7.6913	0.0097
548.16	8010	0.5329	-11.2876	0.0133
548.16	8010	0.84687	-17.6763	0.0197
548.16	15960	0.10441	-2.1011	0.0041
548.16	15960	0.20279	-4.0595	0.0061
548.16	15960	0.35996	-7.1402	0.0091
548.16	15960	0.53288	-10.4665	0.0125
548.16	15960	0.84684	-16.3508	0.0184
548.16	30120	0.1044	-1.9042	0.0039
548.16	30120	0.20279	-3.6777	0.0057
548.16	30120	0.35995	-6.4661	0.0085
548.16	30120	0.53286	-9.4707	0.0115
548.16	30120	0.84681	-14.7617	0.0168
573.14	30090	0.10915	-2.1245	0.0041
573.14	30090	0.20276	-3.9266	0.0059
573.14	30090	0.35991	-6.8982	0.0089
573.14	30090	0.53281	-10.1164	0.0121
573.14	30090	0.84669	-15.7416	0.0177
573.14	30090	0.10915	-2.1229	0.0041
573.14	30090	0.20276	-3.9259	0.0059
573.14	30090	0.35991	-6.8972	0.0089
573.14	30090	0.53281	-10.1163	0.0121
573.14	30090	0.84669	-15.7378	0.0177
573.14	30090	0.10915	-2.1212	0.0041
573.14	30090	0.20276	-3.9253	0.0059
573.14	30090	0.35991	-6.8956	0.0089
573.14	30090	0.53281	-10.1158	0.0121
573.14	30090	0.84669	-15.7375	0.0177
573.15	10150	0.1044	-2.567	0.0046
573.15	10150	0.20278	-4.9766	0.007
573.15	10150	0.35994	-8.756	0.0108
573.15	10150	0.53285	-12.8669	0.0149
573.15	10150	0.84677	-20.1904	0.0222
573.15	18040	0.1044	-2.2884	0.0043
573.15	18040	0.20277	-4.4414	0.0064
573.15	18040	0.35992	-7.792	0.0098
573.15	18040	0.53283	-11.4452	0.0134
573.15	18040	0.84673	-17.8615	0.0199
573.15	10150	0.1044	-2.5666	0.0046
573.15	10150	0.20278	-4.9717	0.007
573.15	10150	0.35994	-8.7529	0.0108
573.15	10150	0.53285	-12.864	0.0149
573.15	10150	0.84677	-20.19	0.0222
573.15	18040	0.1044	-2.2876	0.0043
573.15	18040	0.20277	-4.4316	0.0064
573.15	18040	0.35992	-7.7917	0.0098
573.15	18040	0.53283	-11.4284	0.0134
573.15	18040	0.84673	-17.8559	0.0199
573.15	10150	0.1044	-2.5649	0.0046
573.15	10150	0.20278	-4.9678	0.007
573.15	10150	0.35994	-8.7525	0.0108
573.15	10150	0.53285	-12.8609	0.0149
573.15	10150	0.84677	-20.1851	0.0222
573.15	18040	0.1044	-2.2874	0.0043
573.15	18040	0.20277	-4.4293	0.0064
573.15	18040	0.35992	-7.7887	0.0098
573.15	18040	0.84673	-17.8544	0.0199

System: propan-2-ol + water; phases: Liquid
Property: Mass density, kg/m3 (Liquid); method: Vibrating tube method
Temperature, K	Pressure, kPa	Molality, mol/kg of propan-2-ol	Mass density, kg/m3	uncertainty
298.16	14450	0.10569	-1.2535	0.0033
298.16	14450	0.19543	-2.2725	0.0043
298.16	14450	0.34632	-3.9097	0.0059
298.16	14450	0.54474	-5.9438	0.0079
298.16	14450	0.77492	-8.1417	0.0101
298.16	29990	0.10568	-1.2867	0.0033
298.16	29990	0.19542	-2.343	0.0043
298.16	29990	0.34631	-4.0414	0.006
298.16	29990	0.54473	-6.1453	0.0081
298.16	29990	0.7749	-8.4241	0.0104
298.16	14450	0.10569	-1.2507	0.0033
298.16	14450	0.19543	-2.2716	0.0043
298.16	14450	0.34632	-3.9072	0.0059
298.16	14450	0.54474	-5.9417	0.0079
298.16	14450	0.77492	-8.1386	0.0101
298.16	29990	0.10568	-1.2865	0.0033
298.16	29990	0.19542	-2.3391	0.0043
298.16	29990	0.34631	-4.0349	0.006
298.16	29990	0.54473	-6.1438	0.0081
298.16	29990	0.7749	-8.4226	0.0104
298.16	14450	0.10569	-1.2495	0.0032
298.16	14450	0.19543	-2.2715	0.0043
298.16	14450	0.34632	-3.9066	0.0059
298.16	14450	0.54474	-5.941	0.0079
298.16	14450	0.77492	-8.1384	0.0101
298.16	29990	0.10568	-1.2833	0.0033
298.16	29990	0.19542	-2.336	0.0043
298.16	29990	0.34631	-4.0316	0.006
298.16	29990	0.54473	-6.1418	0.0081
298.16	29990	0.7749	-8.4202	0.0104
298.22	390	0.10569	-1.2061	0.0032
298.22	390	0.1057	-1.2102	0.0032
298.22	390	0.19543	-2.1866	0.0042
298.22	390	0.19544	-2.1902	0.0042
298.22	390	0.34633	-3.7688	0.0058
298.22	390	0.34635	-3.7713	0.0058
298.22	390	0.54476	-5.7329	0.0077
298.22	390	0.54478	-5.7365	0.0077
298.22	390	0.77495	-7.8526	0.0099
298.22	390	0.77497	-7.8557	0.0099
298.22	390	0.10569	-1.204	0.0032
298.22	390	0.19543	-2.1859	0.0042
298.22	390	0.34633	-3.7675	0.0058
298.22	390	0.54476	-5.7308	0.0077
298.22	390	0.77495	-7.852	0.0099
298.22	390	0.10569	-1.2033	0.0032
298.22	390	0.19543	-2.1856	0.0042
298.22	390	0.34633	-3.7666	0.0058
298.22	390	0.54476	-5.729	0.0077
298.22	390	0.77495	-7.8496	0.0098
298.22	390	0.10569	-1.2032	0.0032
298.22	390	0.19543	-2.1841	0.0042
298.22	390	0.34633	-3.7656	0.0058
298.22	390	0.54476	-5.7287	0.0077
298.22	390	0.77495	-7.8485	0.0098
318.14	500	0.10592	-1.2183	0.0032
318.14	500	0.19795	-2.2442	0.0042
318.14	500	0.34335	-3.8192	0.0058
318.14	500	0.49062	-5.3601	0.0074
318.14	500	0.82088	-8.6276	0.0106
318.14	15370	0.10593	-1.2428	0.0032
318.14	15370	0.19796	-2.2926	0.0043
318.14	15370	0.34337	-3.9008	0.0059
318.14	15370	0.49065	-5.4752	0.0075
318.14	15370	0.82097	-8.8051	0.0108
318.14	500	0.10592	-1.2179	0.0032
318.14	500	0.19795	-2.2439	0.0042
318.14	500	0.34335	-3.8182	0.0058
318.14	500	0.49062	-5.3598	0.0074
318.14	500	0.82088	-8.627	0.0106
318.14	15370	0.10593	-1.2426	0.0032
318.14	15370	0.19796	-2.2925	0.0043
318.14	15370	0.34337	-3.9006	0.0059
318.14	15370	0.49065	-5.4746	0.0075
318.14	15370	0.82097	-8.8044	0.0108
318.14	500	0.10592	-1.2162	0.0032
318.14	500	0.19795	-2.2433	0.0042
318.14	500	0.34335	-3.818	0.0058
318.14	500	0.49062	-5.3578	0.0074
318.14	500	0.82088	-8.6262	0.0106
318.14	15370	0.10593	-1.2425	0.0032
318.14	15370	0.19796	-2.2924	0.0043
318.14	15370	0.34337	-3.9	0.0059
318.14	15370	0.49065	-5.4734	0.0075
318.14	15370	0.82097	-8.8015	0.0108
318.15	29970	0.10593	-1.2675	0.0033
318.15	29970	0.19797	-2.3361	0.0043
318.15	29970	0.3434	-3.9726	0.006
318.15	29970	0.49067	-5.5767	0.0076
318.15	29970	0.82099	-8.96	0.011
318.15	29970	0.10593	-1.2665	0.0033
318.15	29970	0.19797	-2.334	0.0043
318.15	29970	0.3434	-3.9724	0.006
318.15	29970	0.49067	-5.5761	0.0076
318.15	29970	0.82099	-8.9598	0.011
318.15	29970	0.10593	-1.2658	0.0033
318.15	29970	0.19797	-2.3333	0.0043
318.15	29970	0.3434	-3.9714	0.006
318.15	29970	0.49067	-5.5755	0.0076
318.15	29970	0.82099	-8.9589	0.011
338.15	14810	0.10566	-1.2686	0.0033
338.15	14810	0.19539	-2.3249	0.0043
338.15	14810	0.34625	-4.0493	0.006
338.15	14810	0.54464	-6.2499	0.0082
338.15	14810	0.77476	-8.7074	0.0107
338.15	14810	0.10566	-1.2676	0.0033
338.15	14810	0.19539	-2.3222	0.0043
338.15	14810	0.34625	-4.047	0.006
338.15	14810	0.54464	-6.2495	0.0082
338.15	14810	0.77476	-8.7033	0.0107
338.15	14810	0.10566	-1.2671	0.0033
338.15	14810	0.19539	-2.3205	0.0043
338.15	14810	0.34625	-4.0458	0.006
338.15	14810	0.54464	-6.2491	0.0082
338.15	14810	0.77476	-8.7025	0.0107
338.16	470	0.10568	-1.2615	0.0033
338.16	470	0.19541	-2.3077	0.0043
338.16	470	0.34629	-4.0208	0.006
338.16	470	0.5447	-6.2061	0.0082
338.16	470	0.77487	-8.6478	0.0106
338.16	30080	0.10566	-1.2595	0.0033
338.16	30080	0.10567	-1.262	0.0033
338.16	30080	0.10591	-1.292	0.0033
338.16	30080	0.19539	-2.3055	0.0043
338.16	30080	0.19541	-2.3123	0.0043
338.16	30080	0.19794	-2.376	0.0044
338.16	30080	0.34333	-4.0617	0.0061
338.16	30080	0.34626	-3.9951	0.006
338.16	30080	0.34628	-4.0224	0.006
338.16	30080	0.4906	-5.7125	0.0077
338.16	30080	0.54465	-6.161	0.0082
338.16	30080	0.54468	-6.2376	0.0082
338.16	30080	0.7748	-8.6475	0.0106
338.16	30080	0.77484	-8.6147	0.0106
338.16	30080	0.82085	-9.2749	0.0113
338.16	470	0.10568	-1.2591	0.0033
338.16	470	0.19541	-2.3066	0.0043
338.16	470	0.34629	-4.0188	0.006
338.16	470	0.5447	-6.205	0.0082
338.16	470	0.77487	-8.6465	0.0106
338.16	30080	0.10566	-1.2434	0.0032
338.16	30080	0.10567	-1.2397	0.0032
338.16	30080	0.10591	-1.2906	0.0033
338.16	30080	0.19539	-1.9908	0.004
338.16	30080	0.19541	-2.3016	0.0043
338.16	30080	0.19794	-2.3759	0.0044
338.16	30080	0.34333	-4.0601	0.0061
338.16	30080	0.34626	-3.9582	0.006
338.16	30080	0.34628	-3.9976	0.006
338.16	30080	0.4906	-5.7122	0.0077
338.16	30080	0.54465	-6.1355	0.0081
338.16	30080	0.54468	-6.1602	0.0082
338.16	30080	0.7748	-8.5513	0.0106
338.16	30080	0.77484	-8.5615	0.0106
338.16	30080	0.82085	-9.2748	0.0113
338.16	470	0.10568	-1.2581	0.0033
338.16	470	0.19541	-2.3063	0.0043
338.16	470	0.34629	-4.0188	0.006
338.16	470	0.5447	-6.2035	0.0082
338.16	470	0.77487	-8.646	0.0106
338.16	30080	0.10567	-1.2354	0.0032
338.16	30080	0.10591	-1.2903	0.0033
338.16	30080	0.19541	-2.2639	0.0043
338.16	30080	0.19794	-2.3758	0.0044
338.16	30080	0.34333	-4.0599	0.0061
338.16	30080	0.34628	-3.9287	0.0059
338.16	30080	0.4906	-5.7118	0.0077
338.16	30080	0.54468	-6.0599	0.0081
338.16	30080	0.82085	-9.274	0.0113
373.17	2080	0.10565	-1.3795	0.0034
373.17	2080	0.19538	-2.5287	0.0045
373.17	2080	0.34622	-4.4259	0.0064
373.17	2080	0.54459	-6.8769	0.0089
373.17	2080	0.77473	-9.652	0.0117
373.17	14890	0.10564	-1.3702	0.0034
373.17	14890	0.19537	-2.5081	0.0045
373.17	14890	0.3462	-4.3953	0.0064
373.17	14890	0.54456	-6.8228	0.0088
373.17	14890	0.77469	-9.5712	0.0116
373.17	30130	0.08627	-1.1153	0.0031
373.17	30130	0.19535	-2.4962	0.0045
373.17	30130	0.32805	-4.1478	0.0061
373.17	30130	0.50746	-6.3393	0.0083
373.17	30130	0.77461	-9.5012	0.0115
373.17	2080	0.10565	-1.3782	0.0034
373.17	2080	0.19538	-2.5247	0.0045
373.17	2080	0.34622	-4.4254	0.0064
373.17	2080	0.54459	-6.8762	0.0089
373.17	2080	0.77473	-9.6519	0.0117
373.17	14890	0.10564	-1.3663	0.0034
373.17	14890	0.19537	-2.5038	0.0045
373.17	14890	0.3462	-4.3921	0.0064
373.17	14890	0.54456	-6.8211	0.0088
373.17	14890	0.77469	-9.5669	0.0116
373.17	30130	0.08627	-1.1141	0.0031
373.17	30130	0.19535	-2.4928	0.0045
373.17	30130	0.32805	-4.146	0.0061
373.17	30130	0.50746	-6.3385	0.0083
373.17	30130	0.77461	-9.5004	0.0115
373.17	2080	0.10565	-1.3779	0.0034
373.17	2080	0.19538	-2.524	0.0045
373.17	2080	0.34622	-4.425	0.0064
373.17	2080	0.54459	-6.8757	0.0089
373.17	2080	0.77473	-9.6509	0.0117
373.17	14890	0.19537	-2.5028	0.0045
373.17	14890	0.3462	-4.3916	0.0064
373.17	14890	0.54456	-6.8206	0.0088
373.17	14890	0.77469	-9.5663	0.0116
373.17	30130	0.08627	-1.1132	0.0031
373.17	30130	0.19535	-2.4823	0.0045
373.17	30130	0.32805	-4.1452	0.0061
373.17	30130	0.50746	-6.3368	0.0083
373.17	30130	0.77461	-9.5003	0.0115
408.15	2070	0.08627	-1.242	0.0032
408.15	2070	0.2035	-2.9077	0.0049
408.15	2070	0.32804	-4.6524	0.0067
408.15	2070	0.50744	-7.1391	0.0091
408.15	2070	0.75162	-10.4676	0.0125
408.15	15000	0.08627	-1.2203	0.0032
408.15	15000	0.20349	-2.8555	0.0049
408.15	15000	0.32803	-4.5675	0.0066
408.15	15000	0.50743	-7.0021	0.009
408.15	15000	0.7516	-10.2553	0.0123
408.15	2070	0.08627	-1.2413	0.0032
408.15	2070	0.2035	-2.9077	0.0049
408.15	2070	0.32804	-4.6522	0.0067
408.15	2070	0.50744	-7.1385	0.0091
408.15	2070	0.75162	-10.4663	0.0125
408.15	15000	0.08627	-1.2197	0.0032
408.15	15000	0.20349	-2.8551	0.0049
408.15	15000	0.32803	-4.5667	0.0066
408.15	15000	0.50743	-7.002	0.009
408.15	15000	0.7516	-10.2549	0.0123
408.15	2070	0.08627	-1.241	0.0032
408.15	2070	0.2035	-2.9069	0.0049
408.15	2070	0.32804	-4.6515	0.0067
408.15	2070	0.50744	-7.1384	0.0091
408.15	2070	0.75162	-10.4652	0.0125
408.15	15000	0.08627	-1.2191	0.0032
408.15	15000	0.20349	-2.8541	0.0049
408.15	15000	0.32803	-4.5662	0.0066
408.15	15000	0.50743	-7.0017	0.009
408.15	15000	0.7516	-10.254	0.0123
408.16	30040	0.08626	-1.1988	0.0032
408.16	30040	0.20349	-2.8052	0.0048
408.16	30040	0.32802	-4.4879	0.0065
408.16	30040	0.50741	-6.8747	0.0089
408.16	30040	0.75158	-10.0608	0.0121
408.16	30040	0.08626	-1.1975	0.0032
408.16	30040	0.20349	-2.8048	0.0048
408.16	30040	0.32802	-4.485	0.0065
408.16	30040	0.50741	-6.8715	0.0089
408.16	30040	0.75158	-10.0572	0.0121
408.16	30040	0.08626	-1.1954	0.0032
408.16	30040	0.20349	-2.8035	0.0048
408.16	30040	0.32802	-4.4841	0.0065
408.16	30040	0.50741	-6.8709	0.0089
408.16	30040	0.75158	-10.0571	0.0121
443.16	14930	0.08625	-1.3296	0.0033
443.16	14930	0.20347	-3.1262	0.0051
443.16	14930	0.32798	-5.0033	0.007
443.16	14930	0.50735	-7.6821	0.0097
443.16	14930	0.7515	-11.2562	0.0133
443.16	30330	0.08625	-1.2888	0.0033
443.16	30330	0.20347	-3.0243	0.005
443.16	30330	0.32798	-4.841	0.0068
443.16	30330	0.50733	-7.4218	0.0094
443.16	30330	0.75147	-10.8685	0.0129
443.16	14930	0.08625	-1.3294	0.0033
443.16	14930	0.20347	-3.1258	0.0051
443.16	14930	0.32798	-5.003	0.007
443.16	14930	0.50735	-7.682	0.0097
443.16	14930	0.7515	-11.2545	0.0133
443.16	30330	0.08625	-1.2886	0.0033
443.16	30330	0.20347	-3.0191	0.005
443.16	30330	0.32798	-4.84	0.0068
443.16	30330	0.50733	-7.4206	0.0094
443.16	30330	0.75147	-10.8645	0.0129
443.16	14930	0.08625	-1.3287	0.0033
443.16	14930	0.20347	-3.1253	0.0051
443.16	14930	0.50735	-7.6807	0.0097
443.16	14930	0.7515	-11.2535	0.0133
443.16	30330	0.08625	-1.2879	0.0033
443.16	30330	0.20347	-3.0189	0.005
443.16	30330	0.32798	-4.8341	0.0068
443.16	30330	0.50733	-7.418	0.0094
443.16	30330	0.75147	-10.8624	0.0129
443.17	2030	0.08626	-1.3745	0.0034
443.17	2030	0.20348	-3.2264	0.0052
443.17	2030	0.328	-5.1686	0.0072
443.17	2030	0.50738	-7.9348	0.0099
443.17	2030	0.75154	-11.6384	0.0136
443.17	2030	0.08626	-1.3737	0.0034
443.17	2030	0.20348	-3.2247	0.0052
443.17	2030	0.328	-5.1659	0.0072
443.17	2030	0.50738	-7.9345	0.0099
443.17	2030	0.75154	-11.6378	0.0136
443.17	2030	0.08626	-1.3733	0.0034
443.17	2030	0.20348	-3.223	0.0052
443.17	2030	0.328	-5.1657	0.0072
443.17	2030	0.50738	-7.933	0.0099
443.17	2030	0.75154	-11.6351	0.0136
473.16	2760	0.08624	-1.5025	0.0035
473.16	2760	0.20346	-3.5307	0.0055
473.16	2760	0.32796	-5.6539	0.0077
473.16	2760	0.5073	-8.6814	0.0107
473.16	2760	0.75142	-12.7167	0.0147
473.16	15010	0.08624	-1.4429	0.0034
473.16	15010	0.20345	-3.3873	0.0054
473.16	15010	0.32793	-5.4202	0.0074
473.16	15010	0.50727	-8.3073	0.0103
473.16	15010	0.75138	-12.1655	0.0142
473.16	30060	0.09642	-1.5598	0.0036
473.16	30060	0.20344	-3.2557	0.0053
473.16	30060	0.32805	-5.1941	0.0072
473.16	30060	0.50746	-7.9905	0.01
473.16	30060	0.75162	-11.6358	0.0136
473.16	2760	0.08624	-1.502	0.0035
473.16	2760	0.20346	-3.5283	0.0055
473.16	2760	0.32796	-5.6527	0.0077
473.16	2760	0.5073	-8.6769	0.0107
473.16	2760	0.75142	-12.7165	0.0147
473.16	15010	0.08624	-1.4403	0.0034
473.16	15010	0.20345	-3.3815	0.0054
473.16	15010	0.32793	-5.4137	0.0074
473.16	15010	0.50727	-8.307	0.0103
473.16	15010	0.75138	-12.165	0.0142
473.16	30060	0.09642	-1.5547	0.0036
473.16	30060	0.20344	-3.2531	0.0053
473.16	30060	0.32805	-5.19	0.0072
473.16	30060	0.50746	-7.9673	0.01
473.16	30060	0.75162	-11.6332	0.0136
473.16	2760	0.08624	-1.5013	0.0035
473.16	2760	0.20346	-3.5263	0.0055
473.16	2760	0.32796	-5.6492	0.0076
473.16	2760	0.5073	-8.6759	0.0107
473.16	2760	0.75142	-12.7158	0.0147
473.16	15010	0.08624	-1.4393	0.0034
473.16	15010	0.20345	-3.3801	0.0054
473.16	15010	0.32793	-5.4132	0.0074
473.16	15010	0.50727	-8.3068	0.0103
473.16	15010	0.75138	-12.1645	0.0142
473.16	30060	0.09642	-1.5486	0.0035
473.16	30060	0.50746	-7.9564	0.01
498.14	3840	0.09642	-1.8166	0.0038
498.14	3840	0.20344	-3.816	0.0058
498.14	3840	0.32791	-6.1097	0.0081
498.14	3840	0.53277	-9.8419	0.0118
498.14	3840	0.75123	-13.726	0.0157
498.14	3840	0.09642	-1.8147	0.0038
498.14	3840	0.20344	-3.8151	0.0058
498.14	3840	0.32791	-6.1064	0.0081
498.14	3840	0.53277	-9.8399	0.0118
498.14	3840	0.75123	-13.7238	0.0157
498.14	3840	0.09642	-1.8144	0.0038
498.14	3840	0.20344	-3.8122	0.0058
498.14	3840	0.32791	-6.1048	0.0081
498.14	3840	0.53277	-9.8371	0.0118
498.14	3840	0.75123	-13.7227	0.0157
498.15	30170	0.09642	-1.6358	0.0036
498.15	30170	0.20341	-3.4131	0.0054
498.15	30170	0.20342	-3.4503	0.0055
498.15	30170	0.36258	-6.0518	0.0081
498.15	30170	0.53228	-8.8421	0.0108
498.15	30170	0.79007	-12.8893	0.0149
498.15	30170	0.09642	-1.6352	0.0036
498.15	30170	0.20341	-3.411	0.0054
498.15	30170	0.36258	-6.0514	0.0081
498.15	30170	0.53228	-8.8089	0.0108
498.15	30170	0.79007	-12.8814	0.0149
498.15	30170	0.09642	-1.6342	0.0036
498.15	30170	0.36258	-6.0379	0.008
498.15	30170	0.53228	-8.805	0.0108
498.15	30170	0.79007	-12.8785	0.0149
498.16	15030	0.09641	-1.7328	0.0037
498.16	15030	0.19581	-3.5025	0.0055
498.16	15030	0.36256	-6.4039	0.0084
498.16	15030	0.53274	-9.3456	0.0113
498.16	15030	0.79004	-13.6676	0.0157
498.16	15030	0.09641	-1.7302	0.0037
498.16	15030	0.19581	-3.4982	0.0055
498.16	15030	0.36256	-6.4024	0.0084
498.16	15030	0.53274	-9.3438	0.0113
498.16	15030	0.79004	-13.6665	0.0157
498.16	15030	0.09641	-1.7257	0.0037
498.16	15030	0.36256	-6.3965	0.0084
498.16	15030	0.53274	-9.3409	0.0113
498.16	15030	0.79004	-13.6585	0.0157
523.14	5880	0.09641	-1.972	0.004
523.14	5880	0.1958	-3.9873	0.006
523.14	5880	0.36255	-7.3253	0.0093
523.14	5880	0.53272	-10.6928	0.0127
523.14	5880	0.79002	-15.6728	0.0177
523.14	15600	0.09641	-1.8558	0.0039
523.14	15600	0.19579	-3.7647	0.0058
523.14	15600	0.1958	-3.7911	0.0058
523.14	15600	0.20281	-3.7362	0.0057
523.14	15600	0.35999	-6.5785	0.0086
523.14	15600	0.36253	-6.8724	0.0089
523.14	15600	0.36254	-6.97	0.009
523.14	15600	0.53268	-10.0113	0.012
523.14	15600	0.53269	-10.0277	0.012
523.14	15600	0.53292	-9.6423	0.0116
523.14	15600	0.78999	-14.6838	0.0167
523.14	30090	0.0964	-1.7247	0.0037
523.14	30090	0.19579	-3.487	0.0055
523.14	30090	0.36252	-6.396	0.0084
523.14	30090	0.53267	-9.3168	0.0113
523.14	30090	0.78995	-13.6273	0.0156
523.14	5880	0.09641	-1.9707	0.004
523.14	5880	0.1958	-3.987	0.006
523.14	5880	0.36255	-7.325	0.0093
523.14	5880	0.53272	-10.6893	0.0127
523.14	5880	0.79002	-15.6688	0.0177
523.14	15600	0.09641	-1.8659	0.0039
523.14	15600	0.1958	-3.7674	0.0058
523.14	15600	0.20281	-3.736	0.0057
523.14	15600	0.35999	-6.5764	0.0086
523.14	15600	0.36254	-6.8878	0.0089
523.14	15600	0.53292	-9.6123	0.0116
523.14	15600	0.78999	-14.683	0.0167
523.14	30090	0.0964	-1.7246	0.0037
523.14	30090	0.19579	-3.4869	0.0055
523.14	30090	0.36252	-6.3959	0.0084
523.14	30090	0.53267	-9.3149	0.0113
523.14	30090	0.78995	-13.6258	0.0156
523.14	5880	0.09641	-1.9705	0.004
523.14	5880	0.1958	-3.9844	0.006
523.14	5880	0.36255	-7.3245	0.0093
523.14	5880	0.53272	-10.688	0.0127
523.14	5880	0.79002	-15.6577	0.0177
523.14	15600	0.09641	-1.8635	0.0039
523.14	15600	0.1958	-3.7557	0.0058
523.14	15600	0.78999	-14.67	0.0167
523.14	30090	0.0964	-1.7239	0.0037
523.14	30090	0.19579	-3.4853	0.0055
523.14	30090	0.36252	-6.3944	0.0084
523.14	30090	0.53267	-9.3133	0.0113
523.14	30090	0.78995	-13.6248	0.0156
548.16	8010	0.0964	-2.1774	0.0042
548.16	8010	0.19578	-4.4065	0.0064
548.16	8010	0.3625	-8.0893	0.0101
548.16	8010	0.53265	-11.8042	0.0138
548.16	8010	0.78991	-17.3242	0.0193
548.16	15980	0.09639	-2.0252	0.004
548.16	15980	0.19577	-4.0931	0.0061
548.16	15980	0.36248	-7.5127	0.0095
548.16	15980	0.53262	-10.943	0.0129
548.16	15980	0.78986	-16.0474	0.018
548.16	30120	0.09639	-1.836	0.0038
548.16	30120	0.19576	-3.7067	0.0057
548.16	30120	0.36246	-6.7997	0.0088
548.16	30120	0.53257	-9.8935	0.0119
548.16	30120	0.78982	-14.46	0.0165
548.16	8010	0.0964	-2.1768	0.0042
548.16	8010	0.19578	-4.4054	0.0064
548.16	8010	0.3625	-8.0876	0.0101
548.16	8010	0.53265	-11.8035	0.0138
548.16	8010	0.78991	-17.3232	0.0193
548.16	15980	0.09639	-2.023	0.004
548.16	15980	0.19577	-4.091	0.0061
548.16	15980	0.36248	-7.5081	0.0095
548.16	15980	0.53262	-10.9405	0.0129
548.16	15980	0.78986	-16.0265	0.018
548.16	30120	0.09639	-1.8352	0.0038
548.16	30120	0.19576	-3.7059	0.0057
548.16	30120	0.36246	-6.799	0.0088
548.16	30120	0.53257	-9.8931	0.0119
548.16	30120	0.78982	-14.4599	0.0165
548.16	8010	0.0964	-2.1765	0.0042
548.16	8010	0.19578	-4.3985	0.0064
548.16	8010	0.3625	-8.087	0.0101
548.16	8010	0.53265	-11.8033	0.0138
548.16	8010	0.78991	-17.3231	0.0193
548.16	15980	0.09639	-2.0219	0.004
548.16	15980	0.19577	-4.0906	0.0061
548.16	15980	0.36248	-7.5058	0.0095
548.16	15980	0.53262	-10.94	0.0129
548.16	15980	0.78986	-16.0226	0.018
548.16	30120	0.09639	-1.8343	0.0038
548.16	30120	0.19576	-3.7058	0.0057
548.16	30120	0.36246	-6.7982	0.0088
548.16	30120	0.53257	-9.8922	0.0119
548.16	30120	0.78982	-14.4577	0.0165
573.15	10140	0.09638	-2.5039	0.0045
573.15	10140	0.19575	-5.0667	0.0071
573.15	10140	0.36242	-9.3019	0.0113
573.15	10140	0.53251	-13.5874	0.0156
573.15	10140	0.78975	-19.9725	0.022
573.15	17990	0.10594	-2.4542	0.0045
573.15	17990	0.19573	-4.5055	0.0065
573.15	17990	0.34343	-7.8565	0.0099
573.15	17990	0.49071	-11.1382	0.0131
573.15	17990	0.78968	-17.6596	0.0197
573.15	30110	0.10594	-2.1744	0.0042
573.15	30110	0.19798	-4.0424	0.006
573.15	30110	0.34342	-6.9527	0.009
573.15	30110	0.49069	-9.8401	0.0118
573.15	30110	0.82102	-16.1171	0.0181
573.15	10140	0.09638	-2.5014	0.0045
573.15	10140	0.19575	-5.0489	0.007
573.15	10140	0.36242	-9.2988	0.0113
573.15	10140	0.53251	-13.5829	0.0156
573.15	10140	0.78975	-19.9606	0.022
573.15	17990	0.10594	-2.453	0.0045
573.15	17990	0.19573	-4.5051	0.0065
573.15	17990	0.34343	-7.8554	0.0099
573.15	17990	0.49071	-11.1376	0.0131
573.15	17990	0.78968	-17.6563	0.0197
573.15	30110	0.10594	-2.1734	0.0042
573.15	30110	0.19798	-4.0413	0.006
573.15	30110	0.34342	-6.9498	0.0089
573.15	30110	0.49069	-9.8321	0.0118
573.15	30110	0.82102	-16.1052	0.0181
573.15	10140	0.09638	-2.5013	0.0045
573.15	10140	0.19575	-5.0471	0.007
573.15	10140	0.36242	-9.2932	0.0113
573.15	10140	0.53251	-13.5801	0.0156
573.15	10140	0.78975	-19.9589	0.022
573.15	17990	0.10594	-2.4505	0.0045
573.15	17990	0.19573	-4.504	0.0065
573.15	17990	0.34343	-7.8548	0.0099
573.15	17990	0.49071	-11.1362	0.0131
573.15	17990	0.78968	-17.6561	0.0197
573.15	30110	0.10594	-2.1689	0.0042
573.15	30110	0.19798	-4.041	0.006
573.15	30110	0.34342	-6.9449	0.0089
573.15	30110	0.49069	-9.8301	0.0118
573.15	30110	0.82102	-16.101	0.0181
