Measured thermophysical data. Molecular interactions of some amino acids in aqueous 1-butyl-3-methylimidazolium bromide solutions at different temperatures: A volumetric approach
Source: J. Chem. Thermodyn., 2018, 10.1016/j.jct.2018.05.008
Compound 1: 2-aminoacetic acid, C2H5NO2, InChI=1S/C2H5NO2/c3-1-2(4)5/h1,3H2,(H,4,5), purity 99%
Compound 2: (S)-2-aminopropanoic acid, C3H7NO2, InChI=1S/C3H7NO2/c1-2(4)3(5)6/h2H,4H2,1H3,(H,5,6)/t2-/m0/s1, purity 99%
Compound 3: L-serine, C3H7NO3, InChI=1S/C3H7NO3/c4-2(1-5)3(6)7/h2,5H,1,4H2,(H,6,7)/t2-/m0/s1, purity 99%
Compound 4: L-threonine, C4H9NO3, InChI=1S/C4H9NO3/c1-2(6)3(5)4(7)8/h2-3,6H,5H2,1H3,(H,7,8)/t2-,3+/m1/s1, purity 99%
Compound 5: 1-butyl-3-methylimidazolium bromide, C8H15BrN2, InChI=1S/C8H15N2.BrH/c1-3-4-5-10-7-6-9(2)8-10;/h6-8H,3-5H2,1-2H3;1H/q+1;/p-1
Compound 6: water, H2O, InChI=1S/H2O/h1H2
Compound 7: (.+-.)-.alpha.-aminobutyric acid, C4H9NO2, InChI=1S/C4H9NO2/c1-2-3(5)4(6)7/h3H,2,5H2,1H3,(H,6,7), purity 98%

System: 2-aminoacetic acid + water + 1-butyl-3-methylimidazolium bromide; phases: Liquid
Fixed: Pressure, kPa = 101.3
Property: Mass density, kg/m3 (Liquid); method: Vibrating tube method
Temperature, K	Solvent: Molality, mol/kg of 1-butyl-3-methylimidazolium bromide	Molality, mol/kg of 2-aminoacetic acid	Mass density, kg/m3	uncertainty
288.15	0	0	999.08	1.07
288.15	0	0.0602	1001.04	1.07
288.15	0	0.1201	1002.97	1.07
288.15	0	0.1992	1005.49	1.07
288.15	0	0.3016	1008.71	1.07
288.15	0	0.3854	1011.3	1.07
288.15	0	0.4462	1013.17	1.07
288.15	0	0.5271	1015.62	1.07
288.15	0	0.6444	1019.16	1.07
288.15	0	0.7856	1023.32	1.07
298.15	0	0	997.06	1.08
298.15	0	0.0602	998.98	1.08
298.15	0	0.1201	1000.87	1.08
298.15	0	0.1992	1003.34	1.08
298.15	0	0.3016	1006.49	1.07
298.15	0	0.3854	1009.02	1.08
298.15	0	0.4462	1010.84	1.07
298.15	0	0.5271	1013.23	1.08
298.15	0	0.6444	1016.66	1.08
298.15	0	0.7856	1020.69	1.08
308.15	0	0	994.07	1.07
308.15	0	0.0602	995.95	1.07
308.15	0	0.1201	997.8	1.07
308.15	0	0.1992	1000.22	1.07
308.15	0	0.3016	1003.32	1.07
308.15	0	0.3854	1005.82	1.07
308.15	0	0.4462	1007.61	1.07
308.15	0	0.5271	1009.97	1.07
308.15	0	0.6444	1013.36	1.07
308.15	0	0.7856	1017.38	1.07
310.15	0	0	993.37	1.07
310.15	0	0.0602	995.25	1.07
310.15	0	0.1201	997.1	1.07
310.15	0	0.1992	999.51	1.07
310.15	0	0.3016	1002.59	1.07
310.15	0	0.3854	1005.07	1.07
310.15	0	0.4462	1006.86	1.07
310.15	0	0.5271	1009.22	1.07
310.15	0	0.6444	1012.6	1.07
310.15	0	0.7856	1016.6	1.07
318.15	0	0	990.26	1.07
318.15	0	0.0602	992.13	1.07
318.15	0	0.1201	993.97	1.07
318.15	0	0.1992	996.37	1.07
318.15	0	0.3016	999.45	1.06
318.15	0	0.3854	1001.91	1.07
318.15	0	0.4462	1003.69	1.07
318.15	0	0.5271	1006.03	1.07
318.15	0	0.6444	1009.41	1.07
318.15	0	0.7856	1013.42	1.07
288.15	0.0518	0	1001.67	1.07
288.15	0.0518	0.0498	1003.29	1.07
288.15	0.0518	0.1009	1004.93	1.07
288.15	0.0518	0.2044	1008.22	1.07
288.15	0.0518	0.2983	1011.15	1.07
288.15	0.0518	0.3652	1013.24	1.07
288.15	0.0518	0.513	1017.75	1.07
288.15	0.0518	0.6014	1020.43	1.07
288.15	0.0518	0.6901	1023.06	1.07
288.15	0.0518	0.8118	1026.56	1.07
298.15	0.0518	0	999.57	1.07
298.15	0.0518	0.0498	1001.15	1.07
298.15	0.0518	0.1009	1002.76	1.07
298.15	0.0518	0.2044	1005.98	1.07
298.15	0.0518	0.2983	1008.84	1.07
298.15	0.0518	0.3652	1010.88	1.07
298.15	0.0518	0.513	1015.29	1.07
298.15	0.0518	0.6014	1017.9	1.07
298.15	0.0518	0.6901	1020.46	1.07
298.15	0.0518	0.8118	1023.89	1.08
308.15	0.0518	0	996.52	1.07
308.15	0.0518	0.0498	998.07	1.07
308.15	0.0518	0.1009	999.65	1.07
308.15	0.0518	0.2044	1002.81	1.07
308.15	0.0518	0.2983	1005.64	1.07
308.15	0.0518	0.3652	1007.63	1.07
308.15	0.0518	0.513	1011.98	1.07
308.15	0.0518	0.6014	1014.53	1.07
308.15	0.0518	0.6901	1017.07	1.07
308.15	0.0518	0.8118	1020.48	1.07
310.15	0.0518	0	995.81	1.07
310.15	0.0518	0.0498	997.36	1.07
310.15	0.0518	0.1009	998.93	1.07
310.15	0.0518	0.2044	1002.07	1.07
310.15	0.0518	0.2983	1004.89	1.07
310.15	0.0518	0.3652	1006.88	1.06
310.15	0.0518	0.513	1011.22	1.07
310.15	0.0518	0.6014	1013.78	1.07
310.15	0.0518	0.6901	1016.29	1.07
310.15	0.0518	0.8118	1019.7	1.07
318.15	0.0518	0	992.66	1.06
318.15	0.0518	0.0498	994.2	1.06
318.15	0.0518	0.1009	995.77	1.06
318.15	0.0518	0.2044	998.9	1.06
318.15	0.0518	0.2983	1001.7	1.06
318.15	0.0518	0.3652	1003.68	1.06
318.15	0.0518	0.513	1007.99	1.06
318.15	0.0518	0.6014	1010.53	1.06
318.15	0.0518	0.6901	1013.05	1.06
318.15	0.0518	0.8118	1016.47	1.06
288.15	0.1004	0	1004.02	1.07
288.15	0.1004	0.0523	1005.71	1.07
288.15	0.1004	0.0975	1007.16	1.07
288.15	0.1004	0.2006	1010.43	1.07
288.15	0.1004	0.3066	1013.74	1.07
288.15	0.1004	0.4018	1016.67	1.07
288.15	0.1004	0.5036	1019.74	1.07
288.15	0.1004	0.5985	1022.61	1.07
288.15	0.1004	0.6911	1025.37	1.07
288.15	0.1004	0.8017	1028.53	1.07
298.15	0.1004	0	1001.86	1.07
298.15	0.1004	0.0523	1003.51	1.07
298.15	0.1004	0.0975	1004.92	1.07
298.15	0.1004	0.2006	1008.12	1.07
298.15	0.1004	0.3066	1011.36	1.07
298.15	0.1004	0.4018	1014.22	1.07
298.15	0.1004	0.5036	1017.25	1.07
298.15	0.1004	0.5985	1020.05	1.07
298.15	0.1004	0.6911	1022.71	1.07
298.15	0.1004	0.8017	1025.84	1.07
308.15	0.1004	0	998.75	1.06
308.15	0.1004	0.0523	1000.37	1.06
308.15	0.1004	0.0975	1001.76	1.06
308.15	0.1004	0.2006	1004.91	1.06
308.15	0.1004	0.3066	1008.1	1.1
308.15	0.1004	0.4018	1010.92	1.07
308.15	0.1004	0.5036	1013.89	1.07
308.15	0.1004	0.5985	1016.63	1.07
308.15	0.1004	0.6911	1019.27	1.07
308.15	0.1004	0.8017	1022.38	1.07
310.15	0.1004	0	998.04	1.06
310.15	0.1004	0.0523	999.66	1.06
310.15	0.1004	0.0975	1001.04	1.06
310.15	0.1004	0.2006	1004.17	1.06
310.15	0.1004	0.3066	1007.34	1.06
310.15	0.1004	0.4018	1010.17	1.06
310.15	0.1004	0.5036	1013.13	1.07
310.15	0.1004	0.5985	1015.89	1.07
310.15	0.1004	0.6911	1018.51	1.07
310.15	0.1004	0.8017	1021.6	1.1
318.15	0.1004	0	994.69	1.06
318.15	0.1004	0.0523	996.3	1.1
318.15	0.1004	0.0975	997.68	1.06
318.15	0.1004	0.2006	1000.8	1.1
318.15	0.1004	0.3066	1003.96	1.06
318.15	0.1004	0.4018	1006.76	1.06
318.15	0.1004	0.5036	1009.71	1.06
318.15	0.1004	0.5985	1012.42	1.06
318.15	0.1004	0.6911	1015.04	1.06
318.15	0.1004	0.8017	1018.15	1.06
288.15	0.2345	0	1010.39	1.07
288.15	0.2345	0.0441	1011.81	1.07
288.15	0.2345	0.1345	1014.69	1.07
288.15	0.2345	0.1931	1016.54	1.07
288.15	0.2345	0.3064	1020.07	1.07
288.15	0.2345	0.3736	1022.12	1.07
288.15	0.2345	0.4512	1024.48	1.07
288.15	0.2345	0.6164	1029.36	1.07
288.15	0.2345	0.7097	1032.1	1.07
288.15	0.2345	0.8207	1035.3	1.07
298.15	0.2345	0	1008.06	1.07
298.15	0.2345	0.0441	1009.44	1.07
298.15	0.2345	0.1345	1012.25	1.07
298.15	0.2345	0.1931	1014.05	1.07
298.15	0.2345	0.3064	1017.49	1.07
298.15	0.2345	0.3736	1019.51	1.07
298.15	0.2345	0.4512	1021.83	1.07
298.15	0.2345	0.6164	1026.65	1.07
298.15	0.2345	0.7097	1029.33	1.07
298.15	0.2345	0.8207	1032.47	1.07
308.15	0.2345	0	1004.81	1.06
308.15	0.2345	0.0441	1006.17	1.06
308.15	0.2345	0.1345	1008.93	1.07
308.15	0.2345	0.1931	1010.7	1.07
308.15	0.2345	0.3064	1014.1	1.07
308.15	0.2345	0.3736	1016.09	1.07
308.15	0.2345	0.4512	1018.37	1.07
308.15	0.2345	0.6164	1023.14	1.07
308.15	0.2345	0.7097	1025.79	1.07
308.15	0.2345	0.8207	1028.85	1.07
310.15	0.2345	0	1004.05	1.06
310.15	0.2345	0.0441	1005.41	1.06
310.15	0.2345	0.1345	1008.16	1.06
310.15	0.2345	0.1931	1009.93	1.06
310.15	0.2345	0.3064	1013.3	1.06
310.15	0.2345	0.3736	1015.28	1.07
310.15	0.2345	0.4512	1017.56	1.07
310.15	0.2345	0.6164	1022.34	1.07
310.15	0.2345	0.7097	1024.94	1.07
310.15	0.2345	0.8207	1028.05	1.07
318.15	0.2345	0	1000.65	1.06
318.15	0.2345	0.0441	1002	1.06
318.15	0.2345	0.1345	1004.75	1.06
318.15	0.2345	0.1931	1006.51	1.06
318.15	0.2345	0.3064	1009.88	1.06
318.15	0.2345	0.3736	1011.84	1.06
318.15	0.2345	0.4512	1014.11	1.06
318.15	0.2345	0.6164	1018.83	1.06
318.15	0.2345	0.7097	1021.46	1.06
318.15	0.2345	0.8207	1024.53	1.06
288.15	0.2964	0	1013.29	1.07
288.15	0.2964	0.0534	1014.99	1.07
288.15	0.2964	0.0959	1016.33	1.07
288.15	0.2964	0.1925	1019.36	1.07
288.15	0.2964	0.2885	1022.34	1.07
288.15	0.2964	0.3912	1025.48	1.07
288.15	0.2964	0.4947	1028.6	1.07
288.15	0.2964	0.6037	1031.83	1.07
288.15	0.2964	0.6961	1034.54	1.07
288.15	0.2964	0.7834	1037.07	1.07
298.15	0.2964	0	1010.87	1.06
298.15	0.2964	0.0534	1012.53	1.06
298.15	0.2964	0.0959	1013.84	1.06
298.15	0.2964	0.1925	1016.8	1.06
298.15	0.2964	0.2885	1019.71	1.06
298.15	0.2964	0.3912	1022.79	1.06
298.15	0.2964	0.4947	1025.84	1.06
298.15	0.2964	0.6037	1029.02	1.06
298.15	0.2964	0.6961	1031.68	1.06
298.15	0.2964	0.7834	1034.16	1.06
308.15	0.2964	0	1007.54	1.06
308.15	0.2964	0.0534	1009.18	1.06
308.15	0.2964	0.0959	1010.47	1.06
308.15	0.2964	0.1925	1013.39	1.06
308.15	0.2964	0.2885	1016.26	1.06
308.15	0.2964	0.3912	1019.3	1.06
308.15	0.2964	0.4947	1022.3	1.06
308.15	0.2964	0.6037	1025.44	1.06
308.15	0.2964	0.6961	1028.05	1.07
308.15	0.2964	0.7834	1030.51	1.07
310.15	0.2964	0	1006.76	1.06
310.15	0.2964	0.0534	1008.39	1.06
310.15	0.2964	0.0959	1009.68	1.06
310.15	0.2964	0.1925	1012.59	1.06
310.15	0.2964	0.2885	1015.45	1.06
310.15	0.2964	0.3912	1018.48	1.06
310.15	0.2964	0.4947	1021.49	1.06
310.15	0.2964	0.6037	1024.63	1.06
310.15	0.2964	0.6961	1027.23	1.07
310.15	0.2964	0.7834	1029.66	1.06
318.15	0.2964	0	1003.29	1.06
318.15	0.2964	0.0534	1004.91	1.06
318.15	0.2964	0.0959	1006.19	1.06
318.15	0.2964	0.1925	1009.08	1.06
318.15	0.2964	0.2885	1011.92	1.06
318.15	0.2964	0.3912	1014.92	1.06
318.15	0.2964	0.4947	1017.92	1.06
318.15	0.2964	0.6037	1021.05	1.06
318.15	0.2964	0.6961	1023.62	1.06
318.15	0.2964	0.7834	1026.01	1.06

System: (S)-2-aminopropanoic acid + water + 1-butyl-3-methylimidazolium bromide; phases: Liquid
Fixed: Pressure, kPa = 101.3
Property: Mass density, kg/m3 (Liquid); method: Vibrating tube method
Temperature, K	Solvent: Molality, mol/kg of 1-butyl-3-methylimidazolium bromide	Molality, mol/kg of (S)-2-aminopropanoic acid	Mass density, kg/m3	uncertainty
288.15	0	0	999.09	1.07
288.15	0	0.0522	1000.63	1.07
288.15	0	0.1036	1002.12	1.07
288.15	0	0.2032	1004.98	1.07
288.15	0	0.3122	1008.03	1.07
288.15	0	0.3941	1010.29	1.07
288.15	0	0.4964	1013.01	1.07
288.15	0	0.5873	1015.47	1.07
288.15	0	0.6752	1017.77	1.07
288.15	0	0.791	1020.75	1.07
298.15	0	0	997.08	1.08
298.15	0	0.0522	998.58	1.07
298.15	0	0.1036	1000.04	1.07
298.15	0	0.2032	1002.84	1.07
298.15	0	0.3122	1005.84	1.07
298.15	0	0.3941	1008.05	1.07
298.15	0	0.4964	1010.78	1.07
298.15	0	0.5873	1013.15	1.07
298.15	0	0.6752	1015.38	1.07
298.15	0	0.791	1018.3	1.07
308.15	0	0	994.08	1.07
308.15	0	0.0522	995.56	1.07
308.15	0	0.1036	997	1.07
308.15	0	0.2032	999.75	1.07
308.15	0	0.3122	1002.71	1.06
308.15	0	0.3941	1004.9	1.06
308.15	0	0.4964	1007.59	1.06
308.15	0	0.5873	1009.93	1.06
308.15	0	0.6752	1012.15	1.06
308.15	0	0.791	1015.04	1.06
310.15	0	0	993.38	1.07
310.15	0	0.0522	994.85	1.07
310.15	0	0.1036	996.28	1.07
310.15	0	0.2032	999.03	1.07
310.15	0	0.3122	1001.99	1.06
310.15	0	0.3941	1004.18	1.06
310.15	0	0.4964	1006.87	1.06
310.15	0	0.5873	1009.2	1.06
310.15	0	0.6752	1011.4	1.06
310.15	0	0.791	1014.3	1.06
318.15	0	0	990.27	1.06
318.15	0	0.0522	991.74	1.06
318.15	0	0.1036	993.17	1.06
318.15	0	0.2032	995.9	1.1
318.15	0	0.3122	998.84	1.06
318.15	0	0.3941	1001	1.06
318.15	0	0.4964	1003.68	1.06
318.15	0	0.5873	1006.01	1.06
318.15	0	0.6752	1008.22	1.06
318.15	0	0.791	1011.1	1.06
288.15	0.0557	0	1001.85	1.08
288.15	0.0557	0.0528	1003.39	1.08
288.15	0.0557	0.1037	1004.86	1.08
288.15	0.0557	0.2023	1007.67	1.08
288.15	0.0557	0.2995	1010.38	1.08
288.15	0.0557	0.3936	1012.95	1.08
288.15	0.0557	0.4921	1015.62	1.08
288.15	0.0557	0.5787	1017.93	1.08
288.15	0.0557	0.6456	1019.69	1.07
288.15	0.0557	0.7657	1022.71	1.07
298.15	0.0557	0	999.75	1.07
298.15	0.0557	0.0528	1001.25	1.07
298.15	0.0557	0.1037	1002.68	1.07
298.15	0.0557	0.2023	1005.42	1.07
298.15	0.0557	0.2995	1008.08	1.07
298.15	0.0557	0.3936	1010.61	1.07
298.15	0.0557	0.4921	1013.22	1.07
298.15	0.0557	0.5787	1015.48	1.07
298.15	0.0557	0.6456	1017.2	1.07
298.15	0.0557	0.7657	1020.22	1.07
308.15	0.0557	0	996.69	1.07
308.15	0.0557	0.0528	998.17	1.07
308.15	0.0557	0.1037	999.58	1.07
308.15	0.0557	0.2023	1002.28	1.07
308.15	0.0557	0.2995	1004.9	1.07
308.15	0.0557	0.3936	1007.4	1.07
308.15	0.0557	0.4921	1009.96	1.07
308.15	0.0557	0.5787	1012.19	1.07
308.15	0.0557	0.6456	1013.86	1.07
308.15	0.0557	0.7657	1016.85	1.07
310.15	0.0557	0	995.98	1.07
310.15	0.0557	0.0528	997.45	1.07
310.15	0.0557	0.1037	998.85	1.07
310.15	0.0557	0.2023	1001.54	1.07
310.15	0.0557	0.2995	1004.15	1.07
310.15	0.0557	0.3936	1006.63	1.07
310.15	0.0557	0.4921	1009.18	1.07
310.15	0.0557	0.5787	1011.38	1.07
310.15	0.0557	0.6456	1013.06	1.06
310.15	0.0557	0.7657	1016.06	1.06
318.15	0.0557	0	992.83	1.07
318.15	0.0557	0.0528	994.3	1.07
318.15	0.0557	0.1037	995.7	1.07
318.15	0.0557	0.2023	998.39	1.07
318.15	0.0557	0.2995	1000.99	1.07
318.15	0.0557	0.3936	1003.49	1.07
318.15	0.0557	0.4921	1006.06	1.07
318.15	0.0557	0.5787	1008.27	1.07
318.15	0.0557	0.6456	1009.95	1.06
318.15	0.0557	0.7657	1012.92	1.06
288.15	0.1133	0	1005.08	1.07
288.15	0.1133	0.0571	1006.72	1.07
288.15	0.1133	0.0904	1007.67	1.07
288.15	0.1133	0.1794	1010.18	1.07
288.15	0.1133	0.306	1013.69	1.07
288.15	0.1133	0.3891	1015.96	1.07
288.15	0.1133	0.4781	1018.35	1.07
288.15	0.1133	0.6019	1021.62	1.07
288.15	0.1133	0.7028	1024.25	1.07
288.15	0.1133	0.8579	1028.21	1.08
298.15	0.1133	0	1002.9	1.07
298.15	0.1133	0.0571	1004.51	1.07
298.15	0.1133	0.0904	1005.44	1.07
298.15	0.1133	0.1794	1007.91	1.07
298.15	0.1133	0.306	1011.35	1.07
298.15	0.1133	0.3891	1013.58	1.07
298.15	0.1133	0.4781	1015.91	1.07
298.15	0.1133	0.6019	1019.12	1.07
298.15	0.1133	0.7028	1021.71	1.07
298.15	0.1133	0.8579	1025.59	1.08
308.15	0.1133	0	999.78	1.07
308.15	0.1133	0.0571	1001.37	1.07
308.15	0.1133	0.0904	1002.29	1.07
308.15	0.1133	0.1794	1004.72	1.07
308.15	0.1133	0.306	1008.12	1.07
308.15	0.1133	0.3891	1010.31	1.07
308.15	0.1133	0.4781	1012.62	1.07
308.15	0.1133	0.6019	1015.78	1.07
308.15	0.1133	0.7028	1018.29	1.07
308.15	0.1133	0.8579	1022.09	1.08
310.15	0.1133	0	999.06	1.07
310.15	0.1133	0.0571	1000.64	1.07
310.15	0.1133	0.0904	1001.55	1.07
310.15	0.1133	0.1794	1003.97	1.07
310.15	0.1133	0.306	1007.35	1.07
310.15	0.1133	0.3891	1009.53	1.06
310.15	0.1133	0.4781	1011.83	1.06
310.15	0.1133	0.6019	1014.97	1.06
310.15	0.1133	0.7028	1017.48	1.06
310.15	0.1133	0.8579	1021.28	1.08
318.15	0.1133	0	995.72	1.07
318.15	0.1133	0.0571	997.3	1.1
318.15	0.1133	0.0904	998.21	1.06
318.15	0.1133	0.1794	1000.63	1.06
318.15	0.1133	0.306	1004.01	1.06
318.15	0.1133	0.3891	1006.19	1.06
318.15	0.1133	0.4781	1008.47	1.06
318.15	0.1133	0.6019	1011.63	1.06
318.15	0.1133	0.7028	1014.12	1.06
318.15	0.1133	0.8579	1017.87	1.07
288.15	0.2016	0	1009.08	1.07
288.15	0.2016	0.0534	1010.6	1.07
288.15	0.2016	0.1107	1012.21	1.07
288.15	0.2016	0.1976	1014.63	1.07
288.15	0.2016	0.2927	1017.25	1.07
288.15	0.2016	0.3895	1019.88	1.07
288.15	0.2016	0.5153	1023.25	1.07
288.15	0.2016	0.5716	1024.72	1.07
288.15	0.2016	0.7236	1028.65	1.07
298.15	0.2016	0	1006.79	1.07
298.15	0.2016	0.0534	1008.28	1.07
298.15	0.2016	0.1107	1009.86	1.07
298.15	0.2016	0.1976	1012.24	1.07
298.15	0.2016	0.2927	1014.81	1.07
298.15	0.2016	0.3895	1017.38	1.07
298.15	0.2016	0.5153	1020.69	1.07
298.15	0.2016	0.5716	1022.13	1.07
298.15	0.2016	0.7236	1025.99	1.07
308.15	0.2016	0	1003.57	1.07
308.15	0.2016	0.0534	1005.04	1.07
308.15	0.2016	0.1107	1006.6	1.07
308.15	0.2016	0.1976	1008.93	1.07
308.15	0.2016	0.2927	1011.44	1.07
308.15	0.2016	0.3895	1013.97	1.07
308.15	0.2016	0.5153	1017.21	1.07
308.15	0.2016	0.5716	1018.61	1.07
308.15	0.2016	0.7236	1022.39	1.07
310.15	0.2016	0	1002.83	1.07
310.15	0.2016	0.0534	1004.29	1.07
310.15	0.2016	0.1107	1005.84	1.07
310.15	0.2016	0.1976	1008.17	1.07
310.15	0.2016	0.2927	1010.68	1.07
310.15	0.2016	0.3895	1013.17	1.07
310.15	0.2016	0.5153	1016.35	1.07
310.15	0.2016	0.5716	1017.75	1.07
310.15	0.2016	0.7236	1021.45	1.07
318.15	0.2016	0	999.57	1.07
318.15	0.2016	0.0534	1001.03	1.07
318.15	0.2016	0.1107	1002.58	1.07
318.15	0.2016	0.1976	1004.91	1.07
318.15	0.2016	0.2927	1007.39	1.07
318.15	0.2016	0.3895	1009.9	1.06
318.15	0.2016	0.5153	1012.99	1.06
318.15	0.2016	0.5716	1014.39	1.06
318.15	0.2016	0.7236	1018.1	1.06
288.15	0.2633	0	1012.6	1.09
288.15	0.2633	0.0557	1014.17	1.09
288.15	0.2633	0.1045	1015.53	1.09
288.15	0.2633	0.2122	1018.49	1.08
288.15	0.2633	0.3083	1021.09	1.08
288.15	0.2633	0.4311	1024.33	1.08
288.15	0.2633	0.4597	1025.07	1.08
288.15	0.2633	0.6236	1029.28	1.08
288.15	0.2633	0.6889	1030.91	1.08
298.15	0.2633	0	1010.24	1.08
298.15	0.2633	0.0557	1011.78	1.08
298.15	0.2633	0.1045	1013.11	1.08
298.15	0.2633	0.2122	1016.01	1.08
298.15	0.2633	0.3083	1018.56	1.08
298.15	0.2633	0.4311	1021.73	1.07
298.15	0.2633	0.4597	1022.46	1.06
298.15	0.2633	0.6236	1026.59	1.07
298.15	0.2633	0.6889	1028.18	1.07
308.15	0.2633	0	1006.95	1.08
308.15	0.2633	0.0557	1008.47	1.08
308.15	0.2633	0.1045	1009.79	1.08
308.15	0.2633	0.2122	1012.66	1.08
308.15	0.2633	0.3083	1015.18	1.08
308.15	0.2633	0.4311	1018.35	1.08
308.15	0.2633	0.4597	1019.07	1.08
308.15	0.2633	0.6236	1023.17	1.08
308.15	0.2633	0.6889	1024.77	1.08
310.15	0.2633	0	1006.2	1.08
310.15	0.2633	0.0557	1007.71	1.08
310.15	0.2633	0.1045	1009.02	1.08
310.15	0.2633	0.2122	1011.87	1.08
310.15	0.2633	0.3083	1014.36	1.08
310.15	0.2633	0.4311	1017.49	1.08
310.15	0.2633	0.4597	1018.2	1.08
310.15	0.2633	0.6236	1022.23	1.08
310.15	0.2633	0.6889	1023.79	1.08
318.15	0.2633	0	1002.9	1.08
318.15	0.2633	0.0557	1004.4	1.08
318.15	0.2633	0.1045	1005.7	1.08
318.15	0.2633	0.2122	1008.52	1.08
318.15	0.2633	0.3083	1010.99	1.08
318.15	0.2633	0.4311	1014.06	1.08
318.15	0.2633	0.4597	1014.75	1.07
318.15	0.2633	0.6236	1018.72	1.07
318.15	0.2633	0.6889	1020.25	1.07

System: L-serine + water + 1-butyl-3-methylimidazolium bromide; phases: Liquid
Fixed: Pressure, kPa = 101.3
Property: Mass density, kg/m3 (Liquid); method: Vibrating tube method
Temperature, K	Solvent: Molality, mol/kg of 1-butyl-3-methylimidazolium bromide	Molality, mol/kg of L-serine	Mass density, kg/m3	uncertainty
288.15	0	0	999.08	1.07
288.15	0	0.0489	1001.29	1.07
288.15	0	0.104	1003.76	1.07
288.15	0	0.2	1008.02	1.07
288.15	0	0.292	1012.04	1.07
288.15	0	0.3911	1016.28	1.07
288.15	0	0.471	1019.63	1.07
288.15	0	0.5884	1024.47	1.07
288.15	0	0.6788	1028.16	1.07
288.15	0	0.7168	1029.64	1.08
298.15	0	0	997.05	1.08
298.15	0	0.0489	999.22	1.08
298.15	0	0.104	1001.64	1.08
298.15	0	0.2	1005.81	1.08
298.15	0	0.292	1009.76	1.08
298.15	0	0.3911	1013.93	1.08
298.15	0	0.471	1017.22	1.08
298.15	0	0.5884	1021.98	1.08
298.15	0	0.6788	1025.59	1.08
298.15	0	0.7168	1027.05	1.09
308.15	0	0	994.06	1.07
308.15	0	0.0489	996.21	1.07
308.15	0	0.104	998.6	1.1
308.15	0	0.2	1002.72	1.07
308.15	0	0.292	1006.6	1.07
308.15	0	0.3911	1010.72	1.07
308.15	0	0.471	1013.95	1.07
308.15	0	0.5884	1018.62	1.07
308.15	0	0.6788	1022.22	1.07
308.15	0	0.7168	1023.66	1.07
310.15	0	0	993.36	1.07
310.15	0	0.0489	995.5	1.1
310.15	0	0.104	997.89	1.07
310.15	0	0.2	1002	1.07
310.15	0	0.292	1005.88	1.07
310.15	0	0.3911	1009.98	1.07
310.15	0	0.471	1013.21	1.07
310.15	0	0.5884	1017.85	1.07
310.15	0	0.6788	1021.44	1.07
310.15	0	0.7168	1022.88	1.07
318.15	0	0	990.25	1.07
318.15	0	0.0489	992.38	1.07
318.15	0	0.104	994.75	1.07
318.15	0	0.2	998.83	1.07
318.15	0	0.292	1002.65	1.07
318.15	0	0.3911	1006.72	1.07
318.15	0	0.471	1009.93	1.07
318.15	0	0.5884	1014.6	1.07
318.15	0	0.6788	1018.12	1.07
318.15	0	0.7168	1019.57	1.07
288.15	0.0509	0	1001.61	1.07
288.15	0.0509	0.05	1003.86	1.07
288.15	0.0509	0.0991	1006.05	1.07
288.15	0.0509	0.1896	1010.04	1.07
288.15	0.0509	0.2928	1014.52	1.07
288.15	0.0509	0.3908	1018.67	1.07
288.15	0.0509	0.4713	1022.04	1.07
288.15	0.0509	0.5678	1026.05	1.07
288.15	0.0509	0.7332	1032.75	1.07
288.15	0.0509	0.8389	1036.86	1.07
298.15	0.0509	0	999.52	1.07
298.15	0.0509	0.05	1001.72	1.07
298.15	0.0509	0.0991	1003.86	1.07
298.15	0.0509	0.1896	1007.77	1.07
298.15	0.0509	0.2928	1012.17	1.07
298.15	0.0509	0.3908	1016.28	1.07
298.15	0.0509	0.4713	1019.6	1.07
298.15	0.0509	0.5678	1023.51	1.07
298.15	0.0509	0.7332	1030.09	1.07
298.15	0.0509	0.8389	1034.15	1.07
308.15	0.0509	0	996.47	1.07
308.15	0.0509	0.05	998.65	1.07
308.15	0.0509	0.0991	1000.77	1.07
308.15	0.0509	0.1896	1004.64	1.07
308.15	0.0509	0.2928	1008.97	1.07
308.15	0.0509	0.3908	1013.04	1.07
308.15	0.0509	0.4713	1016.27	1.07
308.15	0.0509	0.5678	1020.18	1.07
308.15	0.0509	0.7332	1026.64	1.07
308.15	0.0509	0.8389	1030.61	1.07
310.15	0.0509	0	995.75	1.07
310.15	0.0509	0.05	997.92	1.07
310.15	0.0509	0.0991	1000.03	1.07
310.15	0.0509	0.1896	1003.88	1.07
310.15	0.0509	0.2928	1008.21	1.07
310.15	0.0509	0.3908	1012.25	1.07
310.15	0.0509	0.4713	1015.52	1.07
310.15	0.0509	0.5678	1019.42	1.07
310.15	0.0509	0.7332	1025.86	1.07
310.15	0.0509	0.8389	1029.83	1.07
318.15	0.0509	0	992.61	1.07
318.15	0.0509	0.05	994.77	1.07
318.15	0.0509	0.0991	996.87	1.07
318.15	0.0509	0.1896	1000.69	1.06
318.15	0.0509	0.2928	1004.97	1.07
318.15	0.0509	0.3908	1008.98	1.07
318.15	0.0509	0.4713	1012.21	1.07
318.15	0.0509	0.5678	1016.05	1.07
318.15	0.0509	0.7332	1022.5	1.07
318.15	0.0509	0.8389	1026.46	1.07
288.15	0.1073	0	1004.38	1.07
288.15	0.1073	0.0497	1006.59	1.07
288.15	0.1073	0.1041	1008.99	1.07
288.15	0.1073	0.1962	1013.01	1.07
288.15	0.1073	0.2945	1017.24	1.07
288.15	0.1073	0.3776	1020.76	1.07
288.15	0.1073	0.5084	1026.23	1.07
288.15	0.1073	0.5949	1029.78	1.07
288.15	0.1073	0.6755	1033.02	1.07
288.15	0.1073	0.7408	1035.63	1.07
298.15	0.1073	0	1002.22	1.07
298.15	0.1073	0.0497	1004.4	1.07
298.15	0.1073	0.1041	1006.76	1.07
298.15	0.1073	0.1962	1010.72	1.07
298.15	0.1073	0.2945	1014.88	1.07
298.15	0.1073	0.3776	1018.35	1.07
298.15	0.1073	0.5084	1023.7	1.07
298.15	0.1073	0.5949	1027.18	1.07
298.15	0.1073	0.6755	1030.33	1.07
298.15	0.1073	0.7408	1032.88	1.07
308.15	0.1073	0	999.1	1.07
308.15	0.1073	0.0497	1001.26	1.07
308.15	0.1073	0.1041	1003.6	1.1
308.15	0.1073	0.1962	1007.51	1.07
308.15	0.1073	0.2945	1011.61	1.07
308.15	0.1073	0.3776	1015.02	1.07
308.15	0.1073	0.5084	1020.3	1.07
308.15	0.1073	0.5949	1023.74	1.07
308.15	0.1073	0.6755	1026.85	1.07
308.15	0.1073	0.7408	1029.37	1.07
310.15	0.1073	0	998.38	1.07
310.15	0.1073	0.0497	1000.53	1.07
310.15	0.1073	0.1041	1002.86	1.07
310.15	0.1073	0.1962	1006.75	1.07
310.15	0.1073	0.2945	1010.83	1.07
310.15	0.1073	0.3776	1014.23	1.07
310.15	0.1073	0.5084	1019.49	1.07
310.15	0.1073	0.5949	1022.91	1.07
310.15	0.1073	0.6755	1026.04	1.07
310.15	0.1073	0.7408	1028.54	1.07
318.15	0.1073	0	995.11	1.07
318.15	0.1073	0.0497	997.25	1.07
318.15	0.1073	0.1041	999.57	1.06
318.15	0.1073	0.1962	1003.44	1.07
318.15	0.1073	0.2945	1007.51	1.07
318.15	0.1073	0.3776	1010.9	1.07
318.15	0.1073	0.5084	1016.14	1.07
318.15	0.1073	0.5949	1019.55	1.07
318.15	0.1073	0.6755	1022.69	1.07
318.15	0.1073	0.7408	1025.18	1.07
288.15	0.201	0	1008.91	1.07
288.15	0.201	0.0544	1011.32	1.07
288.15	0.201	0.0996	1013.3	1.07
288.15	0.201	0.1979	1017.57	1.07
288.15	0.201	0.2933	1021.64	1.07
288.15	0.201	0.398	1026.05	1.07
288.15	0.201	0.4901	1029.88	1.07
288.15	0.201	0.6304	1035.59	1.07
288.15	0.201	0.6608	1036.8	1.07
288.15	0.201	0.8162	1042.95	1.07
298.15	0.201	0	1006.62	1.07
298.15	0.201	0.0544	1008.99	1.07
298.15	0.201	0.0996	1010.94	1.07
298.15	0.201	0.1979	1015.14	1.07
298.15	0.201	0.2933	1019.16	1.07
298.15	0.201	0.398	1023.5	1.07
298.15	0.201	0.4901	1027.25	1.07
298.15	0.201	0.6304	1032.88	1.07
298.15	0.201	0.6608	1034.08	1.07
298.15	0.201	0.8162	1040.13	1.07
308.15	0.201	0	1003.37	1.07
308.15	0.201	0.0544	1005.72	1.07
308.15	0.201	0.0996	1007.65	1.07
308.15	0.201	0.1979	1011.8	1.07
308.15	0.201	0.2933	1015.77	1.07
308.15	0.201	0.398	1020.08	1.07
308.15	0.201	0.4901	1023.79	1.07
308.15	0.201	0.6304	1029.29	1.07
308.15	0.201	0.6608	1030.47	1.07
308.15	0.201	0.8162	1036.49	1.07
310.15	0.201	0	1002.65	1.07
310.15	0.201	0.0544	1004.99	1.07
310.15	0.201	0.0996	1006.91	1.07
310.15	0.201	0.1979	1011.05	1.07
310.15	0.201	0.2933	1015	1.07
310.15	0.201	0.398	1019.28	1.07
310.15	0.201	0.4901	1022.98	1.07
310.15	0.201	0.6304	1028.48	1.07
310.15	0.201	0.6608	1029.66	1.07
310.15	0.201	0.8162	1035.68	1.07
318.15	0.201	0	999.35	1.06
318.15	0.201	0.0544	1001.67	1.06
318.15	0.201	0.0996	1003.58	1.06
318.15	0.201	0.1979	1007.69	1.06
318.15	0.201	0.2933	1011.62	1.06
318.15	0.201	0.398	1015.87	1.06
318.15	0.201	0.4901	1019.56	1.06
318.15	0.201	0.6304	1025.08	1.07
318.15	0.201	0.6608	1026.25	1.06
318.15	0.201	0.8162	1032.19	1.06
288.15	0.2918	0	1013.08	1.07
288.15	0.2918	0.054	1015.46	1.07
288.15	0.2918	0.1085	1017.84	1.07
288.15	0.2918	0.2015	1021.86	1.07
288.15	0.2918	0.2855	1025.43	1.07
288.15	0.2918	0.3947	1030.01	1.07
288.15	0.2918	0.4851	1033.75	1.07
288.15	0.2918	0.6047	1038.63	1.07
288.15	0.2918	0.6691	1041.2	1.07
288.15	0.2918	0.8272	1047.48	1.07
298.15	0.2918	0	1010.67	1.06
298.15	0.2918	0.054	1013.01	1.06
298.15	0.2918	0.1085	1015.35	1.06
298.15	0.2918	0.2015	1019.3	1.06
298.15	0.2918	0.2855	1022.82	1.06
298.15	0.2918	0.3947	1027.33	1.07
298.15	0.2918	0.4851	1031	1.07
298.15	0.2918	0.6047	1035.79	1.07
298.15	0.2918	0.6691	1038.33	1.07
298.15	0.2918	0.8272	1044.48	1.07
308.15	0.2918	0	1007.36	1.07
308.15	0.2918	0.054	1009.68	1.07
308.15	0.2918	0.1085	1012	1.07
308.15	0.2918	0.2015	1015.92	1.07
308.15	0.2918	0.2855	1019.41	1.07
308.15	0.2918	0.3947	1023.87	1.07
308.15	0.2918	0.4851	1027.49	1.07
308.15	0.2918	0.6047	1032.22	1.07
308.15	0.2918	0.6691	1034.73	1.07
308.15	0.2918	0.8272	1040.8	1.07
310.15	0.2918	0	1006.6	1.06
310.15	0.2918	0.054	1008.91	1.06
310.15	0.2918	0.1085	1011.22	1.06
310.15	0.2918	0.2015	1015.11	1.06
310.15	0.2918	0.2855	1018.58	1.07
310.15	0.2918	0.3947	1023.03	1.07
310.15	0.2918	0.4851	1026.63	1.07
310.15	0.2918	0.6047	1031.32	1.07
310.15	0.2918	0.6691	1033.81	1.07
310.15	0.2918	0.8272	1039.83	1.07
318.15	0.2918	0	1003.16	1.06
318.15	0.2918	0.054	1005.45	1.06
318.15	0.2918	0.1085	1007.74	1.06
318.15	0.2918	0.2015	1011.61	1.06
318.15	0.2918	0.2855	1015.05	1.06
318.15	0.2918	0.3947	1019.45	1.06
318.15	0.2918	0.4851	1023.04	1.06
318.15	0.2918	0.6047	1027.71	1.06
318.15	0.2918	0.6691	1030.2	1.06
318.15	0.2918	0.8272	1036.2	1.06

System: L-threonine + water + 1-butyl-3-methylimidazolium bromide; phases: Liquid
Fixed: Pressure, kPa = 101.3
Property: Mass density, kg/m3 (Liquid); method: Vibrating tube method
Temperature, K	Solvent: Molality, mol/kg of 1-butyl-3-methylimidazolium bromide	Molality, mol/kg of L-threonine	Mass density, kg/m3	uncertainty
288.15	0	0	999.09	1.07
288.15	0	0.1926	1007.25	1.07
288.15	0	0.2858	1011.08	1.07
288.15	0	0.3869	1015.18	1.07
288.15	0	0.4789	1018.78	1.07
288.15	0	0.5872	1022.93	1.08
288.15	0	0.6687	1026.01	1.07
298.15	0	0	997.04	1.08
298.15	0	0.1926	1005.04	1.08
298.15	0	0.2858	1008.79	1.08
298.15	0	0.3869	1012.82	1.08
298.15	0	0.4789	1016.36	1.08
298.15	0	0.5872	1020.45	1.08
298.15	0	0.6687	1023.46	1.08
308.15	0	0	994.02	1.07
308.15	0	0.1926	1001.91	1.07
308.15	0	0.2858	1005.62	1.07
308.15	0	0.3869	1009.58	1.07
308.15	0	0.4789	1013.09	1.07
308.15	0	0.5872	1017.13	1.07
308.15	0	0.6687	1020.1	1.07
310.15	0	0	993.32	1.07
310.15	0	0.1926	1001.19	1.07
310.15	0	0.2858	1004.89	1.07
310.15	0	0.3869	1008.86	1.07
310.15	0	0.4789	1012.35	1.07
310.15	0	0.5872	1016.39	1.07
310.15	0	0.6687	1019.34	1.07
318.15	0	0	990.2	1.07
318.15	0	0.1926	998.01	1.07
318.15	0	0.2858	1001.68	1.07
318.15	0	0.3869	1005.6	1.07
318.15	0	0.4789	1009.09	1.07
318.15	0	0.5872	1013.09	1.07
318.15	0	0.6687	1016.02	1.07
288.15	0.0513	0	1001.57	1.07
288.15	0.0513	0.2032	1010.14	1.07
288.15	0.0513	0.3023	1014.21	1.07
288.15	0.0513	0.3991	1018.11	1.07
288.15	0.0513	0.5142	1022.65	1.07
288.15	0.0513	0.5918	1025.65	1.07
298.15	0.0513	0	999.46	1.07
298.15	0.0513	0.2032	1007.88	1.07
298.15	0.0513	0.3023	1011.86	1.07
298.15	0.0513	0.3991	1015.69	1.07
298.15	0.0513	0.5142	1020.16	1.08
298.15	0.0513	0.5918	1023.08	1.07
308.15	0.0513	0	996.38	1.07
308.15	0.0513	0.2032	1004.69	1.07
308.15	0.0513	0.3023	1008.63	1.07
308.15	0.0513	0.3991	1012.42	1.07
308.15	0.0513	0.5142	1016.83	1.07
308.15	0.0513	0.5918	1019.73	1.07
310.15	0.0513	0	995.68	1.07
310.15	0.0513	0.2032	1003.97	1.07
310.15	0.0513	0.3023	1007.9	1.07
310.15	0.0513	0.3991	1011.68	1.07
310.15	0.0513	0.5142	1016.08	1.07
310.15	0.0513	0.5918	1018.97	1.07
318.15	0.0513	0	992.51	1.07
318.15	0.0513	0.2032	1000.73	1.06
318.15	0.0513	0.3023	1004.62	1.07
318.15	0.0513	0.3991	1008.36	1.07
318.15	0.0513	0.5142	1012.71	1.07
318.15	0.0513	0.5918	1015.57	1.07
288.15	0.101	0	1004.05	1.07
288.15	0.101	0.2984	1016.46	1.07
288.15	0.101	0.3961	1020.36	1.07
288.15	0.101	0.5048	1024.63	1.07
288.15	0.101	0.5974	1028.2	1.07
288.15	0.101	0.6885	1031.62	1.07
298.15	0.101	0	1001.87	1.07
298.15	0.101	0.2984	1014.06	1.07
298.15	0.101	0.3961	1017.9	1.06
298.15	0.101	0.5048	1022.07	1.07
298.15	0.101	0.5974	1025.59	1.07
298.15	0.101	0.6885	1028.95	1.07
308.15	0.101	0	998.72	1.07
308.15	0.101	0.2984	1010.75	1.07
308.15	0.101	0.3961	1014.53	1.07
308.15	0.101	0.5048	1018.66	1.07
308.15	0.101	0.5974	1022.13	1.07
308.15	0.101	0.6885	1025.45	1.07
310.15	0.101	0	998	1.07
310.15	0.101	0.2984	1010.01	1.07
310.15	0.101	0.3961	1013.78	1.07
310.15	0.101	0.5048	1017.91	1.07
310.15	0.101	0.5974	1021.36	1.07
310.15	0.101	0.6885	1024.68	1.07
318.15	0.101	0	994.83	1.07
318.15	0.101	0.2984	1006.72	1.07
318.15	0.101	0.3961	1010.47	1.07
318.15	0.101	0.5048	1014.56	1.07
318.15	0.101	0.5974	1017.98	1.07
318.15	0.101	0.6885	1021.3	1.07
288.15	0.2009	0	1008.82	1.07
288.15	0.2009	0.2063	1017.41	1.07
288.15	0.2009	0.2953	1021.01	1.07
288.15	0.2009	0.5015	1029.12	1.07
288.15	0.2009	0.6034	1033	1.07
288.15	0.2009	0.703	1036.76	1.07
298.15	0.2009	0	1006.51	1.07
298.15	0.2009	0.2063	1014.94	1.07
298.15	0.2009	0.2953	1018.47	1.07
298.15	0.2009	0.5015	1026.45	1.07
298.15	0.2009	0.6034	1030.25	1.07
298.15	0.2009	0.703	1033.93	1.07
308.15	0.2009	0	1003.27	1.06
308.15	0.2009	0.2063	1011.6	1.07
308.15	0.2009	0.2953	1015.09	1.06
308.15	0.2009	0.5015	1022.96	1.07
308.15	0.2009	0.6034	1026.71	1.07
308.15	0.2009	0.703	1030.35	1.07
310.15	0.2009	0	1002.54	1.06
310.15	0.2009	0.2063	1010.85	1.07
310.15	0.2009	0.2953	1014.33	1.06
310.15	0.2009	0.5015	1022.19	1.06
310.15	0.2009	0.6034	1025.93	1.07
310.15	0.2009	0.703	1029.56	1.07
318.15	0.2009	0	999.26	1.06
318.15	0.2009	0.2063	1007.5	1.06
318.15	0.2009	0.2953	1010.96	1.06
318.15	0.2009	0.5015	1018.75	1.06
318.15	0.2009	0.6034	1022.48	1.06
318.15	0.2009	0.703	1026.09	1.06
288.15	0.2981	0	1013.19	1.07
288.15	0.2981	0.1996	1021.42	1.07
288.15	0.2981	0.3011	1025.5	1.07
288.15	0.2981	0.491	1032.94	1.07
288.15	0.2981	0.5998	1037.1	1.07
288.15	0.2981	0.7048	1041.02	1.07
298.15	0.2981	0	1010.75	1.06
298.15	0.2981	0.1996	1018.83	1.06
298.15	0.2981	0.3011	1022.83	1.06
298.15	0.2981	0.491	1030.14	1.06
298.15	0.2981	0.5998	1034.23	1.06
298.15	0.2981	0.7048	1038.09	1.06
308.15	0.2981	0	1007.42	1.06
308.15	0.2981	0.1996	1015.39	1.06
308.15	0.2981	0.3011	1019.34	1.06
308.15	0.2981	0.491	1026.56	1.06
308.15	0.2981	0.5998	1030.59	1.06
308.15	0.2981	0.7048	1034.41	1.07
310.15	0.2981	0	1006.65	1.06
310.15	0.2981	0.1996	1014.61	1.06
310.15	0.2981	0.3011	1018.55	1.06
310.15	0.2981	0.491	1025.75	1.06
310.15	0.2981	0.5998	1029.77	1.06
310.15	0.2981	0.7048	1033.57	1.06
318.15	0.2981	0	1003.33	1.06
318.15	0.2981	0.1996	1011.23	1.06
318.15	0.2981	0.3011	1015.14	1.06
318.15	0.2981	0.491	1022.29	1.06
318.15	0.2981	0.5998	1026.28	1.06
318.15	0.2981	0.7048	1030.06	1.06

System: (.+-.)-.alpha.-aminobutyric acid + water + 1-butyl-3-methylimidazolium bromide; phases: Liquid
Fixed: Pressure, kPa = 101.3
Property: Mass density, kg/m3 (Liquid); method: Vibrating tube method
Temperature, K	Solvent: Molality, mol/kg of 1-butyl-3-methylimidazolium bromide	Molality, mol/kg of (.+-.)-.alpha.-aminobutyric acid	Mass density, kg/m3	uncertainty
288.15	0	0	999.09	1.11
288.15	0	0.2006	1004.67	1.12
288.15	0	0.4945	1012.46	1.12
288.15	0	0.5944	1015	1.12
288.15	0	0.6791	1017.13	1.12
288.15	0	0.7812	1019.67	1.12
288.15	0	0.8868	1022.24	1.11
288.15	0	0.9902	1024.71	1.12
298.15	0	0	997.04	1.12
298.15	0	0.2006	1002.5	1.12
298.15	0	0.4945	1010.14	1.12
298.15	0	0.5944	1012.62	1.12
298.15	0	0.6791	1014.71	1.12
298.15	0	0.7812	1017.19	1.12
298.15	0	0.8868	1019.71	1.11
298.15	0	0.9902	1022.13	1.12
308.15	0	0	994.03	1.11
308.15	0	0.2006	999.41	1.11
308.15	0	0.4945	1006.94	1.11
308.15	0	0.5944	1009.38	1.11
308.15	0	0.6791	1011.44	1.11
308.15	0	0.7812	1013.88	1.11
308.15	0	0.8868	1016.36	1.11
308.15	0	0.9902	1018.74	1.11
310.15	0	0	993.32	1.11
310.15	0	0.2006	998.69	1.11
310.15	0	0.4945	1006.2	1.11
310.15	0	0.5944	1008.64	1.11
310.15	0	0.6791	1010.69	1.11
310.15	0	0.7812	1013.12	1.11
310.15	0	0.8868	1015.6	1.11
310.15	0	0.9902	1017.97	1.11
318.15	0	0	990.2	1.11
318.15	0	0.2006	995.55	1.11
318.15	0	0.4945	1003.01	1.11
318.15	0	0.5944	1005.46	1.11
318.15	0	0.6791	1007.5	1.11
318.15	0	0.7812	1009.85	1.11
318.15	0	0.8868	1012.32	1.11
318.15	0	0.9902	1014.68	1.11
288.15	0.0493	0	1001.53	1.11
288.15	0.0493	0.2054	1007.21	1.11
288.15	0.0493	0.2925	1009.56	1.11
288.15	0.0493	0.4005	1012.41	1.11
288.15	0.0493	0.5058	1015.14	1.11
288.15	0.0493	0.6675	1019.27	1.12
288.15	0.0493	0.7898	1022.28	1.11
298.15	0.0493	0	999.41	1.11
298.15	0.0493	0.2054	1004.98	1.11
298.15	0.0493	0.2925	1007.27	1.11
298.15	0.0493	0.4005	1010.06	1.11
298.15	0.0493	0.5058	1012.74	1.11
298.15	0.0493	0.6675	1016.77	1.11
298.15	0.0493	0.7898	1019.73	1.11
308.15	0.0493	0	996.35	1.11
308.15	0.0493	0.2054	1001.83	1.11
308.15	0.0493	0.2925	1004.09	1.11
308.15	0.0493	0.4005	1006.84	1.11
308.15	0.0493	0.5058	1009.47	1.11
308.15	0.0493	0.6675	1013.44	1.11
308.15	0.0493	0.7898	1016.37	1.11
310.15	0.0493	0	995.63	1.11
310.15	0.0493	0.2054	1001.1	1.11
310.15	0.0493	0.2925	1003.36	1.11
310.15	0.0493	0.4005	1006.1	1.11
310.15	0.0493	0.5058	1008.72	1.11
310.15	0.0493	0.6675	1012.66	1.11
310.15	0.0493	0.7898	1015.55	1.11
318.15	0.0493	0	992.48	1.1
318.15	0.0493	0.2054	997.94	1.1
318.15	0.0493	0.2925	1000.18	1.1
318.15	0.0493	0.4005	1002.91	1.1
318.15	0.0493	0.5058	1005.53	1.11
318.15	0.0493	0.6675	1009.46	1.11
318.15	0.0493	0.7898	1012.34	1.11
288.15	0.1002	0	1003.91	1.11
288.15	0.1002	0.186	1009.01	1.11
288.15	0.1002	0.3015	1012.1	1.12
288.15	0.1002	0.4015	1014.72	1.11
288.15	0.1002	0.4927	1017.07	1.12
288.15	0.1002	0.5926	1019.59	1.12
288.15	0.1002	0.7026	1022.28	1.12
288.15	0.1002	0.8014	1024.63	1.12
298.15	0.1002	0	1001.72	1.11
298.15	0.1002	0.186	1006.72	1.1
298.15	0.1002	0.3015	1009.74	1.11
298.15	0.1002	0.4015	1012.31	1.1
298.15	0.1002	0.4927	1014.6	1.11
298.15	0.1002	0.5926	1017.07	1.12
298.15	0.1002	0.7026	1019.7	1.12
298.15	0.1002	0.8014	1022.01	1.12
308.15	0.1002	0	998.61	1.11
308.15	0.1002	0.186	1003.53	1.1
308.15	0.1002	0.3015	1006.51	1.11
308.15	0.1002	0.4015	1009.04	1.11
308.15	0.1002	0.4927	1011.3	1.11
308.15	0.1002	0.5926	1013.72	1.11
308.15	0.1002	0.7026	1016.32	1.11
308.15	0.1002	0.8014	1018.59	1.11
310.15	0.1002	0	997.87	1.11
310.15	0.1002	0.186	1002.79	1.1
310.15	0.1002	0.3015	1005.76	1.11
310.15	0.1002	0.4015	1008.28	1.1
310.15	0.1002	0.4927	1010.53	1.11
310.15	0.1002	0.5926	1012.95	1.11
310.15	0.1002	0.7026	1015.54	1.11
310.15	0.1002	0.8014	1017.81	1.11
318.15	0.1002	0	994.63	1.11
318.15	0.1002	0.186	999.55	1.1
318.15	0.1002	0.3015	1002.5	1.11
318.15	0.1002	0.4015	1005.01	1.1
318.15	0.1002	0.4927	1007.25	1.11
318.15	0.1002	0.5926	1009.67	1.11
318.15	0.1002	0.7026	1012.25	1.11
318.15	0.1002	0.8014	1014.53	1.11
288.15	0.1957	0	1008.66	1.12
288.15	0.1957	0.3031	1016.82	1.12
288.15	0.1957	0.4764	1021.31	1.12
288.15	0.1957	0.595	1024.31	1.12
288.15	0.1957	0.6827	1026.5	1.12
288.15	0.1957	0.7682	1028.58	1.12
288.15	0.1957	0.8956	1031.66	1.12
298.15	0.1957	0	1006.35	1.11
298.15	0.1957	0.3031	1014.34	1.11
298.15	0.1957	0.4764	1018.73	1.12
298.15	0.1957	0.595	1021.66	1.12
298.15	0.1957	0.6827	1023.79	1.12
298.15	0.1957	0.7682	1025.82	1.12
298.15	0.1957	0.8956	1028.81	1.12
308.15	0.1957	0	1003.13	1.11
308.15	0.1957	0.3031	1010.99	1.11
308.15	0.1957	0.4764	1015.32	1.11
308.15	0.1957	0.595	1018.2	1.11
308.15	0.1957	0.6827	1020.3	1.11
308.15	0.1957	0.7682	1022.3	1.11
308.15	0.1957	0.8956	1025.25	1.11
310.15	0.1957	0	1002.38	1.11
310.15	0.1957	0.3031	1010.22	1.11
310.15	0.1957	0.4764	1014.52	1.11
310.15	0.1957	0.595	1017.39	1.11
310.15	0.1957	0.6827	1019.47	1.11
310.15	0.1957	0.7682	1021.45	1.11
310.15	0.1957	0.8956	1024.35	1.11
318.15	0.1957	0	999.01	1.11
318.15	0.1957	0.3031	1006.84	1.11
318.15	0.1957	0.4764	1011.13	1.11
318.15	0.1957	0.595	1014	1.11
318.15	0.1957	0.6827	1016.07	1.11
318.15	0.1957	0.7682	1018.02	1.11
318.15	0.1957	0.8956	1020.92	1.11
288.15	0.3007	0	1013.75	1.12
288.15	0.3007	0.2957	1021.59	1.12
288.15	0.3007	0.5097	1027.03	1.12
288.15	0.3007	0.5975	1029.19	1.12
288.15	0.3007	0.6906	1031.42	1.12
288.15	0.3007	0.8023	1034.1	1.12
288.15	0.3007	0.9006	1036.39	1.12
288.15	0.3007	1.0026	1038.69	1.12
298.15	0.3007	0	1011.3	1.11
298.15	0.3007	0.2957	1018.97	1.11
298.15	0.3007	0.5097	1024.29	1.11
298.15	0.3007	0.5975	1026.4	1.11
298.15	0.3007	0.6906	1028.58	1.11
298.15	0.3007	0.8023	1031.2	1.11
298.15	0.3007	0.9006	1033.44	1.11
298.15	0.3007	1.0026	1035.69	1.12
308.15	0.3007	0	1007.96	1.11
308.15	0.3007	0.2957	1015.51	1.11
308.15	0.3007	0.5097	1020.75	1.11
308.15	0.3007	0.5975	1022.82	1.11
308.15	0.3007	0.6906	1024.97	1.11
308.15	0.3007	0.8023	1027.55	1.11
308.15	0.3007	0.9006	1029.73	1.11
308.15	0.3007	1.0026	1031.94	1.11
310.15	0.3007	0	1007.19	1.11
310.15	0.3007	0.2957	1014.71	1.11
310.15	0.3007	0.5097	1019.93	1.11
310.15	0.3007	0.5975	1022	1.11
310.15	0.3007	0.6906	1024.13	1.11
310.15	0.3007	0.8023	1026.69	1.11
310.15	0.3007	0.9006	1028.88	1.11
310.15	0.3007	1.0026	1031.06	1.11
318.15	0.3007	0	1003.81	1.11
318.15	0.3007	0.2957	1011.3	1.11
318.15	0.3007	0.5097	1016.49	1.11
318.15	0.3007	0.5975	1018.54	1.11
318.15	0.3007	0.6906	1020.67	1.11
318.15	0.3007	0.8023	1023.21	1.11
318.15	0.3007	0.9006	1025.37	1.11
318.15	0.3007	1.0026	1027.54	1.11

System: 2-aminoacetic acid + water; phases: Liquid
Fixed: Pressure, kPa = 101.3
Property: Mass density, kg/m3 (Liquid); method: Vibrating tube method
Temperature, K	Molality, mol/kg of 2-aminoacetic acid	Mass density, kg/m3	uncertainty
288.15	0.0602	1001.04	1
288.15	0.1201	1002.97	1
288.15	0.1992	1005.49	1
288.15	0.3016	1008.71	1
288.15	0.3854	1011.3	1
288.15	0.4462	1013.17	1
288.15	0.5271	1015.62	1
288.15	0.6444	1019.16	1
288.15	0.7856	1023.32	1
298.15	0.0602	998.98	1
298.15	0.1201	1000.87	1
298.15	0.1992	1003.34	1
298.15	0.3016	1006.49	1
298.15	0.3854	1009.02	1
298.15	0.4462	1010.84	1
298.15	0.5271	1013.23	1
298.15	0.6444	1016.66	1
298.15	0.7856	1020.69	1
308.15	0.0602	995.95	1
308.15	0.1201	997.8	1
308.15	0.1992	1000.22	1
308.15	0.3016	1003.32	1
308.15	0.3854	1005.82	1
308.15	0.4462	1007.61	1
308.15	0.5271	1009.97	1
308.15	0.6444	1013.36	1
308.15	0.7856	1017.38	1
310.15	0.0602	995.25	1
310.15	0.1201	997.1	1
310.15	0.1992	999.51	1
310.15	0.3016	1002.59	1
310.15	0.3854	1005.07	1
310.15	0.4462	1006.86	1
310.15	0.5271	1009.22	1
310.15	0.6444	1012.6	1
310.15	0.7856	1016.6	1
318.15	0.0602	992.13	1
318.15	0.1201	993.97	1
318.15	0.1992	996.37	1
318.15	0.3016	999.45	1
318.15	0.3854	1001.91	1
318.15	0.4462	1003.69	1
318.15	0.5271	1006.03	1
318.15	0.6444	1009.41	1
318.15	0.7856	1013.42	1
288.15	0	999.08	1
298.15	0	997.06	1
308.15	0	994.07	1
310.15	0	993.37	1
318.15	0	990.26	1

System: water + 1-butyl-3-methylimidazolium bromide; phases: Liquid
Fixed: Pressure, kPa = 101.3
Property: Mass density, kg/m3 (Liquid); method: Vibrating tube method
Temperature, K	Molality, mol/kg of 1-butyl-3-methylimidazolium bromide	Mass density, kg/m3	uncertainty
288.15	0.0518	1001.67	1.04
298.15	0.0518	999.57	1.04
308.15	0.0518	996.52	1.04
310.15	0.0518	995.81	1.04
318.15	0.0518	992.66	1.03
288.15	0.1004	1004.02	1.05
298.15	0.1004	1001.86	1.16
308.15	0.1004	998.75	1.05
310.15	0.1004	998.04	1.06
318.15	0.1004	994.69	1.07
288.15	0.2345	1010.39	1.06
298.15	0.2345	1008.06	1.05
308.15	0.2345	1004.81	1.05
310.15	0.2345	1004.05	1.05
318.15	0.2345	1000.65	1.05
288.15	0.2964	1013.29	1.01
298.15	0.2964	1010.87	1
308.15	0.2964	1007.54	1.01
310.15	0.2964	1006.76	1.01
318.15	0.2964	1003.29	1
288.15	0.0557	1001.85	1.04
298.15	0.0557	999.75	1
308.15	0.0557	996.69	1.05
310.15	0.0557	995.98	1.04
318.15	0.0557	992.83	1.05
288.15	0.1133	1005.08	1.12
298.15	0.1133	1002.9	1.06
308.15	0.1133	999.78	1.13
310.15	0.1133	999.06	1.11
318.15	0.1133	995.72	1.09
288.15	0.2016	1009.08	1.04
298.15	0.2016	1006.79	1.03
308.15	0.2016	1003.57	1.03
310.15	0.2016	1002.83	1.03
318.15	0.2016	999.57	1.03
288.15	0.2633	1012.6	1.04
298.15	0.2633	1010.24	1.04
308.15	0.2633	1006.95	1.04
310.15	0.2633	1006.2	1.04
318.15	0.2633	1002.9	1.04
288.15	0.0509	1001.61	1.04
298.15	0.0509	999.52	1.04
308.15	0.0509	996.47	1.04
310.15	0.0509	995.75	1.04
318.15	0.0509	992.61	1.03
288.15	0.1073	1004.38	1.05
298.15	0.1073	1002.22	1
308.15	0.1073	999.1	1.06
310.15	0.1073	998.38	1.05
318.15	0.1073	995.11	1.04
288.15	0.201	1008.91	1.04
298.15	0.201	1006.62	1.03
308.15	0.201	1003.37	1.03
310.15	0.201	1002.65	1.03
318.15	0.201	999.35	1.03
288.15	0.2918	1013.08	1.01
298.15	0.2918	1010.67	1.06
308.15	0.2918	1007.36	1
310.15	0.2918	1006.6	1.01
318.15	0.2918	1003.16	1.01
288.15	0.0513	1001.57	1.04
298.15	0.0513	999.46	1.04
308.15	0.0513	996.38	1.04
310.15	0.0513	995.68	1.04
318.15	0.0513	992.51	1.03
288.15	0.101	1004.05	1.05
298.15	0.101	1001.87	1.18
308.15	0.101	998.72	1.06
310.15	0.101	998	1.07
318.15	0.101	994.83	1.04
288.15	0.2009	1008.82	1.03
298.15	0.2009	1006.51	1.03
308.15	0.2009	1003.27	1.03
310.15	0.2009	1002.54	1.03
318.15	0.2009	999.26	1.03
288.15	0.2981	1013.19	1.01
298.15	0.2981	1010.75	1
308.15	0.2981	1007.42	1
310.15	0.2981	1006.65	1
318.15	0.2981	1003.33	1.01
288.15	0.0493	1001.53	1.04
298.15	0.0493	999.41	1.08
308.15	0.0493	996.35	1.05
310.15	0.0493	995.63	1.05
318.15	0.0493	992.48	1.05
288.15	0.1002	1003.91	1.08
298.15	0.1002	1001.72	1.17
308.15	0.1002	998.61	1.08
310.15	0.1002	997.87	1.08
318.15	0.1002	994.63	1.08
288.15	0.1957	1008.66	1.03
298.15	0.1957	1006.35	1.03
308.15	0.1957	1003.13	1.03
310.15	0.1957	1002.38	1.03
318.15	0.1957	999.01	1.03
288.15	0.3007	1013.75	1.1
298.15	0.3007	1011.3	1.02
308.15	0.3007	1007.96	1.08
310.15	0.3007	1007.19	1.05
318.15	0.3007	1003.81	1.09
288.15	0	999.08	1.04
298.15	0	997.06	1.05
308.15	0	994.07	1.04
310.15	0	993.37	1.04
318.15	0	990.26	1.04

System: (S)-2-aminopropanoic acid + water; phases: Liquid
Fixed: Pressure, kPa = 101.3
Property: Mass density, kg/m3 (Liquid); method: Vibrating tube method
Temperature, K	Molality, mol/kg of (S)-2-aminopropanoic acid	Mass density, kg/m3	uncertainty
288.15	0.0522	1000.63	1
288.15	0.1036	1002.12	1
288.15	0.2032	1004.98	1
288.15	0.3122	1008.03	1
288.15	0.3941	1010.29	1
288.15	0.4964	1013.01	1
288.15	0.5873	1015.47	1
288.15	0.6752	1017.77	1
288.15	0.791	1020.75	1
298.15	0.0522	998.58	1
298.15	0.1036	1000.04	1
298.15	0.2032	1002.84	1
298.15	0.3122	1005.84	1
298.15	0.3941	1008.05	1
298.15	0.4964	1010.78	1
298.15	0.5873	1013.15	1
298.15	0.6752	1015.38	1
298.15	0.791	1018.3	1
308.15	0.0522	995.56	1
308.15	0.1036	997	1
308.15	0.2032	999.75	1
308.15	0.3122	1002.71	1
308.15	0.3941	1004.9	1
308.15	0.4964	1007.59	1
308.15	0.5873	1009.93	1
308.15	0.6752	1012.15	1
308.15	0.791	1015.04	1
310.15	0.0522	994.85	1
310.15	0.1036	996.28	1
310.15	0.2032	999.03	1
310.15	0.3122	1001.99	1
310.15	0.3941	1004.18	1
310.15	0.4964	1006.87	1
310.15	0.5873	1009.2	1
310.15	0.6752	1011.4	1
310.15	0.791	1014.3	1
318.15	0.0522	991.74	1
318.15	0.1036	993.17	1
318.15	0.2032	995.9	1
318.15	0.3122	998.84	1
318.15	0.3941	1001	1
318.15	0.4964	1003.68	1
318.15	0.5873	1006.01	1
318.15	0.6752	1008.22	1
318.15	0.791	1011.1	1
288.15	0	999.09	1
298.15	0	997.08	1
308.15	0	994.08	1
310.15	0	993.38	1
318.15	0	990.27	1

System: L-serine + water; phases: Liquid
Fixed: Pressure, kPa = 101.3
Property: Mass density, kg/m3 (Liquid); method: Vibrating tube method
Temperature, K	Molality, mol/kg of L-serine	Mass density, kg/m3	uncertainty
288.15	0.0489	1001.29	1
288.15	0.104	1003.76	1
288.15	0.2	1008.02	1
288.15	0.292	1012.04	1
288.15	0.3911	1016.28	1
288.15	0.471	1019.63	1
288.15	0.5884	1024.47	1
288.15	0.6788	1028.16	1
288.15	0.7168	1029.64	1
298.15	0.0489	999.22	1
298.15	0.104	1001.64	1
298.15	0.2	1005.81	1
298.15	0.292	1009.76	1
298.15	0.3911	1013.93	1
298.15	0.471	1017.22	1
298.15	0.5884	1021.98	1
298.15	0.6788	1025.59	1
298.15	0.7168	1027.05	1
308.15	0.0489	996.21	1
308.15	0.104	998.6	1
308.15	0.2	1002.72	1
308.15	0.292	1006.6	1
308.15	0.3911	1010.72	1
308.15	0.471	1013.95	1
308.15	0.5884	1018.62	1
308.15	0.6788	1022.22	1
308.15	0.7168	1023.66	1
310.15	0.0489	995.5	1
310.15	0.104	997.89	1
310.15	0.2	1002	1
310.15	0.292	1005.88	1
310.15	0.3911	1009.98	1
310.15	0.471	1013.21	1
310.15	0.5884	1017.85	1
310.15	0.6788	1021.44	1
310.15	0.7168	1022.88	1
318.15	0.0489	992.38	1
318.15	0.104	994.75	1
318.15	0.2	998.83	1
318.15	0.292	1002.65	1
318.15	0.3911	1006.72	1
318.15	0.471	1009.93	1
318.15	0.5884	1014.6	1
318.15	0.6788	1018.12	1
318.15	0.7168	1019.57	1
288.15	0	999.08	1
298.15	0	997.05	1.01
308.15	0	994.06	1
310.15	0	993.36	1
318.15	0	990.25	1

System: L-threonine + water; phases: Liquid
Fixed: Pressure, kPa = 101.3
Property: Mass density, kg/m3 (Liquid); method: Vibrating tube method
Temperature, K	Molality, mol/kg of L-threonine	Mass density, kg/m3	uncertainty
288.15	0.1926	1007.25	1
288.15	0.2858	1011.08	1
288.15	0.3869	1015.18	1
288.15	0.4789	1018.78	1
288.15	0.5872	1022.93	1
288.15	0.6687	1026.01	1
298.15	0.1926	1005.04	1
298.15	0.2858	1008.79	1
298.15	0.3869	1012.82	1
298.15	0.4789	1016.36	1
298.15	0.5872	1020.45	1
298.15	0.6687	1023.46	1
308.15	0.1926	1001.91	1
308.15	0.2858	1005.62	1
308.15	0.3869	1009.58	1
308.15	0.4789	1013.09	1
308.15	0.5872	1017.13	1
308.15	0.6687	1020.1	1
310.15	0.1926	1001.19	1
310.15	0.2858	1004.89	1
310.15	0.3869	1008.86	1
310.15	0.4789	1012.35	1
310.15	0.5872	1016.39	1
310.15	0.6687	1019.34	1
318.15	0.1926	998.01	1
318.15	0.2858	1001.68	1
318.15	0.3869	1005.6	1
318.15	0.4789	1009.09	1
318.15	0.5872	1013.09	1
318.15	0.6687	1016.02	1
288.15	0	999.09	1
298.15	0	997.04	1
308.15	0	994.02	1
310.15	0	993.32	1
318.15	0	990.2	1

System: (.+-.)-.alpha.-aminobutyric acid + water; phases: Liquid
Fixed: Pressure, kPa = 101.3
Property: Mass density, kg/m3 (Liquid); method: Vibrating tube method
Temperature, K	Molality, mol/kg of (.+-.)-.alpha.-aminobutyric acid	Mass density, kg/m3	uncertainty
288.15	0.2006	1004.67	1
288.15	0.4945	1012.46	1
288.15	0.5944	1015	1
288.15	0.6791	1017.13	1
288.15	0.7812	1019.67	1
288.15	0.8868	1022.24	1
288.15	0.9902	1024.71	1
298.15	0.2006	1002.5	1
298.15	0.4945	1010.14	1
298.15	0.5944	1012.62	1
298.15	0.6791	1014.71	1
298.15	0.7812	1017.19	1
298.15	0.8868	1019.71	1
298.15	0.9902	1022.13	1
308.15	0.2006	999.41	1
308.15	0.4945	1006.94	1
308.15	0.5944	1009.38	1
308.15	0.6791	1011.44	1
308.15	0.7812	1013.88	1
308.15	0.8868	1016.36	1
308.15	0.9902	1018.74	1
310.15	0.2006	998.69	1
310.15	0.4945	1006.2	1
310.15	0.5944	1008.64	1
310.15	0.6791	1010.69	1
310.15	0.7812	1013.12	1
310.15	0.8868	1015.6	1
310.15	0.9902	1017.97	1
318.15	0.2006	995.55	1
318.15	0.4945	1003.01	1
318.15	0.5944	1005.46	1
318.15	0.6791	1007.5	1
318.15	0.7812	1009.85	1
318.15	0.8868	1012.32	1
318.15	0.9902	1014.68	1
288.15	0	999.09	1
298.15	0	997.04	1
308.15	0	994.03	1
310.15	0	993.32	1
318.15	0	990.2	1
