Measured thermophysical data. Excess molar volumes V , isothermal compressibilities k, and thermal expansivities alpha of {(1- x)H2O+xCH3OH} at T =(298.15 to 523.15) K and pressures up to 60 MPa
Source: J. Chem. Thermodyn., 2004, 10.1016/j.jct.2004.03.011
Compound 1: water, H2O, InChI=1S/H2O/h1H2
Compound 2: methanol, CH4O, InChI=1S/CH4O/c1-2/h2H,1H3, purity 99.8%

System: methanol + water; phases: Liquid
Property: Excess molar volume, m3/mol (Liquid); method: SAME:UFactor:2
Temperature, K	Pressure, kPa	Mole fraction of methanol	Excess molar volume, m3/mol	uncertainty
298.15	100	0.25	-7.42e-07	1.9e-08
298.15	100	0.5	-1.014e-06	2e-08
298.15	100	0.75	-7.05e-07	1.9e-08
298.15	5000	0.25	-7.13e-07	1.9e-08
298.15	5000	0.5	-9.63e-07	2e-08
298.15	5000	0.75	-6.74e-07	1.9e-08
298.15	10000	0.25	-6.85e-07	1.9e-08
298.15	10000	0.5	-9.15e-07	2e-08
298.15	10000	0.75	-6.44e-07	1.8e-08
298.15	20000	0.25	-6.27e-07	1.8e-08
298.15	20000	0.5	-8.31e-07	1.9e-08
298.15	20000	0.75	-5.93e-07	1.8e-08
298.15	30000	0.25	-5.75e-07	1.8e-08
298.15	30000	0.5	-7.62e-07	1.9e-08
298.15	30000	0.75	-5.53e-07	1.8e-08
298.15	40000	0.25	-5.29e-07	1.8e-08
298.15	40000	0.5	-7.02e-07	1.9e-08
298.15	40000	0.75	-5.14e-07	1.8e-08
298.15	50000	0.25	-4.85e-07	1.8e-08
298.15	50000	0.5	-6.49e-07	1.9e-08
298.15	50000	0.75	-4.65e-07	1.8e-08
298.15	60000	0.25	-4.61e-07	1.8e-08
298.15	60000	0.5	-6.02e-07	1.8e-08
323.15	100	0.25	-7.75e-07	1.9e-08
323.15	100	0.5	-1.049e-06	2e-08
323.15	100	0.75	-7.38e-07	1.9e-08
323.15	5000	0.25	-7.41e-07	1.9e-08
323.15	5000	0.5	-9.91e-07	2e-08
323.15	5000	0.75	-7.02e-07	1.9e-08
323.15	10000	0.25	-7.07e-07	1.9e-08
323.15	10000	0.5	-9.36e-07	2e-08
323.15	10000	0.75	-6.7e-07	1.9e-08
323.15	20000	0.25	-6.4e-07	1.8e-08
323.15	20000	0.5	-8.38e-07	1.9e-08
323.15	20000	0.75	-6.05e-07	1.8e-08
323.15	30000	0.25	-5.74e-07	1.8e-08
323.15	30000	0.5	-7.51e-07	1.9e-08
323.15	30000	0.75	-5.49e-07	1.8e-08
323.15	40000	0.25	-5.2e-07	1.8e-08
323.15	40000	0.5	-6.85e-07	1.9e-08
323.15	40000	0.75	-5.02e-07	1.8e-08
323.15	50000	0.25	-4.75e-07	1.8e-08
323.15	50000	0.5	-6.32e-07	1.8e-08
323.15	50000	0.75	-4.55e-07	1.8e-08
323.15	60000	0.25	-4.39e-07	1.8e-08
323.15	60000	0.5	-5.84e-07	1.8e-08
323.15	60000	0.75	-4.28e-07	1.7e-08
348.15	5000	0.25	-7.75e-07	1.9e-08
348.15	5000	0.5	-1.022e-06	2e-08
348.15	5000	0.75	-7.58e-07	1.9e-08
348.15	10000	0.25	-7.33e-07	1.9e-08
348.15	10000	0.5	-9.61e-07	2e-08
348.15	10000	0.75	-7.12e-07	1.9e-08
348.15	20000	0.25	-6.5e-07	1.9e-08
348.15	20000	0.5	-8.45e-07	1.9e-08
348.15	20000	0.75	-6.23e-07	1.8e-08
348.15	30000	0.25	-5.73e-07	1.8e-08
348.15	30000	0.5	-7.38e-07	1.9e-08
348.15	30000	0.75	-5.37e-07	1.8e-08
348.15	40000	0.25	-5.12e-07	1.8e-08
348.15	40000	0.5	-6.67e-07	1.9e-08
348.15	40000	0.75	-4.81e-07	1.8e-08
348.15	50000	0.25	-4.64e-07	1.8e-08
348.15	50000	0.5	-6.06e-07	1.8e-08
348.15	50000	0.75	-4.4e-07	1.8e-08
348.15	60000	0.25	-4.23e-07	1.7e-08
348.15	60000	0.5	-5.58e-07	1.8e-08
348.15	60000	0.75	-4.06e-07	1.7e-08
373.15	5000	0.25	-8.26e-07	1.9e-08
373.15	5000	0.5	-1.082e-06	2.1e-08
373.15	5000	0.75	-8.14e-07	1.9e-08
373.15	10000	0.25	-7.67e-07	1.9e-08
373.15	10000	0.5	-9.85e-07	2e-08
373.15	10000	0.75	-7.46e-07	1.9e-08
373.15	20000	0.25	-6.6e-07	1.9e-08
373.15	20000	0.5	-8.51e-07	1.9e-08
373.15	20000	0.75	-6.44e-07	1.9e-08
373.15	30000	0.25	-5.71e-07	1.8e-08
373.15	30000	0.5	-7.26e-07	1.9e-08
373.15	30000	0.75	-5.28e-07	1.8e-08
373.15	40000	0.25	-5.07e-07	1.8e-08
373.15	40000	0.5	-6.47e-07	1.9e-08
373.15	40000	0.75	-4.58e-07	1.8e-08
373.15	50000	0.25	-4.52e-07	1.8e-08
373.15	50000	0.5	-5.81e-07	1.8e-08
373.15	50000	0.75	-4.14e-07	1.7e-08
373.15	60000	0.25	-4.05e-07	1.7e-08
373.15	60000	0.5	-5.21e-07	1.8e-08
373.15	60000	0.75	-3.72e-07	1.7e-08
398.15	5000	0.25	-8.9e-07	2e-08
398.15	5000	0.5	-1.146e-06	2.1e-08
398.15	5000	0.75	-8.68e-07	2e-08
398.15	10000	0.25	-8.12e-07	1.9e-08
398.15	10000	0.5	-1.017e-06	2e-08
398.15	10000	0.75	-7.89e-07	1.9e-08
398.15	20000	0.25	-6.68e-07	1.9e-08
398.15	20000	0.5	-8.57e-07	1.9e-08
398.15	20000	0.75	-6.56e-07	1.9e-08
398.15	30000	0.25	-5.68e-07	1.8e-08
398.15	30000	0.5	-7.09e-07	1.9e-08
398.15	30000	0.75	-5.19e-07	1.8e-08
398.15	40000	0.25	-4.94e-07	1.8e-08
398.15	40000	0.5	-6.14e-07	1.8e-08
398.15	40000	0.75	-4.35e-07	1.8e-08
398.15	50000	0.25	-4.33e-07	1.8e-08
398.15	50000	0.5	-5.37e-07	1.8e-08
398.15	50000	0.75	-3.8e-07	1.7e-08
398.15	60000	0.25	-3.83e-07	1.7e-08
398.15	60000	0.5	-4.75e-07	1.8e-08
398.15	60000	0.75	-3.33e-07	1.7e-08
423.15	5000	0.25	-9.81e-07	2e-08
423.15	5000	0.5	-1.247e-06	2.1e-08
423.15	5000	0.75	-9.59e-07	2e-08
423.15	10000	0.25	-8.74e-07	2e-08
423.15	10000	0.5	-1.072e-06	2.1e-08
423.15	10000	0.75	-8.43e-07	1.9e-08
423.15	20000	0.25	-6.78e-07	1.9e-08
423.15	20000	0.5	-8.64e-07	2e-08
423.15	20000	0.75	-6.65e-07	1.9e-08
423.15	30000	0.25	-5.65e-07	1.8e-08
423.15	30000	0.5	-6.92e-07	1.9e-08
423.15	30000	0.75	-5.12e-07	1.8e-08
423.15	40000	0.25	-4.81e-07	1.8e-08
423.15	40000	0.5	-5.71e-07	1.8e-08
423.15	40000	0.75	-4.2e-07	1.7e-08
423.15	50000	0.25	-4.13e-07	1.7e-08
423.15	50000	0.5	-4.75e-07	1.8e-08
423.15	50000	0.75	-3.49e-07	1.7e-08
423.15	60000	0.25	-3.56e-07	1.7e-08
423.15	60000	0.5	-4.01e-07	1.7e-08
423.15	60000	0.75	-2.84e-07	1.7e-08
448.15	5000	0.25	-1.223e-06	2.2e-08
448.15	5000	0.5	-1.583e-06	2.3e-08
448.15	5000	0.75	-1.163e-06	2.1e-08
448.15	10000	0.25	-9.78e-07	2e-08
448.15	10000	0.5	-1.246e-06	2.1e-08
448.15	10000	0.75	-9.16e-07	2e-08
448.15	20000	0.25	-7.11e-07	1.9e-08
448.15	20000	0.5	-8.73e-07	2e-08
448.15	20000	0.75	-6.88e-07	1.9e-08
448.15	30000	0.25	-5.62e-07	1.8e-08
448.15	30000	0.5	-6.64e-07	1.9e-08
448.15	30000	0.75	-4.93e-07	1.8e-08
448.15	40000	0.25	-4.64e-07	1.8e-08
448.15	40000	0.5	-5.13e-07	1.8e-08
448.15	40000	0.75	-3.86e-07	1.7e-08
448.15	50000	0.25	-3.89e-07	1.7e-08
448.15	50000	0.5	-4.04e-07	1.7e-08
448.15	50000	0.75	-3e-07	1.7e-08
448.15	60000	0.25	-3.27e-07	1.7e-08
448.15	60000	0.5	-3.18e-07	1.7e-08
448.15	60000	0.75	-2.23e-07	1.7e-08
473.15	5000	0.25	-1.902e-06	2.5e-08
473.15	5000	0.5	-2.545e-06	2.8e-08
473.15	5000	0.75	-1.736e-06	2.4e-08
473.15	10000	0.25	-1.285e-06	2.2e-08
473.15	10000	0.5	-1.616e-06	2.4e-08
473.15	10000	0.75	-1.12e-06	2.1e-08
473.15	20000	0.25	-8e-07	1.9e-08
473.15	20000	0.5	-8.91e-07	2e-08
473.15	20000	0.75	-7.38e-07	1.9e-08
473.15	30000	0.25	-5.58e-07	1.8e-08
473.15	30000	0.5	-6.29e-07	1.8e-08
473.15	30000	0.75	-4.65e-07	1.8e-08
473.15	40000	0.25	-4.41e-07	1.8e-08
473.15	40000	0.5	-4.66e-07	1.8e-08
473.15	40000	0.75	-3.3e-07	1.7e-08
473.15	50000	0.25	-3.59e-07	1.7e-08
473.15	50000	0.5	-3.42e-07	1.7e-08
473.15	50000	0.75	-2.37e-07	1.7e-08
473.15	60000	0.25	-2.9e-07	1.7e-08
473.15	60000	0.5	-2.41e-07	1.7e-08
473.15	60000	0.75	-1.58e-07	1.6e-08
498.15	10000	0.25	-2.081e-06	2.6e-08
498.15	10000	0.5	-2.481e-06	2.8e-08
498.15	10000	0.75	-1.949e-06	2.5e-08
498.15	20000	0.25	-8.98e-07	2e-08
498.15	20000	0.5	-9.52e-07	2e-08
498.15	20000	0.75	-8.16e-07	2e-08
498.15	30000	0.25	-5.54e-07	1.8e-08
498.15	30000	0.5	-5.87e-07	1.8e-08
498.15	30000	0.75	-4.28e-07	1.8e-08
498.15	40000	0.25	-4.12e-07	1.7e-08
498.15	40000	0.5	-4.01e-07	1.7e-08
498.15	40000	0.75	-2.7e-07	1.7e-08
498.15	50000	0.25	-3.26e-07	1.7e-08
498.15	50000	0.5	-2.68e-07	1.7e-08
498.15	50000	0.75	-1.6e-07	1.6e-08
498.15	60000	0.25	-2.45e-07	1.7e-08
498.15	60000	0.5	-1.61e-07	1.6e-08
498.15	60000	0.75	-8.4e-08	1.6e-08
523.15	20000	0.25	-1.217e-06	2.1e-08
523.15	20000	0.5	-1.421e-06	2.2e-08
523.15	20000	0.75	-1.204e-06	2.1e-08
523.15	30000	0.25	-5.47e-07	1.8e-08
523.15	30000	0.5	-5.46e-07	1.8e-08
523.15	30000	0.75	-3.91e-07	1.7e-08
523.15	40000	0.25	-3.76e-07	1.7e-08
523.15	40000	0.5	-3.36e-07	1.7e-08
523.15	40000	0.75	-2.01e-07	1.6e-08
523.15	50000	0.25	-2.77e-07	1.7e-08
523.15	50000	0.5	-1.97e-07	1.6e-08
523.15	50000	0.75	-8.4e-08	1.6e-08
523.15	60000	0.25	-1.86e-07	1.6e-08
523.15	60000	0.5	-8.4e-08	1.6e-08
523.15	60000	0.75	-5e-09	1.6e-08
