Measured thermophysical data. Thermodynamic properties of cumene, tert-butylbenzene, and n-hexadecane under elevated pressures
Source: J. Chem. Thermodyn., 2019, 10.1016/j.jct.2019.03.005
Compound 1: isopropylbenzene, C9H12, InChI=1S/C9H12/c1-8(2)9-6-4-3-5-7-9/h3-8H,1-2H3
Compound 2: (1,1-dimethylethyl)benzene, C10H14, InChI=1S/C10H14/c1-10(2,3)9-7-5-4-6-8-9/h4-8H,1-3H3

System: isopropylbenzene; phases: Liquid
Fixed: Frequency, MHz = 3
Property: Speed of sound, m/s (Liquid); method: Pulse-echo method
Temperature, K	Pressure, kPa	Speed of sound, m/s	uncertainty
298.15	100	1309.1	1.6
313.15	100	1247.6	1.5
333.15	100	1168.5	1.5
353.15	100	1091.8	1.4
373.15	100	1017.8	1.3
393.15	100	945.6	1.3
413.15	100	875	1.2
433.15	10100	897.7	1.2
298.15	20100	1406.9	1.7
313.15	20100	1351.3	1.6
333.15	20100	1280.5	1.6
353.15	20100	1213.2	1.5
373.15	20100	1149.2	1.5
393.15	20100	1088.1	1.4
413.15	20100	1029.6	1.3
433.15	20100	974	1.3
298.15	40100	1491.7	1.8
313.15	40100	1440	1.7
333.15	40100	1374.7	1.7
353.15	40100	1313.2	1.6
373.15	40100	1255.1	1.6
393.15	40100	1200.1	1.5
413.15	40100	1147.8	1.5
433.15	40100	1098.9	1.4
298.15	60100	1566.8	1.9
313.15	60100	1518.3	1.8
333.15	60100	1457.2	1.7
353.15	60100	1399.6	1.7
373.15	60100	1345.6	1.6
393.15	60100	1294.7	1.6
413.15	60100	1246.5	1.5
433.15	60100	1201.3	1.5
298.15	80100	1634.8	1.9
313.15	80100	1588.9	1.9
333.15	80100	1530.9	1.8
353.15	80100	1476.5	1.8
373.15	80100	1425.6	1.7
393.15	80100	1377.6	1.7
413.15	80100	1332.1	1.6
433.15	80100	1289.9	1.6
298.15	100100	1697.4	2
313.15	100100	1653.3	1.9
333.15	100100	1598	1.9
353.15	100100	1546	1.8
373.15	100100	1497.4	1.8
393.15	100100	1451.6	1.7
413.15	100100	1408.6	1.7
433.15	100100	1368.6	1.7

System: (1,1-dimethylethyl)benzene; phases: Liquid
Fixed: Frequency, MHz = 3
Property: Speed of sound, m/s (Liquid); method: Pulse-echo method
Temperature, K	Pressure, kPa	Speed of sound, m/s	uncertainty
298.15	100	1316.4	1.5
313.15	100	1255.3	1.4
333.15	100	1176.9	1.3
353.15	100	1101.8	1.2
373.15	100	1029.9	1.2
393.15	100	959.3	1.1
413.15	100	890.9	1
433.15	100	823.7	0.9
298.15	20100	1415.8	1.6
313.15	20100	1360.3	1.5
333.15	20100	1290.1	1.4
353.15	20100	1223.5	1.4
373.15	20100	1161.2	1.3
393.15	20100	1101.1	1.2
413.15	20100	1042.6	1.2
433.15	20100	987.2	1.1
298.15	40100	1501.7	1.7
313.15	40100	1450.3	1.6
333.15	40100	1385.4	1.5
353.15	40100	1324.4	1.5
373.15	40100	1267.7	1.4
393.15	40100	1213.3	1.3
413.15	40100	1161.1	1.3
433.15	40100	1112.1	1.2
298.15	60100	1578.5	1.7
313.15	60100	1529.8	1.7
333.15	60100	1469	1.6
353.15	60100	1411.8	1.6
373.15	60100	1359	1.5
393.15	60100	1308.5	1.5
413.15	60100	1260.2	1.4
433.15	60100	1215.1	1.4
298.15	80100	1647.9	1.8
313.15	80100	1601.7	1.8
333.15	80100	1543.9	1.7
353.15	80100	1489.6	1.6
373.15	80100	1439.6	1.6
393.15	80100	1392	1.5
413.15	80100	1346.6	1.5
433.15	80100	1304.3	1.4
298.15	100100	1711.7	1.9
313.15	100100	1667.3	1.8
333.15	100100	1612.5	1.8
353.15	100100	1560.2	1.7
373.15	100100	1512.4	1.7
393.15	100100	1466.9	1.6
413.15	100100	1423.8	1.6
433.15	100100	1383.6	1.5
