Measured thermophysical data. Density, electrical conductivity, viscosity and excess properties of 1-butyl-3-methylimidazolium bis(trifluoromethylsulfonyl)imide + propylene carbonate binary mixtures
Source: J. Chem. Thermodyn., 2014, 10.1016/j.jct.2013.08.034
Compound 1: 1-butyl-3-methylimidazolium bis(trifluoromethylsulfonyl)imide, C10H15F6N3O4S2, InChI=1S/C8H15N2.C2F6NO4S2/c1-3-4-5-10-7-6-9(2)8-10;3-1(4,5)14(10,11)9-15(12,13)2(6,7)8/h6-8H,3-5H2,1-2H3;/q+1;-1, purity 99%
Compound 2: 4-methyl-1,3-dioxolan-2-one, C4H6O3, InChI=1S/C4H6O3/c1-3-2-6-4(5)7-3/h3H,2H2,1H3, purity 99%

System: 1-butyl-3-methylimidazolium bis(trifluoromethylsulfonyl)imide; phases: Liquid
Fixed: Pressure, kPa = 101.325
Property: Mass density, kg/m3 (Liquid); method: Vibrating tube method
Temperature, K	Mass density, kg/m3	uncertainty
293.15	1439.27	0.62
298.15	1434.3	0.61
303.15	1429.4	0.61
308.15	1424.57	0.6
313.15	1419.61	0.6
318.15	1414.67	0.6
323.15	1409.65	0.59

System: 1-butyl-3-methylimidazolium bis(trifluoromethylsulfonyl)imide; phases: Liquid
Fixed: Pressure, kPa = 101
Property: Viscosity, Pa*s (Liquid); method: Cone and plate viscometry
Temperature, K	Viscosity, Pa*s	uncertainty
293.15	0.06208	0.00624
298.15	0.05005	0.00503
303.15	0.04124	0.00415
308.15	0.03365	0.00338
313.15	0.02828	0.00284
318.15	0.02391	0.0024
323.15	0.02064	0.00207
328.15	0.0179	0.0018
333.15	0.01551	0.00156

System: 1-butyl-3-methylimidazolium bis(trifluoromethylsulfonyl)imide; phases: Liquid
Fixed: Pressure, kPa = 101
Property: Electrical conductivity, S/m (Liquid); method: Conductivity Meter Jenco 3107
Temperature, K	Electrical conductivity, S/m	uncertainty
293.15	0.337	0.01
298.15	0.4	0.012
303.15	0.472	0.014
308.15	0.552	0.017
313.15	0.64	0.019
318.15	0.733	0.022
323.15	0.835	0.025
328.15	0.944	0.028

System: 4-methyl-1,3-dioxolan-2-one; phases: Liquid
Fixed: Pressure, kPa = 101.325
Property: Mass density, kg/m3 (Liquid); method: Vibrating tube method
Temperature, K	Mass density, kg/m3	uncertainty
293.15	1204.81	0.41
298.15	1199.02	0.4
303.15	1194	0.4
308.15	1188.57	0.39
313.15	1183.11	0.39
318.15	1177.55	0.38
323.15	1171.96	0.38

System: 4-methyl-1,3-dioxolan-2-one; phases: Liquid
Fixed: Pressure, kPa = 101
Property: Viscosity, Pa*s (Liquid); method: Cone and plate viscometry
Temperature, K	Viscosity, Pa*s	uncertainty
293.15	0.00286	0.00029
298.15	0.00265	0.00027
303.15	0.00244	0.00024
308.15	0.00223	0.00022
313.15	0.00205	0.00021
318.15	0.0019	0.00019
323.15	0.00178	0.00018
328.15	0.00163	0.00016
333.15	0.00154	0.00015

System: 4-methyl-1,3-dioxolan-2-one + 1-butyl-3-methylimidazolium bis(trifluoromethylsulfonyl)imide; phases: Liquid
Fixed: Pressure, kPa = 101
Property: Mass density, kg/m3 (Liquid); method: Vibrating tube method
Temperature, K	Mole fraction of 1-butyl-3-methylimidazolium bis(trifluoromethylsulfonyl)imide	Mass density, kg/m3	uncertainty
293.15	0.0146	1216.01	0.44
293.15	0.0296	1226.83	0.44
293.15	0.0453	1237.53	0.45
293.15	0.0616	1247.91	0.46
293.15	0.0732	1254.92	0.46
293.15	0.0997	1269.69	0.47
293.15	0.2004	1314.48	0.5
293.15	0.3081	1348.61	0.53
293.15	0.4004	1370.63	0.55
293.15	0.5021	1389.4	0.57
293.15	0.5839	1401.58	0.58
293.15	0.6902	1414.42	0.59
293.15	0.7989	1424.99	0.6
293.15	0.898	1432.81	0.61
298.15	0.0146	1210.26	0.43
298.15	0.0296	1221.14	0.44
298.15	0.0453	1231.8	0.45
298.15	0.0616	1242.22	0.45
298.15	0.0732	1249.22	0.46
298.15	0.0997	1264.08	0.46
298.15	0.2004	1308.99	0.5
298.15	0.3081	1343.32	0.53
298.15	0.4004	1365.43	0.55
298.15	0.5021	1384.34	0.56
298.15	0.5839	1396.54	0.58
298.15	0.6902	1409.46	0.59
298.15	0.7989	1420.01	0.6
298.15	0.898	1427.78	0.6
303.15	0.0146	1205.11	0.43
303.15	0.0296	1216.01	0.44
303.15	0.0453	1226.7	0.44
303.15	0.0616	1237.2	0.45
303.15	0.0732	1244.2	0.45
303.15	0.0997	1259.1	0.46
303.15	0.2004	1303.96	0.5
303.15	0.3081	1338.4	0.52
303.15	0.4004	1360.5	0.54
303.15	0.5021	1379.5	0.56
303.15	0.5839	1391.7	0.57
303.15	0.6902	1404.6	0.58
303.15	0.7989	1415.1	0.59
303.15	0.898	1422.88	0.6
308.15	0.0146	1199.79	0.42
308.15	0.0296	1210.69	0.43
308.15	0.0453	1221.41	0.44
308.15	0.0616	1231.88	0.44
308.15	0.0732	1238.89	0.45
308.15	0.0997	1253.78	0.45
308.15	0.2004	1298.88	0.49
308.15	0.3081	1333.39	0.52
308.15	0.4004	1355.48	0.54
308.15	0.5021	1374.5	0.56
308.15	0.5839	1386.81	0.57
308.15	0.6902	1399.67	0.58
308.15	0.7989	1410.26	0.59
308.15	0.898	1418.04	0.59
313.15	0.0146	1194.33	0.42
313.15	0.0296	1205.22	0.43
313.15	0.0453	1215.97	0.43
313.15	0.0616	1226.46	0.44
313.15	0.0732	1233.52	0.44
313.15	0.0997	1248.42	0.45
313.15	0.2004	1293.64	0.49
313.15	0.3081	1328.25	0.51
313.15	0.4004	1350.46	0.53
313.15	0.5021	1369.47	0.55
313.15	0.5839	1381.78	0.56
313.15	0.6902	1394.71	0.57
313.15	0.7989	1405.28	0.58
313.15	0.898	1413.08	0.59
318.15	0.0146	1188.81	0.42
318.15	0.0296	1199.72	0.42
318.15	0.0453	1210.48	0.43
318.15	0.0616	1220.94	0.44
318.15	0.0732	1228.04	0.44
318.15	0.0997	1243.05	0.45
318.15	0.2004	1288.34	0.48
318.15	0.3081	1323.02	0.51
318.15	0.4004	1345.37	0.53
318.15	0.5021	1364.43	0.55
318.15	0.5839	1376.72	0.56
318.15	0.6902	1389.72	0.57
318.15	0.7989	1400.29	0.58
318.15	0.898	1408.1	0.59
323.15	0.0146	1183.28	0.41
323.15	0.0296	1194.23	0.42
323.15	0.0453	1204.99	0.43
323.15	0.0616	1215.52	0.43
323.15	0.0732	1222.56	0.43
323.15	0.0997	1237.51	0.44
323.15	0.2004	1283	0.49
323.15	0.3081	1317.8	0.51
323.15	0.4004	1340.2	0.53
323.15	0.5021	1359.32	0.54
323.15	0.5839	1371.65	0.55
323.15	0.6902	1384.62	0.57
323.15	0.7989	1395.23	0.57
323.15	0.898	1403.08	0.58

System: 4-methyl-1,3-dioxolan-2-one + 1-butyl-3-methylimidazolium bis(trifluoromethylsulfonyl)imide; phases: Liquid
Fixed: Pressure, kPa = 101
Property: Viscosity, Pa*s (Liquid); method: Cone and plate viscometry
Temperature, K	Mole fraction of 1-butyl-3-methylimidazolium bis(trifluoromethylsulfonyl)imide	Viscosity, Pa*s	uncertainty
293.15	0	0.00286	0.00029
293.15	0.1	0.00474	0.00048
293.15	0.2002	0.00721	0.00072
293.15	0.3007	0.01074	0.00108
293.15	0.3998	0.01473	0.00148
293.15	0.5004	0.02017	0.00203
293.15	0.6002	0.02637	0.00265
293.15	0.6979	0.03356	0.00337
293.15	0.8015	0.04209	0.00423
293.15	0.8959	0.05034	0.00506
293.15	1	0.06208	0.00624
298.15	0	0.00265	0.00027
298.15	0.1	0.00429	0.00043
298.15	0.2002	0.00643	0.00065
298.15	0.3007	0.00927	0.00093
298.15	0.3998	0.0126	0.00127
298.15	0.5004	0.01701	0.00171
298.15	0.6002	0.02171	0.00218
298.15	0.6979	0.02764	0.00278
298.15	0.8015	0.03476	0.00349
298.15	0.8959	0.04095	0.00412
298.15	1	0.05005	0.00503
303.15	0	0.00244	0.00024
303.15	0.1	0.00384	0.00039
303.15	0.2002	0.00581	0.00058
303.15	0.3007	0.00807	0.00081
303.15	0.3998	0.0108	0.00108
303.15	0.5004	0.01441	0.00145
303.15	0.6002	0.0184	0.00185
303.15	0.6979	0.0229	0.0023
303.15	0.8015	0.02881	0.0029
303.15	0.8959	0.03359	0.00338
303.15	1	0.04124	0.00415
308.15	0	0.00223	0.00022
308.15	0.1	0.00351	0.00035
308.15	0.2002	0.0051	0.00051
308.15	0.3007	0.00711	0.00071
308.15	0.3998	0.00942	0.00095
308.15	0.5004	0.01236	0.00124
308.15	0.6002	0.01575	0.00158
308.15	0.6979	0.01944	0.00195
308.15	0.8015	0.0241	0.00242
308.15	0.8959	0.02795	0.00281
308.15	1	0.03365	0.00338
313.15	0	0.00205	0.00021
313.15	0.1	0.00321	0.00032
313.15	0.2002	0.00459	0.00046
313.15	0.3007	0.00634	0.00064
313.15	0.3998	0.00829	0.00083
313.15	0.5004	0.01077	0.00108
313.15	0.6002	0.01357	0.00136
313.15	0.6979	0.01655	0.00166
313.15	0.8015	0.02047	0.00206
313.15	0.8959	0.02363	0.00237
313.15	1	0.02828	0.00284
318.15	0	0.0019	0.00019
318.15	0.1	0.00289	0.00029
318.15	0.2002	0.00417	0.00042
318.15	0.3007	0.00568	0.00057
318.15	0.3998	0.00731	0.00073
318.15	0.5004	0.00937	0.00094
318.15	0.6002	0.01175	0.00118
318.15	0.6979	0.01429	0.00143
318.15	0.8015	0.0175	0.00176
318.15	0.8959	0.02004	0.00201
318.15	1	0.02391	0.0024
323.15	0	0.00178	0.00018
323.15	0.1	0.00268	0.00027
323.15	0.2002	0.00381	0.00038
323.15	0.3007	0.00514	0.00052
323.15	0.3998	0.00658	0.00066
323.15	0.5004	0.00834	0.00084
323.15	0.6002	0.01031	0.00103
323.15	0.6979	0.01241	0.00125
323.15	0.8015	0.01515	0.00152
323.15	0.8959	0.01734	0.00174
323.15	1	0.02064	0.00207
328.15	0	0.00163	0.00016
328.15	0.1	0.00247	0.00025
328.15	0.2002	0.00345	0.00035
328.15	0.3007	0.00468	0.00047
328.15	0.3998	0.00594	0.0006
328.15	0.5004	0.00741	0.00074
328.15	0.6002	0.00919	0.00092
328.15	0.6979	0.011	0.0011
328.15	0.8015	0.0133	0.00133
328.15	0.8959	0.01512	0.00152
328.15	1	0.0179	0.0018
333.15	0	0.00154	0.00015
333.15	0.1	0.00231	0.00023
333.15	0.2002	0.00322	0.00032
333.15	0.3007	0.00426	0.00043
333.15	0.3998	0.00537	0.00054
333.15	0.5004	0.00666	0.00067
333.15	0.6002	0.00817	0.00082
333.15	0.6979	0.0097	0.00097
333.15	0.8015	0.0117	0.00117
333.15	0.8959	0.01326	0.00133
333.15	1	0.01551	0.00156

System: 4-methyl-1,3-dioxolan-2-one + 1-butyl-3-methylimidazolium bis(trifluoromethylsulfonyl)imide; phases: Liquid
Fixed: Pressure, kPa = 101
Property: Electrical conductivity, S/m (Liquid); method: Conductivity Meter Jenco 3107
Temperature, K	Mole fraction of 1-butyl-3-methylimidazolium bis(trifluoromethylsulfonyl)imide	Electrical conductivity, S/m	uncertainty
293.15	0.0502	0.792	0.024
293.15	0.1004	0.92	0.028
293.15	0.2001	1.077	0.032
293.15	0.3002	0.938	0.028
293.15	0.4005	0.814	0.024
293.15	0.5007	0.752	0.023
293.15	0.6003	0.669	0.02
293.15	0.6989	0.578	0.017
293.15	0.8001	0.497	0.015
293.15	0.8959	0.422	0.013
293.15	1	0.337	0.01
298.15	0.0502	0.899	0.027
298.15	0.1004	1.016	0.03
298.15	0.2001	1.213	0.036
298.15	0.3002	1.064	0.032
298.15	0.4005	0.924	0.028
298.15	0.5007	0.855	0.026
298.15	0.6003	0.761	0.023
298.15	0.6989	0.667	0.02
298.15	0.8001	0.581	0.017
298.15	0.8959	0.49	0.015
298.15	1	0.4	0.012
303.15	0.0502	0.963	0.029
303.15	0.1004	1.156	0.035
303.15	0.2001	1.353	0.041
303.15	0.3002	1.212	0.036
303.15	0.4005	1.073	0.032
303.15	0.5007	0.963	0.029
303.15	0.6003	0.86	0.026
303.15	0.6989	0.764	0.023
303.15	0.8001	0.665	0.02
303.15	0.8959	0.563	0.017
303.15	1	0.472	0.014
308.15	0.0502	1.05	0.032
308.15	0.1004	1.297	0.039
308.15	0.2001	1.507	0.045
308.15	0.3002	1.363	0.041
308.15	0.4005	1.223	0.037
308.15	0.5007	1.102	0.033
308.15	0.6003	0.972	0.029
308.15	0.6989	0.859	0.026
308.15	0.8001	0.755	0.023
308.15	0.8959	0.642	0.019
308.15	1	0.552	0.017
313.15	0.0502	1.137	0.034
313.15	0.1004	1.441	0.043
313.15	0.2001	1.656	0.05
313.15	0.3002	1.519	0.046
313.15	0.4005	1.397	0.042
313.15	0.5007	1.252	0.038
313.15	0.6003	1.111	0.033
313.15	0.6989	0.971	0.029
313.15	0.8001	0.85	0.026
313.15	0.8959	0.73	0.022
313.15	1	0.64	0.019
318.15	0.0502	1.226	0.037
318.15	0.1004	1.588	0.048
318.15	0.2001	1.809	0.054
318.15	0.3002	1.675	0.05
318.15	0.4005	1.568	0.047
318.15	0.5007	1.408	0.042
318.15	0.6003	1.257	0.038
318.15	0.6989	1.107	0.033
318.15	0.8001	0.961	0.029
318.15	0.8959	0.828	0.025
318.15	1	0.733	0.022
323.15	0.0502	1.317	0.04
323.15	0.1004	1.743	0.052
323.15	0.2001	1.967	0.059
323.15	0.3002	1.852	0.056
323.15	0.4005	1.74	0.052
323.15	0.5007	1.573	0.047
323.15	0.6003	1.41	0.042
323.15	0.6989	1.254	0.038
323.15	0.8001	1.103	0.033
323.15	0.8959	0.93	0.028
323.15	1	0.835	0.025
328.15	0.0502	1.409	0.042
328.15	0.1004	1.894	0.057
328.15	0.2001	2.125	0.064
328.15	0.3002	2.065	0.062
328.15	0.4005	1.915	0.057
328.15	0.5007	1.741	0.052
328.15	0.6003	1.572	0.047
328.15	0.6989	1.404	0.042
328.15	0.8001	1.249	0.037
328.15	0.8959	1.068	0.032
328.15	1	0.944	0.028
