Measured thermophysical data. Measuring and correlating solubility of hydrogen sulfide in aqueous solution of 2-((2 aminoethyl)amino)ethanol
Source: J. Chem. Thermodyn., 2018, 10.1016/j.jct.2017.11.014
Compound 1: hydrogen sulfide, H2S, InChI=1S/H2S/h1H2, purity 99.95%
Compound 2: N-(2-aminoethyl)ethanolamine, C4H12N2O, InChI=1S/C4H12N2O/c5-1-2-6-3-4-7/h6-7H,1-5H2, purity 99%
Compound 3: water, H2O, InChI=1S/H2O/h1H2

System: N-(2-aminoethyl)ethanolamine + water + hydrogen sulfide; phases: Liquid, Gas
Property: Mole fraction of hydrogen sulfide (Liquid); method: Phase equilibration
Temperature, K	Pressure, kPa	Solvent: Mass fraction of N-(2-aminoethyl)ethanolamine	Mole fraction of hydrogen sulfide	uncertainty
313.2	9.5	0.1	0.0073	0.0031
313.2	11.7	0.1	0.011	0.0022
313.2	20.6	0.1	0.0154	0.0021
313.2	150.1	0.1	0.0229	0.0012
313.2	321.9	0.1	0.0276	0.0013
313.2	442.8	0.1	0.03	0.0013
313.2	580.7	0.1	0.0324	0.0014
313.2	739	0.1	0.0349	0.0015
313.2	870.5	0.1	0.0368	0.0015
313.2	1083	0.1	0.0397	0.0017
328.2	19.3	0.1	0.0072	0.0017
328.2	22.8	0.1	0.0109	0.0013
328.2	39.8	0.1	0.0153	0.0013
328.2	193.7	0.1	0.022	0.0011
328.2	394.4	0.1	0.026	0.0011
328.2	532	0.1	0.0281	0.0012
328.2	687	0.1	0.0301	0.0013
328.2	863.1	0.1	0.0322	0.0014
328.2	1008.5	0.1	0.0339	0.0015
328.2	1242.7	0.1	0.0365	0.0015
343.2	36.9	0.1	0.0071	0.0012
343.2	42.7	0.1	0.0107	0.001
343.2	63.9	0.1	0.015	0.0011
343.2	242.4	0.1	0.0212	0.001
343.2	467.7	0.1	0.0247	0.0011
343.2	621.3	0.1	0.0265	0.0011
343.2	791.1	0.1	0.0283	0.0012
343.2	984.8	0.1	0.0301	0.0013
343.2	1143.5	0.1	0.0315	0.0013
343.2	1399.7	0.1	0.0339	0.0014
358.2	66.7	0.1	0.0069	0.0014
358.2	76.7	0.1	0.0104	0.0009
358.2	107	0.1	0.0145	0.0009
358.2	300.6	0.1	0.0204	0.0009
358.2	545.3	0.1	0.0237	0.001
358.2	711.9	0.1	0.0252	0.0011
358.2	896.3	0.1	0.0269	0.0011
358.2	1106.7	0.1	0.0285	0.0012
358.2	1553.6	0.1	0.0319	0.0013
313.2	9.5	0.3	0.0088	0.0088
313.2	18.1	0.3	0.0348	0.0122
313.2	24.3	0.3	0.046	0.0048
313.2	53	0.3	0.0618	0.0021
313.2	167.3	0.3	0.0728	0.0023
313.2	239.3	0.3	0.0772	0.0024
313.2	347.4	0.3	0.083	0.0026
313.2	394.4	0.3	0.0853	0.0027
313.2	464.2	0.3	0.0886	0.0028
313.2	517.4	0.3	0.0909	0.0029
313.2	620.1	0.3	0.0955	0.003
313.2	648.8	0.3	0.0961	0.0031
313.2	855.3	0.3	0.1006	0.0032
328.2	16.8	0.3	0.0088	0.0085
328.2	28.5	0.3	0.0347	0.0069
328.2	39	0.3	0.0457	0.0017
328.2	87.9	0.3	0.0611	0.002
328.2	246.7	0.3	0.071	0.0023
328.2	342.7	0.3	0.0749	0.0024
328.2	484.9	0.3	0.0799	0.0025
328.2	544.6	0.3	0.082	0.0026
328.2	633.7	0.3	0.0849	0.0027
328.2	699.5	0.3	0.0869	0.0027
328.2	825.9	0.3	0.091	0.0029
328.2	860.6	0.3	0.0915	0.0029
328.2	1104.1	0.3	0.0951	0.0029
343.2	30.8	0.3	0.0088	0.0059
343.2	47.7	0.3	0.0345	0.0044
343.2	65.6	0.3	0.0454	0.0015
343.2	143	0.3	0.0601	0.0019
343.2	344	0.3	0.0692	0.0022
343.2	461.2	0.3	0.0726	0.0023
343.2	632.8	0.3	0.077	0.0024
343.2	705.4	0.3	0.0789	0.0025
343.2	810.5	0.3	0.0814	0.0025
343.2	890	0.3	0.0831	0.0026
343.2	1034.8	0.3	0.0869	0.0027
343.2	1077.5	0.3	0.0873	0.0027
343.2	1353.8	0.3	0.0902	0.0028
358.2	55.4	0.3	0.0087	0.0039
358.2	82	0.3	0.0342	0.0028
358.2	111.8	0.3	0.0448	0.0015
358.2	224.8	0.3	0.0587	0.0018
358.2	461.8	0.3	0.0671	0.0021
358.2	594.6	0.3	0.0703	0.0022
358.2	790	0.3	0.0743	0.0024
358.2	876.8	0.3	0.0759	0.0024
358.2	993	0.3	0.0783	0.0022
358.2	1083.1	0.3	0.0798	0.0023
358.2	1295.5	0.3	0.0836	0.0023
358.2	1594.2	0.3	0.0862	0.0027

System: N-(2-aminoethyl)ethanolamine + water; phases: Liquid, Gas
Property: Vapor or sublimation pressure, kPa (Liquid); method: Closed cell (Static) method
Mass fraction of N-(2-aminoethyl)ethanolamine	Temperature, K	Vapor or sublimation pressure, kPa	uncertainty
0.1	313.2	7	4
0.1	328.2	15	4
0.1	343.2	28.7	4
0.1	358.2	51.8	4
0.3	358.2	46.2	4
