Measured thermophysical data. Heat capacities of aqueous polar aromatic compounds over a wide range of conditions. Part II: dihydroxybenzenes, aminophenols, diaminobenzenes
Source: J. Chem. Thermodyn., 2005, 10.1016/j.jct.2004.09.001
Compound 1: 1,2-benzenediol, C6H6O2, InChI=1S/C6H6O2/c7-5-3-1-2-4-6(5)8/h1-4,7-8H, purity 99%
Compound 2: 1,3-benzenediol, C6H6O2, InChI=1S/C6H6O2/c7-5-2-1-3-6(8)4-5/h1-4,7-8H, purity 99%
Compound 3: 1,4-benzenediol, C6H6O2, InChI=1S/C6H6O2/c7-5-1-2-6(8)4-3-5/h1-4,7-8H, purity 99%
Compound 4: 2-hydroxybenzenamine, C6H7NO, InChI=1S/C6H7NO/c7-5-3-1-2-4-6(5)8/h1-4,8H,7H2, purity 98%
Compound 5: 3-hydroxybenzenamine, C6H7NO, InChI=1S/C6H7NO/c7-5-2-1-3-6(8)4-5/h1-4,8H,7H2, purity 98%
Compound 6: 4-hydroxybenzenamine, C6H7NO, InChI=1S/C6H7NO/c7-5-1-3-6(8)4-2-5/h1-4,8H,7H2, purity 98%
Compound 7: 1,2-benzenediamine, C6H8N2, InChI=1S/C6H8N2/c7-5-3-1-2-4-6(5)8/h1-4H,7-8H2, purity 99%
Compound 8: 1,4-benzenediamine, C6H8N2, InChI=1S/C6H8N2/c7-5-1-2-6(8)4-3-5/h1-4H,7-8H2, purity 99%
Compound 9: water, H2O, InChI=1S/H2O/h1H2

System: 1,2-benzenediol + water; phases: Liquid
Property: Molar heat capacity at constant pressure, J/K/mol (Liquid); method: FLOW:UFactor:2
Temperature, K	Pressure, kPa	Molality, mol/kg of 1,2-benzenediol	Molar heat capacity at constant pressure, J/K/mol	uncertainty
303.55	100	0.3	0.99006	0.0004
303.55	100	0.6993	0.9771	0.00067
303.55	100	1.0823	0.96474	0.00092
303.55	100	1.4801	0.95169	0.00119
303.55	100	0.3	0.99011	0.0004
303.55	100	0.6993	0.97719	0.00067
303.55	100	1.0823	0.96479	0.00092
303.55	100	1.4801	0.95169	0.00119
372.26	2200	0.3	0.99024	0.0005
372.26	2200	0.7311	0.97663	0.00092
372.26	2200	1.1343	0.96492	0.00128
372.26	2200	1.4953	0.95276	0.00166
372.26	2200	0.3	0.99008	0.00051
372.26	2200	0.7311	0.97671	0.00092
372.26	2200	1.1343	0.96477	0.00129
372.26	2200	1.4953	0.95344	0.00164
422.61	2100	0.299	0.98996	0.0006
422.61	2100	0.3	0.98991	0.0006
422.61	2100	0.7311	0.97598	0.00115
422.61	2100	1.1343	0.96429	0.00162
422.61	2100	1.4953	0.95324	0.00206
422.61	2100	0.299	0.98993	0.0006
422.61	2100	0.3	0.98987	0.0006
422.61	2100	0.7311	0.97603	0.00115
422.61	2100	1.1343	0.9642	0.00162
422.61	2100	1.4953	0.95325	0.00206
422.61	2100	1.4953	0.95319	0.00206
473.53	2100	0.299	0.98942	0.00073
473.53	2100	0.3	0.98931	0.00074
473.53	2100	0.7311	0.97497	0.00145
473.53	2100	1.1343	0.96285	0.00206
473.53	2100	1.4953	0.95165	0.00262
473.53	2100	0.3	0.98942	0.00073
473.53	2100	0.7311	0.97491	0.00145
473.53	2100	1.1343	0.96286	0.00206
473.53	2100	1.4953	0.95168	0.00261

System: 1,3-benzenediol + water; phases: Liquid
Property: Molar heat capacity at constant pressure, J/K/mol (Liquid); method: FLOW:UFactor:2
Temperature, K	Pressure, kPa	Molality, mol/kg of 1,3-benzenediol	Molar heat capacity at constant pressure, J/K/mol	uncertainty
303.55	100	0.3007	0.98688	0.00047
303.55	100	0.7018	0.97069	0.0008
303.55	100	1.0586	0.9568	0.00108
303.55	100	1.4629	0.94192	0.00139
303.55	100	0.3007	0.98688	0.00047
303.55	100	0.7018	0.97069	0.0008
303.55	100	1.0586	0.95685	0.00108
303.55	100	1.4629	0.94182	0.00139
372.24	2200	0.1475	0.99413	0.00038
372.24	2200	0.3007	0.9877	0.00058
372.24	2200	0.7018	0.97278	0.00104
372.24	2200	1.0586	0.96054	0.00142
372.24	2200	1.4629	0.94718	0.00183
372.24	2200	1.8193	0.93638	0.00218
372.24	2200	0.1475	0.99407	0.00038
372.24	2200	0.3007	0.98783	0.00058
372.24	2200	0.7018	0.97295	0.00103
372.24	2200	1.0586	0.96066	0.00141
372.24	2200	1.4629	0.94733	0.00183
372.24	2200	1.8193	0.93674	0.00217
422.61	2100	0.1475	0.99421	0.00044
422.61	2100	0.2987	0.98834	0.00066
422.61	2100	0.3007	0.98827	0.00067
422.61	2100	0.7018	0.97356	0.00125
422.61	2100	1.0586	0.96143	0.00173
422.61	2100	1.4629	0.94858	0.00225
422.61	2100	1.8193	0.93813	0.00266
422.61	2100	0.1475	0.99425	0.00043
422.61	2100	0.2987	0.98834	0.00066
422.61	2100	0.3007	0.9883	0.00067
422.61	2100	0.7018	0.97366	0.00125
422.61	2100	1.0586	0.96144	0.00173
422.61	2100	1.4629	0.94957	0.00221
422.61	2100	1.8193	0.9382	0.00265
473.53	2100	0.1475	0.99392	0.00051
473.53	2100	0.2987	0.98786	0.00081
473.53	2100	0.7018	0.9726	0.00157
473.53	2100	1.0586	0.96012	0.00219
473.53	2100	1.4629	0.94698	0.00284
473.53	2100	1.8193	0.93634	0.00337
473.53	2100	0.1475	0.99394	0.00051
473.53	2100	0.2987	0.98792	0.00081
473.53	2100	0.7018	0.97264	0.00157
473.53	2100	1.0586	0.96015	0.00219
473.53	2100	1.4629	0.94704	0.00284
473.53	2100	1.8193	0.93634	0.00337

System: 1,4-benzenediol + water; phases: Liquid
Property: Molar heat capacity at constant pressure, J/K/mol (Liquid); method: FLOW:UFactor:2
Temperature, K	Pressure, kPa	Molality, mol/kg of 1,4-benzenediol	Molar heat capacity at constant pressure, J/K/mol	uncertainty
303.55	100	0.148	0.99344	0.00033
303.55	100	0.3009	0.98685	0.00047
303.55	100	0.5051	0.97798	0.00065
303.55	100	0.148	0.99346	0.00033
303.55	100	0.3009	0.9869	0.00047
303.55	100	0.5051	0.97807	0.00065
372.24	2200	0.148	0.99412	0.00038
372.24	2200	0.3009	0.98813	0.00057
372.24	2200	0.4959	0.98088	0.00079
372.24	2200	0.148	0.99417	0.00038
372.24	2200	0.3009	0.98837	0.00056
372.24	2200	0.4959	0.98093	0.00079
422.61	2100	0.1495	0.99405	0.00044
422.61	2100	0.2974	0.98846	0.00066
422.61	2100	0.4959	0.98108	0.00095
422.61	2100	0.1495	0.99407	0.00044
422.61	2100	0.2974	0.98851	0.00066
422.61	2100	0.4959	0.98119	0.00095
473.53	2100	0.1493	0.99386	0.00051
473.53	2100	0.2863	0.98838	0.00078
473.53	2100	0.4959	0.98038	0.00118
473.53	2100	0.1493	0.99386	0.00051
473.53	2100	0.2863	0.98845	0.00078
473.53	2100	0.4959	0.98044	0.00118
473.53	2100	0.1493	0.99387	0.00051

System: 2-hydroxybenzenamine + water; phases: Liquid
Property: Molar heat capacity at constant pressure, J/K/mol (Liquid); method: FLOW:UFactor:2
Temperature, K	Pressure, kPa	Molality, mol/kg of 2-hydroxybenzenamine	Molar heat capacity at constant pressure, J/K/mol	uncertainty
303.55	100	0.0259	0.99875	0.00023
303.55	100	0.0259	0.99889	0.00022
372.26	2200	0.0256	0.99881	0.00024
372.26	2200	0.0256	0.99915	0.00023
372.26	2200	0.0256	0.99919	0.00023
422.62	2100	0.0231	0.9989	0.00024
422.62	2100	0.0231	0.99927	0.00023
422.62	2100	0.0231	0.99929	0.00023
473.53	2100	0.0238	0.99931	0.00024
473.53	2100	0.0238	0.99933	0.00024
473.53	2100	0.0238	0.99951	0.00023

System: 3-hydroxybenzenamine + water; phases: Liquid
Property: Molar heat capacity at constant pressure, J/K/mol (Liquid); method: FLOW:UFactor:2
Temperature, K	Pressure, kPa	Molality, mol/kg of 3-hydroxybenzenamine	Molar heat capacity at constant pressure, J/K/mol	uncertainty
303.55	100	0.1158	0.99531	0.0003
303.55	100	0.2171	0.99131	0.00038
303.55	100	0.2194	0.99116	0.00038
303.55	100	0.1158	0.99531	0.0003
303.55	100	0.2171	0.99132	0.00038
303.55	100	0.2194	0.99118	0.00038
303.55	100	0.1158	0.99534	0.0003
372.23	2200	0.1165	0.99565	0.00033
372.23	2200	0.2194	0.99188	0.00045
372.23	2200	0.1165	0.99572	0.00033
372.23	2200	0.2194	0.99203	0.00045
422.61	2100	0.1165	0.99605	0.00036
422.61	2100	0.2181	0.99237	0.0005
422.61	2100	0.1165	0.99607	0.00036
422.61	2100	0.2181	0.99247	0.0005
473.53	2100	0.1165	0.99588	0.00041
473.53	2100	0.1185	0.99583	0.00041
473.53	2100	0.2181	0.99232	0.00058
473.53	2100	0.1165	0.9959	0.0004
473.53	2100	0.1185	0.99585	0.00041
473.53	2100	0.2181	0.99236	0.00058
523.53	5000	0.1185	0.99544	0.00048
523.53	5000	0.216	0.99166	0.00071
523.53	5000	0.1185	0.99546	0.00048
523.53	5000	0.216	0.9918	0.0007
523.6	30200	0.1165	0.99558	0.00047
523.6	30200	0.1185	0.9955	0.00047
523.6	30200	0.2078	0.99218	0.00068
523.6	30200	0.1185	0.99551	0.00047
523.6	30200	0.2078	0.99219	0.00068
573.55	29900	0.1185	0.99453	0.0006
573.55	29900	0.2078	0.99034	0.00091
573.55	29900	0.1185	0.99457	0.0006
573.55	29900	0.2078	0.99038	0.0009
574.36	10100	0.1185	0.99397	0.00064
574.36	10100	0.2171	0.98889	0.00101
574.36	10100	0.1185	0.99407	0.00063
574.36	10100	0.2171	0.98893	0.00101

System: 4-hydroxybenzenamine + water; phases: Liquid
Property: Molar heat capacity at constant pressure, J/K/mol (Liquid); method: FLOW:UFactor:2
Temperature, K	Pressure, kPa	Molality, mol/kg of 4-hydroxybenzenamine	Molar heat capacity at constant pressure, J/K/mol	uncertainty
303.55	100	0.0499	0.99767	0.00025
303.55	100	0.0499	0.99776	0.00025
372.24	2200	0.0518	0.99799	0.00026
372.24	2200	0.0518	0.99801	0.00026
422.63	2100	0.0496	0.99823	0.00027
422.63	2100	0.0496	0.99828	0.00027
473.53	2100	0.0598	0.99781	0.00031
473.53	2100	0.0598	0.99783	0.00031
473.53	2100	0.0598	0.99788	0.00031

System: 1,2-benzenediamine + water; phases: Liquid
Property: Molar heat capacity at constant pressure, J/K/mol (Liquid); method: FLOW:UFactor:2
Temperature, K	Pressure, kPa	Molality, mol/kg of 1,2-benzenediamine	Molar heat capacity at constant pressure, J/K/mol	uncertainty
303.55	100	0.1189	0.99797	0.00024
303.55	100	0.2477	0.99549	0.0003
303.55	100	0.1189	0.99802	0.00024
303.55	100	0.2477	0.99551	0.00029
372.24	2200	0.1196	0.99827	0.00025
372.24	2200	0.2379	0.99656	0.00031
372.24	2200	0.1196	0.99851	0.00025
372.24	2200	0.2379	0.99672	0.0003
372.24	2200	0.2379	0.99684	0.0003
422.63	2100	0.1196	0.99867	0.00025
422.63	2100	0.2331	0.99735	0.00031
422.63	2100	0.1196	0.99868	0.00025
422.63	2100	0.2331	0.99744	0.00031
422.63	2100	0.1196	0.99868	0.00025
473.53	2100	0.1207	0.99857	0.00027
473.53	2100	0.2362	0.99715	0.00034
473.53	2100	0.1207	0.99858	0.00027
473.53	2100	0.2362	0.99715	0.00034
523.53	5000	0.1207	0.99838	0.0003
523.53	5000	0.2362	0.99669	0.0004
523.53	5000	0.1207	0.99843	0.0003
523.53	5000	0.2362	0.9967	0.0004
523.6	30200	0.1207	0.99811	0.00032
523.6	30200	0.2362	0.9963	0.00043
523.6	30200	0.1207	0.99814	0.00031
523.6	30200	0.2362	0.99631	0.00042
573.77	30000	0.1207	0.99738	0.00039
573.77	30000	0.234	0.99487	0.00058
573.77	30000	0.1207	0.99744	0.00039
573.77	30000	0.234	0.99488	0.00057
574.51	10200	0.1196	0.99781	0.00036
574.51	10200	0.234	0.99524	0.00055
574.51	10200	0.1196	0.99781	0.00036
574.51	10200	0.234	0.99524	0.00055

System: 1,4-benzenediamine + water; phases: Liquid
Property: Molar heat capacity at constant pressure, J/K/mol (Liquid); method: FLOW:UFactor:2
Temperature, K	Pressure, kPa	Molality, mol/kg of 1,4-benzenediamine	Molar heat capacity at constant pressure, J/K/mol	uncertainty
303.55	100	0.1516	0.99601	0.00028
303.55	100	0.3421	0.99127	0.00038
303.55	100	0.1516	0.99611	0.00028
303.55	100	0.3421	0.99129	0.00038
303.55	100	0.3421	0.99146	0.00037
372.22	2200	0.1449	0.99746	0.00028
