Measured thermophysical data. Measurements of vapour pressures and saturated-liquid densities for n-butane at T = (280 to 424) K
Source: J. Chem. Thermodyn., 2007, 10.1016/j.jct.2006.09.014
Compound 1: butane, C4H10, InChI=1S/C4H10/c1-3-4-2/h3-4H2,1-2H3, purity 99.97%

System: butane; phases: Liquid, Gas
Property: Vapor or sublimation pressure, kPa (Liquid); method: Closed cell (Static) method
Temperature, K	Vapor or sublimation pressure, kPa	uncertainty
280	133	0.6
300	257.5	0.6
320	456.2	0.9
340	752	1.2
360	1170.2	1.8
370	1434.9	2.2
380	1739.9	2.7
380	1740.4	2.7
390	2092.1	3.3
400	2494.6	3.9
400	2495.2	3.9
410	2955	4.6
420	3482.5	5.4
422	3597.5	5.6
424	3716.9	5.8

System: butane; phases: Liquid, Gas
Property: Mass density, kg/m3 (Liquid); method: Bellows volumetry
Temperature, K	Mass density, kg/m3	uncertainty
280	594.08	0.95
300	571.57	0.91
320	547.03	0.88
340	520.5	0.83
360	490.55	0.78
380	454.55	0.73
424	288.22	1.66

System: butane; phases: Liquid
Property: Mass density, kg/m3 (Liquid); method: Bellows volumetry
Temperature, K	Pressure, kPa	Mass density, kg/m3	uncertainty
280	145	594.1	0.9
280	168.4	594.15	0.9
280	191.6	594.23	0.9
280	215	594.24	0.9
280	238.3	594.32	0.9
280	261.7	594.34	0.9
280	285	594.4	0.9
300	271.4	571.6	0.86
300	294.8	571.61	0.86
300	318.1	571.67	0.98
300	341.4	571.69	0.86
300	364.8	571.72	0.86
300	388.1	571.76	0.86
300	411.5	571.8	0.86
320	469.7	547.03	0.82
320	493	547.12	0.91
320	516.3	547.15	0.88
320	539.6	547.22	0.82
320	563	547.25	0.82
320	586.3	547.25	0.85
320	609.6	547.3	0.82
340	763.1	520.53	0.78
340	786.4	520.62	0.81
340	809.7	520.68	0.81
340	833	520.72	0.8
340	856.3	520.82	0.78
340	879.7	520.9	0.78
340	903	520.96	0.78
360	1176.4	490.56	0.72
360	1199.7	490.68	0.74
360	1223	490.79	0.74
360	1246.3	490.91	0.73
360	1269.6	490.99	0.73
360	1292.9	491.01	0.72
360	1316.1	491.18	0.72
380	1759.6	454.68	0.66
380	1782.8	454.9	0.66
380	1806.1	455.09	0.66
380	1829.3	455.25	0.67
380	1852.5	455.46	0.66
380	1875.8	455.6	0.66
380	1899	455.78	0.66
424	3720.3	289.99	1.15
424	3720.4	289.82	1.18
424	3728.4	294.73	1.06
424	3737.3	298.52	1.05
