Measured thermophysical data. Equilibrium solubility of carbon dioxide in aqueous solutions of (diethylenetriamine + piperazine)
Source: J. Chem. Thermodyn., 2013, 10.1016/j.jct.2013.05.005
Compound 1: di(2-aminoethyl)amine, C4H13N3, InChI=1S/C4H13N3/c5-1-3-7-4-2-6/h7H,1-6H2, purity 98%
Compound 2: 2-aminoethan-1-ol, C2H7NO, InChI=1S/C2H7NO/c3-1-2-4/h4H,1-3H2, purity 99%
Compound 3: water, H2O, InChI=1S/H2O/h1H2
Compound 4: carbon dioxide, CO2, InChI=1S/CO2/c2-1-3, purity 99.5%

System: carbon dioxide + 2-aminoethan-1-ol + water; phases: Liquid, Gas
Fixed: Temperature, K = 313.2
Fixed: Mass ratio of solute to solvent of water = 5.536
Property: Amount ratio of solute to solvent of carbon dioxide (Liquid); method: acid-base titration
Pressure, kPa	Amount ratio of solute to solvent of carbon dioxide	uncertainty
14.2	0.554	0.033
34.4	0.623	0.037
88.4	0.672	0.04
150.1	0.735	0.044
243.1	0.785	0.047
353.4	0.824	0.049
441.4	0.845	0.051
539.7	0.856	0.051
655.2	0.865	0.052
746.5	0.871	0.052
829.8	0.876	0.053
915.3	0.887	0.053

System: di(2-aminoethyl)amine + carbon dioxide + water; phases: Liquid, Gas
Property: Amount ratio of solute to solvent of carbon dioxide (Liquid); method: acid-base titration
Temperature, K	Mass ratio of solute to solvent of water	Pressure, kPa	Amount ratio of solute to solvent of carbon dioxide	uncertainty
313.2	4	1.2	0.92	0.06
313.2	4	3.8	0.99	0.06
313.2	4	12.8	1.08	0.07
313.2	4	25.6	1.13	0.07
313.2	4	47.6	1.19	0.07
313.2	4	148.8	1.27	0.08
313.2	4	289.9	1.34	0.08
313.2	4	378.8	1.37	0.08
313.2	4	417.7	1.38	0.08
313.2	4	497.9	1.4	0.08
313.2	4	699	1.45	0.09
313.2	4	794.2	1.47	0.09
313.2	4	849.2	1.48	0.09
313.2	4	937.4	1.49	0.09
313.2	2.333	2.3	0.9	0.05
313.2	2.333	5.2	0.93	0.06
313.2	2.333	7	0.96	0.06
313.2	2.333	17.4	1.02	0.06
313.2	2.333	33.6	1.07	0.06
313.2	2.333	59	1.14	0.07
313.2	2.333	111	1.2	0.07
313.2	2.333	243.7	1.26	0.08
313.2	2.333	333.8	1.29	0.08
313.2	2.333	505.1	1.33	0.08
313.2	2.333	560.3	1.34	0.08
313.2	2.333	805.6	1.37	0.08
313.2	2.333	839.7	1.38	0.08
313.2	2.333	919.6	1.39	0.08
313.2	1.5	0.8	0.76	0.05
313.2	1.5	5.3	0.88	0.05
313.2	1.5	9.2	0.93	0.06
313.2	1.5	16.8	0.97	0.06
313.2	1.5	35.2	1.04	0.06
313.2	1.5	50.9	1.07	0.06
313.2	1.5	104.6	1.13	0.07
313.2	1.5	230.7	1.19	0.07
313.2	1.5	347	1.22	0.07
313.2	1.5	436.4	1.24	0.07
313.2	1.5	583.7	1.26	0.08
313.2	1.5	697.5	1.28	0.08
313.2	1.5	738.9	1.3	0.08
313.2	1.5	834.5	1.31	0.08
353.2	4	1.9	0.78	0.05
353.2	4	3.8	0.82	0.05
353.2	4	13.1	0.91	0.05
353.2	4	26	0.92	0.06
353.2	4	45.9	1	0.06
353.2	4	132.5	1.07	0.06
353.2	4	250.1	1.14	0.07
353.2	4	365.1	1.18	0.07
353.2	4	449.5	1.2	0.07
353.2	4	551.1	1.22	0.07
353.2	4	699	1.24	0.07
353.2	4	794.2	1.25	0.08
353.2	4	849.2	1.26	0.08
353.2	4	937.4	1.27	0.08
353.2	2.333	2.1	0.7	0.04
353.2	2.333	4.2	0.75	0.05
353.2	2.333	11.6	0.81	0.05
353.2	2.333	22	0.86	0.05
353.2	2.333	50.4	0.93	0.06
353.2	2.333	121.9	0.98	0.06
353.2	2.333	229.3	1.04	0.06
353.2	2.333	377.1	1.11	0.07
353.2	2.333	433.2	1.12	0.07
353.2	2.333	547.5	1.14	0.07
353.2	2.333	665.4	1.16	0.07
353.2	2.333	723.1	1.17	0.07
353.2	2.333	842.4	1.18	0.07
353.2	2.333	920.5	1.19	0.07
353.2	1.5	1.5	0.63	0.04
353.2	1.5	5.1	0.7	0.04
353.2	1.5	16.3	0.76	0.05
353.2	1.5	34.4	0.82	0.05
353.2	1.5	60.6	0.86	0.05
353.2	1.5	135.6	0.92	0.06
353.2	1.5	249.1	0.98	0.06
353.2	1.5	355.4	1.01	0.06
353.2	1.5	434.6	1.03	0.06
353.2	1.5	521.7	1.05	0.06
353.2	1.5	591.4	1.06	0.06
353.2	1.5	742.5	1.08	0.07
353.2	1.5	824.1	1.09	0.07
353.2	1.5	910.7	1.11	0.07
