Measured thermophysical data. Liquid-liquid extraction of styrene from ethylbenzene using ionic liquids
Source: J. Chem. Thermodyn., 2018, 10.1016/j.jct.2018.04.022
Compound 1: 1-(2-methoxyethyl)-3-methylimidazolium dicyanamide, C9H13N5O, InChI=1S/C7H13N2O.C2N3/c1-8-3-4-9(7-8)5-6-10-2;3-1-5-2-4/h3-4,7H,5-6H2,1-2H3;/q+1;-1
Compound 2: 1-(4-methoxy-4-oxobutyl)-3-methylimidazolium dicyanamide, C11H15N5O2, InChI=1S/C9H15N2O2.C2N3/c1-10-6-7-11(8-10)5-3-4-9(12)13-2;3-1-5-2-4/h6-8H,3-5H2,1-2H3;/q+1;-1
Compound 3: choline dicyanamide, C7H14N4O, InChI=1S/C5H14NO.C2N3/c1-6(2,3)4-5-7;3-1-5-2-4/h7H,4-5H2,1-3H3;/q+1;-1
Compound 4: ethylbenzene, C8H10, InChI=1S/C8H10/c1-2-8-6-4-3-5-7-8/h3-7H,2H2,1H3
Compound 5: styrene, C8H8, InChI=1S/C8H8/c1-2-8-6-4-3-5-7-8/h2-7H,1H2

System: 1-(2-methoxyethyl)-3-methylimidazolium dicyanamide + styrene + ethylbenzene; phases: Liquid mixture 2, Liquid mixture 1
Fixed: Temperature, K = 298.15
Fixed: Pressure, kPa = 101
Property: Mole fraction of 1-(2-methoxyethyl)-3-methylimidazolium dicyanamide (Liquid mixture 2); method: Chromatography
Property: Mole fraction of 1-(2-methoxyethyl)-3-methylimidazolium dicyanamide (Liquid mixture 1); method: Chromatography
Property: Mole fraction of styrene (Liquid mixture 1); method: Chromatography
Mole fraction of styrene	Mole fraction of 1-(2-methoxyethyl)-3-methylimidazolium dicyanamide	uncertainty	Mole fraction of 1-(2-methoxyethyl)-3-methylimidazolium dicyanamide	uncertainty	Mole fraction of styrene	uncertainty
0.494	0.506	0.007	0		1	
0.028	0.817	0.008	0		0.065	
0	0.84	0.006	0		0	
0.472	0.517	0.008	0		0.955	
0.403	0.562	0.008	0		0.856	
0.333	0.604	0.008	0		0.723	
0.294	0.633	0.008	0		0.661	
0.243	0.667	0.008	0		0.568	
0.185	0.708	0.008	0		0.454	
0.136	0.741	0.008	0		0.34	
0.088	0.774	0.008	0		0.221	

System: 1-(4-methoxy-4-oxobutyl)-3-methylimidazolium dicyanamide + styrene + ethylbenzene; phases: Liquid mixture 2, Liquid mixture 1
Fixed: Temperature, K = 298.15
Fixed: Pressure, kPa = 101
Property: Mole fraction of 1-(4-methoxy-4-oxobutyl)-3-methylimidazolium dicyanamide (Liquid mixture 2); method: Chromatography
Property: Mole fraction of 1-(4-methoxy-4-oxobutyl)-3-methylimidazolium dicyanamide (Liquid mixture 1); method: Chromatography
Property: Mole fraction of styrene (Liquid mixture 1); method: Chromatography
Mole fraction of styrene	Mole fraction of 1-(4-methoxy-4-oxobutyl)-3-methylimidazolium dicyanamide	uncertainty	Mole fraction of 1-(4-methoxy-4-oxobutyl)-3-methylimidazolium dicyanamide	uncertainty	Mole fraction of styrene	uncertainty
0.406	0.594	0.007	0		1	
0.393	0.598	0.007	0		0.953	
0.324	0.642	0.008	0		0.813	
0.262	0.679	0.007	0		0.688	
0.22	0.708	0.007	0		0.589	
0.171	0.739	0.007	0		0.456	
0.125	0.77	0.007	0		0.348	
0.079	0.799	0.007	0		0.208	
0.022	0.836	0.007	0		0.053	
0	0.854	0.006	0		0	

System: choline dicyanamide + styrene + ethylbenzene; phases: Liquid mixture 2, Liquid mixture 1
Fixed: Temperature, K = 298.15
Fixed: Pressure, kPa = 101
Property: Mole fraction of choline dicyanamide (Liquid mixture 2); method: Chromatography
Property: Mole fraction of choline dicyanamide (Liquid mixture 1); method: Chromatography
Property: Mole fraction of styrene (Liquid mixture 1); method: Chromatography
Mole fraction of styrene	Mole fraction of choline dicyanamide	uncertainty	Mole fraction of choline dicyanamide	uncertainty	Mole fraction of styrene	uncertainty
0.071	0.929	0.006	0		1	
0	0.97	0.006	0		0	
0.07	0.929	0.006	0		0.956	
0.062	0.932	0.007	0		0.844	
0.05	0.938	0.007	0		0.699	
0.039	0.945	0.007	0		0.565	
0.032	0.949	0.007	0		0.487	
0.025	0.953	0.007	0		0.339	
0.014	0.959	0.007	0		0.207	
0.004	0.966	0.006	0		0.06	

System: 1-(2-methoxyethyl)-3-methylimidazolium dicyanamide + styrene; phases: Liquid mixture 2, Liquid mixture 1
Property: Mole fraction of 1-(2-methoxyethyl)-3-methylimidazolium dicyanamide (Liquid mixture 2); method: Chromatography
Temperature, K	Pressure, kPa	Mole fraction of 1-(2-methoxyethyl)-3-methylimidazolium dicyanamide	uncertainty
298.15	101	0.506	0.007

System: 1-(2-methoxyethyl)-3-methylimidazolium dicyanamide + ethylbenzene; phases: Liquid mixture 2, Liquid mixture 1
Property: Mole fraction of 1-(2-methoxyethyl)-3-methylimidazolium dicyanamide (Liquid mixture 2); method: Chromatography
Temperature, K	Pressure, kPa	Mole fraction of 1-(2-methoxyethyl)-3-methylimidazolium dicyanamide	uncertainty
298.15	101	0.84	0.006

System: 1-(4-methoxy-4-oxobutyl)-3-methylimidazolium dicyanamide + styrene; phases: Liquid mixture 2, Liquid mixture 1
Property: Mole fraction of 1-(4-methoxy-4-oxobutyl)-3-methylimidazolium dicyanamide (Liquid mixture 2); method: Chromatography
Temperature, K	Pressure, kPa	Mole fraction of 1-(4-methoxy-4-oxobutyl)-3-methylimidazolium dicyanamide	uncertainty
298.15	101	0.594	0.007

System: 1-(4-methoxy-4-oxobutyl)-3-methylimidazolium dicyanamide + ethylbenzene; phases: Liquid mixture 2, Liquid mixture 1
Property: Mole fraction of 1-(4-methoxy-4-oxobutyl)-3-methylimidazolium dicyanamide (Liquid mixture 2); method: Chromatography
Temperature, K	Pressure, kPa	Mole fraction of 1-(4-methoxy-4-oxobutyl)-3-methylimidazolium dicyanamide	uncertainty
298.15	101	0.854	0.006

System: choline dicyanamide + styrene; phases: Liquid mixture 2, Liquid mixture 1
Property: Mole fraction of choline dicyanamide (Liquid mixture 2); method: Chromatography
Temperature, K	Pressure, kPa	Mole fraction of choline dicyanamide	uncertainty
298.15	101	0.929	0.006

System: choline dicyanamide + ethylbenzene; phases: Liquid mixture 2, Liquid mixture 1
Property: Mole fraction of choline dicyanamide (Liquid mixture 2); method: Chromatography
Temperature, K	Pressure, kPa	Mole fraction of choline dicyanamide	uncertainty
298.15	101	0.97	0.006
