Measured thermophysical data. Effect of tetra-n-alkylammonium bromides on the volumetric properties of glycine, L-alanine and glycylglycine at T = 298:15 K
Source: J. Chem. Thermodyn., 2004, 10.1016/j.jct.2003.09.008
Compound 1: (S)-2-aminopropanoic acid, C3H7NO2, InChI=1S/C3H7NO2/c1-2(4)3(5)6/h2H,4H2,1H3,(H,5,6)/t2-/m0/s1, purity 99.7%
Compound 2: glycylglycine, C4H8N2O3, InChI=1S/C4H8N2O3/c5-1-3(7)6-2-4(8)9/h1-2,5H2,(H,6,7)(H,8,9), purity 99.7%
Compound 3: 2-aminoacetic acid, C2H5NO2, InChI=1S/C2H5NO2/c3-1-2(4)5/h1,3H2,(H,4,5), purity 99%
Compound 4: water, H2O, InChI=1S/H2O/h1H2
Compound 5: tetramethylammonium bromide, C4H12BrN, InChI=1S/C4H12N.BrH/c1-5(2,3)4;/h1-4H3;1H/q+1;/p-1
Compound 6: tetraethylammonium bromide, C8H20BrN, InChI=1S/C8H20N.BrH/c1-5-9(6-2,7-3)8-4;/h5-8H2,1-4H3;1H/q+1;/p-1, purity 99%
Compound 7: tetrabutylammonium bromide, C16H36BrN, InChI=1S/C16H36N.BrH/c1-5-9-13-17(14-10-6-2,15-11-7-3)16-12-8-4;/h5-16H2,1-4H3;1H/q+1;/p-1, purity 99%

System: tetramethylammonium bromide + water; phases: Liquid
Fixed: Temperature, K = 298.15
Fixed: Pressure, kPa = 101.325
Property: Mass density, kg/m3 (Liquid); method: VIBTUB:UFactor:8
Molality, mol/kg of tetramethylammonium bromide	Mass density, kg/m3	uncertainty
0.2579	1006.85	0.48
0.258	1006.83	0.58
0.2581	1006.9	0.48
0.532	1016.59	0.6
0.5322	1016.42	0.5
0.5325	1016.59	0.5
0.8105	1025.86	0.52
0.8239	1026.24	0.62
1.1339	1036.07	0.64
1.1342	1035.72	0.54
1.8386	1046.9	0.66

System: tetraethylammonium bromide + water; phases: Liquid
Fixed: Temperature, K = 298.15
Fixed: Pressure, kPa = 101.325
Property: Mass density, kg/m3 (Liquid); method: VIBTUB:UFactor:8
Molality, mol/kg of tetraethylammonium bromide	Mass density, kg/m3	uncertainty
0.102	1000.71	0.42
0.4023	1010.95	0.44
0.549	1015.83	0.46
1.2115	1035.67	0.5
1.2122	1035.35	0.43

System: tetrabutylammonium bromide + water; phases: Liquid
Fixed: Temperature, K = 298.15
Fixed: Pressure, kPa = 101.325
Property: Mass density, kg/m3 (Liquid); method: VIBTUB:UFactor:8
Molality, mol/kg of tetrabutylammonium bromide	Mass density, kg/m3	uncertainty
0.0509	998.2	0.42
0.1034	999.39	0.42
0.2709	1003.18	0.43
0.589	1010.09	0.44
0.7318	1013.27	0.45

System: 2-aminoacetic acid + tetramethylammonium bromide + water; phases: Liquid
Fixed: Temperature, K = 298.15
Fixed: Pressure, kPa = 101.325
Property: Mass density, kg/m3 (Liquid); method: VIBTUB:UFactor:8
Solvent: Molality, mol/kg of tetramethylammonium bromide	Molality, mol/kg of 2-aminoacetic acid	Mass density, kg/m3	uncertainty
0.258	0	1006.83	0.58
0.258	0.4978	1022	0.61
0.258	1.0001	1036.32	0.64
0.258	1.5012	1049.6	0.67
0.258	1.9993	1061.93	0.7
0.532	0	1016.59	0.6
0.532	0.4982	1031.55	0.63
0.532	0.7446	1038.63	0.64
0.532	0.9923	1045.43	0.66
0.532	1.4966	1058.69	0.69
0.8239	0	1026.24	0.62
0.8239	0.4956	1041.02	0.65
0.8239	1.4981	1067.99	0.71
0.8239	1.999	1079.86	0.74
1.1339	0	1036.07	0.64
1.1339	0.4923	1050.56	0.67
1.1339	1.4852	1076.63	0.73
1.1339	1.9891	1087.22	0.76
1.1339	2.1861	1091.58	0.77
1.8386	0	1046.9	0.66
1.8386	0.4908	1060.86	0.69
1.8386	0.9921	1074.04	0.73
1.8386	1.4891	1086.21	0.76

System: (S)-2-aminopropanoic acid + tetramethylammonium bromide + water; phases: Liquid
Fixed: Temperature, K = 298.15
Fixed: Pressure, kPa = 101.325
Property: Mass density, kg/m3 (Liquid); method: VIBTUB:UFactor:8
Solvent: Molality, mol/kg of tetramethylammonium bromide	Molality, mol/kg of (S)-2-aminopropanoic acid	Mass density, kg/m3	uncertainty
0.2581	0	1006.9	0.48
0.2581	0.1005	1009.7	0.48
0.2581	0.4985	1020.65	0.51
0.2581	0.7511	1026.9	0.52
0.2581	1.001	1032.98	0.53
0.5325	0	1016.59	0.5
0.5325	0.4967	1029.85	0.53
0.5325	0.7467	1036.13	0.54
0.5325	0.9967	1042.18	0.56
0.8239	0.4927	1039.23	0.55
0.8239	0.7507	1045.6	0.56
0.8239	0.9905	1050.77	0.58
1.1339	0.0965	1038.31	0.55
1.1339	0.4884	1048.45	0.57
1.1339	0.7338	1054.35	0.59
1.1339	0.9873	1060.21	0.6
1.8386	0.0975	1049.43	0.57
1.8386	0.4981	1059.31	0.6
1.8386	0.7479	1065.09	0.61
1.8386	0.9883	1070.31	0.63

System: tetramethylammonium bromide + glycylglycine + water; phases: Liquid
Fixed: Temperature, K = 298.15
Fixed: Pressure, kPa = 101.325
Property: Mass density, kg/m3 (Liquid); method: VIBTUB:UFactor:8
Solvent: Molality, mol/kg of tetramethylammonium bromide	Molality, mol/kg of glycylglycine	Mass density, kg/m3	uncertainty
0.2579	0	1006.85	0.48
0.2579	0.1014	1012.36	0.49
0.2579	0.5001	1032.93	0.54
0.2579	0.7495	1044.94	0.56
0.5322	0	1016.42	0.5
0.5322	0.5023	1042.43	0.56
0.5322	0.7445	1053.98	0.59
0.8105	0	1025.86	0.52
0.8105	0.0985	1031.1	0.53
0.8105	0.4962	1051.3	0.58
0.8105	0.7464	1063.09	0.61
1.1342	0	1035.72	0.54
1.1342	0.0991	1040.98	0.56
1.1342	0.4966	1060.9	0.6
1.1342	0.7393	1072.24	0.63

System: 2-aminoacetic acid + tetraethylammonium bromide + water; phases: Liquid
Fixed: Temperature, K = 298.15
Fixed: Pressure, kPa = 101.325
Property: Mass density, kg/m3 (Liquid); method: VIBTUB:UFactor:8
Solvent: Molality, mol/kg of tetraethylammonium bromide	Molality, mol/kg of 2-aminoacetic acid	Mass density, kg/m3	uncertainty
0.102	0	1000.71	0.42
0.102	0.4979	1016.01	0.46
0.102	0.754	1023.46	0.47
0.102	1.0001	1030.35	0.49
0.102	1.5055	1043.88	0.52
0.4023	0	1010.95	0.44
0.4023	0.4964	1026	0.48
0.4023	0.7502	1033.31	0.5
0.4023	0.9317	1040.25	5
0.4023	1.5126	1053.7	0.55
0.549	0	1015.83	0.46
0.549	0.4957	1030.73	0.49
0.549	0.745	1037.82	0.51
0.549	1.0005	1044.84	0.53
0.549	1.4951	1057.76	0.56
1.2115	0	1035.67	0.5
1.2115	0.4928	1050.08	0.54
1.2115	0.7416	1056.92	0.56
1.2115	0.9898	1063.55	0.57
1.2115	1.4877	1076.22	0.61

System: (S)-2-aminopropanoic acid + tetraethylammonium bromide + water; phases: Liquid
Fixed: Temperature, K = 298.15
Fixed: Pressure, kPa = 101.325
Property: Mass density, kg/m3 (Liquid); method: VIBTUB:UFactor:8
Solvent: Molality, mol/kg of tetraethylammonium bromide	Molality, mol/kg of (S)-2-aminopropanoic acid	Mass density, kg/m3	uncertainty
0.102	0.1005	1003.56	0.34
0.102	0.5053	1014.6	0.37
0.102	0.7539	1021.04	0.39
0.102	1.0013	1027.16	0.4
0.2622	0.0984	1008.98	0.36
0.2622	0.4999	1019.83	0.38
0.2622	0.7534	1026.34	0.4
0.2622	0.9974	1032.36	0.42
0.549	0.1003	1018.59	0.38
0.549	0.4939	1029.13	0.41
0.549	0.7463	1035.55	0.43
0.549	0.9907	1041.5	0.44
1.2115	0.4902	1048.46	0.46
1.2115	0.7383	1054.53	0.48
1.2115	0.99	1060.38	0.5

System: tetraethylammonium bromide + glycylglycine + water; phases: Liquid
Fixed: Temperature, K = 298.15
Fixed: Pressure, kPa = 101.325
Property: Mass density, kg/m3 (Liquid); method: VIBTUB:UFactor:8
Solvent: Molality, mol/kg of tetraethylammonium bromide	Molality, mol/kg of glycylglycine	Mass density, kg/m3	uncertainty
0.102	0.1012	1006.34	0.35
0.102	0.5054	1027.29	0.41
0.102	0.7534	1039.28	0.44
0.2623	0.1011	1011.83	0.37
0.2623	0.5059	1032.74	0.42
0.2623	0.7482	1044.4	0.45
0.5491	0.0997	1021.17	0.39
0.5491	0.4958	1041.47	0.44
0.5491	0.7457	1053.34	0.48
1.2122	0	1035.35	0.43
1.2122	0.4958	1060.52	0.5
1.2122	0.7446	1072.02	0.53

System: 2-aminoacetic acid + tetrabutylammonium bromide + water; phases: Liquid
Fixed: Temperature, K = 298.15
Fixed: Pressure, kPa = 101.325
Property: Mass density, kg/m3 (Liquid); method: VIBTUB:UFactor:8
Solvent: Molality, mol/kg of tetrabutylammonium bromide	Molality, mol/kg of 2-aminoacetic acid	Mass density, kg/m3	uncertainty
0.0509	0	998.2	0.42
0.0509	0.4985	1013.54	0.45
0.0509	0.7473	1020.83	0.47
0.0509	1.0058	1028.06	0.48
0.0509	1.5035	1041.41	0.52
0.1034	0	999.39	0.42
0.1034	0.4968	1014.6	0.45
0.1034	0.7508	1021.99	0.47
0.1034	1.0041	1029.08	0.49
0.1034	1.5055	1042.49	0.52
0.2709	0	1003.18	0.43
0.2709	0.5026	1018.47	0.46
0.2709	0.7537	1025.68	0.48
0.2709	1.0058	1032.67	0.5
0.2709	1.5083	1045.93	0.53
0.589	0	1010.09	0.44
0.589	0.5002	1024.93	0.48
0.589	0.7499	1031.99	0.49
0.589	0.9967	1038.69	0.51
0.589	1.4941	1051.57	0.54
0.7318	0	1013.27	0.45
0.7318	0.4973	1027.84	0.48
0.7318	0.7496	1034.87	0.5
0.7318	0.9999	1041.61	0.52
0.7318	1.4993	1054.39	0.55

System: (S)-2-aminopropanoic acid + tetrabutylammonium bromide + water; phases: Liquid
Fixed: Temperature, K = 298.15
Fixed: Pressure, kPa = 101.325
Property: Mass density, kg/m3 (Liquid); method: VIBTUB:UFactor:8
Solvent: Molality, mol/kg of tetrabutylammonium bromide	Molality, mol/kg of (S)-2-aminopropanoic acid	Mass density, kg/m3	uncertainty
0.1034	0.1009	1002.27	0.34
0.1034	0.5006	1013.19	0.37
0.1034	0.7487	1019.62	0.38
0.2709	0.1001	1005.99	0.35
0.2709	0.5007	1016.9	0.38
0.2709	0.7545	1023.46	0.39
0.2709	1.0017	1029.58	0.41
0.589	0.101	1012.88	0.37
0.589	0.4995	1023.57	0.39
0.589	0.7508	1029.9	0.41
0.589	0.9996	1035.95	0.43
0.7318	0.0989	1015.99	0.37
0.7318	0.4978	1026.55	0.4
0.7318	0.7496	1032.84	0.42

System: glycylglycine + tetrabutylammonium bromide + water; phases: Liquid
Fixed: Temperature, K = 298.15
Fixed: Pressure, kPa = 101.325
Property: Mass density, kg/m3 (Liquid); method: VIBTUB:UFactor:8
Solvent: Molality, mol/kg of tetrabutylammonium bromide	Molality, mol/kg of glycylglycine	Mass density, kg/m3	uncertainty
0.0509	0.1012	1003.78	0.35
0.0509	0.5022	1024.63	0.4
0.0509	0.7538	1036.79	0.43
0.271	0.1013	1008.75	0.36
0.271	0.5013	1029.31	0.41
0.271	0.7516	1041.35	0.44
0.5889	0.0999	1015.56	0.38
0.5889	0.4988	1035.87	0.43
0.5889	0.7538	1047.91	0.46
