Measured thermophysical data. Studies on molecular interactions of some neurotransmitters in water using volumetric and compressibility measurements at T = (278.15, 288.15 and 298.15) K
Source: J. Chem. Thermodyn., 2016, 10.1016/j.jct.2015.09.020
Compound 1: glycine hydrochloride, C2H6ClNO2, InChI=1S/C2H5NO2.ClH/c3-1-2(4)5;/h1,3H2,(H,4,5);1H, purity 99%
Compound 2: sodium (S)-2-amino-4-carboxybutanoate, C5H8NNaO4, InChI=1S/C5H9NO4.Na/c6-3(5(9)10)1-2-4(7)8;/h3H,1-2,6H2,(H,7,8)(H,9,10);/q;+1/p-1/t3-;/m0./s1, purity 99%
Compound 3: 4-aminobutanoic acid, C4H9NO2, InChI=1S/C4H9NO2/c5-3-1-2-4(6)7/h1-3,5H2,(H,6,7), purity 99%
Compound 4: water, H2O, InChI=1S/H2O/h1H2

System: water; phases: Liquid
Property: Speed of sound, m/s (Liquid); method: Linear variable-path acoustic interferometer
Temperature, K	Pressure, kPa	Frequency, MHz	Speed of sound, m/s	uncertainty
278.15	101.3	2	1426.2	1.7

System: water; phases: Liquid
Property: Mass density, kg/m3 (Liquid); method: Pycnometric method
Temperature, K	Pressure, kPa	Mass density, kg/m3	uncertainty
278.15	101.3	999.96	0.28

System: water; phases: Liquid
Fixed: Pressure, kPa = 101.3
Fixed: Frequency, MHz = 2
Property: Speed of sound, m/s (Liquid); method: Sing-around technique in a fixed-path interferometer
Temperature, K	Speed of sound, m/s	uncertainty
288.15	1465.9	1.2
298.15	1496.7	1.2

System: water; phases: Liquid
Fixed: Pressure, kPa = 101.3
Property: Mass density, kg/m3 (Liquid); method: Vibrating tube method
Temperature, K	Mass density, kg/m3	uncertainty
288.15	999.1	0.12
298.15	997.05	0.12

System: glycine hydrochloride + water; phases: Liquid
Fixed: Temperature, K = 278.15
Fixed: Pressure, kPa = 101.3
Fixed: Frequency, MHz = 2
Property: Speed of sound, m/s (Liquid); method: Linear variable-path acoustic interferometer
Molality, mol/kg of glycine hydrochloride	Speed of sound, m/s	uncertainty
0	1426.2	1.7
0.0508	1430.8	1.7
0.0811	1433.6	1.7
0.1008	1435	1.7
0.1202	1436.2	1.7
0.1499	1438.3	1.7
0.1801	1441.1	1.7
0.2112	1443.2	1.7
0.2325	1445.3	1.8
0.2472	1445.9	1.8
0.2732	1448	1.8
0.2995	1449.7	1.8
0.3208	1451.3	1.8
0.3529	1454.1	1.8

System: glycine hydrochloride + water; phases: Liquid
Fixed: Temperature, K = 278.15
Fixed: Pressure, kPa = 101.3
Property: Mass density, kg/m3 (Liquid); method: Pycnometric method
Molality, mol/kg of glycine hydrochloride	Mass density, kg/m3	uncertainty
0	999.96	0.28
0.0508	1002.4	0.28
0.0811	1003.61	0.29
0.1008	1004.87	0.29
0.1202	1005.41	0.3
0.1499	1006.88	0.31
0.1801	1008.05	0.32
0.2112	1009.37	0.34
0.2325	1010.42	0.36
0.2472	1011.07	0.35
0.2732	1012.17	0.36
0.2995	1013.21	0.37
0.3208	1014.01	0.36
0.3529	1015.11	0.37

System: glycine hydrochloride + water; phases: Liquid
Fixed: Pressure, kPa = 101.3
Fixed: Frequency, MHz = 3
Property: Speed of sound, m/s (Liquid); method: Sing-around technique in a fixed-path interferometer
Temperature, K	Molality, mol/kg of glycine hydrochloride	Speed of sound, m/s	uncertainty
288.15	0	1465.9	1.2
288.15	0.05	1469.8	1.2
288.15	0.0802	1471.7	1.2
288.15	0.1002	1473.1	1.2
288.15	0.1216	1474.5	1.2
288.15	0.1506	1476.6	1.2
288.15	0.1821	1479	1.2
288.15	0.21	1480.8	1.3
288.15	0.2318	1482.2	1.3
288.15	0.2508	1483.4	1.3
288.15	0.2723	1484.8	1.3
288.15	0.3012	1486.4	1.3
288.15	0.3205	1488.1	1.3
288.15	0.3534	1489.9	1.3
298.15	0	1496.7	1.2
298.15	0.0515	1500	1.2
298.15	0.0839	1502	1.2
298.15	0.1035	1503.3	1.2
298.15	0.1305	1504.9	1.2
298.15	0.1453	1505.9	1.2
298.15	0.185	1508.2	1.2
298.15	0.2073	1509.4	1.3
298.15	0.2401	1511.3	1.3
298.15	0.2727	1513.2	1.3
298.15	0.3029	1514.9	1.3
298.15	0.3177	1515.8	1.3
298.15	0.3535	1517.9	1.3

System: glycine hydrochloride + water; phases: Liquid
Fixed: Pressure, kPa = 101.3
Property: Mass density, kg/m3 (Liquid); method: Vibrating tube method
Temperature, K	Molality, mol/kg of glycine hydrochloride	Mass density, kg/m3	uncertainty
288.15	0	999.1	0.12
288.15	0.05	1001.39	0.12
288.15	0.0802	1002.72	0.13
288.15	0.1002	1003.61	0.14
288.15	0.1216	1004.54	0.15
288.15	0.1506	1005.74	0.17
288.15	0.1821	1007.14	0.19
288.15	0.21	1008.37	0.21
288.15	0.2318	1009.27	0.22
288.15	0.2508	1010.04	0.23
288.15	0.2723	1010.95	0.25
288.15	0.3012	1012.17	0.27
288.15	0.3205	1012.97	0.29
288.15	0.3534	1014.37	0.32
298.15	0	997.05	0.12
298.15	0.0515	999.35	0.12
298.15	0.0839	1000.75	0.13
298.15	0.1035	1001.57	0.14
298.15	0.1305	1002.87	0.16
298.15	0.1453	1003.51	0.16
298.15	0.185	1005.13	0.18
298.15	0.2073	1005.96	0.2
298.15	0.2401	1007.29	0.22
298.15	0.2727	1008.59	0.24
298.15	0.3029	1009.81	0.27
298.15	0.3177	1010.44	0.28
298.15	0.3535	1011.84	0.3

System: sodium (S)-2-amino-4-carboxybutanoate + water; phases: Liquid
Fixed: Temperature, K = 278.15
Fixed: Pressure, kPa = 101.3
Fixed: Frequency, MHz = 2
Property: Speed of sound, m/s (Liquid); method: Linear variable-path acoustic interferometer
Molality, mol/kg of sodium (S)-2-amino-4-carboxybutanoate	Speed of sound, m/s	uncertainty
0	1426.2	1.7
0.0467	1433.6	1.7
0.0724	1437.7	1.7
0.091	1441	1.7
0.1095	1442.8	1.7
0.1355	1446.8	1.8
0.163	1451.4	1.8
0.1906	1455.3	1.8
0.2075	1458.8	1.9
0.2251	1461.7	1.8
0.2436	1464	1.9
0.2705	1468.1	2
0.2895	1471.7	2
0.302	1473.6	2

System: sodium (S)-2-amino-4-carboxybutanoate + water; phases: Liquid
Fixed: Temperature, K = 278.15
Fixed: Pressure, kPa = 101.3
Property: Mass density, kg/m3 (Liquid); method: Pycnometric method
Molality, mol/kg of sodium (S)-2-amino-4-carboxybutanoate	Mass density, kg/m3	uncertainty
0	999.96	0.29
0.0467	1004.22	0.29
0.0724	1006.57	0.31
0.091	1008.26	0.32
0.1095	1009.79	0.35
0.1355	1012.41	0.38
0.163	1014.89	0.41
0.1906	1017.32	0.44
0.2075	1018.82	0.46
0.2251	1020.29	0.5
0.2436	1022.15	0.5
0.2705	1024.19	0.55
0.2895	1026.12	0.66
0.302	1027.42	0.69

System: sodium (S)-2-amino-4-carboxybutanoate + water; phases: Liquid
Fixed: Pressure, kPa = 101.3
Fixed: Frequency, MHz = 3
Property: Speed of sound, m/s (Liquid); method: Sing-around technique in a fixed-path interferometer
Temperature, K	Molality, mol/kg of sodium (S)-2-amino-4-carboxybutanoate	Speed of sound, m/s	uncertainty
288.15	0	1465.9	1.2
288.15	0.0469	1472.9	1.2
288.15	0.072	1476.6	1.2
288.15	0.0904	1478.9	1.2
288.15	0.1082	1481.3	1.3
288.15	0.1368	1485.6	1.3
288.15	0.1628	1489.3	1.3
288.15	0.19	1492.9	1.3
288.15	0.2089	1495.3	1.3
288.15	0.2289	1497.5	1.4
288.15	0.2441	1499.7	1.5
288.15	0.264	1503.2	1.5
288.15	0.2916	1506.7	1.4
288.15	0.316	1509	1.4
298.15	0	1496.7	1.2
298.15	0.0469	1502.5	1.2
298.15	0.072	1505.8	1.2
298.15	0.0904	1508.2	1.2
298.15	0.1082	1510.5	1.3
298.15	0.1368	1514.4	1.3
298.15	0.1628	1517.9	1.3
298.15	0.19	1521.3	1.3
298.15	0.2089	1523.6	1.3
298.15	0.2289	1525.8	1.3
298.15	0.2441	1527.8	1.4
298.15	0.264	1531.1	1.4
298.15	0.2916	1533.9	1.4
298.15	0.316	1537	1.5

System: sodium (S)-2-amino-4-carboxybutanoate + water; phases: Liquid
Fixed: Pressure, kPa = 101.3
Property: Mass density, kg/m3 (Liquid); method: Vibrating tube method
Temperature, K	Molality, mol/kg of sodium (S)-2-amino-4-carboxybutanoate	Mass density, kg/m3	uncertainty
288.15	0	999.1	0.14
288.15	0.0469	1003.34	0.14
288.15	0.072	1005.66	0.17
288.15	0.0904	1007.29	0.19
288.15	0.1082	1008.87	0.22
288.15	0.1368	1011.34	0.26
288.15	0.1628	1013.63	0.31
288.15	0.19	1016.04	0.35
288.15	0.2089	1017.65	0.37
288.15	0.2289	1019.31	0.4
288.15	0.2441	1020.63	0.43
288.15	0.264	1022.32	0.46
288.15	0.2916	1024.67	0.5
288.15	0.316	1026.69	0.53
298.15	0	997.05	0.14
298.15	0.0469	1001.22	0.14
298.15	0.072	1003.48	0.17
298.15	0.0904	1005.08	0.19
298.15	0.1082	1006.62	0.21
298.15	0.1368	1009.04	0.26
298.15	0.1628	1011.28	0.3
298.15	0.19	1013.63	0.34
298.15	0.2089	1015.21	0.36
298.15	0.2289	1016.84	0.39
298.15	0.2441	1018.13	0.42
298.15	0.264	1019.79	0.46
298.15	0.2916	1022.11	0.49
298.15	0.316	1024.08	0.52

System: 4-aminobutanoic acid + water; phases: Liquid
Fixed: Temperature, K = 278.15
Fixed: Pressure, kPa = 101.3
Fixed: Frequency, MHz = 2
Property: Speed of sound, m/s (Liquid); method: Linear variable-path acoustic interferometer
Molality, mol/kg of 4-aminobutanoic acid	Speed of sound, m/s	uncertainty
0	1426.2	1.7
0.0495	1431.4	1.7
0.0732	1433.1	1.7
0.0959	1435.4	1.7
0.1193	1436.9	1.7
0.1412	1439	1.7
0.1828	1442.1	1.7
0.2085	1444.1	1.8
0.2388	1446.9	1.8
0.2699	1449.7	1.8
0.2922	1452.3	1.8
0.3224	1455.4	1.8
0.3534	1457.4	1.8

System: 4-aminobutanoic acid + water; phases: Liquid
Fixed: Temperature, K = 278.15
Fixed: Pressure, kPa = 101.3
Property: Mass density, kg/m3 (Liquid); method: Pycnometric method
Molality, mol/kg of 4-aminobutanoic acid	Mass density, kg/m3	uncertainty
0	999.96	0.28
0.0495	1001.55	0.28
0.0732	1002.25	0.28
0.0959	1002.93	0.28
0.1193	1003.65	0.29
0.1412	1004.35	0.29
0.1828	1005.72	0.3
0.2085	1006.55	0.31
0.2388	1007.5	0.32
0.2699	1008.41	0.32
0.2922	1009.03	0.33
0.3224	1009.87	0.34
0.3534	1010.83	0.36

System: 4-aminobutanoic acid + water; phases: Liquid
Fixed: Pressure, kPa = 101.3
Fixed: Frequency, MHz = 3
Property: Speed of sound, m/s (Liquid); method: Sing-around technique in a fixed-path interferometer
Temperature, K	Molality, mol/kg of 4-aminobutanoic acid	Speed of sound, m/s	uncertainty
288.15	0	1465.9	1.2
288.15	0.0554	1470.3	1.2
288.15	0.0877	1472.6	1.2
288.15	0.0989	1473.5	1.2
288.15	0.1173	1474.9	1.2
288.15	0.1538	1479	1.3
288.15	0.1809	1481.1	1.2
288.15	0.211	1483	1.2
288.15	0.2389	1484.6	1.3
288.15	0.2692	1486.5	1.3
288.15	0.2861	1489.5	1.4
288.15	0.3181	1492.3	1.3
288.15	0.3496	1494.9	1.4
298.15	0	1496.7	1.2
298.15	0.0494	1501.1	1.2
298.15	0.0781	1503.4	1.2
298.15	0.1017	1505.1	1.2
298.15	0.1227	1506.8	1.2
298.15	0.1469	1508.9	1.3
298.15	0.1846	1511.8	1.3
298.15	0.1944	1512.8	1.3
298.15	0.245	1516.7	1.3
298.15	0.2746	1519.2	1.3
298.15	0.2975	1521.1	1.3
298.15	0.3196	1522.6	1.3
298.15	0.3477	1525	1.4

System: 4-aminobutanoic acid + water; phases: Liquid
Fixed: Pressure, kPa = 101.3
Property: Mass density, kg/m3 (Liquid); method: Vibrating tube method
Temperature, K	Molality, mol/kg of 4-aminobutanoic acid	Mass density, kg/m3	uncertainty
288.15	0	999.1	0.11
288.15	0.0554	1000.83	0.11
288.15	0.0877	1001.66	0.12
288.15	0.0989	1002.15	0.13
288.15	0.1173	1002.71	0.12
288.15	0.1538	1003.54	0.13
288.15	0.1809	1004.28	0.15
288.15	0.211	1005.14	0.17
288.15	0.2389	1006.01	0.18
288.15	0.2692	1006.87	0.19
288.15	0.2861	1007.43	0.2
288.15	0.3181	1008.36	0.23
288.15	0.3496	1009.41	0.26
298.15	0	997.05	0.11
298.15	0.0494	998.48	0.11
298.15	0.0781	999.35	0.12
298.15	0.1017	1000.09	0.12
298.15	0.1227	1000.7	0.13
298.15	0.1469	1001.41	0.14
298.15	0.1846	1002.51	0.15
298.15	0.1944	1002.74	0.14
298.15	0.245	1004.3	0.18
298.15	0.2746	1004.99	0.17
298.15	0.2975	1005.61	0.21
298.15	0.3196	1006.38	0.22
298.15	0.3477	1007.09	0.21
