Measured thermophysical data. Effect of N-acetylglycine on volumetric and acoustic behaviour of aqueous tetrabutylammonium iodide solutions at different temperatures
Source: J. Chem. Thermodyn., 2016, 10.1016/j.jct.2015.12.023
Compound 1: N-acetylglycine, C4H7NO3, InChI=1S/C4H7NO3/c1-3(6)5-2-4(7)8/h2H2,1H3,(H,5,6)(H,7,8), purity 99%
Compound 2: tetrabutylammonium iodide, C16H36IN, InChI=1S/C16H36N.HI/c1-5-9-13-17(14-10-6-2,15-11-7-3)16-12-8-4;/h5-16H2,1-4H3;1H/q+1;/p-1, purity 99.8%
Compound 3: water, H2O, InChI=1S/H2O/h1H2

System: tetrabutylammonium iodide + N-acetylglycine + water; phases: Liquid
Fixed: Pressure, kPa = 100
Property: Mass density, kg/m3 (Liquid); method: Vibrating tube method
Temperature, K	Molality, mol/kg of N-acetylglycine	Solvent: Molality, mol/kg of tetrabutylammonium iodide	Mass density, kg/m3	uncertainty
288.15	0	0.01	1001.07	2
288.15	0.02	0.01	1001.69	2
288.15	0.06007	0.01	1002.91	2
288.15	0.09982	0.01	1004.1	2
288.15	0.13961	0.01	1005.28	2
288.15	0.16982	0.01	1006.15	2
288.15	0.19872	0.01	1006.99	2
293.15	0	0.01	1000.16	2
293.15	0.02	0.01	1000.77	2
293.15	0.06007	0.01	1001.97	2
293.15	0.09982	0.01	1003.14	2
293.15	0.13961	0.01	1004.29	2
293.15	0.16982	0.01	1005.15	2
293.15	0.19872	0.01	1005.97	2
298.15	0	0.01	998.97	2
298.15	0.02	0.01	999.57	2
298.15	0.06007	0.01	1000.75	2
298.15	0.09982	0.01	1001.9	2
298.15	0.13961	0.01	1003.03	2
298.15	0.16982	0.01	1003.88	2
298.15	0.19872	0.01	1004.68	2
303.15	0	0.01	997.53	2
303.15	0.02	0.01	998.12	2
303.15	0.06007	0.01	999.28	2
303.15	0.09982	0.01	1000.41	2
303.15	0.13961	0.01	1001.53	2
303.15	0.16982	0.01	1002.36	2
303.15	0.19872	0.01	1003.15	2
308.15	0	0.01	995.95	2
308.15	0.02	0.01	996.53	2
308.15	0.06007	0.01	997.68	2
308.15	0.09982	0.01	998.79	2
308.15	0.13961	0.01	999.89	2
308.15	0.16982	0.01	1000.72	2
308.15	0.19872	0.01	1001.48	2
288.15	0	0.02	1001.64	2
288.15	0.02002	0.02	1002.25	2
288.15	0.06014	0.02	1003.46	2
288.15	0.1001	0.02	1004.67	2
288.15	0.14033	0.02	1005.89	2
288.15	0.16979	0.02	1006.79	2
288.15	0.19923	0.02	1007.69	2
293.15	0	0.02	1000.72	2
293.15	0.02002	0.02	1001.32	2
293.15	0.06014	0.02	1002.51	2
293.15	0.1001	0.02	1003.69	2
293.15	0.14033	0.02	1004.9	2
293.15	0.16979	0.02	1005.78	2
293.15	0.19923	0.02	1006.67	2
298.15	0	0.02	999.53	2
298.15	0.02002	0.02	1000.11	2
298.15	0.06014	0.02	1001.28	2
298.15	0.1001	0.02	1002.45	2
298.15	0.14033	0.02	1003.63	2
298.15	0.16979	0.02	1004.5	2
298.15	0.19923	0.02	1005.37	2
303.15	0	0.02	998.07	2
303.15	0.02002	0.02	998.65	2
303.15	0.06014	0.02	999.8	2
303.15	0.1001	0.02	1000.95	2
303.15	0.14033	0.02	1002.11	2
303.15	0.16979	0.02	1002.96	2
303.15	0.19923	0.02	1003.82	2
308.15	0	0.02	996.49	2
308.15	0.02002	0.02	997.05	2
308.15	0.06014	0.02	998.19	2
308.15	0.1001	0.02	999.32	2
308.15	0.14033	0.02	1000.47	2
308.15	0.16979	0.02	1001.31	2
308.15	0.19923	0.02	1002.15	2
288.15	0	0.03	1002.22	2
288.15	0.01992	0.03	1002.81	2
288.15	0.06001	0.03	1004.01	2
288.15	0.09836	0.03	1005.18	2
288.15	0.14026	0.03	1006.46	2
288.15	0.17053	0.03	1007.39	2
288.15	0.20084	0.03	1008.32	2.01
293.15	0	0.03	1001.29	2
293.15	0.01992	0.03	1001.87	2
293.15	0.06001	0.03	1003.05	2
293.15	0.09836	0.03	1004.19	2
293.15	0.14026	0.03	1005.45	2
293.15	0.17053	0.03	1006.36	2
293.15	0.20084	0.03	1007.27	2
298.15	0	0.03	1000.09	2
298.15	0.01992	0.03	1000.67	2
298.15	0.06001	0.03	1001.82	2
298.15	0.09836	0.03	1002.95	2
298.15	0.14026	0.03	1004.19	2
298.15	0.17053	0.03	1005.08	2
298.15	0.20084	0.03	1005.98	2
303.15	0	0.03	998.61	2
303.15	0.01992	0.03	999.18	2
303.15	0.06001	0.03	1000.32	2
303.15	0.09836	0.03	1001.43	2
303.15	0.14026	0.03	1002.64	2
303.15	0.17053	0.03	1003.53	2
303.15	0.20084	0.03	1004.42	2
308.15	0	0.03	997.02	2
308.15	0.01992	0.03	997.58	2
308.15	0.06001	0.03	998.7	2
308.15	0.09836	0.03	999.79	2
308.15	0.14026	0.03	1000.99	2
308.15	0.17053	0.03	1001.87	2
308.15	0.20084	0.03	1002.74	2
288.15	0	0.04	1002.83	2
288.15	0.01995	0.04	1003.43	2
288.15	0.06004	0.04	1004.62	2
288.15	0.10018	0.04	1005.83	2
288.15	0.13997	0.04	1007.01	2
288.15	0.16954	0.04	1007.89	2
288.15	0.20018	0.04	1008.79	2.01
293.15	0	0.04	1001.88	2
293.15	0.01995	0.04	1002.47	2
293.15	0.06004	0.04	1003.65	2
293.15	0.10018	0.04	1004.83	2
293.15	0.13997	0.04	1005.99	2
293.15	0.16954	0.04	1006.85	2
293.15	0.20018	0.04	1007.74	2
298.15	0	0.04	1000.67	2
298.15	0.01995	0.04	1001.25	2
298.15	0.06004	0.04	1002.4	2
298.15	0.10018	0.04	1003.56	2
298.15	0.13997	0.04	1004.71	2
298.15	0.16954	0.04	1005.55	2
298.15	0.20018	0.04	1006.42	2
303.15	0	0.04	999.19	2
303.15	0.01995	0.04	999.76	2
303.15	0.06004	0.04	1000.9	2
303.15	0.10018	0.04	1002.04	2
303.15	0.13997	0.04	1003.16	2
303.15	0.16954	0.04	1003.99	2
303.15	0.20018	0.04	1004.85	2
308.15	0	0.04	997.58	2
308.15	0.01995	0.04	998.14	2
308.15	0.06004	0.04	999.27	2
308.15	0.10018	0.04	1000.39	2
308.15	0.13997	0.04	1001.5	2
308.15	0.16954	0.04	1002.32	2
308.15	0.20018	0.04	1003.16	2

System: tetrabutylammonium iodide + N-acetylglycine + water; phases: Liquid
Fixed: Pressure, kPa = 100
Fixed: Frequency, MHz = 3
Property: Speed of sound, m/s (Liquid); method: Sing-around technique in a fixed-path interferometer
Temperature, K	Molality, mol/kg of N-acetylglycine	Solvent: Molality, mol/kg of tetrabutylammonium iodide	Speed of sound, m/s	uncertainty
288.15	0	0.01	1468.9	1.3
288.15	0.02	0.01	1470	1.3
288.15	0.06007	0.01	1471.8	1.3
288.15	0.09982	0.01	1473.9	1.3
288.15	0.13961	0.01	1475.6	1.3
288.15	0.16982	0.01	1477.2	1.3
288.15	0.19872	0.01	1478.6	1.3
293.15	0	0.01	1484.9	1.3
293.15	0.02	0.01	1485.8	1.3
293.15	0.06007	0.01	1487.6	1.3
293.15	0.09982	0.01	1489.4	1.3
293.15	0.13961	0.01	1491	1.3
293.15	0.16982	0.01	1492.4	1.3
293.15	0.19872	0.01	1493.6	1.3
298.15	0	0.01	1498.9	1.3
298.15	0.02	0.01	1499.8	1.3
298.15	0.06007	0.01	1501.3	1.3
298.15	0.09982	0.01	1502.9	1.3
298.15	0.13961	0.01	1504.4	1.3
298.15	0.16982	0.01	1505.6	1.3
298.15	0.19872	0.01	1506.7	1.3
303.15	0	0.01	1511.1	1.3
303.15	0.02	0.01	1511.8	1.3
303.15	0.06007	0.01	1513.2	1.3
303.15	0.09982	0.01	1514.6	1.3
303.15	0.13961	0.01	1515.9	1.3
303.15	0.16982	0.01	1516.9	1.3
303.15	0.19872	0.01	1518	1.3
308.15	0	0.01	1521.2	1.3
308.15	0.02	0.01	1521.9	1.3
308.15	0.06007	0.01	1523.1	1.3
308.15	0.09982	0.01	1524.3	1.3
308.15	0.13961	0.01	1525.5	1.3
308.15	0.16982	0.01	1526.4	1.3
308.15	0.19872	0.01	1527.3	1.3
288.15	0	0.02	1471.3	1.3
288.15	0.02002	0.02	1472.2	1.3
288.15	0.06014	0.02	1474.4	1.3
288.15	0.1001	0.02	1476.1	1.3
288.15	0.14033	0.02	1478	1.3
288.15	0.16979	0.02	1480	1.3
288.15	0.19923	0.02	1481.5	1.3
293.15	0	0.02	1487.1	1.3
293.15	0.02002	0.02	1488	1.3
293.15	0.06014	0.02	1489.9	1.3
293.15	0.1001	0.02	1491.4	1.3
293.15	0.14033	0.02	1493.2	1.3
293.15	0.16979	0.02	1494.6	1.3
293.15	0.19923	0.02	1496	1.3
298.15	0	0.02	1500.9	1.3
298.15	0.02002	0.02	1501.7	1.3
298.15	0.06014	0.02	1503.4	1.3
298.15	0.1001	0.02	1504.8	1.3
298.15	0.14033	0.02	1506.3	1.3
298.15	0.16979	0.02	1507.7	1.3
298.15	0.19923	0.02	1508.9	1.3
303.15	0	0.02	1512.9	1.3
303.15	0.02002	0.02	1513.6	1.3
303.15	0.06014	0.02	1515.1	1.3
303.15	0.1001	0.02	1516.3	1.3
303.15	0.14033	0.02	1517.7	1.3
303.15	0.16979	0.02	1518.9	1.3
303.15	0.19923	0.02	1520	1.3
308.15	0	0.02	1522.9	1.3
308.15	0.02002	0.02	1523.5	1.3
308.15	0.06014	0.02	1524.9	1.3
308.15	0.1001	0.02	1525.9	1.3
308.15	0.14033	0.02	1527.1	1.3
308.15	0.16979	0.02	1528.6	1.3
308.15	0.19923	0.02	1529.6	1.3
288.15	0	0.03	1473.6	1.3
288.15	0.01992	0.03	1474.5	1.3
288.15	0.06001	0.03	1476.4	1.3
288.15	0.09836	0.03	1478.3	1.3
288.15	0.14026	0.03	1480.3	1.3
288.15	0.17053	0.03	1481.8	1.3
288.15	0.20084	0.03	1483.2	1.3
293.15	0	0.03	1489.1	1.3
293.15	0.01992	0.03	1490	1.3
293.15	0.06001	0.03	1491.8	1.3
293.15	0.09836	0.03	1493.4	1.3
293.15	0.14026	0.03	1495.2	1.3
293.15	0.17053	0.03	1496.5	1.3
293.15	0.20084	0.03	1497.8	1.3
298.15	0	0.03	1502.8	1.3
298.15	0.01992	0.03	1503.5	1.3
298.15	0.06001	0.03	1505	1.3
298.15	0.09836	0.03	1506.6	1.3
298.15	0.14026	0.03	1508.2	1.3
298.15	0.17053	0.03	1509.4	1.3
298.15	0.20084	0.03	1510.5	1.3
303.15	0	0.03	1514.5	1.3
303.15	0.01992	0.03	1515.2	1.3
303.15	0.06001	0.03	1516.5	1.3
303.15	0.09836	0.03	1517.9	1.3
303.15	0.14026	0.03	1519.3	1.3
303.15	0.17053	0.03	1520.4	1.3
303.15	0.20084	0.03	1521.5	1.3
308.15	0	0.03	1524.4	1.3
308.15	0.01992	0.03	1525	1.3
308.15	0.06001	0.03	1526.2	1.3
308.15	0.09836	0.03	1527.4	1.3
308.15	0.14026	0.03	1528.6	1.3
308.15	0.17053	0.03	1529.6	1.3
308.15	0.20084	0.03	1530.6	1.3
288.15	0	0.04	1475.8	1.3
288.15	0.01995	0.04	1476.8	1.3
288.15	0.06004	0.04	1478.7	1.3
288.15	0.10018	0.04	1480.6	1.3
288.15	0.13997	0.04	1482.7	1.3
288.15	0.16954	0.04	1484	1.3
288.15	0.20018	0.04	1485.7	1.3
293.15	0	0.04	1491.3	1.3
293.15	0.01995	0.04	1492.1	1.3
293.15	0.06004	0.04	1493.8	1.3
293.15	0.10018	0.04	1495.6	1.3
293.15	0.13997	0.04	1497.3	1.3
293.15	0.16954	0.04	1498.5	1.3
293.15	0.20018	0.04	1499.8	1.3
298.15	0	0.04	1504.7	1.3
298.15	0.01995	0.04	1505.5	1.3
298.15	0.06004	0.04	1507	1.3
298.15	0.10018	0.04	1508.6	1.3
298.15	0.13997	0.04	1510.1	1.3
298.15	0.16954	0.04	1511.2	1.3
298.15	0.20018	0.04	1512.6	1.3
303.15	0	0.04	1516.3	1.3
303.15	0.01995	0.04	1517	1.3
303.15	0.06004	0.04	1518.3	1.3
303.15	0.10018	0.04	1519.7	1.3
303.15	0.13997	0.04	1521.1	1.3
303.15	0.16954	0.04	1522	1.3
303.15	0.20018	0.04	1523.3	1.3
308.15	0	0.04	1526	1.3
308.15	0.01995	0.04	1526.6	1.3
308.15	0.06004	0.04	1527.8	1.3
308.15	0.10018	0.04	1529	1.3
308.15	0.13997	0.04	1530.2	1.3
308.15	0.16954	0.04	1531	1.3
308.15	0.20018	0.04	1532.2	1.3

System: tetrabutylammonium iodide + water; phases: Liquid
Fixed: Pressure, kPa = 100
Property: Mass density, kg/m3 (Liquid); method: Vibrating tube method
Temperature, K	Molality, mol/kg of tetrabutylammonium iodide	Mass density, kg/m3	uncertainty
288.15	0.01	1001.07	2
293.15	0.01	1000.16	2
298.15	0.01	998.97	2
303.15	0.01	997.53	2
308.15	0.01	995.95	2
288.15	0.02	1001.64	2
293.15	0.02	1000.72	2
298.15	0.02	999.53	2
303.15	0.02	998.07	2
308.15	0.02	996.49	2
288.15	0.03	1002.22	2
293.15	0.03	1001.29	2
298.15	0.03	1000.09	2
303.15	0.03	998.61	2
308.15	0.03	997.02	2
288.15	0.04	1002.83	2
293.15	0.04	1001.88	2
298.15	0.04	1000.67	2
303.15	0.04	999.19	2
308.15	0.04	997.58	2

System: tetrabutylammonium iodide + water; phases: Liquid
Fixed: Pressure, kPa = 100
Fixed: Frequency, MHz = 3
Property: Speed of sound, m/s (Liquid); method: Sing-around technique in a fixed-path interferometer
Temperature, K	Molality, mol/kg of tetrabutylammonium iodide	Speed of sound, m/s	uncertainty
288.15	0.01	1468.9	1.3
293.15	0.01	1484.9	1.3
298.15	0.01	1498.9	1.3
303.15	0.01	1511.1	1.3
308.15	0.01	1521.2	1.3
288.15	0.02	1471.3	1.3
293.15	0.02	1487.1	1.3
298.15	0.02	1500.9	1.3
303.15	0.02	1512.9	1.3
308.15	0.02	1522.9	1.3
288.15	0.03	1473.6	1.3
293.15	0.03	1489.1	1.3
298.15	0.03	1502.8	1.3
303.15	0.03	1514.5	1.3
308.15	0.03	1524.4	1.3
288.15	0.04	1475.8	1.3
293.15	0.04	1491.3	1.3
298.15	0.04	1504.7	1.3
303.15	0.04	1516.3	1.3
308.15	0.04	1526	1.3
