Measured thermophysical data. Thermophysical properties of liquid Co measured by electromagnetic levitation technique in a static magnetic field
Source: J. Chem. Thermodyn., 2018, 10.1016/j.jct.2018.02.004
Compound 1: cobalt, Co, InChI=1S/Co, purity 99.8%

System: cobalt; phases: Metastable liquid
Fixed: Pressure, kPa = 101.325
Property: Mass density, kg/m3 (Metastable liquid); method: Levitation Method
Temperature, K	Mass density, kg/m3	uncertainty
1757	7785	90
1807	7770	85
1816	7757	85
1841	7747	84
1862	7743	86
1879	7718	84
1901	7718	86
1911	7674	88
2001	7668	84

System: cobalt; phases: Liquid
Fixed: Pressure, kPa = 101.325
Property: Molar heat capacity at constant pressure, J/K/mol (Liquid); method: Levitation methods
Temperature, K	Molar heat capacity at constant pressure, J/K/mol	uncertainty
2023	40.8	3.1
2016	41	3.1
1981	39.9	3
1954	39.9	3
1919	41.1	3.2
1912	41.3	3.1
1888	41.3	3.1
1861	41.8	3.6
1833	41.4	3.2
1779	43.2	3.8

System: cobalt; phases: Liquid
Fixed: Pressure, kPa = 101.325
Property: Thermal conductivity, W/m/K (Liquid); method: Levitation methods
Temperature, K	Thermal conductivity, W/m/K	uncertainty
1903	43.1	4.7
1896	46.8	8.1
1883	40.9	3.8
1871	36	29.3
1870	41.6	28.2
1859	41.9	21.8
1857	33.3	18.4
1856	31.4	12.6
1854	35.3	10.6
1837	35.6	18.6
1834	25	18
1834	38.4	8.4
1819	32.6	4.8
1811	33.9	6.6
1810	34.4	4.2
1793	34.1	6.4
1783	35.4	3.1
