Measured thermophysical data. Low-temperature structural phase transition in deuterated and protonated lithium acetate dihydrate
Source: J. Chem. Thermodyn., 2010, 10.1016/j.jct.2010.03.006
Compound 1: lithium ethanoate dihydrate, C2H7LiO4, InChI=1S/C2H4O2.Li.2H2O/c1-2(3)4;;;/h1H3,(H,3,4);;2*1H2/q;+1;;/p-1
Compound 2: lithium acetate-d3 di(hydrate-d2), C2D7LiO4, InChI=1S/C2H4O2.Li.2H2O/c1-2(3)4;;;/h1H3,(H,3,4);;2*1H2/q;+1;;/p-1/i1D3;;;/hD4

System: lithium ethanoate dihydrate; phases: Crystal 2, Crystal 1, Gas
Property: Triple point temperature, K (Crystal 2); method: Quantum Design PPSM 6000
Triple point temperature, K	uncertainty
12	0.8

System: lithium ethanoate dihydrate; phases: Crystal 2
Fixed: Pressure, kPa = 101.325
Property: Molar heat capacity at constant pressure, J/K/mol (Crystal 2); method: Quantum Design PPSM 6000
Temperature, K	Molar heat capacity at constant pressure, J/K/mol	uncertainty
2.0486	0.0298	0.0054
5.175	0.816	0.058
10.376	4.76	0.33
11.209	5.68	0.4

System: lithium ethanoate dihydrate; phases: Crystal 1
Fixed: Pressure, kPa = 101.325
Property: Molar heat capacity at constant pressure, J/K/mol (Crystal 1); method: Quantum Design PPSM 6000
Temperature, K	Molar heat capacity at constant pressure, J/K/mol	uncertainty
12.107	3.866	0.269
14.688	5.146	0.359
17.139	6.554	0.457
19.997	8.396	0.585
25.227	12.79	0.89
29.658	15.971	1.112
35.567	21.287	1.483
39.992	25.441	1.772
45.9	31.078	2.164
54.759	39.41	2.74

System: lithium acetate-d3 di(hydrate-d2); phases: Crystal 2, Crystal 1, Gas
Property: Triple point temperature, K (Crystal 2); method: Quantum Design PPSM 6000
Triple point temperature, K	uncertainty
17.5	0.8

System: lithium acetate-d3 di(hydrate-d2); phases: Crystal 2
Fixed: Pressure, kPa = 101.325
Property: Molar heat capacity at constant pressure, J/K/mol (Crystal 2); method: Quantum Design PPSM 6000
Temperature, K	Molar heat capacity at constant pressure, J/K/mol	uncertainty
2.034	0.00679	0.00143
5.11	0.214	0.017
10.092	3.01	0.21
12.769	6.656	0.465
14.683	10.76	0.75
16.22	15.88	1.11
17.319	17.4	1.2

System: lithium acetate-d3 di(hydrate-d2); phases: Crystal
Fixed: Pressure, kPa = 101.325
Property: Molar heat capacity at constant pressure, J/K/mol (Crystal); method: Quantum Design PPSM 6000
Temperature, K	Molar heat capacity at constant pressure, J/K/mol	uncertainty
18.118	10.088	0.703
20.803	10.71	0.75
23.864	12.65	0.88
26.545	14.761	1.028
28.84	16.71	1.16
30.369	18.0879	1.2598
