Measured thermophysical data. Measurement and correlation of isobaric vapour-liquid equilibria for binary systems of 1-(methoxymethoxy)-2-methyl-propane with 1-butanol and isobutanol at 101.33 kPa
Source: J. Chem. Thermodyn., 2017, 10.1016/j.jct.2017.08.006
Compound 1: butan-1-ol, C4H10O, InChI=1S/C4H10O/c1-2-3-4-5/h5H,2-4H2,1H3, purity 99.7%
Compound 2: 2-methyl-1-propanol, C4H10O, InChI=1S/C4H10O/c1-4(2)3-5/h4-5H,3H2,1-2H3, purity 99.7%
Compound 3: 1-(methoxymethoxy)-2-methylpropane, C6H14O2, InChI=1S/C6H14O2/c1-6(2)4-8-5-7-3/h6H,4-5H2,1-3H3

System: butan-1-ol; phases: Liquid
Property: Mass density, kg/m3 (Liquid); method: Pycnometric method
Temperature, K	Pressure, kPa	Mass density, kg/m3	uncertainty
293.15	101.33	809.5	1

System: butan-1-ol; phases: Liquid
Property: Refractive index (Na D-line) (Liquid); method: Standard Abbe refractometry
Temperature, K	Pressure, kPa	Refractive index (Na D-line)	uncertainty
298.15	101.33	1.3971	0.0007

System: butan-1-ol; phases: Liquid, Gas
Property: Boiling temperature at pressure P, K (Liquid); method: Ebulliometric method (Recirculating still)
Pressure, kPa	Boiling temperature at pressure P, K	uncertainty
5.01	325.22	0.19
7.98	333.51	0.16
13.37	343.28	0.13
20.08	351.59	0.12
26.78	357.81	0.11
40.61	367.34	0.11
53.45	374	0.1
79.98	384.37	0.1
101	390.75	0.1
101.33	390.9	0.1

System: 2-methyl-1-propanol; phases: Liquid
Property: Mass density, kg/m3 (Liquid); method: Pycnometric method
Temperature, K	Pressure, kPa	Mass density, kg/m3	uncertainty
293.15	101.33	801.8	1

System: 2-methyl-1-propanol; phases: Liquid
Property: Refractive index (Na D-line) (Liquid); method: Standard Abbe refractometry
Temperature, K	Pressure, kPa	Refractive index (Na D-line)	uncertainty
298.15	101.33	1.3939	0.0007

System: 2-methyl-1-propanol; phases: Liquid, Gas
Property: Vapor or sublimation pressure, kPa (Liquid); method: Ebulliometric method (Recirculating still)
Temperature, K	Vapor or sublimation pressure, kPa	uncertainty
381.1	101.33	0.51

System: 1-(methoxymethoxy)-2-methylpropane; phases: Liquid
Property: Mass density, kg/m3 (Liquid); method: Pycnometric method
Temperature, K	Pressure, kPa	Mass density, kg/m3	uncertainty
293.15	101.33	832.5	1

System: 1-(methoxymethoxy)-2-methylpropane; phases: Liquid
Fixed: Pressure, kPa = 101.33
Property: Refractive index (Na D-line) (Liquid); method: Standard Abbe refractometry
Temperature, K	Refractive index (Na D-line)	uncertainty
298.15	1.3827	0.0007
293.15	1.385	0.0007

System: 1-(methoxymethoxy)-2-methylpropane; phases: Liquid, Gas
Property: Boiling temperature at pressure P, K (Liquid); method: Ebulliometric method (Recirculating still)
Pressure, kPa	Boiling temperature at pressure P, K	uncertainty
5.01	306.6	0.18
9.98	320	0.16
14.69	328.38	0.13
19.75	335.32	0.12
26.67	342.75	0.11
40.02	353.72	0.11
53.72	362.34	0.11
65.01	368.3	0.1
79.21	374.66	0.1
90	379.01	0.1
101.33	383.13	0.1
116.34	388.18	0.1
120	389.36	0.1
125.01	390.87	0.1
130	392.42	0.1

System: butan-1-ol + 1-(methoxymethoxy)-2-methylpropane; phases: Liquid, Gas
Fixed: Pressure, kPa = 101.33
Property: Boiling temperature at pressure P, K (Liquid); method: Ebulliometric method (Recirculating still)
Mole fraction of butan-1-ol	Boiling temperature at pressure P, K	uncertainty
0	383.13	0.13
0.0185	382.66	0.14
0.0847	381.97	0.13
0.1544	381.48	0.13
0.2348	381.21	0.13
0.3181	381.26	0.13
0.394	381.43	0.13
0.4762	381.9	0.13
0.5458	382.45	0.13
0.6078	383.04	0.13
0.6693	383.71	0.14
0.7237	384.43	0.14
0.7702	385.19	0.14
0.8166	386.04	0.15
0.858	386.88	0.15
0.8916	387.62	0.16
0.9197	388.35	0.16
0.9477	389.13	0.16
0.97	389.67	0.17
0.9967	390.6	0.17
1	390.9	0.13

System: butan-1-ol + 1-(methoxymethoxy)-2-methylpropane; phases: Gas, Liquid
Fixed: Pressure, kPa = 101.33
Property: Mole fraction of butan-1-ol (Gas); method: Chromatography
Mole fraction of butan-1-ol	Mole fraction of butan-1-ol	uncertainty
0	0	
0.0185	0.0234	0.006
0.0847	0.1003	0.0058
0.1544	0.1707	0.0055
0.2348	0.2418	0.0055
0.3181	0.3067	0.0055
0.394	0.3607	0.0057
0.4762	0.4179	0.0059
0.5458	0.4668	0.0063
0.6078	0.5144	0.0065
0.6693	0.5657	0.0063
0.7237	0.6127	0.0063
0.7702	0.6601	0.0063
0.8166	0.7089	0.0064
0.858	0.7597	0.0067
0.8916	0.8056	0.0069
0.9197	0.8455	0.0074
0.9477	0.8932	0.008
0.97	0.9343	0.0088
0.9967	0.9917	0.0081
1	1	

System: 2-methyl-1-propanol + 1-(methoxymethoxy)-2-methylpropane; phases: Liquid, Gas
Fixed: Pressure, kPa = 101.33
Property: Boiling temperature at pressure P, K (Liquid); method: Ebulliometric method (Recirculating still)
Mole fraction of 2-methyl-1-propanol	Boiling temperature at pressure P, K	uncertainty
0	383.13	0.13
0.0234	382.31	0.18
0.0647	381.35	0.16
0.1078	380.44	0.15
0.165	379.63	0.14
0.2233	378.87	0.14
0.2821	378.37	0.13
0.3408	377.99	0.13
0.3989	377.75	0.13
0.4591	377.62	0.13
0.5144	377.56	0.13
0.567	377.61	0.13
0.6222	377.7	0.13
0.6724	377.85	0.13
0.6725	377.87	0.13
0.7047	377.99	0.13
0.7332	378.11	0.13
0.7685	378.32	0.13
0.7799	378.42	0.13
0.8209	378.74	0.13
0.8653	379.18	0.14
0.9057	379.64	0.14
0.9349	380	0.14
0.9627	380.39	0.15
0.9907	380.84	0.15
1	381.1	0.13

System: 2-methyl-1-propanol + 1-(methoxymethoxy)-2-methylpropane; phases: Gas, Liquid
Fixed: Pressure, kPa = 101.33
Property: Mole fraction of 2-methyl-1-propanol (Gas); method: Chromatography
Mole fraction of 2-methyl-1-propanol	Mole fraction of 2-methyl-1-propanol	uncertainty
0	0	
0.0234	0.0389	0.0086
0.0647	0.1	0.008
0.1078	0.1543	0.0074
0.165	0.2199	0.0072
0.2233	0.2816	0.0071
0.2821	0.337	0.0069
0.3408	0.3859	0.0069
0.3989	0.4322	0.007
0.4591	0.4776	0.0072
0.5144	0.5191	0.0072
0.567	0.5581	0.007
0.6222	0.6011	0.0069
0.6724	0.6413	0.0067
0.6725	0.6407	0.0067
0.7047	0.6664	0.0067
0.7332	0.691	0.0068
0.7685	0.7224	0.0068
0.7799	0.7342	0.007
0.8209	0.7749	0.0071
0.8653	0.8231	0.0072
0.9057	0.869	0.0073
0.9349	0.905	0.0078
0.9627	0.944	0.0083
0.9907	0.9855	0.0084
1	1	
