Measured thermophysical data. (Liquid + liquid) equilibria for mixtures of dodecane and ethanol with alkylsulfate-based ionic liquids
Source: J. Chem. Thermodyn., 2015, 10.1016/j.jct.2014.09.009
Compound 1: ethanol, C2H6O, InChI=1S/C2H6O/c1-2-3/h3H,2H2,1H3, purity 99.9%
Compound 2: ethyl acetate, C4H8O2, InChI=1S/C4H8O2/c1-3-6-4(2)5/h3H2,1-2H3, purity 99.9%
Compound 3: propan-2-ol, C3H8O, InChI=1S/C3H8O/c1-3(2)4/h3-4H,1-2H3, purity 99.9%
Compound 4: 1-butyl-3-methylimidazolium methyl sulfate, C9H18N2O4S, InChI=1S/C8H15N2.CH4O4S/c1-3-4-5-10-7-6-9(2)8-10;1-5-6(2,3)4/h6-8H,3-5H2,1-2H3;1H3,(H,2,3,4)/q+1;/p-1, purity 98%
Compound 5: 1-ethyl-3-methylimidazolium methylsulfate, C7H14N2O4S, InChI=1S/C6H11N2.CH4O4S/c1-3-8-5-4-7(2)6-8;1-5-6(2,3)4/h4-6H,3H2,1-2H3;1H3,(H,2,3,4)/q+1;/p-1, purity 98%
Compound 6: 1,3-dimethylimidazolium methylsulfate, C6H12N2O4S, InChI=1S/C5H9N2.CH4O4S/c1-6-3-4-7(2)5-6;1-5-6(2,3)4/h3-5H,1-2H3;1H3,(H,2,3,4)/q+1;/p-1, purity 97%
Compound 7: dodecane, C12H26, InChI=1S/C12H26/c1-3-5-7-9-11-12-10-8-6-4-2/h3-12H2,1-2H3, purity 99%

System: ethanol; phases: Liquid
Property: Mass density, kg/m3 (Liquid); method: Vibrating tube method
Temperature, K	Pressure, kPa	Mass density, kg/m3	uncertainty
298.15	101.325	785.1	2.1

System: ethanol; phases: Liquid
Property: Refractive index (Na D-line) (Liquid); method: Standard Abbe refractometry
Temperature, K	Pressure, kPa	Refractive index (Na D-line)	uncertainty
298.15	101.325	1.35932	0.00035

System: ethyl acetate; phases: Liquid
Property: Mass density, kg/m3 (Liquid); method: Vibrating tube method
Temperature, K	Pressure, kPa	Mass density, kg/m3	uncertainty
298.15	101.325	894.5	2.1

System: ethyl acetate; phases: Liquid
Property: Refractive index (Na D-line) (Liquid); method: Standard Abbe refractometry
Temperature, K	Pressure, kPa	Refractive index (Na D-line)	uncertainty
298.15	101.325	1.36975	0.00035

System: propan-2-ol; phases: Liquid
Property: Mass density, kg/m3 (Liquid); method: Vibrating tube method
Temperature, K	Pressure, kPa	Mass density, kg/m3	uncertainty
298.15	101.325	780.9	2.1

System: propan-2-ol; phases: Liquid
Property: Refractive index (Na D-line) (Liquid); method: Standard Abbe refractometry
Temperature, K	Pressure, kPa	Refractive index (Na D-line)	uncertainty
298.15	101.325	1.37499	0.00035

System: 1-butyl-3-methylimidazolium methyl sulfate; phases: Liquid
Property: Mass density, kg/m3 (Liquid); method: Vibrating tube method
Temperature, K	Pressure, kPa	Mass density, kg/m3	uncertainty
298.15	101.325	1212.3	2.5

System: 1-butyl-3-methylimidazolium methyl sulfate; phases: Liquid
Property: Refractive index (Na D-line) (Liquid); method: Standard Abbe refractometry
Temperature, K	Pressure, kPa	Refractive index (Na D-line)	uncertainty
298.15	101.325	1.47948	0.00053

System: 1-ethyl-3-methylimidazolium methylsulfate; phases: Liquid
Property: Mass density, kg/m3 (Liquid); method: Vibrating tube method
Temperature, K	Pressure, kPa	Mass density, kg/m3	uncertainty
298.15	101.325	1277.4	2.6

System: 1-ethyl-3-methylimidazolium methylsulfate; phases: Liquid
Property: Refractive index (Na D-line) (Liquid); method: Standard Abbe refractometry
Temperature, K	Pressure, kPa	Refractive index (Na D-line)	uncertainty
298.15	101.325	1.479	0.0005

System: 1,3-dimethylimidazolium methylsulfate; phases: Liquid
Property: Mass density, kg/m3 (Liquid); method: Vibrating tube method
Temperature, K	Pressure, kPa	Mass density, kg/m3	uncertainty
298.15	101.325	1327.3	3.8

System: 1,3-dimethylimidazolium methylsulfate; phases: Liquid
Property: Refractive index (Na D-line) (Liquid); method: Standard Abbe refractometry
Temperature, K	Pressure, kPa	Refractive index (Na D-line)	uncertainty
298.15	101.325	1.48276	0.00069

System: dodecane; phases: Liquid
Property: Mass density, kg/m3 (Liquid); method: Vibrating tube method
Temperature, K	Pressure, kPa	Mass density, kg/m3	uncertainty
298.15	101.325	745.2	2.1

System: dodecane; phases: Liquid
Property: Refractive index (Na D-line) (Liquid); method: Standard Abbe refractometry
Temperature, K	Pressure, kPa	Refractive index (Na D-line)	uncertainty
298.15	101.325	1.41992	0.0004

System: ethanol + dodecane + 1,3-dimethylimidazolium methylsulfate; phases: Liquid mixture 1, Liquid mixture 2
Fixed: Pressure, kPa = 101
Property: Mole fraction of dodecane (Liquid mixture 1); method: Chromatography
Property: Mole fraction of dodecane (Liquid mixture 2); method: Chromatography
Property: Mole fraction of ethanol (Liquid mixture 2); method: Chromatography
Temperature, K	Mole fraction of ethanol	Mole fraction of dodecane	uncertainty	Mole fraction of dodecane	uncertainty	Mole fraction of ethanol	uncertainty
298.15	0.003	0.997	0.003	0.014	0.01	0.106	
298.15	0.004	0.996	0.004	0.015	0.01	0.203	
298.15	0.004	0.996	0.004	0.021	0.01	0.297	
298.15	0.004	0.996	0.004	0.022	0.01	0.3	
298.15	0.005	0.995	0.005	0.027	0.01	0.326	
298.15	0.006	0.994	0.006	0.03	0.01	0.418	
298.15	0.006	0.994	0.006	0.03	0.01	0.487	
298.15	0.006	0.994	0.006	0.03	0.01	0.523	
298.15	0.007	0.993	0.007	0.033	0.01	0.579	
298.15	0.007	0.992	0.008	0.044	0.01	0.645	
298.15	0.008	0.991	0.009	0.051	0.01	0.712	
298.15	0.008	0.991	0.009	0.058	0.01	0.789	
298.15	0.009	0.99	0.01	0.068	0.01	0.853	
313.15	0.004	0.996	0.004	0.013	0.01	0.213	
313.15	0.004	0.996	0.004	0.023	0.01	0.308	
313.15	0.005	0.995	0.005	0.028	0.01	0.334	
313.15	0.006	0.994	0.006	0.032	0.01	0.426	
313.15	0.006	0.994	0.006	0.033	0.01	0.497	
313.15	0.006	0.994	0.006	0.034	0.01	0.535	
313.15	0.007	0.993	0.007	0.034	0.01	0.591	
313.15	0.008	0.992	0.008	0.046	0.01	0.662	
313.15	0.009	0.991	0.009	0.052	0.01	0.719	
313.15	0.009	0.991	0.009	0.059	0.01	0.798	
313.15	0.01	0.99	0.01	0.07	0.01	0.869	

System: ethanol + dodecane + 1-ethyl-3-methylimidazolium methylsulfate; phases: Liquid mixture 2, Liquid mixture 1
Fixed: Temperature, K = 298.15
Fixed: Pressure, kPa = 101
Property: Mole fraction of dodecane (Liquid mixture 2); method: Chromatography
Property: Mole fraction of dodecane (Liquid mixture 1); method: Chromatography
Property: Mole fraction of ethanol (Liquid mixture 1); method: Chromatography
Mole fraction of ethanol	Mole fraction of dodecane	uncertainty	Mole fraction of dodecane	uncertainty	Mole fraction of ethanol	uncertainty
0.043	0.018	0.01	0.998	0.002	0.002	
0.08	0.024	0.01	0.998	0.002	0.002	
0.134	0.026	0.01	0.997	0.003	0.003	
0.221	0.028	0.01	0.995	0.005	0.005	
0.277	0.033	0.01	0.995	0.005	0.005	
0.298	0.035	0.01	0.995	0.005	0.005	
0.38	0.038	0.01	0.994	0.006	0.006	
0.436	0.04	0.01	0.993	0.007	0.007	
0.503	0.051	0.01	0.993	0.007	0.007	
0.602	0.063	0.01	0.991	0.009	0.008	
0.689	0.068	0.01	0.991	0.009	0.008	
0.773	0.073	0.01	0.99	0.01	0.009	
0.843	0.081	0.01	0.99	0.01	0.009	

System: ethanol + dodecane + 1-butyl-3-methylimidazolium methyl sulfate; phases: Liquid mixture 1, Liquid mixture 2
Fixed: Temperature, K = 298.15
Fixed: Pressure, kPa = 101
Property: Mole fraction of dodecane (Liquid mixture 1); method: Chromatography
Property: Mole fraction of dodecane (Liquid mixture 2); method: Chromatography
Property: Mole fraction of ethanol (Liquid mixture 2); method: Chromatography
Mole fraction of ethanol	Mole fraction of dodecane	uncertainty	Mole fraction of dodecane	uncertainty	Mole fraction of ethanol	uncertainty
0.004	0.996	0.004	0.016	0.01	0.086	
0.005	0.995	0.005	0.019	0.01	0.15	
0.006	0.994	0.006	0.024	0.01	0.219	
0.007	0.993	0.007	0.031	0.01	0.295	
0.007	0.993	0.007	0.044	0.01	0.383	
0.007	0.993	0.007	0.053	0.01	0.425	
0.008	0.992	0.008	0.062	0.01	0.523	
0.008	0.991	0.009	0.068	0.01	0.583	
0.009	0.99	0.01	0.072	0.01	0.653	
0.01	0.989	0.01	0.079	0.01	0.728	
0.011	0.988	0.01	0.103	0.01	0.809	
