Measured thermophysical data. (p,Vm,T) measurements of (cyclohexane + nonane) at temperatures from 298.15 K to 328.15 K and at pressures up to 40 MPa
Source: J. Chem. Thermodyn., 2007, 10.1016/j.jct.2007.04.005
Compound 1: nonane, C9H20, InChI=1S/C9H20/c1-3-5-7-9-8-6-4-2/h3-9H2,1-2H3, purity 99%
Compound 2: cyclohexane, C6H12, InChI=1S/C6H12/c1-2-4-6-5-3-1/h1-6H2, purity 99.7%

System: cyclohexane + nonane; phases: Liquid
Fixed: Pressure, kPa = 101
Property: Mass density, kg/m3 (Liquid); method: VIBTUB:UFactor:4
Temperature, K	Mole fraction of cyclohexane	Mass density, kg/m3	uncertainty
298.15	0	713.86	0.67
298.15	0.10224	717.19	0.65
298.15	0.15477	719.05	0.64
298.15	0.20093	720.75	0.64
298.15	0.25907	723.01	0.63
298.15	0.33064	726.01	0.61
298.15	0.40032	729.17	0.6
298.15	0.4596	732.07	0.59
298.15	0.53209	735.92	0.58
298.15	0.61196	740.61	0.57
298.15	0.66487	744.01	0.56
298.15	0.7224	748.02	0.55
298.15	0.80475	754.4	0.53
298.15	0.86863	759.98	0.52
298.15	0.94051	767.1	0.5
298.15	1	773.8	0.49
308.15	0	706.11	0.68
308.15	0.10224	709.37	0.66
308.15	0.15477	711.18	0.66
308.15	0.20093	712.84	0.65
308.15	0.25907	715.05	0.64
308.15	0.33064	717.98	0.63
308.15	0.40032	721.05	0.61
308.15	0.4596	723.89	0.6
308.15	0.53209	727.62	0.59
308.15	0.61196	732.19	0.58
308.15	0.66487	735.49	0.57
308.15	0.7224	739.39	0.56
308.15	0.80475	745.58	0.54
308.15	0.86863	751	0.53
308.15	0.94051	757.89	0.52
308.15	1	764.38	0.5
318.15	0	698.48	0.69
318.15	0.10224	701.67	0.67
318.15	0.15477	703.43	0.67
318.15	0.20093	705.04	0.66
318.15	0.25907	707.2	0.65
318.15	0.33064	710.05	0.64
318.15	0.40032	713.04	0.62
318.15	0.4596	715.79	0.62
318.15	0.53209	719.42	0.6
318.15	0.61196	723.86	0.59
318.15	0.66487	727.05	0.58
318.15	0.7224	730.84	0.57
318.15	0.80475	736.83	0.56
318.15	0.86863	742.07	0.54
318.15	0.94051	748.72	0.53
318.15	1	754.99	0.52
328.15	0	690.88	0.7
328.15	0.10224	693.98	0.68
328.15	0.15477	695.7	0.68
328.15	0.20093	697.27	0.67
328.15	0.25907	699.37	0.66
328.15	0.33064	702.13	0.65
328.15	0.40032	705.03	0.64
328.15	0.4596	707.71	0.63
328.15	0.53209	711.23	0.62
328.15	0.61196	715.53	0.6
328.15	0.66487	718.62	0.59
328.15	0.7224	722.28	0.58
328.15	0.80475	728.07	0.57
328.15	0.86863	733.12	0.56
328.15	0.94051	739.53	0.54
328.15	1	745.55	0.53

System: cyclohexane + nonane; phases: Liquid
Property: Mass density, kg/m3 (Liquid); method: VIBTUB:UFactor:4
Temperature, K	Mole fraction of cyclohexane	Pressure, kPa	Mass density, kg/m3	uncertainty
298.15	0	100	713.6	0.7
298.15	0	2130	715.2	0.8
298.15	0	4150	716.8	0.9
298.15	0	6180	718.4	0.9
298.15	0	8210	719.9	1
298.15	0	10230	721.4	1.1
298.15	0	11250	722.2	1.2
298.15	0	12260	722.9	1.2
298.15	0	14290	724.4	1.3
298.15	0	16310	725.8	1.4
298.15	0	18340	727.2	1.4
298.15	0	20370	728.6	1.5
298.15	0	22390	730	1.6
298.15	0	24420	731.3	1.7
298.15	0	26450	732.6	1.7
298.15	0	28470	733.9	1.8
298.15	0	29490	734.5	1.9
298.15	0	30500	735.1	1.9
298.15	0	32530	736.4	2
298.15	0	34550	737.6	2
298.15	0	36580	738.8	2.1
298.15	0	38600	740	2.2
298.15	0	39620	740.6	2.2
298.15	0.09303	100	716.6	0.7
298.15	0.09303	2130	718.2	0.8
298.15	0.09303	4150	719.8	0.8
298.15	0.09303	6180	721.4	0.9
298.15	0.09303	8210	722.9	1
298.15	0.09303	10230	724.4	1.1
298.15	0.09303	11250	725.2	1.1
298.15	0.09303	12260	725.9	1.2
298.15	0.09303	14290	727.4	1.3
298.15	0.09303	16310	728.8	1.3
298.15	0.09303	18340	730.2	1.4
298.15	0.09303	20370	731.6	1.5
298.15	0.09303	22390	732.9	1.6
298.15	0.09303	24420	734.2	1.6
298.15	0.09303	26450	735.6	1.7
298.15	0.09303	28470	736.9	1.8
298.15	0.09303	29490	737.5	1.8
298.15	0.09303	30500	738.1	1.9
298.15	0.09303	32530	739.4	1.9
298.15	0.09303	34550	740.7	2
298.15	0.09303	36580	741.8	2.1
298.15	0.09303	38600	743	2.2
298.15	0.09303	39620	743.6	2.2
298.15	0.20087	100	720.5	0.7
298.15	0.20087	2130	722.2	0.7
298.15	0.20087	4150	723.8	0.8
298.15	0.20087	6180	725.4	0.9
298.15	0.20087	8210	726.9	1
298.15	0.20087	10230	728.5	1.1
298.15	0.20087	11250	729.2	1.1
298.15	0.20087	12260	730	1.1
298.15	0.20087	14290	731.5	1.2
298.15	0.20087	16310	732.9	1.3
298.15	0.20087	18340	734.3	1.4
298.15	0.20087	20370	735.7	1.5
298.15	0.20087	22390	737.1	1.5
298.15	0.20087	24420	738.4	1.6
298.15	0.20087	26450	739.8	1.7
298.15	0.20087	28470	741.1	1.8
298.15	0.20087	29490	741.7	1.8
298.15	0.20087	30500	742.3	1.8
298.15	0.20087	32530	743.6	1.9
298.15	0.20087	34550	744.8	2
298.15	0.20087	36580	746	2
298.15	0.20087	38600	747.2	2.1
298.15	0.20087	39620	747.8	2.1
298.15	0.30514	100	724.8	0.6
298.15	0.30514	2130	726.5	0.7
298.15	0.30514	4150	728.1	0.8
298.15	0.30514	6180	729.7	0.9
298.15	0.30514	8210	731.2	1
298.15	0.30514	10230	732.8	1
298.15	0.30514	11250	733.5	1.1
298.15	0.30514	12260	734.3	1.1
298.15	0.30514	14290	735.8	1.2
298.15	0.30514	16310	737.2	1.3
298.15	0.30514	18340	738.6	1.3
298.15	0.30514	20370	740	1.4
298.15	0.30514	22390	741.4	1.5
298.15	0.30514	24420	742.7	1.6
298.15	0.30514	26450	744.1	1.6
298.15	0.30514	28470	745.3	1.7
298.15	0.30514	29490	746	1.8
298.15	0.30514	30500	746.6	1.8
298.15	0.30514	32530	747.9	1.9
298.15	0.30514	34550	749.1	1.9
298.15	0.30514	36580	750.3	2
298.15	0.30514	38600	751.5	2.1
298.15	0.30514	39620	752.1	2.1
298.15	0.41704	100	729.9	0.6
298.15	0.41704	2130	731.5	0.7
298.15	0.41704	4150	733.1	0.8
298.15	0.41704	6180	734.7	0.9
298.15	0.41704	8210	736.3	0.9
298.15	0.41704	10230	737.9	1
298.15	0.41704	11250	738.6	1.1
298.15	0.41704	12260	739.4	1.1
298.15	0.41704	14290	740.9	1.2
298.15	0.41704	16310	742.3	1.2
298.15	0.41704	18340	743.7	1.3
298.15	0.41704	20370	745.1	1.4
298.15	0.41704	22390	746.5	1.5
298.15	0.41704	24420	747.9	1.5
298.15	0.41704	26450	749.2	1.6
298.15	0.41704	28470	750.5	1.7
298.15	0.41704	29490	751.1	1.7
298.15	0.41704	30500	751.8	1.7
298.15	0.41704	32530	753	1.8
298.15	0.41704	34550	754.3	1.9
298.15	0.41704	36580	755.5	1.9
298.15	0.41704	38600	756.7	2
298.15	0.41704	39620	757.3	2.1
298.15	0.51199	100	734.6	0.6
298.15	0.51199	2130	736.2	0.7
298.15	0.51199	4150	737.8	0.8
298.15	0.51199	6180	739.5	0.8
298.15	0.51199	8210	741	0.9
298.15	0.51199	10230	742.5	1
298.15	0.51199	11250	743.3	1
298.15	0.51199	12260	744.1	1.1
298.15	0.51199	14290	745.5	1.1
298.15	0.51199	16310	747	1.2
298.15	0.51199	18340	748.4	1.3
298.15	0.51199	20370	749.8	1.4
298.15	0.51199	22390	751.3	1.4
298.15	0.51199	24420	752.6	1.5
298.15	0.51199	26450	753.9	1.6
298.15	0.51199	28470	755.2	1.6
298.15	0.51199	29490	755.8	1.7
298.15	0.51199	30500	756.5	1.7
298.15	0.51199	32530	757.7	1.8
298.15	0.51199	34550	759	1.8
298.15	0.51199	36580	760.2	1.9
298.15	0.51199	38600	761.4	2
298.15	0.51199	39620	762	2
298.15	0.59958	100	739.8	0.6
298.15	0.59958	2130	741.4	0.7
298.15	0.59958	4150	743.1	0.7
298.15	0.59958	6180	744.7	0.8
298.15	0.59958	8210	746.3	0.9
298.15	0.59958	10230	747.9	1
298.15	0.59958	11250	748.6	1
298.15	0.59958	12260	749.4	1
298.15	0.59958	14290	750.9	1.1
298.15	0.59958	16310	752.3	1.2
298.15	0.59958	18340	753.8	1.3
298.15	0.59958	20370	755.2	1.3
298.15	0.59958	22390	756.6	1.4
298.15	0.59958	24420	758	1.5
298.15	0.59958	26450	759.3	1.5
298.15	0.59958	28470	760.6	1.6
298.15	0.59958	29490	761.3	1.6
298.15	0.59958	30500	761.9	1.7
298.15	0.59958	32530	763.2	1.7
298.15	0.59958	34550	764.5	1.8
298.15	0.59958	36580	765.7	1.9
298.15	0.59958	38600	766.9	1.9
298.15	0.59958	39620	767.5	2
298.15	0.70522	100	746.6	0.6
298.15	0.70522	2130	748.2	0.6
298.15	0.70522	4150	749.9	0.7
298.15	0.70522	6180	751.5	0.8
298.15	0.70522	8210	753.1	0.9
298.15	0.70522	10230	754.7	0.9
298.15	0.70522	11250	755.5	1
298.15	0.70522	12260	756.2	1
298.15	0.70522	14290	757.8	1.1
298.15	0.70522	16310	759.2	1.1
298.15	0.70522	18340	760.7	1.2
298.15	0.70522	20370	762.1	1.3
298.15	0.70522	22390	763.5	1.3
298.15	0.70522	24420	764.9	1.4
298.15	0.70522	26450	766.3	1.5
298.15	0.70522	28470	767.6	1.5
298.15	0.70522	29490	768.2	1.6
298.15	0.70522	30500	768.9	1.6
298.15	0.70522	32530	770.2	1.7
298.15	0.70522	34550	771.5	1.7
298.15	0.70522	36580	772.7	1.8
298.15	0.70522	38600	773.9	1.9
298.15	0.70522	39620	774.5	1.9
298.15	0.79927	100	753.9	0.6
298.15	0.79927	2130	755.6	0.6
298.15	0.79927	4150	757.2	0.7
298.15	0.79927	6180	758.8	0.8
298.15	0.79927	8210	760.4	0.8
298.15	0.79927	10230	762	0.9
298.15	0.79927	11250	762.8	0.9
298.15	0.79927	12260	763.5	1
298.15	0.79927	14290	765.1	1
298.15	0.79927	16310	766.5	1.1
298.15	0.79927	18340	768	1.2
298.15	0.79927	20370	769.4	1.2
298.15	0.79927	22390	770.8	1.3
298.15	0.79927	24420	772.2	1.4
298.15	0.79927	26450	773.5	1.4
298.15	0.79927	28470	774.9	1.5
298.15	0.79927	29490	775.5	1.5
298.15	0.79927	30500	776.2	1.6
298.15	0.79927	32530	777.5	1.6
298.15	0.79927	34550	778.7	1.7
298.15	0.79927	36580	780	1.7
298.15	0.79927	38600	781.4	1.8
298.15	0.90388	100	763.1	0.5
298.15	0.90388	2130	764.8	0.6
298.15	0.90388	4150	766.5	0.7
298.15	0.90388	6180	768.1	0.7
298.15	0.90388	8210	769.7	0.8
298.15	0.90388	10230	771.3	0.9
298.15	0.90388	11250	772.1	0.9
298.15	0.90388	12260	772.9	0.9
298.15	0.90388	14290	774.4	1
298.15	0.90388	16310	775.9	1.1
298.15	0.90388	18340	777.3	1.1
298.15	0.90388	20370	778.8	1.2
298.15	0.90388	22390	780.2	1.3
298.15	0.90388	24420	781.6	1.3
298.15	0.90388	26450	783	1.4
298.15	0.90388	28470	784.3	1.4
298.15	0.90388	29490	785	1.5
298.15	0.90388	30500	785.7	1.5
298.15	0.90388	32530	787	1.5
298.15	0.90388	34550	788.2	1.6
298.15	0.90388	36580	789.5	1.7
298.15	0.90388	38600	790.7	1.7
298.15	0.90388	39620	791.3	1.7
298.15	1	100	773.8	0.5
298.15	1	2130	775.5	0.6
298.15	1	4150	777.2	0.6
298.15	1	6180	778.8	0.7
298.15	1	8210	780.4	0.8
298.15	1	10230	782	0.8
298.15	1	11250	782.8	0.9
298.15	1	12260	783.5	0.9
298.15	1	14290	785	1
298.15	1	16310	786.5	1
298.15	1	18340	788	1.1
298.15	1	20370	789.4	1.1
298.15	1	22390	790.9	1.2
298.15	1	24420	792.2	1.3
298.15	1	26450	793.6	1.3
298.15	1	28470	794.9	1.4
298.15	1	29490	795.6	1.4
298.15	1	30500	796.1	1.4
298.15	1	32530	797.5	1.5
298.15	1	34550	798.7	1.5
298.15	1	36580	800	1.6
298.15	1	38600	801.2	1.6
298.15	1	39620	801.7	1.7
308.15	0	100	705.8	0.7
308.15	0	2130	707.5	0.8
308.15	0	4150	709.2	0.9
308.15	0	6180	710.9	1
308.15	0	8210	712.5	1
308.15	0	10230	714.1	1.1
308.15	0	11250	714.9	1.2
308.15	0	12260	715.7	1.2
308.15	0	14290	717.2	1.3
308.15	0	16310	718.7	1.4
308.15	0	18340	720.2	1.5
308.15	0	20370	721.7	1.5
308.15	0	22390	723.1	1.6
308.15	0	24420	724.5	1.7
308.15	0	26450	725.9	1.8
308.15	0	28470	727.2	1.9
308.15	0	29490	727.8	1.9
308.15	0	30500	728.5	1.9
308.15	0	32530	729.8	2
308.15	0	34550	731.1	2.1
308.15	0	36580	732.4	2.2
308.15	0	38600	733.6	2.2
308.15	0	39620	734.3	2.3
308.15	0.09303	100	708.8	0.7
308.15	0.09303	2130	710.5	0.8
308.15	0.09303	4150	712.2	0.9
308.15	0.09303	6180	713.9	0.9
308.15	0.09303	8210	715.5	1
308.15	0.09303	10230	717.1	1.1
308.15	0.09303	11250	717.9	1.2
308.15	0.09303	12260	718.7	1.2
308.15	0.09303	14290	720.3	1.3
308.15	0.09303	16310	721.8	1.4
308.15	0.09303	18340	723.2	1.4
308.15	0.09303	20370	724.7	1.5
308.15	0.09303	22390	726.1	1.6
308.15	0.09303	24420	727.5	1.7
308.15	0.09303	26450	728.9	1.8
308.15	0.09303	28470	730.3	1.8
308.15	0.09303	29490	730.9	1.9
308.15	0.09303	30500	731.6	1.9
308.15	0.09303	32530	732.9	2
308.15	0.09303	34550	734.2	2.1
308.15	0.09303	36580	735.4	2.1
308.15	0.09303	38600	736.7	2.2
308.15	0.09303	39620	737.4	2.2
308.15	0.20087	100	712.6	0.7
308.15	0.20087	2130	714.3	0.8
308.15	0.20087	4150	716	0.8
308.15	0.20087	6180	717.7	0.9
308.15	0.20087	8210	719.4	1
308.15	0.20087	10230	721	1.1
308.15	0.20087	11250	721.8	1.1
308.15	0.20087	12260	722.6	1.2
308.15	0.20087	14290	724.2	1.2
308.15	0.20087	16310	725.7	1.3
308.15	0.20087	18340	727.2	1.4
308.15	0.20087	20370	728.6	1.5
308.15	0.20087	22390	730.1	1.6
308.15	0.20087	24420	731.5	1.6
308.15	0.20087	26450	732.9	1.7
308.15	0.20087	28470	734.2	1.8
308.15	0.20087	29490	734.9	1.8
308.15	0.20087	30500	735.6	1.9
308.15	0.20087	32530	736.9	1.9
308.15	0.20087	34550	738.2	2
308.15	0.20087	36580	739.5	2.1
308.15	0.20087	38600	740.8	2.2
308.15	0.20087	39620	741.4	2.2
308.15	0.30514	100	716.8	0.7
308.15	0.30514	2130	718.5	0.7
308.15	0.30514	4150	720.2	0.8
308.15	0.30514	6180	721.9	0.9
308.15	0.30514	8210	723.6	1
308.15	0.30514	10230	725.2	1.1
308.15	0.30514	11250	726	1.1
308.15	0.30514	12260	726.8	1.1
308.15	0.30514	14290	728.3	1.2
308.15	0.30514	16310	729.9	1.3
308.15	0.30514	18340	731.4	1.4
308.15	0.30514	20370	732.8	1.5
308.15	0.30514	22390	734.3	1.5
308.15	0.30514	24420	735.7	1.6
308.15	0.30514	26450	737.1	1.7
308.15	0.30514	28470	738.4	1.8
308.15	0.30514	29490	739.1	1.8
308.15	0.30514	30500	739.8	1.8
308.15	0.30514	32530	741.1	1.9
308.15	0.30514	34550	742.4	2
308.15	0.30514	36580	743.7	2
308.15	0.30514	38600	745	2.1
308.15	0.30514	39620	745.6	2.2
308.15	0.41704	100	721.7	0.6
308.15	0.41704	2130	723.4	0.7
308.15	0.41704	4150	725.1	0.8
308.15	0.41704	6180	726.8	0.9
308.15	0.41704	8210	728.5	1
308.15	0.41704	10230	730.1	1
308.15	0.41704	11250	730.9	1.1
308.15	0.41704	12260	731.7	1.1
308.15	0.41704	14290	733.3	1.2
308.15	0.41704	16310	734.8	1.3
308.15	0.41704	18340	736.3	1.3
308.15	0.41704	20370	737.8	1.4
308.15	0.41704	22390	739.3	1.5
308.15	0.41704	24420	740.7	1.6
308.15	0.41704	26450	742.1	1.6
308.15	0.41704	28470	743.5	1.7
308.15	0.41704	29490	744.1	1.7
308.15	0.41704	30500	744.8	1.8
308.15	0.41704	32530	746.1	1.9
308.15	0.41704	34550	747.4	1.9
308.15	0.41704	36580	748.7	2
308.15	0.41704	38600	750	2.1
308.15	0.41704	39620	750.6	2.1
308.15	0.51199	100	726.3	0.6
308.15	0.51199	2130	728	0.7
308.15	0.51199	4150	729.7	0.8
308.15	0.51199	6180	731.4	0.9
308.15	0.51199	8210	733.1	0.9
308.15	0.51199	10230	734.7	1
308.15	0.51199	11250	735.5	1.1
308.15	0.51199	12260	736.3	1.1
308.15	0.51199	14290	737.9	1.2
308.15	0.51199	16310	739.4	1.2
308.15	0.51199	18340	740.9	1.3
308.15	0.51199	20370	742.4	1.4
308.15	0.51199	22390	743.9	1.5
308.15	0.51199	24420	745.3	1.5
308.15	0.51199	26450	746.8	1.6
308.15	0.51199	28470	748.1	1.7
308.15	0.51199	29490	748.7	1.7
308.15	0.51199	30500	749.4	1.7
308.15	0.51199	32530	750.8	1.8
308.15	0.51199	34550	752	1.9
308.15	0.51199	36580	753.3	2
308.15	0.51199	38600	754.6	2
308.15	0.51199	39620	755.3	2.1
308.15	0.59958	100	731.2	0.6
308.15	0.59958	2130	733	0.7
308.15	0.59958	4150	734.7	0.8
308.15	0.59958	6180	736.4	0.8
308.15	0.59958	8210	738.1	0.9
308.15	0.59958	10230	739.8	1
308.15	0.59958	11250	740.6	1
308.15	0.59958	12260	741.4	1.1
308.15	0.59958	14290	743	1.1
308.15	0.59958	16310	744.5	1.2
308.15	0.59958	18340	746.1	1.3
308.15	0.59958	20370	747.6	1.4
308.15	0.59958	22390	749.1	1.4
308.15	0.59958	24420	750.5	1.5
308.15	0.59958	26450	751.9	1.6
308.15	0.59958	28470	753.3	1.6
308.15	0.59958	29490	754	1.7
308.15	0.59958	30500	754.7	1.7
308.15	0.59958	32530	756	1.8
308.15	0.59958	34550	757.3	1.8
308.15	0.59958	36580	758.6	1.9
308.15	0.59958	38600	759.9	2
308.15	0.59958	39620	760.6	2
308.15	0.70522	100	737.9	0.6
308.15	0.70522	2130	739.7	0.7
308.15	0.70522	4150	741.5	0.7
308.15	0.70522	6180	743.2	0.8
308.15	0.70522	8210	744.9	0.9
308.15	0.70522	10230	746.6	1
308.15	0.70522	11250	747.4	1
308.15	0.70522	12260	748.2	1
308.15	0.70522	14290	749.8	1.1
308.15	0.70522	16310	751.4	1.2
308.15	0.70522	18340	752.9	1.2
308.15	0.70522	20370	754.4	1.3
308.15	0.70522	22390	755.9	1.4
308.15	0.70522	24420	757.4	1.5
308.15	0.70522	26450	758.8	1.5
308.15	0.70522	28470	760.2	1.6
308.15	0.70522	29490	760.9	1.6
308.15	0.70522	30500	761.6	1.7
308.15	0.70522	32530	762.9	1.7
308.15	0.70522	34550	764.3	1.8
308.15	0.70522	36580	765.6	1.9
308.15	0.70522	38600	766.9	1.9
308.15	0.70522	39620	767.5	1.9
308.15	0.79927	100	745	0.6
308.15	0.79927	2130	746.8	0.6
308.15	0.79927	4150	748.5	0.7
308.15	0.79927	6180	750.3	0.8
308.15	0.79927	8210	752	0.9
308.15	0.79927	10230	753.6	0.9
308.15	0.79927	11250	754.4	1
308.15	0.79927	12260	755.3	1
308.15	0.79927	14290	756.9	1.1
308.15	0.79927	16310	758.4	1.1
308.15	0.79927	18340	760	1.2
308.15	0.79927	20370	761.5	1.3
308.15	0.79927	22390	763	1.3
308.15	0.79927	24420	764.4	1.4
308.15	0.79927	26450	765.8	1.5
308.15	0.79927	28470	767.2	1.5
308.15	0.79927	29490	767.9	1.6
308.15	0.79927	30500	768.6	1.6
308.15	0.79927	32530	770	1.7
308.15	0.79927	34550	771.3	1.7
308.15	0.79927	36580	772.6	1.8
308.15	0.79927	38600	773.9	1.9
308.15	0.79927	39620	774.5	1.9
308.15	0.90388	100	754	0.5
308.15	0.90388	2130	755.7	0.6
308.15	0.90388	4150	757.5	0.7
308.15	0.90388	6180	759.3	0.8
308.15	0.90388	8210	761	0.8
308.15	0.90388	10230	762.7	0.9
308.15	0.90388	11250	763.5	0.9
308.15	0.90388	12260	764.4	1
308.15	0.90388	14290	766	1
308.15	0.90388	16310	767.5	1.1
308.15	0.90388	18340	769.1	1.2
308.15	0.90388	20370	770.6	1.2
308.15	0.90388	22390	772.1	1.3
308.15	0.90388	24420	773.6	1.4
308.15	0.90388	26450	775.1	1.4
308.15	0.90388	28470	776.5	1.5
308.15	0.90388	29490	777.2	1.5
308.15	0.90388	30500	777.9	1.5
308.15	0.90388	32530	779.3	1.6
308.15	0.90388	34550	780.6	1.7
308.15	0.90388	36580	781.9	1.7
308.15	0.90388	38600	783.3	1.8
308.15	0.90388	39620	783.9	1.8
308.15	1	100	764.4	0.5
308.15	1	2130	766.2	0.6
308.15	1	4150	767.9	0.7
308.15	1	6180	769.7	0.7
308.15	1	8210	771.4	0.8
308.15	1	10230	773.1	0.9
308.15	1	11250	773.9	0.9
308.15	1	12260	774.7	0.9
308.15	1	14290	776.4	1
308.15	1	16310	777.9	1.1
308.15	1	18340	779.5	1.1
308.15	1	20370	781	1.2
308.15	1	22390	782.5	1.2
308.15	1	24420	784	1.3
308.15	1	26450	785.5	1.4
308.15	1	28470	786.9	1.4
308.15	1	29490	787.6	1.4
308.15	1	30500	788.3	1.5
308.15	1	32530	789.7	1.5
308.15	1	34550	791	1.6
308.15	1	36580	792.4	1.6
308.15	1	38600	793.7	1.7
308.15	1	39620	794.3	1.7
318.15	0	100	698.2	0.7
318.15	0	2130	699.9	0.8
318.15	0	4150	701.8	0.9
318.15	0	6180	703.6	1
318.15	0	8210	705.3	1.1
318.15	0	10230	707	1.2
318.15	0	11250	707.8	1.2
318.15	0	12260	708.6	1.2
318.15	0	14290	710.3	1.3
318.15	0	16310	711.9	1.4
318.15	0	18340	713.5	1.5
318.15	0	20370	715	1.6
318.15	0	22390	716.5	1.7
318.15	0	24420	717.9	1.7
318.15	0	26450	719.4	1.8
318.15	0	28470	720.8	1.9
318.15	0	29490	721.4	1.9
318.15	0	30500	722.1	2
318.15	0	32530	723.4	2.1
318.15	0	34550	724.8	2.1
318.15	0	36580	726.1	2.2
318.15	0	38600	727.5	2.3
318.15	0	39620	728.1	2.3
318.15	0.09303	100	701	0.7
318.15	0.09303	2130	702.7	0.8
318.15	0.09303	4150	704.7	0.9
318.15	0.09303	6180	706.4	1
318.15	0.09303	8210	708.2	1
318.15	0.09303	10230	709.9	1.1
318.15	0.09303	11250	710.7	1.2
318.15	0.09303	12260	711.6	1.2
318.15	0.09303	14290	713.2	1.3
318.15	0.09303	16310	714.8	1.4
318.15	0.09303	18340	716.4	1.5
318.15	0.09303	20370	717.9	1.5
318.15	0.09303	22390	719.4	1.6
318.15	0.09303	24420	720.8	1.7
318.15	0.09303	26450	722.3	1.8
318.15	0.09303	28470	723.6	1.9
318.15	0.09303	29490	724.3	1.9
318.15	0.09303	30500	725	1.9
318.15	0.09303	32530	726.4	2
318.15	0.09303	34550	727.7	2.1
318.15	0.09303	36580	729	2.2
318.15	0.09303	38600	730.4	2.3
318.15	0.09303	39620	731	2.3
318.15	0.20087	100	704.8	0.7
318.15	0.20087	2130	706.5	0.8
318.15	0.20087	4150	708.4	0.9
318.15	0.20087	6180	710.2	0.9
318.15	0.20087	8210	712	1
318.15	0.20087	10230	713.7	1.1
318.15	0.20087	11250	714.5	1.2
318.15	0.20087	12260	715.4	1.2
318.15	0.20087	14290	717	1.3
318.15	0.20087	16310	718.7	1.4
318.15	0.20087	18340	720.2	1.4
318.15	0.20087	20370	721.8	1.5
318.15	0.20087	22390	723.3	1.6
318.15	0.20087	24420	724.8	1.7
318.15	0.20087	26450	726.2	1.8
318.15	0.20087	28470	727.6	1.8
318.15	0.20087	29490	728.3	1.9
318.15	0.20087	30500	729	1.9
318.15	0.20087	32530	730.4	2
318.15	0.20087	34550	731.8	2.1
318.15	0.20087	36580	733.1	2.1
318.15	0.20087	38600	734.5	2.2
318.15	0.20087	39620	735.1	2.2
318.15	0.30514	100	708.8	0.7
318.15	0.30514	2130	710.6	0.8
318.15	0.30514	4150	712.5	0.8
318.15	0.30514	6180	714.3	0.9
318.15	0.30514	8210	716.1	1
318.15	0.30514	10230	717.8	1.1
318.15	0.30514	11250	718.6	1.1
318.15	0.30514	12260	719.5	1.2
318.15	0.30514	14290	721.1	1.2
318.15	0.30514	16310	722.7	1.3
318.15	0.30514	18340	724.3	1.4
318.15	0.30514	20370	725.9	1.5
318.15	0.30514	22390	727.4	1.6
318.15	0.30514	24420	728.8	1.6
318.15	0.30514	26450	730.3	1.7
318.15	0.30514	28470	731.7	1.8
318.15	0.30514	29490	732.4	1.8
318.15	0.30514	30500	733.1	1.9
318.15	0.30514	32530	734.4	1.9
318.15	0.30514	34550	735.8	2
318.15	0.30514	36580	737.1	2.1
318.15	0.30514	38600	738.5	2.2
318.15	0.30514	39620	739.1	2.2
318.15	0.41704	100	713.5	0.6
318.15	0.41704	2130	715.2	0.7
318.15	0.41704	4150	717.2	0.8
318.15	0.41704	6180	719	0.9
318.15	0.41704	8210	720.7	1
318.15	0.41704	10230	722.5	1.1
318.15	0.41704	11250	723.3	1.1
318.15	0.41704	12260	724.2	1.1
318.15	0.41704	14290	725.8	1.2
318.15	0.41704	16310	727.5	1.3
318.15	0.41704	18340	729.1	1.4
318.15	0.41704	20370	730.6	1.5
318.15	0.41704	22390	732.2	1.5
318.15	0.41704	24420	733.6	1.6
318.15	0.41704	26450	735.1	1.7
318.15	0.41704	28470	736.5	1.8
318.15	0.41704	29490	737.2	1.8
318.15	0.41704	30500	737.9	1.8
318.15	0.41704	32530	739.3	1.9
318.15	0.41704	34550	740.6	2
318.15	0.41704	36580	742	2
318.15	0.41704	38600	743.3	2.1
318.15	0.41704	39620	744	2.2
318.15	0.51199	100	718	0.6
318.15	0.51199	2130	719.8	0.7
318.15	0.51199	4150	721.7	0.8
318.15	0.51199	6180	723.6	0.9
318.15	0.51199	8210	725.3	1
318.15	0.51199	10230	727	1
318.15	0.51199	11250	727.9	1.1
318.15	0.51199	12260	728.8	1.1
318.15	0.51199	14290	730.4	1.2
318.15	0.51199	16310	732	1.3
318.15	0.51199	18340	733.6	1.3
318.15	0.51199	20370	735.2	1.4
318.15	0.51199	22390	736.7	1.5
318.15	0.51199	24420	738.2	1.6
318.15	0.51199	26450	739.7	1.6
318.15	0.51199	28470	741.1	1.7
318.15	0.51199	29490	741.8	1.8
318.15	0.51199	30500	742.5	1.8
318.15	0.51199	32530	743.8	1.9
318.15	0.51199	34550	745.2	1.9
318.15	0.51199	36580	746.6	2
318.15	0.51199	38600	748	2.1
318.15	0.51199	39620	748.6	2.1
318.15	0.59958	100	722.8	0.6
318.15	0.59958	2130	724.6	0.7
318.15	0.59958	4150	726.6	0.8
318.15	0.59958	6180	728.4	0.9
318.15	0.59958	8210	730.2	0.9
318.15	0.59958	10230	731.9	1
318.15	0.59958	11250	732.8	1.1
318.15	0.59958	12260	733.7	1.1
318.15	0.59958	14290	735.3	1.2
318.15	0.59958	16310	737	1.2
318.15	0.59958	18340	738.6	1.3
318.15	0.59958	20370	740.2	1.4
318.15	0.59958	22390	741.8	1.5
318.15	0.59958	24420	743.3	1.5
318.15	0.59958	26450	744.8	1.6
318.15	0.59958	28470	746.2	1.7
318.15	0.59958	29490	746.9	1.7
318.15	0.59958	30500	747.6	1.8
318.15	0.59958	32530	749	1.8
318.15	0.59958	34550	750.4	1.9
318.15	0.59958	36580	751.7	2
318.15	0.59958	38600	753.1	2
318.15	0.59958	39620	753.8	2.1
318.15	0.70522	100	729.3	0.6
318.15	0.70522	2130	731.1	0.7
318.15	0.70522	4150	733.1	0.8
318.15	0.70522	6180	734.9	0.8
318.15	0.70522	8210	736.7	0.9
318.15	0.70522	10230	738.5	1
318.15	0.70522	11250	739.4	1
318.15	0.70522	12260	740.3	1.1
318.15	0.70522	14290	741.9	1.1
318.15	0.70522	16310	743.6	1.2
318.15	0.70522	18340	745.3	1.3
318.15	0.70522	20370	746.9	1.4
318.15	0.70522	22390	748.4	1.4
318.15	0.70522	24420	749.9	1.5
318.15	0.70522	26450	751.4	1.6
318.15	0.70522	28470	752.9	1.6
318.15	0.70522	29490	753.6	1.7
318.15	0.70522	30500	754.3	1.7
318.15	0.70522	32530	755.7	1.8
318.15	0.70522	34550	757.1	1.8
318.15	0.70522	36580	758.5	1.9
318.15	0.70522	38600	759.9	2
318.15	0.70522	39620	760.6	2
318.15	0.79927	100	736.2	0.6
318.15	0.79927	2130	738	0.7
318.15	0.79927	4150	740	0.7
318.15	0.79927	6180	741.8	0.8
318.15	0.79927	8210	743.6	0.9
318.15	0.79927	10230	745.4	1
318.15	0.79927	11250	746.3	1
318.15	0.79927	12260	747.1	1
318.15	0.79927	14290	748.9	1.1
318.15	0.79927	16310	750.5	1.2
318.15	0.79927	18340	752.1	1.2
318.15	0.79927	20370	753.7	1.3
318.15	0.79927	22390	755.3	1.4
318.15	0.79927	24420	756.8	1.5
318.15	0.79927	26450	758.3	1.5
318.15	0.79927	28470	759.8	1.6
318.15	0.79927	29490	760.5	1.6
318.15	0.79927	30500	761.2	1.7
318.15	0.79927	32530	762.6	1.7
318.15	0.79927	34550	764	1.8
318.15	0.79927	36580	765.4	1.8
318.15	0.79927	38600	766.8	1.9
318.15	0.79927	39620	767.5	1.9
318.15	0.90388	100	744.9	0.6
318.15	0.90388	2130	746.7	0.6
318.15	0.90388	4150	748.7	0.7
318.15	0.90388	6180	750.6	0.8
318.15	0.90388	8210	752.4	0.9
318.15	0.90388	10230	754.2	0.9
318.15	0.90388	11250	755.1	1
318.15	0.90388	12260	756	1
318.15	0.90388	14290	757.7	1.1
318.15	0.90388	16310	759.4	1.1
318.15	0.90388	18340	761.1	1.2
318.15	0.90388	20370	762.7	1.3
318.15	0.90388	22390	764.3	1.3
318.15	0.90388	24420	765.8	1.4
318.15	0.90388	26450	767.4	1.5
318.15	0.90388	28470	768.9	1.5
318.15	0.90388	29490	769.6	1.6
318.15	0.90388	30500	770.3	1.6
318.15	0.90388	32530	771.7	1.7
318.15	0.90388	34550	773.2	1.7
318.15	0.90388	36580	774.5	1.8
318.15	0.90388	38600	776	1.8
318.15	0.90388	39620	776.7	1.9
318.15	1	100	754.8	0.6
318.15	1	2130	756.7	0.6
318.15	1	4150	758.7	0.7
318.15	1	6180	760.6	0.8
318.15	1	8210	762.4	0.8
318.15	1	10230	764.2	0.9
318.15	1	11250	765.1	0.9
318.15	1	12260	766	1
318.15	1	14290	767.7	1
318.15	1	16310	769.4	1.1
318.15	1	18340	771.1	1.2
318.15	1	20370	772.7	1.2
318.15	1	22390	774.3	1.3
318.15	1	24420	775.8	1.3
318.15	1	26450	777.3	1.4
318.15	1	28470	778.8	1.5
318.15	1	29490	779.6	1.5
318.15	1	30500	780.3	1.5
318.15	1	32530	781.7	1.6
318.15	1	34550	783.2	1.6
318.15	1	36580	784.6	1.7
318.15	1	38600	786	1.8
318.15	1	39620	786.7	1.8
328.15	0	100	690.5	0.7
328.15	0	2130	691.4	0.8
328.15	0	4150	694.4	0.9
328.15	0	6180	696.3	1
328.15	0	8210	698.1	1.1
328.15	0	10230	699.9	1.2
328.15	0	11250	700.8	1.2
328.15	0	12260	701.7	1.3
328.15	0	14290	703.4	1.3
328.15	0	16310	705.1	1.4
328.15	0	18340	706.8	1.5
328.15	0	20370	708.4	1.6
328.15	0	22390	710	1.7
328.15	0	24420	711.5	1.8
328.15	0	26450	713	1.9
328.15	0	28470	714.5	1.9
328.15	0	29490	715.2	2
328.15	0	30500	716	2
328.15	0	32530	717.4	2.1
328.15	0	34550	718.8	2.2
328.15	0	36580	720.2	2.3
328.15	0	38600	721.6	2.3
328.15	0	39620	722.2	2.4
328.15	0.09303	100	693.4	0.7
328.15	0.09303	2130	694.3	0.8
328.15	0.09303	4150	697.3	0.9
328.15	0.09303	6180	699.2	1
328.15	0.09303	8210	701	1.1
328.15	0.09303	10230	702.8	1.2
328.15	0.09303	11250	703.7	1.2
328.15	0.09303	12260	704.6	1.2
328.15	0.09303	14290	706.3	1.3
328.15	0.09303	16310	708	1.4
328.15	0.09303	18340	709.6	1.5
328.15	0.09303	20370	711.2	1.6
328.15	0.09303	22390	712.8	1.7
328.15	0.09303	24420	714.4	1.7
328.15	0.09303	26450	715.9	1.8
328.15	0.09303	28470	717.4	1.9
328.15	0.09303	29490	718.1	1.9
328.15	0.09303	30500	718.8	2
328.15	0.09303	32530	720.3	2.1
328.15	0.09303	34550	721.7	2.1
328.15	0.09303	36580	723.1	2.2
328.15	0.09303	38600	724.4	2.3
328.15	0.09303	39620	725.1	2.3
328.15	0.20087	100	697	0.7
328.15	0.20087	2130	697.9	0.8
328.15	0.20087	4150	700.9	0.9
328.15	0.20087	6180	702.8	1
328.15	0.20087	8210	704.7	1
328.15	0.20087	10230	706.5	1.1
328.15	0.20087	11250	707.4	1.2
328.15	0.20087	12260	708.3	1.2
328.15	0.20087	14290	710.1	1.3
328.15	0.20087	16310	711.8	1.4
328.15	0.20087	18340	713.4	1.5
328.15	0.20087	20370	715.1	1.5
328.15	0.20087	22390	716.7	1.6
328.15	0.20087	24420	718.2	1.7
328.15	0.20087	26450	719.8	1.8
328.15	0.20087	28470	721.3	1.9
328.15	0.20087	29490	722	1.9
328.15	0.20087	30500	722.8	1.9
328.15	0.20087	32530	724.2	2
328.15	0.20087	34550	725.6	2.1
328.15	0.20087	36580	727	2.2
328.15	0.20087	38600	728.4	2.3
328.15	0.20087	39620	729	2.3
328.15	0.30514	100	700.9	0.7
328.15	0.30514	2130	701.8	0.8
328.15	0.30514	4150	704.8	0.9
328.15	0.30514	6180	706.7	0.9
328.15	0.30514	8210	708.6	1
328.15	0.30514	10230	710.4	1.1
328.15	0.30514	11250	711.3	1.2
328.15	0.30514	12260	712.2	1.2
328.15	0.30514	14290	714	1.3
328.15	0.30514	16310	715.7	1.4
328.15	0.30514	18340	717.3	1.4
328.15	0.30514	20370	719	1.5
328.15	0.30514	22390	720.6	1.6
328.15	0.30514	24420	722.2	1.7
328.15	0.30514	26450	723.7	1.8
328.15	0.30514	28470	725.2	1.8
328.15	0.30514	29490	725.9	1.9
328.15	0.30514	30500	726.7	1.9
328.15	0.30514	32530	728.1	2
328.15	0.30514	34550	729.6	2.1
328.15	0.30514	36580	730.9	2.1
328.15	0.30514	38600	732.3	2.2
328.15	0.30514	39620	733	2.2
328.15	0.41704	100	705.3	0.6
328.15	0.41704	2130	706.3	0.8
328.15	0.41704	4150	709.3	0.8
328.15	0.41704	6180	711.2	0.9
328.15	0.41704	8210	713.1	1
328.15	0.41704	10230	714.9	1.1
328.15	0.41704	11250	715.8	1.1
328.15	0.41704	12260	716.7	1.2
328.15	0.41704	14290	718.5	1.2
328.15	0.41704	16310	720.2	1.3
328.15	0.41704	18340	721.9	1.4
328.15	0.41704	20370	723.6	1.5
328.15	0.41704	22390	725.2	1.6
328.15	0.41704	24420	726.8	1.6
328.15	0.41704	26450	728.3	1.7
328.15	0.41704	28470	729.8	1.8
328.15	0.41704	29490	730.6	1.8
328.15	0.41704	30500	731.3	1.9
328.15	0.41704	32530	732.8	1.9
328.15	0.41704	34550	734.2	2
328.15	0.41704	36580	735.7	2.1
328.15	0.41704	38600	737	2.2
328.15	0.41704	39620	737.7	2.2
328.15	0.51199	100	709.7	0.6
328.15	0.51199	2130	710.7	0.7
328.15	0.51199	4150	713.7	0.8
328.15	0.51199	6180	715.6	0.9
328.15	0.51199	8210	717.5	1
328.15	0.51199	10230	719.3	1.1
328.15	0.51199	11250	720.2	1.1
328.15	0.51199	12260	721.1	1.1
328.15	0.51199	14290	722.9	1.2
328.15	0.51199	16310	724.6	1.3
328.15	0.51199	18340	726.3	1.4
328.15	0.51199	20370	728	1.5
328.15	0.51199	22390	729.6	1.5
328.15	0.51199	24420	731.2	1.6
328.15	0.51199	26450	732.7	1.7
328.15	0.51199	28470	734.2	1.8
328.15	0.51199	29490	735	1.8
328.15	0.51199	30500	735.7	1.8
328.15	0.51199	32530	737.2	1.9
328.15	0.51199	34550	738.7	2
328.15	0.51199	36580	740.1	2
328.15	0.51199	38600	741.5	2.1
328.15	0.51199	39620	742.1	2.2
328.15	0.59958	100	714.5	0.6
328.15	0.59958	2130	715.6	0.7
328.15	0.59958	4150	718.6	0.8
328.15	0.59958	6180	720.5	0.9
328.15	0.59958	8210	722.4	1
328.15	0.59958	10230	724.3	1
328.15	0.59958	11250	725.2	1.1
328.15	0.59958	12260	726.1	1.1
328.15	0.59958	14290	727.9	1.2
328.15	0.59958	16310	729.7	1.3
328.15	0.59958	18340	731.4	1.3
328.15	0.59958	20370	733	1.4
328.15	0.59958	22390	734.7	1.5
328.15	0.59958	24420	736.3	1.6
328.15	0.59958	26450	737.9	1.6
328.15	0.59958	28470	739.4	1.7
328.15	0.59958	29490	740.2	1.8
328.15	0.59958	30500	740.9	1.8
328.15	0.59958	32530	742.4	1.9
328.15	0.59958	34550	743.9	1.9
328.15	0.59958	36580	745.3	2
328.15	0.59958	38600	746.7	2.1
328.15	0.59958	39620	747.4	2.1
328.15	0.70522	100	720.8	0.6
328.15	0.70522	2130	721.9	0.7
328.15	0.70522	4150	724.9	0.8
328.15	0.70522	6180	726.9	0.9
328.15	0.70522	8210	728.8	0.9
328.15	0.70522	10230	730.7	1
328.15	0.70522	11250	731.6	1.1
328.15	0.70522	12260	732.5	1.1
328.15	0.70522	14290	734.4	1.2
328.15	0.70522	16310	736.1	1.2
328.15	0.70522	18340	737.9	1.3
328.15	0.70522	20370	739.5	1.4
328.15	0.70522	22390	741.2	1.5
328.15	0.70522	24420	742.8	1.5
328.15	0.70522	26450	744.4	1.6
328.15	0.70522	28470	746	1.7
328.15	0.70522	29490	746.7	1.7
328.15	0.70522	30500	747.5	1.7
328.15	0.70522	32530	748.9	1.8
328.15	0.70522	34550	750.5	1.9
328.15	0.70522	36580	751.9	1.9
328.15	0.70522	38600	753.3	2
328.15	0.70522	39620	754	2.1
328.15	0.79927	100	727.5	0.6
328.15	0.79927	2130	728.6	0.7
328.15	0.79927	4150	731.6	0.8
328.15	0.79927	6180	733.5	0.8
328.15	0.79927	8210	735.5	0.9
328.15	0.79927	10230	737.3	1
328.15	0.79927	11250	738.3	1
328.15	0.79927	12260	739.2	1.1
328.15	0.79927	14290	741	1.1
328.15	0.79927	16310	742.8	1.2
328.15	0.79927	18340	744.5	1.3
328.15	0.79927	20370	746.2	1.4
328.15	0.79927	22390	747.9	1.4
328.15	0.79927	24420	749.5	1.5
328.15	0.79927	26450	751.1	1.6
328.15	0.79927	28470	752.6	1.6
328.15	0.79927	29490	753.4	1.7
328.15	0.79927	30500	754.2	1.7
328.15	0.79927	32530	755.7	1.8
328.15	0.79927	34550	757.1	1.8
328.15	0.79927	36580	758.6	1.9
328.15	0.79927	38600	760	2
328.15	0.79927	39620	760.7	2
328.15	0.90388	100	735.7	0.6
328.15	0.90388	2130	737	0.7
328.15	0.90388	4150	739.9	0.8
328.15	0.90388	6180	741.9	0.8
328.15	0.90388	8210	743.9	0.9
328.15	0.90388	10230	745.8	1
328.15	0.90388	11250	746.7	1
328.15	0.90388	12260	747.7	1
328.15	0.90388	14290	749.5	1.1
328.15	0.90388	16310	751.3	1.2
328.15	0.90388	18340	753.1	1.2
328.15	0.90388	20370	754.8	1.3
328.15	0.90388	22390	756.5	1.4
328.15	0.90388	24420	758.1	1.4
328.15	0.90388	26450	759.8	1.5
328.15	0.90388	28470	761.4	1.6
328.15	0.90388	29490	762.1	1.6
328.15	0.90388	30500	762.9	1.6
328.15	0.90388	32530	764.4	1.7
328.15	0.90388	34550	765.9	1.8
328.15	0.90388	36580	767.4	1.8
328.15	0.90388	38600	768.9	1.9
328.15	0.90388	39620	769.6	1.9
328.15	1	100	745.4	0.5
328.15	1	2130	746.6	0.6
328.15	1	4150	749.6	0.7
328.15	1	6180	751.6	0.8
328.15	1	8210	753.6	0.9
328.15	1	10230	755.5	0.9
328.15	1	11250	756.4	1
328.15	1	12260	757.4	1
328.15	1	14290	759.2	1.1
328.15	1	16310	761	1.1
328.15	1	18340	762.8	1.2
328.15	1	20370	764.5	1.3
328.15	1	22390	766.2	1.3
328.15	1	24420	767.9	1.4
328.15	1	26450	769.6	1.4
328.15	1	28470	771.2	1.5
328.15	1	29490	772	1.5
328.15	1	30500	772.7	1.6
328.15	1	32530	774.3	1.6
328.15	1	34550	775.8	1.7
328.15	1	36580	777.3	1.7
328.15	1	38600	778.8	1.8
328.15	1	39620	779.4	1.8
