Measured thermophysical data. Measurement and correlation of the (p, rho, T) relation of liquid cyclohexane, toluene, and ethanol in the temperature range from 233.15 K to 473.15 K at pressures up to 30 MPa for use as density reference liquids
Source: J. Chem. Thermodyn., 2011, 10.1016/j.jct.2010.08.010
Compound 1: cyclohexane, C6H12, InChI=1S/C6H12/c1-2-4-6-5-3-1/h1-6H2, purity 99.9%
Compound 2: toluene, C7H8, InChI=1S/C7H8/c1-7-5-3-2-4-6-7/h2-6H,1H3, purity 99.9%
Compound 3: ethanol, C2H6O, InChI=1S/C2H6O/c1-2-3/h3H,2H2,1H3, purity 99.9%

System: cyclohexane; phases: Liquid
Property: Mass density, kg/m3 (Liquid); method: Buoyancy - hydrostatic balance with magnetic suspension - one sinker
Temperature, K	Pressure, kPa	Mass density, kg/m3	uncertainty
293.15	99.46	778.632	0.182
293.15	1102.03	779.471	0.182
293.15	2002.37	780.22	0.182
293.15	4003.86	781.856	0.182
293.15	6003.84	783.454	0.182
293.15	8003.3	785.025	0.184
293.15	10042.2	786.595	0.184
293.15	12045.5	788.105	0.184
293.15	13918.7	789.495	0.184
293.15	15982.4	790.995	0.184
293.15	17946.4	792.401	0.185
293.15	20017.1	793.855	0.185
313.15	102.48	759.667	0.178
313.15	1139.02	760.675	0.178
313.15	2012.18	761.509	0.178
313.15	4102.38	763.47	0.178
313.15	5932.83	765.157	0.18
313.15	7910.5	766.936	0.18
313.15	10017.5	768.784	0.18
313.15	12069.2	770.545	0.18
313.15	13964.7	772.137	0.18
313.15	15901.8	773.737	0.18
313.15	17955.8	775.394	0.182
313.15	20142.4	777.123	0.182
333.15	1112.41	741.367	0.173
333.15	2043.58	742.401	0.173
333.15	3987.96	744.517	0.173
333.15	5966.83	746.613	0.175
333.15	8141.84	748.853	0.175
333.15	10007.2	750.72	0.175
333.15	11993.6	752.664	0.176
333.15	14092.7	754.666	0.176
333.15	15962.9	756.414	0.177
333.15	17994.7	758.261	0.178
333.15	19860.6	759.929	0.178
353.15	1109.91	721.547	0.169
353.15	1973.18	722.669	0.169
353.15	4000.02	725.242	0.171
353.15	6001.27	727.698	0.171
353.15	8046.51	730.125	0.171
353.15	10046.1	732.423	0.171
353.15	11820.5	734.413	0.171
353.15	13860	736.633	0.173
353.15	15939.7	738.835	0.173
353.15	18023.4	740.978	0.173
353.15	20002.8	742.965	0.173
373.15	1115.51	701.065	0.164
373.15	1950.06	702.346	0.164
373.15	4154.07	705.638	0.166
373.15	6126.03	708.455	0.166
373.15	8029.39	711.079	0.166
373.15	9951.24	713.63	0.167
373.15	12097.1	716.383	0.168
373.15	13877	718.592	0.169
373.15	16148.1	721.319	0.169
373.15	18077.7	723.568	0.169
373.15	19877	725.607	0.171
393.15	1162.91	679.792	0.16
393.15	1960.31	681.265	0.16
393.15	3901.42	684.723	0.16
393.15	5983.91	688.253	0.162
393.15	7986.39	691.487	0.162
393.15	9903.28	694.452	0.162
393.15	11974.7	697.527	0.164
393.15	13821	700.163	0.164
393.15	16029.3	703.195	0.164
393.15	18027.3	705.845	0.166
393.15	20003.7	708.371	0.166
413.15	1196.72	657.32	0.155
413.15	2172.63	659.527	0.155
413.15	4146.43	663.767	0.156
413.15	6122.26	667.756	0.157
413.15	8132.63	671.583	0.158
413.15	10013.2	674.989	0.158
413.15	11993.3	678.397	0.16
413.15	14003.5	681.703	0.16
413.15	16052.9	684.936	0.16
413.15	18098.2	688.022	0.162
413.15	19934.8	690.694	0.162
433.15	1086.72	632.817	0.149
433.15	2070.58	635.63	0.151
433.15	4050.34	640.931	0.151
433.15	6077	645.937	0.153
433.15	8181.71	650.742	0.153
433.15	10076.7	654.811	0.153
433.15	12111.1	658.913	0.155
433.15	13890.3	662.325	0.155
433.15	15958.8	666.096	0.157
433.15	18073.3	669.76	0.157
433.15	20009.8	672.969	0.157
453.15	2100.81	609.942	0.145
453.15	4117.3	616.844	0.146
453.15	6121.33	623.004	0.147
453.15	8117.44	628.596	0.149
453.15	9915.4	633.254	0.149
453.15	11931.4	638.115	0.151
453.15	13934.7	642.628	0.151
453.15	15959	646.918	0.153
453.15	18103.1	651.206	0.153
453.15	19890.5	654.601	0.153
473.15	2403.47	582.448	0.138
473.15	3924.93	589.431	0.14
473.15	6045.23	597.933	0.142
473.15	8093.25	605.148	0.144
473.15	9884.3	610.832	0.144
473.15	11911.4	616.733	0.146
473.15	13942.6	622.171	0.146
473.15	16018.5	627.319	0.148
473.15	18132.6	632.216	0.148
473.15	20025	636.335	0.15

System: toluene; phases: Liquid
Property: Mass density, kg/m3 (Liquid); method: Buoyancy - hydrostatic balance with magnetic suspension - one sinker
Temperature, K	Pressure, kPa	Mass density, kg/m3	uncertainty
233.15	101.25	922.207	0.214
233.15	1055.6	922.722	0.214
233.15	1861.3	923.156	0.214
233.15	3871.07	924.223	0.214
233.15	5873.94	925.287	0.216
233.15	8031.15	926.415	0.216
233.15	9906.49	927.392	0.216
233.15	11972.8	928.445	0.216
233.15	13947.1	929.451	0.216
233.15	15970.8	930.461	0.216
233.15	18028.6	931.487	0.216
233.15	19921.1	932.422	0.216
233.15	22000	933.432	0.216
233.15	24028.7	934.411	0.216
233.15	25833.4	935.279	0.218
233.15	27875.9	936.25	0.218
233.15	29775.6	937.146	0.218
253.15	102.01	903.705	0.21
253.15	1102.59	904.316	0.21
253.15	1837.13	904.762	0.21
253.15	3915.79	906	0.212
253.15	6024.32	907.237	0.212
253.15	7905.75	908.333	0.212
253.15	9884.5	909.467	0.212
253.15	11994.6	910.665	0.212
253.15	13974.9	911.777	0.212
253.15	15950.9	912.877	0.212
253.15	17977.8	913.989	0.212
253.15	20022	915.098	0.214
253.15	21921	916.119	0.214
253.15	24088.4	917.274	0.214
253.15	25989.8	918.275	0.214
253.15	27826.7	919.23	0.214
253.15	29745.9	920.223	0.214
273.15	97.87	885.25	0.207
273.15	1027.82	885.881	0.207
273.15	1996.92	886.534	0.207
273.15	4081.7	887.926	0.207
273.15	5913.44	889.129	0.207
273.15	8004.24	890.482	0.207
273.15	9932.36	891.714	0.207
273.15	11879.8	892.948	0.207
273.15	13887.7	894.195	0.207
273.15	16098.5	895.56	0.209
273.15	18098.9	896.771	0.209
273.15	19969.2	897.897	0.209
273.15	21859.8	899.011	0.209
273.15	23914	900.215	0.209
273.15	25979.6	901.41	0.209
273.15	28069.5	902.607	0.21
273.15	30122.7	903.766	0.21
293.15	99.87	866.733	0.202
293.15	1127.75	867.518	0.203
293.15	2021.41	868.196	0.203
293.15	3955.95	869.643	0.203
293.15	6107.05	871.23	0.203
293.15	8032.84	872.623	0.203
293.15	9984.75	874.014	0.203
293.15	12114.3	875.512	0.205
293.15	13946.9	876.779	0.205
293.15	15848.7	878.081	0.205
293.15	17969.1	879.506	0.205
293.15	19990.5	880.848	0.205
293.15	22236.4	882.319	0.205
293.15	23980.9	883.441	0.205
293.15	25908.5	884.671	0.205
293.15	27990.5	885.976	0.207
293.15	30011	887.242	0.207
313.15	100.25	848.035	0.198
313.15	1103.1	848.903	0.198
313.15	2030.62	849.693	0.198
313.15	3897.28	851.277	0.198
313.15	6141.83	853.137	0.198
313.15	7925.24	854.59	0.198
313.15	9859.02	856.142	0.2
313.15	11934.7	857.774	0.2
313.15	13950.3	859.327	0.2
313.15	16069.1	860.941	0.2
313.15	17874.1	862.289	0.2
313.15	19838.4	863.738	0.2
313.15	22114.3	865.383	0.202
313.15	24096.9	866.799	0.202
313.15	25913.1	868.068	0.202
313.15	28004.7	869.523	0.203
313.15	29965.5	870.863	0.203
333.15	98.96	829.055	0.194
333.15	1101.01	830.042	0.194
333.15	2134.31	831.05	0.194
333.15	4003.84	832.841	0.194
333.15	6105.69	834.814	0.194
333.15	8004.97	836.556	0.196
333.15	9960.27	838.314	0.196
333.15	12120.5	840.218	0.196
333.15	14111.2	841.938	0.196
333.15	15856.9	843.417	0.196
333.15	18129.1	845.312	0.198
333.15	19859.7	846.724	0.198
333.15	22144	848.558	0.198
333.15	24050.5	850.059	0.198
333.15	25886.5	851.479	0.198
333.15	28037.1	853.128	0.198
333.15	29895	854.529	0.198
353.15	100.22	809.674	0.189
353.15	1169.9	810.881	0.189
353.15	2003.6	811.814	0.189
353.15	4142.5	814.153	0.189
353.15	6005.54	816.142	0.191
353.15	8141.3	818.365	0.191
353.15	10003.5	820.255	0.191
353.15	12008.2	822.24	0.191
353.15	14198.4	824.368	0.191
353.15	16142.2	826.212	0.193
353.15	18101.4	828.027	0.193
353.15	19916.8	829.683	0.193
353.15	22137.5	831.662	0.194
353.15	24034	833.323	0.194
353.15	26059	835.06	0.195
353.15	28105.1	836.785	0.196
353.15	29954.1	838.316	0.196
373.15	1259.86	791.299	0.185
373.15	2065.8	792.34	0.185
373.15	3870.71	794.611	0.185
373.15	6198.3	797.456	0.187
373.15	8095.93	799.709	0.187
373.15	9917.32	801.809	0.187
373.15	12114.5	804.274	0.187
373.15	13933.5	806.263	0.189
373.15	16020	808.493	0.189
373.15	18023.1	810.573	0.189
373.15	19927.2	812.508	0.189
373.15	22108	814.677	0.189
373.15	23970.2	816.486	0.191
373.15	25950.1	818.372	0.191
373.15	27873.7	820.167	0.191
373.15	29906.8	822.029	0.191
393.15	1097.43	770.672	0.18
393.15	1998.69	772.03	0.18
393.15	4084.58	775.078	0.182
393.15	6214.76	778.084	0.182
393.15	8059.27	780.589	0.182
393.15	9988.38	783.137	0.182
393.15	12133.6	785.871	0.184
393.15	14051.3	788.257	0.184
393.15	16078	790.683	0.185
393.15	18011.7	792.945	0.185
393.15	19811.1	794.994	0.185
393.15	22109.5	797.55	0.187
393.15	23923.1	799.514	0.187
393.15	25870.2	801.576	0.187
393.15	27974.2	803.747	0.187
393.15	29891.1	805.692	0.189
413.15	1099.07	749.389	0.176
413.15	1960.79	750.924	0.176
413.15	4038.31	754.503	0.176
413.15	6026.64	757.773	0.178
413.15	8189.08	761.18	0.178
413.15	9852.03	763.702	0.178
413.15	12116.7	767.016	0.18
413.15	14167.5	769.904	0.18
413.15	16108.4	772.544	0.18
413.15	18095.4	775.165	0.182
413.15	20103.8	777.733	0.182
413.15	22151.6	780.275	0.182
413.15	24008.6	782.518	0.182
413.15	25995.6	784.857	0.182
413.15	27793.4	786.922	0.184
413.15	29814.7	789.193	0.184
433.15	1101.78	726.984	0.171
433.15	1976.67	728.858	0.171
433.15	4084.44	733.177	0.171
433.15	6154.5	737.18	0.173
433.15	8078.74	740.731	0.173
433.15	9952.57	744.032	0.173
433.15	11979.8	747.451	0.175
433.15	13969.1	750.677	0.176
433.15	16091.1	753.964	0.176
433.15	17960.7	756.765	0.178
433.15	19890.3	759.561	0.178
433.15	22082.3	762.624	0.178
433.15	24002.2	765.215	0.18
433.15	26048.9	767.899	0.18
433.15	27835.5	770.185	0.18
433.15	29992.7	772.844	0.18
453.15	1107.48	703.102	0.165
453.15	2037.85	705.548	0.167
453.15	4185.27	710.874	0.167
453.15	6060.45	715.218	0.169
453.15	8005.22	719.474	0.169
453.15	9870.31	723.328	0.169
453.15	12115.3	727.721	0.171
453.15	14139.1	731.482	0.171
453.15	16026.6	734.835	0.171
453.15	17927.8	738.09	0.173
453.15	20153	741.727	0.173
453.15	22071.1	744.756	0.173
453.15	24056.9	747.767	0.175
453.15	26028.8	750.661	0.175
453.15	27966.3	753.404	0.176
453.15	29817	755.955	0.177
473.15	1104.44	677.2	0.16
473.15	2031.33	680.289	0.16
473.15	4033.85	686.456	0.162
473.15	6024.42	692.111	0.162
473.15	7930.82	697.122	0.164
473.15	10106.6	702.459	0.164
473.15	11931.2	706.639	0.166
473.15	13958.7	711.045	0.167
473.15	16004.3	715.254	0.168
473.15	17878.3	718.918	0.169
473.15	19844.4	722.599	0.169
473.15	22087.7	726.587	0.171
473.15	24074.3	729.989	0.171
473.15	26037.6	733.203	0.171
473.15	27839.8	736.071	0.173
473.15	29805.8	739.091	0.173

System: toluene; phases: Liquid
Fixed: Temperature, K = 293.15
Property: Mass density, kg/m3 (Liquid); method: Buoyancy - hydrostatic balance with magnetic suspension - one sinker
Pressure, kPa	Mass density, kg/m3	uncertainty
1967.02	868.206	0.203
4003.33	869.731	0.203
6031.59	871.224	0.203
8164.07	872.766	0.203
10007.9	874.081	0.203
12005.4	875.479	0.205
13874.4	876.778	0.205
16014.7	878.24	0.205
18021.5	879.584	0.205
19968.9	880.88	0.205
21348.5	881.783	0.205
23456.7	883.155	0.205
25005.3	884.147	0.205
27838.6	885.935	0.207
28371.6	886.271	0.207

System: toluene; phases: Liquid
Fixed: Temperature, K = 293.15
Property: Mass density, kg/m3 (Liquid); method: Buoyancy - hydrostatic balance with magnetic suspension - one sinker
Pressure, kPa	Mass density, kg/m3	uncertainty
101.56	866.808	0.203
1103.13	867.572	0.203
2003.58	868.257	0.203
4004.46	869.753	0.203
5994.96	871.216	0.203
8180.3	872.799	0.203
10026.5	874.114	0.203
12189.8	875.631	0.205
14049.2	876.921	0.205
16152.6	878.35	0.205
18058.2	879.633	0.205
20012.4	880.925	0.205
21971.5	882.207	0.205
24105.2	883.586	0.205
26065.5	884.837	0.205
28091.2	886.104	0.207
29913.6	887.239	0.207

System: ethanol; phases: Liquid
Property: Mass density, kg/m3 (Liquid); method: Buoyancy - hydrostatic balance with magnetic suspension - one sinker
Temperature, K	Pressure, kPa	Mass density, kg/m3	uncertainty
233.15	103.29	840.318	0.196
233.15	1104.68	840.959	0.196
233.15	2004.58	841.531	0.196
233.15	4076.78	842.835	0.196
233.15	6134.09	844.107	0.196
233.15	8092.61	845.306	0.198
233.15	10007.2	846.455	0.198
233.15	12136.6	847.721	0.198
233.15	14138.7	848.897	0.198
233.15	16099.1	850.035	0.198
233.15	18082	851.168	0.198
233.15	20011.3	852.258	0.198
233.15	22095.7	853.419	0.198
233.15	24039.9	854.493	0.198
233.15	25991	855.559	0.2
233.15	27977.8	856.635	0.2
233.15	29956.3	857.691	0.2
253.15	102.67	823.303	0.191
253.15	1104.14	824.013	0.191
253.15	2003.89	824.651	0.191
253.15	4116.44	826.119	0.193
253.15	6065.68	827.455	0.193
253.15	8137.55	828.849	0.193
253.15	10136.5	830.174	0.193
253.15	12071.9	831.443	0.194
253.15	14126.2	832.763	0.194
253.15	16132.9	834.037	0.194
253.15	17950	835.17	0.195
253.15	19862.6	836.357	0.196
253.15	22054.8	837.687	0.196
253.15	23993	838.859	0.196
253.15	25929	840.004	0.196
253.15	27984.9	841.212	0.196
253.15	30008.7	842.379	0.196
273.15	102.91	806.406	0.189
273.15	1098.98	807.191	0.189
273.15	2003.89	807.905	0.189
273.15	4161.84	809.57	0.189
273.15	6026.59	810.981	0.189
273.15	8023.17	812.466	0.189
273.15	10006.4	813.916	0.189
273.15	12106.7	815.421	0.191
273.15	13929.1	816.718	0.191
273.15	15980.4	818.142	0.191
273.15	17875.1	819.435	0.191
273.15	20011.4	820.885	0.191
273.15	21848.1	822.104	0.191
273.15	24049.9	823.548	0.191
273.15	25880	824.728	0.191
273.15	27864.9	826.002	0.193
273.15	29956.2	827.312	0.193
293.15	103.01	789.433	0.184
293.15	1103.94	790.313	0.184
293.15	2004.04	791.096	0.184
293.15	4147.78	792.937	0.185
293.15	6147.47	794.616	0.185
293.15	8110.82	796.232	0.186
293.15	10007.7	797.758	0.187
293.15	11859.5	799.229	0.187
293.15	13879.8	800.802	0.187
293.15	15954.5	802.391	0.187
293.15	17852	803.817	0.187
293.15	19966.9	805.383	0.189
293.15	21842.5	806.743	0.189
293.15	23888.1	808.2	0.189
293.15	25962.8	809.658	0.189
293.15	27862.2	810.975	0.189
293.15	30030.8	812.452	0.189
313.15	102.5	772.101	0.18
313.15	1103.52	773.094	0.18
313.15	2103.51	774.069	0.18
313.15	4115.98	775.994	0.182
313.15	6079.66	777.835	0.182
313.15	8130.36	779.714	0.182
313.15	10007.3	781.394	0.182
313.15	12116	783.241	0.182
313.15	14081.2	784.928	0.182
313.15	16092.2	786.617	0.184
313.15	18055.6	788.235	0.184
313.15	19919.4	789.747	0.184
313.15	22045.5	791.432	0.184
313.15	24129.9	793.056	0.184
313.15	26106.7	794.571	0.185
313.15	27987.3	795.987	0.186
313.15	29995.3	797.476	0.186
333.15	1102.49	755.18	0.177
333.15	2002.73	756.173	0.177
333.15	4085.91	758.43	0.178
333.15	6133.01	760.589	0.178
333.15	8031.91	762.538	0.178
333.15	9967.1	764.48	0.178
333.15	12099	766.557	0.18
333.15	13992.4	768.358	0.18
333.15	16124.2	770.342	0.18
333.15	18019	772.071	0.18
333.15	20012.3	773.85	0.18
333.15	22049.8	775.625	0.182
333.15	24135.8	777.409	0.182
333.15	26129.8	779.08	0.182
333.15	28069.3	780.679	0.182
333.15	30017.8	782.258	0.182
353.15	1101.8	736.102	0.173
353.15	2002.93	737.255	0.173
353.15	4009.55	739.749	0.173
353.15	5946.09	742.072	0.173
353.15	8005.64	744.473	0.173
353.15	10091.5	746.834	0.175
353.15	12107.6	749.042	0.175
353.15	14010.1	751.074	0.175
353.15	16061.4	753.214	0.176
353.15	18135.5	755.321	0.177
353.15	20136.9	757.302	0.177
353.15	22100.3	759.195	0.178
353.15	24062.4	761.047	0.178
353.15	26068.7	762.906	0.178
353.15	28075.1	764.73	0.178
353.15	30016.5	766.442	0.18
373.15	1102.9	715.263	0.169
373.15	2003.39	716.613	0.169
373.15	4088.27	719.636	0.169
373.15	6108.7	722.45	0.169
373.15	8075.99	725.091	0.171
373.15	10096.5	727.71	0.171
373.15	12124.5	730.256	0.171
373.15	14043.6	732.583	0.171
373.15	16078.2	734.983	0.171
373.15	18121.9	737.319	0.173
373.15	20098.2	739.516	0.173
373.15	22115.7	741.702	0.173
373.15	24049	743.742	0.173
373.15	26068.3	745.822	0.175
373.15	28108.4	747.871	0.175
373.15	29941.7	749.678	0.175
393.15	1102.9	691.923	0.162
393.15	2003.62	693.559	0.163
393.15	3981.03	697.012	0.164
393.15	6085.61	700.514	0.164
393.15	8006.06	703.56	0.165
393.15	10040.3	706.659	0.166
393.15	12072.5	709.623	0.167
393.15	14119.4	712.504	0.167
393.15	16086.2	715.168	0.169
393.15	18080.8	717.782	0.169
393.15	19899.6	720.097	0.169
393.15	22039.2	722.726	0.169
393.15	24041	725.121	0.171
393.15	26092.4	727.505	0.171
393.15	28069.7	729.738	0.171
393.15	29851.2	731.71	0.171
413.15	1102.62	665.097	0.158
413.15	2002.82	667.194	0.158
413.15	4113.3	671.781	0.158
413.15	6094.15	675.838	0.16
413.15	8091.48	679.694	0.16
413.15	10043.9	683.283	0.16
413.15	11973.1	686.66	0.162
413.15	14084.8	690.174	0.162
413.15	16052.9	693.316	0.162
413.15	18080.2	696.427	0.164
413.15	20002.6	699.262	0.164
413.15	22068.8	702.204	0.164
413.15	24048.9	704.916	0.165
413.15	26035.1	707.559	0.166
413.15	27915.5	709.988	0.167
413.15	30020.8	712.618	0.167
433.15	2003.29	636.052	0.152
433.15	4004.87	641.895	0.152
433.15	6117.66	647.513	0.154
433.15	7970.25	652.088	0.154
433.15	10076.3	656.927	0.156
433.15	12092.5	661.27	0.156
433.15	14023.8	665.195	0.158
433.15	16095.1	669.184	0.158
433.15	17956.1	672.597	0.158
433.15	20024.8	676.22	0.16
433.15	22076.1	679.658	0.16
433.15	23970.5	682.703	0.16
433.15	26097	685.993	0.162
433.15	27970.8	688.786	0.162
433.15	29931.2	691.61	0.162
453.15	2000.69	597.505	0.144
453.15	4003.08	606.126	0.146
453.15	5998.33	613.615	0.146
453.15	7995.3	620.308	0.148
453.15	10006.8	626.429	0.15
453.15	12085.8	632.177	0.15
453.15	14048.3	637.222	0.152
453.15	15953.8	641.798	0.152
453.15	17939	646.288	0.154
453.15	20011.8	650.704	0.154
453.15	22018	654.751	0.154
453.15	24140.4	658.813	0.156
453.15	25981.5	662.178	0.156
453.15	28126.7	665.939	0.158
453.15	30017.4	669.115	0.158
473.15	4002.59	562.328	0.136
473.15	6007.14	573.872	0.138
473.15	8001.41	583.438	0.14
473.15	10005.6	591.752	0.141
473.15	12008.7	599.085	0.143
473.15	14092.6	605.96	0.145
473.15	15976.7	611.66	0.145
473.15	18013.1	617.325	0.147
473.15	20009.6	622.485	0.147
473.15	21972.7	627.259	0.149
473.15	24020	631.94	0.149
473.15	25868.1	635.925	0.151
473.15	28002.2	640.289	0.151
473.15	30014.5	644.229	0.151
