Measured thermophysical data. Standard enthalpy of formation of copper(II) pivalate
Source: J. Chem. Thermodyn., 2019, 10.1016/j.jct.2018.11.016
Compound 1: copper(II) oxide, CuO, InChI=1S/Cu.O/q+2;-2
Compound 2: carbon dioxide, CO2, InChI=1S/CO2/c2-1-3
Compound 3: water, H2O, InChI=1S/H2O/h1H2
Compound 4: oxygen, O2, InChI=1S/O2/c1-2
Compound 5: copper, Cu, InChI=1S/Cu
Compound 6: hydrogen, H2, InChI=1S/H2/h1H
Compound 7: graphite, C
Compound 8: copper(II) pivalate, C10H18CuO4, InChI=1S/2C5H10O2.Cu/c2*1-5(2,3)4(6)7;/h2*1-3H3,(H,6,7);/q;;+2/p-2

Reaction: 1 copper(II) oxide + -1 copper(II) pivalate + 10 carbon dioxide + 9 water + -13 oxygen
Property: Specific internal energy of reaction at constant volume, J/g
-21025

Reaction: -1 copper + 1 copper(II) pivalate + -9 hydrogen + -10 graphite + -2 oxygen
Property: Molar enthalpy of reaction, kJ/mol
-1069
