Measured thermophysical data. Thermophysical properties of oxygenated thiophene derivatives: Experimental data and modelling
Source: J. Chem. Thermodyn., 2017, 10.1016/j.jct.2017.07.008
Compound 1: 2-thiophenemethanol, C5H6OS, InChI=1S/C5H6OS/c6-4-5-2-1-3-7-5/h1-3,6H,4H2, purity 99.4%
Compound 2: 2-thiophenealdehyde, C5H4OS, InChI=1S/C5H4OS/c6-4-5-2-1-3-7-5/h1-4H, purity 99.2%

System: 2-thiophenemethanol; phases: Liquid, Gas
Property: Vapor or sublimation pressure, kPa (Liquid); method: Ebulliometric method (Recirculating still)
Temperature, K	Vapor or sublimation pressure, kPa	uncertainty
351.15	0.545	0.1
354.25	0.665	0.1
357.17	0.785	0.1
361.3	1.025	0.1
365.19	1.275	0.1
366.38	1.355	0.1
367.49	1.415	0.1
368.14	1.475	0.1
369.77	1.61	0.1
372.56	1.88	0.1
373.21	1.96	0.1
377.74	2.44	0.1
382.13	3.06	0.1
386.07	3.675	0.1
387.56	3.93	0.101
388.56	4.15	0.101
391.84	4.77	0.101
393.87	5.25	0.101
397.94	6.25	0.101
399.72	6.8	0.101
402.41	7.6	0.101
404.37	8.25	0.101
406.56	9	0.101
408.27	9.665	0.102
411.5	10.955	0.102
415.06	12.595	0.102
416.56	13.375	0.103
418.63	14.475	0.103
420.23	15.355	0.103
422.21	16.51	0.104
424.64	18.05	0.104
426.07	19	0.105
428.27	20.525	0.105
429.37	21.335	0.106
431.17	22.765	0.106
432.56	23.875	0.106
433.65	24.78	0.107

System: 2-thiophenemethanol; phases: Liquid
Property: Mass density, kg/m3 (Liquid); method: Vibrating tube method
Pressure, kPa	Temperature, K	Mass density, kg/m3	uncertainty
100	283.15	1215.5	0.54
100	288.15	1211.11	0.54
100	293.15	1206.69	0.54
100	298.15	1202.27	0.54
100	303.15	1197.82	0.54
100	308.15	1193.36	0.53
100	313.15	1188.89	0.53
100	318.15	1184.39	0.53
100	323.15	1179.88	0.53
100	328.15	1175.35	0.53
100	333.15	1170.8	0.53
100	338.15	1166.23	0.53
2000	283.15	1216.47	0.54
2000	288.15	1212.1	0.54
2000	293.15	1207.7	0.54
2000	298.15	1203.3	0.54
2000	303.15	1198.88	0.54
2000	308.15	1194.44	0.54
2000	313.15	1189.99	0.54
2000	318.15	1185.52	0.54
2000	323.15	1181.03	0.54
2000	328.15	1176.53	0.54
2000	333.15	1172	0.54
2000	338.15	1167.46	0.53
5000	283.15	1217.99	0.55
5000	288.15	1213.64	0.55
5000	293.15	1209.28	0.55
5000	298.15	1204.91	0.55
5000	303.15	1200.52	0.55
5000	308.15	1196.12	0.55
5000	313.15	1191.7	0.55
5000	318.15	1187.27	0.55
5000	323.15	1182.82	0.54
5000	328.15	1178.35	0.54
5000	333.15	1173.87	0.54
5000	338.15	1169.37	0.54
7000	283.15	1218.98	0.56
7000	288.15	1214.66	0.56
7000	293.15	1210.32	0.56
7000	298.15	1205.97	0.56
7000	303.15	1201.6	0.56
7000	308.15	1197.22	0.55
7000	313.15	1192.83	0.55
7000	318.15	1188.42	0.55
7000	323.15	1183.99	0.55
7000	328.15	1179.55	0.55
7000	333.15	1175.1	0.55
7000	338.15	1170.63	0.55
10000	283.15	1220.46	0.57
10000	288.15	1216.16	0.57
10000	293.15	1211.85	0.57
10000	298.15	1207.53	0.57
10000	303.15	1203.2	0.57
10000	308.15	1198.85	0.56
10000	313.15	1194.49	0.56
10000	318.15	1190.12	0.56
10000	323.15	1185.73	0.56
10000	328.15	1181.33	0.56
10000	333.15	1176.91	0.56
10000	338.15	1172.48	0.55
15000	283.15	1222.87	0.59
15000	288.15	1218.62	0.59
15000	293.15	1214.36	0.59
15000	298.15	1210.08	0.59
15000	303.15	1205.8	0.59
15000	308.15	1201.5	0.58
15000	313.15	1197.2	0.58
15000	318.15	1192.88	0.58
15000	323.15	1188.55	0.58
15000	328.15	1184.21	0.57
15000	333.15	1179.85	0.57
15000	338.15	1175.48	0.57
20000	283.15	1225.22	0.62
20000	288.15	1221.01	0.62
20000	293.15	1216.8	0.61
20000	298.15	1212.57	0.61
20000	303.15	1208.33	0.61
20000	308.15	1204.09	0.6
20000	313.15	1199.83	0.6
20000	318.15	1195.57	0.6
20000	323.15	1191.29	0.6
20000	328.15	1187	0.59
20000	333.15	1182.7	0.59
20000	338.15	1178.39	0.59
25000	283.15	1227.52	0.64
25000	288.15	1223.35	0.64
25000	293.15	1219.18	0.64
25000	298.15	1215	0.63
25000	303.15	1210.8	0.63
25000	308.15	1206.61	0.63
25000	313.15	1202.4	0.62
25000	318.15	1198.18	0.62
25000	323.15	1193.95	0.62
25000	328.15	1189.72	0.61
25000	333.15	1185.47	0.61
25000	338.15	1181.22	0.61
30000	283.15	1229.77	0.67
30000	288.15	1225.64	0.67
30000	293.15	1221.5	0.66
30000	298.15	1217.36	0.66
30000	303.15	1213.21	0.66
30000	308.15	1209.06	0.65
30000	313.15	1204.9	0.65
30000	318.15	1200.72	0.64
30000	323.15	1196.55	0.64
30000	328.15	1192.36	0.64
30000	333.15	1188.16	0.63
30000	338.15	1183.96	0.63
35000	283.15	1231.96	0.7
35000	288.15	1227.87	0.7
35000	293.15	1223.78	0.69
35000	298.15	1219.67	0.69
35000	303.15	1215.57	0.68
35000	308.15	1211.45	0.68
35000	313.15	1207.33	0.67
35000	318.15	1203.2	0.67
35000	323.15	1199.07	0.66
35000	328.15	1194.93	0.66
35000	333.15	1190.78	0.66
35000	338.15	1186.63	0.65
40000	283.15	1234.11	0.74
40000	288.15	1230.06	0.73
40000	293.15	1226	0.72
40000	298.15	1221.93	0.72
40000	303.15	1217.86	0.71
40000	308.15	1213.79	0.71
40000	313.15	1209.71	0.7
40000	318.15	1205.62	0.7
40000	323.15	1201.53	0.69
40000	328.15	1197.44	0.69
40000	333.15	1193.33	0.68
40000	338.15	1189.22	0.68
45000	283.15	1236.21	0.77
45000	288.15	1232.19	0.76
45000	293.15	1228.17	0.76
45000	298.15	1224.14	0.75
45000	303.15	1220.11	0.75
45000	308.15	1216.07	0.74
45000	313.15	1212.03	0.73
45000	318.15	1207.98	0.73
45000	323.15	1203.93	0.72
45000	328.15	1199.88	0.71
45000	333.15	1195.82	0.71
45000	338.15	1191.75	0.7
50000	283.15	1238.27	0.81
50000	288.15	1234.29	0.8
50000	293.15	1230.29	0.79
50000	298.15	1226.3	0.79
50000	303.15	1222.3	0.78
50000	308.15	1218.3	0.77
50000	313.15	1214.3	0.76
50000	318.15	1210.29	0.76
50000	323.15	1206.28	0.75
50000	328.15	1202.26	0.74
50000	333.15	1198.24	0.74
50000	338.15	1194.21	0.73
55000	283.15	1240.29	0.84
55000	288.15	1236.34	0.84
55000	293.15	1232.38	0.83
55000	298.15	1228.41	0.82
55000	303.15	1224.45	0.81
55000	308.15	1220.48	0.81
55000	313.15	1216.51	0.8
55000	318.15	1212.54	0.79
55000	323.15	1208.56	0.78
55000	328.15	1204.58	0.78
55000	333.15	1200.6	0.77
55000	338.15	1196.62	0.76
60000	283.15	1242.27	0.88
60000	288.15	1238.35	0.87
60000	293.15	1234.42	0.87
60000	298.15	1230.48	0.86
60000	303.15	1226.55	0.85
60000	308.15	1222.62	0.84
60000	313.15	1218.68	0.83
60000	318.15	1214.74	0.82
60000	323.15	1210.8	0.82
60000	328.15	1206.86	0.81
60000	333.15	1202.91	0.8
60000	338.15	1198.96	0.79
65000	283.15	1244.21	0.92
65000	288.15	1240.32	0.91
65000	293.15	1236.41	0.9
65000	298.15	1232.51	0.9
65000	303.15	1228.61	0.89
65000	308.15	1224.71	0.88
65000	313.15	1220.8	0.87
65000	318.15	1216.9	0.86
65000	323.15	1212.99	0.85
65000	328.15	1209.08	0.84
65000	333.15	1205.17	0.83
65000	338.15	1201.25	0.82

System: 2-thiophenemethanol; phases: Liquid
Fixed: Pressure, kPa = 100
Fixed: Frequency, MHz = 3
Property: Speed of sound, m/s (Liquid); method: Single path-length method
Temperature, K	Speed of sound, m/s	uncertainty
283.15	1545.7	0.78
285.65	1538.21	0.78
288.15	1530.83	0.78
290.65	1523.41	0.78
293.15	1516.03	0.78
295.65	1508.63	0.78
298.15	1501.22	0.78
300.65	1493.9	0.78
303.15	1486.59	0.78
305.65	1479.3	0.78
308.15	1472.04	0.78
310.65	1464.83	0.78
313.15	1457.6	0.78
315.65	1450.39	0.78
318.15	1443.2	0.78
320.65	1436.01	0.78
323.15	1428.83	0.78
325.65	1421.64	0.78
328.15	1414.47	0.78
330.65	1407.3	0.78
333.15	1400.12	0.78
335.65	1392.94	0.78
338.15	1385.8	0.78

System: 2-thiophenemethanol; phases: Liquid
Fixed: Pressure, kPa = 100
Property: Refractive index (Na D-line) (Liquid); method: Standard Abbe refractometry
Temperature, K	Refractive index (Na D-line)	uncertainty
283.15	1.5713	0.0004
285.65	1.5701	0.0004
288.15	1.569	0.0004
290.65	1.5679	0.0004
293.15	1.5668	0.0004
295.65	1.5657	0.0004
298.15	1.5646	0.0004
300.65	1.5635	0.0004
303.15	1.5624	0.0004
305.65	1.5613	0.0004
308.15	1.5602	0.0004
310.65	1.559	0.0004
313.15	1.5579	0.0004
315.65	1.5568	0.0004
318.15	1.5557	0.0004
320.65	1.5546	0.0004
323.15	1.5535	0.0004
325.65	1.5524	0.0004
328.15	1.5513	0.0004
330.65	1.5502	0.0004
333.15	1.5491	0.0004
335.65	1.548	0.0004
338.15	1.5468	0.0004

System: 2-thiophenemethanol; phases: Liquid, Air at 1 atmosphere
Property: Surface tension liquid-gas, N/m (Liquid); method: Drop volume
Temperature, K	Surface tension liquid-gas, N/m	uncertainty
283.15	0.0452	0.0003
285.65	0.04493	0.0003
288.15	0.04461	0.0003
290.65	0.04439	0.0003
293.15	0.04413	0.0003
295.65	0.04383	0.0003
298.15	0.04356	0.0003
300.65	0.04329	0.0003
303.15	0.04304	0.0003
305.65	0.04278	0.0003
308.15	0.04254	0.0003
310.65	0.04227	0.00029
313.15	0.04196	0.00029
315.65	0.04173	0.00029
318.15	0.04148	0.00029
320.65	0.04122	0.00029
323.15	0.04095	0.00029
325.65	0.04067	0.00029
328.15	0.0404	0.00029
330.65	0.0401	0.00029
333.15	0.0398	0.00029
335.65	0.03951	0.00029
338.15	0.03924	0.00029

System: 2-thiophenemethanol; phases: Liquid
Fixed: Pressure, kPa = 100
Property: Viscosity, Pa*s (Liquid); method: Capillary tube (Ostwald; Ubbelohde) method
Temperature, K	Viscosity, Pa*s	uncertainty
283.15	0.013161	0.000148
285.65	0.011811	0.000133
288.15	0.010601	0.00012
290.65	0.0095777	0.0001083
293.15	0.008703	9.87e-05
295.65	0.0079132	8.99e-05
298.15	0.0072303	8.24e-05
300.65	0.0066074	7.55e-05
303.15	0.0060791	6.97e-05
305.65	0.0056091	6.45e-05
308.15	0.0051796	5.98e-05
310.65	0.0047953	5.55e-05
313.15	0.0044548	5.16e-05
315.65	0.0041467	4.81e-05
318.15	0.0038696	4.49e-05
320.65	0.0036152	4.2e-05
323.15	0.003355	3.9e-05
325.65	0.0031697	3.68e-05
328.15	0.0029566	3.44e-05
330.65	0.002785	3.24e-05
333.15	0.0026277	3.06e-05
335.65	0.0024858	2.9e-05
338.15	0.0023716	2.77e-05

System: 2-thiophenemethanol; phases: Liquid
Fixed: Pressure, kPa = 100
Property: Mass density, kg/m3 (Liquid); method: Vibrating tube method
Temperature, K	Mass density, kg/m3	uncertainty
283.15	1215.5	0.54
285.65	1213.3	0.54
288.15	1211.08	0.54
290.65	1208.87	0.54
293.15	1206.66	0.54
295.65	1204.45	0.54
298.15	1202.23	0.54
300.65	1200.01	0.54
303.15	1197.79	0.54
305.65	1195.57	0.54
308.15	1193.34	0.53
310.65	1191.11	0.53
313.15	1188.87	0.53
315.65	1186.63	0.53
318.15	1184.39	0.53
320.65	1182.14	0.53
323.15	1179.88	0.53
325.65	1177.63	0.53
328.15	1175.36	0.53
330.65	1173.09	0.53
333.15	1170.82	0.53
335.65	1168.53	0.53
338.15	1166.25	0.53

System: 2-thiophenealdehyde; phases: Liquid, Gas
Property: Vapor or sublimation pressure, kPa (Liquid); method: Ebulliometric method (Recirculating still)
Temperature, K	Vapor or sublimation pressure, kPa	uncertainty
336.42	0.66	0.1
340.7	0.85	0.1
345.63	1.135	0.1
349.65	1.4	0.1
353.7	1.725	0.1
356.19	1.915	0.1
359.55	2.265	0.1
361.67	2.55	0.1
364.68	2.925	0.1
366.94	3.265	0.1
368.98	3.6	0.101
372.07	4.14	0.101
374.68	4.645	0.101
376.79	5.065	0.101
377.74	5.3	0.101
379.92	5.8	0.101
382.69	6.5	0.101
386.72	7.585	0.101
389.41	8.415	0.101
391.94	9.285	0.102
394.82	10.41	0.102
399.42	12.295	0.102
401.02	13.105	0.103
403	14.06	0.103
404.9	15.05	0.103
407.06	16.145	0.103
408.95	17.25	0.104
411.16	18.6	0.104
412.82	19.665	0.105
413.9	20.405	0.105
415.91	21.805	0.106
418.01	23.365	0.107
420.05	24.95	0.107
422.07	26.6	0.108
424.04	28.245	0.109
426.15	30.115	0.11
428.14	32.005	0.111
429.02	32.925	0.111
430.17	34.05	0.112
431.54	35.465	0.113
433.17	37.2	0.113

System: 2-thiophenealdehyde; phases: Liquid
Property: Mass density, kg/m3 (Liquid); method: Vibrating tube method
Pressure, kPa	Temperature, K	Mass density, kg/m3	uncertainty
100	283.15	1232.47	0.58
100	288.15	1227.39	0.57
100	293.15	1222.36	0.57
100	298.15	1217.32	0.57
100	303.15	1212.29	0.57
100	308.15	1207.25	0.57
100	313.15	1202.21	0.57
100	318.15	1197.16	0.57
100	323.15	1192.12	0.56
100	328.15	1187.07	0.56
100	333.15	1182.02	0.56
100	338.15	1176.97	0.56
2000	283.15	1233.56	0.58
2000	288.15	1228.51	0.58
2000	293.15	1223.5	0.58
2000	298.15	1218.49	0.58
2000	303.15	1213.48	0.58
2000	308.15	1208.47	0.58
2000	313.15	1203.46	0.57
2000	318.15	1198.45	0.57
2000	323.15	1193.44	0.57
2000	328.15	1188.42	0.57
2000	333.15	1183.41	0.57
2000	338.15	1178.39	0.57
5000	283.15	1235.26	0.6
5000	288.15	1230.24	0.6
5000	293.15	1225.27	0.59
5000	298.15	1220.31	0.59
5000	303.15	1215.34	0.59
5000	308.15	1210.38	0.59
5000	313.15	1205.41	0.59
5000	318.15	1200.45	0.58
5000	323.15	1195.49	0.58
5000	328.15	1190.52	0.58
5000	333.15	1185.56	0.58
5000	338.15	1180.59	0.58
7000	283.15	1236.39	0.61
7000	288.15	1231.38	0.61
7000	293.15	1226.44	0.6
7000	298.15	1221.5	0.6
7000	303.15	1216.56	0.6
7000	308.15	1211.63	0.6
7000	313.15	1206.7	0.59
7000	318.15	1201.76	0.59
7000	323.15	1196.83	0.59
7000	328.15	1191.9	0.59
7000	333.15	1186.96	0.58
7000	338.15	1182.03	0.58
10000	283.15	1238.06	0.62
10000	288.15	1233.07	0.62
10000	293.15	1228.16	0.62
10000	298.15	1223.27	0.62
10000	303.15	1218.37	0.61
10000	308.15	1213.48	0.61
10000	313.15	1208.59	0.61
10000	318.15	1203.7	0.6
10000	323.15	1198.82	0.6
10000	328.15	1193.93	0.6
10000	333.15	1189.04	0.6
10000	338.15	1184.16	0.59
15000	283.15	1240.76	0.65
15000	288.15	1235.82	0.65
15000	293.15	1230.98	0.64
15000	298.15	1226.15	0.64
15000	303.15	1221.32	0.64
15000	308.15	1216.49	0.63
15000	313.15	1211.67	0.63
15000	318.15	1206.86	0.63
15000	323.15	1202.04	0.62
15000	328.15	1197.23	0.62
15000	333.15	1192.42	0.62
15000	338.15	1187.61	0.61
20000	283.15	1243.38	0.68
20000	288.15	1238.51	0.68
20000	293.15	1233.73	0.67
20000	298.15	1228.95	0.67
20000	303.15	1224.19	0.67
20000	308.15	1219.43	0.66
20000	313.15	1214.67	0.66
20000	318.15	1209.92	0.65
20000	323.15	1205.17	0.65
20000	328.15	1200.43	0.64
20000	333.15	1195.69	0.64
20000	338.15	1190.94	0.64
25000	283.15	1245.94	0.72
25000	288.15	1241.13	0.71
25000	293.15	1236.41	0.7
25000	298.15	1231.69	0.7
25000	303.15	1226.98	0.69
25000	308.15	1222.28	0.69
25000	313.15	1217.59	0.69
25000	318.15	1212.9	0.68
25000	323.15	1208.22	0.68
25000	328.15	1203.54	0.67
25000	333.15	1198.86	0.67
25000	338.15	1194.18	0.66
30000	283.15	1248.47	0.75
30000	288.15	1243.69	0.74
30000	293.15	1239.02	0.74
30000	298.15	1234.36	0.73
30000	303.15	1229.71	0.73
30000	308.15	1225.06	0.72
30000	313.15	1220.43	0.72
30000	318.15	1215.8	0.71
30000	323.15	1211.17	0.7
30000	328.15	1206.56	0.7
30000	333.15	1201.94	0.69
30000	338.15	1197.32	0.69
35000	283.15	1250.93	0.79
35000	288.15	1246.2	0.78
35000	293.15	1241.57	0.77
35000	298.15	1236.96	0.77
35000	303.15	1232.36	0.76
35000	308.15	1227.77	0.75
35000	313.15	1223.19	0.75
35000	318.15	1218.62	0.74
35000	323.15	1214.05	0.73
35000	328.15	1209.49	0.73
35000	333.15	1204.93	0.72
35000	338.15	1200.37	0.72
40000	283.15	1253.33	0.83
40000	288.15	1248.64	0.82
40000	293.15	1244.07	0.81
40000	298.15	1239.51	0.8
40000	303.15	1234.96	0.8
40000	308.15	1230.42	0.79
40000	313.15	1225.89	0.78
40000	318.15	1221.37	0.77
40000	323.15	1216.86	0.77
40000	328.15	1212.35	0.76
40000	333.15	1207.85	0.75
40000	338.15	1203.34	0.75
45000	283.15	1255.69	0.87
45000	288.15	1251.04	0.86
45000	293.15	1246.51	0.85
45000	298.15	1242	0.84
45000	303.15	1237.49	0.83
45000	308.15	1233	0.83
45000	313.15	1228.52	0.82
45000	318.15	1224.05	0.81
45000	323.15	1219.59	0.8
45000	328.15	1215.13	0.79
45000	333.15	1210.68	0.79
45000	338.15	1206.23	0.78
50000	283.15	1258.02	0.91
50000	288.15	1253.38	0.9
50000	293.15	1248.9	0.89
50000	298.15	1244.43	0.88
50000	303.15	1239.97	0.87
50000	308.15	1235.53	0.86
50000	313.15	1231.1	0.85
50000	318.15	1226.67	0.85
50000	323.15	1222.26	0.84
50000	328.15	1217.85	0.83
50000	333.15	1213.45	0.82
50000	338.15	1209.04	0.81
55000	283.15	1260.26	0.95
55000	288.15	1255.68	0.94
55000	293.15	1251.24	0.93
55000	298.15	1246.81	0.92
55000	303.15	1242.4	0.91
55000	308.15	1238	0.9
55000	313.15	1233.61	0.89
55000	318.15	1229.23	0.88
55000	323.15	1224.86	0.87
55000	328.15	1220.5	0.87
55000	333.15	1216.14	0.86
55000	338.15	1211.78	0.85
60000	283.15	1262.44	1
60000	288.15	1257.93	0.99
60000	293.15	1253.53	0.97
60000	298.15	1249.14	0.96
60000	303.15	1244.77	0.95
60000	308.15	1240.41	0.94
60000	313.15	1236.07	0.93
60000	318.15	1231.73	0.92
60000	323.15	1227.41	0.91
60000	328.15	1223.09	0.9
60000	333.15	1218.77	0.89
60000	338.15	1214.46	0.88
65000	283.15	1264.58	1.04
65000	288.15	1260.14	1.03
65000	293.15	1255.77	1.02
65000	298.15	1251.43	1.01
65000	303.15	1247.09	1
65000	308.15	1242.78	0.99
65000	313.15	1238.47	0.98
65000	318.15	1234.18	0.96
65000	323.15	1229.89	0.95
65000	328.15	1225.62	0.94
65000	333.15	1221.34	0.93
65000	338.15	1217.07	0.92

System: 2-thiophenealdehyde; phases: Liquid
Fixed: Pressure, kPa = 100
Fixed: Frequency, MHz = 3
Property: Speed of sound, m/s (Liquid); method: Single path-length method
Temperature, K	Speed of sound, m/s	uncertainty
283.15	1512.81	0.95
285.65	1504.34	0.95
288.15	1495.88	0.95
290.65	1487.44	0.95
293.15	1479.11	0.95
295.65	1470.75	0.95
298.15	1462.39	0.95
300.65	1454.03	0.95
303.15	1445.68	0.95
305.65	1437.35	0.95
308.15	1429.05	0.95
310.65	1420.73	0.95
313.15	1412.43	0.95
315.65	1404.13	0.95
318.15	1395.89	0.95
320.65	1387.58	0.95
323.15	1379.32	0.95
325.65	1371.07	0.95
328.15	1362.8	0.95
330.65	1354.59	0.95
333.15	1346.38	0.95
335.65	1338.2	0.95
338.15	1330.21	0.95

System: 2-thiophenealdehyde; phases: Liquid
Fixed: Pressure, kPa = 100
Property: Refractive index (Na D-line) (Liquid); method: Standard Abbe refractometry
Temperature, K	Refractive index (Na D-line)	uncertainty
283.15	1.5924	0.0004
285.65	1.5912	0.0004
288.15	1.59	0.0004
290.65	1.5888	0.0004
293.15	1.5876	0.0004
295.65	1.5864	0.0004
298.15	1.5853	0.0004
300.65	1.5841	0.0004
303.15	1.5829	0.0004
305.65	1.5817	0.0004
308.15	1.5805	0.0004
310.65	1.5793	0.0004
313.15	1.5781	0.0004
315.65	1.5769	0.0004
318.15	1.5757	0.0004
320.65	1.5745	0.0004
323.15	1.5733	0.0004
325.65	1.5721	0.0004
328.15	1.5709	0.0004
330.65	1.5697	0.0004
333.15	1.5685	0.0004
335.65	1.5674	0.0004
338.15	1.5662	0.0004

System: 2-thiophenealdehyde; phases: Liquid, Air at 1 atmosphere
Property: Surface tension liquid-gas, N/m (Liquid); method: Drop volume
Temperature, K	Surface tension liquid-gas, N/m	uncertainty
283.15	0.04782	0.00034
285.65	0.04752	0.00033
288.15	0.04722	0.00033
290.65	0.04692	0.00033
293.15	0.0466	0.00033
295.65	0.04627	0.00033
298.15	0.04599	0.00033
300.65	0.04568	0.00033
303.15	0.0454	0.00033
305.65	0.04508	0.00033
308.15	0.04475	0.00032
310.65	0.04448	0.00032
313.15	0.04417	0.00032
315.65	0.04389	0.00032
318.15	0.0436	0.00032
320.65	0.04328	0.00032
323.15	0.04301	0.00032
325.65	0.04268	0.00032
328.15	0.04239	0.00032
330.65	0.04209	0.00031
333.15	0.04176	0.00031
335.65	0.04146	0.00031
338.15	0.04121	0.00031

System: 2-thiophenealdehyde; phases: Liquid
Fixed: Pressure, kPa = 100
Property: Viscosity, Pa*s (Liquid); method: Capillary tube (Ostwald; Ubbelohde) method
Temperature, K	Viscosity, Pa*s	uncertainty
283.15	0.0027959	3.34e-05
285.65	0.0026608	3.18e-05
288.15	0.0025128	3e-05
290.65	0.0023864	2.85e-05
293.15	0.0022673	2.71e-05
295.65	0.0021619	2.59e-05
298.15	0.002053	2.46e-05
300.65	0.0019601	2.35e-05
303.15	0.0018754	2.25e-05
305.65	0.0017971	2.16e-05
308.15	0.0017281	2.08e-05
310.65	0.0016545	1.99e-05
313.15	0.0015905	1.91e-05
315.65	0.0015278	1.84e-05
318.15	0.0014726	1.77e-05
320.65	0.0014176	1.71e-05
323.15	0.0013746	1.66e-05
325.65	0.001325	1.6e-05
328.15	0.001275	1.54e-05
330.65	0.0012326	1.49e-05
333.15	0.0011935	1.44e-05
335.65	0.0011552	1.4e-05
338.15	0.0011206	1.36e-05

System: 2-thiophenealdehyde; phases: Liquid
Fixed: Pressure, kPa = 100
Property: Mass density, kg/m3 (Liquid); method: Vibrating tube method
Temperature, K	Mass density, kg/m3	uncertainty
283.15	1232.44	0.58
285.65	1229.92	0.58
288.15	1227.39	0.57
290.65	1224.88	0.57
293.15	1222.35	0.57
295.65	1219.84	0.57
298.15	1217.32	0.57
300.65	1214.8	0.57
303.15	1212.28	0.57
305.65	1209.76	0.57
308.15	1207.25	0.57
310.65	1204.73	0.57
313.15	1202.21	0.57
315.65	1199.69	0.57
318.15	1197.17	0.57
320.65	1194.65	0.56
323.15	1192.12	0.56
325.65	1189.6	0.56
328.15	1187.08	0.56
330.65	1184.55	0.56
333.15	1182.02	0.56
335.65	1179.49	0.56
338.15	1176.97	0.56
