Measured thermophysical data. Nicotinamides: Evaluation of thermochemical experimental properties
Source: J. Chem. Thermodyn., 2016, 10.1016/j.jct.2016.08.002
Compound 1: 2-pyridinecarboxamide, C6H6N2O, InChI=1S/C6H6N2O/c7-6(9)5-3-1-2-4-8-5/h1-4H,(H2,7,9)
Compound 2: 3-pyridinecarboxamide, C6H6N2O, InChI=1S/C6H6N2O/c7-6(9)5-2-1-3-8-4-5/h1-4H,(H2,7,9)
Compound 3: 4-pyridinecarboxamide, C6H6N2O, InChI=1S/C6H6N2O/c7-6(9)5-1-3-8-4-2-5/h1-4H,(H2,7,9)
Compound 4: acetonitrile, C2H3N, InChI=1S/C2H3N/c1-2-3/h1H3

System: 2-pyridinecarboxamide; phases: Crystal, Liquid, Air at 1 atmosphere
Property: Normal melting temperature, K (Crystal); method: DTA
Normal melting temperature, K	uncertainty
379.5	1.1

System: 2-pyridinecarboxamide; phases: Crystal, Liquid, Air at 1 atmosphere
Property: Molar enthalpy of transition or fusion, kJ/mol (Crystal); method: DSC
Molar enthalpy of transition or fusion, kJ/mol	uncertainty
19.2	1.1

System: 2-pyridinecarboxamide; phases: Crystal, Gas
Property: Vapor or sublimation pressure, kPa (Crystal); method: Transpiration method
Temperature, K	Vapor or sublimation pressure, kPa	uncertainty
343	0.0079	0.0005
348	0.0125	0.0008
353.1	0.0192	0.0013
353.2	0.0194	0.0013
358.2	0.0302	0.002
363.3	0.0459	0.003
368.3	0.0687	0.0043
373.3	0.1028	0.0065

System: 2-pyridinecarboxamide; phases: Liquid, Gas
Property: Vapor or sublimation pressure, kPa (Liquid); method: Transpiration method
Temperature, K	Vapor or sublimation pressure, kPa	uncertainty
385.4	0.2394	0.015
390.4	0.3199	0.0199
395.5	0.416	0.0258
400.6	0.5427	0.0338
405.6	0.7049	0.0438
410.7	0.9324	0.0579
415.8	1.2018	0.0744

System: 3-pyridinecarboxamide; phases: Crystal, Liquid, Air at 1 atmosphere
Property: Normal melting temperature, K (Crystal); method: DTA
Normal melting temperature, K	uncertainty
403.2	1.1

System: 3-pyridinecarboxamide; phases: Crystal, Liquid, Air at 1 atmosphere
Property: Molar enthalpy of transition or fusion, kJ/mol (Crystal); method: DSC
Molar enthalpy of transition or fusion, kJ/mol	uncertainty
23.9	1.1

System: 3-pyridinecarboxamide; phases: Crystal, Gas
Property: Vapor or sublimation pressure, kPa (Crystal); method: Transpiration method
Temperature, K	Vapor or sublimation pressure, kPa	uncertainty
353.2	0.00036	3e-05
358.3	0.0006	5e-05
363.4	0.00104	7e-05
363.5	0.00105	7e-05
370.6	0.00207	0.00015
378.6	0.00436	0.00028
383.8	0.0069	0.00049
388.8	0.01096	0.00074
394.9	0.01844	0.00121
398.9	0.02467	0.00158

System: 4-pyridinecarboxamide; phases: Crystal, Liquid, Air at 1 atmosphere
Property: Normal melting temperature, K (Crystal); method: DTA
Normal melting temperature, K	uncertainty
428.4	1.1

System: 4-pyridinecarboxamide; phases: Crystal, Liquid, Air at 1 atmosphere
Property: Molar enthalpy of transition or fusion, kJ/mol (Crystal); method: DSC
Molar enthalpy of transition or fusion, kJ/mol	uncertainty
23.1	1.1

System: 4-pyridinecarboxamide; phases: Crystal, Gas
Property: Vapor or sublimation pressure, kPa (Crystal); method: Transpiration method
Temperature, K	Vapor or sublimation pressure, kPa	uncertainty
358.2	0.00043	4e-05
363.3	0.00072	5e-05
368.4	0.00117	8e-05
373.4	0.0019	0.00013
373.5	0.00191	0.00013
378.5	0.00296	0.0002
383.7	0.00472	0.0003
388.7	0.00724	0.00048
393.8	0.01115	0.00074
398.8	0.01672	0.00109
404	0.02482	0.00162
409	0.03719	0.00236

System: acetonitrile + 4-pyridinecarboxamide; phases: Liquid
Property: Molar enthalpy of solution, kJ/mol (Liquid); method: Power-compensation calorimetry
Mole fraction of 4-pyridinecarboxamide	Temperature, K	Pressure, kPa	Molar enthalpy of solution, kJ/mol	uncertainty
0	298.15	100	24.1	0.4

System: acetonitrile + 3-pyridinecarboxamide; phases: Liquid
Property: Molar enthalpy of solution, kJ/mol (Liquid); method: Power-compensation calorimetry
Mole fraction of 3-pyridinecarboxamide	Temperature, K	Pressure, kPa	Molar enthalpy of solution, kJ/mol	uncertainty
0	298.15	100	26.3	0.4
