Measured thermophysical data. Thermophysical properties of two ionic liquids based on benzyl imidazolium cation
Source: J. Chem. Thermodyn., 2011, 10.1016/j.jct.2010.10.024
Compound 1: 1-benzyl-3-methyl-1H-imidazolium chloride, C11H13ClN2, InChI=1S/C11H13N2.ClH/c1-12-7-8-13(10-12)9-11-5-3-2-4-6-11;/h2-8,10H,9H2,1H3;1H/q+1;/p-1
Compound 2: 1-benzyl-3-methyl-1H-imidazolium methyl sulfate, C12H16N2O4S, InChI=1S/C11H13N2.CH4O4S/c1-12-7-8-13(10-12)9-11-5-3-2-4-6-11;1-5-6(2,3)4/h2-8,10H,9H2,1H3;1H3,(H,2,3,4)/q+1;/p-1

System: 1-benzyl-3-methyl-1H-imidazolium chloride; phases: Liquid
Fixed: Pressure, kPa = 101.325
Property: Viscosity, Pa*s (Liquid); method: Capillary tube (Ostwald; Ubbelohde) method
Temperature, K	Viscosity, Pa*s	uncertainty
293.15	6.6488	0.64304
298.15	3.725	0.33543
303.15	2.2062	0.18597
308.15	1.3696	0.10876
313.15	0.88793	0.06687
318.15	0.59804	0.04301
323.15	0.41679	0.02881
328.15	0.29929	0.02001
333.15	0.22079	0.01437
338.15	0.16681	0.01062
343.15	0.12878	0.00806
348.15	0.10131	0.00627
353.15	0.08055	0.00494
358.15	0.0654	0.00399
363.15	0.05385	0.00328
368.15	0.04487	0.00274
373.15	0.03783	0.00231

System: 1-benzyl-3-methyl-1H-imidazolium chloride; phases: Liquid
Fixed: Pressure, kPa = 101.325
Property: Refractive index (Na D-line) (Liquid); method: Standard Abbe refractometry
Temperature, K	Refractive index (Na D-line)	uncertainty
298.15	1.53647	0.00051
303.15	1.5353	0.00051
308.15	1.53408	0.00051
313.15	1.53276	0.00051
318.15	1.53142	0.00051
323.15	1.53018	0.00051
328.15	1.52877	0.00051
333.15	1.52744	0.00051
338.15	1.526	0.00051
343.15	1.52462	0.00051

System: 1-benzyl-3-methyl-1H-imidazolium chloride; phases: Liquid
Fixed: Pressure, kPa = 101.325
Property: Mass density, kg/m3 (Liquid); method: Vibrating tube method
Temperature, K	Mass density, kg/m3	uncertainty
293.15	1311.55	1.54
298.15	1307.94	1.53
303.15	1304.41	1.52
308.15	1300.9	1.52
313.15	1297.32	1.51
318.15	1293.91	1.5
323.15	1290.42	1.49
328.15	1287.01	1.48
333.15	1283.52	1.47
338.15	1280.13	1.46
343.15	1276.61	1.46
348.15	1273.22	1.45
353.15	1269.81	1.44
358.15	1266.41	1.43
363.15	1262.92	1.42
368.15	1259.77	1.42
373.15	1256.31	1.41

System: 1-benzyl-3-methyl-1H-imidazolium methyl sulfate; phases: Liquid
Fixed: Pressure, kPa = 101.325
Property: Viscosity, Pa*s (Liquid); method: Capillary tube (Ostwald; Ubbelohde) method
Temperature, K	Viscosity, Pa*s	uncertainty
293.15	9.1164	0.91657
298.15	4.5172	0.41699
303.15	2.3931	0.20393
308.15	1.3477	0.10687
313.15	0.80173	0.05969
318.15	0.50117	0.03536
323.15	0.32733	0.02209
328.15	0.2224	0.01449
333.15	0.15647	0.00992
338.15	0.11343	0.00706
343.15	0.0845	0.00519
348.15	0.0645	0.00393
353.15	0.05026	0.00306
358.15	0.03992	0.00243
363.15	0.03226	0.00197
368.15	0.02648	0.00161
373.15	0.02203	0.00134

System: 1-benzyl-3-methyl-1H-imidazolium methyl sulfate; phases: Liquid
Fixed: Pressure, kPa = 101.325
Property: Refractive index (Na D-line) (Liquid); method: Standard Abbe refractometry
Temperature, K	Refractive index (Na D-line)	uncertainty
298.15	1.5778	0.00051
303.15	1.57672	0.00051
308.15	1.57564	0.00051
313.15	1.57435	0.00051
318.15	1.57321	0.00051
323.15	1.57166	0.00051
328.15	1.57024	0.00051
333.15	1.5688	0.00051
338.15	1.5671	0.00051
343.15	1.56519	0.00051

System: 1-benzyl-3-methyl-1H-imidazolium methyl sulfate; phases: Liquid
Fixed: Pressure, kPa = 101.325
Property: Mass density, kg/m3 (Liquid); method: Vibrating tube method
Temperature, K	Mass density, kg/m3	uncertainty
293.15	1187.81	7.67
298.15	1184.62	7.63
303.15	1180.83	7.58
308.15	1177.92	7.54
313.15	1173.82	7.49
318.15	1170.74	7.45
323.15	1167.76	7.41
328.15	1164.71	7.37
333.15	1160.82	7.32
338.15	1157.93	7.29
343.15	1155.13	7.25
348.15	1152.21	7.21
353.15	1149.42	7.18
358.15	1146.51	7.14
363.15	1143.62	7.1
368.15	1140.83	7.07
373.15	1138.04	7.03
