Measured thermophysical data. Compressed liquid densities and excess molar volumes for (CO2 + 1-pentanol) binary system at temperatures from 313 to 363 K and pressures up to 25 MPa
Source: J. Chem. Thermodyn., 2008, 10.1016/j.jct.2007.07.005
Compound 1: carbon dioxide, CO2, InChI=1S/CO2/c2-1-3, purity 99.995%
Compound 2: pentan-1-ol, C5H12O, InChI=1S/C5H12O/c1-2-3-4-5-6/h6H,2-5H2,1H3, purity 99%

System: pentan-1-ol; phases: Fluid (supercritical or subcritical phases)
Property: Mass density, kg/m3 (Fluid (supercritical or subcritical phases)); method: VIBTUB:mpoint
Temperature, K	Pressure, kPa	Mass density, kg/m3	uncertainty
312.96	512	799.65	0.43
312.96	1022	800.04	0.43
312.96	1998	800.77	0.44
312.96	3005	801.53	0.44
312.96	4003	802.28	0.44
312.96	5002	803.02	0.44
312.96	6018	803.76	0.44
312.96	6994	804.49	0.44
312.96	8008	805.21	0.44
312.96	9005	805.93	0.44
312.96	10008	806.66	0.44
312.96	11008	807.37	0.44
312.96	12000	808.07	0.44
312.96	13024	808.78	0.44
312.96	13987	809.45	0.44
312.96	15014	810.14	0.45
312.96	15991	810.8	0.45
312.96	17019	811.48	0.45
312.96	17991	812.12	0.45
312.96	19007	812.79	0.45
312.96	19992	813.44	0.45
312.96	21031	814.1	0.45
312.96	22041	814.76	0.45
312.96	23014	815.41	0.45
312.96	24003	816.04	0.45
312.96	25037	816.73	0.45
322.89	520	792.06	0.43
322.89	1010	792.47	0.43
322.89	2005	793.27	0.43
322.89	3007	794.07	0.44
322.89	4005	794.86	0.44
322.89	5018	795.63	0.44
322.89	6001	796.42	0.44
322.89	7016	797.2	0.44
322.89	8020	797.97	0.44
322.89	8997	798.71	0.44
322.89	10001	799.47	0.44
322.89	11005	800.21	0.44
322.89	11996	800.95	0.44
322.89	13002	801.68	0.44
322.89	14013	802.4	0.44
322.89	15005	803.11	0.44
322.89	16014	803.82	0.45
322.89	17001	804.51	0.45
322.89	18016	805.21	0.45
322.89	19012	805.89	0.45
322.89	19992	806.56	0.45
322.89	21036	807.26	0.45
322.89	22003	807.92	0.45
322.89	23024	808.61	0.45
322.89	23994	809.26	0.45
322.89	25023	810	0.45
332.79	493	784.29	0.43
332.79	1014	784.76	0.43
332.79	2006	785.61	0.43
332.79	3025	786.48	0.43
332.79	4011	787.28	0.44
332.79	5020	788.11	0.44
332.79	6003	788.91	0.44
332.79	6997	789.73	0.44
332.79	8009	790.54	0.44
332.79	8995	791.31	0.44
332.79	9996	792.12	0.44
332.79	11018	792.9	0.44
332.79	11995	793.66	0.44
332.79	13023	794.45	0.44
332.79	13999	795.19	0.44
332.79	15010	795.95	0.44
332.79	16028	796.68	0.44
332.79	17003	797.41	0.45
332.79	18040	798.14	0.45
332.79	19004	798.84	0.45
332.79	20035	799.59	0.45
332.79	21024	800.29	0.45
332.79	21993	800.97	0.45
332.79	23039	801.71	0.45
332.79	24015	802.4	0.45
332.79	25022	803.12	0.45
342.76	505	776.31	0.43
342.76	997	776.77	0.43
342.76	1995	777.69	0.43
342.76	3011	778.59	0.43
342.76	4012	779.47	0.43
342.76	5011	780.34	0.44
342.76	6011	781.22	0.44
342.76	7003	782.03	0.44
342.76	8015	782.91	0.44
342.76	9000	783.73	0.44
342.76	10019	784.58	0.44
342.76	11020	785.4	0.44
342.76	12002	786.2	0.44
342.76	13016	787.02	0.44
342.76	14024	787.81	0.44
342.76	15002	788.59	0.44
342.76	16007	789.36	0.44
342.76	17037	790.15	0.44
342.76	17988	790.87	0.45
342.76	19037	791.66	0.45
342.76	20003	792.38	0.45
342.76	21015	793.14	0.45
342.76	22019	793.88	0.45
342.76	23039	794.62	0.45
342.76	24027	795.36	0.45
342.76	25028	796.1	0.45
352.71	508	768.15	0.43
352.71	1011	768.66	0.43
352.71	1995	769.61	0.43
352.71	3014	770.57	0.43
352.71	3998	771.49	0.43
352.71	5022	772.45	0.43
352.71	6012	773.35	0.44
352.71	7006	774.26	0.44
352.71	8024	775.17	0.44
352.71	9005	776.05	0.44
352.71	10016	776.94	0.44
352.71	11026	777.81	0.44
352.71	12001	778.65	0.44
352.71	13002	779.5	0.44
352.71	14026	780.35	0.44
352.71	15000	781.18	0.44
352.71	16005	781.98	0.44
352.71	17023	782.81	0.44
352.71	18003	783.59	0.44
352.71	19049	784.43	0.45
352.71	20035	785.2	0.45
352.71	21002	785.96	0.45
352.71	21995	786.73	0.45
352.71	23020	787.52	0.45
352.71	24045	788.32	0.45
352.71	25009	789.05	0.45
362.59	517	759.7	0.43
362.59	1023	760.25	0.43
362.59	2005	761.26	0.43
362.59	3010	762.29	0.43
362.59	3998	763.28	0.43
362.59	5006	764.25	0.43
362.59	6013	765.23	0.43
362.59	7014	766.21	0.44
362.59	8007	767.16	0.44
362.59	9020	768.1	0.44
362.59	10006	769.02	0.44
362.59	10991	769.93	0.44
362.59	12025	770.87	0.44
362.59	13008	771.76	0.44
362.59	13998	772.62	0.44
362.59	15017	773.51	0.44
362.59	16000	774.37	0.44
362.59	17013	775.24	0.44
362.59	18032	776.11	0.44
362.59	19003	776.9	0.44
362.59	20030	777.77	0.45
362.59	20987	778.55	0.45
362.59	22033	779.4	0.45
362.59	23000	780.2	0.45
362.59	24031	781.02	0.45
362.59	25026	781.82	0.45

System: pentan-1-ol + carbon dioxide; phases: Fluid (supercritical or subcritical phases)
Property: Mass density, kg/m3 (Fluid (supercritical or subcritical phases)); method: VIBTUB:mpoint
Mole fraction of carbon dioxide	Temperature, K	Pressure, kPa	Mass density, kg/m3	uncertainty
0	312.96	512	799.65	0.43
0	312.96	1022	800.04	0.43
0	312.96	1998	800.77	0.44
0	312.96	3005	801.53	0.44
0	312.96	4003	802.28	0.44
0	312.96	5002	803.02	0.44
0	312.96	6018	803.76	0.44
0	312.96	6994	804.49	0.44
0	312.96	8008	805.21	0.44
0	312.96	9005	805.93	0.44
0	312.96	10008	806.66	0.44
0	312.96	11008	807.37	0.44
0	312.96	12000	808.07	0.44
0	312.96	13024	808.78	0.44
0	312.96	13987	809.45	0.44
0	312.96	15014	810.14	0.45
0	312.96	15991	810.8	0.45
0	312.96	17019	811.48	0.45
0	312.96	17991	812.12	0.45
0	312.96	19007	812.79	0.45
0	312.96	19992	813.44	0.45
0	312.96	21031	814.1	0.45
0	312.96	22041	814.76	0.45
0	312.96	23014	815.41	0.45
0	312.96	24003	816.04	0.45
0	312.96	25037	816.73	0.45
0	322.89	520	792.06	0.43
0	322.89	1010	792.47	0.43
0	322.89	2005	793.27	0.43
0	322.89	3007	794.07	0.44
0	322.89	4005	794.86	0.44
0	322.89	5018	795.63	0.44
0	322.89	6001	796.42	0.44
0	322.89	7016	797.2	0.44
0	322.89	8020	797.97	0.44
0	322.89	8997	798.71	0.44
0	322.89	10001	799.47	0.44
0	322.89	11005	800.21	0.44
0	322.89	11996	800.95	0.44
0	322.89	13002	801.68	0.44
0	322.89	14013	802.4	0.44
0	322.89	15005	803.11	0.44
0	322.89	16014	803.82	0.45
0	322.89	17001	804.51	0.45
0	322.89	18016	805.21	0.45
0	322.89	19012	805.89	0.45
0	322.89	19992	806.56	0.45
0	322.89	21036	807.26	0.45
0	322.89	22003	807.92	0.45
0	322.89	23024	808.61	0.45
0	322.89	23994	809.26	0.45
0	322.89	25023	810	0.45
0	332.79	493	784.29	0.43
0	332.79	1014	784.76	0.43
0	332.79	2006	785.61	0.43
0	332.79	3025	786.48	0.43
0	332.79	4011	787.28	0.44
0	332.79	5020	788.11	0.44
0	332.79	6003	788.91	0.44
0	332.79	6997	789.73	0.44
0	332.79	8009	790.54	0.44
0	332.79	8995	791.31	0.44
0	332.79	9996	792.12	0.44
0	332.79	11018	792.9	0.44
0	332.79	11995	793.66	0.44
0	332.79	13023	794.45	0.44
0	332.79	13999	795.19	0.44
0	332.79	15010	795.95	0.44
0	332.79	16028	796.68	0.44
0	332.79	17003	797.41	0.45
0	332.79	18040	798.14	0.45
0	332.79	19004	798.84	0.45
0	332.79	20035	799.59	0.45
0	332.79	21024	800.29	0.45
0	332.79	21993	800.97	0.45
0	332.79	23039	801.71	0.45
0	332.79	24015	802.4	0.45
0	332.79	25022	803.12	0.45
0	342.76	505	776.31	0.43
0	342.76	997	776.77	0.43
0	342.76	1995	777.69	0.43
0	342.76	3011	778.59	0.43
0	342.76	4012	779.47	0.43
0	342.76	5011	780.34	0.44
0	342.76	6011	781.22	0.44
0	342.76	7003	782.03	0.44
0	342.76	8015	782.91	0.44
0	342.76	9000	783.73	0.44
0	342.76	10019	784.58	0.44
0	342.76	11020	785.4	0.44
0	342.76	12002	786.2	0.44
0	342.76	13016	787.02	0.44
0	342.76	14024	787.81	0.44
0	342.76	15002	788.59	0.44
0	342.76	16007	789.36	0.44
0	342.76	17037	790.15	0.44
0	342.76	17988	790.87	0.45
0	342.76	19037	791.66	0.45
0	342.76	20003	792.38	0.45
0	342.76	21015	793.14	0.45
0	342.76	22019	793.88	0.45
0	342.76	23039	794.62	0.45
0	342.76	24027	795.36	0.45
0	342.76	25028	796.1	0.45
0	352.71	508	768.15	0.43
0	352.71	1011	768.66	0.43
0	352.71	1995	769.61	0.43
0	352.71	3014	770.57	0.43
0	352.71	3998	771.49	0.43
0	352.71	5022	772.45	0.43
0	352.71	6012	773.35	0.44
0	352.71	7006	774.26	0.44
0	352.71	8024	775.17	0.44
0	352.71	9005	776.05	0.44
0	352.71	10016	776.94	0.44
0	352.71	11026	777.81	0.44
0	352.71	12001	778.65	0.44
0	352.71	13002	779.5	0.44
0	352.71	14026	780.35	0.44
0	352.71	15000	781.18	0.44
0	352.71	16005	781.98	0.44
0	352.71	17023	782.81	0.44
0	352.71	18003	783.59	0.44
0	352.71	19049	784.43	0.45
0	352.71	20035	785.2	0.45
0	352.71	21002	785.96	0.45
0	352.71	21995	786.73	0.45
0	352.71	23020	787.52	0.45
0	352.71	24045	788.32	0.45
0	352.71	25009	789.05	0.45
0	362.59	517	759.7	0.43
0	362.59	1023	760.25	0.43
0	362.59	2005	761.26	0.43
0	362.59	3010	762.29	0.43
0	362.59	3998	763.28	0.43
0	362.59	5006	764.25	0.43
0	362.59	6013	765.23	0.43
0	362.59	7014	766.21	0.44
0	362.59	8007	767.16	0.44
0	362.59	9020	768.1	0.44
0	362.59	10006	769.02	0.44
0	362.59	10991	769.93	0.44
0	362.59	12025	770.87	0.44
0	362.59	13008	771.76	0.44
0	362.59	13998	772.62	0.44
0	362.59	15017	773.51	0.44
0	362.59	16000	774.37	0.44
0	362.59	17013	775.24	0.44
0	362.59	18032	776.11	0.44
0	362.59	19003	776.9	0.44
0	362.59	20030	777.77	0.45
0	362.59	20987	778.55	0.45
0	362.59	22033	779.4	0.45
0	362.59	23000	780.2	0.45
0	362.59	24031	781.02	0.45
0	362.59	25026	781.82	0.45
0.0816	313.11	3017	805.83	0.44
0.0816	313.11	4040	806.66	0.44
0.0816	313.11	5020	807.44	0.44
0.0816	313.11	6033	808.27	0.44
0.0816	313.11	6980	809.01	0.44
0.0816	313.11	8003	809.81	0.44
0.0816	313.11	9050	810.62	0.44
0.0816	313.11	10006	811.35	0.44
0.0816	313.11	11029	812.13	0.44
0.0816	313.11	12040	812.89	0.44
0.0816	313.11	13034	813.62	0.44
0.0816	313.11	14032	814.36	0.44
0.0816	313.11	15008	815.08	0.45
0.0816	313.11	16019	815.8	0.45
0.0816	313.11	17024	816.51	0.45
0.0816	313.11	18058	817.22	0.45
0.0816	313.11	18990	817.88	0.45
0.0816	313.11	20043	818.6	0.45
0.0816	313.11	21042	819.28	0.45
0.0816	313.11	22024	819.97	0.45
0.0816	313.11	23035	820.66	0.45
0.0816	313.11	24020	821.33	0.45
0.0816	313.11	25023	822.02	0.45
0.0816	323.05	3011	797.79	0.44
0.0816	323.05	4020	798.67	0.44
0.0816	323.05	5030	799.53	0.44
0.0816	323.05	6018	800.37	0.44
0.0816	323.05	7023	801.2	0.44
0.0816	323.05	8013	802.02	0.44
0.0816	323.05	9023	802.84	0.44
0.0816	323.05	10026	803.67	0.44
0.0816	323.05	11006	804.46	0.44
0.0816	323.05	11992	805.23	0.44
0.0816	323.05	13025	806.04	0.44
0.0816	323.05	14021	806.82	0.44
0.0816	323.05	15017	807.57	0.44
0.0816	323.05	16021	808.32	0.45
0.0816	323.05	17005	809.07	0.45
0.0816	323.05	18049	809.83	0.45
0.0816	323.05	18975	810.52	0.45
0.0816	323.05	20047	811.3	0.45
0.0816	323.05	20997	811.98	0.45
0.0816	323.05	21991	812.7	0.45
0.0816	323.05	23054	813.46	0.45
0.0816	323.05	23987	814.12	0.45
0.0816	323.05	25014	814.87	0.45
0.0816	332.96	3007	789.68	0.43
0.0816	332.96	4028	790.6	0.44
0.0816	332.96	4991	791.47	0.44
0.0816	332.96	5998	792.36	0.44
0.0816	332.96	7025	793.27	0.44
0.0816	332.96	7995	794.13	0.44
0.0816	332.96	9031	795.01	0.44
0.0816	332.96	10005	795.83	0.44
0.0816	332.96	11008	796.67	0.44
0.0816	332.96	12026	797.53	0.44
0.0816	332.96	13004	798.35	0.44
0.0816	332.96	14029	799.18	0.44
0.0816	332.96	14991	799.97	0.44
0.0816	332.96	16004	800.75	0.44
0.0816	332.96	17014	801.55	0.45
0.0816	332.96	18018	802.33	0.45
0.0816	332.96	19024	803.1	0.45
0.0816	332.96	19981	803.83	0.45
0.0816	332.96	21024	804.62	0.45
0.0816	332.96	22057	805.42	0.45
0.0816	332.96	23012	806.12	0.45
0.0816	332.96	24007	806.87	0.45
0.0816	332.96	25043	807.63	0.45
0.0816	342.88	3034	781.33	0.43
0.0816	342.88	4000	782.24	0.43
0.0816	342.88	4969	783.19	0.44
0.0816	342.88	5981	784.14	0.44
0.0816	342.88	7023	785.12	0.44
0.0816	342.88	8012	786.04	0.44
0.0816	342.88	9030	786.97	0.44
0.0816	342.88	10026	787.86	0.44
0.0816	342.88	10992	788.72	0.44
0.0816	342.88	11981	789.59	0.44
0.0816	342.88	13062	790.54	0.44
0.0816	342.88	14013	791.33	0.44
0.0816	342.88	15025	792.19	0.44
0.0816	342.88	15995	793.03	0.44
0.0816	342.88	16999	793.86	0.44
0.0816	342.88	18009	794.69	0.45
0.0816	342.88	19029	795.51	0.45
0.0816	342.88	19987	796.28	0.45
0.0816	342.88	21039	797.11	0.45
0.0816	342.88	21996	797.87	0.45
0.0816	342.88	22991	798.65	0.45
0.0816	342.88	24056	799.48	0.45
0.0816	342.88	25041	800.25	0.45
0.0816	352.81	3095	772.79	0.43
0.0816	352.81	4022	773.74	0.43
0.0816	352.81	5003	774.75	0.43
0.0816	352.81	5979	775.73	0.44
0.0816	352.81	7007	776.72	0.44
0.0816	352.81	7981	777.7	0.44
0.0816	352.81	9053	778.72	0.44
0.0816	352.81	10025	779.66	0.44
0.0816	352.81	11031	780.6	0.44
0.0816	352.81	11999	781.51	0.44
0.0816	352.81	13023	782.45	0.44
0.0816	352.81	14012	783.34	0.44
0.0816	352.81	15006	784.24	0.44
0.0816	352.81	15993	785.1	0.44
0.0816	352.81	17064	786	0.44
0.0816	352.81	18013	786.86	0.44
0.0816	352.81	18992	787.69	0.45
0.0816	352.81	20032	788.58	0.45
0.0816	352.81	20998	789.4	0.45
0.0816	352.81	22012	790.22	0.45
0.0816	352.81	23043	791.09	0.45
0.0816	352.81	24064	791.93	0.45
0.0816	352.81	25028	792.72	0.45
0.0816	362.66	3020	763.81	0.43
0.0816	362.66	3996	764.91	0.43
0.0816	362.66	4993	765.97	0.43
0.0816	362.66	6014	767.08	0.43
0.0816	362.66	7003	768.13	0.44
0.0816	362.66	8000	769.18	0.44
0.0816	362.66	9015	770.22	0.44
0.0816	362.66	10003	771.21	0.44
0.0816	362.66	11015	772.24	0.44
0.0816	362.66	12001	773.21	0.44
0.0816	362.66	13063	774.24	0.44
0.0816	362.66	14005	775.13	0.44
0.0816	362.66	15014	776.09	0.44
0.0816	362.66	16035	777.05	0.44
0.0816	362.66	17029	777.98	0.44
0.0816	362.66	18005	778.87	0.44
0.0816	362.66	19061	779.82	0.45
0.0816	362.66	19993	780.66	0.45
0.0816	362.66	21022	781.57	0.45
0.0816	362.66	22027	782.43	0.45
0.0816	362.66	23003	783.28	0.45
0.0816	362.66	23994	784.14	0.45
0.0816	362.66	25028	785.05	0.45
0.1347	313.14	5019	808.85	0.44
0.1347	313.14	6010	809.58	0.44
0.1347	313.14	7003	810.4	0.44
0.1347	313.14	8042	811.24	0.44
0.1347	313.14	9023	812.05	0.44
0.1347	313.14	10012	812.85	0.44
0.1347	313.14	11019	813.62	0.44
0.1347	313.14	12025	814.42	0.44
0.1347	313.14	13017	815.18	0.44
0.1347	313.14	14011	815.96	0.44
0.1347	313.14	15011	816.73	0.45
0.1347	313.14	16014	817.47	0.45
0.1347	313.14	17041	818.22	0.45
0.1347	313.14	18022	818.95	0.45
0.1347	313.14	19022	819.67	0.45
0.1347	313.14	20012	820.39	0.45
0.1347	313.14	21027	821.12	0.45
0.1347	313.14	22024	821.83	0.45
0.1347	313.14	23011	822.55	0.45
0.1347	313.14	24032	823.28	0.45
0.1347	313.14	25004	824	0.45
0.1347	323.11	6015	801.54	0.44
0.1347	323.11	7002	802.41	0.44
0.1347	323.11	8020	803.27	0.44
0.1347	323.11	9002	804.12	0.44
0.1347	323.11	10017	804.97	0.44
0.1347	323.11	11055	805.83	0.44
0.1347	323.11	12029	806.64	0.44
0.1347	323.11	13031	807.47	0.44
0.1347	323.11	14038	808.26	0.44
0.1347	323.11	15022	809.05	0.44
0.1347	323.11	16015	809.84	0.45
0.1347	323.11	17022	810.64	0.45
0.1347	323.11	18041	811.39	0.45
0.1347	323.11	19010	812.15	0.45
0.1347	323.11	20025	812.91	0.45
0.1347	323.11	21027	813.66	0.45
0.1347	323.11	22027	814.42	0.45
0.1347	323.11	23017	815.16	0.45
0.1347	323.11	24022	815.93	0.45
0.1347	323.11	24999	816.68	0.45
0.1347	333.01	7029	794.28	0.44
0.1347	333.01	8022	795.19	0.44
0.1347	333.01	9011	796.07	0.44
0.1347	333.01	10005	796.96	0.44
0.1347	333.01	11019	797.85	0.44
0.1347	333.01	12017	798.71	0.44
0.1347	333.01	13025	799.58	0.44
0.1347	333.01	14019	800.43	0.44
0.1347	333.01	15000	801.26	0.44
0.1347	333.01	16013	802.1	0.44
0.1347	333.01	17014	802.91	0.45
0.1347	333.01	18011	803.75	0.45
0.1347	333.01	19014	804.55	0.45
0.1347	333.01	20029	805.36	0.45
0.1347	333.01	21007	806.13	0.45
0.1347	333.01	22021	806.92	0.45
0.1347	333.01	23026	807.74	0.45
0.1347	333.01	24005	808.5	0.45
0.1347	333.01	25049	809.32	0.45
0.1347	342.96	7006	785.93	0.44
0.1347	342.96	8027	786.83	0.44
0.1347	342.96	9036	787.79	0.44
0.1347	342.96	10053	788.74	0.44
0.1347	342.96	11003	789.61	0.44
0.1347	342.96	12025	790.55	0.44
0.1347	342.96	13042	791.48	0.44
0.1347	342.96	14006	792.33	0.44
0.1347	342.96	15009	793.22	0.44
0.1347	342.96	16036	794.12	0.44
0.1347	342.96	17009	794.98	0.44
0.1347	342.96	18011	795.84	0.45
0.1347	342.96	19019	796.7	0.45
0.1347	342.96	20016	797.55	0.45
0.1347	342.96	20998	798.37	0.45
0.1347	342.96	22010	799.2	0.45
0.1347	342.96	23002	800.03	0.45
0.1347	342.96	24085	800.92	0.45
0.1347	342.96	25038	801.69	0.45
0.1347	352.86	7013	777.29	0.44
0.1347	352.86	8003	778.24	0.44
0.1347	352.86	9042	779.29	0.44
0.1347	352.86	9997	780.21	0.44
0.1347	352.86	11043	781.23	0.44
0.1347	352.86	12025	782.2	0.44
0.1347	352.86	13003	783.16	0.44
0.1347	352.86	14006	784.13	0.44
0.1347	352.86	15015	785.07	0.44
0.1347	352.86	16005	786.01	0.44
0.1347	352.86	17031	786.94	0.44
0.1347	352.86	18022	787.86	0.44
0.1347	352.86	19009	788.74	0.45
0.1347	352.86	20022	789.63	0.45
0.1347	352.86	21024	790.52	0.45
0.1347	352.86	21995	791.37	0.45
0.1347	352.86	23030	792.28	0.45
0.1347	352.86	24029	793.15	0.45
0.1347	352.86	25004	793.98	0.45
0.1347	362.79	7017	768.35	0.44
0.1347	362.79	7974	769.41	0.44
0.1347	362.79	9023	770.53	0.44
0.1347	362.79	9999	771.53	0.44
0.1347	362.79	10899	772.5	0.44
0.1347	362.79	12022	773.68	0.44
0.1347	362.79	13018	774.7	0.44
0.1347	362.79	14016	775.72	0.44
0.1347	362.79	15031	776.75	0.44
0.1347	362.79	16022	777.7	0.44
0.1347	362.79	17016	778.71	0.44
0.1347	362.79	18017	779.67	0.44
0.1347	362.79	19013	780.6	0.44
0.1347	362.79	20017	781.57	0.45
0.1347	362.79	21040	782.53	0.45
0.1347	362.79	22011	783.41	0.45
0.1347	362.79	23022	784.34	0.45
0.1347	362.79	24039	785.29	0.45
0.1347	362.79	25030	786.19	0.45
0.3624	313.09	6030	824	0.44
0.3624	313.09	6997	825.21	0.44
0.3624	313.09	8012	826.4	0.44
0.3624	313.09	9018	827.51	0.44
0.3624	313.09	10006	828.5	0.44
0.3624	313.09	11027	829.51	0.44
0.3624	313.09	12043	830.52	0.44
0.3624	313.09	13029	831.45	0.45
0.3624	313.09	13978	832.37	0.45
0.3624	313.09	15011	833.36	0.45
0.3624	313.09	16002	834.27	0.45
0.3624	313.09	17008	835.17	0.45
0.3624	313.09	17989	836.08	0.45
0.3624	313.09	19002	837	0.45
0.3624	313.09	20008	837.88	0.45
0.3624	313.09	21025	838.76	0.45
0.3624	313.09	21983	839.58	0.45
0.3624	313.09	23039	840.51	0.45
0.3624	313.09	24001	841.34	0.45
0.3624	323.05	7017	815.3	0.44
0.3624	323.05	8051	816.51	0.44
0.3624	323.05	9034	817.64	0.44
0.3624	323.05	10029	818.77	0.44
0.3624	323.05	11022	819.83	0.44
0.3624	323.05	12003	820.86	0.44
0.3624	323.05	13015	821.9	0.44
0.3624	323.05	14019	822.92	0.44
0.3624	323.05	15006	823.89	0.45
0.3624	323.05	16002	824.89	0.45
0.3624	323.05	17021	825.87	0.45
0.3624	323.05	18001	826.81	0.45
0.3624	323.05	19034	827.81	0.45
0.3624	323.05	19998	828.72	0.45
0.3624	323.05	21033	829.67	0.45
0.3624	323.05	22013	830.58	0.45
0.3624	323.05	22997	831.49	0.45
0.3624	323.05	24062	832.47	0.45
0.3624	323.05	24707	833.04	0.45
0.3624	332.93	8022	806.47	0.44
0.3624	332.93	9003	807.66	0.44
0.3624	332.93	10018	808.86	0.44
0.3624	332.93	10989	809.94	0.44
0.3624	332.93	12008	811.14	0.44
0.3624	332.93	13015	812.22	0.44
0.3624	332.93	13981	813.29	0.44
0.3624	332.93	15021	814.39	0.44
0.3624	332.93	15992	815.41	0.45
0.3624	332.93	17012	816.44	0.45
0.3624	332.93	18010	817.48	0.45
0.3624	332.93	19032	818.5	0.45
0.3624	332.93	19997	819.44	0.45
0.3624	332.93	21024	820.43	0.45
0.3624	332.93	22013	821.46	0.45
0.3624	332.93	23021	822.42	0.45
0.3624	332.93	23997	823.36	0.45
0.3624	332.93	24893	824.24	0.45
0.3624	342.87	8048	796.26	0.44
0.3624	342.87	9023	797.49	0.44
0.3624	342.87	10022	798.77	0.44
0.3624	342.87	11004	799.97	0.44
0.3624	342.87	12013	801.19	0.44
0.3624	342.87	13035	802.37	0.44
0.3624	342.87	13990	803.48	0.44
0.3624	342.87	15018	804.64	0.44
0.3624	342.87	16009	805.73	0.44
0.3624	342.87	17000	806.82	0.45
0.3624	342.87	18021	807.94	0.45
0.3624	342.87	19036	809.03	0.45
0.3624	342.87	20012	810.06	0.45
0.3624	342.87	21037	811.12	0.45
0.3624	342.87	21990	812.11	0.45
0.3624	342.87	23033	813.18	0.45
0.3624	342.87	24005	814.16	0.45
0.3624	342.87	25028	815.18	0.45
0.3624	352.8	9062	787.17	0.44
0.3624	352.8	10017	788.44	0.44
0.3624	352.8	10962	789.67	0.44
0.3624	352.8	12014	790.98	0.44
0.3624	352.8	13057	792.31	0.44
0.3624	352.8	13992	793.46	0.44
0.3624	352.8	14992	794.66	0.44
0.3624	352.8	16050	795.91	0.44
0.3624	352.8	17018	797.04	0.44
0.3624	352.8	17979	798.17	0.44
0.3624	352.8	19050	799.37	0.45
0.3624	352.8	20029	800.46	0.45
0.3624	352.8	21035	801.59	0.45
0.3624	352.8	21985	802.63	0.45
0.3624	352.8	23021	803.75	0.45
0.3624	352.8	24022	804.82	0.45
0.3624	352.8	25026	805.9	0.45
0.3624	362.64	10025	777.81	0.44
0.3624	362.64	11003	779.19	0.44
0.3624	362.64	12003	780.55	0.44
0.3624	362.64	13017	781.9	0.44
0.3624	362.64	14013	783.21	0.44
0.3624	362.64	15050	784.56	0.44
0.3624	362.64	16009	785.79	0.44
0.3624	362.64	17038	787.08	0.44
0.3624	362.64	17996	788.26	0.45
0.3624	362.64	19025	789.49	0.45
0.3624	362.64	20005	790.66	0.45
0.3624	362.64	21006	791.85	0.45
0.3624	362.64	22040	793.05	0.45
0.3624	362.64	22994	794.14	0.45
0.3624	362.64	24043	795.34	0.45
0.3624	362.64	25004	796.42	0.45
0.4651	313.1	7022	831.11	0.44
0.4651	313.1	8019	832.63	0.44
0.4651	313.1	9041	834.14	0.44
0.4651	313.1	10013	835.54	0.44
0.4651	313.1	11016	836.96	0.45
0.4651	313.1	12018	838.32	0.45
0.4651	313.1	13005	839.67	0.45
0.4651	313.1	14035	841.03	0.45
0.4651	313.1	15010	842.33	0.45
0.4651	313.1	16018	843.63	0.45
0.4651	313.1	17011	844.89	0.45
0.4651	313.1	18010	846.15	0.45
0.4651	313.1	18996	847.39	0.45
0.4651	313.1	20038	848.66	0.45
0.4651	313.1	20988	849.83	0.45
0.4651	313.1	22029	851.07	0.45
0.4651	313.1	22988	852.24	0.45
0.4651	323.05	8029	820.04	0.44
0.4651	323.05	9009	821.63	0.44
0.4651	323.05	9991	823.23	0.44
0.4651	323.05	11012	824.81	0.44
0.4651	323.05	11993	826.28	0.45
0.4651	323.05	13024	827.83	0.45
0.4651	323.05	14031	829.31	0.45
0.4651	323.05	14990	830.68	0.45
0.4651	323.05	16027	832.14	0.45
0.4651	323.05	17018	833.51	0.45
0.4651	323.05	17994	834.85	0.45
0.4651	323.05	19057	836.29	0.45
0.4651	323.05	20009	837.54	0.45
0.4651	323.05	21034	838.89	0.45
0.4651	323.05	22017	840.19	0.45
0.4651	323.05	23022	841.47	0.45
0.4651	323.05	23901	842.61	0.45
0.4651	332.93	9033	808.88	0.44
0.4651	332.93	10027	810.57	0.44
0.4651	332.93	11000	812.22	0.44
0.4651	332.93	12019	813.92	0.44
0.4651	332.93	13017	815.52	0.45
0.4651	332.93	14027	817.14	0.45
0.4651	332.93	15023	818.68	0.45
0.4651	332.93	16007	820.18	0.45
0.4651	332.93	17014	821.68	0.45
0.4651	332.93	18040	823.21	0.45
0.4651	332.93	19015	824.63	0.45
0.4651	332.93	20026	826.05	0.45
0.4651	332.93	21019	827.43	0.45
0.4651	332.93	21997	828.79	0.45
0.4651	332.93	23031	830.22	0.45
0.4651	332.93	24024	831.62	0.45
0.4651	342.87	10006	797.4	0.44
0.4651	342.87	11022	799.24	0.44
0.4651	342.87	11991	801.02	0.44
0.4651	342.87	13001	802.82	0.44
0.4651	342.87	13990	804.53	0.44
0.4651	342.87	15036	806.31	0.45
0.4651	342.87	16014	807.95	0.45
0.4651	342.87	17004	809.55	0.45
0.4651	342.87	18017	811.18	0.45
0.4651	342.87	19019	812.75	0.45
0.4651	342.87	20033	814.31	0.45
0.4651	342.87	21025	815.82	0.45
0.4651	342.87	21983	817.26	0.45
0.4651	342.87	23014	818.77	0.45
0.4651	342.87	24023	820.23	0.45
0.4651	352.79	11040	785.81	0.44
0.4651	352.79	12030	787.74	0.44
0.4651	352.79	13014	789.67	0.44
0.4651	352.79	13996	791.51	0.44
0.4651	352.79	15009	793.37	0.45
0.4651	352.79	16021	795.22	0.45
0.4651	352.79	17023	797.01	0.45
0.4651	352.79	18036	798.78	0.45
0.4651	352.79	19033	800.49	0.45
0.4651	352.79	20034	802.15	0.45
0.4651	352.79	21019	803.78	0.45
0.4651	352.79	22005	805.38	0.45
0.4651	352.79	23048	807.02	0.45
0.4651	352.79	24005	808.54	0.45
0.4651	362.64	12022	773.96	0.44
0.4651	362.64	13060	776.14	0.44
0.4651	362.64	14031	778.14	0.44
0.4651	362.64	15047	780.2	0.44
0.4651	362.64	16038	782.15	0.44
0.4651	362.64	17020	784.05	0.45
0.4651	362.64	18020	785.95	0.45
0.4651	362.64	19043	787.85	0.45
0.4651	362.64	20038	789.76	0.45
0.4651	362.64	21016	791.43	0.45
0.4651	362.64	22046	793.2	0.45
0.4651	362.64	23026	794.9	0.45
0.4651	362.64	24056	796.64	0.45
0.6054	313.17	8123	838.39	0.45
0.6054	313.17	9084	840.4	0.44
0.6054	313.17	10125	842.5	0.45
0.6054	313.17	11050	844.32	0.45
0.6054	313.17	12045	846.23	0.45
0.6054	313.17	13094	848.18	0.45
0.6054	313.17	14054	849.93	0.45
0.6054	313.17	15019	851.65	0.45
0.6054	313.17	16045	853.41	0.45
0.6054	313.17	17046	855.12	0.45
0.6054	313.17	18027	856.75	0.45
0.6054	313.17	19070	858.44	0.45
0.6054	313.17	20036	859.99	0.45
0.6054	313.17	21030	861.55	0.46
0.6054	313.17	22042	863.12	0.46
0.6054	313.17	23036	864.64	0.46
0.6054	313.17	24020	866.12	0.46
0.6054	313.17	25040	867.64	0.46
0.6054	323.11	9115	824.57	0.45
0.6054	323.11	10057	826.64	0.46
0.6054	323.11	11062	828.82	0.45
0.6054	323.11	12049	830.92	0.45
0.6054	323.11	13068	833.05	0.45
0.6054	323.11	14062	835.02	0.45
0.6054	323.11	15036	836.96	0.45
0.6054	323.11	16032	838.86	0.45
0.6054	323.11	17053	840.77	0.45
0.6054	323.11	18069	842.62	0.45
0.6054	323.11	19041	844.36	0.45
0.6054	323.11	20032	846.09	0.45
0.6054	323.11	21051	847.84	0.45
0.6054	323.11	22019	849.47	0.46
0.6054	323.11	23023	851.13	0.46
0.6054	323.11	24036	852.76	0.46
0.6054	323.11	25069	854.41	0.46
0.6054	333.01	11162	813.27	0.45
0.6054	333.01	12048	815.29	0.46
0.6054	333.01	13037	817.51	0.45
0.6054	333.01	14041	819.75	0.45
0.6054	333.01	15073	822.01	0.45
0.6054	333.01	16020	824.01	0.45
0.6054	333.01	17032	826.08	0.45
0.6054	333.01	18043	828.09	0.45
0.6054	333.01	19023	830	0.45
0.6054	333.01	20028	831.92	0.45
0.6054	333.01	21051	833.82	0.45
0.6054	333.01	22023	835.61	0.45
0.6054	333.01	23040	837.43	0.46
0.6054	333.01	24066	839.22	0.46
0.6054	333.01	25039	840.93	0.47
0.6054	342.95	13102	801.79	0.54
0.6054	342.95	14086	804.2	0.45
0.6054	342.95	15021	806.46	0.45
0.6054	342.95	16051	808.84	0.45
0.6054	342.95	17053	811.1	0.45
0.6054	342.95	18061	813.31	0.45
0.6054	342.95	19049	815.42	0.45
0.6054	342.95	20084	817.54	0.45
0.6054	342.95	21075	819.56	0.45
0.6054	342.95	22070	821.54	0.45
0.6054	342.95	23069	823.48	0.45
0.6054	342.95	24068	825.37	0.45
0.6054	342.95	25106	827.29	0.46
0.6054	352.88	14062	787.97	0.66
0.6054	352.88	15034	790.53	0.45
0.6054	352.88	16029	793.07	0.45
0.6054	352.88	17048	795.6	0.45
0.6054	352.88	18046	798.05	0.45
0.6054	352.88	19026	800.32	0.45
0.6054	352.88	20030	802.6	0.45
0.6054	352.88	21058	804.93	0.45
0.6054	352.88	22056	807.03	0.45
0.6054	352.88	23049	809.11	0.45
0.6054	352.88	24065	811.21	0.45
0.6054	352.88	25092	813.29	0.45
0.6054	362.76	15032	774.3	0.64
0.6054	362.76	16035	777.11	0.46
0.6054	362.76	17040	779.89	0.46
0.6054	362.76	18044	782.5	0.46
0.6054	362.76	19042	785.04	0.46
0.6054	362.76	20068	787.6	0.46
0.6054	362.76	21079	790.03	0.46
0.6054	362.76	22029	792.27	0.46
0.6054	362.76	23044	794.59	0.46
0.6054	362.76	24071	796.88	0.46
0.6054	362.76	25065	799.05	0.45
0.7274	313.12	10012	838.41	0.47
0.7274	313.12	11010	841.91	0.46
0.7274	313.12	11998	845.15	0.46
0.7274	313.12	13032	848.39	0.46
0.7274	313.12	14027	851.37	0.46
0.7274	313.12	15004	854.2	0.46
0.7274	313.12	16022	857	0.46
0.7274	313.12	17019	859.65	0.46
0.7274	313.12	18018	862.21	0.46
0.7274	313.12	19055	864.78	0.46
0.7274	313.12	19966	866.98	0.46
0.7274	313.12	21014	869.44	0.46
0.7274	313.12	22029	871.77	0.46
0.7274	313.12	23059	874.05	0.47
0.7274	323.08	11058	819.26	0.49
0.7274	323.08	12031	823.11	0.46
0.7274	323.08	13034	826.85	0.46
0.7274	323.08	14040	830.38	0.46
0.7274	323.08	15010	833.59	0.46
0.7274	323.08	16026	836.83	0.46
0.7274	323.08	17015	839.83	0.46
0.7274	323.08	17987	842.68	0.46
0.7274	323.08	19054	845.68	0.46
0.7274	323.08	19981	848.2	0.46
0.7274	323.08	21008	850.93	0.46
0.7274	323.08	22014	853.5	0.46
0.7274	323.08	23019	855.98	0.46
0.7274	323.08	23836	857.96	0.46
0.7274	332.96	13052	804	0.5
0.7274	332.96	14008	808.02	0.46
0.7274	332.96	15033	812.1	0.46
0.7274	332.96	16033	815.82	0.46
0.7274	332.96	17034	819.37	0.46
0.7274	332.96	17988	822.59	0.46
0.7274	332.96	19059	826.03	0.46
0.7274	332.96	20008	828.96	0.46
0.7274	332.96	20999	831.94	0.46
0.7274	332.96	22023	834.87	0.46
0.7274	332.96	23004	837.6	0.46
0.7274	332.96	23961	840.19	0.46
0.7274	342.87	14011	784.26	0.57
0.7274	342.87	14992	789	0.47
0.7274	342.87	16025	793.59	0.47
0.7274	342.87	17006	797.68	0.46
0.7274	342.87	18005	801.59	0.46
0.7274	342.87	19032	805.44	0.46
0.7274	342.87	19983	808.81	0.46
0.7274	342.87	21039	812.39	0.46
0.7274	342.87	22001	815.49	0.46
0.7274	342.87	23015	818.69	0.46
0.7274	342.87	24099	821.95	0.46
0.7274	352.81	15005	763.67	0.76
0.7274	352.81	16021	769.33	0.47
0.7274	352.81	17045	774.53	0.47
0.7274	352.81	18023	779.16	0.47
0.7274	352.81	19050	783.67	0.46
0.7274	352.81	19999	787.59	0.46
0.7274	352.81	21063	791.77	0.46
0.7274	352.81	22020	795.33	0.46
0.7274	352.81	23038	798.99	0.46
0.7274	352.81	23982	802.22	0.46
0.7274	352.81	25068	805.8	0.45
0.7274	362.67	16036	743.56	0.81
0.7274	362.67	17030	749.82	0.52
0.7274	362.67	18000	755.36	0.51
0.7274	362.67	19028	760.67	0.5
0.7274	362.67	20033	765.6	0.49
0.7274	362.67	21074	770.32	0.49
0.7274	362.67	22015	774.34	0.48
0.7274	362.67	23077	778.68	0.48
0.7274	362.67	24033	782.39	0.48
0.7274	362.67	25155	786.55	0.54
0.8067	313.1	10006	827.85	0.51
0.8067	313.1	11006	834.45	0.49
0.8067	313.1	12019	840.12	0.48
0.8067	313.1	13002	845.06	0.48
0.8067	313.1	13996	849.67	0.47
0.8067	313.1	15017	854.05	0.47
0.8067	313.1	16028	858.11	0.47
0.8067	313.1	17009	861.86	0.47
0.8067	313.1	18017	865.48	0.47
0.8067	313.1	19027	868.98	0.47
0.8067	313.1	19996	872.2	0.47
0.8067	313.1	21011	875.4	0.47
0.8067	313.1	22004	878.43	0.47
0.8067	313.1	22990	881.33	0.47
0.8067	323.05	11015	800.23	0.54
0.8067	323.05	12032	808.05	0.5
0.8067	323.05	13028	814.77	0.49
0.8067	323.05	14024	820.63	0.48
0.8067	323.05	15001	825.93	0.48
0.8067	323.05	16066	831.24	0.48
0.8067	323.05	17021	835.7	0.48
0.8067	323.05	18002	840	0.47
0.8067	323.05	19012	844.21	0.47
0.8067	323.05	20044	848.26	0.47
0.8067	323.05	21046	851.97	0.47
0.8067	323.05	22017	855.5	0.47
0.8067	323.05	22970	858.77	0.47
0.8067	332.93	12032	770.68	0.53
0.8067	332.93	12995	780.67	0.51
0.8067	332.93	14013	788.98	0.5
0.8067	332.93	15025	796.09	0.5
0.8067	332.93	16021	802.3	0.51
0.8067	332.93	17021	808.04	0.5
0.8067	332.93	18021	813.35	0.49
0.8067	332.93	19011	818.27	0.49
0.8067	332.93	20022	822.95	0.49
0.8067	332.93	21029	827.4	0.48
0.8067	332.93	21989	831.41	0.48
0.8067	332.93	23008	835.47	0.48
0.8573	313.12	10002	809.77	0.54
0.8573	313.12	11023	818.98	0.53
0.8573	313.12	12025	826.77	0.51
0.8573	313.12	13005	833.59	0.5
0.8573	313.12	14012	839.94	0.5
0.8573	313.12	15004	845.66	0.49
0.8573	313.12	15995	851	0.49
0.8573	313.12	17007	856.08	0.49
0.8573	313.12	18013	860.84	0.48
0.8573	313.12	19038	865.44	0.48
0.8573	313.12	20008	869.59	0.48
0.8573	313.12	21008	873.67	0.48
0.8573	313.12	22009	877.54	0.48
0.8573	313.12	23015	881.34	0.48
0.8573	313.12	23995	884.88	0.48
0.8573	323.06	11010	775.4	0.58
0.8573	323.06	12019	787.14	0.54
0.8573	323.06	13011	796.54	0.52
0.8573	323.06	14000	804.66	0.51
0.8573	323.06	15019	812.19	0.5
0.8573	323.06	16044	819.03	0.49
0.8573	323.06	17005	824.92	0.49
0.8573	323.06	18049	830.83	0.49
0.8573	323.06	19010	835.97	0.48
0.8573	323.06	20006	840.95	0.48
0.8573	323.06	20987	845.64	0.48
0.8573	323.06	22019	850.27	0.48
0.8573	323.06	23021	854.64	0.48
0.8573	323.06	24075	858.97	0.48
0.8573	332.95	13016	754.58	0.6
0.8573	332.95	14042	766.56	0.54
0.8573	332.95	15028	776.2	0.52
0.8573	332.95	16013	784.6	0.51
0.8573	332.95	17014	792.22	0.5
0.8573	332.95	18011	799.17	0.5
0.8573	332.95	19027	805.67	0.49
0.8573	332.95	20006	811.5	0.49
0.8573	332.95	20996	817.04	0.48
0.8573	332.95	22056	822.62	0.49
0.8573	332.95	23032	827.46	0.48
0.8573	332.95	24010	832.11	0.48
0.8573	342.89	14024	720.89	0.75
0.8573	342.89	15020	735.53	0.57
0.8573	342.89	16007	747	0.53
0.8573	342.89	17031	757.08	0.52
0.8573	342.89	18025	765.71	0.51
0.8573	342.89	19016	773.47	0.5
0.8573	342.89	20036	780.77	0.49
0.8573	342.89	21016	787.25	0.49
0.8573	342.89	21989	793.31	0.49
0.8573	342.89	23049	799.42	0.49
0.8573	342.89	24035	804.78	0.48
0.8573	342.89	24945	809.51	0.48
0.8573	352.8	16062	704.48	0.73
0.8573	352.8	17045	717.71	0.56
0.8573	352.8	18036	728.91	0.54
0.8573	352.8	19024	738.63	0.53
0.8573	352.8	20047	747.71	0.52
0.8573	352.8	21012	755.39	0.51
0.8573	352.8	22013	762.78	0.5
0.8573	352.8	23034	769.78	0.5
0.8573	352.8	24038	776.16	0.52
0.8573	352.8	25052	782.21	0.48
0.9216	313.11	10023	783.1	0.77
0.9216	313.11	11007	796.3	0.59
0.9216	313.11	12014	807.61	0.56
0.9216	313.11	13034	817.54	0.54
0.9216	313.11	14013	826.1	0.53
0.9216	313.11	15032	834.15	0.52
0.9216	313.11	16011	841.25	0.51
0.9216	313.11	17000	847.91	0.51
0.9216	313.11	18011	854.26	0.5
0.9216	313.11	19003	860.12	0.5
0.9216	313.11	20009	865.74	0.5
0.9216	313.11	20983	870.88	0.49
0.9216	323.06	11028	732.55	1.03
0.9216	323.06	12011	751.44	0.68
0.9216	323.06	13032	766.64	0.61
0.9216	323.06	14011	778.82	0.58
0.9216	323.06	15028	789.81	0.56
0.9216	323.06	15995	799.06	0.54
0.9216	323.06	17047	808.18	0.53
0.9216	323.06	18002	815.71	0.52
0.9216	323.06	19033	823.28	0.51
0.9216	323.06	19996	829.83	0.51
0.9216	323.06	21053	836.6	0.5
0.9216	323.06	21758	840.85	0.49
0.9216	332.95	13026	704.11	1.01
0.9216	332.95	14021	723.65	0.67
0.9216	332.95	15016	739.26	0.62
0.9216	332.95	15984	752.12	0.58
0.9216	332.95	17039	764.27	0.56
0.9216	332.95	18019	774.24	0.54
0.9216	332.95	19005	783.37	0.53
0.9216	332.95	20008	791.89	0.52
0.9216	332.95	21037	799.89	0.51
0.9216	332.95	21691	804.69	0.51
0.9216	342.88	14001	654.38	0.75
0.9216	342.88	15014	679.88	0.73
0.9216	342.88	16009	699.02	0.66
0.9216	342.88	17032	715.18	0.61
0.9216	342.88	18002	728.34	0.58
0.9216	342.88	19057	740.82	0.56
0.9216	342.88	19996	750.81	0.55
0.9216	342.88	21039	760.88	0.53
0.9216	342.88	22026	769.6	0.5
0.9216	352.81	15032	609.93	0.77
0.9216	352.81	16001	637.91	0.73
0.9216	352.81	17044	660.91	0.66
0.9216	352.81	18017	678.45	0.63
0.9216	352.81	19030	693.91	0.6
0.9216	352.81	20017	707.27	0.58
0.9216	352.81	21041	719.46	0.56
0.9216	352.81	22043	730.24	0.55
0.9216	352.81	23032	740.03	0.49
0.9216	362.66	16024	573.29	0.76
0.9216	362.66	17029	602.35	0.71
0.9216	362.66	18035	625.49	0.65
0.9216	362.66	19005	644.28	0.61
0.9216	362.66	20065	661.85	0.63
0.9216	362.66	21055	676.21	0.6
0.9216	362.66	22016	688.72	0.59
0.9216	362.66	23071	701.08	0.56
0.9216	362.66	23748	708.43	0.57
0.9757	313.1	10035	716.11	0.96
0.9757	313.1	11020	742.56	0.96
0.9757	313.1	11992	762.5	0.78
0.9757	313.1	13014	779.62	0.7
0.9757	313.1	14022	793.9	0.65
0.9757	313.1	15002	806.06	0.62
0.9757	313.1	16001	817.16	0.6
0.9757	313.1	17026	827.46	0.58
0.9757	313.1	17998	836.37	0.56
0.9757	313.1	19034	845.17	0.55
0.9757	313.1	20005	852.85	0.54
0.9757	313.1	20988	860.09	0.54
0.9757	313.1	21994	867.1	0.53
0.9757	313.1	22839	872.7	0.53
0.9757	323.05	11033	625.72	1.16
0.9757	323.05	11995	668.32	0.99
0.9757	323.05	13017	699.41	0.87
0.9757	323.05	14024	722.69	0.76
0.9757	323.05	14965	740.5	0.69
0.9757	323.05	16018	757.4	0.65
0.9757	323.05	17052	771.8	0.62
0.9757	323.05	18028	783.78	0.59
0.9757	323.05	19035	794.96	0.58
0.9757	323.05	20002	804.8	0.56
0.9757	323.05	21049	814.6	0.55
0.9757	323.05	22020	823	0.54
0.9757	323.05	22767	829.12	0.54
0.9757	332.93	12989	593.78	1.07
0.9757	332.93	13992	633.72	0.95
0.9757	332.93	15014	664.21	0.84
0.9757	332.93	16011	687.95	0.75
0.9757	332.93	17022	707.96	0.69
0.9757	332.93	18021	724.84	0.65
0.9757	332.93	19008	739.5	0.62
0.9757	332.93	20041	753.18	0.6
0.9757	332.93	21021	764.86	0.58
0.9757	332.93	22013	775.63	0.56
0.9757	342.84	15024	576.16	0.95
0.9757	342.84	16006	609.2	0.88
0.9757	342.84	17033	637.26	0.78
0.9757	342.84	18023	659.89	0.73
0.9757	342.84	19028	679.62	0.68
0.9757	342.84	20027	696.58	0.64
0.9757	342.84	21039	711.98	0.62
0.9757	342.84	22011	725.1	0.6
0.9757	342.84	23016	737.54	0.57
0.9757	352.73	17393	574.15	0.83
0.9757	352.73	18036	591.88	0.79
0.9757	352.73	19032	616.27	0.74
0.9757	352.73	20013	637.17	0.69
0.9757	352.73	21057	656.66	0.66
0.9757	352.73	22011	672.48	0.63
0.9757	352.73	23064	688.28	0.61
0.9757	352.73	24053	701.67	0.58
0.9757	362.58	20013	578.28	0.72
0.9757	362.58	21042	600.7	0.7
0.9757	362.58	22020	619.68	0.66
0.9757	362.58	23010	637.03	0.64
0.9757	362.58	24034	653.33	0.62
0.9757	362.58	25047	667.94	0.58
