Measured thermophysical data. Interfacial tension measurements in the (CO2 + H2) gas mixture and water system at temperatures from 271.2 K to 280.2 K and pressures up to 7.0 MPa
Source: J. Chem. Thermodyn., 2018, 10.1016/j.jct.2017.12.011
Compound 1: carbon dioxide, CO2, InChI=1S/CO2/c2-1-3, purity 99.9%
Compound 2: hydrogen, H2, InChI=1S/H2/h1H, purity 99.9%
Compound 3: water, H2O, InChI=1S/H2O/h1H2

System: water; phases: Liquid, Gas
Property: Surface tension liquid-gas, N/m (Liquid); method: Pendant drop shape
Temperature, K	Surface tension liquid-gas, N/m	uncertainty
280.2	0.0745	0.00145
280.2	0.07421	0.00132
278.2	0.07461	0.00203
278.2	0.07498	0.00188
276.2	0.07511	0.00147
276.2	0.07534	0.00186
274.2	0.07574	0.00184
274.2	0.07589	0.00149
271.2	0.07643	0.00181
271.2	0.07639	0.00188

System: carbon dioxide + hydrogen + water; phases: Liquid, Gas
Property: Surface tension liquid-gas, N/m (Liquid); method: Pendant drop shape
Temperature, K	Pressure, kPa	Mole fraction of carbon dioxide	Surface tension liquid-gas, N/m	uncertainty
280.2	1030	0.402	0.07073	0.00208
280.2	1020	0.402	0.0711	0.00165
280.2	2040	0.401	0.06749	0.00239
280.2	2040	0.401	0.06792	0.00203
280.2	4050	0.4	0.06113	0.00185
280.2	4010	0.4	0.06197	0.0014
280.2	6000	0.399	0.05648	0.00161
280.2	6000	0.399	0.05761	0.00149
280.2	6960	0.398	0.05435	0.00256
280.2	6990	0.398	0.05387	0.00224
278.2	1070	0.402	0.07077	0.00251
278.2	1020	0.402	0.07108	0.00269
278.2	2090	0.401	0.06677	0.00239
278.2	2090	0.401	0.06851	0.0014
278.2	4060	0.4	0.06177	0.00153
278.2	4070	0.4	0.06183	0.00209
278.2	6040	0.399	0.05566	0.00127
278.2	6010	0.399	0.0548	0.00134
278.2	6910	0.398	0.05181	0.0025
278.2	6970	0.398	0.05012	0.00279
276.2	1020	0.402	0.07134	0.00237
276.2	1040	0.402	0.07151	0.00201
276.2	2040	0.401	0.06701	0.00256
276.2	2020	0.401	0.06699	0.00167
274.2	1010	0.402	0.07078	0.00415
274.2	1030	0.402	0.07121	0.01174
274.2	2010	0.401	0.06683	0.00257
274.2	2000	0.401	0.06866	0.00509
271.2	1030	0.402	0.07063	0.00166
271.2	1020	0.402	0.07078	0.00172
271.2	2040	0.401	0.06758	0.00241
271.2	2040	0.401	0.06755	0.00217

System: hydrogen + water; phases: Liquid, Gas
Fixed: Temperature, K = 278.2
Property: Surface tension liquid-gas, N/m (Liquid); method: Pendant drop shape
Pressure, kPa	Surface tension liquid-gas, N/m	uncertainty
1020	0.07481	0.00147
1000	0.07411	0.00224
2030	0.07493	0.00149
2050	0.07501	0.00152
4030	0.07482	0.00132
4030	0.07479	0.00141
5990	0.07463	0.00154
6000	0.07458	0.00145
7020	0.07437	0.0018
7010	0.0745	0.00169
