Measured thermophysical data. (Liquid + liquid) equilibria for (acetate-based ionic liquids + inorganic salts) aqueous two-phase systems
Source: J. Chem. Thermodyn., 2010, 10.1016/j.jct.2010.03.010
Compound 1: 1-butyl-3-methylimidazolium acetate, C10H18N2O2, InChI=1S/C8H15N2.C2H4O2/c1-3-4-5-10-7-6-9(2)8-10;1-2(3)4/h6-8H,3-5H2,1-2H3;1H3,(H,3,4)/q+1;/p-1, purity 98%
Compound 2: 3-hexyl-1-methylimidazolium acetate, C12H22N2O2, InChI=1S/C10H19N2.C2H4O2/c1-3-4-5-6-7-12-9-8-11(2)10-12;1-2(3)4/h8-10H,3-7H2,1-2H3;1H3,(H,3,4)/q+1;/p-1, purity 98%
Compound 3: 1-methyl-3-octylimidazolium acetate, C14H26N2O2, InChI=1S/C12H23N2.C2H4O2/c1-3-4-5-6-7-8-9-14-11-10-13(2)12-14;1-2(3)4/h10-12H,3-9H2,1-2H3;1H3,(H,3,4)/q+1;/p-1, purity 98%
Compound 4: tripotassium phosphate, K3O4P, InChI=1S/3K.H3O4P/c;;;1-5(2,3)4/h;;;(H3,1,2,3,4)/q3*+1;/p-3, purity 98%
Compound 5: dipotassium hydrogen phosphate, HK2O4P, InChI=1S/2K.H3O4P/c;;1-5(2,3)4/h;;(H3,1,2,3,4)/q2*+1;/p-2, purity 98%
Compound 6: potassium carbonate, CK2O3, InChI=1S/CH2O3.2K/c2-1(3)4;;/h(H2,2,3,4);;/q;2*+1/p-2, purity 98%
Compound 7: water, H2O, InChI=1S/H2O/h1H2, purity 99.8%

System: water + tripotassium phosphate + 1-butyl-3-methylimidazolium acetate; phases: Liquid mixture 1, Liquid mixture 2
Fixed: Pressure, kPa = 101
Fixed: Temperature, K = 298.15
Property: Mass fraction of 1-butyl-3-methylimidazolium acetate (Liquid mixture 1); method: Titration method
Mass fraction of tripotassium phosphate	Mass fraction of 1-butyl-3-methylimidazolium acetate	uncertainty
0.0768	0.3178	0.027
0.1259	0.225	0.0191
0.1492	0.1862	0.0158
0.1789	0.1518	0.0129
0.193	0.1354	0.0115
0.208	0.1173	0.01
0.222	0.1041	0.0088
0.2336	0.092	0.0078
0.2426	0.084	0.0071
0.2532	0.0728	0.0062
0.2601	0.0671	0.0057
0.2661	0.0618	0.0052

System: water + tripotassium phosphate + 1-butyl-3-methylimidazolium acetate; phases: Liquid mixture 1, Liquid mixture 2
Property: Mass fraction of tripotassium phosphate (Liquid mixture 1); method: UV spectroscopy and gravimetry
Property: Mass fraction of tripotassium phosphate (Liquid mixture 2); method: UV spectroscopy and gravimetry
Property: Mass fraction of 1-butyl-3-methylimidazolium acetate (Liquid mixture 2); method: UV spectroscopy and gravimetry
Temperature, K	Mass fraction of 1-butyl-3-methylimidazolium acetate	Pressure, kPa	Mass fraction of tripotassium phosphate	uncertainty	Mass fraction of tripotassium phosphate	uncertainty	Mass fraction of 1-butyl-3-methylimidazolium acetate	uncertainty
298.15	0.3726	101	0.0331	0.0011	0.3545	0.0116	0.0345	

System: water + dipotassium hydrogen phosphate + 1-butyl-3-methylimidazolium acetate; phases: Liquid mixture 1, Liquid mixture 2
Fixed: Pressure, kPa = 101
Fixed: Temperature, K = 298.15
Property: Mass fraction of 1-butyl-3-methylimidazolium acetate (Liquid mixture 1); method: Titration method
Mass fraction of dipotassium hydrogen phosphate	Mass fraction of 1-butyl-3-methylimidazolium acetate	uncertainty
0.0169	0.5283	0.0443
0.0635	0.3609	0.0306
0.1269	0.2561	0.0217
0.1504	0.2089	0.0177
0.1876	0.1676	0.0142
0.2186	0.1409	0.012
0.2348	0.1271	0.0108
0.2495	0.1147	0.0097
0.2619	0.1027	0.0087
0.2698	0.0956	0.0081
0.278	0.088	0.0075
0.2855	0.0826	0.007
0.2934	0.0764	0.0065
0.3006	0.0707	0.006
0.3068	0.0658	0.0056
0.3139	0.0606	0.0051
0.3207	0.0558	0.0047
0.3247	0.0531	0.0045

System: water + dipotassium hydrogen phosphate + 1-butyl-3-methylimidazolium acetate; phases: Liquid mixture 2, Liquid mixture 1
Fixed: Temperature, K = 298.15
Fixed: Pressure, kPa = 101
Property: Mass fraction of 1-butyl-3-methylimidazolium acetate (Liquid mixture 2); method: UV spectroscopy and gravimetry
Property: Mass fraction of dipotassium hydrogen phosphate (Liquid mixture 1); method: UV spectroscopy and gravimetry
Property: Mass fraction of 1-butyl-3-methylimidazolium acetate (Liquid mixture 1); method: UV spectroscopy and gravimetry
Mass fraction of dipotassium hydrogen phosphate	Mass fraction of 1-butyl-3-methylimidazolium acetate	uncertainty	Mass fraction of dipotassium hydrogen phosphate	uncertainty	Mass fraction of 1-butyl-3-methylimidazolium acetate	uncertainty
0.4976	0.0273	0.0104	0.0112	0.0108	0.5507	
0.4557	0.0256	0.0129	0.0503	0.0109	0.4112	
0.4575	0.0369	0.0129	0.0452	0.0108	0.4351	

System: potassium carbonate + water + 1-butyl-3-methylimidazolium acetate; phases: Liquid mixture 1, Liquid mixture 2
Fixed: Pressure, kPa = 101
Fixed: Temperature, K = 298.15
Property: Mass fraction of 1-butyl-3-methylimidazolium acetate (Liquid mixture 1); method: Titration method
Mass fraction of potassium carbonate	Mass fraction of 1-butyl-3-methylimidazolium acetate	uncertainty
0.0445	0.5207	0.0438
0.0695	0.4064	0.0345
0.1222	0.2748	0.0233
0.1561	0.2255	0.0191
0.1734	0.2008	0.017
0.1946	0.1751	0.0149
0.2056	0.1604	0.0136
0.2171	0.1477	0.0125
0.2312	0.1353	0.0115
0.2382	0.1266	0.0107
0.2485	0.1172	0.0099
0.2536	0.1107	0.0094
0.2618	0.1014	0.0086
0.2696	0.0928	0.0079
0.2771	0.0853	0.0072
0.2845	0.0789	0.0067
0.2919	0.0727	0.0062
0.2967	0.0679	0.0058
0.3014	0.0635	0.0054
0.3068	0.0596	0.0051
0.3106	0.0561	0.0048
0.3139	0.0529	0.0045

System: water + tripotassium phosphate + 3-hexyl-1-methylimidazolium acetate; phases: Liquid mixture 1, Liquid mixture 2
Fixed: Pressure, kPa = 101
Fixed: Temperature, K = 298.15
Property: Mass fraction of 3-hexyl-1-methylimidazolium acetate (Liquid mixture 1); method: Titration method
Mass fraction of tripotassium phosphate	Mass fraction of 3-hexyl-1-methylimidazolium acetate	uncertainty
0.0226	0.4677	0.0397
0.0738	0.3221	0.0273
0.0957	0.2688	0.0228
0.1242	0.219	0.0186
0.1473	0.1822	0.0155
0.1618	0.1626	0.0138
0.1776	0.1429	0.0121
0.1889	0.1294	0.011
0.1993	0.118	0.01
0.2104	0.106	0.009
0.2173	0.0979	0.0083
0.2238	0.0907	0.0077
0.2299	0.0845	0.0072
0.2351	0.0787	0.0067
0.2401	0.0737	0.0063
0.245	0.0691	0.0059
0.2487	0.0652	0.0055

System: water + tripotassium phosphate + 3-hexyl-1-methylimidazolium acetate; phases: Liquid mixture 1, Liquid mixture 2
Property: Mass fraction of tripotassium phosphate (Liquid mixture 1); method: UV spectroscopy and gravimetry
Property: Mass fraction of tripotassium phosphate (Liquid mixture 2); method: UV spectroscopy and gravimetry
Property: Mass fraction of 3-hexyl-1-methylimidazolium acetate (Liquid mixture 2); method: UV spectroscopy and gravimetry
Temperature, K	Mass fraction of 3-hexyl-1-methylimidazolium acetate	Pressure, kPa	Mass fraction of tripotassium phosphate	uncertainty	Mass fraction of tripotassium phosphate	uncertainty	Mass fraction of 3-hexyl-1-methylimidazolium acetate	uncertainty
298.15	0.3785	101	0.0569	0.0018	0.3119	0.0104	0.0249	

System: water + dipotassium hydrogen phosphate + 3-hexyl-1-methylimidazolium acetate; phases: Liquid mixture 1, Liquid mixture 2
Fixed: Pressure, kPa = 101
Fixed: Temperature, K = 298.15
Property: Mass fraction of 3-hexyl-1-methylimidazolium acetate (Liquid mixture 1); method: Titration method
Mass fraction of dipotassium hydrogen phosphate	Mass fraction of 3-hexyl-1-methylimidazolium acetate	uncertainty
0.0355	0.445	0.0378
0.0725	0.3361	0.0285
0.1134	0.2536	0.0215
0.1489	0.2096	0.0178
0.1752	0.1756	0.0149
0.1912	0.1596	0.0135
0.21	0.1422	0.0121
0.2232	0.1282	0.0109
0.2387	0.1132	0.0096
0.2491	0.1046	0.0089
0.2563	0.0967	0.0082
0.2645	0.09	0.0076
0.2701	0.085	0.0072
0.2756	0.0805	0.0068
0.2818	0.0753	0.0064
0.2862	0.0717	0.0061
0.2922	0.0672	0.0057
0.2961	0.0638	0.0054
0.3	0.0608	0.0052
0.3051	0.057	0.0048
0.3081	0.0544	0.0046

System: potassium carbonate + water + 3-hexyl-1-methylimidazolium acetate; phases: Liquid mixture 1, Liquid mixture 2
Fixed: Pressure, kPa = 101
Fixed: Temperature, K = 298.15
Property: Mass fraction of 3-hexyl-1-methylimidazolium acetate (Liquid mixture 1); method: Titration method
Mass fraction of potassium carbonate	Mass fraction of 3-hexyl-1-methylimidazolium acetate	uncertainty
0.0512	0.4379	0.0372
0.1038	0.3107	0.0264
0.1428	0.2443	0.0207
0.1587	0.211	0.0179
0.1785	0.1827	0.0155
0.1997	0.1594	0.0135
0.2111	0.1436	0.0122
0.2258	0.1293	0.011
0.2353	0.1173	0.01
0.2429	0.1077	0.0091
0.2499	0.0997	0.0085
0.2574	0.0922	0.0078
0.2615	0.0866	0.0073
0.2701	0.0788	0.0067
0.276	0.0724	0.0061
0.2825	0.0649	0.0055
0.2868	0.0601	0.0051
0.2915	0.0556	0.0047

System: water + tripotassium phosphate + 1-methyl-3-octylimidazolium acetate; phases: Liquid mixture 1, Liquid mixture 2
Fixed: Pressure, kPa = 101
Fixed: Temperature, K = 298.15
Property: Mass fraction of 1-methyl-3-octylimidazolium acetate (Liquid mixture 1); method: Titration method
Mass fraction of tripotassium phosphate	Mass fraction of 1-methyl-3-octylimidazolium acetate	uncertainty
0.0249	0.4996	0.0424
0.0658	0.3644	0.0309
0.1185	0.268	0.0227
0.1402	0.2229	0.0189
0.1605	0.1923	0.0163
0.1759	0.1662	0.0141
0.1871	0.1509	0.0128
0.1959	0.1379	0.0117
0.2041	0.1265	0.0107
0.2109	0.1176	0.01
0.218	0.1094	0.0093
0.2272	0.0991	0.0084
0.2316	0.0948	0.008
0.2361	0.0892	0.0076
0.2413	0.0838	0.0071
0.2462	0.0789	0.0067
0.2508	0.0739	0.0063
0.2539	0.0709	0.006
0.2575	0.0672	0.0057
0.2612	0.0635	0.0054
0.2665	0.0589	0.005
0.2696	0.0558	0.0047
0.2729	0.0531	0.0045
0.2768	0.0499	0.0042
0.2808	0.047	0.004

System: water + tripotassium phosphate + 1-methyl-3-octylimidazolium acetate; phases: Liquid mixture 2, Liquid mixture 1
Property: Mass fraction of tripotassium phosphate (Liquid mixture 2); method: UV spectroscopy and gravimetry
Property: Mass fraction of tripotassium phosphate (Liquid mixture 1); method: UV spectroscopy and gravimetry
Property: Mass fraction of 1-methyl-3-octylimidazolium acetate (Liquid mixture 1); method: UV spectroscopy and gravimetry
Temperature, K	Mass fraction of 1-methyl-3-octylimidazolium acetate	Pressure, kPa	Mass fraction of tripotassium phosphate	uncertainty	Mass fraction of tripotassium phosphate	uncertainty	Mass fraction of 1-methyl-3-octylimidazolium acetate	uncertainty
298.15	0.0272	101	0.2824	0.0097	0.0761	0.0026	0.3737	

System: water + dipotassium hydrogen phosphate + 1-methyl-3-octylimidazolium acetate; phases: Liquid mixture 1, Liquid mixture 2
Fixed: Pressure, kPa = 101
Fixed: Temperature, K = 298.15
Property: Mass fraction of 1-methyl-3-octylimidazolium acetate (Liquid mixture 1); method: Titration method
Mass fraction of dipotassium hydrogen phosphate	Mass fraction of 1-methyl-3-octylimidazolium acetate	uncertainty
0.0449	0.4706	0.0399
0.0694	0.4035	0.0342
0.1189	0.2963	0.0251
0.1588	0.2373	0.0201
0.1803	0.2073	0.0176
0.1955	0.1842	0.0156
0.2111	0.1635	0.0139
0.2259	0.1477	0.0125
0.2387	0.1335	0.0113
0.2479	0.1235	0.0105
0.2591	0.1134	0.0096
0.2646	0.1064	0.009
0.2776	0.0968	0.0082
0.284	0.0903	0.0077
0.2907	0.0844	0.0072
0.2962	0.0794	0.0067
0.3031	0.074	0.0063
0.3058	0.0707	0.006
0.3121	0.0666	0.0057
0.316	0.0633	0.0054
0.3211	0.06	0.0051
0.3266	0.0562	0.0048
0.3295	0.0538	0.0046
0.3338	0.0512	0.0043
0.3374	0.0483	0.0041
0.3435	0.0449	0.0038
0.3467	0.0422	0.0036

System: potassium carbonate + water + 1-methyl-3-octylimidazolium acetate; phases: Liquid mixture 1, Liquid mixture 2
Fixed: Pressure, kPa = 101
Fixed: Temperature, K = 298.15
Property: Mass fraction of 1-methyl-3-octylimidazolium acetate (Liquid mixture 1); method: Titration method
Mass fraction of potassium carbonate	Mass fraction of 1-methyl-3-octylimidazolium acetate	uncertainty
0.0599	0.4806	0.0408
0.096	0.385	0.0327
0.1319	0.3052	0.0259
0.1668	0.2478	0.021
0.1914	0.2075	0.0176
0.2135	0.1712	0.0145
0.2262	0.1512	0.0128
0.2389	0.1376	0.0117
0.2451	0.1282	0.0109
0.2518	0.1198	0.0102
0.2582	0.1129	0.0096
0.2666	0.1028	0.0087
0.2761	0.0935	0.0079
0.2797	0.0885	0.0075
0.2854	0.0837	0.0071
0.2915	0.0779	0.0066
0.2965	0.0728	0.0062
0.3012	0.0682	0.0058
0.3065	0.0637	0.0054
0.3097	0.0601	0.0051
0.3134	0.0565	0.0048
0.3168	0.053	0.0045
0.3195	0.0502	0.0043
0.3229	0.0475	0.004
