Measured thermophysical data. A comparative study of thermophysical and spectroscopic properties in mixtures of isomeric butanediol and N,N-dimethylformamide
Source: J. Chem. Thermodyn., 2006, 10.1016/j.jct.2005.09.001
Compound 1: dimethylformamide, C3H7NO, InChI=1S/C3H7NO/c1-4(2)3-5/h3H,1-2H3
Compound 2: 1,2-butanediol, C4H10O2, InChI=1S/C4H10O2/c1-2-4(6)3-5/h4-6H,2-3H2,1H3
Compound 3: 1,3-butanediol, C4H10O2, InChI=1S/C4H10O2/c1-4(6)2-3-5/h4-6H,2-3H2,1H3
Compound 4: 1,4-butanediol, C4H10O2, InChI=1S/C4H10O2/c5-3-1-2-4-6/h5-6H,1-4H2
Compound 5: 2,3-butanediol, C4H10O2, InChI=1S/C4H10O2/c1-3(5)4(2)6/h3-6H,1-2H3

System: dimethylformamide; phases: Liquid
Property: Mass density, kg/m3 (Liquid); method: VIBTUB:UFactor:4
Temperature, K	Pressure, kPa	Mass density, kg/m3	uncertainty
308.15	101.325	935.55	0.53

System: dimethylformamide; phases: Liquid
Property: Viscosity, Pa*s (Liquid); method: CAPTUB:UFactor:4
Temperature, K	Pressure, kPa	Viscosity, Pa*s	uncertainty
308.15	101.325	0.00071	1.9e-05

System: dimethylformamide; phases: Liquid
Property: Speed of sound, m/s (Liquid); method: Pulse-echo method
Temperature, K	Pressure, kPa	Speed of sound, m/s	uncertainty
308.15	101.325	1426.03	1.23

System: 1,2-butanediol; phases: Liquid
Property: Mass density, kg/m3 (Liquid); method: VIBTUB:UFactor:8
Temperature, K	Pressure, kPa	Mass density, kg/m3	uncertainty
308.15	101.325	988.25	1.05

System: 1,2-butanediol; phases: Liquid
Property: Viscosity, Pa*s (Liquid); method: CAPTUB:UFactor:4
Temperature, K	Pressure, kPa	Viscosity, Pa*s	uncertainty
308.15	101.325	0.030294	0.000587

System: 1,2-butanediol; phases: Liquid
Property: Speed of sound, m/s (Liquid); method: Pulse-echo method
Temperature, K	Pressure, kPa	Speed of sound, m/s	uncertainty
308.15	101.325	1422.61	2.12

System: 1,3-butanediol; phases: Liquid
Property: Mass density, kg/m3 (Liquid); method: VIBTUB:UFactor:4
Temperature, K	Pressure, kPa	Mass density, kg/m3	uncertainty
308.15	101.325	991.28	0.52

System: 1,3-butanediol; phases: Liquid
Property: Viscosity, Pa*s (Liquid); method: CAPTUB:UFactor:4
Temperature, K	Pressure, kPa	Viscosity, Pa*s	uncertainty
308.15	101.325	0.054236	0.000424

System: 1,3-butanediol; phases: Liquid
Property: Speed of sound, m/s (Liquid); method: Pulse-echo method
Temperature, K	Pressure, kPa	Speed of sound, m/s	uncertainty
308.15	101.325	1496.03	1.24

System: 1,4-butanediol; phases: Liquid
Property: Mass density, kg/m3 (Liquid); method: VIBTUB:UFactor:4
Temperature, K	Pressure, kPa	Mass density, kg/m3	uncertainty
308.15	101.325	1003.95	0.53

System: 1,4-butanediol; phases: Liquid
Property: Viscosity, Pa*s (Liquid); method: CAPTUB:UFactor:4
Temperature, K	Pressure, kPa	Viscosity, Pa*s	uncertainty
308.15	101.325	0.047378	0.000806

System: 1,4-butanediol; phases: Liquid
Property: Speed of sound, m/s (Liquid); method: Pulse-echo method
Temperature, K	Pressure, kPa	Speed of sound, m/s	uncertainty
308.15	101.325	1577.76	1.26

System: 2,3-butanediol; phases: Liquid
Property: Mass density, kg/m3 (Liquid); method: Vibrating tube method
Temperature, K	Pressure, kPa	Mass density, kg/m3	uncertainty
308.15	101.325	990.72	1.01

System: 2,3-butanediol; phases: Liquid
Property: Viscosity, Pa*s (Liquid); method: CAPTUB:UFactor:4
Temperature, K	Pressure, kPa	Viscosity, Pa*s	uncertainty
308.15	101.325	0.05138	0.000533

System: 2,3-butanediol; phases: Liquid
Property: Speed of sound, m/s (Liquid); method: Pulse-echo method
Temperature, K	Pressure, kPa	Speed of sound, m/s	uncertainty
308.15	101.325	1456.6	2.13

System: dimethylformamide + 1,2-butanediol; phases: Liquid
Fixed: Pressure, kPa = 101
Fixed: Temperature, K = 308.15
Property: Viscosity, Pa*s (Liquid); method: CAPTUB:UFactor:4
Mole fraction of 1,2-butanediol	Viscosity, Pa*s	uncertainty
0.0519	0.000748	2e-05
0.1008	0.000855	2.2e-05
0.2013	0.001113	2.8e-05
0.2983	0.001444	3.5e-05
0.4099	0.002065	5e-05
0.4883	0.002645	6.3e-05
0.5694	0.003576	8.4e-05
0.7139	0.007387	0.000159
0.8896	0.016219	0.000322
0.9489	0.021895	0.000428

System: dimethylformamide + 1,2-butanediol; phases: Liquid
Fixed: Pressure, kPa = 101
Fixed: Temperature, K = 308.15
Property: Speed of sound, m/s (Liquid); method: Pulse-echo method
Mole fraction of 1,2-butanediol	Speed of sound, m/s	uncertainty
0.0519	1428.61	1.27
0.1008	1429.64	1.31
0.2013	1431.18	1.4
0.2983	1432.6	1.48
0.4099	1433.63	1.58
0.4883	1434.54	1.65
0.5694	1434.41	1.73
0.6926	1432.21	1.84
0.7139	1431.83	1.86
0.8896	1428.1	2.02
0.9489	1424.39	2.08

System: dimethylformamide + 1,2-butanediol; phases: Liquid
Fixed: Pressure, kPa = 101
Fixed: Temperature, K = 308.15
Property: Excess molar volume, m3/mol (Liquid); method: Direct dilatometry
Mole fraction of 1,2-butanediol	Excess molar volume, m3/mol	uncertainty
0.0124	1.4e-08	5e-09
0.0884	2.3e-08	5e-09
0.1185	2e-08	5e-09
0.137	1.5e-08	5e-09
0.1474	1.5e-08	5e-09
0.1624	1.4e-08	5e-09
0.202	8e-09	5e-09
0.2279	2e-09	5e-09
0.2635	-7e-09	5e-09
0.2915	-8e-09	5e-09
0.3543	-2e-08	5e-09
0.3543	-2e-08	5e-09
0.4096	-2e-08	5e-09
0.4569	-2.2e-08	5e-09
0.5054	-2.1e-08	5e-09
0.5581	-2e-08	5e-09
0.6085	-1.8e-08	5e-09
0.6413	-1.6e-08	5e-09
0.673	-1.1e-08	5e-09
0.7126	-7e-09	5e-09
0.7628	-6e-09	5e-09
0.8019	-5e-09	5e-09
0.8199	-4e-09	5e-09
0.8543	-3e-09	5e-09
0.8918	-2e-09	5e-09
0.9381	-1e-09	5e-09
0.9646	-1e-09	5e-09

System: dimethylformamide + 1,3-butanediol; phases: Liquid
Fixed: Pressure, kPa = 101
Fixed: Temperature, K = 308.15
Property: Viscosity, Pa*s (Liquid); method: CAPTUB:UFactor:4
Mole fraction of 1,3-butanediol	Viscosity, Pa*s	uncertainty
0.0531	0.000762	2e-05
0.1	0.00087	2.2e-05
0.1985	0.001178	2.9e-05
0.3069	0.001688	4e-05
0.4018	0.002399	5.6e-05
0.4993	0.003462	7.9e-05
0.6107	0.006621	0.000138
0.6844	0.009795	0.00019
0.7882	0.017116	0.000309
0.8916	0.028943	0.000503
0.9544	0.038829	0.000665

System: dimethylformamide + 1,3-butanediol; phases: Liquid
Fixed: Pressure, kPa = 101
Fixed: Temperature, K = 308.15
Property: Speed of sound, m/s (Liquid); method: Pulse-echo method
Mole fraction of 1,3-butanediol	Speed of sound, m/s	uncertainty
0.0531	1424.55	1.23
0.1	1425.44	1.23
0.1985	1427.37	1.23
0.4018	1442.16	1.23
0.4993	1450.47	1.24
0.6107	1459.55	1.24
0.6844	1467.65	1.24
0.7882	1477.91	1.24
0.8916	1488.03	1.24
0.9544	1493.21	1.24

System: dimethylformamide + 1,3-butanediol; phases: Liquid
Fixed: Pressure, kPa = 101
Fixed: Temperature, K = 308.15
Property: Excess molar volume, m3/mol (Liquid); method: Direct dilatometry
Mole fraction of 1,3-butanediol	Excess molar volume, m3/mol	uncertainty
0.0401	4e-09	5e-09
0.0627	8e-09	5e-09
0.077	1.2e-08	5e-09
0.1199	1.7e-08	5e-09
0.1732	2.6e-08	5e-09
0.1901	2.9e-08	5e-09
0.2203	3.2e-08	5e-09
0.2669	3.7e-08	5e-09
0.3092	4.3e-08	5e-09
0.3362	4.6e-08	5e-09
0.3864	5.2e-08	5e-09
0.4282	5.6e-08	5e-09
0.4742	5.9e-08	5e-09
0.5034	6e-08	5e-09
0.5259	6e-08	5e-09
0.5474	5.9e-08	5e-09
0.5637	5.8e-08	5e-09
0.5983	5.5e-08	5e-09
0.6205	5e-08	5e-09
0.6575	4.7e-08	5e-09
0.6764	4.5e-08	5e-09
0.6986	4.3e-08	5e-09
0.7058	4e-08	5e-09
0.7191	3.9e-08	5e-09
0.7511	3.4e-08	5e-09
0.7756	3e-08	5e-09
0.8345	2.4e-08	5e-09
0.8666	2.1e-08	5e-09
0.8924	1.6e-08	5e-09
0.9283	1e-08	5e-09
0.9733	3e-09	5e-09

System: dimethylformamide + 1,4-butanediol; phases: Liquid
Fixed: Pressure, kPa = 101
Fixed: Temperature, K = 308.15
Property: Viscosity, Pa*s (Liquid); method: CAPTUB:UFactor:4
Mole fraction of 1,4-butanediol	Viscosity, Pa*s	uncertainty
0.0565	0.000762	2e-05
0.101	0.000904	2.3e-05
0.1892	0.001222	3e-05
0.2806	0.001761	4.2e-05
0.3915	0.002578	6e-05
0.4722	0.003596	8.2e-05
0.5803	0.006998	0.000145
0.6682	0.010855	0.000207
0.7755	0.017918	0.000322
0.8845	0.028403	0.000494
0.9487	0.03731	0.00064

System: dimethylformamide + 1,4-butanediol; phases: Liquid
Fixed: Pressure, kPa = 101
Fixed: Temperature, K = 308.15
Property: Speed of sound, m/s (Liquid); method: Pulse-echo method
Mole fraction of 1,4-butanediol	Speed of sound, m/s	uncertainty
0.0515	1433.02	1.23
0.1112	1441.2	1.23
0.2806	1468.99	1.24
0.5821	1516.29	1.25
0.6682	1528.52	1.25
0.7755	1545.14	1.26
0.8845	1560.59	1.26
0.9487	1569.98	1.26

System: dimethylformamide + 1,4-butanediol; phases: Liquid
Fixed: Pressure, kPa = 101
Fixed: Temperature, K = 308.15
Property: Excess molar volume, m3/mol (Liquid); method: Direct dilatometry
Mole fraction of 1,4-butanediol	Excess molar volume, m3/mol	uncertainty
0.0346	-1.7e-08	5e-09
0.069	-2.8e-08	5e-09
0.0933	-5e-08	5e-09
0.1176	-5.7e-08	5e-09
0.1468	-7.4e-08	5e-09
0.183	-9.3e-08	5e-09
0.2219	-1.03e-07	5e-09
0.2509	-1.17e-07	5e-09
0.2774	-1.21e-07	5e-09
0.3156	-1.34e-07	5e-09
0.3447	-1.42e-07	5e-09
0.3638	-1.46e-07	5e-09
0.3786	-1.53e-07	5e-09
0.4144	-1.54e-07	5e-09
0.4306	-1.55e-07	5e-09
0.4797	-1.63e-07	5e-09
0.5207	-1.64e-07	5e-09
0.5446	-1.62e-07	5e-09
0.5843	-1.57e-07	5e-09
0.6209	-1.55e-07	5e-09
0.6513	-1.47e-07	5e-09
0.6687	-1.47e-07	5e-09
0.7237	-1.35e-07	5e-09
0.754	-1.31e-07	5e-09
0.7816	-1.23e-07	5e-09
0.8696	-9.6e-08	5e-09
0.8965	-8.4e-08	5e-09
0.9305	-6.5e-08	5e-09
0.9392	-6.2e-08	5e-09
0.9433	-5.8e-08	5e-09
0.9478	-5.5e-08	5e-09
0.9538	-4.8e-08	5e-09
0.9557	-4.4e-08	5e-09
0.9606	-4.1e-08	5e-09
0.9649	-3.8e-08	5e-09
0.9664	-3.7e-08	5e-09
0.9733	-2.8e-08	5e-09
0.9803	-1.9e-08	5e-09
0.9874	-1.8e-08	5e-09
0.9899	-1.4e-08	5e-09

System: dimethylformamide + 2,3-butanediol; phases: Liquid
Fixed: Pressure, kPa = 101
Fixed: Temperature, K = 308.15
Property: Viscosity, Pa*s (Liquid); method: CAPTUB:UFactor:4
Mole fraction of 2,3-butanediol	Viscosity, Pa*s	uncertainty
0.0509	0.000724	2.7e-05
0.1003	0.000859	2.9e-05
0.1898	0.001033	3.1e-05
0.2855	0.00136	3.7e-05
0.3729	0.001788	4.5e-05
0.4785	0.002544	6.1e-05
0.5949	0.005332	0.000122
0.6808	0.008504	0.000178
0.7219	0.010792	0.00022
0.8883	0.024971	0.000481
0.942	0.034776	0.000665

System: dimethylformamide + 2,3-butanediol; phases: Liquid
Fixed: Pressure, kPa = 101
Fixed: Temperature, K = 308.15
Property: Speed of sound, m/s (Liquid); method: Pulse-echo method
Mole fraction of 2,3-butanediol	Speed of sound, m/s	uncertainty
0.0509	1428.13	1.27
0.1003	1427.1	1.31
0.1898	1426.21	1.39
0.4065	1427.23	1.58
0.4694	1428.9	1.63
0.6314	1434.17	1.78
0.7498	1441.18	1.89
0.8947	1449.18	2.03
0.9174	1450.5	2.05

System: dimethylformamide + 2,3-butanediol; phases: Liquid
Fixed: Pressure, kPa = 101
Fixed: Temperature, K = 308.15
Property: Excess molar volume, m3/mol (Liquid); method: Direct dilatometry
Mole fraction of 2,3-butanediol	Excess molar volume, m3/mol	uncertainty
0.0085	3e-09	5e-09
0.0108	6e-09	5e-09
0.0283	9e-09	5e-09
0.0371	1.6e-08	5e-09
0.0465	2.1e-08	5e-09
0.0658	2.4e-08	5e-09
0.0724	3.1e-08	5e-09
0.0818	3.6e-08	5e-09
0.0911	3.8e-08	5e-09
0.1044	4.8e-08	5e-09
0.1267	5.2e-08	5e-09
0.1381	5.9e-08	5e-09
0.1592	6.1e-08	5e-09
0.1824	7.6e-08	5e-09
0.1936	7.8e-08	5e-09
0.206	8.7e-08	5e-09
0.2215	9e-08	5e-09
0.2371	9.4e-08	5e-09
0.2596	9.5e-08	5e-09
0.2726	1.04e-07	5e-09
0.2965	1.07e-07	5e-09
0.3204	1.15e-07	5e-09
0.3524	1.31e-07	5e-09
0.3824	1.42e-07	5e-09
0.4268	1.5e-07	5e-09
0.4537	1.58e-07	5e-09
0.4811	1.58e-07	5e-09
0.5106	1.65e-07	5e-09
0.5598	1.63e-07	5e-09
0.5803	1.64e-07	5e-09
0.607	1.65e-07	5e-09
0.6385	1.65e-07	5e-09
0.6654	1.64e-07	5e-09
0.6696	1.62e-07	5e-09
0.7084	1.61e-07	5e-09
0.7305	1.59e-07	5e-09
0.7559	1.56e-07	5e-09
0.7648	1.52e-07	5e-09
0.7742	1.49e-07	5e-09
0.7783	1.49e-07	5e-09
0.7881	1.47e-07	5e-09
0.7999	1.41e-07	5e-09
0.8086	1.4e-07	5e-09
0.8139	1.4e-07	5e-09
0.8193	1.38e-07	5e-09
0.8243	1.37e-07	5e-09
0.83	1.35e-07	5e-09
0.8362	1.32e-07	5e-09
0.8408	1.31e-07	5e-09
0.8443	1.32e-07	5e-09
0.8506	1.3e-07	5e-09
0.8538	1.27e-07	5e-09
0.8585	1.24e-07	5e-09
0.8629	1.22e-07	5e-09
0.8644	1.21e-07	5e-09
0.866	1.2e-07	5e-09
0.871	1.19e-07	5e-09
0.8778	1.14e-07	5e-09
0.8823	1.1e-07	5e-09
0.8849	1.08e-07	5e-09
0.8898	1.04e-07	5e-09
0.894	1.01e-07	5e-09
0.9002	9.6e-08	5e-09
0.9096	8.8e-08	5e-09
0.9316	7.2e-08	5e-09
0.9619	4.3e-08	5e-09
0.9867	1.6e-08	5e-09
