Measured thermophysical data. Experimental measurements and prediction of liquid densities for n-alkane mixtures
Source: J. Chem. Thermodyn., 2006, 10.1016/j.jct.2005.05.020
Compound 1: pentane, C5H12, InChI=1S/C5H12/c1-3-5-4-2/h3-5H2,1-2H3, purity 99.4%
Compound 2: hexane, C6H14, InChI=1S/C6H14/c1-3-5-6-4-2/h3-6H2,1-2H3, purity 99.5%
Compound 3: heptane, C7H16, InChI=1S/C7H16/c1-3-5-7-6-4-2/h3-7H2,1-2H3, purity 99.6%

System: pentane; phases: Liquid
Fixed: Pressure, kPa = 101.325
Property: Mass density, kg/m3 (Liquid); method: VIBTUB:UFactor:4
Temperature, K	Mass density, kg/m3	uncertainty
273.15	645.5	0.72
278.15	640.7	0.72
283.15	635.9	0.73
288.15	631.04	0.74
293.15	626.12	0.74
298.15	621.14	0.75
303.15	616.11	0.76
308.15	611.01	0.77

System: hexane; phases: Liquid
Fixed: Pressure, kPa = 101.325
Property: Mass density, kg/m3 (Liquid); method: VIBTUB:UFactor:4
Temperature, K	Mass density, kg/m3	uncertainty
273.15	677.18	0.66
278.15	672.79	0.67
283.15	668.37	0.67
288.15	663.91	0.68
293.15	659.42	0.69
298.15	654.89	0.69
303.15	650.33	0.7
308.15	645.73	0.71
313.15	641.08	0.72
318.15	636.38	0.72
323.15	631.64	0.73
328.15	626.84	0.74
333.15	621.99	0.75
338.15	617.07	0.75

System: heptane; phases: Liquid
Fixed: Pressure, kPa = 101.325
Property: Mass density, kg/m3 (Liquid); method: VIBTUB:UFactor:4
Temperature, K	Mass density, kg/m3	uncertainty
273.15	700.67	0.62
278.15	696.57	0.62
283.15	692.4	0.63
288.15	688.2	0.64
293.15	683.99	0.64
298.15	679.75	0.65
303.15	675.49	0.66
308.15	671.19	0.66
313.15	666.87	0.67
318.15	662.52	0.68
323.15	658.13	0.68
328.15	653.71	0.69
333.15	649.24	0.7
338.15	644.74	0.71
343.15	640.19	0.71
348.15	635.6	0.72
353.15	630.95	0.73
358.15	626.26	0.74

System: pentane + hexane; phases: Liquid
Fixed: Pressure, kPa = 101
Property: Mass density, kg/m3 (Liquid); method: VIBTUB:UFactor:4
Mole fraction of pentane	Temperature, K	Mass density, kg/m3	uncertainty
0.0999	273.152	674.29	0.66
0.0999	278.148	669.9	0.66
0.0999	283.15	665.46	0.67
0.0999	288.149	661	0.68
0.0999	293.149	656.49	0.68
0.0999	298.149	651.95	0.69
0.0999	303.149	647.36	0.7
0.0999	308.148	642.74	0.7
0.0999	313.149	638.06	0.71
0.0999	318.149	633.32	0.72
0.0999	323.149	628.53	0.72
0.0999	328.149	623.68	0.73
0.0999	333.148	618.77	0.74
0.1996	273.152	671.84	0.66
0.1996	278.149	667.39	0.67
0.1996	283.146	662.9	0.67
0.1996	288.145	658.38	0.68
0.1996	293.147	653.82	0.69
0.1996	298.145	649.22	0.69
0.1996	303.145	644.58	0.7
0.1996	308.146	639.9	0.71
0.1996	313.146	635.17	0.71
0.1996	318.146	630.38	0.72
0.1996	323.144	625.55	0.73
0.1996	328.144	620.65	0.74
0.1996	333.15	615.6	0.74
0.2998	273.152	668.66	0.67
0.2998	278.149	664.21	0.67
0.2998	283.148	659.71	0.68
0.2998	288.149	655.18	0.69
0.2998	293.151	650.6	0.69
0.2998	298.15	645.98	0.7
0.2998	303.148	641.31	0.71
0.2998	308.148	636.59	0.71
0.2998	313.149	631.82	0.72
0.3884	273.15	666.23	0.67
0.3884	278.146	661.71	0.68
0.3884	283.145	657.16	0.69
0.3884	288.145	652.56	0.69
0.3884	293.146	647.93	0.7
0.3884	298.145	643.25	0.71
0.3884	303.145	638.53	0.71
0.3884	308.146	633.76	0.72
0.3884	313.146	628.94	0.73
0.3884	318.145	624.06	0.73
0.5	273.153	662.72	0.68
0.5	278.148	658.2	0.69
0.5	283.149	653.63	0.69
0.5	288.149	649.01	0.7
0.5	293.149	644.36	0.71
0.5	298.149	639.66	0.71
0.5	303.148	634.91	0.72
0.5	308.148	630.1	0.73
0.5	313.149	625.24	0.73
0.5	318.154	620.41	0.74
0.5	323.145	615.41	0.75
0.5	328.15	610.35	0.76
0.6	273.151	659.97	0.69
0.6	278.146	655.38	0.69
0.6	283.145	650.74	0.7
0.6	288.145	646.06	0.71
0.6	293.145	641.34	0.71
0.6	298.145	636.57	0.72
0.6	303.145	631.74	0.73
0.6	308.147	626.86	0.73
0.6	313.145	621.92	0.74
0.6	318.145	616.92	0.75
0.6	323.147	611.84	0.76
0.6	328.146	606.69	0.76
0.7001	273.152	657	0.69
0.7001	278.146	652.36	0.7
0.7001	283.145	647.7	0.71
0.7001	288.145	642.98	0.71
0.7001	293.145	638.21	0.72
0.7001	298.145	633.51	0.73
0.7001	303.145	628.65	0.73
0.7001	308.145	623.75	0.74
0.7001	313.146	618.75	0.75
0.7001	318.145	613.89	0.76
0.8011	273.156	653.2	0.7
0.8011	278.147	648.53	0.71
0.8011	283.145	643.81	0.72
0.8011	288.146	639.05	0.72
0.8011	293.147	634.24	0.73
0.8011	298.146	629.38	0.74
0.8011	303.145	624.47	0.74
0.8011	308.146	619.5	0.75
0.8011	313.145	614.47	0.76
0.8011	318.148	609.38	0.77
0.8995	273.152	650.09	0.71
0.8995	278.146	645.39	0.71
0.8995	283.145	640.63	0.72
0.8995	288.144	635.83	0.73
0.8995	293.146	630.97	0.74
0.8995	298.144	626.07	0.74
0.8995	303.149	621.11	0.75
0.8995	308.146	616.08	0.76
0.8995	313.145	611	0.77
0.8995	318.145	605.86	0.77
0.8995	323.144	600.65	0.78

System: pentane + heptane; phases: Liquid
Fixed: Pressure, kPa = 101
Property: Mass density, kg/m3 (Liquid); method: VIBTUB:UFactor:4
Mole fraction of pentane	Temperature, K	Mass density, kg/m3	uncertainty
0.1014	273.152	696.24	0.62
0.1014	278.148	692.07	0.62
0.1014	283.15	687.87	0.63
0.1014	288.15	683.65	0.64
0.1014	293.148	679.4	0.64
0.1014	298.15	675.12	0.65
0.1014	303.148	670.82	0.65
0.1014	308.148	666.49	0.66
0.1014	313.148	662.08	0.67
0.1014	318.149	657.69	0.67
0.1014	323.149	653.26	0.68
0.1014	328.149	648.78	0.69
0.1014	333.149	644.24	0.69
0.1014	338.149	639.67	0.7
0.1014	343.149	635.01	0.71
0.2019	273.138	691.57	0.63
0.2019	278.147	687.35	0.63
0.2019	283.148	683.1	0.64
0.2019	288.15	678.83	0.65
0.2019	293.15	674.53	0.65
0.2019	298.148	670.21	0.66
0.2019	303.148	665.85	0.66
0.2019	308.149	661.46	0.67
0.2019	313.148	657.04	0.68
0.2019	318.15	652.58	0.68
0.2019	323.149	648.09	0.69
0.2019	328.148	643.55	0.7
0.3011	273.152	686.91	0.64
0.3011	278.15	682.65	0.64
0.3011	283.148	678.35	0.65
0.3011	288.148	674.03	0.66
0.3011	293.148	669.67	0.66
0.3011	298.148	665.29	0.67
0.3011	303.148	660.88	0.67
0.3011	308.148	656.43	0.68
0.3011	313.148	651.94	0.69
0.3011	318.149	647.42	0.69
0.3011	323.148	642.84	0.7
0.3011	328.149	638.23	0.71
0.3011	333.149	633.57	0.72
0.4001	273.152	682.43	0.65
0.4001	278.151	678.13	0.65
0.4001	283.148	673.78	0.66
0.4001	288.149	669.41	0.67
0.4001	293.15	665.01	0.67
0.4001	298.149	660.56	0.68
0.4001	303.148	656.08	0.69
0.4001	308.148	651.57	0.69
0.4001	313.148	647	0.7
0.4001	318.149	642.39	0.71
0.4001	323.149	637.74	0.71
0.4001	328.148	633.03	0.72
0.4001	333.148	628.26	0.73
0.4001	338.148	623.48	0.74
0.4001	343.149	618.87	0.74
0.4997	273.153	677.18	0.66
0.4997	278.15	672.82	0.67
0.4997	283.149	668.42	0.67
0.4997	288.15	663.99	0.68
0.4997	293.15	659.51	0.69
0.4997	298.149	655.01	0.69
0.4997	303.148	650.46	0.7
0.4997	308.149	645.86	0.71
0.4997	313.149	641.22	0.71
0.4997	318.15	636.53	0.72
0.4997	323.148	631.79	0.73
0.4997	328.148	626.99	0.74
0.4997	333.149	622.13	0.74
0.4997	338.149	617.2	0.75
0.5999	273.152	671.16	0.68
0.5999	278.148	666.73	0.68
0.5999	283.15	662.25	0.69
0.5999	288.15	657.74	0.7
0.5999	293.149	653.19	0.7
0.5999	298.15	648.6	0.71
0.5999	303.149	643.97	0.72
0.5999	308.148	639.3	0.73
0.5999	313.148	634.58	0.73
0.698	273.152	665.42	0.69
0.698	278.149	660.92	0.7
0.698	283.15	656.37	0.71
0.698	288.149	651.79	0.71
0.698	293.149	647.17	0.72
0.698	298.149	642.5	0.73
0.698	303.149	637.79	0.74
0.698	308.149	633.03	0.74
0.698	313.148	628.22	0.75
0.698	318.149	623.36	0.76
0.698	323.149	618.43	0.76
0.7991	273.152	659.05	0.71
0.7991	278.149	654.47	0.72
0.7991	283.15	649.85	0.73
0.7991	288.149	645.18	0.74
0.7991	293.149	640.48	0.74
0.7991	298.149	635.73	0.75
0.7991	303.148	630.93	0.76
0.7991	308.148	626.07	0.76
0.7991	313.149	621.16	0.77
0.7991	318.149	616.18	0.78
0.7991	323.149	611.14	0.79
0.8992	273.152	652.37	0.73
0.8992	278.149	647.72	0.74
0.8992	283.149	643.01	0.75
0.8992	288.149	638.26	0.76
0.8992	293.15	633.46	0.76
0.8992	298.148	628.61	0.77
0.8992	303.149	623.7	0.78

System: hexane + heptane; phases: Liquid
Fixed: Pressure, kPa = 101
Property: Mass density, kg/m3 (Liquid); method: VIBTUB:UFactor:4
Mole fraction of hexane	Temperature, K	Mass density, kg/m3	uncertainty
0.1019	273.147	698.37	0.61
0.1019	278.149	694.22	0.62
0.1019	283.149	690.04	0.63
0.1019	288.148	685.84	0.63
0.1019	293.149	681.62	0.64
0.1019	298.149	677.38	0.64
0.1019	303.149	673.11	0.65
0.1019	308.148	668.81	0.66
0.1019	313.148	664.47	0.66
0.1019	318.149	660.11	0.67
0.1019	323.149	655.71	0.68
0.1019	328.148	651.27	0.68
0.1019	333.148	646.79	0.69
0.1019	338.15	642.28	0.7
0.1019	343.15	637.71	0.7
0.1019	348.149	633.1	0.71
0.1019	353.149	628.43	0.72
0.1019	358.148	623.71	0.73
0.1019	363.148	618.94	0.73
0.2003	273.153	696.77	0.62
0.2003	278.148	692.61	0.62
0.2003	283.149	688.42	0.63
0.2003	288.15	684.21	0.63
0.2003	293.149	679.97	0.64
0.2003	298.149	675.7	0.65
0.2003	303.148	671.42	0.65
0.2003	308.148	667.09	0.66
0.2003	313.149	662.74	0.67
0.2003	318.149	658.36	0.67
0.2003	323.148	653.93	0.68
0.2003	328.15	649.47	0.69
0.2003	333.148	644.97	0.69
0.2003	338.148	640.43	0.7
0.2003	343.149	635.84	0.71
0.2003	348.15	631.2	0.71
0.2003	353.15	626.5	0.72
0.2003	358.148	621.75	0.73
0.2003	363.149	616.94	0.74
0.3005	273.152	694.27	0.62
0.3005	278.148	690.08	0.63
0.3005	283.149	685.86	0.63
0.3005	288.15	681.62	0.64
0.3005	293.149	677.36	0.65
0.3005	298.148	673.06	0.65
0.3005	303.149	668.74	0.66
0.3005	308.149	664.39	0.67
0.3005	313.149	660	0.67
0.3005	318.15	655.58	0.68
0.3005	323.149	651.12	0.69
0.3005	328.148	646.62	0.69
0.3005	333.148	642.07	0.7
0.3005	338.148	637.49	0.71
0.3005	343.149	632.85	0.71
0.3005	348.149	628.16	0.72
0.3005	353.149	623.42	0.73
0.3005	358.149	618.61	0.73
0.3005	363.149	613.75	0.74
0.4007	273.151	692.25	0.63
0.4007	278.148	688.04	0.63
0.4007	283.15	683.8	0.64
0.4007	288.151	679.53	0.64
0.4007	293.151	675.24	0.65
0.4007	298.148	670.93	0.66
0.4007	303.148	666.58	0.66
0.4007	308.148	662.2	0.67
0.4007	313.149	657.78	0.68
0.4007	318.15	653.33	0.68
0.4007	323.149	648.84	0.69
0.4007	328.151	644.31	0.7
0.4007	333.148	639.73	0.7
0.4007	338.147	635.11	0.71
0.4007	343.148	630.44	0.72
0.4007	348.148	625.71	0.72
0.4007	353.15	620.92	0.73
0.4007	358.148	616.08	0.74
0.4007	363.149	611.16	0.75
0.5001	273.152	689.57	0.63
0.5001	278.148	685.35	0.64
0.5001	283.15	681.08	0.64
0.5001	288.149	676.79	0.65
0.5001	293.15	672.47	0.66
0.5001	298.149	668.12	0.66
0.5001	303.148	663.74	0.67
0.5001	308.148	659.32	0.68
0.5001	313.149	654.86	0.68
0.5001	318.149	650.35	0.69
0.5001	323.149	645.81	0.7
0.5001	328.148	641.22	0.7
0.5001	333.15	636.58	0.71
0.5001	338.149	631.89	0.72
0.5001	343.149	627.14	0.72
0.5001	348.149	622.33	0.73
0.5984	273.153	687.14	0.64
0.5984	278.149	682.88	0.64
0.5984	283.149	678.58	0.65
0.5984	288.149	674.26	0.66
0.5984	293.151	669.91	0.66
0.5984	298.15	665.53	0.67
0.5984	303.148	661.12	0.67
0.5984	308.148	656.67	0.68
0.5984	313.148	652.19	0.69
0.5984	318.149	647.66	0.69
0.5984	323.149	643.1	0.7
0.5984	328.148	638.48	0.71
0.5984	333.148	633.82	0.72
0.7002	273.152	684.81	0.64
0.7002	278.148	680.52	0.65
0.7002	283.15	676.2	0.65
0.7002	288.149	671.85	0.66
0.7002	293.148	667.47	0.67
0.7002	298.151	663.06	0.67
0.7002	303.148	658.62	0.68
0.7002	308.149	654.14	0.69
0.7002	313.148	649.62	0.69
0.7002	318.149	645.06	0.7
0.7002	323.149	640.45	0.71
0.7002	328.148	635.8	0.71
0.7002	333.148	631.24	0.72
0.7002	338.149	626.48	0.73
0.7002	343.149	621.67	0.74
0.7002	348.15	616.8	0.74
0.7995	273.153	682.14	0.65
0.7995	278.151	677.82	0.65
0.7995	283.149	673.47	0.66
0.7995	288.148	669.1	0.67
0.7995	293.149	664.69	0.67
0.7995	298.149	660.24	0.68
0.7995	303.149	655.77	0.69
0.7995	308.149	651.25	0.69
0.7995	313.148	646.69	0.7
0.7995	318.15	642.1	0.71
0.7995	323.149	637.45	0.71
0.7995	328.148	632.76	0.72
0.7995	333.148	628.01	0.73
0.7995	338.149	623.2	0.74
0.8974	273.152	679.66	0.65
0.8974	278.148	675.32	0.66
0.8974	283.15	670.94	0.67
0.8974	288.149	666.54	0.67
0.8974	293.149	662.1	0.68
0.8974	298.148	657.62	0.69
0.8974	303.148	653.12	0.69
0.8974	308.149	648.57	0.7
0.8974	313.148	643.98	0.71
0.8974	318.149	639.34	0.71
0.8974	323.149	634.65	0.72
0.8974	328.148	629.92	0.73
0.8974	333.149	625.13	0.73
0.8974	338.149	620.28	0.74
