Measured thermophysical data. Molar enthalpy of mixing and refractive indices of choline chloride-based deep eutectic solvents with water
Source: J. Chem. Thermodyn., 2017, 10.1016/j.jct.2016.10.002
Compound 1: choline chloride, C5H14ClNO, InChI=1S/C5H14NO.ClH/c1-6(2,3)4-5-7;/h7H,4-5H2,1-3H3;1H/q+1;/p-1, purity 98%
Compound 2: glycerol, C3H8O3, InChI=1S/C3H8O3/c4-1-3(6)2-5/h3-6H,1-2H2, purity 99%
Compound 3: 1,2-ethanediol, C2H6O2, InChI=1S/C2H6O2/c3-1-2-4/h3-4H,1-2H2, purity 99%
Compound 4: propanedioic acid, C3H4O4, InChI=1S/C3H4O4/c4-2(5)1-3(6)7/h1H2,(H,4,5)(H,6,7), purity 98%
Compound 5: water, H2O, InChI=1S/H2O/h1H2, purity 99.8%

System: water; phases: Liquid
Property: Refractive index (Na D-line) (Liquid); method: Standard Abbe refractometry
Temperature, K	Pressure, kPa	Refractive index (Na D-line)	uncertainty
303.15	101.325	1.332	0.0007

System: glycerol + choline chloride + water; phases: Liquid
Fixed: Temperature, K = 303.15
Fixed: Pressure, kPa = 101
Fixed: Solvent: Mole fraction of choline chloride = 0.333
Property: Refractive index (Na D-line) (Liquid); method: Standard Abbe refractometry
Mole fraction of water	Refractive index (Na D-line)	uncertainty
1	1.332	0.0007
0.9819	1.3463	0.0008
0.9597	1.3597	0.0008
0.9329	1.374	0.0009
0.8999	1.3885	0.001
0.858	1.4034	0.001
0.8012	1.4193	0.001
0.7211	1.4355	0.0009
0.6015	1.4519	0.0008
0.4086	1.4673	0.0007
0.0145	1.4847	0.0007

System: glycerol + choline chloride + water; phases: Liquid
Fixed: Pressure, kPa = 101
Fixed: Solvent: Mole fraction of choline chloride = 0.333
Property: Molar enthalpy of mixing with solvent, kJ/mol of water (Liquid); method: Power-compensation calorimetry
Temperature, K	Mole fraction of water	Molar enthalpy of mixing with solvent, kJ/mol of water	uncertainty
298.15	0.9618	-0.14646	0.02354
298.15	0.9497	-0.19433	0.02796
298.15	0.8642	-0.48309	0.04972
298.15	0.8093	-0.74738	0.01335
298.15	0.7614	-0.84659	0.01368
298.15	0.6813	-0.93548	0.01274
298.15	0.5137	-0.89693	0.01871
298.15	0.3998	-0.72753	0.03931
298.15	0.2492	-0.47769	0.02204
308.15	0.9582	-0.15752	0.02081
308.15	0.9203	-0.30159	0.04389
308.15	0.8524	-0.51168	0.07572
308.15	0.7948	-0.77852	0.02288
308.15	0.6605	-0.93917	0.02363
308.15	0.4928	-0.86763	0.00852
308.15	0.3982	-0.81822	0.06184
308.15	0.2439	-0.55764	0.07808

System: choline chloride + 1,2-ethanediol + water; phases: Liquid
Fixed: Temperature, K = 303.15
Fixed: Pressure, kPa = 101
Fixed: Solvent: Mole fraction of choline chloride = 0.333
Property: Refractive index (Na D-line) (Liquid); method: Standard Abbe refractometry
Mole fraction of water	Refractive index (Na D-line)	uncertainty
1	1.332	0.0007
0.9776	1.3444	0.0007
0.9508	1.3563	0.0008
0.9197	1.3705	0.0009
0.8807	1.384	0.0009
0.8298	1.3982	0.0009
0.7684	1.4116	0.0009
0.6696	1.4281	0.0009
0.5561	1.441	0.0008
0.3631	1.455	0.0007
0.0121	1.4686	0.0007

System: choline chloride + 1,2-ethanediol + water; phases: Liquid
Fixed: Pressure, kPa = 101
Fixed: Solvent: Mole fraction of choline chloride = 0.333
Property: Molar enthalpy of mixing with solvent, kJ/mol of water (Liquid); method: Power-compensation calorimetry
Temperature, K	Mole fraction of water	Molar enthalpy of mixing with solvent, kJ/mol of water	uncertainty
298.15	0.9528	-0.22813	0.00552
298.15	0.9103	-0.41763	0.00776
298.15	0.8344	-0.69039	0.01258
298.15	0.774	-0.92678	0.0403
298.15	0.7213	-1.01994	0.04212
298.15	0.631	-1.08301	0.04562
298.15	0.4637	-0.94869	0.01654
298.15	0.3496	-0.74848	0.02062
298.15	0.227	-0.50437	0.01159
308.15	0.9484	-0.21912	0.01204
308.15	0.9032	-0.39852	0.01948
308.15	0.8241	-0.64266	0.051
308.15	0.7636	-0.93727	0.01853
308.15	0.6137	-1.06393	0.01526
308.15	0.4372	-0.90763	0.00878
308.15	0.3603	-0.78676	0.09646
308.15	0.2311	-0.51795	0.04208

System: choline chloride + propanedioic acid + water; phases: Liquid
Fixed: Temperature, K = 303.15
Fixed: Pressure, kPa = 101
Fixed: Solvent: Mole fraction of choline chloride = 0.5
Property: Refractive index (Na D-line) (Liquid); method: Standard Abbe refractometry
Mole fraction of water	Refractive index (Na D-line)	uncertainty
1	1.332	0.0007
0.9829	1.3459	0.0008
0.9637	1.36	0.0008
0.9406	1.3726	0.0009
0.9107	1.3878	0.001
0.8718	1.4029	0.001
0.819	1.4189	0.001
0.7447	1.435	0.0009
0.6199	1.4531	0.0009
0.4309	1.4697	0.0008
0.0167	1.4854	0.0007

System: choline chloride + propanedioic acid + water; phases: Liquid
Fixed: Pressure, kPa = 101
Fixed: Solvent: Mole fraction of choline chloride = 0.5
Property: Molar enthalpy of mixing with solvent, kJ/mol of water (Liquid); method: Power-compensation calorimetry
Temperature, K	Mole fraction of water	Molar enthalpy of mixing with solvent, kJ/mol of water	uncertainty
298.15	0.9671	0.0734	0.005
298.15	0.9356	0.07123	0.01059
298.15	0.8295	-0.15573	0.01253
298.15	0.7866	-0.25108	0.01587
298.15	0.7094	-0.39934	0.04848
298.15	0.5446	-0.60151	0.02885
298.15	0.4174	-0.65685	0.03141
298.15	0.2472	-0.50709	0.01833
308.15	0.9652	0.08541	0.00337
308.15	0.9307	0.09528	0.00802
308.15	0.8138	-0.21255	0.0542
308.15	0.6853	-0.46549	0.06856
308.15	0.5168	-0.6062	0.08112
308.15	0.4205	-0.65066	0.05656
308.15	0.2521	-0.48845	0.06847

System: glycerol + choline chloride; phases: Liquid
Property: Refractive index (Na D-line) (Liquid); method: Standard Abbe refractometry
Temperature, K	Pressure, kPa	Mole fraction of choline chloride	Refractive index (Na D-line)	uncertainty
303.15	101	0.333	1.4853	0.0007

System: choline chloride + 1,2-ethanediol; phases: Liquid
Property: Refractive index (Na D-line) (Liquid); method: Standard Abbe refractometry
Temperature, K	Pressure, kPa	Mole fraction of choline chloride	Refractive index (Na D-line)	uncertainty
303.15	101	0.333	1.4691	0.0007

System: choline chloride + propanedioic acid; phases: Liquid
Property: Refractive index (Na D-line) (Liquid); method: Standard Abbe refractometry
Temperature, K	Pressure, kPa	Mole fraction of choline chloride	Refractive index (Na D-line)	uncertainty
303.15	101	0.5	1.4866	0.0008
