Measured thermophysical data. Molar excess enthalpy (HEm) for various {alkanolamine (1) + water (2)} systems at T = (298.15, 313.15, and 323.15) K
Source: J. Chem. Thermodyn., 2007, 10.1016/j.jct.2007.03.010
Compound 1: diethanolamine, C4H11NO2, InChI=1S/C4H11NO2/c6-3-1-5-2-4-7/h5-7H,1-4H2
Compound 2: water, H2O, InChI=1S/H2O/h1H2
Compound 3: N-methyldiethanolamine, C5H13NO2, InChI=1S/C5H13NO2/c1-6(2-4-7)3-5-8/h7-8H,2-5H2,1H3
Compound 4: N-(2-aminoethyl)ethanolamine, C4H12N2O, InChI=1S/C4H12N2O/c5-1-2-6-3-4-7/h6-7H,1-5H2, purity 98%
Compound 5: 3-amino-1-propanol, C3H9NO, InChI=1S/C3H9NO/c4-2-1-3-5/h5H,1-4H2, purity 98%
Compound 6: 2-(methylamino)ethanol, C3H9NO, InChI=1S/C3H9NO/c1-4-2-3-5/h4-5H,2-3H2,1H3, purity 98%
Compound 7: 1-amino-2-propanol, C3H9NO, InChI=1S/C3H9NO/c1-3(5)2-4/h3,5H,2,4H2,1H3, purity 98%
Compound 8: 2-(N,N-dimethylamino)ethanol, C4H11NO, InChI=1S/C4H11NO/c1-5(2)3-4-6/h6H,3-4H2,1-2H3, purity 99.5%

System: diethanolamine + water; phases: Liquid
Fixed: Pressure, kPa = 101
Fixed: Temperature, K = 298.15
Property: Excess molar enthalpy (molar enthalpy of mixing), kJ/mol (Liquid); method: Calvet calorimetry
Mole fraction of diethanolamine	Excess molar enthalpy (molar enthalpy of mixing), kJ/mol	uncertainty
0.0553	-0.685	0.028
0.0732	-0.896	0.037
0.1001	-1.141	0.046
0.2005	-1.78	0.072
0.2943	-2.079	0.085
0.34	-2.135	0.087
0.4007	-2.082	0.085
0.4969	-1.916	0.078
0.5945	-1.609	0.065
0.6597	-1.389	0.057
0.7421	-1.091	0.044
0.8312	-0.721	0.029
0.9283	-0.302	0.012

System: N-methyldiethanolamine + water; phases: Liquid
Fixed: Pressure, kPa = 101
Fixed: Temperature, K = 313.15
Property: Excess molar enthalpy (molar enthalpy of mixing), kJ/mol (Liquid); method: Calvet calorimetry
Mole fraction of N-methyldiethanolamine	Excess molar enthalpy (molar enthalpy of mixing), kJ/mol	uncertainty
0.1004	-1.409	0.057
0.1501	-1.803	0.073
0.1986	-2.074	0.084
0.2593	-2.271	0.092
0.3681	-2.308	0.094
0.4312	-2.237	0.091
0.4941	-2.072	0.084
0.593	-1.743	0.071
0.7778	-1.048	0.043
0.8203	-0.869	0.035

System: N-(2-aminoethyl)ethanolamine + water; phases: Liquid
Fixed: Pressure, kPa = 101
Property: Excess molar enthalpy (molar enthalpy of mixing), kJ/mol (Liquid); method: Calvet calorimetry
Temperature, K	Mole fraction of N-(2-aminoethyl)ethanolamine	Excess molar enthalpy (molar enthalpy of mixing), kJ/mol	uncertainty
298.15	0.0298	-0.771	0.032
298.15	0.0496	-1.273	0.052
298.15	0.0699	-1.713	0.07
298.15	0.0992	-2.241	0.091
298.15	0.1503	-3	0.122
298.15	0.2015	-3.447	0.14
298.15	0.2962	-3.909	0.159
298.15	0.2982	-3.918	0.159
298.15	0.3484	-4.009	0.163
298.15	0.3994	-3.955	0.161
298.15	0.4454	-3.771	0.153
298.15	0.4962	-3.489	0.142
298.15	0.505	-3.433	0.14
298.15	0.5922	-2.865	0.117
298.15	0.6969	-2.192	0.089
298.15	0.77	-1.711	0.07
298.15	0.9077	-0.779	0.032
313.15	0.0299	-0.936	0.039
313.15	0.0498	-1.317	0.054
313.15	0.0701	-1.72	0.07
313.15	0.1	-2.338	0.095
313.15	0.1495	-3.051	0.124
313.15	0.2002	-3.62	0.147
313.15	0.2956	-4.119	0.167
313.15	0.3547	-4.234	0.172
313.15	0.4001	-4.15	0.169
313.15	0.4461	-3.976	0.162
313.15	0.4893	-3.784	0.154
313.15	0.6009	-3.148	0.128
313.15	0.6723	-2.669	0.109
313.15	0.7961	-1.714	0.07
313.15	0.9041	-0.888	0.036
323.15	0.0301	-0.617	0.026
323.15	0.0498	-1.029	0.042
323.15	0.0697	-1.594	0.065
323.15	0.0992	-2.037	0.083
323.15	0.1491	-2.915	0.119
323.15	0.1988	-3.414	0.139
323.15	0.3014	-3.815	0.155
323.15	0.3527	-3.938	0.16
323.15	0.3958	-3.916	0.159
323.15	0.4971	-3.6	0.146
323.15	0.5908	-3.027	0.123
323.15	0.7056	-2.241	0.091
323.15	0.7484	-1.939	0.079
323.15	0.8999	-0.82	0.033

System: 3-amino-1-propanol + water; phases: Liquid
Fixed: Pressure, kPa = 101
Property: Excess molar enthalpy (molar enthalpy of mixing), kJ/mol (Liquid); method: Calvet calorimetry
Temperature, K	Mole fraction of 3-amino-1-propanol	Excess molar enthalpy (molar enthalpy of mixing), kJ/mol	uncertainty
298.15	0.0299	-0.404	0.017
298.15	0.0705	-0.927	0.038
298.15	0.1203	-1.525	0.062
298.15	0.2	-2.13	0.087
298.15	0.2982	-2.501	0.102
298.15	0.3452	-2.595	0.106
298.15	0.4067	-2.613	0.106
298.15	0.4989	-2.462	0.1
298.15	0.593	-2.171	0.088
298.15	0.7515	-1.531	0.062
298.15	0.8969	-0.711	0.029
313.15	0.0297	-0.483	0.02
313.15	0.0702	-1.026	0.042
313.15	0.12	-1.569	0.064
313.15	0.2007	-2.108	0.086
313.15	0.3015	-2.541	0.103
313.15	0.3458	-2.632	0.107
313.15	0.3982	-2.647	0.108
313.15	0.5034	-2.499	0.102
313.15	0.6045	-2.125	0.086
313.15	0.7564	-1.375	0.056
313.15	0.9333	-0.481	0.02
323.15	0.0298	-0.643	0.026
323.15	0.0718	-1.213	0.049
323.15	0.1192	-1.66	0.068
323.15	0.1996	-2.144	0.087
323.15	0.3018	-2.542	0.103
323.15	0.3493	-2.645	0.108
323.15	0.3947	-2.667	0.108
323.15	0.5038	-2.498	0.102
323.15	0.605	-2.163	0.088
323.15	0.7594	-1.423	0.058
323.15	0.8801	-0.753	0.031

System: 2-(methylamino)ethanol + water; phases: Liquid
Fixed: Pressure, kPa = 101
Property: Excess molar enthalpy (molar enthalpy of mixing), kJ/mol (Liquid); method: Calvet calorimetry
Temperature, K	Mole fraction of 2-(methylamino)ethanol	Excess molar enthalpy (molar enthalpy of mixing), kJ/mol	uncertainty
298.15	0.0302	-0.53	0.022
298.15	0.0514	-0.902	0.037
298.15	0.0695	-1.163	0.047
298.15	0.1002	-1.48	0.06
298.15	0.1485	-1.919	0.078
298.15	0.1992	-2.243	0.091
298.15	0.3021	-2.671	0.109
298.15	0.3471	-2.75	0.112
298.15	0.3996	-2.732	0.111
298.15	0.4471	-2.667	0.108
298.15	0.5017	-2.508	0.102
298.15	0.5992	-2.148	0.087
298.15	0.696	-1.707	0.069
298.15	0.7988	-1.219	0.05
298.15	0.8939	-0.688	0.028
313.15	0.031	-0.535	0.022
313.15	0.05	-0.902	0.037
313.15	0.0704	-1.182	0.048
313.15	0.1011	-1.591	0.065
313.15	0.1488	-1.987	0.081
313.15	0.2003	-2.302	0.094
313.15	0.2983	-2.639	0.107
313.15	0.3491	-2.678	0.109
313.15	0.3986	-2.668	0.109
313.15	0.5035	-2.513	0.102
313.15	0.5833	-2.289	0.093
313.15	0.686	-1.919	0.078
313.15	0.8053	-1.277	0.052
313.15	0.8956	-0.679	0.028
323.15	0.0299	-0.742	0.031
323.15	0.0501	-1.114	0.046
323.15	0.07	-1.359	0.055
323.15	0.1008	-1.655	0.067
323.15	0.1504	-1.975	0.08
323.15	0.2004	-2.22	0.09
323.15	0.2985	-2.568	0.104
323.15	0.3492	-2.642	0.107
323.15	0.4023	-2.65	0.108
323.15	0.5108	-2.478	0.101
323.15	0.6095	-2.142	0.087
323.15	0.6956	-1.732	0.071
323.15	0.8039	-1.169	0.048
323.15	0.8815	-0.749	0.031

System: 1-amino-2-propanol + water; phases: Liquid
Fixed: Pressure, kPa = 101
Property: Excess molar enthalpy (molar enthalpy of mixing), kJ/mol (Liquid); method: Calvet calorimetry
Temperature, K	Mole fraction of 1-amino-2-propanol	Excess molar enthalpy (molar enthalpy of mixing), kJ/mol	uncertainty
298.15	0.03	-0.497	0.021
298.15	0.0501	-0.777	0.032
298.15	0.0697	-1.01	0.041
298.15	0.1002	-1.357	0.055
298.15	0.1505	-1.755	0.071
298.15	0.2012	-2.04	0.083
298.15	0.2994	-2.393	0.097
298.15	0.3496	-2.482	0.101
298.15	0.3993	-2.478	0.101
298.15	0.4465	-2.423	0.099
298.15	0.494	-2.32	0.094
298.15	0.6033	-2.012	0.082
298.15	0.7155	-1.527	0.062
298.15	0.7954	-1.13	0.046
298.15	0.8847	-0.725	0.03
313.15	0.0304	-0.56	0.023
313.15	0.0701	-1.057	0.043
313.15	0.1001	-1.364	0.056
313.15	0.15	-1.761	0.072
313.15	0.1999	-2.054	0.084
313.15	0.3021	-2.443	0.099
313.15	0.352	-2.516	0.102
313.15	0.4015	-2.502	0.102
313.15	0.5022	-2.327	0.095
313.15	0.591	-2.039	0.083
313.15	0.692	-1.64	0.067
313.15	0.7864	-1.184	0.048
313.15	0.8808	-0.73	0.03
323.15	0.0301	-0.478	0.02
323.15	0.05	-0.714	0.029
323.15	0.0705	-1.022	0.042
323.15	0.0999	-1.289	0.053
323.15	0.1507	-1.679	0.068
323.15	0.1993	-1.979	0.081
323.15	0.2999	-2.304	0.094
323.15	0.3533	-2.415	0.098
323.15	0.4045	-2.454	0.1
323.15	0.507	-2.318	0.094
323.15	0.5849	-2.081	0.085
323.15	0.6741	-1.756	0.071
323.15	0.8125	-1.092	0.045
323.15	0.9073	-0.601	0.025

System: 2-(N,N-dimethylamino)ethanol + water; phases: Liquid
Fixed: Pressure, kPa = 101
Property: Excess molar enthalpy (molar enthalpy of mixing), kJ/mol (Liquid); method: Calvet calorimetry
Temperature, K	Mole fraction of 2-(N,N-dimethylamino)ethanol	Excess molar enthalpy (molar enthalpy of mixing), kJ/mol	uncertainty
298.15	0.0299	-0.701	0.03
298.15	0.0705	-1.452	0.059
298.15	0.1008	-1.854	0.076
298.15	0.1501	-2.282	0.093
298.15	0.2052	-2.587	0.105
298.15	0.301	-2.847	0.116
298.15	0.349	-2.895	0.118
298.15	0.4106	-2.888	0.117
298.15	0.4544	-2.816	0.115
298.15	0.5365	-2.575	0.105
298.15	0.6599	-2.008	0.082
298.15	0.7996	-1.247	0.051
298.15	0.9156	-0.557	0.023
313.15	0.0307	-0.701	0.029
313.15	0.0695	-1.314	0.054
313.15	0.1196	-1.923	0.078
313.15	0.2038	-2.444	0.099
313.15	0.2979	-2.727	0.111
313.15	0.349	-2.782	0.113
313.15	0.4063	-2.772	0.113
313.15	0.4925	-2.584	0.105
313.15	0.5885	-2.202	0.09
313.15	0.7046	-1.686	0.069
313.15	0.7891	-1.235	0.05
313.15	0.9076	-0.607	0.025
323.15	0.0301	-0.661	0.028
323.15	0.0705	-1.317	0.054
323.15	0.1217	-1.823	0.074
323.15	0.2027	-2.328	0.095
323.15	0.3001	-2.631	0.107
323.15	0.3486	-2.692	0.109
323.15	0.4001	-2.682	0.109
323.15	0.4995	-2.497	0.102
323.15	0.6093	-2.046	0.083
323.15	0.7618	-1.291	0.053
323.15	0.9197	-0.464	0.019
