Measured thermophysical data. Self-aggregation of liquids from biomass in aqueous solution
Source: J. Chem. Thermodyn., 2013, 10.1016/j.jct.2013.06.020
Compound 1: water, H2O, InChI=1S/H2O/h1H2, purity 99.9%
Compound 2: 2-furaldehyde, C5H4O2, InChI=1S/C5H4O2/c6-4-5-2-1-3-7-5/h1-4H, purity 99%
Compound 3: 5-methylfurfural, C6H6O2, InChI=1S/C6H6O2/c1-5-2-3-6(4-7)8-5/h2-4H,1H3, purity 99%
Compound 4: 2-hydroxymethylfuran, C5H6O2, InChI=1S/C5H6O2/c6-4-5-2-1-3-7-5/h1-3,6H,4H2, purity 99%
Compound 5: 2-tetrahydrofurylmethanol, C5H10O2, InChI=1S/C5H10O2/c6-4-5-2-1-3-7-5/h5-6H,1-4H2, purity 99%
Compound 6: methyl 2-hydroxypropanoate, C4H8O3, InChI=1S/C4H8O3/c1-3(5)4(6)7-2/h3,5H,1-2H3, purity 98%
Compound 7: DL-ethyl lactate, C5H10O3, InChI=1S/C5H10O3/c1-3-8-5(7)4(2)6/h4,6H,3H2,1-2H3, purity 98%
Compound 8: butyl 2-hydroxypropanoate, C7H14O3, InChI=1S/C7H14O3/c1-3-4-5-10-7(9)6(2)8/h6,8H,3-5H2,1-2H3, purity 98%
Compound 9: methyl propenoate, C4H6O2, InChI=1S/C4H6O2/c1-3-4(5)6-2/h3H,1H2,2H3, purity 99%
Compound 10: methyl levulinate, C6H10O3, InChI=1S/C6H10O3/c1-5(7)3-4-6(8)9-2/h3-4H2,1-2H3, purity 98%
Compound 11: ethyl levulinate, C7H12O3, InChI=1S/C7H12O3/c1-3-10-7(9)5-4-6(2)8/h3-5H2,1-2H3, purity 99%
Compound 12: butyl levulinate, C9H16O3, InChI=1S/C9H16O3/c1-3-4-7-12-9(11)6-5-8(2)10/h3-7H2,1-2H3, purity 98%

System: 2-furaldehyde; phases: Liquid
Property: Mass density, kg/m3 (Liquid); method: Vibrating tube method
Temperature, K	Pressure, kPa	Mass density, kg/m3	uncertainty
298.15	101.325	1154.805	0.357

System: 2-furaldehyde; phases: Liquid
Property: Speed of sound, m/s (Liquid); method: Sing-around technique in a fixed-path interferometer
Temperature, K	Pressure, kPa	Speed of sound, m/s	uncertainty
298.15	101.325	1440.19	1.56

System: 5-methylfurfural; phases: Liquid
Property: Mass density, kg/m3 (Liquid); method: Vibrating tube method
Temperature, K	Pressure, kPa	Mass density, kg/m3	uncertainty
298.15	101.325	1103.203	0.314

System: 5-methylfurfural; phases: Liquid
Property: Speed of sound, m/s (Liquid); method: Sing-around technique in a fixed-path interferometer
Temperature, K	Pressure, kPa	Speed of sound, m/s	uncertainty
298.15	101.325	1447.02	1.56

System: 2-hydroxymethylfuran; phases: Liquid
Property: Mass density, kg/m3 (Liquid); method: Vibrating tube method
Temperature, K	Pressure, kPa	Mass density, kg/m3	uncertainty
298.15	101.325	1130.269	0.336

System: 2-hydroxymethylfuran; phases: Liquid
Property: Speed of sound, m/s (Liquid); method: Sing-around technique in a fixed-path interferometer
Temperature, K	Pressure, kPa	Speed of sound, m/s	uncertainty
298.15	101.325	1449.8	1.56

System: 2-tetrahydrofurylmethanol; phases: Liquid
Property: Mass density, kg/m3 (Liquid); method: Vibrating tube method
Temperature, K	Pressure, kPa	Mass density, kg/m3	uncertainty
298.15	101.325	1050.748	0.271

System: 2-tetrahydrofurylmethanol; phases: Liquid
Property: Speed of sound, m/s (Liquid); method: Sing-around technique in a fixed-path interferometer
Temperature, K	Pressure, kPa	Speed of sound, m/s	uncertainty
298.15	101.325	1485.17	1.57

System: methyl 2-hydroxypropanoate; phases: Liquid
Property: Mass density, kg/m3 (Liquid); method: Vibrating tube method
Temperature, K	Pressure, kPa	Mass density, kg/m3	uncertainty
298.15	101.325	1087.431	1.02

System: methyl 2-hydroxypropanoate; phases: Liquid
Property: Speed of sound, m/s (Liquid); method: Sing-around technique in a fixed-path interferometer
Temperature, K	Pressure, kPa	Speed of sound, m/s	uncertainty
298.15	101.325	1338.8	2.32

System: DL-ethyl lactate; phases: Liquid
Property: Mass density, kg/m3 (Liquid); method: Vibrating tube method
Temperature, K	Pressure, kPa	Mass density, kg/m3	uncertainty
298.15	101.325	1028.365	0.896

System: DL-ethyl lactate; phases: Liquid
Property: Speed of sound, m/s (Liquid); method: Sing-around technique in a fixed-path interferometer
Temperature, K	Pressure, kPa	Speed of sound, m/s	uncertainty
298.15	101.325	1279.73	2.32

System: butyl 2-hydroxypropanoate; phases: Liquid
Property: Mass density, kg/m3 (Liquid); method: Vibrating tube method
Temperature, K	Pressure, kPa	Mass density, kg/m3	uncertainty
298.15	101.325	977.283	0.811

System: butyl 2-hydroxypropanoate; phases: Liquid
Property: Speed of sound, m/s (Liquid); method: Sing-around technique in a fixed-path interferometer
Temperature, K	Pressure, kPa	Speed of sound, m/s	uncertainty
298.15	101.325	1285.01	2.32

System: methyl propenoate; phases: Liquid
Property: Mass density, kg/m3 (Liquid); method: Vibrating tube method
Temperature, K	Pressure, kPa	Mass density, kg/m3	uncertainty
298.15	101.325	949.174	0.233

System: methyl propenoate; phases: Liquid
Property: Speed of sound, m/s (Liquid); method: Sing-around technique in a fixed-path interferometer
Temperature, K	Pressure, kPa	Speed of sound, m/s	uncertainty
298.15	101.325	1168.97	1.52

System: methyl levulinate; phases: Liquid
Property: Mass density, kg/m3 (Liquid); method: Vibrating tube method
Temperature, K	Pressure, kPa	Mass density, kg/m3	uncertainty
298.15	101.325	1045.396	0.931

System: methyl levulinate; phases: Liquid
Property: Speed of sound, m/s (Liquid); method: Sing-around technique in a fixed-path interferometer
Temperature, K	Pressure, kPa	Speed of sound, m/s	uncertainty
298.15	101.325	1386.22	2.33

System: ethyl levulinate; phases: Liquid
Property: Mass density, kg/m3 (Liquid); method: Vibrating tube method
Temperature, K	Pressure, kPa	Mass density, kg/m3	uncertainty
298.15	101.325	1007.542	0.238

System: ethyl levulinate; phases: Liquid
Property: Speed of sound, m/s (Liquid); method: Sing-around technique in a fixed-path interferometer
Temperature, K	Pressure, kPa	Speed of sound, m/s	uncertainty
298.15	101.325	1351.22	1.55

System: butyl levulinate; phases: Liquid
Property: Mass density, kg/m3 (Liquid); method: Vibrating tube method
Temperature, K	Pressure, kPa	Mass density, kg/m3	uncertainty
298.15	101.325	969.935	0.802

System: butyl levulinate; phases: Liquid
Property: Speed of sound, m/s (Liquid); method: Sing-around technique in a fixed-path interferometer
Temperature, K	Pressure, kPa	Speed of sound, m/s	uncertainty
298.15	101.325	1341.33	2.32

System: 2-furaldehyde + water; phases: Liquid mixture 1, Liquid mixture 2
Property: Mass fraction of 2-furaldehyde (Liquid mixture 1); method: Titration method
Temperature, K	Pressure, kPa	Mass fraction of 2-furaldehyde	uncertainty
298.15	101	0.0817	0.0014

System: 2-furaldehyde + water; phases: Liquid
Fixed: Pressure, kPa = 101
Fixed: Temperature, K = 298.15
Property: Mass density, kg/m3 (Liquid); method: Vibrating tube method
Molality, mol/kg of 2-furaldehyde	Mass density, kg/m3	uncertainty
0.0542	998.113	0.107
0.0556	998.137	0.107
0.0607	998.217	0.107
0.0653	998.295	0.107
0.0686	998.351	0.107
0.075	998.453	0.107
0.0801	998.537	0.107
0.089	998.69	0.107
0.1095	999.037	0.107
0.1179	999.174	0.107
0.1332	999.425	0.107
0.1717	1000.069	0.107
0.2053	1000.623	0.107
0.2309	1001.034	0.108
0.3092	1002.32	0.108
0.3436	1002.871	0.108
0.4132	1003.974	0.108
0.5112	1005.51	0.108
0.5559	1006.19	0.108
0.6557	1007.697	0.109
0.8368	1010.35	0.109
0.9225	1011.547	0.11

System: 2-furaldehyde + water; phases: Liquid
Fixed: Pressure, kPa = 101
Fixed: Temperature, K = 298.15
Property: Speed of sound, m/s (Liquid); method: Sing-around technique in a fixed-path interferometer
Molality, mol/kg of 2-furaldehyde	Speed of sound, m/s	uncertainty
0.0542	1499.11	1.21
0.0556	1499.19	1.21
0.0607	1499.36	1.21
0.0653	1499.59	1.21
0.0686	1499.71	1.21
0.075	1500.01	1.21
0.0801	1500.18	1.21
0.089	1500.56	1.21
0.1095	1501.38	1.21
0.1179	1501.79	1.21
0.1332	1502.35	1.21
0.1717	1504.03	1.22
0.2053	1505.29	1.22
0.2309	1506.08	1.22
0.3092	1508.88	1.22
0.3436	1510.05	1.22
0.4132	1512.33	1.22
0.5112	1515.22	1.22
0.5559	1516.45	1.22
0.6557	1518.68	1.22
0.8368	1522.04	1.22
0.9225	1523.49	1.23

System: 5-methylfurfural + water; phases: Liquid mixture 1, Liquid mixture 2
Property: Mass fraction of 5-methylfurfural (Liquid mixture 1); method: Titration method
Temperature, K	Pressure, kPa	Mass fraction of 5-methylfurfural	uncertainty
298.15	101	0.0345	0.0006

System: 5-methylfurfural + water; phases: Liquid
Fixed: Pressure, kPa = 101
Fixed: Temperature, K = 298.15
Property: Mass density, kg/m3 (Liquid); method: Vibrating tube method
Molality, mol/kg of 5-methylfurfural	Mass density, kg/m3	uncertainty
0.0067	997.297	0.107
0.0069	997.3	0.107
0.0081	997.319	0.107
0.0083	997.323	0.107
0.0084	997.325	0.107
0.0098	997.344	0.107
0.0103	997.35	0.107
0.0109	997.355	0.107
0.0122	997.373	0.107
0.0137	997.397	0.107
0.016	997.425	0.107
0.0179	997.454	0.107
0.0223	997.516	0.107
0.0257	997.563	0.107
0.0292	997.613	0.107
0.0462	997.848	0.107
0.0557	997.966	0.107
0.0608	998.055	0.107
0.0825	998.35	0.107
0.1136	998.767	0.107
0.1363	998.986	0.107
0.1454	999.221	0.107
0.1666	999.516	0.107
0.204	1000.006	0.107
0.2877	1001.136	0.108

System: 5-methylfurfural + water; phases: Liquid
Fixed: Pressure, kPa = 101
Fixed: Temperature, K = 298.15
Property: Speed of sound, m/s (Liquid); method: Sing-around technique in a fixed-path interferometer
Molality, mol/kg of 5-methylfurfural	Speed of sound, m/s	uncertainty
0.0067	1497.03	1.21
0.0069	1497.04	1.21
0.0081	1497.14	1.21
0.0083	1497.16	1.21
0.0084	1497.17	1.21
0.0098	1497.24	1.21
0.0103	1497.25	1.21
0.0109	1497.29	1.21
0.0122	1497.35	1.21
0.0137	1497.42	1.21
0.016	1497.56	1.21
0.0179	1497.65	1.21
0.0223	1497.91	1.21
0.0257	1498.11	1.21
0.0292	1498.29	1.21
0.0462	1499.19	1.21
0.0557	1499.64	1.21
0.0608	1499.98	1.21
0.0825	1501.09	1.21
0.1136	1503.02	1.21
0.1363	1503.79	1.21
0.1454	1504.22	1.22
0.1666	1505.25	1.22
0.204	1506.92	1.22
0.2877	1510.99	1.22

System: butyl 2-hydroxypropanoate + water; phases: Liquid mixture 1, Liquid mixture 2
Property: Mass fraction of butyl 2-hydroxypropanoate (Liquid mixture 1); method: Titration method
Temperature, K	Pressure, kPa	Mass fraction of butyl 2-hydroxypropanoate	uncertainty
298.15	101	0.0412	0.0007

System: butyl 2-hydroxypropanoate + water; phases: Liquid
Fixed: Pressure, kPa = 101
Fixed: Temperature, K = 298.15
Property: Mass density, kg/m3 (Liquid); method: Vibrating tube method
Molality, mol/kg of butyl 2-hydroxypropanoate	Mass density, kg/m3	uncertainty
0.0219	997.335	0.107
0.0262	997.377	0.107
0.0328	997.422	0.107
0.0399	997.472	0.108
0.0413	997.482	0.108
0.0444	997.503	0.108
0.0632	997.633	0.108
0.0659	997.652	0.108
0.0775	997.733	0.108
0.0915	997.826	0.108
0.1058	997.928	0.108
0.1167	998.001	0.108
0.1331	998.116	0.108
0.1551	998.265	0.108
0.1798	998.437	0.108
0.1979	998.576	0.108
0.2171	998.689	0.108
0.235	998.813	0.108
0.2647	999.004	0.108
0.2785	999.098	0.108

System: butyl 2-hydroxypropanoate + water; phases: Liquid
Fixed: Pressure, kPa = 101
Fixed: Temperature, K = 298.15
Property: Speed of sound, m/s (Liquid); method: Sing-around technique in a fixed-path interferometer
Molality, mol/kg of butyl 2-hydroxypropanoate	Speed of sound, m/s	uncertainty
0.0219	1498.76	1.21
0.0262	1499.38	1.21
0.0328	1499.88	1.21
0.0399	1500.35	1.21
0.0413	1500.48	1.21
0.0444	1500.78	1.21
0.0632	1502.35	1.22
0.0659	1502.64	1.22
0.0775	1503.71	1.22
0.0915	1504.91	1.22
0.1058	1506.09	1.22
0.1167	1507.04	1.22
0.1331	1508.38	1.22
0.1551	1510.24	1.22
0.1798	1512.16	1.22
0.1979	1514.02	1.22
0.2171	1515.52	1.22
0.235	1516.74	1.22
0.2647	1518.43	1.22
0.2785	1519.39	1.23

System: methyl propenoate + water; phases: Liquid mixture 1, Liquid mixture 2
Property: Mass fraction of methyl propenoate (Liquid mixture 1); method: Titration method
Temperature, K	Pressure, kPa	Mass fraction of methyl propenoate	uncertainty
298.15	101	0.0506	0.0009

System: methyl propenoate + water; phases: Liquid
Fixed: Pressure, kPa = 101
Fixed: Temperature, K = 298.15
Property: Mass density, kg/m3 (Liquid); method: Vibrating tube method
Molality, mol/kg of methyl propenoate	Mass density, kg/m3	uncertainty
0.0393	997.315	0.107
0.0445	997.337	0.107
0.0475	997.348	0.107
0.0543	997.381	0.107
0.0631	997.409	0.107
0.0712	997.451	0.107
0.0962	997.547	0.107
0.1341	997.677	0.107
0.1473	997.72	0.107
0.1826	997.809	0.108
0.2485	998.068	0.108
0.3666	998.512	0.108
0.4288	998.73	0.108
0.5131	999.004	0.108

System: methyl propenoate + water; phases: Liquid
Fixed: Pressure, kPa = 101
Fixed: Temperature, K = 298.15
Property: Speed of sound, m/s (Liquid); method: Sing-around technique in a fixed-path interferometer
Molality, mol/kg of methyl propenoate	Speed of sound, m/s	uncertainty
0.0393	1498.34	1.21
0.0445	1498.73	1.21
0.0475	1498.94	1.21
0.0543	1499.13	1.21
0.0631	1499.51	1.21
0.0712	1499.87	1.21
0.0962	1500.89	1.21
0.1341	1502.14	1.21
0.1473	1502.57	1.21
0.1826	1503.81	1.21
0.2485	1506.15	1.22
0.3666	1510.58	1.22
0.4288	1513.06	1.22
0.5131	1516.7	1.22

System: ethyl levulinate + water; phases: Liquid mixture 1, Liquid mixture 2
Property: Mass fraction of ethyl levulinate (Liquid mixture 1); method: Titration method
Temperature, K	Pressure, kPa	Mass fraction of ethyl levulinate	uncertainty
298.15	101	0.1375	0.0024

System: ethyl levulinate + water; phases: Liquid
Fixed: Pressure, kPa = 101
Fixed: Temperature, K = 298.15
Property: Mass density, kg/m3 (Liquid); method: Vibrating tube method
Molality, mol/kg of ethyl levulinate	Mass density, kg/m3	uncertainty
0.0358	997.518	0.107
0.0404	997.561	0.107
0.0431	997.587	0.107
0.0492	997.643	0.107
0.0555	997.699	0.107
0.0696	997.825	0.107
0.0752	997.876	0.107
0.0921	998.027	0.107
0.1048	998.143	0.107
0.148	998.527	0.108
0.2329	999.277	0.108
0.2893	999.76	0.108
0.3426	1000.21	0.108
0.4292	1000.928	0.108
0.4826	1001.361	0.108
0.5834	1002.143	0.108
0.7128	1003.113	0.109
0.8299	1003.937	0.109
1.0373	1005.274	0.11

System: ethyl levulinate + water; phases: Liquid
Fixed: Pressure, kPa = 101
Fixed: Temperature, K = 298.15
Property: Speed of sound, m/s (Liquid); method: Sing-around technique in a fixed-path interferometer
Molality, mol/kg of ethyl levulinate	Speed of sound, m/s	uncertainty
0.0358	1499.24	1.21
0.0404	1499.62	1.21
0.0431	1499.82	1.21
0.0492	1500.17	1.21
0.0555	1500.66	1.21
0.0696	1501.64	1.21
0.0752	1501.99	1.21
0.0921	1503.13	1.21
0.1048	1503.98	1.22
0.148	1507.09	1.22
0.2329	1512.14	1.22
0.2893	1515.46	1.22
0.3426	1518.48	1.22
0.4292	1523.06	1.22
0.4826	1525.71	1.22
0.5834	1530.31	1.23
0.7128	1535.53	1.23
0.8299	1539.53	1.23
1.0373	1544.99	1.24

System: butyl levulinate + water; phases: Liquid mixture 1, Liquid mixture 2
Property: Mass fraction of butyl levulinate (Liquid mixture 1); method: Titration method
Temperature, K	Pressure, kPa	Mass fraction of butyl levulinate	uncertainty
298.15	101	0.0109	0.0002

System: butyl levulinate + water; phases: Liquid
Fixed: Pressure, kPa = 101
Fixed: Temperature, K = 298.15
Property: Mass density, kg/m3 (Liquid); method: Vibrating tube method
Molality, mol/kg of butyl levulinate	Mass density, kg/m3	uncertainty
0.0029	997.066	0.107
0.0037	997.071	0.107
0.005	997.078	0.107
0.0055	997.08	0.107
0.0059	997.081	0.107
0.0074	997.088	0.107
0.0083	997.093	0.107
0.0088	997.096	0.107
0.011	997.107	0.107
0.0128	997.114	0.107
0.0135	997.123	0.107
0.0142	997.124	0.107
0.0208	997.158	0.107
0.0219	997.163	0.107
0.0257	997.183	0.108
0.0303	997.197	0.108
0.0312	997.209	0.108
0.0357	997.23	0.108
0.0466	997.273	0.108
0.0522	997.303	0.108
0.0625	997.333	0.108

System: butyl levulinate + water; phases: Liquid
Fixed: Pressure, kPa = 101
Fixed: Temperature, K = 298.15
Property: Speed of sound, m/s (Liquid); method: Sing-around technique in a fixed-path interferometer
Molality, mol/kg of butyl levulinate	Speed of sound, m/s	uncertainty
0.0029	1497.29	1.21
0.0037	1497.45	1.21
0.005	1497.61	1.21
0.0055	1497.59	1.21
0.0059	1497.69	1.21
0.0074	1497.87	1.21
0.0083	1497.94	1.21
0.0088	1497.93	1.21
0.011	1498.18	1.21
0.0128	1498.44	1.21
0.0135	1498.52	1.21
0.0142	1498.5	1.21
0.0208	1499.14	1.21
0.0219	1499.36	1.21
0.0257	1499.71	1.21
0.0303	1500.04	1.21
0.0312	1500.12	1.21
0.0357	1500.59	1.21
0.0466	1501.42	1.21
0.0522	1501.83	1.21
0.0625	1502.55	1.22

System: 2-hydroxymethylfuran + water; phases: Liquid
Fixed: Pressure, kPa = 101
Fixed: Temperature, K = 298.15
Property: Mass density, kg/m3 (Liquid); method: Vibrating tube method
Molality, mol/kg of 2-hydroxymethylfuran	Mass density, kg/m3	uncertainty
0.0475	997.854	0.107
0.0537	997.937	0.107
0.0559	997.967	0.107
0.0625	998.054	0.107
0.0688	998.143	0.107
0.0781	998.269	0.107
0.0999	998.571	0.107
0.1027	998.607	0.107
0.12	998.847	0.107
0.1433	999.158	0.107
0.1651	999.552	0.107
0.2327	1000.392	0.107
0.2468	1000.583	0.107
0.4458	1003.248	0.108
0.618	1005.504	0.108
0.8613	1008.557	0.109
1.0537	1010.946	0.11
1.2361	1012.93	0.11
1.4409	1015.25	0.111
1.6556	1017.559	0.112
1.8349	1019.321	0.113
2.0619	1021.733	0.114
2.5445	1026.133	0.116
2.8736	1028.795	0.117

System: 2-hydroxymethylfuran + water; phases: Liquid
Fixed: Pressure, kPa = 101
Fixed: Temperature, K = 298.15
Property: Speed of sound, m/s (Liquid); method: Sing-around technique in a fixed-path interferometer
Molality, mol/kg of 2-hydroxymethylfuran	Speed of sound, m/s	uncertainty
0.0475	1498.94	1.21
0.0537	1499.26	1.21
0.0559	1499.37	1.21
0.0625	1499.65	1.21
0.0688	1499.95	1.21
0.0781	1500.34	1.21
0.0999	1501.31	1.21
0.1027	1501.46	1.21
0.12	1502.25	1.21
0.1433	1503.27	1.21
0.1651	1504.28	1.22
0.2327	1507.07	1.22
0.2468	1507.79	1.22
0.4458	1515.87	1.22
0.618	1522.35	1.22
0.8613	1530.4	1.23
1.0537	1535.93	1.23
1.2361	1540.51	1.23
1.4409	1545.55	1.24
1.6556	1549.96	1.24
1.8349	1553.95	1.24
2.0619	1559.36	1.25
2.5445	1569.55	1.25
2.8736	1577.21	1.26

System: 2-tetrahydrofurylmethanol + water; phases: Liquid
Fixed: Pressure, kPa = 101
Fixed: Temperature, K = 298.15
Property: Mass density, kg/m3 (Liquid); method: Vibrating tube method
Molality, mol/kg of 2-tetrahydrofurylmethanol	Mass density, kg/m3	uncertainty
0.0115	997.245	0.107
0.0127	997.265	0.107
0.0141	997.289	0.107
0.0149	997.301	0.107
0.0183	997.356	0.107
0.0193	997.373	0.107
0.0223	997.421	0.107
0.0281	997.511	0.107
0.0286	997.518	0.107
0.0337	997.596	0.107
0.0441	997.835	0.107
0.0462	997.862	0.107
0.0496	997.893	0.107
0.0584	998.028	0.107
0.0686	998.155	0.107
0.0731	998.209	0.107
0.0948	998.467	0.107
0.1082	998.66	0.107
0.1478	999.071	0.107
0.2077	999.663	0.107
0.2552	1000.113	0.107
0.35	1000.982	0.108
0.4904	1002.204	0.108
0.678	1003.767	0.108
1.1601	1007.552	0.11
1.996	1013.359	0.112
2.9586	1020.273	0.116
3.1746	1021.743	0.117
3.5587	1024.367	0.118
5.5556	1036.448	0.128

System: 2-tetrahydrofurylmethanol + water; phases: Liquid
Fixed: Pressure, kPa = 101
Fixed: Temperature, K = 298.15
Property: Speed of sound, m/s (Liquid); method: Sing-around technique in a fixed-path interferometer
Molality, mol/kg of 2-tetrahydrofurylmethanol	Speed of sound, m/s	uncertainty
0.0115	1497.18	1.21
0.0127	1497.39	1.21
0.0141	1497.62	1.21
0.0149	1497.73	1.21
0.0183	1498.08	1.21
0.0193	1498.16	1.21
0.0223	1498.38	1.21
0.0281	1498.5	1.21
0.0286	1498.53	1.21
0.0337	1498.68	1.21
0.0441	1499.31	1.21
0.0462	1499.48	1.21
0.0496	1499.62	1.21
0.0584	1500.34	1.21
0.0686	1500.87	1.21
0.0731	1501.14	1.21
0.0948	1502.44	1.21
0.1082	1503.15	1.21
0.1478	1505.56	1.22
0.2077	1509.05	1.22
0.2552	1511.77	1.22
0.35	1517.13	1.22
0.4904	1524.91	1.22
0.678	1534.73	1.23
1.1601	1557.24	1.24
1.996	1589.06	1.25
2.9586	1614.86	1.27
3.1746	1620.78	1.27
3.5587	1630.07	1.28
5.5556	1672.33	1.31

System: methyl 2-hydroxypropanoate + water; phases: Liquid
Fixed: Pressure, kPa = 101
Fixed: Temperature, K = 298.15
Property: Mass density, kg/m3 (Liquid); method: Vibrating tube method
Molality, mol/kg of methyl 2-hydroxypropanoate	Mass density, kg/m3	uncertainty
0.0487	997.862	0.107
0.0568	997.968	0.107
0.0707	998.157	0.108
0.0956	998.501	0.108
0.1039	998.614	0.108
0.1117	998.722	0.108
0.1338	999.035	0.108
0.1539	999.294	0.108
0.223	1000.237	0.108
0.3212	1001.553	0.108
0.484	1003.64	0.109
0.7855	1007.523	0.111
0.9699	1009.784	0.112
1.1682	1012.118	0.114
1.3774	1014.504	0.116
1.5601	1016.483	0.119
1.7762	1018.699	0.121
1.938	1020.397	0.123
2.2371	1023.266	0.128
2.6316	1026.816	0.135
2.9412	1029.455	0.14
3.3223	1032.465	0.148
3.9063	1036.616	0.16

System: methyl 2-hydroxypropanoate + water; phases: Liquid
Fixed: Pressure, kPa = 101
Fixed: Temperature, K = 298.15
Property: Speed of sound, m/s (Liquid); method: Sing-around technique in a fixed-path interferometer
Molality, mol/kg of methyl 2-hydroxypropanoate	Speed of sound, m/s	uncertainty
0.0487	1499	1.21
0.0568	1499.54	1.21
0.0707	1500.43	1.21
0.0956	1501.24	1.21
0.1039	1501.63	1.22
0.1117	1501.97	1.22
0.1338	1503.12	1.22
0.1539	1503.95	1.22
0.223	1507.78	1.22
0.3212	1511.7	1.22
0.484	1518.16	1.23
0.7855	1529.04	1.24
0.9699	1535.26	1.25
1.1682	1542.09	1.26
1.3774	1548.69	1.26
1.5601	1554.22	1.27
1.7762	1561.86	1.28
1.938	1566.9	1.29
2.2371	1575.77	1.31
2.6316	1588.16	1.33
2.9412	1597.05	1.34
3.3223	1606.55	1.36
3.9063	1617.15	1.39

System: DL-ethyl lactate + water; phases: Liquid
Fixed: Pressure, kPa = 101
Fixed: Temperature, K = 298.15
Property: Mass density, kg/m3 (Liquid); method: Vibrating tube method
Molality, mol/kg of DL-ethyl lactate	Mass density, kg/m3	uncertainty
0.0348	997.552	0.107
0.0378	997.579	0.107
0.0445	997.674	0.107
0.0513	997.748	0.108
0.063	997.869	0.108
0.0719	997.967	0.108
0.0895	998.152	0.108
0.1026	998.294	0.108
0.1207	998.489	0.108
0.1439	998.732	0.108
0.1856	999.184	0.108
0.2723	1000.1	0.108
0.5249	1002.7	0.109
0.6911	1004.345	0.111
0.8467	1005.833	0.112
1.0204	1007.411	0.113
1.1876	1008.868	0.115
1.3587	1010.226	0.117
1.6835	1012.784	0.121
2.0576	1015.37	0.127
2.4096	1017.486	0.133
2.7248	1019.268	0.139
3.2258	1021.638	0.15
3.7313	1023.629	0.161
4.2373	1025.366	0.173

System: DL-ethyl lactate + water; phases: Liquid
Fixed: Pressure, kPa = 101
Fixed: Temperature, K = 298.15
Property: Speed of sound, m/s (Liquid); method: Sing-around technique in a fixed-path interferometer
Molality, mol/kg of DL-ethyl lactate	Speed of sound, m/s	uncertainty
0.0348	1498.71	1.21
0.0378	1499.02	1.21
0.0445	1499.57	1.21
0.0513	1499.97	1.21
0.063	1500.54	1.21
0.0719	1501.1	1.21
0.0895	1502.16	1.22
0.1026	1502.95	1.22
0.1207	1504.04	1.22
0.1439	1505.62	1.22
0.1856	1508.64	1.22
0.2723	1513.96	1.22
0.5249	1525.95	1.23
0.6911	1533.45	1.24
0.8467	1539.62	1.25
1.0204	1545.27	1.26
1.1876	1551.33	1.26
1.3587	1556.07	1.27
1.6835	1563.92	1.29
2.0576	1572.51	1.31
2.4096	1579.01	1.33
2.7248	1585.22	1.35
3.2258	1593.33	1.38
3.7313	1601.14	1.41
4.2373	1607.48	1.43

System: methyl levulinate + water; phases: Liquid
Fixed: Pressure, kPa = 101
Fixed: Temperature, K = 298.15
Property: Mass density, kg/m3 (Liquid); method: Vibrating tube method
Molality, mol/kg of methyl levulinate	Mass density, kg/m3	uncertainty
0.0322	997.582	0.107
0.0375	997.646	0.107
0.0399	997.675	0.107
0.042	997.701	0.107
0.0537	997.774	0.108
0.0724	998.063	0.108
0.0737	998.08	0.108
0.1127	998.543	0.108
0.1571	999.079	0.108
0.1949	999.523	0.108
0.2491	1000.151	0.108
0.3297	1001.082	0.108
0.3905	1001.764	0.109
0.4721	1002.664	0.109
0.5562	1003.576	0.11
0.6293	1004.348	0.111
0.7107	1005.188	0.111
0.7782	1005.873	0.112
0.9597	1007.31	0.114
1.1614	1008.758	0.116

System: methyl levulinate + water; phases: Liquid
Fixed: Pressure, kPa = 101
Fixed: Temperature, K = 298.15
Property: Speed of sound, m/s (Liquid); method: Sing-around technique in a fixed-path interferometer
Molality, mol/kg of methyl levulinate	Speed of sound, m/s	uncertainty
0.0322	1499.19	1.21
0.0375	1499.44	1.21
0.0399	1499.68	1.21
0.042	1499.74	1.21
0.0537	1500.01	1.21
0.0724	1500.9	1.21
0.0737	1501.03	1.21
0.1127	1503.25	1.22
0.1571	1505.69	1.22
0.1949	1507.72	1.22
0.2491	1510.6	1.22
0.3297	1514.61	1.22
0.3905	1517.51	1.23
0.4721	1521.29	1.23
0.5562	1525.06	1.24
0.6293	1527.8	1.24
0.7107	1530.9	1.24
0.7782	1533.36	1.25
0.9597	1539.2	1.26
1.1614	1544.83	1.27
