Measured thermophysical data. (Liquid + liquid) equilibria of (water + propionic acid + dipropyl ether or diisopropyl ether) at T = 298.2 K
Source: J. Chem. Thermodyn., 2007, 10.1016/j.jct.2006.05.005
Compound 1: water, H2O, InChI=1S/H2O/h1H2
Compound 2: propanoic acid, C3H6O2, InChI=1S/C3H6O2/c1-2-3(4)5/h2H2,1H3,(H,4,5), purity 99%
Compound 3: dipropyl ether, C6H14O, InChI=1S/C6H14O/c1-3-5-7-6-4-2/h3-6H2,1-2H3, purity 99%
Compound 4: diisopropyl ether, C6H14O, InChI=1S/C6H14O/c1-5(2)7-6(3)4/h5-6H,1-4H3, purity 99%

System: propanoic acid; phases: Liquid, Gas
Property: Normal boiling temperature, K (Liquid); method: DISTILL:UFactor:4
Normal boiling temperature, K	uncertainty
414.3	0.4

System: propanoic acid; phases: Liquid
Property: Refractive index (Na D-line) (Liquid); method: ABBE:UFactor:4
Temperature, K	Pressure, kPa	Refractive index (Na D-line)	uncertainty
293.15	101.325	1.3811	0.0017

System: propanoic acid; phases: Liquid
Property: Mass density, kg/m3 (Liquid); method: VIBTUB:UFactor:16
Temperature, K	Pressure, kPa	Mass density, kg/m3	uncertainty
293.15	101.325	993	0.74

System: dipropyl ether; phases: Liquid, Gas
Property: Normal boiling temperature, K (Liquid); method: DISTILL:UFactor:4
Normal boiling temperature, K	uncertainty
363.23	0.4

System: dipropyl ether; phases: Liquid
Property: Refractive index (Na D-line) (Liquid); method: ABBE:UFactor:16
Temperature, K	Pressure, kPa	Refractive index (Na D-line)	uncertainty
293.15	101.325	1.3813	0.0064

System: dipropyl ether; phases: Liquid
Property: Mass density, kg/m3 (Liquid); method: VIBTUB:UFactor:64
Temperature, K	Pressure, kPa	Mass density, kg/m3	uncertainty
293.15	101.325	736.1	8.8

System: diisopropyl ether; phases: Liquid, Gas
Property: Normal boiling temperature, K (Liquid); method: DISTILL:UFactor:4
Normal boiling temperature, K	uncertainty
341.55	0.4

System: diisopropyl ether; phases: Liquid
Property: Refractive index (Na D-line) (Liquid); method: ABBE:UFactor:4
Temperature, K	Pressure, kPa	Refractive index (Na D-line)	uncertainty
293.15	101.325	1.3813	0.0017

System: diisopropyl ether; phases: Liquid
Property: Mass density, kg/m3 (Liquid); method: VIBTUB:UFactor:16
Temperature, K	Pressure, kPa	Mass density, kg/m3	uncertainty
293.15	101.325	723.9	2.4

System: propanoic acid + dipropyl ether + water; phases: Liquid mixture 1, Liquid mixture 2
Fixed: Temperature, K = 298.2
Fixed: Pressure, kPa = 101.3
Property: Mole fraction of propanoic acid (Liquid mixture 1); method: CHROM:UFactor:8
Property: Mole fraction of propanoic acid (Liquid mixture 2); method: CHROM:UFactor:8
Property: Mole fraction of water (Liquid mixture 2); method: CHROM:UFactor:8
Mole fraction of water	Mole fraction of propanoic acid	uncertainty	Mole fraction of propanoic acid	uncertainty	Mole fraction of water	uncertainty
0.9998	0	0.0001	0	0.0001	0.0363	
0.9737	0.0251	0.002	0.1847	0.0296	0.0325	
0.9529	0.0467	0.0037	0.337	0.0539	0.1103	
0.9327	0.0672	0.0054	0.4063	0.065	0.2212	
0.8832	0.115	0.0092	0.4144	0.0663	0.3636	
0.7937	0.1935	0.0155	0.3629	0.0581	0.5307	

System: propanoic acid + diisopropyl ether + water; phases: Liquid mixture 1, Liquid mixture 2
Fixed: Temperature, K = 298.2
Fixed: Pressure, kPa = 101.3
Property: Mole fraction of propanoic acid (Liquid mixture 1); method: CHROM:UFactor:8
Property: Mole fraction of propanoic acid (Liquid mixture 2); method: CHROM:UFactor:8
Property: Mole fraction of water (Liquid mixture 2); method: CHROM:UFactor:8
Mole fraction of water	Mole fraction of propanoic acid	uncertainty	Mole fraction of propanoic acid	uncertainty	Mole fraction of water	uncertainty
0.9977	0	0.0001	0	0.0001	0.0347	
0.9819	0.0168	0.0013	0.1558	0.0125	0.1307	
0.9645	0.0338	0.0027	0.2683	0.0215	0.263	
0.9541	0.0429	0.0034	0.2716	0.0217	0.3658	
0.929	0.0674	0.0054	0.2921	0.0234	0.4946	
0.9178	0.0786	0.0063	0.2751	0.022	0.6192	
