Measured thermophysical data. Crystal structures, luminescence, and thermodynamic properties of lanthanide complexes with 3,5-dimethoxybenzoic acid and 1,10-phenanthroline
Source: J. Chem. Thermodyn., 2013, 10.1016/j.jct.2012.08.015
Compound 1: hexakis(3,5-dimethoxybenzoate)bis(1,10-phenanthroline)dipraseodymium(III), C78H70N4O24Pr2, InChI=1S/2C12H8N2.6C9H10O4.2Pr/c2*1-3-9-5-6-10-4-2-8-14-12(10)11(9)13-7-1;6*1-12-7-3-6(9(10)11)4-8(5-7)13-2;;/h2*1-8H;6*3-5H,1-2H3,(H,10,11);;/q;;;;;;;;2*+3/p-6, purity 95%
Compound 2: hexakis(3,5-dimethoxybenzoate)bis(1,10-phenanthroline)dineodymium(III), C78H70N4Nd2O24, InChI=1S/2C12H8N2.6C9H10O4.2Nd/c2*1-3-9-5-6-10-4-2-8-14-12(10)11(9)13-7-1;6*1-12-7-3-6(9(10)11)4-8(5-7)13-2;;/h2*1-8H;6*3-5H,1-2H3,(H,10,11);;/q;;;;;;;;2*+3/p-6, purity 95%
Compound 3: hexakis(3,5-dimethoxybenzoate)bis(1,10-phenanthroline)disamarium(III), C78H70N4O24Sm2, InChI=1S/2C12H8N2.6C9H10O4.2Sm/c2*1-3-9-5-6-10-4-2-8-14-12(10)11(9)13-7-1;6*1-12-7-3-6(9(10)11)4-8(5-7)13-2;;/h2*1-8H;6*3-5H,1-2H3,(H,10,11);;/q;;;;;;;;2*+3/p-6, purity 95%
Compound 4: hexakis(3,5-dimethoxybenzoate)bis(1,10-phenanthroline)dieuropium(III), C78H70Eu2N4O24, InChI=1S/2C12H8N2.6C9H10O4.2Eu/c2*1-3-9-5-6-10-4-2-8-14-12(10)11(9)13-7-1;6*1-12-7-3-6(9(10)11)4-8(5-7)13-2;;/h2*1-8H;6*3-5H,1-2H3,(H,10,11);;/q;;;;;;;;2*+3/p-6, purity 95%
Compound 5: hexakis(3,5-dimethoxybenzoate)bis(1,10-phenanthroline)diholmium(III), C78H70Ho2N4O24, InChI=1S/2C12H8N2.6C9H10O4.2Ho/c2*1-3-9-5-6-10-4-2-8-14-12(10)11(9)13-7-1;6*1-12-7-3-6(9(10)11)4-8(5-7)13-2;;/h2*1-8H;6*3-5H,1-2H3,(H,10,11);;/q;;;;;;;;2*+3/p-6, purity 95%

System: hexakis(3,5-dimethoxybenzoate)bis(1,10-phenanthroline)dipraseodymium(III); phases: Crystal
Fixed: Pressure, kPa = 101.325
Property: Molar heat capacity at constant pressure, J/K/mol (Crystal); method: DSC
Temperature, K	Molar heat capacity at constant pressure, J/K/mol	uncertainty
263.15	1792.69	76.06
266.91	1805.74	76.61
270.67	1821.88	77.3
274.43	1838.8	78.02
278.19	1856.07	78.75
281.95	1872.05	79.43
285.71	1888.01	80.11
289.47	1903.67	80.77
293.23	1919.38	81.44
296.99	1933.63	82.04
300.75	1947.75	82.64
304.51	1962.52	83.27
308.27	1975.47	83.81
312.03	1988.54	84.37
315.79	2001.12	84.9
319.55	2012.55	85.39
323.31	2024.64	85.9
327.07	2037.78	86.46
330.83	2050.26	86.99
334.59	2062.5	87.51
338.35	2076.02	88.08
342.11	2090.82	88.71
345.87	2104.57	89.29
349.63	2117.65	89.85
353.39	2132.74	90.49
357.15	2145.35	91.02
360.91	2154.98	91.43
364.67	2165.84	91.89
368.43	2180.54	92.52
372.19	2192.94	93.04
375.95	2206.05	93.6
379.71	2218.65	94.13
383.47	2228.62	94.55
387.23	2238.46	94.97
390.99	2248.89	95.41
394.75	2259.17	95.85
398.51	2271.43	96.37
402.27	2283.77	96.89
406.03	2297.11	97.46
409.79	2308.27	97.93
413.55	2320.35	98.45
417.31	2332.88	98.98
421.07	2346.67	99.56
424.83	2359.8	100.12
428.59	2369.45	100.53
432.35	2379.7	100.96
436.11	2391.91	101.48
439.87	2403.4	101.97
443.63	2413.98	102.42
447.39	2422.42	102.78
451.15	2433.16	103.23
454.91	2445.46	103.75
458.67	2459.4	104.35
462.43	2473.73	104.96
466.19	2492.27	105.74
469.95	2512.19	106.59
473.71	2528.4	107.27

System: hexakis(3,5-dimethoxybenzoate)bis(1,10-phenanthroline)dipraseodymium(III); phases: Crystal
Fixed: Pressure, kPa = 101.325
Property: Molar heat capacity at constant pressure, J/K/mol (Crystal); method: DSC
Temperature, K	Molar heat capacity at constant pressure, J/K/mol	uncertainty
263.15	1795.13	35.9
273.15	1831.59	36.63
283.15	1878.22	37.56
293.15	1920.09	38.4
303.15	1956.36	39.13
313.15	1990.24	39.8
323.15	2024.39	40.49
333.15	2059.59	41.19
343.15	2095.19	41.9
353.15	2130.03	42.6
363.15	2163.31	43.27
373.15	2195.02	43.9
383.15	2225.83	44.52
393.15	2256.67	45.13
403.15	2288.14	45.76
413.15	2320.12	46.4
423.15	2351.8	47
433.15	2382.25	47.65
443.15	2411.45	48.23
453.15	2441.55	48.83
463.15	2477.47	49.55
473.15	2525.95	50.52

System: hexakis(3,5-dimethoxybenzoate)bis(1,10-phenanthroline)dineodymium(III); phases: Crystal
Fixed: Pressure, kPa = 101.325
Property: Molar heat capacity at constant pressure, J/K/mol (Crystal); method: DSC
Temperature, K	Molar heat capacity at constant pressure, J/K/mol	uncertainty
263.15	2123.09	90.08
266.91	2144.7	91
270.67	2167.05	91.95
274.43	2188.88	92.87
278.19	2211.19	93.82
281.95	2233.39	94.76
285.71	2258.43	95.83
289.47	2281.29	96.79
293.23	2301.75	97.66
296.99	2322.19	98.53
300.75	2342.98	99.41
304.51	2362.63	100.24
308.27	2380.82	101.01
312.03	2397.98	101.74
315.79	2415.89	102.5
319.55	2433.35	103.24
323.31	2447.9	103.86
327.07	2461.62	104.44
330.83	2474.81	105
334.59	2489.25	105.61
338.35	2502.34	106.17
342.11	2518.31	106.85
345.87	2536.9	107.64
349.63	2559.18	108.58
353.39	2573.64	109.19
357.15	2584.52	109.65
360.91	2601.14	110.36
364.67	2620.08	111.16
368.43	2637.69	111.91
372.19	2653.05	112.56
375.95	2667.79	113.19
379.71	2683.34	113.85
383.47	2698.15	114.48
387.23	2714.51	115.17
390.99	2730.03	115.83
394.75	2746.63	116.53
398.51	2765.78	117.35
402.27	2784.88	118.16
406.03	2803.2	118.93
409.79	2820.49	119.67
413.55	2837.08	120.37
417.31	2852.86	121.04
421.07	2870.51	121.79
424.83	2890.07	122.62
428.59	2910.55	123.49
432.35	2930.37	124.33
436.11	2950.32	125.18
439.87	2971.3	126.07
443.63	2991.34	126.92
447.39	3012.26	127.8
451.15	3033.63	128.71
454.91	3055.74	129.65
458.67	3076.92	130.55
462.43	3096.51	131.38
466.19	3119.48	132.36
469.95	3149.97	133.65
473.71	3181.87	135.01

System: hexakis(3,5-dimethoxybenzoate)bis(1,10-phenanthroline)dineodymium(III); phases: Crystal
Fixed: Pressure, kPa = 101.325
Property: Molar heat capacity at constant pressure, J/K/mol (Crystal); method: DSC
Temperature, K	Molar heat capacity at constant pressure, J/K/mol	uncertainty
263.15	2125.18	42.5
273.15	2180.51	43.61
283.15	2242.28	44.85
293.15	2302.01	46.04
303.15	2355.59	47.11
313.15	2402.71	48.05
323.15	2445.28	48.91
333.15	2485.9	49.7
343.15	2526.67	50.53
353.15	2568.6	51.4
363.15	2611.69	52.23
373.15	2655.33	53.11
383.15	2698.95	53.98
393.15	2742.55	54.85
403.15	2786.88	55.74
413.15	2833.18	56.66
423.15	2882.54	57.65
433.15	2935.05	58.7
443.15	2989.51	59.79
453.15	3044.44	60.89
463.15	3101.97	62.04
473.15	3176.3	63.5

System: hexakis(3,5-dimethoxybenzoate)bis(1,10-phenanthroline)disamarium(III); phases: Crystal
Fixed: Pressure, kPa = 101.325
Property: Molar heat capacity at constant pressure, J/K/mol (Crystal); method: DSC
Temperature, K	Molar heat capacity at constant pressure, J/K/mol	uncertainty
263.15	2054.86	87.19
266.91	2079.97	88.26
270.67	2104.24	89.29
274.43	2130.02	90.38
278.19	2155.49	91.46
281.95	2180.26	92.51
285.71	2202.83	93.47
289.47	2226.27	94.46
293.23	2248.73	95.41
296.99	2271.6	96.38
300.75	2295.41	97.39
304.51	2317.42	98.33
308.27	2340.04	99.29
312.03	2361.05	100.18
315.79	2382.91	101.1
319.55	2402.4	101.93
323.31	2422.59	102.79
327.07	2443.82	103.69
330.83	2471.23	104.85
334.59	2496.97	105.94
338.35	2516.7	106.78
342.11	2535.51	107.58
345.87	2556.39	108.46
349.63	2574.17	109.22
353.39	2590.04	109.89
357.15	2608.88	110.69
360.91	2628.43	111.52
364.67	2648.43	112.37
368.43	2669.5	113.26
372.19	2690.64	114.16
375.95	2711.28	115.04
379.71	2732.86	115.95
383.47	2754.59	116.87
387.23	2774.9	117.73
390.99	2796.22	118.64
394.75	2817.99	119.56
398.51	2839.66	120.48
402.27	2861.79	121.42
406.03	2883.19	122.33
409.79	2903.88	123.21
413.55	2922.69	124
417.31	2943.81	124.9
421.07	2965.59	125.82
424.83	2986.23	126.7
428.59	3006.52	127.56
432.35	3027.01	128.43
436.11	3053.06	129.54
439.87	3075.6	130.49
443.63	3093.93	131.27
447.39	3110.53	131.97
451.15	3127.88	132.71
454.91	3144.71	133.42
458.67	3160.34	134.08
462.43	3177.47	134.81
466.19	3193.95	135.51
469.95	3211.48	136.25
473.71	3230.19	137.05

System: hexakis(3,5-dimethoxybenzoate)bis(1,10-phenanthroline)disamarium(III); phases: Crystal
Fixed: Pressure, kPa = 101.325
Property: Molar heat capacity at constant pressure, J/K/mol (Crystal); method: DSC
Temperature, K	Molar heat capacity at constant pressure, J/K/mol	uncertainty
263.15	2125.18	42.5
273.15	2180.51	43.61
283.15	2242.28	44.85
293.15	2302.01	46.04
303.15	2355.59	47.11
313.15	2402.71	48.05
323.15	2445.28	48.91
333.15	2485.9	49.7
343.15	2526.67	50.53
353.15	2568.6	51.4
363.15	2611.69	52.23
373.15	2655.33	53.11
383.15	2698.95	53.98
393.15	2742.55	54.85
403.15	2786.88	55.74
413.15	2833.18	56.66
423.15	2882.54	57.65
433.15	2935.05	58.7
443.15	2989.51	59.79
453.15	3044.44	60.89
463.15	3101.97	62.04
473.15	3176.3	63.5

System: hexakis(3,5-dimethoxybenzoate)bis(1,10-phenanthroline)dieuropium(III); phases: Crystal
Fixed: Pressure, kPa = 101.325
Property: Molar heat capacity at constant pressure, J/K/mol (Crystal); method: DSC
Temperature, K	Molar heat capacity at constant pressure, J/K/mol	uncertainty
263.15	1712.09	72.65
266.91	1735.26	73.63
270.67	1760.17	74.69
274.43	1786.23	75.8
278.19	1812.9	76.93
281.95	1840.05	78.08
285.71	1868.74	79.3
289.47	1897.26	80.51
293.23	1924.7	81.67
296.99	1952.09	82.83
300.75	1978.33	83.94
304.51	2001.88	84.94
308.27	2024.38	85.9
312.03	2046.57	86.84
315.79	2067.64	87.73
319.55	2088.28	88.6
323.31	2106.64	89.38
327.07	2125.33	90.18
330.83	2143.57	90.95
334.59	2165.42	91.88
338.35	2184.83	92.7
342.11	2205.75	93.59
345.87	2225.09	94.41
349.63	2245.33	95.27
353.39	2268.86	96.27
357.15	2292.94	97.29
360.91	2315.01	98.23
364.67	2339.54	99.27
368.43	2365.22	100.36
372.19	2390.3	101.42
375.95	2415.76	102.5
379.71	2437.32	103.41
383.47	2457.23	104.26
387.23	2479.91	105.22
390.99	2505.68	106.32
394.75	2532.45	107.45
398.51	2558.52	108.56
402.27	2582.67	109.58
406.03	2607.91	110.65
409.79	2633.22	111.73
413.55	2656.03	112.69
417.31	2681.46	113.77
421.07	2705.35	114.78
424.83	2727.37	115.72
428.59	2748.49	116.61
432.35	2769.8	117.52
436.11	2793.95	118.55
439.87	2823.02	119.78
443.63	2852.86	121.04
447.39	2875.26	121.99
451.15	2890.07	122.62
454.91	2898.34	122.97
458.67	2906.22	123.3
462.43	2919.53	123.87
466.19	2935.53	124.55
469.95	2953.02	125.29
473.71	2966.88	125.88

System: hexakis(3,5-dimethoxybenzoate)bis(1,10-phenanthroline)dieuropium(III); phases: Crystal
Fixed: Pressure, kPa = 101.325
Property: Molar heat capacity at constant pressure, J/K/mol (Crystal); method: DSC
Temperature, K	Molar heat capacity at constant pressure, J/K/mol	uncertainty
263.15	1712.14	34.24
273.15	1776.8	35.5
283.15	1849.67	36.99
293.15	1924.12	38.48
303.15	1992.78	39.86
313.15	2052.86	41.06
323.15	2106.27	42.13
333.15	2157.37	43.15
343.15	2210.38	44.21
353.15	2267.74	45.35
363.15	2329.52	46.59
373.15	2394.03	47.88
383.15	2459.11	49.18
393.15	2523.38	50.47
403.15	2586.94	51.74
413.15	2651.02	53.02
423.15	2716.64	54.33
433.15	2782.51	55.65
443.15	2843.64	56.87
453.15	2892.54	57.85
463.15	2926.27	58.53
473.15	2963.72	59.27

System: hexakis(3,5-dimethoxybenzoate)bis(1,10-phenanthroline)diholmium(III); phases: Crystal
Fixed: Pressure, kPa = 101.325
Property: Molar heat capacity at constant pressure, J/K/mol (Crystal); method: DSC
Temperature, K	Molar heat capacity at constant pressure, J/K/mol	uncertainty
263.15	1793.26	76.09
266.91	1811.71	76.87
270.67	1832.06	77.74
274.43	1852.75	78.61
278.19	1874.62	79.54
281.95	1897.22	80.5
285.71	1919.81	81.46
289.47	1943.52	82.47
293.23	1967.88	83.5
296.99	1992.38	84.54
300.75	2016.15	85.55
304.51	2039.06	86.52
308.27	2061.42	87.47
312.03	2081.23	88.3
315.79	2096.76	88.96
319.55	2111.93	89.61
323.31	2126.39	90.22
327.07	2140.02	90.8
330.83	2153.26	91.36
334.59	2169.73	92.06
338.35	2188.34	92.85
342.11	2208.99	93.72
345.87	2225.42	94.42
349.63	2244.19	95.22
353.39	2263.53	96.04
357.15	2284.58	96.93
360.91	2303.66	97.74
364.67	2322.59	98.54
368.43	2342.89	99.41
372.19	2367.9	100.47
375.95	2391.19	101.46
379.71	2414.64	102.45
383.47	2440.1	103.53
387.23	2466.51	104.65
390.99	2491.98	105.73
394.75	2514.24	106.68
398.51	2535	107.56
402.27	2551.27	108.24
406.03	2559.85	108.61
409.79	2567.33	108.92
413.55	2575.03	109.25
417.31	2581.52	109.53
421.07	2588.39	109.82
424.83	2596.19	110.15
428.59	2604.02	110.48
432.35	2614.88	110.94
436.11	2624.67	111.36
439.87	2635.67	111.82
443.63	2645.85	112.26
447.39	2656.2	112.69
451.15	2664.79	113.06
454.91	2677.59	113.6
458.67	2688.87	114.08
462.43	2703.69	114.71
466.19	2714.74	115.18
469.95	2725	115.61
473.71	2736.32	116.09

System: hexakis(3,5-dimethoxybenzoate)bis(1,10-phenanthroline)diholmium(III); phases: Crystal
Fixed: Pressure, kPa = 101.325
Property: Molar heat capacity at constant pressure, J/K/mol (Crystal); method: DSC
Temperature, K	Molar heat capacity at constant pressure, J/K/mol	uncertainty
263.15	1789.07	35.78
273.15	1846.32	36.93
283.15	1903.28	38.07
293.15	1967.58	39.35
303.15	2030.45	40.61
313.15	2084.3	41.7
323.15	2128.26	42.57
333.15	2167.28	43.35
343.15	2208.46	44.17
353.15	2257.29	45.15
363.15	2315.28	46.31
373.15	2379.39	47.59
383.15	2443.4	48.9
393.15	2500.27	50.01
403.15	2544.94	50.9
413.15	2576.36	51.53
423.15	2598.14	51.96
433.15	2617.18	52.34
443.15	2640.55	52.81
453.15	2671.44	53.43
463.15	2705.96	54.12
473.15	2733.9	54.7
