Measured thermophysical data. Thermochemistry of aqueous pyridine-3-carboxylic acid (nicotinic acid)
Source: J. Chem. Thermodyn., 2011, 10.1016/j.jct.2011.02.001
Compound 1: 3-carboxylpyridine, C6H5NO2, InChI=1S/C6H5NO2/c8-6(9)5-2-1-3-7-4-5/h1-4H,(H,8,9), purity 99.5%
Compound 2: water, H2O, InChI=1S/H2O/h1H2, purity 99.9%

System: 3-carboxylpyridine; phases: Crystal 2, Crystal 1, Air at 1 atmosphere
Property: Triple point temperature, K (Crystal 2); method: DTA
Triple point temperature, K	uncertainty
453.24	0.5

System: 3-carboxylpyridine; phases: Crystal 2, Crystal 1, Air at 1 atmosphere
Property: Molar enthalpy of transition or fusion, kJ/mol (Crystal 2); method: DSC
Molar enthalpy of transition or fusion, kJ/mol	uncertainty
1.03	0.13

System: 3-carboxylpyridine; phases: Crystal 1, Liquid, Air at 1 atmosphere
Property: Normal melting temperature, K (Crystal 1); method: DTA
Normal melting temperature, K	uncertainty
507.66	0.5

System: 3-carboxylpyridine; phases: Crystal 1, Liquid, Air at 1 atmosphere
Property: Molar enthalpy of transition or fusion, kJ/mol (Crystal 1); method: DSC
Molar enthalpy of transition or fusion, kJ/mol	uncertainty
27.56	0.79

System: 3-carboxylpyridine + water; phases: Liquid
Fixed: Temperature, K = 298.15
Fixed: Pressure, kPa = 101
Property: Molar enthalpy of solution, kJ/mol (Liquid); method: ISOPERIBOL
Molality, mol/kg of 3-carboxylpyridine	Molar enthalpy of solution, kJ/mol	uncertainty
0.003559	19.996	0.2
0.003563	19.972	0.1997
0.003625	19.892	0.1989
0.003781	19.906	0.1991
0.00421	19.871	0.1987

System: 3-carboxylpyridine + water; phases: Liquid
Fixed: Initial molality of solute, mol/kg = 0.1005
Fixed: Temperature, K = 298.15
Fixed: Pressure, kPa = 101.325
Property: Molar enthalpy of dilution, kJ/mol (Liquid); method: Flow calorimetry
Final molality of solute, mol/kg	Molar enthalpy of dilution, kJ/mol	uncertainty
0.03058	0.07688	0.00177
0.03422	0.07264	0.00173
0.0388	0.06558	0.00166
0.041	0.06298	0.00163
0.04439	0.06204	0.00162
0.0477	0.05834	0.00158
0.04994	0.05431	0.00154
0.05271	0.04749	0.00148
0.05552	0.05037	0.0015
0.05649	0.04727	0.00147
0.0589	0.04258	0.00143
0.06312	0.03967	0.0014
0.06882	0.03546	0.00135
0.07691	0.02858	0.00129
0.08918	0.01414	0.00114
0.08919	0.0164	0.00116
