Measured thermophysical data. Thermodynamic assessment of the LiF-NiF2, NaF-NiF2 and KF-NiF2 systems
Source: J. Chem. Thermodyn., 2018, 10.1016/j.jct.2018.01.023
Compound 1: nickel difluoride, F2Ni, InChI=1S/2FH.Ni/h2*1H;/q;;+2/p-2, purity 99%
Compound 2: lithium fluoride, FLi, InChI=1S/FH.Li/h1H;/q;+1/p-1, purity 99.99%
Compound 3: potassium fluoride, FK, InChI=1S/FH.K/h1H;/q;+1/p-1, purity 99.99%
Compound 4: lithium nickel fluoride (Li2NiF4), F4Li2Ni, InChI=1S/4FH.2Li.Ni/h4*1H;;;/q;;;;2*+1;+2/p-4
Compound 5: nickel potassium fluoride (KNiF3), F3KNi, InChI=1S/3FH.K.Ni/h3*1H;;/q;;;+1;+2/p-3

System: nickel difluoride; phases: Crystal, Liquid, Air at 1 atmosphere
Property: Normal melting temperature, K (Crystal); method: DTA
Normal melting temperature, K	uncertainty
1629	10

System: nickel difluoride; phases: Crystal
Property: Mass density, kg/m3 (Crystal); method: X-ray diffraction
Temperature, K	Pressure, kPa	Mass density, kg/m3	uncertainty
293	101.325	4808	24

System: lithium fluoride; phases: Crystal, Liquid, Air at 1 atmosphere
Property: Normal melting temperature, K (Crystal); method: DTA
Normal melting temperature, K	uncertainty
1118	10

System: lithium fluoride; phases: Crystal
Fixed: Pressure, kPa = 101.325
Property: Mass density, kg/m3 (Crystal); method: X-ray diffraction
Temperature, K	Mass density, kg/m3	uncertainty
293	2634	2
473	2576	12
573	2554	11
673	2522	12
773	2493	13
873	2455	12
973	2432	9

System: potassium fluoride; phases: Crystal, Liquid, Air at 1 atmosphere
Property: Normal melting temperature, K (Crystal); method: DTA
Normal melting temperature, K	uncertainty
1129	10

System: potassium fluoride; phases: Crystal
Property: Mass density, kg/m3 (Crystal); method: X-ray diffraction
Temperature, K	Pressure, kPa	Mass density, kg/m3	uncertainty
293	101.325	2530	12

System: lithium nickel fluoride (Li2NiF4); phases: Crystal
Fixed: Pressure, kPa = 101.325
Property: Mass density, kg/m3 (Crystal); method: X-ray diffraction
Temperature, K	Mass density, kg/m3	uncertainty
293	3467	85
473	3413	83
573	3399	82
673	3367	81
773	3329	80

System: nickel potassium fluoride (KNiF3); phases: Crystal, Liquid, Air at 1 atmosphere
Property: Normal melting temperature, K (Crystal); method: DTA
Normal melting temperature, K	uncertainty
1393	20

System: lithium fluoride + nickel difluoride; phases: Crystal of intercomponent compound 1, Crystal, Crystal, Air at 1 atmosphere
Property: Quadruple (quintuple) point temperature, K (Crystal of intercomponent compound 1); method: DSC
Quadruple (quintuple) point temperature, K	uncertainty
1032	20

System: lithium fluoride + nickel difluoride; phases: Crystal, Liquid
Fixed: Pressure, kPa = 105
Property: Solid-liquid equilibrium temperature, K (Crystal); method: DTA
Mole fraction of nickel difluoride	Solid-liquid equilibrium temperature, K	uncertainty
0.05	1114	20
0.1	1095	20
0.11	1095	20
0.2	1079	20

System: nickel difluoride + potassium fluoride; phases: Crystal, Crystal of intercomponent compound 2, Liquid, Air at 1 atmosphere
Property: Eutectic temperature, K (Crystal); method: DTA
Eutectic temperature, K	uncertainty
1053	20

System: nickel difluoride + potassium fluoride; phases: Crystal of intercomponent compound 2, Crystal of intercomponent compound 1, Liquid, Air at 1 atmosphere
Property: Peritectic temperature, K (Crystal of intercomponent compound 2); method: DTA
Peritectic temperature, K	uncertainty
1197	20

System: nickel difluoride + potassium fluoride; phases: Liquid, Crystal of intercomponent compound 1
Fixed: Pressure, kPa = 105
Property: Solid-liquid equilibrium temperature, K (Liquid); method: DTA
Mole fraction of nickel difluoride	Solid-liquid equilibrium temperature, K	uncertainty
0.33	1317	20
0.5	1393	20
