Measured thermophysical data. Possible precursors and products of deep hydrodesulfurization of gasoline and distillate fuels III. The thermodynamic properties of 1,2,3,4-tetrahydrodibenzothiophene
Source: J. Chem. Thermodyn., 2004, 10.1016/j.jct.2003.12.012
Compound 1: sulfuric acid, H2O4S, InChI=1S/H2O4S/c1-5(2,3)4/h(H2,1,2,3,4)
Compound 2: carbon dioxide, CO2, InChI=1S/CO2/c2-1-3
Compound 3: water, H2O, InChI=1S/H2O/h1H2
Compound 4: oxygen, O2, InChI=1S/O2/c1-2
Compound 5: 1,2,3,4-tetrahydrodibenzothiophene, C12H12S, InChI=1S/C12H12S/c1-3-7-11-9(5-1)10-6-2-4-8-12(10)13-11/h1,3,5,7H,2,4,6,8H2

System: 1,2,3,4-tetrahydrodibenzothiophene; phases: Crystal, Liquid, Gas
Property: Molar enthalpy of transition or fusion, kJ/mol (Crystal); method: Adiabatic calorimetry
Molar enthalpy of transition or fusion, kJ/mol	uncertainty
14.009	0.017

System: 1,2,3,4-tetrahydrodibenzothiophene; phases: Crystal, Liquid, Gas
Property: Triple point temperature, K (Crystal); method: Adiabatic calorimetry
Triple point temperature, K	uncertainty
275.03	0.05

System: 1,2,3,4-tetrahydrodibenzothiophene; phases: Crystal, Gas
Property: Molar heat capacity at saturation pressure, J/K/mol (Crystal); method: Vacuum adiabatic calorimetry
Temperature, K	Molar heat capacity at saturation pressure, J/K/mol	uncertainty
4.929	0.32	0.02
5.867	0.56	0.02
6.798	0.931	0.02
7.734	1.41	0.02
8.759	2.08	0.03
9.819	2.94	0.04
10.94	3.96	0.04
12.199	5.23	0.05
13.6	6.8	0.06
15.138	8.647	0.07
16.828	10.74	0.083
18.666	13.06	0.091
20.682	15.6	0.1
22.911	18.38	0.108
25.396	21.41	0.108
28.17	24.67	0.108
31.262	28.16	0.1
34.706	31.86	0.108
38.534	35.74	0.116
42.793	39.83	0.125
47.544	44.15	0.133
52.852	48.69	0.141
58.733	53.4	0.15
59.802	54.26	0.15
65.164	58.28	0.158
65.328	58.42	0.158
71.557	63.02	0.166
78.459	67.87	0.175
85.749	72.84	0.183
90.985	76.33	0.274
93.886	78.25	0.283
99.301	81.84	0.283
108.292	87.718	0.291
117.93	93.987	0.291
127.795	100.49	0.299
138.757	107.84	0.308
150.732	116.11	0.316
162.764	124.52	0.324
174.795	133.17	0.333
186.818	141.95	0.341
198.838	151.12	0.349
199.701	151.8	0.349
210.841	160.54	0.358
212.284	161.67	0.366
222.84	170.12	0.374
225.756	172.63	0.374
232.143	177.99	0.382
234.83	180.25	0.382
238.71	183.61	0.382
247.471	192.11	0.391
249.42	193.97	0.391
251.316	196.13	0.399
262.172	216.81	0.424
263.643	221.51	0.424
263.71	222.9	0.432

System: 1,2,3,4-tetrahydrodibenzothiophene; phases: Liquid, Gas
Property: Molar heat capacity at saturation pressure, J/K/mol (Liquid); method: Vacuum adiabatic calorimetry
Temperature, K	Molar heat capacity at saturation pressure, J/K/mol	uncertainty
282.321	260.24	0.457
283.783	260.98	0.457
287.635	262.81	0.466
291.459	264.72	0.466
300.54	269.29	0.466
301.104	269.61	0.466
315.407	277.04	0.474
330.789	285.2	0.482
343.22	291.9	0.491
359.691	300.83	0.499
376.044	309.7	0.507
392.005	318.35	0.515
408.308	327.12	0.524
424.943	335.95	0.532
437.474	342.54	0.54

System: 1,2,3,4-tetrahydrodibenzothiophene; phases: Crystal, Gas
Property: Molar heat capacity at saturation pressure, J/K/mol (Crystal); method: Vacuum adiabatic calorimetry
Temperature, K	Molar heat capacity at saturation pressure, J/K/mol	uncertainty
5	0.33	0.02
10	3.08	0.04
20	14.74	0.1
30	26.76	0.1
40	37.17	0.116
50	46.29	0.133
60	54.39	0.15
70	61.88	0.166
80	68.94	0.175
90	75.67	0.274
100	82.3	0.283
120	95.284	0.299
140	108.6	0.308
160	122.46	0.324
180	136.76	0.341
200	151.75	0.349
220	167.35	0.366
240	183.48	0.382
260	200.99	0.399
275.03	216.13	0.416

System: 1,2,3,4-tetrahydrodibenzothiophene; phases: Liquid, Gas
Property: Molar heat capacity at saturation pressure, J/K/mol (Liquid); method: Vacuum adiabatic calorimetry
Temperature, K	Molar heat capacity at saturation pressure, J/K/mol	uncertainty
275.03	256.66	0.457
280	259.07	0.457
298.15	268.09	0.466
300	269.02	0.466
320	279.47	0.482
340	290.16	0.491
360	301	0.499
380	311.85	0.515
400	322.67	0.524
420	333.33	0.532

System: 1,2,3,4-tetrahydrodibenzothiophene; phases: Liquid, Gas
Property: Molar heat capacity at saturation pressure, J/K/mol (Liquid); method: Small sample (50 mg) DSC
Temperature, K	Molar heat capacity at saturation pressure, J/K/mol	uncertainty
440	344.04	6.8844
460	355.38	7.1089
480	366.09	7.325
500	376.9	7.5412
520	387.66	7.7574
540	398.39	7.9653
560	409.11	8.1814
580	419.8	8.39762
600	430.43	8.60548

System: 1,2,3,4-tetrahydrodibenzothiophene; phases: Crystal
Fixed: Pressure, kPa = 101.325
Property: Molar enthalpy function {Hm(T)-Hm(0)}/T, J/K/mol (Crystal); method: Vacuum adiabatic calorimetry
Temperature, K	Molar enthalpy function {Hm(T)-Hm(0)}/T, J/K/mol	uncertainty
5	0.11	0.008
10	0.989	0.02
20	6.5	0.05
30	14.79	0.07
40	23.95	0.091
50	33.25	0.108
60	42.42	0.125
70	51.37	0.141
80	60.1	0.158
90	68.61	0.266
100	76.93	0.274
120	93.081	0.291
140	108.76	0.308
160	124.16	0.324
180	139.41	0.341
200	154.58	0.358
220	169.77	0.374
240	185.02	0.382
260	200.39	0.399
275.03	212.09	0.416

System: 1,2,3,4-tetrahydrodibenzothiophene; phases: Liquid
Fixed: Pressure, kPa = 101.325
Property: Molar enthalpy function {Hm(T)-Hm(0)}/T, J/K/mol (Liquid); method: Vacuum adiabatic calorimetry
Temperature, K	Molar enthalpy function {Hm(T)-Hm(0)}/T, J/K/mol	uncertainty
275.03	263.03	0.466
280	267.64	0.466
298.15	284.2	0.482
300	285.86	0.482
320	303.55	0.507
340	320.81	0.524
360	337.71	0.54
380	354.27	0.557
400	370.54	0.574
420	386.55	0.59

System: 1,2,3,4-tetrahydrodibenzothiophene; phases: Liquid, Gas
Property: Vapor or sublimation pressure, kPa (Liquid); method: Inclined piston gauge
Temperature, K	Vapor or sublimation pressure, kPa	uncertainty
359.977	0.0221	0.001
369.975	0.0414	0.0011
379.973	0.0746	0.0011
389.969	0.1296	0.0011
400.171	0.2209	0.0013
409.964	0.3567	0.0014
419.966	0.5674	0.0017
429.964	0.8785	0.002
439.962	1.3277	0.0026
449.96	1.9623	0.0033
454.963	2.3675	0.0039
459.961	2.842	0.0044

System: 1,2,3,4-tetrahydrodibenzothiophene; phases: Liquid, Gas
Property: Vapor or sublimation pressure, kPa (Liquid); method: Ebulliometric method (Recirculating still)
Temperature, K	Vapor or sublimation pressure, kPa	uncertainty
450.48	2.002	0.0104
469.6	3.9934	0.0107
478.251	5.3312	0.0113
491.016	8	0.012
500.604	10.6699	0.0131
508.293	13.319	0.014
516.356	16.66	0.016
523.048	19.938	0.017
531.824	25.025	0.019
540.666	31.18	0.022
549.55	38.563	0.026
558.487	47.378	0.03
567.472	57.802	0.034
576.476	70.089	0.04
585.544	84.495	0.046
594.672	101.286	0.054
603.844	120.72	0.06

System: 1,2,3,4-tetrahydrodibenzothiophene; phases: Crystal
Fixed: Pressure, kPa = 101.325
Property: Molar entropy, J/K/mol (Crystal); method: Vacuum adiabatic calorimetry
Temperature, K	Molar entropy, J/K/mol	uncertainty
5	0.083	0.02
10	0.75	0.02
20	4.69	0.06
30	10.08	0.091
40	15.58	0.108
50	20.84	0.125
60	25.76	0.141
70	30.39	0.15
80	34.77	0.166
90	38.95	0.358
100	42.95	0.366
120	50.59	0.374
140	57.92	0.391
160	65.12	0.399
180	72.28	0.407
200	79.47	0.416
220	86.745	0.432
240	94.128	0.441
260	101.66	0.449
275.03	107.5	0.457

System: 1,2,3,4-tetrahydrodibenzothiophene; phases: Liquid
Fixed: Pressure, kPa = 101.325
Property: Molar entropy, J/K/mol (Liquid); method: Vacuum adiabatic calorimetry
Temperature, K	Molar entropy, J/K/mol	uncertainty
275.03	158.43	0.54
280	160.19	0.54
298.15	166.49	0.549
300	167.12	0.549
320	173.81	0.557
340	180.34	0.574
360	186.74	0.582
380	193.04	0.59
400	199.25	0.599
420	205.38	0.607

System: 1,2,3,4-tetrahydrodibenzothiophene; phases: Liquid, Gas
Property: Mass density, kg/m3 (Liquid); method: Vibrating tube method
Temperature, K	Mass density, kg/m3	uncertainty
323.14	1125.7	3.4
348.13	1105.2	3.3
373.12	1086	3.3
393.12	1065.2	3.2
423.11	1046.8	3.1
448.11	1028.1	3.1

Reaction: 1 sulfuric acid + -1 1,2,3,4-tetrahydrodibenzothiophene + 12 carbon dioxide + 5 water + -16.5 oxygen
Property: Specific internal energy of reaction at constant volume, J/g
-37465.2
