Measured thermophysical data. Experimental and computational energetic study of two halogenated 2-acetylpyrrole derivatives: 2-trichloroacetylpyrrole and 2-trifluoroacetylpyrrole
Source: J. Chem. Thermodyn., 2010, 10.1016/j.jct.2010.04.001
Compound 1: hydrogen chloride, ClH, InChI=1S/ClH/h1H
Compound 2: carbon dioxide, CO2, InChI=1S/CO2/c2-1-3
Compound 3: nitrogen, N2, InChI=1S/N2/c1-2
Compound 4: water, H2O, InChI=1S/H2O/h1H2
Compound 5: oxygen, O2, InChI=1S/O2/c1-2
Compound 6: hydrogen fluoride, FH, InChI=1S/FH/h1H
Compound 7: 2-trichloroacetyl-1H-pyrrole, C6H4Cl3NO, InChI=1S/C6H4Cl3NO/c7-6(8,9)5(11)4-2-1-3-10-4/h1-3,10H, purity 99%
Compound 8: 2-trifluoroacetylpyrrole, C6H4F3NO, InChI=1S/C6H4F3NO/c7-6(8,9)5(11)4-2-1-3-10-4/h1-3,10H, purity 99%

System: 2-trichloroacetyl-1H-pyrrole; phases: Crystal, Gas
Property: Molar enthalpy of transition or fusion, kJ/mol (Crystal); method: Derived by Second law
Temperature, K	Molar enthalpy of transition or fusion, kJ/mol	uncertainty
306.16	90	0.6

System: 2-trichloroacetyl-1H-pyrrole; phases: Crystal, Gas
Property: Vapor or sublimation pressure, kPa (Crystal); method: Calculated from knudsen effusion weight loss
Temperature, K	Vapor or sublimation pressure, kPa	uncertainty
295.12	0.000103	5e-06
295.12	9.92e-05	5e-06
295.12	0.000101	5e-06
297.17	0.000132	7e-06
297.17	0.000129	6e-06
297.17	0.000129	6e-06
299.22	0.000169	8e-06
299.22	0.000165	8e-06
299.22	0.000162	8e-06
301.14	0.000218	1.1e-05
301.14	0.000213	1.1e-05
301.14	0.000213	1.1e-05
303.23	0.000274	1.4e-05
303.23	0.000272	1.4e-05
303.23	0.000268	1.3e-05
305.2	0.000344	1.7e-05
305.2	0.000336	1.7e-05
305.2	0.000335	1.7e-05
307.1	0.000434	2.2e-05
307.1	0.00043	2.2e-05
307.1	0.000424	2.1e-05
309.13	0.000539	2.7e-05
309.13	0.000531	2.7e-05
309.13	0.000527	2.6e-05
311.21	0.000674	3.4e-05
311.21	0.000661	3.3e-05
311.21	0.000652	3.3e-05
313.11	0.000861	4.3e-05
313.11	0.000843	4.2e-05
313.11	0.000837	4.2e-05
315.16	0.00106	0.000107
315.16	0.001043	0.000105
315.16	0.001028	0.000103
317.2	0.001327	0.000141
317.2	0.001289	0.000136
317.2	0.00127	0.000134

System: 2-trifluoroacetylpyrrole; phases: Crystal, Gas
Property: Molar enthalpy of transition or fusion, kJ/mol (Crystal); method: Derived by Second law
Temperature, K	Molar enthalpy of transition or fusion, kJ/mol	uncertainty
267.16	74.3	2.2

System: 2-trifluoroacetylpyrrole; phases: Crystal, Gas
Property: Vapor or sublimation pressure, kPa (Crystal); method: Calculated from knudsen effusion weight loss
Temperature, K	Vapor or sublimation pressure, kPa	uncertainty
263.19	0.000433	2.2e-05
263.19	0.000414	2.1e-05
263.19	0.000406	2e-05
264.14	0.00048	2.4e-05
264.14	0.000469	2.3e-05
264.14	0.00048	2.4e-05
265.11	0.000533	2.7e-05
265.11	0.000531	2.7e-05
266.12	0.00064	3.2e-05
266.12	0.000623	3.1e-05
266.12	0.000597	3e-05
267.12	0.000716	3.6e-05
267.12	0.00069	3.5e-05
267.12	0.00067	3.4e-05
268.12	0.000809	4.1e-05
268.12	0.000796	4e-05
268.12	0.000771	3.9e-05
269.11	0.0009	4.5e-05
269.11	0.000894	4.5e-05
269.11	0.000866	4.3e-05
270.11	0.001022	0.000103
270.11	0.000993	5e-05
271.13	0.001147	0.000118
271.13	0.00113	0.000116
271.13	0.001101	0.000112

Reaction: 3 hydrogen chloride + -1 2-trichloroacetyl-1H-pyrrole + 6 carbon dioxide + .5 nitrogen + .5 water + -5.75 oxygen
Property: Specific internal energy of reaction at constant volume, J/g
-13238.4

Reaction: -1 2-trifluoroacetylpyrrole + 3 hydrogen fluoride + 6 carbon dioxide + .5 nitrogen + .5 water + -5.75 oxygen
Property: Specific internal energy of reaction at constant volume, J/g
-16520.7
