Measured thermophysical data. Thermodynamic properties of methylprednisolone aceponate
Source: J. Chem. Thermodyn., 2016, 10.1016/j.jct.2016.08.022
Compound 1: carbon dioxide, CO2, InChI=1S/CO2/c2-1-3
Compound 2: water, H2O, InChI=1S/H2O/h1H2
Compound 3: oxygen, O2, InChI=1S/O2/c1-2
Compound 4: Methylprednisolone aceponate, C27H36O7, InChI=1S/C27H36O7/c1-6-23(32)34-27(22(31)14-33-16(3)28)10-8-19-18-11-15(2)20-12-17(29)7-9-25(20,4)24(18)21(30)13-26(19,27)5/h7,9,12,15,18-19,21,24,30H,6,8,10-11,13-14H2,1-5H3/t15-,18-,19-,21-,24+,25-,26-,27-/m0/s1, purity 99.9%

System: Methylprednisolone aceponate; phases: Crystal 2, Crystal 1, Gas
Property: Triple point temperature, K (Crystal 2); method: Adiabatic calorimetry
Triple point temperature, K	uncertainty
131	0.2

System: Methylprednisolone aceponate; phases: Crystal 2, Crystal 1, Gas
Property: Molar enthalpy of transition or fusion, kJ/mol (Crystal 2); method: Adiabatic calorimetry
Molar enthalpy of transition or fusion, kJ/mol	uncertainty
0.22	0.006

System: Methylprednisolone aceponate; phases: Crystal 2
Fixed: Pressure, kPa = 101.325
Property: Molar heat capacity at constant pressure, J/K/mol (Crystal 2); method: Small (less than 1 g) adiabatic calorimetry
Temperature, K	Molar heat capacity at constant pressure, J/K/mol	uncertainty
5	1.87	0.091
10	11	0.46
15	21.09	0.87
20	33.51	1.37
25	47.69	0.6
30	61.69	0.68
40	89.06	0.97
50	115	0.7
60	142.6	0.8
70	167.5	0.9
80	193.1	1.1
90	218.2	1.2
100	241.2	1.3
110	264.5	1.4
120	286.4	1.5
130	309.4	1.6

System: Methylprednisolone aceponate; phases: Crystal 2
Fixed: Pressure, kPa = 101.325
Property: Molar enthalpy, kJ/mol (Crystal 2); method: Small (less than 1 g) adiabatic calorimetry
Temperature, K	Molar enthalpy, kJ/mol	uncertainty
5	0.00235	0.00018
10	0.0325	0.0014
15	0.1126	0.0047
20	0.2479	0.0102
25	0.4506	0.0058
30	0.7243	0.0087
40	1.477	0.017
50	2.498	0.016
60	3.787	0.023
70	5.339	0.032
80	7.141	0.042
90	9.2	0.054
100	11.5	0.07
110	14.03	0.08
120	16.78	0.09
130	19.76	0.11

System: Methylprednisolone aceponate; phases: Crystal 2
Fixed: Pressure, kPa = 101.325
Property: Molar entropy, J/K/mol (Crystal 2); method: Small (less than 1 g) adiabatic calorimetry
Temperature, K	Molar entropy, J/K/mol	uncertainty
5	0.628	0.052
10	4.44	0.284
15	10.8	0.67
20	18.5	1.14
25	27.49	0.52
30	37.43	0.64
40	58.9	0.98
50	81.57	0.73
60	105	0.9
70	128.9	1.1
80	152.9	1.3
90	177.1	1.4
100	201.3	1.6
110	225.4	1.8
120	249.3	2
130	273.2	2.1

System: Methylprednisolone aceponate; phases: Crystal 1
Fixed: Pressure, kPa = 101.325
Property: Molar heat capacity at constant pressure, J/K/mol (Crystal 1); method: Small (less than 1 g) adiabatic calorimetry
Temperature, K	Molar heat capacity at constant pressure, J/K/mol	uncertainty
140	315.4	1.6
150	333	1.7
160	351	1.8
170	368.7	1.9
180	386.3	2
190	404	2.1
200	421.8	2.2
210	439.9	2.2
220	458.2	2.3
230	476.5	2.4
240	494.9	2.5
250	513.6	2.6
260	532.3	2.7
270	550.2	2.8
280	568.6	2.9
290	588.2	3
298.15	604.8	3
300	608.6	3.1
310	628.6	3.2
320	647.5	3.3
330	666.6	3.4
340	691.3	3.5
346	713.9	3.6

System: Methylprednisolone aceponate; phases: Crystal 1
Fixed: Pressure, kPa = 101.325
Property: Molar enthalpy, kJ/mol (Crystal 1); method: Small (less than 1 g) adiabatic calorimetry
Temperature, K	Molar enthalpy, kJ/mol	uncertainty
140	22.87	0.12
150	26.12	0.14
160	29.54	0.16
170	33.13	0.18
180	36.91	0.2
190	40.86	0.22
200	44.99	0.24
210	49.3	0.26
220	53.79	0.28
230	58.46	0.31
240	63.32	0.33
250	68.36	0.36
260	73.59	0.38
270	79	0.41
280	84.6	0.44
290	90.38	0.47
298.15	95.24	0.49
300	96.36	0.5
310	102.5	0.5
320	108.9	0.6
330	115.5	0.6
340	122.3	0.6
346	126.5	0.7

System: Methylprednisolone aceponate; phases: Crystal 1
Fixed: Pressure, kPa = 101.325
Property: Molar entropy, J/K/mol (Crystal 1); method: Small (less than 1 g) adiabatic calorimetry
Temperature, K	Molar entropy, J/K/mol	uncertainty
140	296.3	2.3
150	318.6	2.5
160	340.7	2.6
170	362.5	2.8
180	384.1	3
190	405.4	3.1
200	426.6	3.3
210	447.6	3.4
220	468.5	3.6
230	489.3	3.7
240	509.9	3.9
250	530.5	4
260	551	4.2
270	571.5	4.3
280	591.8	4.5
290	612.1	4.6
298.15	628.6	4.7
300	632.4	4.8
310	652.6	4.9
320	672.9	5.1
330	693.1	5.2
340	713.4	5.4
346	725.6	5.5

System: Methylprednisolone aceponate; phases: Crystal 2
Fixed: Pressure, kPa = 101.325
Property: Molar heat capacity at constant pressure, J/K/mol (Crystal 2); method: Small (less than 1 g) adiabatic calorimetry
Temperature, K	Molar heat capacity at constant pressure, J/K/mol	uncertainty
7.53	6.019	0.258
7.84	6.56	0.281
8.09	7.014	0.299
8.41	7.67	0.327
8.68	8.278	0.352
9	8.893	0.377
9.32	9.535	0.403
9.64	10.2	0.43
9.98	10.97	0.46
10.31	11.76	0.49
10.64	12.47	0.52
10.99	13.1	0.55
11.33	13.78	0.58
11.69	14.32	0.6
12.05	15.03	0.63
12.88	16.64	0.69
14.18	19.38	0.8
15.44	22.08	0.91
16.83	25.33	1.05
18.19	28.78	1.18
19.58	32.36	1.33
22.18	39.37	0.51
25.63	49.56	0.61
29.09	59.46	0.7
32.6	68.53	0.76
36.13	78.23	0.86
39.68	88.41	0.97
43.24	97.8	0.57
46.82	106.2	0.6
50.41	116.3	0.7
54	126.6	0.7
57.6	136	0.8
61.21	145.2	0.8
64.82	155	0.9
68.42	163.9	0.9
72.02	173	1
75.66	181.2	1
79.32	190.9	1.1
82.95	200.9	1.1
86.58	209.8	1.2
82.52	200.1	1.1
85.14	206.2	1.2
87.56	212.6	1.2
89.97	218.2	1.2
92.39	223.5	1.2
94.8	229	1.2
97.21	234.8	1.2
99.62	240.5	1.3
102.02	245.8	1.3
104.42	251.6	1.3
106.93	257.8	1.4
109.22	263	1.4
111.62	268.1	1.4
114.02	273.7	1.4
116.42	278.5	1.5
118.81	283.7	1.5
121.2	288.9	1.5
123.59	295.1	1.5
125.98	300	1.6
128.36	306	1.6
130.74	310.7	1.6
97.3	235.6	1.2
100.7	243.6	1.3
104.08	251	1.3
107.83	258.9	1.4
109.71	263.2	1.4
112.99	270.3	1.4
116	277	1.4
119.02	283.2	1.5
122.04	290.1	1.5
125.06	297.7	1.5
128.08	305.6	1.6

System: Methylprednisolone aceponate; phases: Crystal 1
Fixed: Pressure, kPa = 101.325
Property: Molar heat capacity at constant pressure, J/K/mol (Crystal 1); method: Small (less than 1 g) adiabatic calorimetry
Temperature, K	Molar heat capacity at constant pressure, J/K/mol	uncertainty
133.12	311.6	1.6
135.5	309.5	1.6
137.88	312.2	1.6
140.25	315.6	1.6
142.62	319.4	1.7
144.98	324.5	1.7
147.34	328.3	1.7
149.69	333.1	1.7
152.05	336.9	1.7
154.41	341	1.8
156.76	344	1.8
159.09	348.8	1.8
161.43	353.5	1.8
163.77	357.7	1.8
166.12	361.8	1.9
168.46	366.9	1.9
170.8	371.1	1.9
173.13	375	1.9
175.46	378.6	1.9
177.8	381	2
180.1	385.2	2
182.38	390.4	2
184.68	394.6	2
186.99	398.4	2
189.31	403.5	2.1
191.61	407.4	2.1
193.93	410.9	2.1
196.2	415.5	2.1
198.49	418.9	2.1
200.78	422.8	2.2
203.07	427.7	2.2
205.36	432.9	2.2
207.65	435.8	2.2
209.94	439.7	2.2
212.24	444.3	2.3
214.54	448.4	2.3
217	451.2	2.3
219.13	456	2.3
221.43	460.8	2.3
223.73	465.6	2.4
226.03	469.3	2.4
228.32	473.5	2.4
230.63	477.8	2.4
232.91	481.1	2.4
235.22	485.8	2.5
237.52	490.6	2.5
239.83	495.3	2.5
242.15	498.7	2.5
244.46	503.6	2.6
246.77	507.1	2.6
249.09	511.5	2.6
251.4	516.4	2.6
253.72	521	2.6
256.03	524.6	2.7
258.35	529.7	2.7
260.9	534.6	2.7
262.99	536.3	2.7
265.31	542.1	2.7
267.63	546.6	2.8
269.94	551.7	2.8
271.74	553.4	2.8
274.21	556.6	2.8
276.54	562	2.8
278.86	565.7	2.9
281.15	570.9	2.9
283.4	575.9	2.9
285.69	580.8	2.9
287.93	584.1	2.9
290.2	587.9	3
292.47	592.6	3
294.75	598.5	3
297.02	602.8	3
299.28	607.2	3.1
301.54	611.3	3.1
303.8	617.2	3.1
306.05	621.4	3.1
308.26	624.1	3.1
310.51	629.5	3.2
312.76	633	3.2
315.01	636.6	3.2
317.25	644.1	3.2
319.5	647.2	3.3
321.75	651.6	3.3
324	655.2	3.3
326.24	660	3.3
328.49	664.4	3.3
330.74	670	3.4
332.99	672.4	3.4
335.24	679.6	3.4
337.49	684.3	3.4
339.74	691.4	3.5
341.99	697.1	3.5
131.09	312.1	1.6
134.11	310	1.6
137.13	310.6	1.6
140.15	315.8	1.6
143.15	320.6	1.7
146.15	326.3	1.7
149.14	331.8	1.7
152.14	336.7	1.7
155.13	342	1.8
158.09	347.4	1.8
161.07	352.5	1.8
164.05	358.2	1.8
167.01	363.8	1.9
169.98	368.9	1.9
172.94	373.7	1.9
175.89	379.5	1.9
178.84	383.9	2
181.78	389.3	2
184.72	394.9	2
187.66	399.4	2
190.59	405.5	2.1
193.51	410.5	2.1
196.43	414.4	2.1
199.33	420.1	2.1
202.47	425.8	2.2
205.78	432.4	2.2
209.13	438	2.2
212.49	444.8	2.3
215.85	450.6	2.3
219.21	456.5	2.3
222.56	463.6	2.4
255.92	524.6	2.7
259.52	530.8	2.7
262.9	537.3	2.7
266.27	542.9	2.7
269.63	548.4	2.8
272.99	555.5	2.8
276.35	562.2	2.8
279.7	568.4	2.9
283.05	574.7	2.9
286.39	581.4	2.9
289.74	587.6	3
293.07	594.1	3
296.41	600.8	3
299.74	606.1	3.1
303.07	615.7	3.1
306.4	622.2	3.1
309.65	627.8	3.2
312.99	634.1	3.2
316.33	639.9	3.2
319.67	646.8	3.3
323.01	652.2	3.3
326.36	659.5	3.3
329.71	665.6	3.3
333.06	673.1	3.4
336.41	679.8	3.4
339.75	688.9	3.5
343.1	701.5	3.5
346.44	717.2	3.6

Reaction: -1 Methylprednisolone aceponate + 27 carbon dioxide + 18 water + -32.5 oxygen
Property: Specific internal energy of reaction at constant volume, J/g
-30240.7
