Measured thermophysical data. Thermodynamic study of (heptane + amine) mixtures. II. Excess and partial molar volumes at 298.15 K
Source: J. Chem. Thermodyn., 2011, 10.1016/j.jct.2010.12.025
Compound 1: heptane, C7H16, InChI=1S/C7H16/c1-3-5-7-6-4-2/h3-7H2,1-2H3, purity 99.5%
Compound 2: propan-1-amine, C3H9N, InChI=1S/C3H9N/c1-2-3-4/h2-4H2,1H3, purity 99%
Compound 3: 2-propanamine, C3H9N, InChI=1S/C3H9N/c1-3(2)4/h3H,4H2,1-2H3, purity 99.5%
Compound 4: 1-butanamine, C4H11N, InChI=1S/C4H11N/c1-2-3-4-5/h2-5H2,1H3, purity 99%
Compound 5: 2-methyl-1-propanamine, C4H11N, InChI=1S/C4H11N/c1-4(2)3-5/h4H,3,5H2,1-2H3, purity 99%
Compound 6: 2-butanamine, C4H11N, InChI=1S/C4H11N/c1-3-4(2)5/h4H,3,5H2,1-2H3, purity 99%
Compound 7: 2-methyl-2-propanamine, C4H11N, InChI=1S/C4H11N/c1-4(2,3)5/h5H2,1-3H3, purity 99.5%
Compound 8: 1-pentanamine, C5H13N, InChI=1S/C5H13N/c1-2-3-4-5-6/h2-6H2,1H3, purity 99%
Compound 9: 3-methyl-1-butanamine, C5H13N, InChI=1S/C5H13N/c1-5(2)3-4-6/h5H,3-4,6H2,1-2H3, purity 99%
Compound 10: 1-ethylpropylamine, C5H13N, InChI=1S/C5H13N/c1-3-5(6)4-2/h5H,3-4,6H2,1-2H3, purity 97%
Compound 11: 1,1-dimethylpropylamine, C5H13N, InChI=1S/C5H13N/c1-4-5(2,3)6/h4,6H2,1-3H3, purity 98%
Compound 12: 1-hexanamine, C6H15N, InChI=1S/C6H15N/c1-2-3-4-5-6-7/h2-7H2,1H3, purity 99%
Compound 13: 1-heptanamine, C7H17N, InChI=1S/C7H17N/c1-2-3-4-5-6-7-8/h2-8H2,1H3, purity 99%
Compound 14: 1-octanamine, C8H19N, InChI=1S/C8H19N/c1-2-3-4-5-6-7-8-9/h2-9H2,1H3, purity 99%
Compound 15: 1-aminononane, C9H21N, InChI=1S/C9H21N/c1-2-3-4-5-6-7-8-9-10/h2-10H2,1H3, purity 98%
Compound 16: 1-decanamine, C10H23N, InChI=1S/C10H23N/c1-2-3-4-5-6-7-8-9-10-11/h2-11H2,1H3, purity 98%
Compound 17: 1-dodecanamine, C12H27N, InChI=1S/C12H27N/c1-2-3-4-5-6-7-8-9-10-11-12-13/h2-13H2,1H3, purity 98%
Compound 18: 1-tetradecanamine, C14H31N, InChI=1S/C14H31N/c1-2-3-4-5-6-7-8-9-10-11-12-13-14-15/h2-15H2,1H3, purity 99%

System: heptane; phases: Liquid
Property: Molar volume, m3/mol (Liquid); method: Vibrating tube method
Temperature, K	Pressure, kPa	Molar volume, m3/mol	uncertainty
298.15	101.325	0.00014746	1.1e-07

System: propan-1-amine; phases: Liquid
Property: Molar volume, m3/mol (Liquid); method: Vibrating tube method
Temperature, K	Pressure, kPa	Molar volume, m3/mol	uncertainty
298.15	101.325	8.315e-05	1e-07

System: 2-propanamine; phases: Liquid
Property: Molar volume, m3/mol (Liquid); method: Vibrating tube method
Temperature, K	Pressure, kPa	Molar volume, m3/mol	uncertainty
298.15	101.325	8.672e-05	1e-07

System: 1-butanamine; phases: Liquid
Property: Molar volume, m3/mol (Liquid); method: Vibrating tube method
Temperature, K	Pressure, kPa	Molar volume, m3/mol	uncertainty
298.15	101.325	9.987e-05	1e-07

System: 2-methyl-1-propanamine; phases: Liquid
Property: Molar volume, m3/mol (Liquid); method: Vibrating tube method
Temperature, K	Pressure, kPa	Molar volume, m3/mol	uncertainty
298.15	101.325	0.00010095	1e-07

System: 2-butanamine; phases: Liquid
Property: Molar volume, m3/mol (Liquid); method: Vibrating tube method
Temperature, K	Pressure, kPa	Molar volume, m3/mol	uncertainty
298.15	101.325	0.00010191	1.1e-07

System: 2-methyl-2-propanamine; phases: Liquid
Property: Molar volume, m3/mol (Liquid); method: Vibrating tube method
Temperature, K	Pressure, kPa	Molar volume, m3/mol	uncertainty
298.15	101.325	0.00010652	1e-07

System: 1-pentanamine; phases: Liquid
Property: Molar volume, m3/mol (Liquid); method: Vibrating tube method
Temperature, K	Pressure, kPa	Molar volume, m3/mol	uncertainty
298.15	101.325	0.00011629	1.1e-07

System: 3-methyl-1-butanamine; phases: Liquid
Property: Molar volume, m3/mol (Liquid); method: Vibrating tube method
Temperature, K	Pressure, kPa	Molar volume, m3/mol	uncertainty
298.15	101.325	0.00011701	1.1e-07

System: 1-ethylpropylamine; phases: Liquid
Property: Molar volume, m3/mol (Liquid); method: Vibrating tube method
Temperature, K	Pressure, kPa	Molar volume, m3/mol	uncertainty
298.15	101.325	0.00011722	2.4e-07

System: 1,1-dimethylpropylamine; phases: Liquid
Property: Molar volume, m3/mol (Liquid); method: Vibrating tube method
Temperature, K	Pressure, kPa	Molar volume, m3/mol	uncertainty
298.15	101.325	0.00011925	1.3e-07

System: 1-hexanamine; phases: Liquid
Property: Molar volume, m3/mol (Liquid); method: Vibrating tube method
Temperature, K	Pressure, kPa	Molar volume, m3/mol	uncertainty
298.15	101.325	0.00013306	1.1e-07

System: 1-heptanamine; phases: Liquid
Property: Molar volume, m3/mol (Liquid); method: Vibrating tube method
Temperature, K	Pressure, kPa	Molar volume, m3/mol	uncertainty
298.15	101.325	0.00014962	1.1e-07

System: 1-octanamine; phases: Liquid
Property: Molar volume, m3/mol (Liquid); method: Vibrating tube method
Temperature, K	Pressure, kPa	Molar volume, m3/mol	uncertainty
298.15	101.325	0.00016616	1.1e-07

System: 1-aminononane; phases: Liquid
Property: Molar volume, m3/mol (Liquid); method: Vibrating tube method
Temperature, K	Pressure, kPa	Molar volume, m3/mol	uncertainty
298.15	101.325	0.00018287	1.8e-07

System: 1-decanamine; phases: Liquid
Property: Molar volume, m3/mol (Liquid); method: Vibrating tube method
Temperature, K	Pressure, kPa	Molar volume, m3/mol	uncertainty
298.15	101.325	0.000199	2e-07

System: 1-dodecanamine; phases: Liquid
Property: Molar volume, m3/mol (Liquid); method: Vibrating tube method
Temperature, K	Pressure, kPa	Molar volume, m3/mol	uncertainty
298.15	101.325	0.0002323	2e-07

System: 1-tetradecanamine; phases: Liquid
Property: Molar volume, m3/mol (Liquid); method: Vibrating tube method
Temperature, K	Pressure, kPa	Molar volume, m3/mol	uncertainty
298.15	101.325	0.0002655	1e-07

System: 1-dodecanamine + heptane; phases: Liquid
Fixed: Temperature, K = 298.15
Fixed: Pressure, kPa = 101
Property: Excess molar volume, m3/mol (Liquid); method: Calculated with densities of this investigation
Mole fraction of heptane	Excess molar volume, m3/mol	uncertainty
0.9488	-4.7e-08	1.2e-08
0.9666	-3.7e-08	1.2e-08
0.9722	-2.5e-08	1.2e-08
0.9753	-2.9e-08	1.2e-08
0.9802	-2.4e-08	1.3e-08
0.9811	-2e-08	1.2e-08
0.9826	-2e-08	1.2e-08
0.9906	-9e-09	1.2e-08
0.9924	-1e-08	1.2e-08
0.9942	-6e-09	1.2e-08
0.9972	-2e-09	1.2e-08

System: heptane + 1-tetradecanamine; phases: Liquid
Fixed: Temperature, K = 298.15
Fixed: Pressure, kPa = 101
Property: Excess molar volume, m3/mol (Liquid); method: Calculated with densities of this investigation
Mole fraction of heptane	Excess molar volume, m3/mol	uncertainty
0.9155	-1.63e-07	1.3e-08
0.9515	-9.1e-08	1.2e-08
0.9551	-8.9e-08	1.2e-08
0.9564	-7.7e-08	1.4e-08
0.9901	-2.2e-08	1.2e-08
0.9943	-1.1e-08	1.2e-08
0.9943	-9e-09	1.2e-08
0.9975	-5e-09	1.2e-08

System: propan-1-amine + heptane; phases: Liquid
Fixed: Pressure, kPa = 101
Fixed: Temperature, K = 298.15
Property: Excess molar volume, m3/mol (Liquid); method: Calculated with densities of this investigation
Mole fraction of heptane	Excess molar volume, m3/mol	uncertainty
0.0381	1.26e-07	1.3e-08
0.0917	3.02e-07	1.3e-08
0.1923	5.69e-07	1.3e-08
0.2931	7.68e-07	1.3e-08
0.3942	9.01e-07	1.3e-08
0.4005	9.07e-07	1.3e-08
0.4867	9.68e-07	1.4e-08
0.4901	9.68e-07	1.4e-08
0.4946	9.65e-07	1.4e-08
0.4963	9.69e-07	1.4e-08
0.5793	9.68e-07	1.4e-08
0.5866	9.65e-07	1.4e-08
0.5963	9.56e-07	1.4e-08
0.7057	8.59e-07	1.3e-08
0.7181	8.44e-07	1.3e-08
0.7991	6.93e-07	1.3e-08
0.8008	6.89e-07	1.3e-08
0.8986	4.11e-07	1.3e-08
0.9006	4.03e-07	1.3e-08
0.9475	2.25e-07	1.3e-08
0.9482	2.23e-07	1.3e-08
0.9645	1.56e-07	1.3e-08
0.9817	8.2e-08	1.3e-08
0.9905	4.2e-08	1.3e-08

System: 2-propanamine + heptane; phases: Liquid
Fixed: Pressure, kPa = 101
Fixed: Temperature, K = 298.15
Property: Excess molar volume, m3/mol (Liquid); method: Calculated with densities of this investigation
Mole fraction of heptane	Excess molar volume, m3/mol	uncertainty
0.0547	2.34e-07	1.3e-08
0.057	2.43e-07	1.3e-08
0.1028	4.13e-07	1.3e-08
0.1516	5.7e-07	1.3e-08
0.1935	6.9e-07	1.3e-08
0.2595	8.45e-07	1.3e-08
0.2939	9.11e-07	1.3e-08
0.3843	1.038e-06	1.4e-08
0.4082	1.061e-06	1.4e-08
0.5051	1.103e-06	1.4e-08
0.5066	1.105e-06	1.4e-08
0.591	1.073e-06	1.4e-08
0.6956	9.52e-07	1.4e-08
0.7986	7.56e-07	1.3e-08
0.8133	7.15e-07	1.3e-08
0.8133	7.11e-07	1.3e-08
0.8967	4.51e-07	1.4e-08
0.8982	4.4e-07	1.4e-08
0.9183	3.68e-07	1.3e-08
0.9469	2.53e-07	1.3e-08
0.9649	1.68e-07	1.3e-08
0.9725	1.35e-07	1.3e-08
0.9821	8.8e-08	1.3e-08
0.9867	7.1e-08	1.3e-08

System: 1-butanamine + heptane; phases: Liquid
Fixed: Pressure, kPa = 101
Fixed: Temperature, K = 298.15
Property: Excess molar volume, m3/mol (Liquid); method: Calculated with densities of this investigation
Mole fraction of heptane	Excess molar volume, m3/mol	uncertainty
0.0465	1.05e-07	1.2e-08
0.1085	2.34e-07	1.3e-08
0.1727	3.56e-07	1.3e-08
0.305	5.56e-07	1.3e-08
0.3933	6.49e-07	1.3e-08
0.4758	7e-07	1.3e-08
0.5062	7.15e-07	1.3e-08
0.5927	7.22e-07	1.3e-08
0.5943	7.28e-07	1.3e-08
0.6959	6.74e-07	1.3e-08
0.7082	6.66e-07	1.3e-08
0.7942	5.52e-07	1.3e-08
0.7992	5.49e-07	1.3e-08
0.8699	3.99e-07	1.3e-08
0.8794	3.76e-07	1.3e-08
0.8885	3.55e-07	1.3e-08
0.8953	3.41e-07	1.3e-08
0.9483	1.82e-07	1.3e-08
0.9491	1.82e-07	1.3e-08
0.9867	4.9e-08	1.3e-08
0.9953	1.7e-08	1.2e-08

System: 2-methyl-1-propanamine + heptane; phases: Liquid
Fixed: Pressure, kPa = 101
Fixed: Temperature, K = 298.15
Property: Excess molar volume, m3/mol (Liquid); method: Calculated with densities of this investigation
Mole fraction of heptane	Excess molar volume, m3/mol	uncertainty
0.0421	1.22e-07	1.3e-08
0.0986	2.75e-07	1.3e-08
0.1499	3.96e-07	1.3e-08
0.2044	5.12e-07	1.3e-08
0.3023	6.78e-07	1.3e-08
0.3959	7.87e-07	1.3e-08
0.5002	8.42e-07	1.3e-08
0.6047	8.34e-07	1.3e-08
0.7058	7.55e-07	1.3e-08
0.8062	5.93e-07	1.3e-08
0.9048	3.42e-07	1.3e-08
0.9402	2.29e-07	1.3e-08
0.9423	2.25e-07	1.3e-08
0.9534	1.8e-07	1.3e-08
0.9685	1.27e-07	1.3e-08
0.9693	1.25e-07	1.3e-08
0.9843	6.6e-08	1.3e-08
0.9843	6.3e-08	1.3e-08

System: heptane + 2-butanamine; phases: Liquid
Fixed: Pressure, kPa = 101
Fixed: Temperature, K = 298.15
Property: Excess molar volume, m3/mol (Liquid); method: Calculated with densities of this investigation
Mole fraction of heptane	Excess molar volume, m3/mol	uncertainty
0.0242	7.5e-08	1.2e-08
0.089	2.58e-07	1.3e-08
0.108	3.04e-07	1.3e-08
0.1591	4.31e-07	1.3e-08
0.1971	5.1e-07	1.3e-08
0.2401	5.95e-07	1.3e-08
0.3045	6.88e-07	1.3e-08
0.308	7.01e-07	1.3e-08
0.3695	7.66e-07	1.3e-08
0.4065	8.12e-07	1.3e-08
0.4074	8.1e-07	1.3e-08
0.4515	8.3e-07	1.3e-08
0.5003	8.53e-07	1.3e-08
0.5036	8.55e-07	1.3e-08
0.5948	8.45e-07	1.3e-08
0.6044	8.43e-07	1.3e-08
0.708	7.54e-07	1.3e-08
0.7088	7.5e-07	1.3e-08
0.7821	6.34e-07	1.3e-08
0.8051	5.92e-07	1.3e-08
0.8915	3.77e-07	1.3e-08
0.8974	3.6e-07	1.3e-08
0.9375	2.3e-07	1.3e-08
0.9429	2.15e-07	1.3e-08
0.9475	1.96e-07	1.3e-08
0.955	1.72e-07	1.3e-08
0.9708	1.15e-07	1.3e-08
0.9739	1.01e-07	1.3e-08
0.986	5.6e-08	1.3e-08
0.9866	5.4e-08	1.3e-08
0.9933	2.9e-08	1.2e-08

System: 2-methyl-2-propanamine + heptane; phases: Liquid
Fixed: Pressure, kPa = 101
Fixed: Temperature, K = 298.15
Property: Excess molar volume, m3/mol (Liquid); method: Calculated with densities of this investigation
Mole fraction of heptane	Excess molar volume, m3/mol	uncertainty
0.1098	3.86e-07	1.3e-08
0.1984	6.22e-07	1.3e-08
0.3082	8.29e-07	1.3e-08
0.5016	9.8e-07	1.4e-08
0.6033	9.5e-07	1.4e-08
0.7085	8.35e-07	1.3e-08
0.8022	6.54e-07	1.3e-08
0.8988	3.83e-07	1.3e-08
0.9411	2.37e-07	1.3e-08
0.9481	2.09e-07	1.3e-08
0.9685	1.31e-07	1.3e-08
0.9837	6.9e-08	1.3e-08

System: 1-pentanamine + heptane; phases: Liquid
Fixed: Pressure, kPa = 101
Fixed: Temperature, K = 298.15
Property: Excess molar volume, m3/mol (Liquid); method: Calculated with densities of this investigation
Mole fraction of heptane	Excess molar volume, m3/mol	uncertainty
0.0287	3.9e-08	1.2e-08
0.0564	7.8e-08	1.2e-08
0.1058	1.45e-07	1.2e-08
0.1723	2.29e-07	1.3e-08
0.2067	2.7e-07	1.3e-08
0.3031	3.71e-07	1.3e-08
0.399	4.49e-07	1.3e-08
0.4964	5.05e-07	1.3e-08
0.6038	5.27e-07	1.3e-08
0.698	5.04e-07	1.3e-08
0.7362	4.73e-07	1.3e-08
0.7946	4.27e-07	1.3e-08
0.8111	4.05e-07	1.3e-08
0.9098	2.42e-07	1.3e-08
0.9532	1.38e-07	1.3e-08
0.9557	1.31e-07	1.3e-08
0.9759	7.5e-08	1.2e-08
0.9873	4.1e-08	1.2e-08

System: 3-methyl-1-butanamine + heptane; phases: Liquid
Fixed: Pressure, kPa = 101
Fixed: Temperature, K = 298.15
Property: Excess molar volume, m3/mol (Liquid); method: Calculated with densities of this investigation
Mole fraction of heptane	Excess molar volume, m3/mol	uncertainty
0.0559	9.6e-08	1.2e-08
0.1058	1.8e-07	1.3e-08
0.2069	3.41e-07	1.3e-08
0.3441	4.96e-07	1.3e-08
0.4513	5.79e-07	1.3e-08
0.5481	6.16e-07	1.3e-08
0.6462	6.07e-07	1.3e-08
0.698	5.78e-07	1.3e-08
0.7929	4.94e-07	1.3e-08
0.894	3.13e-07	1.3e-08
0.9448	1.83e-07	1.3e-08
0.9637	1.22e-07	1.3e-08
0.9766	8.1e-08	1.3e-08
0.9885	4.2e-08	1.2e-08

System: heptane + 1-ethylpropylamine; phases: Liquid
Fixed: Temperature, K = 298.15
Fixed: Pressure, kPa = 101
Property: Excess molar volume, m3/mol (Liquid); method: Calculated with densities of this investigation
Mole fraction of heptane	Excess molar volume, m3/mol	uncertainty
0.0549	1.03e-07	1.2e-08
0.1075	1.96e-07	1.3e-08
0.21	3.55e-07	1.3e-08
0.3063	4.74e-07	1.3e-08
0.3911	5.49e-07	1.3e-08
0.5037	6e-07	1.3e-08
0.5908	6.04e-07	1.3e-08
0.6988	5.57e-07	1.3e-08
0.7958	4.56e-07	1.3e-08
0.8967	2.8e-07	1.3e-08
0.9443	1.69e-07	1.3e-08
0.9528	1.42e-07	1.3e-08
0.9759	7.7e-08	1.2e-08
0.9892	3.6e-08	1.2e-08

System: heptane + 1,1-dimethylpropylamine; phases: Liquid
Fixed: Temperature, K = 298.15
Fixed: Pressure, kPa = 101
Property: Excess molar volume, m3/mol (Liquid); method: Calculated with densities of this investigation
Mole fraction of heptane	Excess molar volume, m3/mol	uncertainty
0.0558	1.42e-07	1.3e-08
0.1092	2.66e-07	1.3e-08
0.1909	4.29e-07	1.3e-08
0.3026	6.07e-07	1.3e-08
0.3899	7.01e-07	1.3e-08
0.5037	7.58e-07	1.3e-08
0.5906	7.57e-07	1.3e-08
0.6971	6.9e-07	1.3e-08
0.7931	5.64e-07	1.3e-08
0.8919	3.53e-07	1.3e-08
0.9438	2.02e-07	1.3e-08
0.9507	1.8e-07	1.3e-08
0.9759	9.2e-08	1.3e-08
0.9888	4.5e-08	1.3e-08

System: 1-hexanamine + heptane; phases: Liquid
Fixed: Temperature, K = 298.15
Fixed: Pressure, kPa = 101
Property: Excess molar volume, m3/mol (Liquid); method: Calculated with densities of this investigation
Mole fraction of heptane	Excess molar volume, m3/mol	uncertainty
0.0381	3.1e-08	1.2e-08
0.0479	3.6e-08	1.2e-08
0.0578	4.8e-08	1.2e-08
0.09	7.3e-08	1.2e-08
0.094	7.4e-08	1.2e-08
0.1454	1.16e-07	1.2e-08
0.1493	1.23e-07	1.2e-08
0.1878	1.5e-07	1.2e-08
0.213	1.69e-07	1.2e-08
0.2407	1.89e-07	1.3e-08
0.2512	2e-07	1.3e-08
0.3048	2.36e-07	1.3e-08
0.3097	2.38e-07	1.3e-08
0.3979	2.94e-07	1.3e-08
0.4036	2.99e-07	1.3e-08
0.5026	3.46e-07	1.3e-08
0.503	3.44e-07	1.3e-08
0.6068	3.71e-07	1.3e-08
0.702	3.62e-07	1.3e-08
0.788	3.22e-07	1.3e-08
0.9076	1.89e-07	1.3e-08
0.9398	1.32e-07	1.2e-08
0.9475	1.19e-07	1.2e-08
0.9681	7.2e-08	1.2e-08
0.9806	4.7e-08	1.2e-08
0.9895	2.5e-08	1.2e-08

System: 1-heptanamine + heptane; phases: Liquid
Fixed: Temperature, K = 298.15
Fixed: Pressure, kPa = 101
Property: Excess molar volume, m3/mol (Liquid); method: Calculated with densities of this investigation
Mole fraction of heptane	Excess molar volume, m3/mol	uncertainty
0.0549	1.7e-08	1.2e-08
0.1052	3.9e-08	1.2e-08
0.2067	8.5e-08	1.2e-08
0.3016	1.29e-07	1.2e-08
0.3997	1.72e-07	1.2e-08
0.5015	2.06e-07	1.3e-08
0.5027	2.12e-07	1.3e-08
0.5975	2.32e-07	1.3e-08
0.6942	2.42e-07	1.3e-08
0.7885	2.25e-07	1.3e-08
0.8969	1.52e-07	1.2e-08
0.9458	8.7e-08	1.2e-08
0.9573	7.5e-08	1.2e-08
0.9806	3.6e-08	1.2e-08
0.9904	1.8e-08	1.2e-08

System: 1-octanamine + heptane; phases: Liquid
Fixed: Temperature, K = 298.15
Fixed: Pressure, kPa = 101
Property: Excess molar volume, m3/mol (Liquid); method: Calculated with densities of this investigation
Mole fraction of heptane	Excess molar volume, m3/mol	uncertainty
0.0534	9.47e-07	1.4e-08
0.1078	8.92e-07	1.3e-08
0.1153	8.85e-07	1.3e-08
0.1956	8.04e-07	1.3e-08
0.2969	7.03e-07	1.3e-08
0.4004	6e-07	1.3e-08
0.4506	5.49e-07	1.3e-08
0.5	5e-07	1.3e-08
0.5632	4.37e-07	1.3e-08
0.5945	4.06e-07	1.3e-08
0.6157	3.84e-07	1.3e-08
0.6976	3.02e-07	1.3e-08
0.7416	2.58e-07	1.3e-08
0.7938	2.06e-07	1.3e-08
0.848	1.52e-07	1.2e-08
0.8631	1.37e-07	1.2e-08
0.898	1.02e-07	1.2e-08
0.9023	9.8e-08	1.2e-08
0.949	5.1e-08	1.2e-08
0.9776	2.2e-08	1.2e-08
0.9893	1.1e-08	1.2e-08
0.9944	6e-09	1.2e-08

System: 1-aminononane + heptane; phases: Liquid
Fixed: Temperature, K = 298.15
Fixed: Pressure, kPa = 101
Property: Excess molar volume, m3/mol (Liquid); method: Calculated with densities of this investigation
Mole fraction of heptane	Excess molar volume, m3/mol	uncertainty
0.0969	-2.9e-08	1.2e-08
0.2031	-4.1e-08	1.2e-08
0.3032	-4e-08	1.2e-08
0.3952	-3.4e-08	1.2e-08
0.5025	-1.4e-08	1.2e-08
0.6268	2.4e-08	1.2e-08
0.706	3.9e-08	1.2e-08
0.8045	4.9e-08	1.2e-08
0.9072	4e-08	1.2e-08
0.9503	2.6e-08	1.2e-08
0.9844	1e-08	1.2e-08

System: heptane + 1-decanamine; phases: Liquid
Fixed: Temperature, K = 298.15
Fixed: Pressure, kPa = 101
Property: Excess molar volume, m3/mol (Liquid); method: Calculated with densities of this investigation
Mole fraction of heptane	Excess molar volume, m3/mol	uncertainty
0.0786	-4e-08	1.2e-08
0.2013	-8.2e-08	1.2e-08
0.3135	-9.3e-08	1.2e-08
0.4159	-9.6e-08	1.2e-08
0.5107	-8.6e-08	1.2e-08
0.6151	-6.2e-08	1.2e-08
0.6913	-3.9e-08	1.2e-08
0.7955	-2e-09	1.2e-08
0.895	2.3e-08	1.2e-08
0.9589	1.7e-08	1.2e-08
