Measured thermophysical data. Experimental thermochemical study of three monosubstituted pyrazines
Source: J. Chem. Thermodyn., 2005, 10.1016/j.jct.2004.08.006
Compound 1: carbon dioxide, CO2, InChI=1S/CO2/c2-1-3
Compound 2: nitrogen, N2, InChI=1S/N2/c1-2
Compound 3: water, H2O, InChI=1S/H2O/h1H2
Compound 4: oxygen, O2, InChI=1S/O2/c1-2
Compound 5: 2-pyrazinecarboxylic acid, C5H4N2O2, InChI=1S/C5H4N2O2/c8-5(9)4-3-6-1-2-7-4/h1-3H,(H,8,9)
Compound 6: pyrazinecarboxamide, C5H5N3O, InChI=1S/C5H5N3O/c6-5(9)4-3-7-1-2-8-4/h1-3H,(H2,6,9)
Compound 7: 2-cyanopyrazine, C5H3N3, InChI=1S/C5H3N3/c6-3-5-4-7-1-2-8-5/h1-2,4H

System: 2-pyrazinecarboxylic acid; phases: Crystal
Property: Mass density, kg/m3 (Crystal); method: OTHER
Temperature, K	Pressure, kPa	Mass density, kg/m3	uncertainty
298.15	101.325	1200	200

System: 2-pyrazinecarboxylic acid; phases: Gas
Property: Molar enthalpy, kJ/mol (Gas); method: vacuum sublimation
Temperature, K	Pressure, kPa	Molar enthalpy, kJ/mol	uncertainty
437	100	120.3	6

System: pyrazinecarboxamide; phases: Crystal
Property: Mass density, kg/m3 (Crystal); method: OTHER
Temperature, K	Pressure, kPa	Mass density, kg/m3	uncertainty
298.15	101.325	1100	200

System: pyrazinecarboxamide; phases: Gas
Property: Molar enthalpy, kJ/mol (Gas); method: vacuum sublimation
Temperature, K	Pressure, kPa	Molar enthalpy, kJ/mol	uncertainty
421	100	120.1	5

System: 2-cyanopyrazine; phases: Gas
Property: Molar enthalpy, kJ/mol (Gas); method: vacuum sublimation
Temperature, K	Pressure, kPa	Molar enthalpy, kJ/mol	uncertainty
365	100	66.5	3

Reaction: -1 2-pyrazinecarboxylic acid + 5 carbon dioxide + 1 nitrogen + 2 water + -5 oxygen
Property: Specific internal energy of reaction at constant volume, J/g
-18296.1

Reaction: -1 pyrazinecarboxamide + 5 carbon dioxide + 1.5 nitrogen + 2.5 water + -5.75 oxygen
Property: Specific internal energy of reaction at constant volume, J/g
-21041.7

Reaction: -1 2-cyanopyrazine + 5 carbon dioxide + 1.5 nitrogen + 1.5 water + -5.75 oxygen
Property: Specific internal energy of reaction at constant volume, J/g
-25654.8
