Measured thermophysical data. Quantitative NMR spectroscopy of binary liquid mixtures (aldehyde + alcohol) Part I: Acetaldehyde + (methanol or ethanol or 1-propanol)
Source: J. Chem. Thermodyn., 2014, 10.1016/j.jct.2013.03.022
Compound 1: ethanal, C2H4O, InChI=1S/C2H4O/c1-2-3/h2H,1H3, purity 99.5%
Compound 2: methanol, CH4O, InChI=1S/CH4O/c1-2/h2H,1H3, purity 99.5%
Compound 3: ethanol, C2H6O, InChI=1S/C2H6O/c1-2-3/h3H,2H2,1H3, purity 98%
Compound 4: propan-1-ol, C3H8O, InChI=1S/C3H8O/c1-2-3-4/h4H,2-3H2,1H3, purity 99%
Compound 5: 1-methoxyethanol, C3H8O2, InChI=1S/C3H8O2/c1-3(4)5-2/h3-4H,1-2H3
Compound 6: 1-(1-methoxyethoxy)ethan-1-ol, C5H12O3, InChI=1S/C5H12O3/c1-4(6)8-5(2)7-3/h4-6H,1-3H3
Compound 7: 1-(1-(1-methoxyethoxy)ethoxy)ethan-1-ol, C7H16O4, InChI=1S/C7H16O4/c1-5(8)10-7(3)11-6(2)9-4/h5-8H,1-4H3
Compound 8: 1-ethoxyethanol, C4H10O2, InChI=1S/C4H10O2/c1-3-6-4(2)5/h4-5H,3H2,1-2H3
Compound 9: 1-(1-ethoxyethoxy)ethan-1-ol, C6H14O3, InChI=1S/C6H14O3/c1-4-8-6(3)9-5(2)7/h5-7H,4H2,1-3H3
Compound 10: 1-(1-(1-ethoxyethoxy)ethoxy)ethan-1-ol, C8H18O4, InChI=1S/C8H18O4/c1-5-10-7(3)12-8(4)11-6(2)9/h6-9H,5H2,1-4H3
Compound 11: 1-propoxyethanol, C5H12O2, InChI=1S/C5H12O2/c1-3-4-7-5(2)6/h5-6H,3-4H2,1-2H3
Compound 12: 1-(1-propoxyethoxy)ethan-1-ol, C7H16O3, InChI=1S/C7H16O3/c1-4-5-9-7(3)10-6(2)8/h6-8H,4-5H2,1-3H3
Compound 13: 1-(1-(1-propoxyethoxy)ethoxy)ethan-1-ol, C9H20O4, InChI=1S/C9H20O4/c1-5-6-11-8(3)13-9(4)12-7(2)10/h7-10H,5-6H2,1-4H3

Reaction: -1 methanol + -1 ethanal + 1 1-methoxyethanol
Property: Thermodynamic equilibrium constant
19.7
19.9
22.3
70
72
87
203

Reaction: 1 1-(1-methoxyethoxy)ethan-1-ol + 1 methanol + -2 1-methoxyethanol
Property: Thermodynamic equilibrium constant
0.0067
0.01
0.012
0.0054
0.0079
0.01
0.0042

Reaction: -1 1-(1-methoxyethoxy)ethan-1-ol + 1 1-(1-(1-methoxyethoxy)ethoxy)ethan-1-ol + 1 methanol + -1 1-methoxyethanol
Property: Thermodynamic equilibrium constant
0.057
0.13
0.27
0.016
0.06
0.19
0.046

Reaction: -1 ethanol + -1 ethanal + 1 1-ethoxyethanol
Property: Thermodynamic equilibrium constant
2.85
3.46
3.86
4.66
6.47
13.4
16.4
21.1
48.8

Reaction: 1 1-(1-ethoxyethoxy)ethan-1-ol + 1 ethanol + -2 1-ethoxyethanol
Property: Thermodynamic equilibrium constant
0.037
0.041
0.041
0.045
0.028
0.03
0.028
0.014

Reaction: -1 1-(1-ethoxyethoxy)ethan-1-ol + 1 1-(1-(1-ethoxyethoxy)ethoxy)ethan-1-ol + 1 ethanol + -1 1-ethoxyethanol
Property: Thermodynamic equilibrium constant
0.16
0.24
0.4
0.59
0.088
0.16
0.27
0.1

Reaction: -1 propan-1-ol + -1 ethanal + 1 1-propoxyethanol
Property: Thermodynamic equilibrium constant
2.64
3.24
3.98
4.7
6.48
12.2
15.4
20
49

Reaction: 1 1-(1-propoxyethoxy)ethan-1-ol + 1 propan-1-ol + -2 1-propoxyethanol
Property: Thermodynamic equilibrium constant
0.044
0.049
0.047
0.049
0.036
0.036
0.034
0.021

Reaction: -1 1-(1-propoxyethoxy)ethan-1-ol + 1 1-(1-(1-propoxyethoxy)ethoxy)ethan-1-ol + 1 propan-1-ol + -1 1-propoxyethanol
Property: Thermodynamic equilibrium constant
0.17
0.25
0.35
0.49
0.1
0.14
0.23
0.11
