Measured thermophysical data. Measurement and correlation of critical properties for binary mixtures and ternary mixtures containing gasoline additives
Source: J. Chem. Thermodyn., 2014, 10.1016/j.jct.2014.01.025
Compound 1: heptane, C7H16, InChI=1S/C7H16/c1-3-5-7-6-4-2/h3-7H2,1-2H3, purity 99%
Compound 2: methanol, CH4O, InChI=1S/CH4O/c1-2/h2H,1H3, purity 99.5%
Compound 3: ethanol, C2H6O, InChI=1S/C2H6O/c1-2-3/h3H,2H2,1H3, purity 99.7%
Compound 4: propan-1-ol, C3H8O, InChI=1S/C3H8O/c1-2-3-4/h4H,2-3H2,1H3, purity 99.8%
Compound 5: 2-methoxy-2-methylpropane, C5H12O, InChI=1S/C5H12O/c1-5(2,3)6-4/h1-4H3, purity 99%

System: heptane; phases: Liquid, Gas
Property: Critical temperature, K (Liquid); method: Visual observation in an unstirred cell
Critical temperature, K	uncertainty
540	2.4

System: heptane; phases: Liquid, Gas
Property: Critical pressure, kPa (Liquid); method: Direct measurement
Critical pressure, kPa	uncertainty
2761	31

System: methanol; phases: Liquid, Gas
Property: Critical temperature, K (Liquid); method: Visual observation in an unstirred cell
Critical temperature, K	uncertainty
512.3	2.4

System: methanol; phases: Liquid, Gas
Property: Critical pressure, kPa (Liquid); method: Direct measurement
Critical pressure, kPa	uncertainty
8128	31

System: ethanol; phases: Liquid, Gas
Property: Critical temperature, K (Liquid); method: Visual observation in an unstirred cell
Critical temperature, K	uncertainty
514.2	2.4

System: ethanol; phases: Liquid, Gas
Property: Critical pressure, kPa (Liquid); method: Direct measurement
Critical pressure, kPa	uncertainty
6135	31

System: propan-1-ol; phases: Liquid, Gas
Property: Critical temperature, K (Liquid); method: Visual observation in an unstirred cell
Critical temperature, K	uncertainty
537	2.4

System: propan-1-ol; phases: Liquid, Gas
Property: Critical pressure, kPa (Liquid); method: Direct measurement
Critical pressure, kPa	uncertainty
5172	31

System: methanol + propan-1-ol; phases: Liquid, Gas
Property: Critical temperature, K (Liquid); method: Visual observation in an unstirred cell
Mole fraction of propan-1-ol	Critical temperature, K	uncertainty
0	512.3	2.4
0.0998	515.8	2.4
0.2374	518.8	2.4
0.3178	520.9	2.4
0.3961	522.5	2.4
0.4991	524.7	2.4
0.5995	527.5	2.4
0.6985	530.4	2.4
0.7984	532.2	2.4
0.8955	534.3	2.4
1	537	2.4

System: methanol + propan-1-ol; phases: Liquid, Gas
Property: Critical pressure, kPa (Liquid); method: Direct measurement
Mole fraction of propan-1-ol	Critical pressure, kPa	uncertainty
0	8128	31
0.0998	7885	31
0.2374	7613	31
0.3178	7379	31
0.3961	7141	31
0.4991	6845	31
0.5995	6542	31
0.6985	6198	31
0.7984	5893	31
0.8955	5573	31
1	5172	31

System: ethanol + heptane; phases: Liquid, Gas
Property: Critical temperature, K (Liquid); method: Visual observation in an unstirred cell
Mole fraction of ethanol	Critical temperature, K	uncertainty
0	540	2.4
0.1014	532.4	2.4
0.2052	526.2	2.4
0.3	520	2.4
0.4018	514.7	2.4
0.4687	510.6	2.4
0.5651	507.9	2.4
0.677	504.6	2.4
0.8305	504.8	2.4
0.9136	507.4	2.4
1	514.2	2.4

System: ethanol + heptane; phases: Liquid, Gas
Property: Critical pressure, kPa (Liquid); method: Direct measurement
Mole fraction of ethanol	Critical pressure, kPa	uncertainty
0	2761	31
0.1014	3217	31
0.2052	3608	31
0.3	3922	31
0.4018	4217	31
0.4687	4391	31
0.5651	4604	31
0.677	4817	31
0.8305	5260	31
0.9136	5623	31
1	6135	31

System: propan-1-ol + heptane; phases: Liquid, Gas
Property: Critical temperature, K (Liquid); method: Visual observation in an unstirred cell
Mole fraction of propan-1-ol	Critical temperature, K	uncertainty
0	540	2.4
0.0949	536.7	2.4
0.1897	532.2	2.4
0.3003	528.1	2.4
0.4011	524.3	2.4
0.5023	522.3	2.4
0.6003	521.4	2.4
0.6998	522.5	2.4
0.7993	524.4	2.4
0.8997	529.6	2.4
1	537	2.4

System: propan-1-ol + heptane; phases: Liquid, Gas
Property: Critical pressure, kPa (Liquid); method: Direct measurement
Mole fraction of propan-1-ol	Critical pressure, kPa	uncertainty
0	2761	31
0.0949	2993	31
0.1897	3212	31
0.3003	3427	31
0.4011	3633	31
0.5023	3819	31
0.6003	4022	31
0.6998	4251	31
0.7993	4467	31
0.8997	4799	31
1	5172	31

System: methanol + propan-1-ol + heptane; phases: Liquid, Gas
Property: Critical temperature, K (Liquid); method: Visual observation in an unstirred cell
Mole fraction of methanol	Mole fraction of propan-1-ol	Critical temperature, K	uncertainty
0.1005	0.1026	528.5	2.4
0.1031	0.7969	527.5	2.4
0.1034	0.6975	523.2	2.4
0.1218	0.1962	523.4	2.4
0.1998	0.4021	516	2.4
0.2065	0.1983	518.3	2.4
0.2843	0.6225	522.6	2.4
0.2997	0.3007	511.6	2.4
0.3018	0.3988	513	2.4
0.3036	0.0998	515.9	2.4
0.3117	0.0987	515.6	2.4
0.4004	0.3994	512.3	2.4
0.4014	0.1006	508.9	2.4
0.4032	0.1989	508.2	2.4
0.5972	0.2013	505.2	2.4
0.6003	0.2997	512.4	2.4

System: methanol + propan-1-ol + heptane; phases: Liquid, Gas
Property: Critical pressure, kPa (Liquid); method: Direct measurement
Mole fraction of methanol	Mole fraction of propan-1-ol	Critical pressure, kPa	uncertainty
0.1005	0.1026	3540	31
0.1031	0.7969	5033	31
0.1034	0.6975	4722	31
0.1218	0.1962	3793	31
0.1998	0.4021	4496	31
0.2065	0.1983	4296	31
0.2843	0.6225	5542	31
0.2997	0.3007	4841	31
0.3018	0.3988	5031	31
0.3036	0.0998	4569	32
0.3117	0.0987	4697	32
0.4004	0.3994	5510	31
0.4014	0.1006	5094	31
0.4032	0.1989	5140	31
0.5972	0.2013	5920	31
0.6003	0.2997	6297	31

System: methanol + propan-1-ol + 2-methoxy-2-methylpropane; phases: Liquid, Gas
Property: Critical temperature, K (Liquid); method: Visual observation in an unstirred cell
Mole fraction of methanol	Mole fraction of propan-1-ol	Critical temperature, K	uncertainty
0.1004	0.7977	527.4	2.4
0.1026	0.7124	521.2	2.4
0.1033	0.2358	500.3	2.4
0.1213	0.0988	496	2.4
0.1236	0.4866	510.9	2.4
0.1757	0.3533	506.6	2.4
0.202	0.2046	498.6	2.4
0.2169	0.0992	495.1	2.4
0.2986	0.3054	505.7	2.4
0.3023	0.3986	510.4	2.4
0.3038	0.0997	495.1	2.4
0.3048	0.598	520.6	2.4
0.4	0.2032	500.6	2.4
0.4074	0.3952	512.3	2.4
0.5814	0.2911	512.4	2.4
0.5998	0.2	505.3	2.4

System: methanol + propan-1-ol + 2-methoxy-2-methylpropane; phases: Liquid, Gas
Property: Critical pressure, kPa (Liquid); method: Direct measurement
Mole fraction of methanol	Mole fraction of propan-1-ol	Critical pressure, kPa	uncertainty
0.1004	0.7977	5333	31
0.1026	0.7124	5156	31
0.1033	0.2358	4361	31
0.1213	0.0988	4157	31
0.1236	0.4866	4760	31
0.1757	0.3533	4715	31
0.202	0.2046	4560	31
0.2169	0.0992	4492	31
0.2986	0.3054	5168	31
0.3023	0.3986	5399	31
0.3038	0.0997	4772	31
0.3048	0.598	5850	31
0.4	0.2032	5381	31
0.4074	0.3952	5915	31
0.5814	0.2911	6600	31
0.5998	0.2	6297	31

System: ethanol + heptane + 2-methoxy-2-methylpropane; phases: Liquid, Gas
Property: Critical temperature, K (Liquid); method: Visual observation in an unstirred cell
Mole fraction of ethanol	Mole fraction of heptane	Critical temperature, K	uncertainty
0.0815	0.6023	520.1	2.4
0.0954	0.2019	503.4	2.4
0.1165	0.788	526.5	2.4
0.2002	0.0987	497.6	2.4
0.2017	0.4004	510.3	2.4
0.2021	0.2006	501.9	2.4
0.296	0.6019	516.9	2.4
0.2976	0.3004	504.5	2.4
0.2994	0.1062	497.7	2.4
0.3002	0.4009	508	2.4
0.3992	0.0996	496.6	2.4
0.3993	0.2003	500.4	2.4
0.4036	0.4009	505.2	2.4
0.5813	0.2348	500	2.4
0.6007	0.2999	502.4	2.4

System: ethanol + heptane + 2-methoxy-2-methylpropane; phases: Liquid, Gas
Property: Critical pressure, kPa (Liquid); method: Direct measurement
Mole fraction of ethanol	Mole fraction of heptane	Critical pressure, kPa	uncertainty
0.0815	0.6023	3303	31
0.0954	0.2019	3508	31
0.1165	0.788	3244	31
0.2002	0.0987	3788	31
0.2017	0.4004	3643	31
0.2021	0.2006	3737	31
0.296	0.6019	3818	31
0.2976	0.3004	3932	31
0.2994	0.1062	4001	31
0.3002	0.4009	3873	31
0.3992	0.0996	4238	31
0.3993	0.2003	4183	31
0.4036	0.4009	4112	31
0.5813	0.2348	4620	31
0.6007	0.2999	4588	31
