Measured thermophysical data. Separation of (water/butan-1-ol) binary systems based on activity coefficients at infinite dilution with phosphonium ionic liquid
Source: J. Chem. Thermodyn., 2019, 10.1016/j.jct.2019.05.011
Compound 1: trihexyltetradecylphosphonium bis(2,4,4-trimethylpentyl)phosphinate, C48H102O2P2, InChI=1S/C32H68P.C16H35O2P/c1-5-9-13-17-18-19-20-21-22-23-24-28-32-33(29-25-14-10-6-2,30-26-15-11-7-3)31-27-16-12-8-4;1-13(9-15(3,4)5)11-19(17,18)12-14(2)10-16(6,7)8/h5-32H2,1-4H3;13-14H,9-12H2,1-8H3,(H,17,18)/q+1;/p-1, purity 95%
Compound 2: 2,2-dimethylbutane, C6H14, InChI=1S/C6H14/c1-5-6(2,3)4/h5H2,1-4H3, purity 99%
Compound 3: 2,2,4-trimethylpentane, C8H18, InChI=1S/C8H18/c1-7(2)6-8(3,4)5/h7H,6H2,1-5H3, purity 99.5%
Compound 4: methylcyclohexane, C7H14, InChI=1S/C7H14/c1-7-5-3-2-4-6-7/h7H,2-6H2,1H3, purity 99%
Compound 5: cyclooctane, C8H16, InChI=1S/C8H16/c1-2-4-6-8-7-5-3-1/h1-8H2, purity 98%
Compound 6: nonane, C9H20, InChI=1S/C9H20/c1-3-5-7-9-8-6-4-2/h3-9H2,1-2H3, purity 99%
Compound 7: decane, C10H22, InChI=1S/C10H22/c1-3-5-7-9-10-8-6-4-2/h3-10H2,1-2H3, purity 99%
Compound 8: 1-heptene, C7H14, InChI=1S/C7H14/c1-3-5-7-6-4-2/h3H,1,4-7H2,2H3, purity 98%
Compound 9: 1-nonene, C9H18, InChI=1S/C9H18/c1-3-5-7-9-8-6-4-2/h3H,1,4-9H2,2H3, purity 98%
Compound 10: 1-decene, C10H20, InChI=1S/C10H20/c1-3-5-7-9-10-8-6-4-2/h3H,1,4-10H2,2H3, purity 98%
Compound 11: cyclohexene, C6H10, InChI=1S/C6H10/c1-2-4-6-5-3-1/h1-2H,3-6H2, purity 99.7%
Compound 12: benzene, C6H6, InChI=1S/C6H6/c1-2-4-6-5-3-1/h1-6H, purity 99.7%
Compound 13: toluene, C7H8, InChI=1S/C7H8/c1-7-5-3-2-4-6-7/h2-6H,1H3, purity 99.5%
Compound 14: ethylbenzene, C8H10, InChI=1S/C8H10/c1-2-8-6-4-3-5-7-8/h3-7H,2H2,1H3, purity 99.7%
Compound 15: 1,3-dimethylbenzene, C8H10, InChI=1S/C8H10/c1-7-4-3-5-8(2)6-7/h3-6H,1-2H3, purity 99%
Compound 16: 1,4-dimethylbenzene, C8H10, InChI=1S/C8H10/c1-7-3-5-8(2)6-4-7/h3-6H,1-2H3, purity 99%
Compound 17: 1,2-dimethylbenzene, C8H10, InChI=1S/C8H10/c1-7-5-3-4-6-8(7)2/h3-6H,1-2H3, purity 99%
Compound 18: methanol, CH4O, InChI=1S/CH4O/c1-2/h2H,1H3, purity 99.9%
Compound 19: ethanol, C2H6O, InChI=1S/C2H6O/c1-2-3/h3H,2H2,1H3, purity 99.9%
Compound 20: propan-1-ol, C3H8O, InChI=1S/C3H8O/c1-2-3-4/h4H,2-3H2,1H3, purity 99.5%
Compound 21: butan-1-ol, C4H10O, InChI=1S/C4H10O/c1-2-3-4-5/h5H,2-4H2,1H3, purity 99.7%
Compound 22: acetone, C3H6O, InChI=1S/C3H6O/c1-3(2)4/h1-2H3, purity 99.9%
Compound 23: butanone, C4H8O, InChI=1S/C4H8O/c1-3-4(2)5/h3H2,1-2H3, purity 99.7%
Compound 24: tetrahydrofuran, C4H8O, InChI=1S/C4H8O/c1-2-4-5-3-1/h1-4H2, purity 99.5%
Compound 25: acetonitrile, C2H3N, InChI=1S/C2H3N/c1-2-3/h1H3, purity 99.9%
Compound 26: thiophene, C4H4S, InChI=1S/C4H4S/c1-2-4-5-3-1/h1-4H, purity 99%
Compound 27: water, H2O, InChI=1S/H2O/h1H2, purity 99.9%
Compound 28: hexadecane, C16H34, InChI=1S/C16H34/c1-3-5-7-9-11-13-15-16-14-12-10-8-6-4-2/h3-16H2,1-2H3, purity 98%
Compound 29: hexane, C6H14, InChI=1S/C6H14/c1-3-5-6-4-2/h3-6H2,1-2H3, purity 99%

System: trihexyltetradecylphosphonium bis(2,4,4-trimethylpentyl)phosphinate + 2,2-dimethylbutane; phases: Liquid
Fixed: Mole fraction of 2,2-dimethylbutane = 0
Fixed: Pressure, kPa = 101.325
Property: Activity coefficient of 2,2-dimethylbutane (Liquid); method: Chromatography
Temperature, K	Activity coefficient of 2,2-dimethylbutane	uncertainty
313.15	0.78	0.05
323.15	0.82	0.05
333.15	0.9	0.06
343.15	0.97	0.06

System: trihexyltetradecylphosphonium bis(2,4,4-trimethylpentyl)phosphinate + 2,2,4-trimethylpentane; phases: Liquid
Fixed: Mole fraction of 2,2,4-trimethylpentane = 0
Fixed: Pressure, kPa = 101.325
Property: Activity coefficient of 2,2,4-trimethylpentane (Liquid); method: Chromatography
Temperature, K	Activity coefficient of 2,2,4-trimethylpentane	uncertainty
313.15	0.92	0.06
323.15	0.96	0.06
333.15	1.04	0.07
343.15	1.14	0.07

System: trihexyltetradecylphosphonium bis(2,4,4-trimethylpentyl)phosphinate + methylcyclohexane; phases: Liquid
Fixed: Mole fraction of methylcyclohexane = 0
Fixed: Pressure, kPa = 101.325
Property: Activity coefficient of methylcyclohexane (Liquid); method: Chromatography
Temperature, K	Activity coefficient of methylcyclohexane	uncertainty
313.15	0.64	0.04
323.15	0.68	0.05
333.15	0.73	0.05
343.15	0.78	0.05

System: trihexyltetradecylphosphonium bis(2,4,4-trimethylpentyl)phosphinate + cyclooctane; phases: Liquid
Fixed: Mole fraction of cyclooctane = 0
Fixed: Pressure, kPa = 101.325
Property: Activity coefficient of cyclooctane (Liquid); method: Chromatography
Temperature, K	Activity coefficient of cyclooctane	uncertainty
313.15	0.7	0.05
323.15	0.71	0.05
333.15	0.77	0.05
343.15	0.79	0.05

System: trihexyltetradecylphosphonium bis(2,4,4-trimethylpentyl)phosphinate + nonane; phases: Liquid
Fixed: Mole fraction of nonane = 0
Fixed: Pressure, kPa = 101.325
Property: Activity coefficient of nonane (Liquid); method: Chromatography
Temperature, K	Activity coefficient of nonane	uncertainty
313.15	1.04	0.07
323.15	1.11	0.07
333.15	1.23	0.08
343.15	1.25	0.08

System: trihexyltetradecylphosphonium bis(2,4,4-trimethylpentyl)phosphinate + decane; phases: Liquid
Fixed: Mole fraction of decane = 0
Fixed: Pressure, kPa = 101.325
Property: Activity coefficient of decane (Liquid); method: Chromatography
Temperature, K	Activity coefficient of decane	uncertainty
313.15	1.22	0.08
323.15	1.28	0.08
333.15	1.33	0.09
343.15	1.39	0.09

System: trihexyltetradecylphosphonium bis(2,4,4-trimethylpentyl)phosphinate + 1-heptene; phases: Liquid
Fixed: Mole fraction of 1-heptene = 0
Fixed: Pressure, kPa = 101.325
Property: Activity coefficient of 1-heptene (Liquid); method: Chromatography
Temperature, K	Activity coefficient of 1-heptene	uncertainty
313.15	0.77	0.05
323.15	0.81	0.05
333.15	0.88	0.06
343.15	0.95	0.06

System: trihexyltetradecylphosphonium bis(2,4,4-trimethylpentyl)phosphinate + 1-nonene; phases: Liquid
Fixed: Mole fraction of 1-nonene = 0
Fixed: Pressure, kPa = 101.325
Property: Activity coefficient of 1-nonene (Liquid); method: Chromatography
Temperature, K	Activity coefficient of 1-nonene	uncertainty
313.15	0.91	0.06
323.15	0.95	0.06
333.15	1.08	0.07
343.15	1.14	0.07

System: trihexyltetradecylphosphonium bis(2,4,4-trimethylpentyl)phosphinate + 1-decene; phases: Liquid
Fixed: Mole fraction of 1-decene = 0
Fixed: Pressure, kPa = 101.325
Property: Activity coefficient of 1-decene (Liquid); method: Chromatography
Temperature, K	Activity coefficient of 1-decene	uncertainty
313.15	0.98	0.06
323.15	1.04	0.07
333.15	1.15	0.07
343.15	1.18	0.08

System: trihexyltetradecylphosphonium bis(2,4,4-trimethylpentyl)phosphinate + cyclohexene; phases: Liquid
Fixed: Mole fraction of cyclohexene = 0
Fixed: Pressure, kPa = 101.325
Property: Activity coefficient of cyclohexene (Liquid); method: Chromatography
Temperature, K	Activity coefficient of cyclohexene	uncertainty
313.15	0.57	0.04
323.15	0.59	0.04
333.15	0.64	0.04
343.15	0.68	0.05

System: trihexyltetradecylphosphonium bis(2,4,4-trimethylpentyl)phosphinate + benzene; phases: Liquid
Fixed: Mole fraction of benzene = 0
Fixed: Pressure, kPa = 101.325
Property: Activity coefficient of benzene (Liquid); method: Chromatography
Temperature, K	Activity coefficient of benzene	uncertainty
313.15	0.42	0.04
323.15	0.45	0.04
333.15	0.49	0.04
343.15	0.52	0.04

System: trihexyltetradecylphosphonium bis(2,4,4-trimethylpentyl)phosphinate + toluene; phases: Liquid
Fixed: Mole fraction of toluene = 0
Fixed: Pressure, kPa = 101.325
Property: Activity coefficient of toluene (Liquid); method: Chromatography
Temperature, K	Activity coefficient of toluene	uncertainty
313.15	0.5	0.04
323.15	0.51	0.04
333.15	0.56	0.04
343.15	0.59	0.04

System: trihexyltetradecylphosphonium bis(2,4,4-trimethylpentyl)phosphinate + ethylbenzene; phases: Liquid
Fixed: Mole fraction of ethylbenzene = 0
Fixed: Pressure, kPa = 101.325
Property: Activity coefficient of ethylbenzene (Liquid); method: Chromatography
Temperature, K	Activity coefficient of ethylbenzene	uncertainty
313.15	0.57	0.04
323.15	0.6	0.04
333.15	0.65	0.04
343.15	0.68	0.05

System: trihexyltetradecylphosphonium bis(2,4,4-trimethylpentyl)phosphinate + 1,3-dimethylbenzene; phases: Liquid
Fixed: Mole fraction of 1,3-dimethylbenzene = 0
Fixed: Pressure, kPa = 101.325
Property: Activity coefficient of 1,3-dimethylbenzene (Liquid); method: Chromatography
Temperature, K	Activity coefficient of 1,3-dimethylbenzene	uncertainty
313.15	0.63	0.04
323.15	0.65	0.04
333.15	0.67	0.05
343.15	0.7	0.05

System: trihexyltetradecylphosphonium bis(2,4,4-trimethylpentyl)phosphinate + 1,4-dimethylbenzene; phases: Liquid
Fixed: Mole fraction of 1,4-dimethylbenzene = 0
Fixed: Pressure, kPa = 101.325
Property: Activity coefficient of 1,4-dimethylbenzene (Liquid); method: Chromatography
Temperature, K	Activity coefficient of 1,4-dimethylbenzene	uncertainty
313.15	0.6	0.04
323.15	0.63	0.04
333.15	0.65	0.04
343.15	0.69	0.05

System: trihexyltetradecylphosphonium bis(2,4,4-trimethylpentyl)phosphinate + 1,2-dimethylbenzene; phases: Liquid
Fixed: Mole fraction of 1,2-dimethylbenzene = 0
Fixed: Pressure, kPa = 101.325
Property: Activity coefficient of 1,2-dimethylbenzene (Liquid); method: Chromatography
Temperature, K	Activity coefficient of 1,2-dimethylbenzene	uncertainty
313.15	0.6	0.04
323.15	0.62	0.04
333.15	0.64	0.04
343.15	0.67	0.05

System: trihexyltetradecylphosphonium bis(2,4,4-trimethylpentyl)phosphinate + methanol; phases: Liquid
Fixed: Mole fraction of methanol = 0
Fixed: Pressure, kPa = 101.325
Property: Activity coefficient of methanol (Liquid); method: Chromatography
Temperature, K	Activity coefficient of methanol	uncertainty
313.15	0.03	0.03
323.15	0.04	0.03
333.15	0.05	0.03
343.15	0.06	0.03

System: trihexyltetradecylphosphonium bis(2,4,4-trimethylpentyl)phosphinate + ethanol; phases: Liquid
Fixed: Mole fraction of ethanol = 0
Fixed: Pressure, kPa = 101.325
Property: Activity coefficient of ethanol (Liquid); method: Chromatography
Temperature, K	Activity coefficient of ethanol	uncertainty
323.15	0.04	0.03
333.15	0.06	0.03
343.15	0.07	0.03

System: trihexyltetradecylphosphonium bis(2,4,4-trimethylpentyl)phosphinate + propan-1-ol; phases: Liquid
Fixed: Mole fraction of propan-1-ol = 0
Fixed: Pressure, kPa = 101.325
Property: Activity coefficient of propan-1-ol (Liquid); method: Chromatography
Temperature, K	Activity coefficient of propan-1-ol	uncertainty
323.15	0.07	0.03
333.15	0.08	0.03
343.15	0.09	0.03

System: trihexyltetradecylphosphonium bis(2,4,4-trimethylpentyl)phosphinate + butan-1-ol; phases: Liquid
Fixed: Mole fraction of butan-1-ol = 0
Fixed: Pressure, kPa = 101.325
Property: Activity coefficient of butan-1-ol (Liquid); method: Chromatography
Temperature, K	Activity coefficient of butan-1-ol	uncertainty
333.15	0.11	0.03
343.15	0.12	0.03

System: trihexyltetradecylphosphonium bis(2,4,4-trimethylpentyl)phosphinate + acetone; phases: Liquid
Fixed: Mole fraction of acetone = 0
Fixed: Pressure, kPa = 101.325
Property: Activity coefficient of acetone (Liquid); method: Chromatography
Temperature, K	Activity coefficient of acetone	uncertainty
313.15	0.7	0.05
323.15	0.72	0.05
333.15	0.78	0.05
343.15	0.83	0.05

System: trihexyltetradecylphosphonium bis(2,4,4-trimethylpentyl)phosphinate + butanone; phases: Liquid
Fixed: Mole fraction of butanone = 0
Fixed: Pressure, kPa = 101.325
Property: Activity coefficient of butanone (Liquid); method: Chromatography
Temperature, K	Activity coefficient of butanone	uncertainty
313.15	0.65	0.04
323.15	0.67	0.05
333.15	0.72	0.05
343.15	0.77	0.05

System: trihexyltetradecylphosphonium bis(2,4,4-trimethylpentyl)phosphinate + tetrahydrofuran; phases: Liquid
Fixed: Mole fraction of tetrahydrofuran = 0
Fixed: Pressure, kPa = 101.325
Property: Activity coefficient of tetrahydrofuran (Liquid); method: Chromatography
Temperature, K	Activity coefficient of tetrahydrofuran	uncertainty
313.15	0.43	0.04
323.15	0.45	0.04
333.15	0.49	0.04
343.15	0.52	0.04

System: trihexyltetradecylphosphonium bis(2,4,4-trimethylpentyl)phosphinate + acetonitrile; phases: Liquid
Fixed: Mole fraction of acetonitrile = 0
Fixed: Pressure, kPa = 101.325
Property: Activity coefficient of acetonitrile (Liquid); method: Chromatography
Temperature, K	Activity coefficient of acetonitrile	uncertainty
313.15	1.34	0.09
323.15	1.4	0.09
333.15	1.41	0.09
343.15	1.46	0.1

System: trihexyltetradecylphosphonium bis(2,4,4-trimethylpentyl)phosphinate + thiophene; phases: Liquid
Fixed: Mole fraction of thiophene = 0
Fixed: Pressure, kPa = 101.325
Property: Activity coefficient of thiophene (Liquid); method: Chromatography
Temperature, K	Activity coefficient of thiophene	uncertainty
313.15	0.35	0.03
323.15	0.4	0.03
333.15	0.41	0.03
343.15	0.44	0.04

System: trihexyltetradecylphosphonium bis(2,4,4-trimethylpentyl)phosphinate + water; phases: Liquid
Fixed: Mole fraction of water = 0
Fixed: Pressure, kPa = 101.325
Property: Activity coefficient of water (Liquid); method: Chromatography
Temperature, K	Activity coefficient of water	uncertainty
313.15	0.26	0.03
323.15	0.27	0.03
333.15	0.3	0.03
343.15	0.31	0.03

System: hexadecane + hexane; phases: Liquid
Property: Activity coefficient of hexane (Liquid); method: Chromatography
Temperature, K	Mole fraction of hexane	Pressure, kPa	Activity coefficient of hexane	uncertainty
298.15	0	101.325	0.874	0.056
