Measured thermophysical data. Energetic characterization of a bioactive compound: Uridine
Source: J. Chem. Thermodyn., 2018, 10.1016/j.jct.2018.04.013
Compound 1: carbon dioxide, CO2, InChI=1S/CO2/c2-1-3
Compound 2: nitrogen, N2, InChI=1S/N2/c1-2
Compound 3: water, H2O, InChI=1S/H2O/h1H2
Compound 4: oxygen, O2, InChI=1S/O2/c1-2
Compound 5: uridine, C9H12N2O6, InChI=1S/C9H12N2O6/c12-3-4-6(14)7(15)8(17-4)11-2-1-5(13)10-9(11)16/h1-2,4,6-8,12,14-15H,3H2,(H,10,13,16)/t4-,6?,7?,8-/m1/s1, purity 99%

Reaction: -1 uridine + 9 carbon dioxide + 1 nitrogen + 6 water + -9 oxygen
Property: Specific internal energy of reaction at constant volume, J/g
-16786.53
