Measured thermophysical data. Vaporization thermodynamics of ionic liquids with tetraalkylphosphonium cations
Source: J. Chem. Thermodyn., 2019, 10.1016/j.jct.2018.10.007
Compound 1: tri-n-butyltetradecylphosphonium bis(trifluoromethanesulfonyl)imide, C28H56F6NO4PS2, InChI=1S/C26H56P.C2F6NO4S2/c1-5-9-13-14-15-16-17-18-19-20-21-22-26-27(23-10-6-2,24-11-7-3)25-12-8-4;3-1(4,5)14(10,11)9-15(12,13)2(6,7)8/h5-26H2,1-4H3;/q+1;-1, purity 99%
Compound 2: tributylhexadecylphosphonium bis(trifluoromethanesulfonyl)imide, C30H60F6NO4PS2, InChI=1S/C28H60P.C2F6NO4S2/c1-5-9-13-14-15-16-17-18-19-20-21-22-23-24-28-29(25-10-6-2,26-11-7-3)27-12-8-4;3-1(4,5)14(10,11)9-15(12,13)2(6,7)8/h5-28H2,1-4H3;/q+1;-1, purity 99%
Compound 3: trihexyl(tetradecyl)phosphonium bis[(trifluoromethyl)sulfonyl]imide, C34H68F6NO4PS2, InChI=1S/C32H68P.C2F6NO4S2/c1-5-9-13-17-18-19-20-21-22-23-24-28-32-33(29-25-14-10-6-2,30-26-15-11-7-3)31-27-16-12-8-4;3-1(4,5)14(10,11)9-15(12,13)2(6,7)8/h5-32H2,1-4H3;/q+1;-1, purity 99%
Compound 4: tetraoctylphosphonium chloride, C32H68ClP, InChI=1S/C32H68P.ClH/c1-5-9-13-17-21-25-29-33(30-26-22-18-14-10-6-2,31-27-23-19-15-11-7-3)32-28-24-20-16-12-8-4;/h5-32H2,1-4H3;1H/q+1;/p-1, purity 99%
Compound 5: tetrahexylphosphonium bromide, C24H52BrP, InChI=1S/C24H52P.BrH/c1-5-9-13-17-21-25(22-18-14-10-6-2,23-19-15-11-7-3)24-20-16-12-8-4;/h5-24H2,1-4H3;1H/q+1;/p-1, purity 99%
Compound 6: trihexylpentylphosphonium hexafluorophosphate, C23H50F6P2, InChI=1S/C23H50P.F6P/c1-5-9-13-17-21-24(20-16-12-8-4,22-18-14-10-6-2)23-19-15-11-7-3;1-7(2,3,4,5)6/h5-23H2,1-4H3;/q+1;-1, purity 99%
Compound 7: tetrahexylphosphonium hexafluorophosphate, C24H52F6P2, InChI=1S/C24H52P.F6P/c1-5-9-13-17-21-25(22-18-14-10-6-2,23-19-15-11-7-3)24-20-16-12-8-4;1-7(2,3,4,5)6/h5-24H2,1-4H3;/q+1;-1, purity 99%
Compound 8: trihexylheptylphosphonium hexafluorophosphate, C25H54F6P2, InChI=1S/C25H54P.F6P/c1-5-9-13-17-21-25-26(22-18-14-10-6-2,23-19-15-11-7-3)24-20-16-12-8-4;1-7(2,3,4,5)6/h5-25H2,1-4H3;/q+1;-1, purity 99%
Compound 9: trihexyloctylphosphonium hexafluorophosphate, C26H56F6P2, InChI=1S/C26H56P.F6P/c1-5-9-13-17-18-22-26-27(23-19-14-10-6-2,24-20-15-11-7-3)25-21-16-12-8-4;1-7(2,3,4,5)6/h5-26H2,1-4H3;/q+1;-1, purity 99%
Compound 10: trihexylheptylphosphonium bis(trifluoromethanesulfonyl)imide, C27H54F6NO4PS2, InChI=1S/C25H54P.C2F6NO4S2/c1-5-9-13-17-21-25-26(22-18-14-10-6-2,23-19-15-11-7-3)24-20-16-12-8-4;3-1(4,5)14(10,11)9-15(12,13)2(6,7)8/h5-25H2,1-4H3;/q+1;-1, purity 99%

System: tri-n-butyltetradecylphosphonium bis(trifluoromethanesulfonyl)imide; phases: Liquid, Gas
Property: Molar enthalpy of vaporization or sublimation, kJ/mol (Liquid); method: Derived by Second law
Temperature, K	Molar enthalpy of vaporization or sublimation, kJ/mol	uncertainty
416.4	167.1	2.1

System: tri-n-butyltetradecylphosphonium bis(trifluoromethanesulfonyl)imide; phases: Liquid, Gas
Property: Vapor or sublimation pressure, kPa (Liquid); method: Rate of evaporation
Temperature, K	Vapor or sublimation pressure, kPa	uncertainty
438.18	2.92e-07	2.93e-07
433.18	1.7e-07	1.7e-07
428.14	1.03e-07	1.03e-07
423.09	6e-08	6e-08
418.06	3.3e-08	3.3e-08
413.04	1.8e-08	1.8e-08
408.02	1e-08	1e-08
403.07	5.3e-09	5.3e-09
398.14	2.9e-09	2.9e-09
393.28	1.6e-09	1.6e-09
440.71	3.73e-07	3.74e-07
435.69	2.23e-07	2.24e-07
430.65	1.35e-07	1.35e-07
425.61	7.6e-08	7.6e-08
420.57	4.4e-08	4.4e-08
415.54	2.5e-08	2.5e-08
410.51	1.4e-08	1.4e-08
405.5	7.3e-09	7.3e-09
400.54	4.1e-09	4.1e-09
395.67	2e-09	2e-09

System: tributylhexadecylphosphonium bis(trifluoromethanesulfonyl)imide; phases: Liquid, Gas
Property: Molar enthalpy of vaporization or sublimation, kJ/mol (Liquid); method: Derived by Second law
Temperature, K	Molar enthalpy of vaporization or sublimation, kJ/mol	uncertainty
578.7	135.5	10.1

System: trihexyl(tetradecyl)phosphonium bis[(trifluoromethyl)sulfonyl]imide; phases: Liquid, Gas
Property: Molar enthalpy of vaporization or sublimation, kJ/mol (Liquid); method: Derived by Second law
Temperature, K	Molar enthalpy of vaporization or sublimation, kJ/mol	uncertainty
429.8	181.6	2.2

System: trihexyl(tetradecyl)phosphonium bis[(trifluoromethyl)sulfonyl]imide; phases: Liquid, Gas
Property: Vapor or sublimation pressure, kPa (Liquid); method: Rate of evaporation
Temperature, K	Vapor or sublimation pressure, kPa	uncertainty
443.88	5.8e-09	5.8e-09
439.04	3.4e-09	3.4e-09
434.17	2e-09	2e-09
429.26	1.1e-09	1.1e-09
424.31	6.1e-10	6.4e-10
419.33	3.2e-10	3.6e-10
414.33	1.7e-10	2.3e-10
409.33	8.9e-11	1.72e-10
404.33	4.6e-11	1.58e-10
399.34	2.3e-11	1.57e-10
454.27	1.9e-08	1.9e-08
449.26	1e-08	1e-08
444.26	6.3e-09	6.3e-09
439.23	3.4e-09	3.4e-09
434.24	1.9e-09	1.9e-09
429.24	1e-09	1e-09
424.24	6.4e-10	6.7e-10
419.24	3.1e-10	3.5e-10
414.24	1.7e-10	2.3e-10
409.24	8.6e-11	1.71e-10
456.51	2.2e-08	2.2e-08
451.67	1.4e-08	1.4e-08
446.75	8e-09	8e-09
441.79	4.6e-09	4.6e-09
436.8	2.6e-09	2.6e-09
432.25	1.5e-09	1.5e-09
427.91	9.2e-10	9.4e-10
423.46	5.2e-10	5.5e-10
419.13	3.2e-10	3.6e-10
413.93	1.7e-10	2.3e-10
458.95	2.8e-08	2.8e-08
454.09	1.7e-08	1.7e-08
449.16	1e-08	1e-08
444.2	5.9e-09	5.9e-09
439.21	3.6e-09	3.6e-09
434.2	1.9e-09	1.9e-09
429.18	1e-09	1e-09
424.17	6.4e-10	6.7e-10
419.16	3.3e-10	3.7e-10
414.15	1.7e-10	2.3e-10
453.06	1.4e-08	1.4e-08
448.07	8.7e-09	8.7e-09
443.03	5.2e-09	5.2e-09
438.01	3.1e-09	3.1e-09
433	1.8e-09	1.8e-09
427.98	1e-09	1e-09
422.97	5.4e-10	5.7e-10
417.97	2.9e-10	3.3e-10
412.96	1.4e-10	2.1e-10
407.95	7.1e-11	1.63e-10
450.57	1.2e-08	1.2e-08
445.56	6.9e-09	6.9e-09
440.54	4e-09	4e-09
435.54	2.3e-09	2.3e-09
430.53	1.3e-09	1.3e-09
425.53	7.3e-10	7.6e-10
420.52	3.8e-10	4.2e-10
415.52	2e-10	2.5e-10
410.52	1e-10	1.8e-10
405.52	5.3e-11	1.59e-10
448.02	8.9e-09	8.9e-09
443.01	5.2e-09	5.2e-09
438.02	3e-09	3e-09
433.02	1.7e-09	1.7e-09
428.01	1e-09	1e-09
423.01	5.1e-10	5.4e-10
418	2.7e-10	3.1e-10
413	1.5e-10	2.1e-10
408.01	7.5e-11	1.65e-10

System: tetraoctylphosphonium chloride; phases: Liquid, Gas
Property: Molar enthalpy of vaporization or sublimation, kJ/mol (Liquid); method: Derived by Second law
Temperature, K	Molar enthalpy of vaporization or sublimation, kJ/mol	uncertainty
432.8	185.3	2.4

System: tetraoctylphosphonium chloride; phases: Liquid, Gas
Property: Vapor or sublimation pressure, kPa (Liquid); method: Rate of evaporation
Temperature, K	Vapor or sublimation pressure, kPa	uncertainty
455.89	4.6e-08	4.6e-08
450.84	2.6e-08	2.6e-08
445.8	1.5e-08	1.5e-08
440.77	8.8e-09	8.8e-09
435.74	5e-09	5e-09
430.73	2.7e-09	2.7e-09
425.8	1.5e-09	1.5e-09
420.79	7.9e-10	8.1e-10
415.87	4.2e-10	4.5e-10
410.9	2.3e-10	2.8e-10
453.31	3.9e-08	3.9e-08
448.27	2.1e-08	2.1e-08
443.21	1.2e-08	1.2e-08
438.21	6.7e-09	6.7e-09
433.18	3.8e-09	3.8e-09
428.2	2e-09	2e-09
423.23	1e-09	1e-09
418.26	5.5e-10	5.8e-10
413.32	2.9e-10	3.3e-10
408.38	1.5e-10	2.1e-10
458.4	6.2e-08	6.2e-08
453.36	3.4e-08	3.4e-08
448.33	2e-08	2e-08
443.3	1.2e-08	1.2e-08
438.28	6.6e-09	6.6e-09
433.31	3.7e-09	3.7e-09
428.36	2e-09	2e-09
423.41	1.2e-09	1.2e-09
418.44	5.9e-10	6.2e-10
413.46	3.3e-10	3.7e-10

System: tetrahexylphosphonium bromide; phases: Liquid, Gas
Property: Molar enthalpy of vaporization or sublimation, kJ/mol (Liquid); method: Derived by Second law
Temperature, K	Molar enthalpy of vaporization or sublimation, kJ/mol	uncertainty
425.8	165	2.1

System: tetrahexylphosphonium bromide; phases: Liquid, Gas
Property: Vapor or sublimation pressure, kPa (Liquid); method: Rate of evaporation
Temperature, K	Vapor or sublimation pressure, kPa	uncertainty
445.79	5.8e-08	5.8e-08
440.77	3.4e-08	3.4e-08
435.75	2e-08	2e-08
430.73	1.2e-08	1.2e-08
425.75	6.8e-09	6.8e-09
420.76	3.9e-09	3.9e-09
415.78	2.3e-09	2.3e-09
410.82	1.3e-09	1.3e-09
405.87	6.7e-10	7e-10
400.93	3.7e-10	4.1e-10
448.3	7.2e-08	7.2e-08
443.29	4.3e-08	4.3e-08
438.25	2.6e-08	2.6e-08
433.24	1.5e-08	1.5e-08
428.22	8.9e-09	8.9e-09
423.23	5.4e-09	5.4e-09
418.27	2.9e-09	2.9e-09
413.3	1.7e-09	1.7e-09
408.37	9.4e-10	9.6e-10
403.43	5e-10	5.3e-10
450.8	9.1e-08	9.1e-08
445.74	5.5e-08	5.5e-08
440.7	3.3e-08	3.3e-08
435.67	2e-08	2e-08
430.66	1.2e-08	1.2e-08
425.66	6.9e-09	6.9e-09
420.69	4.2e-09	4.2e-09
415.71	2.1e-09	2.1e-09
410.79	1.2e-09	1.2e-09
405.87	6.9e-10	7.2e-10
448.31	7.1e-08	7.1e-08
443.24	4.2e-08	4.2e-08
438.21	2.5e-08	2.5e-08
433.18	1.5e-08	1.5e-08
428.16	8.8e-09	8.8e-09
423.16	5.2e-09	5.2e-09
418.18	2.9e-09	2.9e-09
413.22	1.7e-09	1.7e-09
408.28	9.5e-10	9.7e-10
403.37	5.3e-10	5.6e-10
450.81	9e-08	9e-08
445.75	5.5e-08	5.5e-08
440.72	3.3e-08	3.3e-08
435.68	2e-08	2e-08
430.66	1.1e-08	1.1e-08
425.67	6.8e-09	6.8e-09
420.69	4e-09	4e-09
415.72	2.2e-09	2.2e-09
410.8	1.3e-09	1.3e-09
405.87	7.2e-10	7.5e-10

System: trihexylpentylphosphonium hexafluorophosphate; phases: Liquid, Gas
Property: Molar enthalpy of vaporization or sublimation, kJ/mol (Liquid); method: Derived by Second law
Temperature, K	Molar enthalpy of vaporization or sublimation, kJ/mol	uncertainty
426.5	163.6	2.1

System: trihexylpentylphosphonium hexafluorophosphate; phases: Liquid, Gas
Property: Vapor or sublimation pressure, kPa (Liquid); method: Rate of evaporation
Temperature, K	Vapor or sublimation pressure, kPa	uncertainty
448.25	6.5e-08	6.5e-08
443.21	3.9e-08	3.9e-08
438.17	2.4e-08	2.4e-08
433.15	1.4e-08	1.4e-08
428.15	8.5e-09	8.5e-09
423.13	4.8e-09	4.8e-09
418.15	2.8e-09	2.8e-09
413.19	1.6e-09	1.6e-09
408.27	8.8e-10	9e-10
403.41	5e-10	5.3e-10
450.79	8.3e-08	8.3e-08
445.73	5.1e-08	5.1e-08
440.7	3.1e-08	3.1e-08
435.65	1.8e-08	1.8e-08
430.63	1.1e-08	1.1e-08
425.62	6.5e-09	6.5e-09
420.65	3.7e-09	3.7e-09
415.69	2.1e-09	2.1e-09
410.78	1.2e-09	1.2e-09
405.89	6.6e-10	6.9e-10

System: tetrahexylphosphonium hexafluorophosphate; phases: Liquid, Gas
Property: Molar enthalpy of vaporization or sublimation, kJ/mol (Liquid); method: Derived by Second law
Temperature, K	Molar enthalpy of vaporization or sublimation, kJ/mol	uncertainty
426.3	169.8	2.2

System: tetrahexylphosphonium hexafluorophosphate; phases: Liquid, Gas
Property: Molar enthalpy of vaporization or sublimation, kJ/mol (Liquid); method: Derived by Second law
Temperature, K	Molar enthalpy of vaporization or sublimation, kJ/mol	uncertainty
562.4	136.9	10.1

System: tetrahexylphosphonium hexafluorophosphate; phases: Liquid, Gas
Property: Vapor or sublimation pressure, kPa (Liquid); method: Rate of evaporation
Temperature, K	Vapor or sublimation pressure, kPa	uncertainty
451.57	1.23e-07	1.23e-07
445.73	6.7e-08	6.7e-08
440.69	4e-08	4e-08
435.66	2.4e-08	2.4e-08
430.65	1.4e-08	1.4e-08
415.59	2.4e-09	2.4e-09
410.61	1.3e-09	1.3e-09
405.65	7e-10	7.3e-10
400.74	3.8e-10	4.2e-10
395.83	2e-10	2.5e-10
453.41	1.42e-07	1.42e-07
448.28	8.5e-08	8.5e-08
443.24	5e-08	5e-08
438.23	3.1e-08	3.1e-08
433.2	1.8e-08	1.8e-08
428.21	1e-08	1e-08
423.24	5.9e-09	5.9e-09
418.31	3.4e-09	3.4e-09
413.37	1.9e-09	1.9e-09
408.42	1e-09	1e-09

System: trihexylheptylphosphonium hexafluorophosphate; phases: Liquid, Gas
Property: Molar enthalpy of vaporization or sublimation, kJ/mol (Liquid); method: Derived by Second law
Temperature, K	Molar enthalpy of vaporization or sublimation, kJ/mol	uncertainty
429	168.8	2.2

System: trihexylheptylphosphonium hexafluorophosphate; phases: Liquid, Gas
Property: Vapor or sublimation pressure, kPa (Liquid); method: Rate of evaporation
Temperature, K	Vapor or sublimation pressure, kPa	uncertainty
450.97	5.3e-08	5.3e-08
445.74	3.1e-08	3.1e-08
440.7	1.9e-08	1.9e-08
435.68	1.1e-08	1.1e-08
430.66	6.5e-09	6.5e-09
425.68	3.8e-09	3.8e-09
420.69	2.2e-09	2.2e-09
415.74	1.2e-09	1.2e-09
410.8	6.7e-10	7e-10
405.87	3.6e-10	4e-10
453.32	6.9e-08	6.9e-08
448.28	4.2e-08	4.2e-08
443.24	2.5e-08	2.5e-08
438.21	1.5e-08	1.5e-08
433.19	8.4e-09	8.4e-09
428.2	4.9e-09	4.9e-09
423.22	2.8e-09	2.8e-09
418.27	1.6e-09	1.6e-09
413.34	9e-10	9.2e-10
408.4	4.9e-10	5.2e-10

System: trihexyloctylphosphonium hexafluorophosphate; phases: Liquid, Gas
Property: Molar enthalpy of vaporization or sublimation, kJ/mol (Liquid); method: Derived by Second law
Temperature, K	Molar enthalpy of vaporization or sublimation, kJ/mol	uncertainty
432	171.2	2.2

System: trihexyloctylphosphonium hexafluorophosphate; phases: Liquid, Gas
Property: Vapor or sublimation pressure, kPa (Liquid); method: Rate of evaporation
Temperature, K	Vapor or sublimation pressure, kPa	uncertainty
453.43	5.1e-08	5.1e-08
448.39	3e-08	3e-08
443.39	1.8e-08	1.8e-08
438.4	1.1e-08	1.1e-08
433.38	6.1e-09	6.1e-09
428.38	3.6e-09	3.6e-09
423.37	2e-09	2e-09
418.37	1.1e-09	1.1e-09
413.36	6.3e-10	6.6e-10
408.34	3.4e-10	3.8e-10
455.85	6.4e-08	6.4e-08
450.8	3.8e-08	3.8e-08
445.76	2.3e-08	2.3e-08
440.74	1.4e-08	1.4e-08
435.72	8e-09	8e-09
430.81	4.7e-09	4.7e-09
425.75	2.7e-09	2.7e-09
420.79	1.5e-09	1.5e-09
415.82	8.4e-10	8.6e-10
410.85	4.4e-10	4.7e-10
455.83	6.5e-08	6.5e-08
450.79	3.9e-08	3.9e-08
445.76	2.3e-08	2.3e-08
440.74	1.4e-08	1.4e-08
435.73	7.9e-09	7.9e-09
430.75	4.6e-09	4.6e-09
425.79	2.7e-09	2.7e-09
420.83	1.5e-09	1.5e-09
415.89	8e-10	8.2e-10
410.96	4.8e-10	5.1e-10

System: trihexylheptylphosphonium bis(trifluoromethanesulfonyl)imide; phases: Liquid, Gas
Property: Molar enthalpy of vaporization or sublimation, kJ/mol (Liquid); method: Derived by Second law
Temperature, K	Molar enthalpy of vaporization or sublimation, kJ/mol	uncertainty
431.7	171	2.2

System: trihexylheptylphosphonium bis(trifluoromethanesulfonyl)imide; phases: Liquid, Gas
Property: Vapor or sublimation pressure, kPa (Liquid); method: Rate of evaporation
Temperature, K	Vapor or sublimation pressure, kPa	uncertainty
453.59	9.5e-08	9.5e-08
448.56	5.8e-08	5.8e-08
443.58	3.4e-08	3.4e-08
438.58	2e-08	2e-08
433.58	1.2e-08	1.2e-08
428.58	6.7e-09	6.7e-09
423.58	3.8e-09	3.8e-09
418.57	2.1e-09	2.1e-09
413.56	1.1e-09	1.1e-09
408.53	6.2e-10	6.5e-10
455.88	1.16e-07	1.16e-07
450.83	7e-08	7e-08
445.8	4.2e-08	4.2e-08
440.78	2.5e-08	2.5e-08
435.79	1.5e-08	1.5e-08
430.8	8.5e-09	8.5e-09
425.82	4.9e-09	4.9e-09
420.85	2.8e-09	2.8e-09
415.89	1.6e-09	1.6e-09
410.91	8.8e-10	9e-10
