Measured thermophysical data. Study of surface tension and surface properties of binary systems of DMSO with long chain alcohols at various temperatures
Source: J. Chem. Thermodyn., 2013, 10.1016/j.jct.2013.04.009
Compound 1: dimethyl sulfoxide, C2H6OS, InChI=1S/C2H6OS/c1-4(2)3/h1-2H3, purity 99.5%
Compound 2: propan-1-ol, C3H8O, InChI=1S/C3H8O/c1-2-3-4/h4H,2-3H2,1H3, purity 99.8%
Compound 3: butan-1-ol, C4H10O, InChI=1S/C4H10O/c1-2-3-4-5/h5H,2-4H2,1H3, purity 99.8%
Compound 4: hexan-1-ol, C6H14O, InChI=1S/C6H14O/c1-2-3-4-5-6-7/h7H,2-6H2,1H3, purity 99.5%

System: dimethyl sulfoxide; phases: Liquid, Air at 1 atmosphere
Property: Surface tension liquid-gas, N/m (Liquid); method: Ring tensiometer
Temperature, K	Surface tension liquid-gas, N/m	uncertainty
288.15	0.043681	0.001139
298.15	0.042179	0.001131
308.15	0.041111	0.001126
318.15	0.039994	0.00112
328.15	0.038722	0.001114

System: propan-1-ol; phases: Liquid, Air at 1 atmosphere
Property: Surface tension liquid-gas, N/m (Liquid); method: Ring tensiometer
Temperature, K	Surface tension liquid-gas, N/m	uncertainty
288.15	0.023242	0.001049
298.15	0.022497	0.001047
308.15	0.02139	0.001044
318.15	0.020878	0.001042
328.15	0.020176	0.00104

System: butan-1-ol; phases: Liquid, Air at 1 atmosphere
Property: Surface tension liquid-gas, N/m (Liquid); method: Ring tensiometer
Temperature, K	Surface tension liquid-gas, N/m	uncertainty
288.15	0.024281	0.001053
298.15	0.023476	0.00105
308.15	0.022401	0.001047
318.15	0.021641	0.001044
328.15	0.020564	0.001041

System: hexan-1-ol; phases: Liquid, Air at 1 atmosphere
Property: Surface tension liquid-gas, N/m (Liquid); method: Ring tensiometer
Temperature, K	Surface tension liquid-gas, N/m	uncertainty
288.15	0.02538	0.001058
298.15	0.024511	0.001055
308.15	0.023861	0.001053
318.15	0.023018	0.00105
328.15	0.022331	0.001048

System: dimethyl sulfoxide + propan-1-ol; phases: Liquid, Air at 1 atmosphere
Property: Surface tension liquid-gas, N/m (Liquid); method: Ring tensiometer
Temperature, K	Mole fraction of propan-1-ol	Surface tension liquid-gas, N/m	uncertainty
288.15	0.0454	0.040301	0.001122
288.15	0.1248	0.036242	0.001102
288.15	0.2498	0.033088	0.001088
288.15	0.3821	0.030096	0.001075
288.15	0.4997	0.028345	0.001068
288.15	0.5959	0.027137	0.001063
288.15	0.661	0.026325	0.00106
288.15	0.7081	0.025712	0.001058
288.15	0.7437	0.025255	0.001056
288.15	0.8523	0.024276	0.001053
288.15	0.9519	0.023549	0.00105
298.15	0.0454	0.039389	0.001117
298.15	0.1248	0.035905	0.0011
298.15	0.2498	0.032368	0.001085
298.15	0.3821	0.029483	0.001073
298.15	0.4997	0.027811	0.001066
298.15	0.5959	0.026344	0.00106
298.15	0.661	0.025696	0.001058
298.15	0.7081	0.025168	0.001056
298.15	0.7437	0.024742	0.001055
298.15	0.8523	0.023498	0.00105
298.15	0.9519	0.022576	0.001047
308.15	0.0454	0.03785	0.00111
308.15	0.1248	0.034144	0.001093
308.15	0.2498	0.031056	0.001079
308.15	0.3821	0.028963	0.00107
308.15	0.4997	0.027057	0.001063
308.15	0.5959	0.025669	0.001058
308.15	0.661	0.024604	0.001054
308.15	0.7081	0.024414	0.001054
308.15	0.7437	0.023969	0.001052
308.15	0.8523	0.022892	0.001048
308.15	0.9519	0.022132	0.001046
318.15	0.0454	0.03689	0.001105
318.15	0.1248	0.033792	0.001091
318.15	0.2498	0.030955	0.001079
318.15	0.3821	0.028334	0.001068
318.15	0.4997	0.026407	0.001061
318.15	0.5959	0.02502	0.001056
318.15	0.661	0.02415	0.001053
318.15	0.7081	0.023646	0.001051
318.15	0.7437	0.023153	0.001049
318.15	0.8523	0.022345	0.001047
318.15	0.9519	0.021498	0.001044
328.15	0.0454	0.036639	0.001104
328.15	0.1248	0.033374	0.001089
328.15	0.2498	0.030075	0.001075
328.15	0.3821	0.027005	0.001063
328.15	0.4997	0.025497	0.001058
328.15	0.5959	0.024152	0.001053
328.15	0.661	0.023354	0.00105
328.15	0.7081	0.022766	0.001048
328.15	0.7437	0.02245	0.001047
328.15	0.8523	0.021641	0.001044
328.15	0.9519	0.020278	0.00104

System: dimethyl sulfoxide + butan-1-ol; phases: Liquid, Air at 1 atmosphere
Property: Surface tension liquid-gas, N/m (Liquid); method: Ring tensiometer
Temperature, K	Mole fraction of butan-1-ol	Surface tension liquid-gas, N/m	uncertainty
288.15	0.0373	0.039628	0.001118
288.15	0.1042	0.036299	0.001102
288.15	0.2136	0.032333	0.001084
288.15	0.3353	0.03013	0.001075
288.15	0.449	0.028568	0.001069
288.15	0.5461	0.02741	0.001064
288.15	0.614	0.02665	0.001061
288.15	0.6643	0.026176	0.00106
288.15	0.703	0.025775	0.001058
288.15	0.8512	0.025135	0.001056
288.15	0.9521	0.024575	0.001054
298.15	0.0373	0.038434	0.001113
298.15	0.1042	0.03544	0.001098
298.15	0.2136	0.03203	0.001083
298.15	0.3353	0.029721	0.001074
298.15	0.449	0.02792	0.001066
298.15	0.5461	0.026739	0.001062
298.15	0.614	0.026057	0.001059
298.15	0.6643	0.025554	0.001057
298.15	0.703	0.025172	0.001056
298.15	0.8512	0.024335	0.001053
298.15	0.9521	0.023975	0.001052
308.15	0.0373	0.038162	0.001111
308.15	0.1042	0.034433	0.001094
308.15	0.2136	0.030374	0.001076
308.15	0.3353	0.028825	0.00107
308.15	0.449	0.02716	0.001064
308.15	0.5461	0.025984	0.001059
308.15	0.614	0.025265	0.001057
308.15	0.6643	0.024843	0.001055
308.15	0.703	0.024409	0.001054
308.15	0.8512	0.023413	0.00105
308.15	0.9521	0.022676	0.001048
318.15	0.0373	0.036844	0.001105
318.15	0.1042	0.033544	0.00109
318.15	0.2136	0.030788	0.001078
318.15	0.3353	0.028062	0.001067
318.15	0.449	0.026613	0.001062
318.15	0.5461	0.025327	0.001057
318.15	0.614	0.02455	0.001054
318.15	0.6643	0.023983	0.001052
318.15	0.703	0.023604	0.001051
318.15	0.8512	0.02228	0.001046
318.15	0.9521	0.021942	0.001045
328.15	0.0373	0.036192	0.001102
328.15	0.1042	0.032987	0.001088
328.15	0.2136	0.029373	0.001072
328.15	0.3353	0.027191	0.001064
328.15	0.449	0.025797	0.001059
328.15	0.5461	0.024353	0.001054
328.15	0.614	0.023849	0.001052
328.15	0.6643	0.023302	0.00105
328.15	0.703	0.022558	0.001047
328.15	0.8512	0.020856	0.001042
328.15	0.9521	0.020548	0.001041

System: dimethyl sulfoxide + hexan-1-ol; phases: Liquid, Air at 1 atmosphere
Property: Surface tension liquid-gas, N/m (Liquid); method: Ring tensiometer
Temperature, K	Mole fraction of hexan-1-ol	Surface tension liquid-gas, N/m	uncertainty
288.15	0.0276	0.038756	0.001114
288.15	0.0786	0.034218	0.001093
288.15	0.1661	0.031833	0.001083
288.15	0.2701	0.029827	0.001075
288.15	0.3741	0.028717	0.001071
288.15	0.4687	0.027907	0.001067
288.15	0.5385	0.027475	0.001066
288.15	0.5921	0.026992	0.001064
288.15	0.6345	0.026533	0.001062
288.15	0.7511	0.026004	0.00106
288.15	0.9512	0.025482	0.001058
298.15	0.0276	0.037645	0.001109
298.15	0.0786	0.033572	0.001091
298.15	0.1661	0.03074	0.001079
298.15	0.2701	0.029348	0.001073
298.15	0.3741	0.027945	0.001068
298.15	0.4687	0.027291	0.001065
298.15	0.5385	0.026833	0.001063
298.15	0.5921	0.026239	0.001061
298.15	0.6345	0.026063	0.001061
298.15	0.7511	0.025853	0.00106
298.15	0.9512	0.0251	0.001057
308.15	0.0276	0.037531	0.001108
308.15	0.0786	0.034039	0.001093
308.15	0.1661	0.030979	0.00108
308.15	0.2701	0.028942	0.001071
308.15	0.3741	0.027681	0.001067
308.15	0.4687	0.026702	0.001063
308.15	0.5385	0.02627	0.001061
308.15	0.5921	0.025853	0.00106
308.15	0.6345	0.025618	0.001059
308.15	0.7511	0.0252	0.001057
308.15	0.9512	0.02475	0.001056
318.15	0.0276	0.036731	0.001105
318.15	0.0786	0.033386	0.00109
318.15	0.1661	0.030063	0.001076
318.15	0.2701	0.028155	0.001068
318.15	0.3741	0.026942	0.001064
318.15	0.4687	0.026162	0.001061
318.15	0.5385	0.025565	0.001059
318.15	0.5921	0.025072	0.001057
318.15	0.6345	0.024718	0.001056
318.15	0.7511	0.024436	0.001055
318.15	0.9512	0.024137	0.001054
328.15	0.0276	0.035163	0.001098
328.15	0.0786	0.032703	0.001087
328.15	0.1661	0.028964	0.001071
328.15	0.2701	0.027548	0.001066
328.15	0.3741	0.026237	0.001061
328.15	0.4687	0.025356	0.001058
328.15	0.5385	0.025041	0.001057
328.15	0.5921	0.024287	0.001054
328.15	0.6345	0.024023	0.001053
328.15	0.7511	0.023836	0.001053
328.15	0.9512	0.023121	0.00105
