Measured thermophysical data. Enthalpy of absorption and limit of solubility of CO2 in aqueous solutions of 2-amino-2-hydroxymethyl-1,3-propanediol, 2-[2-(dimethyl-amino)ethoxy] ethanol, and 3-dimethyl-amino-1-propanol at T = (313.15 and 353.15) K and pressures up to 2 MPa
Source: J. Chem. Thermodyn., 2010, 10.1016/j.jct.2010.01.015
Compound 1: 2-amino-2-(hydroxymethyl)-1,3-propanediol, C4H11NO3, InChI=1S/C4H11NO3/c5-4(1-6,2-7)3-8/h6-8H,1-3,5H2
Compound 2: 2-(2-dimethylaminoethoxy)ethanol, C6H15NO2, InChI=1S/C6H15NO2/c1-7(2)3-5-9-6-4-8/h8H,3-6H2,1-2H3
Compound 3: 3-dimethylamino-1-propanol, C5H13NO, InChI=1S/C5H13NO/c1-6(2)4-3-5-7/h7H,3-5H2,1-2H3
Compound 4: carbon dioxide, CO2, InChI=1S/CO2/c2-1-3
Compound 5: water, H2O, InChI=1S/H2O/h1H2

System: 2-amino-2-(hydroxymethyl)-1,3-propanediol + carbon dioxide + water; phases: Liquid, Gas
Fixed: Amount concentration (molarity), mol/dm3 of 2-amino-2-(hydroxymethyl)-1,3-propanediol = 2.5
Property: Vapor or sublimation pressure, kPa (Liquid); method: Derived from calorimetric data
Temperature, K	Amount concentration (molarity), mol/dm3 of carbon dioxide	Vapor or sublimation pressure, kPa	uncertainty
313.15	1.1	620	280
313.15	1.25	1120	280
313.15	1.41	2170	1020
353.15	0.67	1040	210
353.15	1.02	2080	360

System: 2-amino-2-(hydroxymethyl)-1,3-propanediol + carbon dioxide + water; phases: Liquid
Fixed: Amount concentration (molarity), mol/dm3 of 2-amino-2-(hydroxymethyl)-1,3-propanediol = 2.5
Property: Molar enthalpy of solution, kJ/mol (Liquid); method: Calvet calorimetry
Temperature, K	Pressure, kPa	Amount concentration (molarity), mol/dm3 of carbon dioxide	Molar enthalpy of solution, kJ/mol	uncertainty
313.15	620	0.685	-59.1	0.7
313.15	620	1.16	-58.9	0.5
313.15	620	1.653	-59.1	0.6
313.15	620	2.123	-60.2	0.7
313.15	620	2.638	-59	0.6
313.15	620	3.01	-52.8	0.6
313.15	620	3.595	-43.7	0.6
313.15	620	4.95	-31.3	0.7
313.15	620	6.695	-23.1	0.8
313.15	1120	0.843	-60	2.1
313.15	1120	1.335	-59.2	4.6
313.15	1120	1.453	-57.2	0.6
313.15	1120	1.723	-60.5	1.2
313.15	1120	2.223	-59.6	2.8
313.15	1120	2.415	-56.7	0.5
313.15	1120	2.775	-56.8	0.6
313.15	1120	3.145	-55.1	0.5
313.15	1120	3.17	-52.6	0.7
313.15	1120	3.598	-47.5	0.5
313.15	1120	4.188	-41.7	0.4
313.15	1120	4.195	-40.5	0.5
313.15	1120	4.563	-37.3	0.5
313.15	1120	5.105	-34	0.5
313.15	1120	5.968	-28.9	0.5
313.15	2170	0.843	-60	2.1
313.15	2170	1.413	-61.8	1
313.15	2170	1.455	-59.7	1.2
313.15	2170	1.69	-60.7	1.1
313.15	2170	1.848	-58.6	2.5
313.15	2170	2.13	-62	1.6
313.15	2170	2.39	-61.6	9.9
313.15	2170	2.713	-60.4	1.3
313.15	2170	2.9	-58.8	0.6
313.15	2170	3.233	-54.4	0.9
313.15	2170	3.828	-47	0.5
313.15	2170	4.668	-38.6	0.4
313.15	2170	6.373	-28.2	0.5
353.15	1050	0.401	-62.5	0.6
353.15	1050	0.431	-63.1	0.8
353.15	1050	0.451	-62.6	0.6
353.15	1050	0.468	-62.8	0.8
353.15	1050	0.52	-62	1.1
353.15	1050	0.579	-59.5	2.9
353.15	1050	0.674	-54.9	1.9
353.15	1050	0.763	-49.5	1.2
353.15	1050	0.885	-41.5	0.8
353.15	1050	1.013	-35.8	0.9
353.15	1050	1.178	-31	0.5
353.15	1050	1.363	-26.5	0.5
353.15	1050	1.574	-22.5	0.5
353.15	2080	0.355	-63.4	0.8
353.15	2080	0.364	-63.1	0.8
353.15	2080	0.4	-62.9	0.8
353.15	2080	0.444	-65.7	0.7
353.15	2080	0.5	-64.4	0.8
353.15	2080	0.533	-62.1	0.8
353.15	2080	0.8	-49.8	0.7
353.15	2080	0.942	-43.7	0.7
353.15	2080	1.003	-42.3	1.8
353.15	2080	1.142	-38.7	0.6
353.15	2080	1.2	-36.9	0.5
353.15	2080	1.371	-32.5	0.5
353.15	2080	1.504	-29.4	0.5
353.15	2080	1.6	-26.6	0.4
353.15	2080	1.878	-22.8	0.3
353.15	2080	2.107	-21.2	0.3
353.15	2080	2.253	-19.1	0.3
353.15	2080	2.429	-18.2	0.3
353.15	2080	2.565	-16.6	0.3
353.15	2080	3.142	-13.7	0.2
353.15	2080	1.2	-36	0.5

System: carbon dioxide + 2-(2-dimethylaminoethoxy)ethanol + water; phases: Liquid, Gas
Fixed: Amount concentration (molarity), mol/dm3 of 2-(2-dimethylaminoethoxy)ethanol = 2.5
Property: Vapor or sublimation pressure, kPa (Liquid); method: Derived from calorimetric data
Temperature, K	Amount concentration (molarity), mol/dm3 of carbon dioxide	Vapor or sublimation pressure, kPa	uncertainty
313.15	2.625	530	300
313.15	2.85	1040	280
313.15	3	2070	440
353.15	1.925	570	410
353.15	2.125	1040	240
353.15	2.475	2030	350

System: carbon dioxide + 2-(2-dimethylaminoethoxy)ethanol + water; phases: Liquid
Fixed: Amount concentration (molarity), mol/dm3 of 2-(2-dimethylaminoethoxy)ethanol = 2.5
Property: Molar enthalpy of solution, kJ/mol (Liquid); method: Calvet calorimetry
Temperature, K	Pressure, kPa	Amount concentration (molarity), mol/dm3 of carbon dioxide	Molar enthalpy of solution, kJ/mol	uncertainty
313.15	530	0.768	-64.3	2
313.15	530	0.92	-66.4	0.9
313.15	530	1.238	-64.2	2.5
313.15	530	1.458	-64.9	0.7
313.15	530	1.703	-65.9	0.7
313.15	530	1.808	-65.1	1.8
313.15	530	1.883	-64.6	2
313.15	530	1.958	-67	1
313.15	530	2.265	-64.1	0.7
313.15	530	2.5	-60.8	0.7
313.15	530	2.605	-58.8	0.8
313.15	530	2.68	-56.9	0.7
313.15	530	2.763	-55.6	0.7
313.15	530	2.993	-51.4	0.7
313.15	530	3.288	-46.6	0.7
313.15	1060	1.56	-65	2
313.15	1060	1.583	-66.4	1.9
313.15	1060	1.703	-65.2	0.7
313.15	1060	1.705	-65.1	0.8
313.15	1060	1.835	-64	1
313.15	1060	1.925	-65	2.4
313.15	1060	2.02	-63.6	4
313.15	1060	2.055	-65.4	4.1
313.15	1060	2.143	-63.6	0.8
313.15	1060	2.31	-64.5	2.6
313.15	1060	2.343	-65.9	1.2
313.15	1060	2.415	-64.7	1
313.15	1060	2.728	-63.3	2.2
313.15	1060	2.783	-62	0.7
313.15	1060	2.843	-60.8	1.2
313.15	1060	3.118	-56.9	0.6
313.15	1060	3.553	-48.4	0.5
313.15	1060	3.763	-47.2	0.5
313.15	1060	4.283	-40.1	0.4
313.15	1060	4.498	-37.7	0.4
313.15	1060	5.453	-31.7	0.3
313.15	1060	5.508	-32	0.4
313.15	2070	1.833	-63.5	0.7
313.15	2070	1.883	-64	0.6
313.15	2070	1.963	-63.2	0.6
313.15	2070	2.03	-63.4	0.6
313.15	2070	2.255	-62.7	2.2
313.15	2070	2.48	-62.1	0.8
313.15	2070	2.678	-62.1	0.8
313.15	2070	2.72	-62.2	0.7
313.15	2070	2.958	-58.1	0.5
313.15	2070	3.07	-56.1	0.6
313.15	2070	3.268	-54.1	0.5
313.15	2070	3.49	-49.7	0.5
313.15	2070	3.683	-48	0.4
313.15	2070	3.905	-44.6	0.5
313.15	2070	4.065	-43.5	0.4
313.15	2070	4.29	-41.5	0.4
313.15	2070	4.508	-39.4	0.3
313.15	2070	5.09	-34.5	0.3
313.15	2070	5.79	-30.7	0.3
313.15	2070	6.59	-26.6	0.3
313.15	2070	7.445	-23.9	0.2
353.15	570	0.728	-68	1.7
353.15	570	0.973	-68.4	2.5
353.15	570	1.22	-68.5	2.9
353.15	570	1.468	-66.8	3.3
353.15	570	1.478	-66.4	1.7
353.15	570	1.64	-67.6	1.1
353.15	570	1.845	-66.2	0.9
353.15	570	2.11	-62.3	0.9
353.15	570	2.2	-59.2	1.2
353.15	570	2.46	-53.2	0.8
353.15	570	3.255	-39.9	0.6
353.15	570	4.258	-30.5	0.5
353.15	570	4.758	-27.3	0.4
353.15	1040	1.14	-66.3	0.7
353.15	1040	1.228	-65.8	0.8
353.15	1040	1.31	-65	0.7
353.15	1040	1.395	-64.6	0.7
353.15	1040	1.478	-64	0.7
353.15	1040	1.555	-64.1	0.7
353.15	1040	1.768	-64	0.8
353.15	1040	1.933	-65.8	0.6
353.15	1040	2.01	-64.2	0.6
353.15	1040	2.125	-61.8	0.7
353.15	1040	2.198	-62.3	1.3
353.15	1040	2.555	-52.8	0.7
353.15	1040	2.618	-51.9	0.7
353.15	1040	2.898	-47.4	0.5
353.15	1040	3.093	-44.7	0.7
353.15	2030	1.498	-63.1	0.6
353.15	2030	1.628	-63.6	0.6
353.15	2030	1.79	-63.6	0.7
353.15	2030	1.873	-63.2	0.7
353.15	2030	1.878	-63.4	0.7
353.15	2030	2.105	-62.6	0.8
353.15	2030	2.143	-64.9	1.2
353.15	2030	2.335	-62.5	0.5
353.15	2030	2.463	-60.3	2.2
353.15	2030	2.803	-54	0.5
353.15	2030	3.273	-46.2	0.4
353.15	2030	3.72	-40.6	0.4
353.15	2030	4.168	-36.1	0.3
353.15	2030	4.475	-34.2	0.3
353.15	2030	5.53	-26.9	0.2
353.15	2030	7.305	-20.5	0.2

System: carbon dioxide + 3-dimethylamino-1-propanol + water; phases: Liquid, Gas
Fixed: Amount concentration (molarity), mol/dm3 of 3-dimethylamino-1-propanol = 2.5
Property: Vapor or sublimation pressure, kPa (Liquid); method: Derived from calorimetric data
Temperature, K	Amount concentration (molarity), mol/dm3 of carbon dioxide	Vapor or sublimation pressure, kPa	uncertainty
313.15	2.95	520	250
313.15	3.3	1070	1030
313.15	3.45	2100	250
353.15	2.125	480	310
353.15	2.375	1070	920
353.15	2.65	2040	570

System: carbon dioxide + 3-dimethylamino-1-propanol + water; phases: Liquid
Fixed: Amount concentration (molarity), mol/dm3 of 3-dimethylamino-1-propanol = 2.5
Property: Molar enthalpy of solution, kJ/mol (Liquid); method: Calvet calorimetry
Temperature, K	Pressure, kPa	Amount concentration (molarity), mol/dm3 of carbon dioxide	Molar enthalpy of solution, kJ/mol	uncertainty
313.15	520	1.558	-58.8	2
313.15	520	1.908	-59.1	1.6
313.15	520	1.958	-57.9	1.4
313.15	520	2.238	-57.8	1.4
313.15	520	2.423	-57.6	1
313.15	520	2.92	-57.9	1.2
313.15	520	2.983	-57.2	1.8
313.15	520	3.975	-41.9	1.3
313.15	520	4.67	-36.5	1
313.15	520	5.683	-29.7	1
313.15	1070	1.128	-61.7	5.6
313.15	1070	1.335	-63.3	2.4
313.15	1070	1.603	-60.3	0.6
313.15	1070	1.768	-62.7	1.1
313.15	1070	1.858	-59.4	1
313.15	1070	2.26	-59.6	1.5
313.15	1070	2.63	-55.8	0.8
313.15	1070	3.135	-52.6	0.7
313.15	1070	3.493	-48.9	0.8
313.15	1070	4	-43.4	0.7
313.15	1070	4.788	-36	0.5
313.15	1070	6.055	-28.4	0.6
313.15	1070	6.665	-25.9	0.4
313.15	1070	7.953	-21.7	0.7
313.15	2100	1.285	-64.5	0.6
313.15	2100	1.555	-62.5	0.6
313.15	2100	1.753	-62.1	1.9
313.15	2100	1.895	-64.7	0.6
313.15	2100	2.173	-63.2	0.9
313.15	2100	2.388	-62.2	0.7
313.15	2100	2.663	-57.2	0.6
313.15	2100	2.833	-59.6	0.6
313.15	2100	3.04	-56.1	1.2
313.15	2100	3.468	-49.9	0.6
313.15	2100	3.78	-46	0.5
313.15	2100	4.983	-34.9	0.5
313.15	2100	5.69	-30.5	0.4
313.15	2100	9.185	-18.9	0.5
353.15	480	0.795	-72.3	1
353.15	480	0.988	-72.5	1.3
353.15	480	1.318	-72.6	0.9
353.15	480	1.53	-71.4	0.9
353.15	480	2.083	-68	1.1
353.15	480	2.458	-59.5	1.7
353.15	480	2.538	-57.6	1.2
353.15	480	2.678	-55.4	1.6
353.15	480	2.84	-51.7	1.8
353.15	480	3.058	-46.4	1.9
353.15	480	3.258	-43.6	1.3
353.15	480	3.578	-41.1	1.1
353.15	480	4.018	-33.7	1.1
353.15	480	5.008	-27	1.6
353.15	480	5.038	-27.4	1.5
353.15	480	5.873	-22.7	0.9
353.15	1070	0.818	-68	1.1
353.15	1070	0.933	-70.5	1.1
353.15	1070	1.09	-71.4	1.1
353.15	1070	1.545	-71	1.1
353.15	1070	1.77	-69.2	1
353.15	1070	1.928	-69	1.1
353.15	1070	2.198	-69.9	0.9
353.15	1070	2.538	-63	1.1
353.15	1070	2.798	-57.2	1
353.15	1070	3.133	-51	1
353.15	1070	3.295	-47.4	0.8
353.15	1070	3.355	-47.5	0.7
353.15	1070	3.653	-42.3	0.8
353.15	1070	3.968	-39.7	3.2
353.15	1070	3.993	-39.5	3.6
353.15	1070	4.613	-33.8	0.4
353.15	1070	7.023	-21.5	0.4
353.15	1070	9.715	-15.3	0.3
353.15	2040	0.69	-68	0.7
353.15	2040	0.775	-69.3	0.8
353.15	2040	1.13	-71.3	0.7
353.15	2040	1.24	-71.4	0.8
353.15	2040	1.32	-68.9	1.1
353.15	2040	1.405	-70.5	0.8
353.15	2040	1.465	-72	1.1
353.15	2040	1.573	-70.2	0.7
353.15	2040	1.74	-69.9	0.7
353.15	2040	2.113	-65.8	1.8
353.15	2040	2.248	-63.8	1.1
353.15	2040	2.73	-60.2	0.7
353.15	2040	3.033	-53.1	1
353.15	2040	3.17	-50.5	0.8
353.15	2040	4.04	-40.5	0.8
353.15	2040	4.238	-37.6	0.6
353.15	2040	4.478	-35.8	0.4
353.15	2040	4.64	-34.7	0.5
353.15	2040	4.685	-33.9	0.9
353.15	2040	5.14	-30.3	0.4
353.15	2040	5.3	-30.3	0.4
353.15	2040	5.723	-28	0.4
353.15	2040	6.11	-25.4	0.3
353.15	2040	7.103	-21.9	0.3
