Measured thermophysical data. Thermodynamic properties of electrolyte solutions. Compressibility studies in aqueous solutions of urayl nitrate
Source: J. Chem. Thermodyn., 2012, 10.1016/j.jct.2011.11.028
Compound 1: uranium(VI) dinitrate dioxide hexahydrate, H12N2O14U, InChI=1S/2NO3.6H2O.2O.U/c2*2-1(3)4;;;;;;;;;/h;;6*1H2;;;/q2*-1;;;;;;;2*-2;+6, purity 99%
Compound 2: water, H2O, InChI=1S/H2O/h1H2, purity 99.8%

System: water + uranium(VI) dinitrate dioxide hexahydrate; phases: Liquid
Fixed: Pressure, kPa = 101.3
Property: Speed of sound, m/s (Liquid); method: Sing-around technique in a fixed-path interferometer
Molality, mol/kg of uranium(VI) dinitrate dioxide hexahydrate	Temperature, K	Speed of sound, m/s	uncertainty
0	283.15	1447.29	1.15
0	288.15	1465.96	1.15
0	293.15	1482.38	1.14
0	298.15	1496.73	1.13
0	303.15	1509.17	1.13
0	308.15	1519.85	1.12
0	313.15	1528.89	1.12
0	318.15	1536.43	1.12
0	323.15	1542.57	1.12
0.0987	283.15	1437.8	1.14
0.0987	288.15	1456.27	1.15
0.0987	293.15	1471.9	1.14
0.0987	298.15	1485.88	1.13
0.0987	303.15	1497.74	1.13
0.0987	308.15	1507.77	1.12
0.0987	313.15	1516.34	1.12
0.0987	318.15	1523.24	1.12
0.0987	323.15	1529.18	1.12
0.2438	283.15	1429.28	1.15
0.2438	288.15	1446.61	1.15
0.2438	293.15	1461.35	1.14
0.2438	298.15	1474.66	1.14
0.2438	303.15	1485.88	1.13
0.2438	308.15	1495.05	1.13
0.2438	313.15	1503.29	1.13
0.2438	318.15	1509.69	1.12
0.2438	323.15	1514.89	1.13
0.4741	283.15	1419.3	1.15
0.4741	288.15	1434.88	1.16
0.4741	293.15	1448.19	1.15
0.4741	298.15	1460.19	1.15
0.4741	303.15	1470.4	1.14
0.4741	308.15	1478.74	1.14
0.4741	313.15	1485.91	1.14
0.4741	318.15	1491.58	1.14
0.4741	323.15	1495.69	1.14
0.9023	283.15	1409.76	1.17
0.9023	288.15	1422.49	1.17
0.9023	293.15	1433.22	1.17
0.9023	298.15	1442.57	1.17
0.9023	303.15	1450.7	1.17
0.9023	308.15	1457.23	1.16
0.9023	313.15	1462.7	1.16
0.9023	318.15	1466.72	1.16
0.9023	323.15	1469.58	1.17
1.286	283.15	1407.98	1.19
1.286	288.15	1418.05	1.19
1.286	293.15	1426.7	1.19
1.286	298.15	1433.87	1.19
1.286	303.15	1440.09	1.19
1.286	308.15	1445.26	1.19
1.286	313.15	1449.27	1.18
1.286	318.15	1452.15	1.18
1.286	323.15	1453.83	1.18
1.6436	283.15	1409.53	1.21
1.6436	288.15	1417.47	1.21
1.6436	293.15	1424.18	1.2
1.6436	298.15	1429.53	1.2
1.6436	303.15	1434.04	1.2
1.6436	308.15	1437.25	1.2
1.6436	313.15	1439.75	1.2
1.6436	318.15	1441.23	1.2
1.6436	323.15	1441.68	1.2
1.968	283.15	1412.28	1.22
1.968	288.15	1418.05	1.22
1.968	293.15	1423.43	1.22
1.968	298.15	1427.22	1.22
1.968	303.15	1430.12	1.22
1.968	308.15	1431.84	1.22
1.968	313.15	1433	1.22
1.968	318.15	1433.07	1.22
1.968	323.15	1432.17	1.22
2.2657	283.15	1414.86	1.23
2.2657	288.15	1419.14	1.23
2.2657	293.15	1423.21	1.23
2.2657	298.15	1425.73	1.23
2.2657	303.15	1427.46	1.23
2.2657	308.15	1427.97	1.23
2.2657	313.15	1427.8	1.23
2.2657	318.15	1426.85	1.23
2.2657	323.15	1424.77	1.23
2.5397	283.15	1417.3	1.24
2.5397	288.15	1420.13	1.24
2.5397	293.15	1422.82	1.24
2.5397	298.15	1423.93	1.24
2.5397	303.15	1424.17	1.24
2.5397	308.15	1423.45	1.24
2.7932	283.15	1418.95	1.25
2.7932	288.15	1420.64	1.25
2.7932	293.15	1422.19	1.25
2.7932	298.15	1422.15	1.25
