Measured thermophysical data. Measurement and modeling of the viscosity of (nitrogen + carbon dioxide) mixtures at temperatures from (253.15 to 473.15) K with pressures up to 2 MPa
Source: J. Chem. Thermodyn., 2018, 10.1016/j.jct.2018.01.015
Compound 1: carbon dioxide, CO2, InChI=1S/CO2/c2-1-3, purity 99.9995%
Compound 2: nitrogen, N2, InChI=1S/N2/c1-2, purity 99.9999%

System: nitrogen; phases: Gas
Property: Viscosity, Pa*s (Gas); method: rotating-body viscometer for gases
Temperature, K	Pressure, kPa	Viscosity, Pa*s	uncertainty
298.246	1000.1	1.7893e-05	2.5e-08
298.244	800.5	1.7854e-05	2.5e-08
298.246	600.2	1.7825e-05	2.5e-08
298.246	400.7	1.7797e-05	2.5e-08
298.246	200.5	1.7776e-05	2.5e-08
298.246	100.7	1.7766e-05	2.5e-08
323.263	1000.9	1.9007e-05	3.1e-08
323.259	800.2	1.8965e-05	3.1e-08
323.26	600.8	1.8956e-05	3.1e-08
323.26	400.4	1.8926e-05	3.1e-08
323.26	200.7	1.8898e-05	3.1e-08
323.261	100.6	1.8897e-05	3.1e-08
373.294	1807.2	2.1222e-05	3.1e-08
373.292	1500.6	2.1183e-05	3.1e-08
373.294	1000.3	2.1112e-05	3.1e-08
373.293	601	2.1074e-05	3.1e-08
373.294	401	2.1057e-05	3.1e-08
373.293	201.1	2.1041e-05	3.1e-08
373.293	100.8	2.1023e-05	3.1e-08
423.334	1799.4	2.3185e-05	3.4e-08
423.333	1500.2	2.3155e-05	3.4e-08
423.332	1000.5	2.3112e-05	3.4e-08
423.332	600.6	2.3077e-05	3.4e-08
423.332	400.7	2.3065e-05	3.4e-08
423.333	200.9	2.3034e-05	3.4e-08
423.335	100.9	2.3024e-05	3.4e-08
473.382	1799.3	2.505e-05	3.6e-08
473.38	1500.6	2.5032e-05	3.6e-08
473.382	1000.7	2.499e-05	3.6e-08
473.381	600.9	2.4966e-05	3.6e-08
473.382	398.5	2.4965e-05	3.6e-08
473.38	200.8	2.4949e-05	3.6e-08
473.38	100.7	2.4935e-05	3.6e-08
253.209	1200.9	1.5837e-05	3e-08
253.21	1000.9	1.5792e-05	3e-08
253.21	800.8	1.5744e-05	3e-08
253.213	600.8	1.5706e-05	3e-08
253.21	400.7	1.5664e-05	3e-08
253.211	200.9	1.5636e-05	3e-08
253.21	100.8	1.5612e-05	3e-08
273.243	1499.8	1.6851e-05	3e-08
273.24	1000.6	1.6745e-05	3e-08
273.241	800.6	1.671e-05	3e-08
273.24	600.4	1.6674e-05	3e-08
273.239	400.5	1.6638e-05	3e-08
273.239	200.8	1.6615e-05	3e-08
273.24	100.7	1.6592e-05	3e-08
298.252	1500.2	1.7985e-05	2.5e-08
298.251	1000.1	1.7894e-05	2.5e-08
298.249	400.8	1.7799e-05	2.5e-08
298.249	99.6	1.7762e-05	2.5e-08
323.268	1802.1	1.9127e-05	3.1e-08
323.267	1501.9	1.9075e-05	3.1e-08
323.264	1000.6	1.9008e-05	3.1e-08
323.266	398.8	1.8929e-05	3.1e-08
323.265	101.5	1.8902e-05	3.1e-08

System: carbon dioxide + nitrogen; phases: Gas
Property: Viscosity, Pa*s (Gas); method: rotating-body viscometer for gases
Mole fraction of nitrogen	Temperature, K	Pressure, kPa	Viscosity, Pa*s	uncertainty
1	298.246	1000.1	1.7893e-05	2.5e-08
1	298.244	800.5	1.7854e-05	2.5e-08
1	298.246	600.2	1.7825e-05	2.5e-08
1	298.246	400.7	1.7797e-05	2.5e-08
1	298.246	200.5	1.7776e-05	2.5e-08
1	298.246	100.7	1.7766e-05	2.5e-08
1	323.263	1000.9	1.9007e-05	3.1e-08
1	323.259	800.2	1.8965e-05	3.1e-08
1	323.26	600.8	1.8956e-05	3.1e-08
1	323.26	400.4	1.8926e-05	3.1e-08
1	323.26	200.7	1.8898e-05	3.1e-08
1	323.261	100.6	1.8897e-05	3.1e-08
1	373.294	1807.2	2.1222e-05	3.1e-08
1	373.292	1500.6	2.1183e-05	3.1e-08
1	373.294	1000.3	2.1112e-05	3.1e-08
1	373.293	601	2.1074e-05	3.1e-08
1	373.294	401	2.1057e-05	3.1e-08
1	373.293	201.1	2.1041e-05	3.1e-08
1	373.293	100.8	2.1023e-05	3.1e-08
1	423.334	1799.4	2.3185e-05	3.4e-08
1	423.333	1500.2	2.3155e-05	3.4e-08
1	423.332	1000.5	2.3112e-05	3.4e-08
1	423.332	600.6	2.3077e-05	3.4e-08
1	423.332	400.7	2.3065e-05	3.4e-08
1	423.333	200.9	2.3034e-05	3.4e-08
1	423.335	100.9	2.3024e-05	3.4e-08
1	473.382	1799.3	2.505e-05	3.6e-08
1	473.38	1500.6	2.5032e-05	3.6e-08
1	473.382	1000.7	2.499e-05	3.6e-08
1	473.381	600.9	2.4966e-05	3.6e-08
1	473.382	398.5	2.4965e-05	3.6e-08
1	473.38	200.8	2.4949e-05	3.6e-08
1	473.38	100.7	2.4935e-05	3.6e-08
1	253.209	1200.9	1.5837e-05	3e-08
1	253.21	1000.9	1.5792e-05	3e-08
1	253.21	800.8	1.5744e-05	3e-08
1	253.213	600.8	1.5706e-05	3e-08
1	253.21	400.7	1.5664e-05	3e-08
1	253.211	200.9	1.5636e-05	3e-08
1	253.21	100.8	1.5612e-05	3e-08
1	273.243	1499.8	1.6851e-05	3e-08
1	273.24	1000.6	1.6745e-05	3e-08
1	273.241	800.6	1.671e-05	3e-08
1	273.24	600.4	1.6674e-05	3e-08
1	273.239	400.5	1.6638e-05	3e-08
1	273.239	200.8	1.6615e-05	3e-08
1	273.24	100.7	1.6592e-05	3e-08
1	298.252	1500.2	1.7985e-05	2.5e-08
1	298.251	1000.1	1.7894e-05	2.5e-08
1	298.249	400.8	1.7799e-05	2.5e-08
1	298.249	99.6	1.7762e-05	2.5e-08
1	323.268	1802.1	1.9127e-05	3.1e-08
1	323.267	1501.9	1.9075e-05	3.1e-08
1	323.264	1000.6	1.9008e-05	3.1e-08
1	323.266	398.8	1.8929e-05	3.1e-08
1	323.265	101.5	1.8902e-05	3.1e-08
0.74981	298.191	1498.4	1.7442e-05	4.4e-08
0.74981	298.192	999.3	1.7339e-05	4.4e-08
0.74981	298.192	801	1.7302e-05	4.4e-08
0.74981	298.191	604.2	1.7265e-05	4.4e-08
0.74981	298.192	402.3	1.7242e-05	4.4e-08
0.74981	298.193	196.7	1.7208e-05	4.4e-08
0.74981	298.193	108.9	1.7191e-05	4.4e-08
0.74981	323.205	1500.1	1.8604e-05	5.1e-08
0.74981	323.203	1000.9	1.8504e-05	5.1e-08
0.74981	323.201	800.3	1.8473e-05	5.1e-08
0.74981	323.203	600.2	1.8441e-05	5.1e-08
0.74981	323.203	393.8	1.8414e-05	5.1e-08
0.74981	323.202	198.2	1.838e-05	5.1e-08
0.74981	323.203	109.1	1.8366e-05	5.1e-08
0.74981	373.57	2041.9	2.0907e-05	5.3e-08
0.74981	373.57	1501.2	2.0807e-05	5.3e-08
0.74981	373.571	1002.4	2.0732e-05	5.3e-08
0.74981	373.57	598.2	2.0684e-05	5.3e-08
0.74981	373.573	399.3	2.0654e-05	5.3e-08
0.74981	373.569	199.2	2.0635e-05	5.3e-08
0.74981	373.569	108.8	2.0614e-05	5.3e-08
0.74981	423.267	2000	2.2933e-05	5.9e-08
0.74981	423.267	1500.1	2.2866e-05	5.9e-08
0.74981	423.268	1000.3	2.2808e-05	5.9e-08
0.74981	423.266	600.7	2.2754e-05	5.9e-08
0.74981	423.269	398.7	2.2736e-05	5.9e-08
0.74981	423.272	200.4	2.2716e-05	5.9e-08
0.74981	423.269	108.9	2.271e-05	5.9e-08
0.74981	473.313	1996.7	2.4886e-05	6.3e-08
0.74981	473.313	1501.4	2.4821e-05	6.3e-08
0.74981	473.313	1003.8	2.4774e-05	6.3e-08
0.74981	473.314	602.8	2.4739e-05	6.3e-08
0.74981	473.312	399	2.4718e-05	6.3e-08
0.74981	473.315	199	2.4707e-05	6.3e-08
0.74981	473.313	108.7	2.4698e-05	6.3e-08
0.74981	253.165	998.4	1.5142e-05	4.6e-08
0.74981	253.165	797.1	1.5086e-05	4.6e-08
0.74981	253.165	601.1	1.5047e-05	4.6e-08
0.74981	253.165	399	1.5007e-05	4.6e-08
0.74981	253.164	203.1	1.4975e-05	4.6e-08
0.74981	253.166	100.3	1.4954e-05	4.6e-08
0.74981	273.19	1200.6	1.6186e-05	4.7e-08
0.74981	273.19	1000.1	1.6134e-05	4.7e-08
0.74981	273.19	800.2	1.6099e-05	4.7e-08
0.74981	273.19	600.3	1.6054e-05	4.7e-08
0.74981	273.19	401.7	1.6023e-05	4.7e-08
0.74981	273.19	201	1.5986e-05	4.7e-08
0.74981	273.189	108.8	1.5967e-05	4.7e-08
0.74981	298.204	1501.4	1.7438e-05	4.4e-08
0.74981	298.205	1008.5	1.734e-05	4.4e-08
0.74981	298.205	807	1.73e-05	4.4e-08
0.74981	298.203	599.6	1.7275e-05	4.4e-08
0.74981	298.205	390.5	1.724e-05	4.4e-08
0.74981	298.203	202.6	1.7203e-05	4.4e-08
0.74981	298.206	109	1.7193e-05	4.4e-08
0.49962	298.208	1202	1.6696e-05	3.1e-08
0.49962	298.207	1000	1.6641e-05	3.1e-08
0.49962	298.207	800.9	1.6599e-05	3.1e-08
0.49962	298.206	593.4	1.6563e-05	3.1e-08
0.49962	298.208	399.1	1.6542e-05	3.1e-08
0.49962	298.206	204.7	1.6502e-05	3.1e-08
0.49962	298.207	108	1.6496e-05	3.1e-08
0.49962	323.218	1198.6	1.787e-05	4.2e-08
0.49962	323.217	996.4	1.7826e-05	4.2e-08
0.49962	323.218	804.9	1.7798e-05	4.2e-08
0.49962	323.219	598	1.7765e-05	4.2e-08
0.49962	323.216	398.6	1.7727e-05	4.2e-08
0.49962	323.218	200.9	1.7703e-05	4.2e-08
0.49962	323.22	109.2	1.7686e-05	4.2e-08
0.49962	373.246	1498	2.0199e-05	4e-08
0.49962	373.245	998.6	2.0112e-05	4e-08
0.49962	373.246	799.5	2.0081e-05	4e-08
0.49962	373.246	598.5	2.0054e-05	4e-08
0.49962	373.246	391.3	2.0021e-05	4e-08
0.49962	373.245	200.7	1.9999e-05	4e-08
0.49962	373.247	107.8	1.9978e-05	4e-08
0.49962	423.279	1995	2.2422e-05	4.5e-08
0.49962	423.277	1496.5	2.2331e-05	4.5e-08
0.49962	423.279	1001.7	2.2264e-05	4.5e-08
0.49962	423.278	603	2.221e-05	4.5e-08
0.49962	423.28	400	2.2189e-05	4.5e-08
0.49962	423.28	199.9	2.216e-05	4.5e-08
0.49962	423.28	109.4	2.2155e-05	4.5e-08
0.49962	473.322	1991.9	2.4438e-05	4.8e-08
0.49962	473.32	1503	2.437e-05	4.8e-08
0.49962	473.325	1006.2	2.4314e-05	4.8e-08
0.49962	473.322	602.4	2.4267e-05	4.8e-08
0.49962	473.323	400.1	2.4244e-05	4.8e-08
0.49962	473.322	203.7	2.423e-05	4.8e-08
0.49962	473.324	108.1	2.4217e-05	4.8e-08
0.49962	253.168	798.8	1.435e-05	4.2e-08
0.49962	253.168	596.2	1.431e-05	4.2e-08
0.49962	253.169	398.3	1.4274e-05	4.2e-08
0.49962	253.169	200.4	1.4245e-05	4.2e-08
0.49962	253.17	108.1	1.423e-05	4.2e-08
0.49962	273.197	1004.5	1.5414e-05	4.2e-08
0.49962	273.195	800.1	1.5372e-05	4.2e-08
0.49962	273.194	603.1	1.5333e-05	4.2e-08
0.49962	273.193	400.9	1.5299e-05	4.2e-08
0.49962	273.196	205.6	1.5267e-05	4.2e-08
0.49962	273.195	109.2	1.5249e-05	4.2e-08
0.49962	298.209	1204.4	1.6692e-05	3.1e-08
0.49962	298.21	1003.3	1.6639e-05	3.1e-08
0.49962	298.21	803.6	1.6606e-05	3.1e-08
0.49962	298.209	603.8	1.6567e-05	3.1e-08
0.49962	298.208	402.3	1.6535e-05	3.1e-08
0.49962	298.209	201.9	1.6509e-05	3.1e-08
0.49962	298.21	109	1.6493e-05	3.1e-08
0.24788	298.211	1002.4	1.5849e-05	4.2e-08
0.24788	298.21	807.6	1.5809e-05	4.2e-08
0.24788	298.209	602.9	1.5769e-05	4.2e-08
0.24788	298.207	395.1	1.5742e-05	4.2e-08
0.24788	298.209	205.2	1.5718e-05	4.2e-08
0.24788	298.21	108.7	1.571e-05	4.2e-08
0.24788	323.221	1196.8	1.7096e-05	5.5e-08
0.24788	323.221	1001.8	1.705e-05	5.5e-08
0.24788	323.22	798.9	1.7015e-05	5.5e-08
0.24788	323.222	605	1.6979e-05	5.5e-08
0.24788	323.22	399.4	1.6951e-05	5.5e-08
0.24788	323.221	196.1	1.6928e-05	5.5e-08
0.24788	323.22	108.4	1.6914e-05	5.5e-08
0.24788	373.246	1498.2	1.9466e-05	5.5e-08
0.24788	373.25	999.6	1.9367e-05	5.5e-08
0.24788	373.245	802.2	1.9331e-05	5.5e-08
0.24788	373.248	601.5	1.9301e-05	5.5e-08
0.24788	373.249	400.6	1.9278e-05	5.5e-08
0.24788	373.248	200.1	1.9248e-05	5.5e-08
0.24788	373.248	103.3	1.9234e-05	5.5e-08
0.24788	423.289	1998.5	2.1751e-05	6.2e-08
0.24788	423.286	1495.1	2.1652e-05	6.2e-08
0.24788	423.286	1000.7	2.1557e-05	6.2e-08
0.24788	423.288	601.1	2.1507e-05	6.2e-08
0.24788	423.288	405.1	2.1478e-05	6.2e-08
0.24788	423.289	201.4	2.145e-05	6.2e-08
0.24788	423.284	107.7	2.1437e-05	6.2e-08
0.24788	473.339	1998.5	2.3816e-05	6.6e-08
0.24788	473.342	1495.4	2.3727e-05	6.6e-08
0.24788	473.341	1000.4	2.3653e-05	6.6e-08
0.24788	473.343	597.3	2.3589e-05	6.6e-08
0.24788	473.344	395.8	2.3578e-05	6.6e-08
0.24788	473.343	203.1	2.3556e-05	6.6e-08
0.24788	473.343	109.3	2.3548e-05	6.6e-08
0.24788	253.179	605.2	1.3516e-05	5.3e-08
0.24788	253.18	396.3	1.3484e-05	5.3e-08
0.24788	253.18	203.7	1.3475e-05	5.3e-08
0.24788	253.18	110.4	1.3467e-05	5.3e-08
0.24788	273.206	793.9	1.4571e-05	5.3e-08
0.24788	273.205	601.6	1.4534e-05	5.3e-08
0.24788	273.205	397.9	1.4504e-05	5.3e-08
0.24788	273.205	201.1	1.4483e-05	5.3e-08
0.24788	273.207	108.1	1.4475e-05	5.3e-08
0.24788	298.222	1003	1.5848e-05	4.2e-08
0.24788	298.222	794.6	1.5812e-05	4.2e-08
0.24788	298.219	602.1	1.5777e-05	4.2e-08
0.24788	298.222	401.2	1.5749e-05	4.2e-08
0.24788	298.223	204.8	1.5724e-05	4.2e-08
0.24788	298.221	107.9	1.5706e-05	4.2e-08
