Measured thermophysical data. PqT measurements and derived properties of liquid 1,2-alkanediols
Source: J. Chem. Thermodyn., 2013, 10.1016/j.jct.2012.08.014
Compound 1: 1,2-ethanediol, C2H6O2, InChI=1S/C2H6O2/c3-1-2-4/h3-4H,1-2H2, purity 99.9%
Compound 2: 1,2-propanediol, C3H8O2, InChI=1S/C3H8O2/c1-3(5)2-4/h3-5H,2H2,1H3, purity 99.9%
Compound 3: 1,2-butanediol, C4H10O2, InChI=1S/C4H10O2/c1-2-4(6)3-5/h4-6H,2-3H2,1H3, purity 99.6%

System: 1,2-ethanediol; phases: Liquid
Property: Mass density, kg/m3 (Liquid); method: Vibrating tube method
Temperature, K	Pressure, kPa	Mass density, kg/m3	uncertainty
278.15	100	1122.4	2.4
278.15	1000	1122.6	2.4
278.15	5000	1124.1	2.4
278.15	10000	1126	2.4
278.15	15000	1127.8	2.4
278.15	20000	1129.6	2.4
278.15	25000	1131.4	2.4
278.15	30000	1133.1	2.4
278.15	35000	1134.8	2.4
278.15	40000	1136.6	2.4
278.15	45000	1138.2	2.4
278.15	50000	1139.9	2.4
278.15	55000	1141.6	2.4
278.15	60000	1143.3	2.4
288.15	100	1115.8	2.4
288.15	1000	1116	2.4
288.15	5000	1117.6	2.4
288.15	10000	1119.5	2.4
288.15	15000	1121.5	2.4
288.15	20000	1123.3	2.4
288.15	25000	1125.2	2.4
288.15	30000	1127	2.4
288.15	35000	1128.8	2.4
288.15	40000	1130.6	2.4
288.15	45000	1132.3	2.4
288.15	50000	1134.1	2.4
288.15	55000	1135.7	2.4
288.15	60000	1137.4	2.4
298.15	100	1109	2.4
298.15	1000	1109.2	2.4
298.15	5000	1110.9	2.4
298.15	10000	1112.9	2.4
298.15	15000	1114.9	2.4
298.15	20000	1116.8	2.4
298.15	25000	1118.7	2.4
298.15	30000	1120.6	2.4
298.15	35000	1122.4	2.4
298.15	40000	1124.3	2.4
298.15	45000	1126.1	2.4
298.15	50000	1127.8	2.4
298.15	55000	1129.6	2.4
298.15	60000	1131.3	2.4
308.15	100	1102.2	2.4
308.15	1000	1102.4	2.4
308.15	5000	1104.1	2.4
308.15	10000	1106.1	2.4
308.15	15000	1108.2	2.4
308.15	20000	1110.1	2.4
308.15	25000	1112.1	2.4
308.15	30000	1114	2.4
308.15	35000	1115.9	2.4
308.15	40000	1117.7	2.4
308.15	45000	1119.6	2.4
308.15	50000	1121.4	2.4
308.15	55000	1123.2	2.4
308.15	60000	1125	2.4
318.15	100	1095.2	2.4
318.15	1000	1095.4	2.4
318.15	5000	1097.1	2.4
318.15	10000	1099.2	2.4
318.15	15000	1101.3	2.4
318.15	20000	1103.3	2.4
318.15	25000	1105.3	2.4
318.15	30000	1107.3	2.4
318.15	35000	1109.3	2.4
318.15	40000	1111.2	2.4
318.15	45000	1113.1	2.4
318.15	50000	1115	2.4
318.15	55000	1116.8	2.4
318.15	60000	1118.6	2.4
328.15	100	1088.2	2.4
328.15	1000	1088.3	2.4
328.15	5000	1090.2	2.4
328.15	10000	1092.3	2.4
328.15	15000	1094.4	2.4
328.15	20000	1096.5	2.4
328.15	25000	1098.6	2.4
328.15	30000	1100.6	2.4
328.15	35000	1102.6	2.4
328.15	40000	1104.6	2.4
328.15	45000	1106.5	2.4
328.15	50000	1108.4	2.4
328.15	55000	1110.3	2.4
328.15	60000	1112.1	2.4
338.15	100	1080.9	2.4
338.15	1000	1081.2	2.4
338.15	5000	1083.1	2.4
338.15	10000	1085.4	2.4
338.15	15000	1087.6	2.4
338.15	20000	1089.8	2.4
338.15	25000	1091.9	2.4
338.15	30000	1094	2.4
338.15	35000	1096	2.4
338.15	40000	1097.9	2.4
338.15	45000	1099.9	2.4
338.15	50000	1101.9	2.4
338.15	55000	1103.9	2.4
338.15	60000	1105.8	2.4
348.15	100	1073.6	2.4
348.15	1000	1073.9	2.4
348.15	5000	1075.8	2.4
348.15	10000	1078.1	2.4
348.15	15000	1080.4	2.4
348.15	20000	1082.7	2.4
348.15	25000	1084.9	2.4
348.15	30000	1087	2.4
348.15	35000	1089.2	2.4
348.15	40000	1091.3	2.4
348.15	45000	1093.4	2.4
348.15	50000	1095.3	2.4
348.15	55000	1097.3	2.4
348.15	60000	1099.4	2.4
358.15	100	1066.1	2.4
358.15	1000	1066.2	2.4
358.15	5000	1068.2	2.4
358.15	10000	1070.7	2.4
358.15	15000	1073.1	2.4
358.15	20000	1075.4	2.4
358.15	25000	1077.8	2.4
358.15	30000	1079.9	2.4
358.15	35000	1082.1	2.4
358.15	40000	1084.3	2.4
358.15	45000	1086.5	2.4
358.15	50000	1088.6	2.4
358.15	55000	1090.7	2.4
358.15	60000	1092.7	2.4

System: 1,2-propanediol; phases: Liquid
Property: Mass density, kg/m3 (Liquid); method: Vibrating tube method
Temperature, K	Pressure, kPa	Mass density, kg/m3	uncertainty
278.15	100	1047.1	2.4
278.15	1000	1047.3	2.4
278.15	5000	1049.2	2.4
278.15	10000	1051.2	2.4
278.15	15000	1053.4	2.4
278.15	20000	1055.5	2.4
278.15	25000	1057.6	2.4
278.15	30000	1059.6	2.4
278.15	35000	1061.6	2.4
278.15	40000	1063.6	2.4
278.15	45000	1065.6	2.4
278.15	50000	1067.5	2.4
278.15	55000	1069.3	2.4
278.15	60000	1071.4	2.4
288.15	100	1039.9	2.4
288.15	1000	1040.2	2.4
288.15	5000	1042.1	2.4
288.15	10000	1044.4	2.4
288.15	15000	1046.7	2.4
288.15	20000	1048.9	2.4
288.15	25000	1051.1	2.4
288.15	30000	1053.2	2.4
288.15	35000	1055.4	2.4
288.15	40000	1057.4	2.4
288.15	45000	1059.4	2.4
288.15	50000	1061.4	2.4
288.15	55000	1063.4	2.4
288.15	60000	1065.3	2.4
298.15	100	1032.5	2.4
298.15	1000	1032.9	2.4
298.15	5000	1034.8	2.4
298.15	10000	1037.2	2.4
298.15	15000	1039.6	2.4
298.15	20000	1041.9	2.4
298.15	25000	1044.1	2.4
298.15	30000	1046.3	2.4
298.15	35000	1048.4	2.4
298.15	40000	1050.6	2.4
298.15	45000	1052.5	2.4
298.15	50000	1054.6	2.4
298.15	55000	1056.6	2.4
298.15	60000	1058.5	2.4
308.15	100	1025.3	2.4
308.15	1000	1025.5	2.4
308.15	5000	1027.5	2.4
308.15	10000	1030.1	2.4
308.15	15000	1032.5	2.4
308.15	20000	1034.9	2.4
308.15	25000	1037.2	2.4
308.15	30000	1039.5	2.4
308.15	35000	1041.6	2.4
308.15	40000	1043.8	2.4
308.15	45000	1046	2.4
308.15	50000	1048.1	2.4
308.15	55000	1050.1	2.4
308.15	60000	1052.2	2.4
318.15	100	1017.7	2.4
318.15	1000	1018	2.4
318.15	5000	1020.2	2.4
318.15	10000	1022.8	2.4
318.15	15000	1025.4	2.4
318.15	20000	1027.9	2.4
318.15	25000	1030.3	2.4
318.15	30000	1032.7	2.4
318.15	35000	1035	2.4
318.15	40000	1037.2	2.4
318.15	45000	1039.4	2.4
318.15	50000	1041.5	2.4
318.15	55000	1043.6	2.4
318.15	60000	1045.7	2.4
328.15	100	1010	2.4
328.15	1000	1010.3	2.4
328.15	5000	1012.7	2.4
328.15	10000	1015.4	2.4
328.15	15000	1018	2.4
328.15	20000	1020.6	2.4
328.15	25000	1023.1	2.4
328.15	30000	1025.6	2.4
328.15	35000	1027.9	2.4
328.15	40000	1030.3	2.4
328.15	45000	1032.5	2.4
328.15	50000	1034.7	2.4
328.15	55000	1036.9	2.4
328.15	60000	1039	2.4
338.15	100	1002.2	2.4
338.15	1000	1002.4	2.4
338.15	5000	1004.8	2.4
338.15	10000	1007.6	2.4
338.15	15000	1010.4	2.4
338.15	20000	1013	2.4
338.15	25000	1015.6	2.4
338.15	30000	1018.2	2.4
338.15	35000	1020.7	2.4
338.15	40000	1023.2	2.4
338.15	45000	1025.5	2.4
338.15	50000	1027.9	2.4
338.15	55000	1030.2	2.4
338.15	60000	1032.4	2.4
348.15	100	994.1	2.4
348.15	1000	994.5	2.4
348.15	5000	996.9	2.4
348.15	10000	999.9	2.4
348.15	15000	1002.8	2.4
348.15	20000	1005.5	2.4
348.15	25000	1008.2	2.4
348.15	30000	1010.9	2.4
348.15	35000	1013.4	2.4
348.15	40000	1016	2.4
348.15	45000	1018.4	2.4
348.15	50000	1020.9	2.4
348.15	55000	1023.2	2.4
348.15	60000	1025.6	2.4
358.15	100	985.8	2.4
358.15	1000	986.2	2.4
358.15	5000	988.8	2.4
358.15	10000	991.9	2.4
358.15	15000	995	2.4
358.15	20000	997.8	2.4
358.15	25000	1000.6	2.4
358.15	30000	1003.4	2.4
358.15	35000	1006	2.4
358.15	40000	1008.5	2.4
358.15	45000	1011.2	2.4
358.15	50000	1013.6	2.4
358.15	55000	1016.1	2.4
358.15	60000	1018.5	2.4

System: 1,2-butanediol; phases: Liquid
Property: Mass density, kg/m3 (Liquid); method: Vibrating tube method
Temperature, K	Pressure, kPa	Mass density, kg/m3	uncertainty
278.15	100	1013.4	2.4
278.15	1000	1013.7	2.4
278.15	5000	1015.7	2.4
278.15	10000	1018.1	2.4
278.15	15000	1020.5	2.4
278.15	20000	1022.8	2.4
278.15	25000	1025	2.4
278.15	30000	1027.2	2.4
278.15	35000	1029.2	2.4
278.15	40000	1031.2	2.4
278.15	45000	1033.3	2.4
278.15	50000	1035.3	2.4
278.15	55000	1037.3	2.4
278.15	60000	1039.2	2.4
288.15	100	1006.2	2.4
288.15	1000	1006.5	2.4
288.15	5000	1008.6	2.4
288.15	10000	1011.1	2.4
288.15	15000	1013.5	2.4
288.15	20000	1015.9	2.4
288.15	25000	1018.2	2.4
288.15	30000	1020.5	2.4
288.15	35000	1022.7	2.4
288.15	40000	1024.7	2.4
288.15	45000	1026.7	2.4
288.15	50000	1028.8	2.4
288.15	55000	1030.8	2.4
288.15	60000	1033	2.4
298.15	100	998.7	2.4
298.15	1000	999.1	2.4
298.15	5000	1001.2	2.4
298.15	10000	1003.8	2.4
298.15	15000	1006.3	2.4
298.15	20000	1008.8	2.4
298.15	25000	1011.3	2.4
298.15	30000	1013.6	2.4
298.15	35000	1015.9	2.4
298.15	40000	1018.2	2.4
298.15	45000	1020.3	2.4
298.15	50000	1022.5	2.4
298.15	55000	1024.5	2.4
298.15	60000	1026.7	2.4
308.15	100	991.1	2.4
308.15	1000	991.5	2.4
308.15	5000	993.7	2.4
308.15	10000	996.5	2.4
308.15	15000	999.1	2.4
308.15	20000	1001.6	2.4
308.15	25000	1004.1	2.4
308.15	30000	1006.5	2.4
308.15	35000	1008.9	2.4
308.15	40000	1011.2	2.4
308.15	45000	1013.5	2.4
308.15	50000	1015.7	2.4
308.15	55000	1017.9	2.4
308.15	60000	1020	2.4
318.15	100	983.4	2.4
318.15	1000	983.8	2.4
318.15	5000	986.1	2.4
318.15	10000	988.9	2.4
318.15	15000	991.7	2.4
318.15	20000	994.3	2.4
318.15	25000	997	2.4
318.15	30000	999.4	2.4
318.15	35000	1001.9	2.4
318.15	40000	1004.4	2.4
318.15	45000	1006.7	2.4
318.15	50000	1009	2.4
318.15	55000	1011.3	2.4
318.15	60000	1013.5	2.4
328.15	100	975.7	2.4
328.15	1000	976.2	2.4
328.15	5000	978.6	2.4
328.15	10000	981.5	2.4
328.15	15000	984.4	2.4
328.15	20000	987.2	2.4
328.15	25000	989.9	2.4
328.15	30000	992.5	2.4
328.15	35000	995.1	2.4
328.15	40000	997.6	2.4
328.15	45000	999.9	2.4
328.15	50000	1002.2	2.4
328.15	55000	1004.7	2.4
328.15	60000	1006.9	2.4
338.15	100	967.8	2.4
338.15	1000	968.3	2.4
338.15	5000	970.7	2.4
338.15	10000	973.9	2.4
338.15	15000	976.8	2.4
338.15	20000	979.8	2.4
338.15	25000	982.6	2.4
338.15	30000	985.3	2.4
338.15	35000	987.9	2.4
338.15	40000	990.5	2.4
338.15	45000	993.1	2.4
338.15	50000	995.5	2.4
338.15	55000	997.9	2.4
338.15	60000	1000.3	2.4
348.15	100	959.7	2.4
348.15	1000	960.2	2.4
348.15	5000	962.8	2.4
348.15	10000	966.2	2.4
348.15	15000	969.2	2.4
348.15	20000	972.2	2.4
348.15	25000	975.2	2.4
348.15	30000	978	2.4
348.15	35000	980.7	2.4
348.15	40000	983.4	2.4
348.15	45000	986.1	2.4
348.15	50000	988.6	2.4
348.15	55000	991.1	2.4
348.15	60000	993.4	2.4
358.15	100	951.3	2.4
358.15	1000	952	2.4
358.15	5000	954.6	2.4
358.15	10000	958.1	2.4
358.15	15000	961.4	2.4
358.15	20000	964.5	2.4
358.15	25000	967.5	2.4
358.15	30000	970.5	2.4
358.15	35000	973.5	2.4
358.15	40000	976.2	2.4
358.15	45000	978.8	2.4
358.15	50000	981.4	2.4
358.15	55000	984	2.4
358.15	60000	986.5	2.4
