Measured thermophysical data. Excess volumes and partial molar volumes of binary liquid mixtures of furfural or 2-methylfuran with alcohols at 298.15 K
Source: J. Chem. Thermodyn., 2019, 10.1016/j.jct.2019.02.027
Compound 1: water, H2O, InChI=1S/H2O/h1H2
Compound 2: ethanol, C2H6O, InChI=1S/C2H6O/c1-2-3/h3H,2H2,1H3, purity 99.5%
Compound 3: 2-methylfuran, C5H6O, InChI=1S/C5H6O/c1-5-3-2-4-6-5/h2-4H,1H3, purity 99%
Compound 4: 2-furaldehyde, C5H4O2, InChI=1S/C5H4O2/c6-4-5-2-1-3-7-5/h1-4H, purity 99%
Compound 5: propan-1-ol, C3H8O, InChI=1S/C3H8O/c1-2-3-4/h4H,2-3H2,1H3, purity 99.7%
Compound 6: propan-2-ol, C3H8O, InChI=1S/C3H8O/c1-3(2)4/h3-4H,1-2H3, purity 99.5%
Compound 7: butan-2-ol, C4H10O, InChI=1S/C4H10O/c1-3-4(2)5/h4-5H,3H2,1-2H3, purity 99.5%
Compound 8: pentan-1-ol, C5H12O, InChI=1S/C5H12O/c1-2-3-4-5-6/h6H,2-5H2,1H3, purity 99.5%
Compound 9: pentan-2-ol, C5H12O, InChI=1S/C5H12O/c1-3-4-5(2)6/h5-6H,3-4H2,1-2H3, purity 98.5%
Compound 10: hexan-1-ol, C6H14O, InChI=1S/C6H14O/c1-2-3-4-5-6-7/h7H,2-6H2,1H3, purity 98.5%

System: ethanol; phases: Liquid
Property: Mass density, kg/m3 (Liquid); method: Vibrating tube method
Temperature, K	Pressure, kPa	Mass density, kg/m3	uncertainty
298.15	101.325	785.45	1.03

System: 2-methylfuran; phases: Liquid
Property: Mass density, kg/m3 (Liquid); method: Vibrating tube method
Temperature, K	Pressure, kPa	Mass density, kg/m3	uncertainty
298.15	101.325	910.73	2.22

System: 2-furaldehyde; phases: Liquid
Property: Mass density, kg/m3 (Liquid); method: Vibrating tube method
Temperature, K	Pressure, kPa	Mass density, kg/m3	uncertainty
298.15	101.325	1155.45	2.83

System: propan-1-ol; phases: Liquid
Property: Mass density, kg/m3 (Liquid); method: Vibrating tube method
Temperature, K	Pressure, kPa	Mass density, kg/m3	uncertainty
298.15	101.325	799.97	0.64

System: propan-2-ol; phases: Liquid
Property: Mass density, kg/m3 (Liquid); method: Vibrating tube method
Temperature, K	Pressure, kPa	Mass density, kg/m3	uncertainty
298.15	101.325	780.95	1.03

System: butan-2-ol; phases: Liquid
Property: Mass density, kg/m3 (Liquid); method: Vibrating tube method
Temperature, K	Pressure, kPa	Mass density, kg/m3	uncertainty
298.15	101.325	802.88	1.03

System: pentan-1-ol; phases: Liquid
Property: Mass density, kg/m3 (Liquid); method: Vibrating tube method
Temperature, K	Pressure, kPa	Mass density, kg/m3	uncertainty
298.15	101.325	810.9	1.03

System: pentan-2-ol; phases: Liquid
Property: Mass density, kg/m3 (Liquid); method: Vibrating tube method
Temperature, K	Pressure, kPa	Mass density, kg/m3	uncertainty
298.15	101.325	806.48	2.83

System: hexan-1-ol; phases: Liquid
Property: Mass density, kg/m3 (Liquid); method: Vibrating tube method
Temperature, K	Pressure, kPa	Mass density, kg/m3	uncertainty
298.15	101.325	815.9	2.83

System: 2-furaldehyde + propan-1-ol; phases: Liquid
Fixed: Temperature, K = 298.15
Fixed: Pressure, kPa = 100
Property: Mass density, kg/m3 (Liquid); method: Vibrating tube method
Mole fraction of 2-furaldehyde	Mass density, kg/m3	uncertainty
0.0847	834.01	3.01
0.134	853.46	3.02
0.2237	888	3.04
0.2415	894.81	3.04
0.2507	898.28	3.04
0.2827	910.39	3.05
0.3632	940.23	3.07
0.4309	964.88	3.08
0.5022	990.31	3.09
0.6164	1030.13	3.12
0.7194	1065	3.14
0.7803	1085.14	3.15
0.8714	1114.75	3.17
0.9006	1124.2	3.18
0.9038	1125.2	3.18
0	799.97	2.81
1	1155.45	2.83

System: 2-furaldehyde + propan-2-ol; phases: Liquid
Fixed: Temperature, K = 298.15
Fixed: Pressure, kPa = 100
Property: Mass density, kg/m3 (Liquid); method: Vibrating tube method
Mole fraction of 2-furaldehyde	Mass density, kg/m3	uncertainty
0.0534	803.11	3
0.0877	817.2	3
0.1839	856.01	3.02
0.2041	864.12	3.03
0.2517	882.87	3.04
0.2794	893.74	3.04
0.2855	896.16	3.04
0.4063	942.61	3.07
0.5153	983.56	3.09
0.5364	991.32	3.09
0.5702	1003.8	3.1
0.6564	1035.2	3.12
0.7345	1063.04	3.14
0.8252	1094.94	3.16
0.9055	1122.98	3.18
0	780.95	2.81
1	1155.45	2.83

System: 2-furaldehyde + butan-2-ol; phases: Liquid
Fixed: Temperature, K = 298.15
Fixed: Pressure, kPa = 100
Property: Mass density, kg/m3 (Liquid); method: Vibrating tube method
Mole fraction of 2-furaldehyde	Mass density, kg/m3	uncertainty
0.4498	951	2.99
0.803	1079.08	3.04
0.2773	892.16	2.97
0.1345	845.28	2.95
0.535	980.92	3
0.2696	889.52	2.96
0.6673	1028.58	3.02
0.417	939.59	2.98
0.8794	1108.12	3.06
0.1343	845.24	2.95
0.0237	810.18	2.94
0.6274	1014.08	3.01
0.7355	1053.74	3.03
0.0782	827.38	2.94
0	802.88	2.81
1	1155.45	2.83

System: 2-furaldehyde + pentan-1-ol; phases: Liquid
Fixed: Temperature, K = 298.15
Fixed: Pressure, kPa = 100
Property: Mass density, kg/m3 (Liquid); method: Vibrating tube method
Mole fraction of 2-furaldehyde	Mass density, kg/m3	uncertainty
0.0837	833.12	2.9
0.1212	843.42	2.91
0.1906	863.01	2.91
0.2617	883.85	2.92
0.2997	895.29	2.92
0.3856	922.11	2.93
0.4254	934.98	2.93
0.5075	962.35	2.94
0.5396	973.38	2.94
0.6236	1003.18	2.95
0.708	1034.59	2.96
0.7358	1045.18	2.96
0.7671	1057.41	2.97
0.8967	1110.25	2.99
0.9015	1112.3	2.99
0	810.9	2.81
1	1155.45	2.83

System: 2-furaldehyde + pentan-2-ol; phases: Liquid
Fixed: Temperature, K = 298.15
Fixed: Pressure, kPa = 100
Property: Mass density, kg/m3 (Liquid); method: Vibrating tube method
Mole fraction of 2-furaldehyde	Mass density, kg/m3	uncertainty
0.092	831.24	3.89
0.1912	859.17	3.9
0.2652	880.87	3.9
0.3627	910.83	3.91
0.4245	930.64	3.91
0.4984	955.28	3.91
0.5417	970.2	3.92
0.6211	998.57	3.92
0.6746	1018.53	3.93
0.7117	1032.71	3.93
0.7692	1055.38	3.94
0.8249	1078.15	3.94
0.879	1101.1	3.95
0.9111	1115.13	3.95
0.9542	1134.34	3.96
0	806.48	3.82
1	1155.45	3.82

System: 2-furaldehyde + hexan-1-ol; phases: Liquid
Fixed: Temperature, K = 298.15
Fixed: Pressure, kPa = 100
Property: Mass density, kg/m3 (Liquid); method: Vibrating tube method
Mole fraction of 2-furaldehyde	Mass density, kg/m3	uncertainty
0.0958	837.47	3.87
0.1364	847.08	3.88
0.1378	847.41	3.88
0.2218	868.43	3.88
0.2573	877.76	3.88
0.2623	879.07	3.88
0.2983	888.83	3.88
0.3699	909.14	3.88
0.4124	921.74	3.88
0.4947	947.51	3.89
0.4965	948.07	3.89
0.5802	976.2	3.89
0.6437	998.96	3.89
0.7375	1035.07	3.9
0.7661	1046.67	3.9
0.7703	1048.36	3.9
0.847	1081.45	3.91
0.8939	1102.9	3.91
0	815.9	3.82
1	1155.45	3.82

System: 2-methylfuran + propan-2-ol; phases: Liquid
Fixed: Temperature, K = 298.15
Fixed: Pressure, kPa = 100
Property: Mass density, kg/m3 (Liquid); method: Vibrating tube method
Mole fraction of 2-methylfuran	Mass density, kg/m3	uncertainty
0.0267	785.02	2.56
0.0493	788.28	2.56
0.0908	794.29	2.56
0.1257	799.31	2.57
0.179	806.65	2.57
0.2619	817.86	2.57
0.2995	822.82	2.58
0.3935	835.05	2.58
0.537	853.23	2.59
0.6047	861.52	2.59
0.6784	870.65	2.6
0.7217	876.04	2.6
0.8122	886.89	2.61
0.8256	888.45	2.61
0.8759	894.66	2.61
0.9472	903.47	2.61
0	780.95	2.41
1	910.73	2.42

System: 2-methylfuran + butan-2-ol; phases: Liquid
Fixed: Temperature, K = 298.15
Fixed: Pressure, kPa = 100
Property: Mass density, kg/m3 (Liquid); method: Vibrating tube method
Mole fraction of 2-methylfuran	Mass density, kg/m3	uncertainty
0.0549	808.11	2.78
0.0656	809.45	2.78
0.0952	812.22	2.78
0.1847	821.08	2.79
0.2954	831.67	2.8
0.3763	839.84	2.8
0.4673	849.03	2.81
0.5696	859.9	2.82
0.6998	873.97	2.84
0.7611	881.06	2.84
0.8132	887.16	2.85
0.8548	891.9	2.85
0.8832	895.12	2.86
0.8998	897.35	2.86
0.9091	898.45	2.86
0.9333	901.44	2.86
0	802.88	2.41
1	910.73	2.42

System: 2-methylfuran + pentan-1-ol; phases: Liquid
Fixed: Temperature, K = 298.15
Fixed: Pressure, kPa = 100
Property: Mass density, kg/m3 (Liquid); method: Vibrating tube method
Mole fraction of 2-methylfuran	Mass density, kg/m3	uncertainty
0.1002	819.28	2.49
0.1263	821.43	2.49
0.1771	825.74	2.49
0.22	829.43	2.49
0.2723	834	2.49
0.3399	840.06	2.5
0.4257	848.01	2.5
0.4599	851.26	2.5
0.5134	856.49	2.5
0.593	864.51	2.5
0.6556	871.07	2.5
0.7006	875.92	2.51
0.7559	881.98	2.51
0.8293	890.24	2.51
0.8836	896.44	2.51
0	810.9	2.41
1	910.73	2.42

System: 2-methylfuran + pentan-2-ol; phases: Liquid
Fixed: Temperature, K = 298.15
Fixed: Pressure, kPa = 100
Property: Mass density, kg/m3 (Liquid); method: Vibrating tube method
Mole fraction of 2-methylfuran	Mass density, kg/m3	uncertainty
0.4997	849.64	3.63
0.8143	884.9	3.63
0.1322	816.51	3.63
0.8675	891.71	3.63
0.2576	827.04	3.63
0.6108	861.2	3.63
0.1794	820.47	3.63
0.6993	871.1	3.63
0.9441	902.21	3.63
0.3029	831.05	3.63
0.0907	813.42	3.64
0.9023	896.39	3.63
0.4278	842.47	3.63
0.7296	874.59	3.63
0	806.48	3.62
1	910.73	3.61

System: 2-methylfuran + hexan-1-ol; phases: Liquid
Fixed: Temperature, K = 298.15
Fixed: Pressure, kPa = 100
Property: Mass density, kg/m3 (Liquid); method: Vibrating tube method
Mole fraction of 2-methylfuran	Mass density, kg/m3	uncertainty
0.048	819.02	3.67
0.0765	820.93	3.67
0.1423	825.44	3.67
0.2086	830.14	3.67
0.2804	835.45	3.67
0.3598	841.72	3.67
0.4591	850.07	3.67
0.4916	852.91	3.67
0.5728	860.42	3.67
0.6478	867.88	3.67
0.7472	878.45	3.67
0.7472	878.33	3.67
0.7965	884.09	3.67
0.8596	891.67	3.67
0.888	895.23	3.67
0.9411	902.08	3.67
0	815.9	3.62
1	910.73	3.61

System: ethanol + water; phases: Liquid
Fixed: Temperature, K = 298.15
Fixed: Pressure, kPa = 100
Property: Mass density, kg/m3 (Liquid); method: Vibrating tube method
Mole fraction of ethanol	Mass density, kg/m3	uncertainty
1	785.5	2.3
0.7084	825.2	2.4
0.4238	876.2	2.5
0.387	883.5	2.7
0.2437	920.1	2.8
0.1461	950.1	2.4
0.127	952.3	2.7
0.0641	970.7	3.1
0	997.1	2.3
