Measured thermophysical data. Adiabatic compressibility along the two-phase saturation line for the molten (LiF + CsCl) system
Source: J. Chem. Thermodyn., 2019, 10.1016/j.jct.2019.07.003
Compound 1: cesium chloride, ClCs, InChI=1S/ClH.Cs/h1H;/q;+1/p-1, purity 99.5%
Compound 2: lithium fluoride, FLi, InChI=1S/FH.Li/h1H;/q;+1/p-1, purity 99.5%

System: cesium chloride; phases: Crystal, Liquid, Air at 1 atmosphere
Property: Normal melting temperature, K (Crystal); method: DTA
Normal melting temperature, K	uncertainty
918	1

System: lithium fluoride; phases: Crystal, Liquid, Air at 1 atmosphere
Property: Normal melting temperature, K (Crystal); method: DTA
Normal melting temperature, K	uncertainty
1117	1

System: cesium chloride + lithium fluoride; phases: Liquid mixture 1, Liquid mixture 2, Air at 1 atmosphere
Property: Upper consolute temperature, K (Liquid mixture 1); method: From density and speed of sound meaurements
Upper consolute temperature, K	uncertainty
1257	2

System: cesium chloride + lithium fluoride; phases: Liquid mixture 1, Liquid mixture 2
Fixed: Pressure, kPa = 98.3
Property: Mass density, kg/m3 (Liquid mixture 1); method: Buoyancy - hydrostatic balance
Temperature, K	Mass density, kg/m3	uncertainty
1143	1861	5
1173	1875	5
1203	1904	5
1215	1917	5
1225	1926	5
1237	1961	6
1242	1975	5
1252	1990	6
1255	2020	8
1258	2028	6

System: cesium chloride + lithium fluoride; phases: Liquid mixture 2, Liquid mixture 1
Fixed: Pressure, kPa = 98.3
Property: Mass density, kg/m3 (Liquid mixture 2); method: Buoyancy - hydrostatic balance
Temperature, K	Mass density, kg/m3	uncertainty
1143	2365	5
1173	2325	5
1203	2268	5
1215	2236	6
1225	2212	6
1237	2173	6
1242	2152	7
1252	2095	8
1255	2078	12
1258	2028	17
