Measured thermophysical data. Equilibrium solubility and preferential solvation of 1,1'-sulfonylbis(4-aminobenzene) in binary aqueous solutions of n-propanol, isopropanol and 1,4-dioxane
Source: J. Chem. Thermodyn., 2018, 10.1016/j.jct.2018.03.010
Compound 1: propan-1-ol, C3H8O, InChI=1S/C3H8O/c1-2-3-4/h4H,2-3H2,1H3, purity 99.4%
Compound 2: propan-2-ol, C3H8O, InChI=1S/C3H8O/c1-3(2)4/h3-4H,1-2H3, purity 99.3%
Compound 3: 1,4-dioxane, C4H8O2, InChI=1S/C4H8O2/c1-2-6-4-3-5-1/h1-4H2, purity 99.5%
Compound 4: water, H2O, InChI=1S/H2O/h1H2
Compound 5: bis(4-aminophenyl) sulfone, C12H12N2O2S, InChI=1S/C12H12N2O2S/c13-9-1-5-11(6-2-9)17(15,16)12-7-3-10(14)4-8-12/h1-8H,13-14H2, purity 98.6%

System: water + propan-1-ol + bis(4-aminophenyl) sulfone; phases: Liquid, Crystal
Fixed: Pressure, kPa = 101.1
Property: Mole fraction of bis(4-aminophenyl) sulfone (Liquid); method: Chromatography
Temperature, K	Solvent: Mass fraction of propan-1-ol	Mole fraction of bis(4-aminophenyl) sulfone	uncertainty
278.15	0	1.359e-06	1.17e-07
283.15	0	2.326e-06	2e-07
288.15	0	3.911e-06	3.37e-07
293.15	0	6.73e-06	5.8e-07
298.15	0	1.066e-05	9.2e-07
303.15	0	1.635e-05	1.41e-06
308.15	0	2.518e-05	2.17e-06
313.15	0	3.703e-05	3.19e-06
318.15	0	5.246e-05	4.52e-06
323.15	0	7.235e-05	6.23e-06
278.15	0.0998	1.457e-05	1.25e-06
283.15	0.0998	2.483e-05	2.14e-06
288.15	0.0998	4.072e-05	3.51e-06
293.15	0.0998	6.444e-05	5.55e-06
298.15	0.0998	9.857e-05	8.49e-06
303.15	0.0998	0.0001461	1.26e-05
308.15	0.0998	0.00021	1.81e-05
313.15	0.0998	0.0002936	2.53e-05
318.15	0.0998	0.0003996	3.44e-05
323.15	0.0998	0.0005303	4.57e-05
278.15	0.1996	7.417e-05	6.38e-06
283.15	0.1996	0.0001196	1.03e-05
288.15	0.1996	0.0001864	1.6e-05
293.15	0.1996	0.0002813	2.42e-05
298.15	0.1996	0.000412	3.55e-05
303.15	0.1996	0.0005863	5.05e-05
308.15	0.1996	0.0008125	6.99e-05
313.15	0.1996	0.001098	9.4e-05
318.15	0.1996	0.001448	0.000125
323.15	0.1996	0.001868	0.000161
278.15	0.2997	0.0002101	1.81e-05
283.15	0.2997	0.0003239	2.79e-05
288.15	0.2997	0.0004844	4.17e-05
293.15	0.2997	0.0007041	6.06e-05
298.15	0.2997	0.0009961	8.57e-05
303.15	0.2997	0.001374	0.000118
308.15	0.2997	0.001851	0.000159
313.15	0.2997	0.002437	0.00021
318.15	0.2997	0.003141	0.00027
323.15	0.2997	0.003969	0.000342
278.15	0.3998	0.000408	3.51e-05
283.15	0.3998	0.0006055	5.21e-05
288.15	0.3998	0.0008747	7.53e-05
293.15	0.3998	0.001232	0.000106
298.15	0.3998	0.001694	0.000146
303.15	0.3998	0.002278	0.000196
308.15	0.3998	0.002999	0.000258
313.15	0.3998	0.00387	0.000333
318.15	0.3998	0.004901	0.000422
323.15	0.3998	0.006097	0.000525
278.15	0.5005	0.000824	7.09e-05
283.15	0.5005	0.001118	9.6e-05
288.15	0.5005	0.001494	0.000129
293.15	0.5005	0.001974	0.00017
298.15	0.5005	0.002591	0.000223
303.15	0.5005	0.003327	0.000286
308.15	0.5005	0.004326	0.000372
313.15	0.5005	0.005485	0.000472
318.15	0.5005	0.006855	0.00059
323.15	0.5005	0.008604	0.00074
278.15	0.6011	0.001243	0.000107
283.15	0.6011	0.001601	0.000138
288.15	0.6011	0.002002	0.000172
293.15	0.6011	0.002582	0.000222
298.15	0.6011	0.003322	0.000286
303.15	0.6011	0.004102	0.000353
308.15	0.6011	0.005243	0.000451
313.15	0.6011	0.006557	0.000564
318.15	0.6011	0.008206	0.000706
323.15	0.6011	0.01011	0.00087
278.15	0.7005	0.001554	0.000134
283.15	0.7005	0.001932	0.000166
288.15	0.7005	0.002452	0.000211
293.15	0.7005	0.003101	0.000267
298.15	0.7005	0.003908	0.000336
303.15	0.7005	0.004914	0.000423
308.15	0.7005	0.006081	0.000523
313.15	0.7005	0.007463	0.000642
318.15	0.7005	0.009162	0.000788
323.15	0.7005	0.01127	0.00097
278.15	0.7999	0.001753	0.000151
283.15	0.7999	0.002249	0.000194
288.15	0.7999	0.002827	0.000243
293.15	0.7999	0.003525	0.000303
298.15	0.7999	0.004415	0.00038
303.15	0.7999	0.005504	0.000474
308.15	0.7999	0.006814	0.000586
313.15	0.7999	0.008222	0.000707
318.15	0.7999	0.009927	0.000854
323.15	0.7999	0.01187	0.00102
278.15	0.8999	0.002245	0.000193
283.15	0.8999	0.002844	0.000245
288.15	0.8999	0.003555	0.000306
293.15	0.8999	0.004384	0.000377
298.15	0.8999	0.005355	0.000461
303.15	0.8999	0.00648	0.000558
308.15	0.8999	0.007852	0.000676
313.15	0.8999	0.009407	0.000809
318.15	0.8999	0.01108	0.00095
323.15	0.8999	0.01304	0.00112
278.15	1	0.002913	0.000251
283.15	1	0.0036	0.00031
288.15	1	0.004345	0.000374
293.15	1	0.005214	0.000449
298.15	1	0.006209	0.000534
303.15	1	0.007382	0.000635
308.15	1	0.008813	0.000758
313.15	1	0.01038	0.00089
318.15	1	0.01212	0.00104
323.15	1	0.01406	0.00121

System: water + propan-2-ol + bis(4-aminophenyl) sulfone; phases: Liquid, Crystal
Fixed: Pressure, kPa = 101.1
Property: Mole fraction of bis(4-aminophenyl) sulfone (Liquid); method: Chromatography
Temperature, K	Solvent: Mass fraction of propan-2-ol	Mole fraction of bis(4-aminophenyl) sulfone	uncertainty
278.15	0	1.359e-06	1.17e-07
283.15	0	2.326e-06	2e-07
288.15	0	3.911e-06	3.37e-07
293.15	0	6.73e-06	5.8e-07
298.15	0	1.066e-05	9.2e-07
303.15	0	1.635e-05	1.41e-06
308.15	0	2.518e-05	2.17e-06
313.15	0	3.703e-05	3.19e-06
318.15	0	5.246e-05	4.52e-06
323.15	0	7.235e-05	6.23e-06
278.15	0.1	1.671e-05	1.44e-06
283.15	0.1	2.836e-05	2.44e-06
288.15	0.1	4.635e-05	3.99e-06
293.15	0.1	7.312e-05	6.3e-06
298.15	0.1	0.0001116	9.6e-06
303.15	0.1	0.000165	1.42e-05
308.15	0.1	0.0002369	2.04e-05
313.15	0.1	0.0003308	2.85e-05
318.15	0.1	0.00045	3.87e-05
323.15	0.1	0.0005971	5.15e-05
278.15	0.2	8.516e-05	7.33e-06
283.15	0.2	0.0001366	1.18e-05
288.15	0.2	0.0002119	1.82e-05
293.15	0.2	0.0003188	2.74e-05
298.15	0.2	0.0004657	4.01e-05
303.15	0.2	0.0006619	5.7e-05
308.15	0.2	0.0009167	7.89e-05
313.15	0.2	0.001239	0.000107
318.15	0.2	0.001636	0.000141
323.15	0.2	0.002114	0.000182
278.15	0.3003	0.0002242	1.93e-05
283.15	0.3003	0.0003437	2.96e-05
288.15	0.3003	0.000512	4.41e-05
293.15	0.3003	0.0007424	6.39e-05
298.15	0.3003	0.001049	9e-05
303.15	0.3003	0.001448	0.000125
308.15	0.3003	0.001954	0.000168
313.15	0.3003	0.00258	0.000222
318.15	0.3003	0.003339	0.000287
323.15	0.3003	0.004239	0.000365
278.15	0.4005	0.0004008	3.45e-05
283.15	0.4005	0.0005916	5.09e-05
288.15	0.4005	0.0008518	7.33e-05
293.15	0.4005	0.001198	0.000103
298.15	0.4005	0.001649	0.000142
303.15	0.4005	0.002222	0.000191
308.15	0.4005	0.002936	0.000253
313.15	0.4005	0.00381	0.000328
318.15	0.4005	0.004858	0.000418
323.15	0.4005	0.006093	0.000524
278.15	0.5001	0.0005979	5.15e-05
283.15	0.5001	0.0008525	7.34e-05
288.15	0.5001	0.00119	0.000102
293.15	0.5001	0.001629	0.00014
298.15	0.5001	0.002189	0.000188
303.15	0.5001	0.002889	0.000249
308.15	0.5001	0.003751	0.000323
313.15	0.5001	0.004795	0.000413
318.15	0.5001	0.006039	0.00052
323.15	0.5001	0.0075	0.000645
278.15	0.5996	0.001135	9.8e-05
283.15	0.5996	0.0015	0.000129
288.15	0.5996	0.00195	0.000168
293.15	0.5996	0.002411	0.000207
298.15	0.5996	0.003006	0.000259
303.15	0.5996	0.003821	0.000329
308.15	0.5996	0.004789	0.000412
313.15	0.5996	0.005979	0.000514
318.15	0.5996	0.007356	0.000633
323.15	0.5996	0.008989	0.000773
278.15	0.6999	0.001714	0.000148
283.15	0.6999	0.00214	0.000184
288.15	0.6999	0.002652	0.000228
293.15	0.6999	0.003248	0.000279
298.15	0.6999	0.003968	0.000341
303.15	0.6999	0.004856	0.000418
308.15	0.6999	0.005851	0.000503
313.15	0.6999	0.007083	0.000609
318.15	0.6999	0.008454	0.000727
323.15	0.6999	0.01003	0.00086
278.15	0.8002	0.001955	0.000168
283.15	0.8002	0.002381	0.000205
288.15	0.8002	0.002938	0.000253
293.15	0.8002	0.003621	0.000312
298.15	0.8002	0.004378	0.000377
303.15	0.8002	0.00528	0.000454
308.15	0.8002	0.006371	0.000548
313.15	0.8002	0.007742	0.000666
318.15	0.8002	0.009296	0.0008
323.15	0.8002	0.01089	0.00094
278.15	0.9001	0.002241	0.000193
283.15	0.9001	0.002756	0.000237
288.15	0.9001	0.003336	0.000287
293.15	0.9001	0.004011	0.000345
298.15	0.9001	0.004839	0.000416
303.15	0.9001	0.005793	0.000498
308.15	0.9001	0.007023	0.000604
313.15	0.9001	0.008546	0.000735
318.15	0.9001	0.01036	0.00089
323.15	0.9001	0.01233	0.00106
278.15	1	0.002652	0.000228
283.15	1	0.003242	0.000279
288.15	1	0.003881	0.000334
293.15	1	0.00461	0.000397
298.15	1	0.00556	0.000478
303.15	1	0.00664	0.000571
308.15	1	0.007991	0.000688
313.15	1	0.009602	0.000826
318.15	1	0.01151	0.00099
323.15	1	0.01351	0.00116

System: water + 1,4-dioxane + bis(4-aminophenyl) sulfone; phases: Liquid, Crystal
Fixed: Pressure, kPa = 101.1
Property: Mole fraction of bis(4-aminophenyl) sulfone (Liquid); method: Chromatography
Temperature, K	Solvent: Mass fraction of 1,4-dioxane	Mole fraction of bis(4-aminophenyl) sulfone	uncertainty
288.15	0	3.911e-06	3.37e-07
293.15	0	6.73e-06	5.8e-07
298.15	0	1.066e-05	9.2e-07
303.15	0	1.635e-05	1.41e-06
308.15	0	2.518e-05	2.17e-06
313.15	0	3.703e-05	3.19e-06
318.15	0	5.246e-05	4.52e-06
323.15	0	7.235e-05	6.23e-06
288.15	0.0999	4.334e-05	3.73e-06
293.15	0.0999	6.848e-05	5.9e-06
298.15	0.0999	0.0001046	9e-06
303.15	0.0999	0.0001547	1.33e-05
308.15	0.0999	0.0002219	1.91e-05
313.15	0.0999	0.0003095	2.66e-05
318.15	0.0999	0.0004201	3.62e-05
323.15	0.0999	0.0005561	4.79e-05
288.15	0.1999	0.0001897	1.63e-05
293.15	0.1999	0.0002849	2.45e-05
298.15	0.1999	0.0004152	3.57e-05
303.15	0.1999	0.0005883	5.06e-05
308.15	0.1999	0.0008118	6.99e-05
313.15	0.1999	0.001093	9.4e-05
318.15	0.1999	0.001436	0.000124
323.15	0.1999	0.001846	0.000159
288.15	0.2995	0.0004595	3.95e-05
293.15	0.2995	0.0006652	5.73e-05
298.15	0.2995	0.0009378	8.07e-05
303.15	0.2995	0.001289	0.000111
308.15	0.2995	0.001731	0.000149
313.15	0.2995	0.002274	0.000196
318.15	0.2995	0.002924	0.000252
323.15	0.2995	0.003686	0.000317
288.15	0.399	0.0008968	7.72e-05
293.15	0.399	0.001256	0.000108
298.15	0.399	0.001719	0.000148
303.15	0.399	0.002301	0.000198
308.15	0.399	0.003017	0.00026
313.15	0.399	0.003879	0.000334
318.15	0.399	0.004896	0.000421
323.15	0.399	0.006071	0.000522
288.15	0.4994	0.001694	0.000146
293.15	0.4994	0.002292	0.000197
298.15	0.4994	0.003041	0.000262
303.15	0.4994	0.003959	0.000341
308.15	0.4994	0.005063	0.000436
313.15	0.4994	0.006367	0.000548
318.15	0.4994	0.007883	0.000678
323.15	0.4994	0.009613	0.000827
288.15	0.5998	0.003001	0.000258
293.15	0.5998	0.003928	0.000338
298.15	0.5998	0.005057	0.000435
303.15	0.5998	0.006409	0.000551
308.15	0.5998	0.008003	0.000689
313.15	0.5998	0.009856	0.000848
318.15	0.5998	0.012	0.00103
323.15	0.5998	0.014	0.0012
288.15	0.6908	0.005084	0.000437
293.15	0.6908	0.006441	0.000554
298.15	0.6908	0.008054	0.000693
303.15	0.6908	0.009946	0.000856
308.15	0.6908	0.012	0.00103
313.15	0.6908	0.015	0.00129
318.15	0.6908	0.017	0.00146
323.15	0.6908	0.021	0.00181
288.15	0.7817	0.008057	0.000693
293.15	0.7817	0.009893	0.000851
298.15	0.7817	0.012	0.00103
303.15	0.7817	0.014	0.0012
308.15	0.7817	0.017	0.00146
313.15	0.7817	0.02	0.00172
318.15	0.7817	0.024	0.00206
323.15	0.7817	0.028	0.00241
288.15	0.8908	0.009911	0.000853
293.15	0.8908	0.012	0.00103
298.15	0.8908	0.014	0.0012
303.15	0.8908	0.016	0.00138
308.15	0.8908	0.019	0.00163
313.15	0.8908	0.022	0.00189
318.15	0.8908	0.026	0.00224
323.15	0.8908	0.03	0.00258
288.15	1	0.01142	0.00098
293.15	1	0.01333	0.00115
298.15	1	0.01535	0.00132
303.15	1	0.01784	0.00153
308.15	1	0.02051	0.00176
313.15	1	0.02358	0.00203
318.15	1	0.02709	0.00233
323.15	1	0.03081	0.00265

System: water + bis(4-aminophenyl) sulfone; phases: Liquid, Crystal
Fixed: Pressure, kPa = 101.1
Property: Mole fraction of bis(4-aminophenyl) sulfone (Liquid); method: Chromatography
Temperature, K	Mole fraction of bis(4-aminophenyl) sulfone	uncertainty
278.15	1.359e-06	1.17e-07
283.15	2.326e-06	2e-07
288.15	3.911e-06	3.37e-07
293.15	6.73e-06	5.8e-07
298.15	1.066e-05	9.2e-07
303.15	1.635e-05	1.41e-06
308.15	2.518e-05	2.17e-06
313.15	3.703e-05	3.19e-06
318.15	5.246e-05	4.52e-06
323.15	7.235e-05	6.23e-06

System: propan-1-ol + bis(4-aminophenyl) sulfone; phases: Liquid, Crystal
Fixed: Pressure, kPa = 101.1
Property: Mole fraction of bis(4-aminophenyl) sulfone (Liquid); method: Chromatography
Temperature, K	Mole fraction of bis(4-aminophenyl) sulfone	uncertainty
278.15	0.002913	0.000251
283.15	0.0036	0.00031
288.15	0.004345	0.000374
293.15	0.005214	0.000449
298.15	0.006209	0.000534
303.15	0.007382	0.000635
308.15	0.008813	0.000758
313.15	0.01038	0.00089
318.15	0.01212	0.00104
323.15	0.01406	0.00121

System: propan-2-ol + bis(4-aminophenyl) sulfone; phases: Liquid, Crystal
Fixed: Pressure, kPa = 101.1
Property: Mole fraction of bis(4-aminophenyl) sulfone (Liquid); method: Chromatography
Temperature, K	Mole fraction of bis(4-aminophenyl) sulfone	uncertainty
278.15	0.002652	0.000228
283.15	0.003242	0.000279
288.15	0.003881	0.000334
293.15	0.00461	0.000397
298.15	0.00556	0.000478
303.15	0.00664	0.000571
308.15	0.007991	0.000688
313.15	0.009602	0.000826
318.15	0.01151	0.00099
323.15	0.01351	0.00116

System: 1,4-dioxane + bis(4-aminophenyl) sulfone; phases: Liquid, Crystal
Fixed: Pressure, kPa = 101.1
Property: Mole fraction of bis(4-aminophenyl) sulfone (Liquid); method: Chromatography
Temperature, K	Mole fraction of bis(4-aminophenyl) sulfone	uncertainty
288.15	0.01142	0.00098
293.15	0.01333	0.00115
298.15	0.01535	0.00132
303.15	0.01784	0.00153
308.15	0.02051	0.00176
313.15	0.02358	0.00203
318.15	0.02709	0.00233
323.15	0.03081	0.00265
