Measured thermophysical data. Densities, viscosities, and ultrasonic velocity studies of binary mixtures of trichloromethane with methanol, ethanol, propan-1-ol, and butan-1-ol at T=(298.15 and 308.15) K
Source: J. Chem. Thermodyn., 2006, 10.1016/j.jct.2006.03.010
Compound 1: trichloromethane, CHCl3, InChI=1S/CHCl3/c2-1(3)4/h1H
Compound 2: methanol, CH4O, InChI=1S/CH4O/c1-2/h2H,1H3
Compound 3: ethanol, C2H6O, InChI=1S/C2H6O/c1-2-3/h3H,2H2,1H3
Compound 4: propan-1-ol, C3H8O, InChI=1S/C3H8O/c1-2-3-4/h4H,2-3H2,1H3
Compound 5: butan-1-ol, C4H10O, InChI=1S/C4H10O/c1-2-3-4-5/h5H,2-4H2,1H3

System: trichloromethane; phases: Liquid
Fixed: Pressure, kPa = 101
Property: Viscosity, Pa*s (Liquid); method: CAPTUB:UFactor:2
Temperature, K	Viscosity, Pa*s	uncertainty
298.15	0.000556	1e-05
308.15	0.000513	9e-06

System: trichloromethane; phases: Liquid
Fixed: Pressure, kPa = 101
Property: Speed of sound, m/s (Liquid); method: Linear variable-path acoustic interferometer
Temperature, K	Speed of sound, m/s	uncertainty
298.15	985	3
308.15	950	2

System: trichloromethane; phases: Liquid
Fixed: Pressure, kPa = 101
Property: Mass density, kg/m3 (Liquid); method: PYCNOM:UFactor:2
Temperature, K	Mass density, kg/m3	uncertainty
298.15	1478.82	1.22
308.15	1459.45	1.24

System: methanol; phases: Liquid
Fixed: Pressure, kPa = 101
Property: Viscosity, Pa*s (Liquid); method: CAPTUB::UFactor:2
Temperature, K	Viscosity, Pa*s	uncertainty
298.15	0.000551	9e-06
308.15	0.000493	9e-06

System: methanol; phases: Liquid
Fixed: Pressure, kPa = 101
Property: Speed of sound, m/s (Liquid); method: Linear variable-path acoustic interferometer
Temperature, K	Speed of sound, m/s	uncertainty
298.15	1109	3
308.15	1076	3

System: methanol; phases: Liquid
Fixed: Pressure, kPa = 101
Property: Mass density, kg/m3 (Liquid); method: PYCNOM::UFactor:2
Temperature, K	Mass density, kg/m3	uncertainty
298.15	786.3	0.39
308.15	776.6	0.43

System: ethanol; phases: Liquid
Fixed: Pressure, kPa = 101
Property: Viscosity, Pa*s (Liquid); method: CAPTUB::UFactor:2
Temperature, K	Viscosity, Pa*s	uncertainty
298.15	0.001084	1.4e-05
308.15	0.000902	1.3e-05

System: ethanol; phases: Liquid
Fixed: Pressure, kPa = 101
Property: Speed of sound, m/s (Liquid); method: Linear variable-path acoustic interferometer
Temperature, K	Speed of sound, m/s	uncertainty
298.15	1144	3
308.15	1111	3

System: ethanol; phases: Liquid
Fixed: Pressure, kPa = 101
Property: Mass density, kg/m3 (Liquid); method: PYCNOM::UFactor:2
Temperature, K	Mass density, kg/m3	uncertainty
298.15	784.32	0.39
308.15	775.51	0.43

System: propan-1-ol; phases: Liquid
Fixed: Pressure, kPa = 101
Property: Viscosity, Pa*s (Liquid); method: CAPTUB::UFactor:2
Temperature, K	Viscosity, Pa*s	uncertainty
298.15	0.00195	2.4e-05
308.15	0.001533	2e-05

System: propan-1-ol; phases: Liquid
Fixed: Pressure, kPa = 101
Property: Speed of sound, m/s (Liquid); method: Linear variable-path acoustic interferometer
Temperature, K	Speed of sound, m/s	uncertainty
298.15	1212	3
308.15	1177	3

System: propan-1-ol; phases: Liquid
Fixed: Pressure, kPa = 101
Property: Mass density, kg/m3 (Liquid); method: PYCNOM::UFactor:2
Temperature, K	Mass density, kg/m3	uncertainty
298.15	800.82	0.4
308.15	792.51	0.44

System: butan-1-ol; phases: Liquid
Fixed: Pressure, kPa = 101
Property: Viscosity, Pa*s (Liquid); method: CAPTUB::UFactor:2
Temperature, K	Viscosity, Pa*s	uncertainty
298.15	0.002585	3.4e-05
308.15	0.002012	2.8e-05

System: butan-1-ol; phases: Liquid
Fixed: Pressure, kPa = 101
Property: Speed of sound, m/s (Liquid); method: Linear variable-path acoustic interferometer
Temperature, K	Speed of sound, m/s	uncertainty
298.15	1235	3
308.15	1210	3

System: butan-1-ol; phases: Liquid
Fixed: Pressure, kPa = 101
Property: Mass density, kg/m3 (Liquid); method: PYCNOM::UFactor:2
Temperature, K	Mass density, kg/m3	uncertainty
298.15	806.33	0.5
308.15	798.38	0.54

System: methanol + trichloromethane; phases: Liquid
Fixed: Pressure, kPa = 101
Property: Viscosity, Pa*s (Liquid); method: CAPTUB:UFactor:2
Temperature, K	Mole fraction of trichloromethane	Viscosity, Pa*s	uncertainty
298.15	0	0.000551	9e-06
298.15	0.0501	0.000587	1e-05
298.15	0.0959	0.000612	1e-05
298.15	0.1501	0.000635	1e-05
298.15	0.2007	0.000651	1e-05
298.15	0.2499	0.000657	1e-05
298.15	0.3015	0.000663	1e-05
298.15	0.3502	0.00066	1e-05
298.15	0.3966	0.000658	1e-05
298.15	0.4498	0.000651	1e-05
298.15	0.5047	0.000641	1e-05
298.15	0.5506	0.000633	1e-05
298.15	0.6033	0.000619	1e-05
298.15	0.6515	0.000612	1e-05
298.15	0.7032	0.000601	1e-05
298.15	0.751	0.000592	1e-05
298.15	0.7987	0.000583	1e-05
298.15	0.85	0.000574	1e-05
298.15	0.902	0.000567	1e-05
298.15	0.9505	0.000561	1e-05
298.15	1	0.000556	1e-05
308.15	0	0.000493	9e-06
308.15	0.0501	0.000523	9e-06
308.15	0.0959	0.000545	9e-06
308.15	0.1501	0.000564	9e-06
308.15	0.2007	0.000576	1e-05
308.15	0.2499	0.000584	1e-05
308.15	0.3015	0.000586	1e-05
308.15	0.3502	0.000588	1e-05
308.15	0.3966	0.000584	1e-05
308.15	0.4498	0.000582	1e-05
308.15	0.5047	0.000572	1e-05
308.15	0.5506	0.000569	1e-05
308.15	0.6033	0.00056	1e-05
308.15	0.6515	0.000552	9e-06
308.15	0.7032	0.00055	9e-06
308.15	0.751	0.000536	9e-06
308.15	0.7987	0.000531	9e-06
308.15	0.85	0.000523	9e-06
308.15	0.902	0.000516	9e-06
308.15	0.9505	0.000515	9e-06
308.15	1	0.000513	9e-06

System: methanol + trichloromethane; phases: Liquid
Fixed: Pressure, kPa = 101
Property: Speed of sound, m/s (Liquid); method: Linear variable-path acoustic interferometer
Temperature, K	Mole fraction of trichloromethane	Speed of sound, m/s	uncertainty
298.15	0	1109	3
298.15	0.0501	1080	3
298.15	0.0959	1060	3
298.15	0.1501	1041	3
298.15	0.2007	1028	2
298.15	0.2499	1017	2
298.15	0.3015	1007	2
298.15	0.3502	1000	2
298.15	0.3966	994	2
298.15	0.4498	989	2
298.15	0.5047	984	2
298.15	0.5506	981	2
298.15	0.6033	979	2
298.15	0.6515	977	2
298.15	0.7032	976	2
298.15	0.751	976	2
298.15	0.7987	976	2
298.15	0.85	977	2
298.15	0.902	979	2
298.15	0.9505	982	3
298.15	1	985	3
308.15	0	1076	3
308.15	0.0501	1048	3
308.15	0.0959	1029	2
308.15	0.1501	1010	2
308.15	0.2007	997	2
308.15	0.2499	986	2
308.15	0.3015	976	2
308.15	0.3502	969	2
308.15	0.3966	963	2
308.15	0.4498	958	2
308.15	0.5047	954	2
308.15	0.5506	950	2
308.15	0.6033	948	2
308.15	0.6515	946	2
308.15	0.7032	945	2
308.15	0.751	944	2
308.15	0.7987	944	2
308.15	0.85	945	2
308.15	0.902	946	2
308.15	0.9505	948	2
308.15	1	950	2

System: methanol + trichloromethane; phases: Liquid
Fixed: Pressure, kPa = 101
Property: Mass density, kg/m3 (Liquid); method: PYCNOM:UFactor:2
Temperature, K	Mole fraction of trichloromethane	Mass density, kg/m3	uncertainty
298.15	0	786.3	0.39
298.15	0.0501	852.42	0.51
298.15	0.0959	907.6	0.53
298.15	0.1501	967.31	0.57
298.15	0.2007	1018.13	0.61
298.15	0.2499	1063.89	0.64
298.15	0.3015	1107.99	0.68
298.15	0.3502	1146.56	0.71
298.15	0.3966	1180.85	0.75
298.15	0.4498	1217.39	0.79
298.15	0.5047	1252.37	0.83
298.15	0.5506	1279.51	0.86
298.15	0.6033	1308.68	0.9
298.15	0.6515	1333.97	0.94
298.15	0.7032	1359.31	0.98
298.15	0.751	1381.31	1.02
298.15	0.7987	1402.09	1.06
298.15	0.85	1423.32	1.1
298.15	0.902	1443.49	1.14
298.15	0.9505	1461.44	1.18
298.15	1	1478.82	1.22
308.15	0	776.6	0.43
308.15	0.0501	842	0.54
308.15	0.0959	896.56	0.57
308.15	0.1501	955.55	0.61
308.15	0.2007	1005.77	0.64
308.15	0.2499	1050.91	0.68
308.15	0.3015	1094.32	0.71
308.15	0.3502	1132.48	0.75
308.15	0.3966	1166.26	0.78
308.15	0.4498	1202.34	0.82
308.15	0.5047	1236.78	0.86
308.15	0.5506	1263.63	0.9
308.15	0.6033	1292.64	0.94
308.15	0.6515	1317.33	0.97
308.15	0.7032	1342.39	1.01
308.15	0.751	1363.96	1.05
308.15	0.7987	1384.31	1.08
308.15	0.85	1405.26	1.12
308.15	0.902	1425.07	1.16
308.15	0.9505	1442.54	1.2
308.15	1	1459.45	1.24

System: ethanol + trichloromethane; phases: Liquid
Fixed: Pressure, kPa = 101
Property: Viscosity, Pa*s (Liquid); method: CAPTUB:UFactor:2
Temperature, K	Mole fraction of trichloromethane	Viscosity, Pa*s	uncertainty
298.15	0	0.001084	1.4e-05
298.15	0.0522	0.001085	1.4e-05
298.15	0.1007	0.00107	1.4e-05
298.15	0.1468	0.001043	1.4e-05
298.15	0.2014	0.001003	1.4e-05
298.15	0.2505	0.000956	1.3e-05
298.15	0.3005	0.000901	1.3e-05
298.15	0.3491	0.00086	1.2e-05
298.15	0.3999	0.000809	1.2e-05
298.15	0.4505	0.000767	1.1e-05
298.15	0.5045	0.00073	1.1e-05
298.15	0.5509	0.000694	1.1e-05
298.15	0.6007	0.000668	1e-05
298.15	0.6492	0.000644	1e-05
298.15	0.7008	0.000629	1e-05
298.15	0.7496	0.000615	1e-05
298.15	0.8059	0.000601	1e-05
298.15	0.8544	0.000596	1e-05
298.15	0.8994	0.000588	1e-05
298.15	0.9498	0.000576	1e-05
298.15	1	0.000556	1e-05
308.15	0	0.000902	1.3e-05
308.15	0.0522	0.000902	1.3e-05
308.15	0.1007	0.00089	1.3e-05
308.15	0.1468	0.000869	1.2e-05
308.15	0.2014	0.000836	1.2e-05
308.15	0.2505	0.000803	1.2e-05
308.15	0.3005	0.000764	1.1e-05
308.15	0.3491	0.000732	1.1e-05
308.15	0.3999	0.000696	1.1e-05
308.15	0.4505	0.000665	1e-05
308.15	0.5045	0.00064	1e-05
308.15	0.5509	0.000613	1e-05
308.15	0.6007	0.000596	1e-05
308.15	0.6492	0.00058	1e-05
308.15	0.7008	0.000569	1e-05
308.15	0.7496	0.000562	1e-05
308.15	0.8059	0.000551	1e-05
308.15	0.8544	0.000549	1e-05
308.15	0.8994	0.000544	9e-06
308.15	0.9498	0.000531	9e-06
308.15	1	0.000513	9e-06

System: ethanol + trichloromethane; phases: Liquid
Fixed: Pressure, kPa = 101
Property: Speed of sound, m/s (Liquid); method: Linear variable-path acoustic interferometer
Temperature, K	Mole fraction of trichloromethane	Speed of sound, m/s	uncertainty
298.15	0	1144	3
298.15	0.0522	1129	3
298.15	0.1007	1114	3
298.15	0.1468	1101	3
298.15	0.2014	1085	3
298.15	0.2505	1071	3
298.15	0.3005	1057	3
298.15	0.3491	1045	3
298.15	0.3999	1033	3
298.15	0.4505	1021	3
298.15	0.5045	1011	2
298.15	0.5509	1003	2
298.15	0.6007	996	2
298.15	0.6492	990	2
298.15	0.7008	985	2
298.15	0.7496	982	2
298.15	0.8059	981	2
298.15	0.8544	980	2
298.15	0.8994	981	3
298.15	0.9498	983	3
298.15	1	985	3
308.15	0	1111	3
308.15	0.0522	1092	3
308.15	0.1007	1076	3
308.15	0.1468	1062	3
308.15	0.2014	1046	3
308.15	0.2505	1034	3
308.15	0.3005	1022	2
308.15	0.3491	1011	2
308.15	0.3999	1000	2
308.15	0.4505	991	2
308.15	0.5045	982	2
308.15	0.5509	975	2
308.15	0.6007	967	2
308.15	0.6492	962	2
308.15	0.7008	957	2
308.15	0.7496	953	2
308.15	0.8059	950	2
308.15	0.8544	949	2
308.15	0.8994	949	2
308.15	0.9498	948	2
308.15	1	950	2

System: ethanol + trichloromethane; phases: Liquid
Fixed: Pressure, kPa = 101
Property: Mass density, kg/m3 (Liquid); method: PYCNOM:UFactor:2
Temperature, K	Mole fraction of trichloromethane	Mass density, kg/m3	uncertainty
298.15	0	784.32	0.39
298.15	0.0522	834.86	0.47
298.15	0.1007	879.76	0.5
298.15	0.1468	920.98	0.53
298.15	0.2014	968.01	0.56
298.15	0.2505	1008.24	0.6
298.15	0.3005	1047.8	0.63
298.15	0.3491	1084.58	0.66
298.15	0.3999	1121.8	0.7
298.15	0.4505	1157.08	0.74
298.15	0.5045	1193.09	0.78
298.15	0.5509	1223.51	0.82
298.15	0.6007	1254.55	0.86
298.15	0.6492	1284.3	0.89
298.15	0.7008	1314.71	0.94
298.15	0.7496	1342.79	0.98
298.15	0.8059	1374.26	1.03
298.15	0.8544	1400.99	1.08
298.15	0.8994	1425.35	1.12
298.15	0.9498	1452.14	1.17
298.15	1	1478.82	1.22
308.15	0	775.51	0.43
308.15	0.0522	824.87	0.5
308.15	0.1007	868.7	0.53
308.15	0.1468	909.11	0.56
308.15	0.2014	955.3	0.6
308.15	0.2505	994.85	0.63
308.15	0.3005	1033.7	0.66
308.15	0.3491	1069.92	0.7
308.15	0.3999	1106.5	0.73
308.15	0.4505	1141.59	0.77
308.15	0.5045	1177.49	0.81
308.15	0.5509	1207.46	0.85
308.15	0.6007	1238.37	0.89
308.15	0.6492	1267.81	0.93
308.15	0.7008	1297.8	0.97
308.15	0.7496	1325.84	1.01
308.15	0.8059	1357.1	1.06
308.15	0.8544	1383.35	1.1
308.15	0.8994	1407.35	1.15
308.15	0.9498	1433.5	1.2
308.15	1	1459.45	1.24

System: trichloromethane + propan-1-ol; phases: Liquid
Fixed: Pressure, kPa = 101
Property: Viscosity, Pa*s (Liquid); method: CAPTUB:UFactor:2
Temperature, K	Mole fraction of trichloromethane	Viscosity, Pa*s	uncertainty
298.15	0	0.00195	2.4e-05
298.15	0.0521	0.00184	2.3e-05
298.15	0.0995	0.001734	2.2e-05
298.15	0.1503	0.001611	2.1e-05
298.15	0.2009	0.001492	1.9e-05
298.15	0.2497	0.001374	1.8e-05
298.15	0.3057	0.001235	1.6e-05
298.15	0.3499	0.001155	1.5e-05
298.15	0.4031	0.001049	1.4e-05
298.15	0.4509	0.000968	1.3e-05
298.15	0.5055	0.000885	1.3e-05
298.15	0.554	0.000822	1.2e-05
298.15	0.5994	0.000776	1.1e-05
298.15	0.651	0.000727	1.1e-05
298.15	0.7033	0.000705	1.1e-05
298.15	0.7505	0.000666	1.1e-05
298.15	0.7999	0.00064	1e-05
298.15	0.8507	0.000625	1e-05
298.15	0.9002	0.000605	1e-05
298.15	0.9484	0.000586	1e-05
298.15	1	0.000556	1e-05
308.15	0	0.001533	2e-05
308.15	0.0521	0.001452	1.9e-05
308.15	0.0995	0.001373	1.8e-05
308.15	0.1503	0.001283	1.7e-05
308.15	0.2009	0.001196	1.6e-05
308.15	0.2497	0.001111	1.5e-05
308.15	0.3057	0.001011	1.4e-05
308.15	0.3499	0.000952	1.3e-05
308.15	0.4031	0.000886	1.3e-05
308.15	0.4509	0.000818	1.2e-05
308.15	0.5055	0.00076	1.1e-05
308.15	0.554	0.000714	1.1e-05
308.15	0.5994	0.000679	1.1e-05
308.15	0.651	0.000647	1e-05
308.15	0.7033	0.000618	1e-05
308.15	0.7505	0.000602	1e-05
308.15	0.7999	0.000585	1e-05
308.15	0.8507	0.000572	1e-05
308.15	0.9002	0.000557	1e-05
308.15	0.9484	0.000539	9e-06
308.15	1	0.000513	9e-06

System: trichloromethane + propan-1-ol; phases: Liquid
Fixed: Pressure, kPa = 101
Property: Speed of sound, m/s (Liquid); method: Linear variable-path acoustic interferometer
Temperature, K	Mole fraction of trichloromethane	Speed of sound, m/s	uncertainty
298.15	0	1212	3
298.15	0.0521	1190	3
298.15	0.0995	1171	3
298.15	0.1503	1153	3
298.15	0.2009	1136	3
298.15	0.2497	1119	3
298.15	0.3057	1102	3
298.15	0.3499	1089	3
298.15	0.4031	1074	3
298.15	0.4509	1061	3
298.15	0.5055	1046	3
298.15	0.554	1035	3
298.15	0.5994	1025	3
298.15	0.651	1015	3
298.15	0.7033	1006	3
298.15	0.7505	999	3
298.15	0.7999	993	3
298.15	0.8507	987	3
298.15	0.9002	984	3
298.15	0.9484	983	3
298.15	1	985	3
308.15	0	1177	3
308.15	0.0521	1155	3
308.15	0.0995	1136	3
308.15	0.1503	1117	3
308.15	0.2009	1099	3
308.15	0.2497	1082	3
308.15	0.3057	1064	3
308.15	0.3499	1052	3
308.15	0.4031	1036	3
308.15	0.4509	1023	3
308.15	0.5055	1009	2
308.15	0.554	998	2
308.15	0.5994	988	2
308.15	0.651	977	2
308.15	0.7033	968	2
308.15	0.7505	961	2
308.15	0.7999	955	2
308.15	0.8507	950	2
308.15	0.9002	947	2
308.15	0.9484	947	2
308.15	1	950	2

System: trichloromethane + propan-1-ol; phases: Liquid
Fixed: Pressure, kPa = 101
Property: Mass density, kg/m3 (Liquid); method: PYCNOM:UFactor:2
Temperature, K	Mole fraction of trichloromethane	Mass density, kg/m3	uncertainty
298.15	0	800.82	0.4
298.15	0.0521	838.68	0.45
298.15	0.0995	872.8	0.48
298.15	0.1503	909.09	0.51
298.15	0.2009	944.84	0.54
298.15	0.2497	979.01	0.57
298.15	0.3057	1017.84	0.6
298.15	0.3499	1048.26	0.63
298.15	0.4031	1084.7	0.67
298.15	0.4509	1117.15	0.7
298.15	0.5055	1154.04	0.75
298.15	0.554	1186.48	0.78
298.15	0.5994	1216.69	0.82
298.15	0.651	1250.99	0.87
298.15	0.7033	1285.41	0.91
298.15	0.7505	1316.56	0.96
298.15	0.7999	1348.87	1.01
298.15	0.8507	1382.01	1.06
298.15	0.9002	1414.19	1.11
298.15	0.9484	1445.46	1.16
298.15	1	1478.82	1.22
308.15	0	792.51	0.44
308.15	0.0521	829.81	0.49
308.15	0.0995	863.45	0.52
308.15	0.1503	899.13	0.54
308.15	0.2009	934.26	0.57
308.15	0.2497	967.92	0.6
308.15	0.3057	1006.01	0.64
308.15	0.3499	1036.01	0.67
308.15	0.4031	1071.81	0.7
308.15	0.4509	1103.72	0.74
308.15	0.5055	1139.98	0.78
308.15	0.554	1171.86	0.82
308.15	0.5994	1201.5	0.85
308.15	0.651	1235.18	0.9
308.15	0.7033	1269.07	0.94
308.15	0.7505	1299.61	0.99
308.15	0.7999	1331.42	1.03
308.15	0.8507	1363.98	1.08
308.15	0.9002	1395.63	1.14
308.15	0.9484	1426.51	1.19
308.15	1	1459.45	1.24

System: trichloromethane + butan-1-ol; phases: Liquid
Fixed: Pressure, kPa = 101
Property: Viscosity, Pa*s (Liquid); method: CAPTUB:UFactor:2
Temperature, K	Mole fraction of trichloromethane	Viscosity, Pa*s	uncertainty
298.15	0	0.002585	3.4e-05
298.15	0.0512	0.002407	3.2e-05
298.15	0.1	0.002248	3e-05
298.15	0.149	0.002056	2.7e-05
298.15	0.2009	0.001872	2.5e-05
298.15	0.2506	0.001705	2.3e-05
298.15	0.2999	0.001543	2.1e-05
298.15	0.3659	0.001351	1.8e-05
298.15	0.407	0.001245	1.7e-05
298.15	0.4515	0.001139	1.6e-05
298.15	0.4997	0.001041	1.4e-05
298.15	0.5502	0.000945	1.3e-05
298.15	0.6012	0.000877	1.3e-05
298.15	0.6527	0.000804	1.2e-05
298.15	0.7021	0.000755	1.1e-05
298.15	0.7519	0.000715	1.1e-05
298.15	0.8021	0.00067	1.1e-05
298.15	0.8518	0.000654	1e-05
298.15	0.9024	0.000614	1e-05
298.15	0.951	0.000596	1e-05
298.15	1	0.000556	1e-05
308.15	0	0.002012	2.8e-05
308.15	0.0512	0.001883	2.6e-05
308.15	0.1	0.001764	2.4e-05
308.15	0.149	0.001628	2.2e-05
308.15	0.2009	0.001501	2.1e-05
308.15	0.2506	0.001372	1.9e-05
308.15	0.2999	0.00126	1.7e-05
308.15	0.3659	0.001114	1.6e-05
308.15	0.407	0.001035	1.5e-05
308.15	0.4515	0.000957	1.4e-05
308.15	0.4997	0.000886	1.3e-05
308.15	0.5502	0.000815	1.2e-05
308.15	0.6012	0.00076	1.2e-05
308.15	0.6527	0.00071	1.1e-05
308.15	0.7021	0.00067	1.1e-05
308.15	0.7519	0.000643	1e-05
308.15	0.8021	0.000607	1e-05
308.15	0.8518	0.000595	1e-05
308.15	0.9024	0.000565	1e-05
308.15	0.951	0.000546	1e-05
308.15	1	0.000513	9e-06

System: trichloromethane + butan-1-ol; phases: Liquid
Fixed: Pressure, kPa = 101
Property: Speed of sound, m/s (Liquid); method: Linear variable-path acoustic interferometer
Temperature, K	Mole fraction of trichloromethane	Speed of sound, m/s	uncertainty
298.15	0	1235	3
298.15	0.0512	1215	3
298.15	0.1	1198	3
298.15	0.149	1180	3
298.15	0.2009	1163	3
298.15	0.2506	1146	3
298.15	0.2999	1130	3
298.15	0.3659	1110	3
298.15	0.407	1097	3
298.15	0.4515	1085	3
298.15	0.4997	1071	3
298.15	0.5502	1058	3
298.15	0.6012	1045	3
298.15	0.6527	1033	3
298.15	0.7021	1022	3
298.15	0.7519	1013	3
298.15	0.8021	1004	3
298.15	0.8518	997	3
298.15	0.9024	992	3
298.15	0.951	987	3
298.15	1	985	3
308.15	0	1210	3
308.15	0.0512	1190	3
308.15	0.1	1171	3
308.15	0.149	1153	3
308.15	0.2009	1134	3
308.15	0.2506	1116	3
308.15	0.2999	1099	3
308.15	0.3659	1078	3
308.15	0.407	1065	3
308.15	0.4515	1051	3
308.15	0.4997	1037	3
308.15	0.5502	1024	3
308.15	0.6012	1011	3
308.15	0.6527	998	3
308.15	0.7021	987	3
308.15	0.7519	978	3
308.15	0.8021	969	3
308.15	0.8518	962	2
308.15	0.9024	956	2
308.15	0.951	952	2
308.15	1	950	2

System: trichloromethane + butan-1-ol; phases: Liquid
Fixed: Pressure, kPa = 101
Property: Mass density, kg/m3 (Liquid); method: PYCNOM:UFactor:2
Temperature, K	Mole fraction of trichloromethane	Mass density, kg/m3	uncertainty
298.15	0	806.33	0.5
298.15	0.0512	836.7	0.54
298.15	0.1	865.9	0.57
298.15	0.149	895.66	0.6
298.15	0.2009	927.49	0.63
298.15	0.2506	958.3	0.66
298.15	0.2999	989.27	0.69
298.15	0.3659	1031.4	0.73
298.15	0.407	1057.94	0.76
298.15	0.4515	1087.02	0.79
298.15	0.4997	1118.91	0.82
298.15	0.5502	1152.78	0.86
298.15	0.6012	1187.46	0.89
298.15	0.6527	1223.02	0.93
298.15	0.7021	1257.69	0.97
298.15	0.7519	1293.2	1.01
298.15	0.8021	1329.4	1.05
298.15	0.8518	1365.91	1.1
298.15	0.9024	1403.63	1.14
298.15	0.951	1440.79	1.18
298.15	1	1478.82	1.22
308.15	0	798.38	0.54
308.15	0.0512	828.27	0.58
308.15	0.1	857	0.6
308.15	0.149	886.25	0.63
308.15	0.2009	917.55	0.66
308.15	0.2506	947.84	0.69
308.15	0.2999	978.3	0.72
308.15	0.3659	1019.75	0.76
308.15	0.407	1045.83	0.79
308.15	0.4515	1074.42	0.82
308.15	0.4997	1105.67	0.85
308.15	0.5502	1138.99	0.89
308.15	0.6012	1173.05	0.93
308.15	0.6527	1207.99	0.96
308.15	0.7021	1241.99	1
308.15	0.7519	1276.84	1.04
308.15	0.8021	1312.4	1.08
308.15	0.8518	1348.31	1.12
308.15	0.9024	1385.4	1.16
308.15	0.951	1421.97	1.21
308.15	1	1459.45	1.24
