Measured thermophysical data. Volumetric and viscometric study with FT-IR analysis of binary systems with diethyl succinate and alcohols
Source: J. Chem. Thermodyn., 2016, 10.1016/j.jct.2016.06.016
Compound 1: diethyl butanedioate, C8H14O4, InChI=1S/C8H14O4/c1-3-11-7(9)5-6-8(10)12-4-2/h3-6H2,1-2H3, purity 99%
Compound 2: propan-1-ol, C3H8O, InChI=1S/C3H8O/c1-2-3-4/h4H,2-3H2,1H3, purity 99.5%
Compound 3: butan-1-ol, C4H10O, InChI=1S/C4H10O/c1-2-3-4-5/h5H,2-4H2,1H3, purity 99.5%
Compound 4: hexan-1-ol, C6H14O, InChI=1S/C6H14O/c1-2-3-4-5-6-7/h7H,2-6H2,1H3, purity 99%

System: diethyl butanedioate; phases: Liquid
Fixed: Pressure, kPa = 100
Property: Mass density, kg/m3 (Liquid); method: Vibrating tube method
Temperature, K	Mass density, kg/m3	uncertainty
288.15	1044.83	0.84
293.15	1039.63	0.83
298.15	1034.44	0.83
303.15	1029.25	0.83
308.15	1024.08	0.83
313.15	1018.9	0.83
318.15	1013.72	0.83
323.15	1008.55	0.83

System: diethyl butanedioate; phases: Liquid
Fixed: Pressure, kPa = 100
Property: Viscosity, Pa*s (Liquid); method: Concentric cylinders viscometry
Temperature, K	Viscosity, Pa*s	uncertainty
288.15	0.0031948	3.03e-05
293.15	0.0028067	2.68e-05
298.15	0.0024914	2.39e-05
303.15	0.0022286	2.16e-05
308.15	0.0020081	1.96e-05
313.15	0.0018208	1.79e-05
318.15	0.0016597	1.65e-05
323.15	0.0015227	1.53e-05

System: diethyl butanedioate; phases: Liquid
Fixed: Pressure, kPa = 100
Property: Refractive index (Na D-line) (Liquid); method: Standard Abbe refractometry
Temperature, K	Refractive index (Na D-line)	uncertainty
288.15	1.4217	0.0014
293.15	1.4195	0.0014
298.15	1.4173	0.0014
303.15	1.4151	0.0014
308.15	1.4129	0.0014
313.15	1.4108	0.0014
318.15	1.4088	0.0014
323.15	1.4067	0.0014

System: propan-1-ol + diethyl butanedioate; phases: Liquid
Fixed: Pressure, kPa = 100
Property: Mass density, kg/m3 (Liquid); method: Vibrating tube method
Temperature, K	Mole fraction of diethyl butanedioate	Mass density, kg/m3	uncertainty
288.15	0	807.75	0.81
288.15	0.1	854.4	0.81
288.15	0.2	891.88	0.81
288.15	0.2999	922.67	0.81
288.15	0.3998	948.47	0.81
288.15	0.4999	970.46	0.81
288.15	0.6001	989.43	0.81
288.15	0.7001	1005.92	0.82
288.15	0.8002	1020.45	0.82
288.15	0.8997	1033.27	0.83
288.15	1	1044.83	0.84
293.15	0	803.77	0.81
293.15	0.1	850.08	0.81
293.15	0.2	887.33	0.81
293.15	0.2999	917.95	0.81
293.15	0.3998	943.61	0.81
293.15	0.4999	965.5	0.81
293.15	0.6001	984.4	0.81
293.15	0.7001	1000.83	0.82
293.15	0.8002	1015.31	0.82
293.15	0.8997	1028.1	0.83
293.15	1	1039.63	0.83
298.15	0	799.76	0.81
298.15	0.1	845.75	0.81
298.15	0.2	882.77	0.81
298.15	0.2999	913.21	0.81
298.15	0.3998	938.75	0.81
298.15	0.4999	960.54	0.81
298.15	0.6001	979.36	0.81
298.15	0.7001	995.74	0.82
298.15	0.8002	1010.18	0.82
298.15	0.8997	1022.93	0.83
298.15	1	1034.44	0.83
303.15	0	795.72	0.81
303.15	0.1	841.4	0.81
303.15	0.2	878.18	0.81
303.15	0.2999	908.46	0.81
303.15	0.3998	933.87	0.81
303.15	0.4999	955.57	0.81
303.15	0.6001	974.32	0.81
303.15	0.7001	990.64	0.82
303.15	0.8002	1005.04	0.82
303.15	0.8997	1017.76	0.83
303.15	1	1029.25	0.83
308.15	0	791.64	0.81
308.15	0.1	837.02	0.81
308.15	0.2	873.57	0.81
308.15	0.2999	903.69	0.81
308.15	0.3998	928.98	0.81
308.15	0.4999	950.59	0.81
308.15	0.6001	969.27	0.81
308.15	0.7001	985.54	0.82
308.15	0.8002	999.9	0.82
308.15	0.8997	1012.6	0.83
308.15	1	1024.08	0.83
313.15	0	787.52	0.81
313.15	0.1	832.6	0.81
313.15	0.2	868.94	0.81
313.15	0.2999	898.89	0.81
313.15	0.3998	924.07	0.81
313.15	0.4999	945.59	0.81
313.15	0.6001	964.21	0.81
313.15	0.7001	980.44	0.82
313.15	0.8002	994.77	0.82
313.15	0.8997	1007.44	0.82
313.15	1	1018.9	0.83
318.15	0	783.36	0.81
318.15	0.1	828.14	0.81
318.15	0.2	864.27	0.81
318.15	0.2999	894.07	0.81
318.15	0.3998	919.14	0.81
318.15	0.4999	940.58	0.81
318.15	0.6001	959.14	0.81
318.15	0.7001	975.33	0.82
318.15	0.8002	989.62	0.82
318.15	0.8997	1002.28	0.82
318.15	1	1013.72	0.83
323.15	0	779.14	0.81
323.15	0.1	823.65	0.81
323.15	0.2	859.57	0.81
323.15	0.2999	889.22	0.81
323.15	0.3998	914.18	0.81
323.15	0.4999	935.55	0.81
323.15	0.6001	954.05	0.81
323.15	0.7001	970.21	0.82
323.15	0.8002	984.48	0.82
323.15	0.8997	997.12	0.82
323.15	1	1008.55	0.83

System: propan-1-ol + diethyl butanedioate; phases: Liquid
Fixed: Pressure, kPa = 100
Property: Viscosity, Pa*s (Liquid); method: Concentric cylinders viscometry
Temperature, K	Mole fraction of diethyl butanedioate	Viscosity, Pa*s	uncertainty
288.15	0	0.0025139	2.15e-05
288.15	0.1	0.00213	1.87e-05
288.15	0.2	0.0020086	1.79e-05
288.15	0.2999	0.0020252	1.82e-05
288.15	0.3998	0.0021053	1.9e-05
288.15	0.4999	0.0022136	2.02e-05
288.15	0.6001	0.0023415	2.15e-05
288.15	0.7001	0.0024961	2.31e-05
288.15	0.8002	0.0026899	2.5e-05
288.15	0.8997	0.0029261	2.75e-05
288.15	1	0.0031948	3.03e-05
293.15	0	0.0022085	1.91e-05
293.15	0.1	0.0018887	1.68e-05
293.15	0.2	0.0017882	1.61e-05
293.15	0.2999	0.0018044	1.64e-05
293.15	0.3998	0.0018754	1.72e-05
293.15	0.4999	0.0019707	1.81e-05
293.15	0.6001	0.0020822	1.93e-05
293.15	0.7001	0.0022148	2.06e-05
293.15	0.8002	0.0023786	2.23e-05
293.15	0.8997	0.0025776	2.44e-05
293.15	1	0.0028067	2.68e-05
298.15	0	0.0019503	1.71e-05
298.15	0.1	0.0016902	1.52e-05
298.15	0.2	0.0016081	1.47e-05
298.15	0.2999	0.0016224	1.49e-05
298.15	0.3998	0.0016836	1.56e-05
298.15	0.4999	0.0017671	1.64e-05
298.15	0.6001	0.0018658	1.75e-05
298.15	0.7001	0.0019831	1.87e-05
298.15	0.8002	0.0021262	2.01e-05
298.15	0.8997	0.0022973	2.19e-05
298.15	1	0.0024914	2.39e-05
303.15	0	0.001727	1.54e-05
303.15	0.1	0.0015186	1.39e-05
303.15	0.2	0.001452	1.35e-05
303.15	0.2999	0.0014648	1.37e-05
303.15	0.3998	0.0015183	1.42e-05
303.15	0.4999	0.0015928	1.5e-05
303.15	0.6001	0.0016818	1.59e-05
303.15	0.7001	0.0017867	1.7e-05
303.15	0.8002	0.0019125	1.83e-05
303.15	0.8997	0.0020607	1.98e-05
303.15	1	0.0022286	2.16e-05
308.15	0	0.0015419	1.39e-05
308.15	0.1	0.0013712	1.27e-05
308.15	0.2	0.0013164	1.24e-05
308.15	0.2999	0.0013283	1.26e-05
308.15	0.3998	0.0013761	1.31e-05
308.15	0.4999	0.0014435	1.38e-05
308.15	0.6001	0.0015244	1.46e-05
308.15	0.7001	0.0016192	1.56e-05
308.15	0.8002	0.0017313	1.67e-05
308.15	0.8997	0.0018614	1.81e-05
308.15	1	0.0020081	1.96e-05
313.15	0	0.0013783	1.27e-05
313.15	0.1	0.0012477	1.18e-05
313.15	0.2	0.0012087	1.15e-05
313.15	0.2999	0.0012224	1.18e-05
313.15	0.3998	0.001265	1.22e-05
313.15	0.4999	0.0013249	1.28e-05
313.15	0.6001	0.0013979	1.35e-05
313.15	0.7001	0.0014845	1.44e-05
313.15	0.8002	0.0015862	1.55e-05
313.15	0.8997	0.0017004	1.66e-05
313.15	1	0.0018208	1.79e-05
318.15	0	0.0012365	1.16e-05
318.15	0.1	0.0011282	1.08e-05
318.15	0.2	0.0010959	1.07e-05
318.15	0.2999	0.0011096	1.09e-05
318.15	0.3998	0.0011499	1.13e-05
318.15	0.4999	0.0012061	1.18e-05
318.15	0.6001	0.0012738	1.25e-05
318.15	0.7001	0.0013522	1.33e-05
318.15	0.8002	0.0014427	1.42e-05
318.15	0.8997	0.0015454	1.53e-05
318.15	1	0.0016597	1.65e-05
323.15	0	0.0011241	1.07e-05
323.15	0.1	0.0010293	1.01e-05
323.15	0.2	0.0010065	1e-05
323.15	0.2999	0.0010247	1.02e-05
323.15	0.3998	0.0010651	1.06e-05
323.15	0.4999	0.0011179	1.11e-05
323.15	0.6001	0.00118	1.17e-05
323.15	0.7001	0.0012514	1.25e-05
323.15	0.8002	0.0013336	1.33e-05
323.15	0.8997	0.0014253	1.42e-05
323.15	1	0.0015227	1.53e-05

System: propan-1-ol + diethyl butanedioate; phases: Liquid
Fixed: Pressure, kPa = 100
Property: Refractive index (Na D-line) (Liquid); method: Standard Abbe refractometry
Temperature, K	Mole fraction of diethyl butanedioate	Refractive index (Na D-line)	uncertainty
288.15	0	1.3875	0.0014
288.15	0.1	1.394	0.0014
288.15	0.2	1.3993	0.0014
288.15	0.2999	1.4037	0.0014
288.15	0.3998	1.4075	0.0014
288.15	0.4999	1.4107	0.0014
288.15	0.6001	1.4135	0.0014
288.15	0.7001	1.416	0.0014
288.15	0.8002	1.4182	0.0014
288.15	0.8997	1.4201	0.0014
288.15	1	1.4217	0.0014
293.15	0	1.3854	0.0014
293.15	0.1	1.3918	0.0014
293.15	0.2	1.3971	0.0014
293.15	0.2999	1.4016	0.0014
293.15	0.3998	1.4053	0.0014
293.15	0.4999	1.4085	0.0014
293.15	0.6001	1.4113	0.0014
293.15	0.7001	1.4138	0.0014
293.15	0.8002	1.416	0.0014
293.15	0.8997	1.4179	0.0014
293.15	1	1.4195	0.0014
298.15	0	1.3834	0.0014
298.15	0.1	1.3897	0.0014
298.15	0.2	1.395	0.0014
298.15	0.2999	1.3994	0.0014
298.15	0.3998	1.4031	0.0014
298.15	0.4999	1.4063	0.0014
298.15	0.6001	1.4091	0.0014
298.15	0.7001	1.4116	0.0014
298.15	0.8002	1.4138	0.0014
298.15	0.8997	1.4157	0.0014
298.15	1	1.4173	0.0014
303.15	0	1.3814	0.0014
303.15	0.1	1.3876	0.0014
303.15	0.2	1.3928	0.0014
303.15	0.2999	1.3972	0.0014
303.15	0.3998	1.4009	0.0014
303.15	0.4999	1.4041	0.0014
303.15	0.6001	1.4069	0.0014
303.15	0.7001	1.4094	0.0014
303.15	0.8002	1.4116	0.0014
303.15	0.8997	1.4135	0.0014
303.15	1	1.4151	0.0014
308.15	0	1.3792	0.0014
308.15	0.1	1.3854	0.0014
308.15	0.2	1.3906	0.0014
308.15	0.2999	1.3949	0.0014
308.15	0.3998	1.3986	0.0014
308.15	0.4999	1.4018	0.0014
308.15	0.6001	1.4047	0.0014
308.15	0.7001	1.4072	0.0014
308.15	0.8002	1.4094	0.0014
308.15	0.8997	1.4113	0.0014
308.15	1	1.4129	0.0014
313.15	0	1.377	0.0014
313.15	0.1	1.3831	0.0014
313.15	0.2	1.3883	0.0014
313.15	0.2999	1.3927	0.0014
313.15	0.3998	1.3964	0.0014
313.15	0.4999	1.3996	0.0014
313.15	0.6001	1.4025	0.0014
313.15	0.7001	1.4049	0.0014
313.15	0.8002	1.4072	0.0014
313.15	0.8997	1.4091	0.0014
313.15	1	1.4108	0.0014
318.15	0	1.3748	0.0014
318.15	0.1	1.3809	0.0014
318.15	0.2	1.3861	0.0014
318.15	0.2999	1.3905	0.0014
318.15	0.3998	1.3942	0.0014
318.15	0.4999	1.3974	0.0014
318.15	0.6001	1.4002	0.0014
318.15	0.7001	1.4027	0.0014
318.15	0.8002	1.4049	0.0014
318.15	0.8997	1.4069	0.0014
318.15	1	1.4088	0.0014
323.15	0	1.3726	0.0014
323.15	0.1	1.3787	0.0014
323.15	0.2	1.3839	0.0014
323.15	0.2999	1.3882	0.0014
323.15	0.3998	1.392	0.0014
323.15	0.4999	1.3952	0.0014
323.15	0.6001	1.398	0.0014
323.15	0.7001	1.4005	0.0014
323.15	0.8002	1.4027	0.0014
323.15	0.8997	1.4048	0.0014
323.15	1	1.4067	0.0014

System: butan-1-ol + diethyl butanedioate; phases: Liquid
Fixed: Pressure, kPa = 100
Property: Mass density, kg/m3 (Liquid); method: Vibrating tube method
Temperature, K	Mole fraction of diethyl butanedioate	Mass density, kg/m3	uncertainty
288.15	0	813.46	0.81
288.15	0.1	851.32	0.81
288.15	0.2001	884.48	0.81
288.15	0.3	913.45	0.81
288.15	0.3999	938.87	0.81
288.15	0.5	961.37	0.81
288.15	0.6001	981.44	0.81
288.15	0.6998	999.46	0.82
288.15	0.7999	1015.94	0.82
288.15	0.8997	1031	0.83
288.15	1	1044.83	0.84
293.15	0	809.66	0.81
293.15	0.1	847.26	0.81
293.15	0.2001	880.14	0.81
293.15	0.3	908.86	0.81
293.15	0.3999	934.12	0.81
293.15	0.5	956.51	0.81
293.15	0.6001	976.5	0.81
293.15	0.6998	994.45	0.82
293.15	0.7999	1010.87	0.82
293.15	0.8997	1025.85	0.83
293.15	1	1039.63	0.83
298.15	0	805.84	0.81
298.15	0.1	843.14	0.81
298.15	0.2001	875.78	0.81
298.15	0.3	904.32	0.81
298.15	0.3999	929.42	0.81
298.15	0.5	951.69	0.81
298.15	0.6001	971.57	0.81
298.15	0.6998	989.44	0.82
298.15	0.7999	1005.79	0.82
298.15	0.8997	1020.71	0.83
298.15	1	1034.44	0.83
303.15	0	801.99	0.81
303.15	0.1	838.99	0.81
303.15	0.2001	871.41	0.81
303.15	0.3	899.78	0.81
303.15	0.3999	924.74	0.81
303.15	0.5	946.87	0.81
303.15	0.6001	966.65	0.81
303.15	0.6998	984.43	0.82
303.15	0.7999	1000.71	0.82
303.15	0.8997	1015.58	0.83
303.15	1	1029.25	0.83
308.15	0	798.12	0.81
308.15	0.1	834.83	0.81
308.15	0.2001	867.03	0.81
308.15	0.3	895.21	0.81
308.15	0.3999	920.02	0.81
308.15	0.5	942.04	0.81
308.15	0.6001	961.72	0.81
308.15	0.6998	979.42	0.82
308.15	0.7999	995.63	0.82
308.15	0.8997	1010.45	0.82
308.15	1	1024.08	0.83
313.15	0	794.22	0.81
313.15	0.1	830.64	0.81
313.15	0.2001	862.62	0.81
313.15	0.3	890.63	0.81
313.15	0.3999	915.3	0.81
313.15	0.5	937.2	0.81
313.15	0.6001	956.78	0.81
313.15	0.6998	974.41	0.82
313.15	0.7999	990.55	0.82
313.15	0.8997	1005.31	0.82
313.15	1	1018.9	0.83
318.15	0	790.28	0.81
318.15	0.1	826.42	0.81
318.15	0.2001	858.18	0.81
318.15	0.3	886.02	0.81
318.15	0.3999	910.54	0.81
318.15	0.5	932.33	0.81
318.15	0.6001	951.83	0.81
318.15	0.6998	969.38	0.82
318.15	0.7999	985.47	0.82
318.15	0.8997	1000.18	0.82
318.15	1	1013.72	0.83
323.15	0	786.29	0.81
323.15	0.1	822.17	0.81
323.15	0.2001	853.72	0.81
323.15	0.3	881.38	0.81
323.15	0.3999	905.78	0.81
323.15	0.5	927.46	0.81
323.15	0.6001	946.87	0.82
323.15	0.6998	964.35	0.82
323.15	0.7999	980.38	0.82
323.15	0.8997	995.05	0.82
323.15	1	1008.55	0.83

System: butan-1-ol + diethyl butanedioate; phases: Liquid
Fixed: Pressure, kPa = 100
Property: Viscosity, Pa*s (Liquid); method: Concentric cylinders viscometry
Temperature, K	Mole fraction of diethyl butanedioate	Viscosity, Pa*s	uncertainty
288.15	0	0.0033649	2.83e-05
288.15	0.1	0.0026653	2.3e-05
288.15	0.2001	0.0023819	2.09e-05
288.15	0.3	0.0023024	2.04e-05
288.15	0.3999	0.002306	2.07e-05
288.15	0.5	0.0023418	2.12e-05
288.15	0.6001	0.0024053	2.2e-05
288.15	0.6998	0.0025151	2.32e-05
288.15	0.7999	0.0026922	2.51e-05
288.15	0.8997	0.0029336	2.75e-05
288.15	1	0.0031948	3.03e-05
293.15	0	0.0029134	2.47e-05
293.15	0.1	0.0023389	2.04e-05
293.15	0.2001	0.0021059	1.87e-05
293.15	0.3	0.0020408	1.83e-05
293.15	0.3999	0.0020449	1.85e-05
293.15	0.5	0.0020767	1.9e-05
293.15	0.6001	0.0021328	1.97e-05
293.15	0.6998	0.0022282	2.08e-05
293.15	0.7999	0.00238	2.23e-05
293.15	0.8997	0.0025853	2.44e-05
293.15	1	0.0028067	2.68e-05
298.15	0	0.0025634	2.19e-05
298.15	0.1	0.0020717	1.82e-05
298.15	0.2001	0.0018766	1.68e-05
298.15	0.3	0.001825	1.66e-05
298.15	0.3999	0.0018313	1.68e-05
298.15	0.5	0.0018614	1.72e-05
298.15	0.6001	0.001914	1.79e-05
298.15	0.6998	0.002003	1.88e-05
298.15	0.7999	0.0021407	2.03e-05
298.15	0.8997	0.0023184	2.21e-05
298.15	1	0.0024914	2.39e-05
303.15	0	0.0022571	1.95e-05
303.15	0.1	0.0018447	1.64e-05
303.15	0.2001	0.0016816	1.53e-05
303.15	0.3	0.0016401	1.51e-05
303.15	0.3999	0.0016486	1.53e-05
303.15	0.5	0.001678	1.57e-05
303.15	0.6001	0.0017267	1.63e-05
303.15	0.6998	0.0018057	1.71e-05
303.15	0.7999	0.0019253	1.84e-05
303.15	0.8997	0.0020783	2e-05
303.15	1	0.0022286	2.16e-05
308.15	0	0.001994	1.75e-05
308.15	0.1	0.0016496	1.49e-05
308.15	0.2001	0.0015147	1.4e-05
308.15	0.3	0.0014821	1.38e-05
308.15	0.3999	0.0014918	1.4e-05
308.15	0.5	0.0015195	1.44e-05
308.15	0.6001	0.0015642	1.49e-05
308.15	0.6998	0.0016352	1.57e-05
308.15	0.7999	0.0017411	1.68e-05
308.15	0.8997	0.0018757	1.82e-05
308.15	1	0.0020081	1.96e-05
313.15	0	0.0017787	1.58e-05
313.15	0.1	0.00149	1.36e-05
313.15	0.2001	0.0013789	1.29e-05
313.15	0.3	0.0013546	1.28e-05
313.15	0.3999	0.0013664	1.3e-05
313.15	0.5	0.0013941	1.34e-05
313.15	0.6001	0.0014368	1.39e-05
313.15	0.6998	0.001502	1.46e-05
313.15	0.7999	0.001596	1.55e-05
313.15	0.8997	0.0017118	1.67e-05
313.15	1	0.0018208	1.79e-05
318.15	0	0.001576	1.42e-05
318.15	0.1	0.0013368	1.25e-05
318.15	0.2001	0.0012446	1.18e-05
318.15	0.3	0.0012258	1.18e-05
318.15	0.3999	0.0012388	1.2e-05
318.15	0.5	0.0012664	1.23e-05
318.15	0.6001	0.0013072	1.28e-05
318.15	0.6998	0.001367	1.34e-05
318.15	0.7999	0.0014514	1.43e-05
318.15	0.8997	0.0015559	1.54e-05
318.15	1	0.0016597	1.65e-05
323.15	0	0.0014219	1.3e-05
323.15	0.1	0.0012185	1.15e-05
323.15	0.2001	0.0011422	1.1e-05
323.15	0.3	0.0011288	1.1e-05
323.15	0.3999	0.0011427	1.12e-05
323.15	0.5	0.0011694	1.15e-05
323.15	0.6001	0.0012083	1.2e-05
323.15	0.6998	0.0012643	1.26e-05
323.15	0.7999	0.0013417	1.34e-05
323.15	0.8997	0.0014348	1.43e-05
323.15	1	0.0015227	1.53e-05

System: butan-1-ol + diethyl butanedioate; phases: Liquid
Fixed: Pressure, kPa = 100
Property: Refractive index (Na D-line) (Liquid); method: Standard Abbe refractometry
Temperature, K	Mole fraction of diethyl butanedioate	Refractive index (Na D-line)	uncertainty
288.15	0	1.4012	0.0014
288.15	0.1	1.4042	0.0014
288.15	0.2001	1.4069	0.0014
288.15	0.3	1.4094	0.0014
288.15	0.3999	1.4116	0.0014
288.15	0.5	1.4137	0.0014
288.15	0.6001	1.4156	0.0014
288.15	0.6998	1.4173	0.0014
288.15	0.7999	1.419	0.0014
288.15	0.8997	1.4204	0.0014
288.15	1	1.4217	0.0014
293.15	0	1.3992	0.0014
293.15	0.1	1.4021	0.0014
293.15	0.2001	1.4048	0.0014
293.15	0.3	1.4072	0.0014
293.15	0.3999	1.4094	0.0014
293.15	0.5	1.4115	0.0014
293.15	0.6001	1.4134	0.0014
293.15	0.6998	1.4151	0.0014
293.15	0.7999	1.4168	0.0014
293.15	0.8997	1.4182	0.0014
293.15	1	1.4195	0.0014
298.15	0	1.3972	0.0014
298.15	0.1	1.4	0.0014
298.15	0.2001	1.4027	0.0014
298.15	0.3	1.405	0.0014
298.15	0.3999	1.4073	0.0014
298.15	0.5	1.4093	0.0014
298.15	0.6001	1.4112	0.0014
298.15	0.6998	1.4129	0.0014
298.15	0.7999	1.4146	0.0014
298.15	0.8997	1.416	0.0014
298.15	1	1.4173	0.0014
303.15	0	1.3951	0.0014
303.15	0.1	1.3979	0.0014
303.15	0.2001	1.4005	0.0014
303.15	0.3	1.4029	0.0014
303.15	0.3999	1.4051	0.0014
303.15	0.5	1.4071	0.0014
303.15	0.6001	1.409	0.0014
303.15	0.6998	1.4107	0.0014
303.15	0.7999	1.4123	0.0014
303.15	0.8997	1.4138	0.0014
303.15	1	1.4151	0.0014
308.15	0	1.393	0.0014
308.15	0.1	1.3958	0.0014
308.15	0.2001	1.3983	0.0014
308.15	0.3	1.4007	0.0014
308.15	0.3999	1.4029	0.0014
308.15	0.5	1.4049	0.0014
308.15	0.6001	1.4068	0.0014
308.15	0.6998	1.4085	0.0014
308.15	0.7999	1.4101	0.0014
308.15	0.8997	1.4116	0.0014
308.15	1	1.4129	0.0014
313.15	0	1.391	0.0014
313.15	0.1	1.3936	0.0014
313.15	0.2001	1.3962	0.0014
313.15	0.3	1.3985	0.0014
313.15	0.3999	1.4007	0.0014
313.15	0.5	1.4027	0.0014
313.15	0.6001	1.4046	0.0014
313.15	0.6998	1.4063	0.0014
313.15	0.7999	1.4079	0.0014
313.15	0.8997	1.4094	0.0014
313.15	1	1.4108	0.0014
318.15	0	1.3889	0.0014
318.15	0.1	1.3915	0.0014
318.15	0.2001	1.394	0.0014
318.15	0.3	1.3963	0.0014
318.15	0.3999	1.3985	0.0014
318.15	0.5	1.4005	0.0014
318.15	0.6001	1.4024	0.0014
318.15	0.6998	1.4041	0.0014
318.15	0.7999	1.4058	0.0014
318.15	0.8997	1.4073	0.0014
318.15	1	1.4088	0.0014
323.15	0	1.3867	0.0014
323.15	0.1	1.3894	0.0014
323.15	0.2001	1.3918	0.0014
323.15	0.3	1.3942	0.0014
323.15	0.3999	1.3963	0.0014
323.15	0.5	1.3983	0.0014
323.15	0.6001	1.4002	0.0014
323.15	0.6998	1.402	0.0014
323.15	0.7999	1.4036	0.0014
323.15	0.8997	1.4052	0.0014
323.15	1	1.4067	0.0014

System: hexan-1-ol + diethyl butanedioate; phases: Liquid
Fixed: Pressure, kPa = 100
Property: Mass density, kg/m3 (Liquid); method: Vibrating tube method
Temperature, K	Mole fraction of diethyl butanedioate	Mass density, kg/m3	uncertainty
288.15	0	822.26	0.83
288.15	0.0999	849.53	0.83
288.15	0.2	875.7	0.83
288.15	0.3001	900.45	0.83
288.15	0.4	923.97	0.83
288.15	0.4999	946.39	0.83
288.15	0.6	967.72	0.83
288.15	0.7002	988.27	0.83
288.15	0.7999	1007.86	0.83
288.15	0.9	1026.75	0.83
288.15	1	1044.83	0.84
293.15	0	818.7	0.83
293.15	0.0999	845.73	0.83
293.15	0.2	871.67	0.83
293.15	0.3001	896.23	0.83
293.15	0.4	919.56	0.83
293.15	0.4999	941.82	0.83
293.15	0.6	963	0.83
293.15	0.7002	983.42	0.83
293.15	0.7999	1002.88	0.83
293.15	0.9	1021.66	0.83
293.15	1	1039.63	0.83
298.15	0	815.12	0.83
298.15	0.0999	841.91	0.83
298.15	0.2	867.63	0.83
298.15	0.3001	891.99	0.83
298.15	0.4	915.15	0.83
298.15	0.4999	937.24	0.83
298.15	0.6	958.28	0.83
298.15	0.7002	978.57	0.83
298.15	0.7999	997.91	0.83
298.15	0.9	1016.57	0.83
298.15	1	1034.44	0.83
303.15	0	811.52	0.83
303.15	0.0999	838.07	0.83
303.15	0.2	863.58	0.83
303.15	0.3001	887.75	0.83
303.15	0.4	910.73	0.83
303.15	0.4999	932.67	0.83
303.15	0.6	953.56	0.83
303.15	0.7002	973.72	0.83
303.15	0.7999	992.94	0.83
303.15	0.9	1011.5	0.83
303.15	1	1029.25	0.83
308.15	0	807.89	0.83
308.15	0.0999	834.22	0.83
308.15	0.2	859.52	0.83
308.15	0.3001	883.49	0.83
308.15	0.4	906.3	0.83
308.15	0.4999	928.09	0.83
308.15	0.6	948.84	0.83
308.15	0.7002	968.87	0.83
308.15	0.7999	987.97	0.83
308.15	0.9	1006.42	0.83
308.15	1	1024.08	0.83
313.15	0	804.25	0.83
313.15	0.0999	830.34	0.83
313.15	0.2	855.43	0.83
313.15	0.3001	879.22	0.83
313.15	0.4	901.87	0.83
313.15	0.4999	923.5	0.83
313.15	0.6	944.11	0.83
313.15	0.7002	964.01	0.83
313.15	0.7999	983	0.83
313.15	0.9	1001.34	0.83
313.15	1	1018.9	0.83
318.15	0	800.56	0.83
318.15	0.0999	826.44	0.83
318.15	0.2	851.33	0.83
318.15	0.3001	874.93	0.83
318.15	0.4	897.41	0.83
318.15	0.4999	918.89	0.83
318.15	0.6	939.37	0.83
318.15	0.7002	959.15	0.83
318.15	0.7999	978.02	0.83
318.15	0.9	996.26	0.83
318.15	1	1013.72	0.83
323.15	0	796.85	0.83
323.15	0.0999	822.52	0.83
323.15	0.2	847.2	0.83
323.15	0.3001	870.62	0.83
323.15	0.4	892.94	0.83
323.15	0.4999	914.27	0.83
323.15	0.6	934.62	0.83
323.15	0.7002	954.28	0.83
323.15	0.7999	973.05	0.83
323.15	0.9	991.18	0.83
323.15	1	1008.55	0.83

System: hexan-1-ol + diethyl butanedioate; phases: Liquid
Fixed: Pressure, kPa = 100
Property: Viscosity, Pa*s (Liquid); method: Concentric cylinders viscometry
Temperature, K	Mole fraction of diethyl butanedioate	Viscosity, Pa*s	uncertainty
288.15	0	0.0063078	5.85e-05
288.15	0.0999	0.0045387	4.26e-05
288.15	0.2	0.0037292	3.52e-05
288.15	0.3001	0.0032847	3.11e-05
288.15	0.4	0.0030186	2.87e-05
288.15	0.4999	0.0028693	2.73e-05
288.15	0.6	0.0027895	2.66e-05
288.15	0.7002	0.0027884	2.66e-05
288.15	0.7999	0.0028556	2.72e-05
288.15	0.9	0.0029541	2.81e-05
288.15	1	0.0031948	3.03e-05
293.15	0	0.0053323	4.96e-05
293.15	0.0999	0.0038761	3.65e-05
293.15	0.2	0.0032132	3.05e-05
293.15	0.3001	0.0028417	2.71e-05
293.15	0.4	0.00262	2.51e-05
293.15	0.4999	0.0024955	2.4e-05
293.15	0.6	0.0024319	2.34e-05
293.15	0.7002	0.0024352	2.34e-05
293.15	0.7999	0.0024955	2.4e-05
293.15	0.9	0.0026101	2.5e-05
293.15	1	0.0028067	2.68e-05
298.15	0	0.0045378	4.24e-05
298.15	0.0999	0.0033583	3.18e-05
298.15	0.2	0.0028172	2.69e-05
298.15	0.3001	0.0025082	2.41e-05
298.15	0.4	0.0023268	2.25e-05
298.15	0.4999	0.0022309	2.16e-05
298.15	0.6	0.00218	2.11e-05
298.15	0.7002	0.002188	2.12e-05
298.15	0.7999	0.0022398	2.17e-05
298.15	0.9	0.0023372	2.25e-05
298.15	1	0.0024914	2.39e-05
303.15	0	0.0038955	3.66e-05
303.15	0.0999	0.0029317	2.79e-05
303.15	0.2	0.0024773	2.38e-05
303.15	0.3001	0.0022219	2.15e-05
303.15	0.4	0.002071	2.02e-05
303.15	0.4999	0.0019902	1.94e-05
303.15	0.6	0.0019524	1.91e-05
303.15	0.7002	0.0019617	1.92e-05
303.15	0.7999	0.0020101	1.96e-05
303.15	0.9	0.0020982	2.04e-05
303.15	1	0.0022286	2.16e-05
308.15	0	0.003361	3.18e-05
308.15	0.0999	0.0025718	2.47e-05
308.15	0.2	0.0021934	2.13e-05
308.15	0.3001	0.0019796	1.93e-05
308.15	0.4	0.0018541	1.82e-05
308.15	0.4999	0.0017881	1.76e-05
308.15	0.6	0.0017593	1.74e-05
308.15	0.7002	0.0017702	1.75e-05
308.15	0.7999	0.0018156	1.79e-05
308.15	0.9	0.0018934	1.86e-05
308.15	1	0.0020081	1.96e-05
313.15	0	0.0029168	2.78e-05
313.15	0.0999	0.0022762	2.2e-05
313.15	0.2	0.0019611	1.92e-05
313.15	0.3001	0.0017832	1.76e-05
313.15	0.4	0.0016788	1.67e-05
313.15	0.4999	0.0016257	1.62e-05
313.15	0.6	0.001604	1.6e-05
313.15	0.7002	0.0016167	1.61e-05
313.15	0.7999	0.0016588	1.65e-05
313.15	0.9	0.0017291	1.71e-05
313.15	1	0.0018208	1.79e-05
318.15	0	0.0025456	2.44e-05
318.15	0.0999	0.0020127	1.97e-05
318.15	0.2	0.0017485	1.73e-05
318.15	0.3001	0.0015982	1.6e-05
318.15	0.4	0.0015114	1.52e-05
318.15	0.4999	0.0014678	1.48e-05
318.15	0.6	0.0014521	1.47e-05
318.15	0.7002	0.0014669	1.48e-05
318.15	0.7999	0.001506	1.51e-05
318.15	0.9	0.00157	1.57e-05
318.15	1	0.0016597	1.65e-05
323.15	0	0.0022407	2.17e-05
323.15	0.0999	0.0018168	1.79e-05
323.15	0.2	0.0015839	1.58e-05
323.15	0.3001	0.0014583	1.47e-05
323.15	0.4	0.0013865	1.41e-05
323.15	0.4999	0.0013442	1.37e-05
323.15	0.6	0.0013371	1.36e-05
323.15	0.7002	0.001353	1.38e-05
323.15	0.7999	0.0013908	1.41e-05
323.15	0.9	0.0014481	1.46e-05
323.15	1	0.0015227	1.53e-05

System: hexan-1-ol + diethyl butanedioate; phases: Liquid
Fixed: Pressure, kPa = 100
Property: Refractive index (Na D-line) (Liquid); method: Standard Abbe refractometry
Temperature, K	Mole fraction of diethyl butanedioate	Refractive index (Na D-line)	uncertainty
288.15	0	1.4196	0.0014
288.15	0.0999	1.4192	0.0014
288.15	0.2	1.419	0.0014
288.15	0.3001	1.4189	0.0014
288.15	0.4	1.4191	0.0014
288.15	0.4999	1.4193	0.0014
288.15	0.6	1.4197	0.0014
288.15	0.7002	1.4202	0.0014
288.15	0.7999	1.4207	0.0014
288.15	0.9	1.4212	0.0014
288.15	1	1.4217	0.0014
293.15	0	1.4176	0.0014
293.15	0.0999	1.4172	0.0014
293.15	0.2	1.4169	0.0014
293.15	0.3001	1.4168	0.0014
293.15	0.4	1.417	0.0014
293.15	0.4999	1.4172	0.0014
293.15	0.6	1.4176	0.0014
293.15	0.7002	1.418	0.0014
293.15	0.7999	1.4185	0.0014
293.15	0.9	1.419	0.0014
293.15	1	1.4195	0.0014
298.15	0	1.4156	0.0014
298.15	0.0999	1.4152	0.0014
298.15	0.2	1.4148	0.0014
298.15	0.3001	1.4147	0.0014
298.15	0.4	1.4148	0.0014
298.15	0.4999	1.415	0.0014
298.15	0.6	1.4154	0.0014
298.15	0.7002	1.4158	0.0014
298.15	0.7999	1.4163	0.0014
298.15	0.9	1.4168	0.0014
298.15	1	1.4173	0.0014
303.15	0	1.4136	0.0014
303.15	0.0999	1.4131	0.0014
303.15	0.2	1.4127	0.0014
303.15	0.3001	1.4126	0.0014
303.15	0.4	1.4127	0.0014
303.15	0.4999	1.4129	0.0014
303.15	0.6	1.4133	0.0014
303.15	0.7002	1.4136	0.0014
303.15	0.7999	1.4142	0.0014
303.15	0.9	1.4147	0.0014
303.15	1	1.4151	0.0014
308.15	0	1.4117	0.0014
308.15	0.0999	1.4111	0.0014
308.15	0.2	1.4107	0.0014
308.15	0.3001	1.4105	0.0014
308.15	0.4	1.4106	0.0014
308.15	0.4999	1.4108	0.0014
308.15	0.6	1.4111	0.0014
308.15	0.7002	1.4115	0.0014
308.15	0.7999	1.412	0.0014
308.15	0.9	1.4125	0.0014
308.15	1	1.4129	0.0014
313.15	0	1.4097	0.0014
313.15	0.0999	1.409	0.0014
313.15	0.2	1.4086	0.0014
313.15	0.3001	1.4084	0.0014
313.15	0.4	1.4084	0.0014
313.15	0.4999	1.4086	0.0014
313.15	0.6	1.4089	0.0014
313.15	0.7002	1.4093	0.0014
313.15	0.7999	1.4098	0.0014
313.15	0.9	1.4103	0.0014
313.15	1	1.4108	0.0014
318.15	0	1.4078	0.0014
318.15	0.0999	1.407	0.0014
318.15	0.2	1.4065	0.0014
318.15	0.3001	1.4063	0.0014
318.15	0.4	1.4063	0.0014
318.15	0.4999	1.4064	0.0014
318.15	0.6	1.4068	0.0014
318.15	0.7002	1.4071	0.0014
318.15	0.7999	1.4076	0.0014
318.15	0.9	1.4082	0.0014
318.15	1	1.4088	0.0014
323.15	0	1.4058	0.0014
323.15	0.0999	1.4049	0.0014
323.15	0.2	1.4044	0.0014
323.15	0.3001	1.4042	0.0014
323.15	0.4	1.4042	0.0014
323.15	0.4999	1.4043	0.0014
323.15	0.6	1.4046	0.0014
323.15	0.7002	1.405	0.0014
323.15	0.7999	1.4054	0.0014
323.15	0.9	1.406	0.0014
323.15	1	1.4067	0.0014
