Measured thermophysical data. Dynamic viscosities of binary mixtures of cycloalkanes with primary alcohols at T = (293.15, 298.15, and 303.15) K: New UNIFAC-VISCO interaction parameters
Source: J. Chem. Thermodyn., 2007, 10.1016/j.jct.2006.06.008
Compound 1: cyclohexane, C6H12, InChI=1S/C6H12/c1-2-4-6-5-3-1/h1-6H2, purity 99.8%
Compound 2: cyclopentane, C5H10, InChI=1S/C5H10/c1-2-4-5-3-1/h1-5H2, purity 99%
Compound 3: propan-1-ol, C3H8O, InChI=1S/C3H8O/c1-2-3-4/h4H,2-3H2,1H3, purity 99%
Compound 4: butan-1-ol, C4H10O, InChI=1S/C4H10O/c1-2-3-4-5/h5H,2-4H2,1H3, purity 99.8%
Compound 5: ethanol, C2H6O, InChI=1S/C2H6O/c1-2-3/h3H,2H2,1H3, purity 99.8%

System: cyclohexane; phases: Liquid
Fixed: Pressure, kPa = 101
Property: Viscosity, Pa*s (Liquid); method: CAPTUB:UFactor:4
Temperature, K	Viscosity, Pa*s	uncertainty
293.15	0.000968	2.4e-05
298.15	0.000887	2.2e-05
303.15	0.000816	2.1e-05

System: cyclohexane; phases: Liquid
Fixed: Pressure, kPa = 101
Property: Speed of sound, m/s (Liquid); method: FPINT:UFactor:4
Temperature, K	Speed of sound, m/s	uncertainty
293.15	1279	3
298.15	1254	3
303.15	1230	3

System: cyclohexane; phases: Liquid
Fixed: Pressure, kPa = 101
Property: Mass density, kg/m3 (Liquid); method: VIBTUB:UFactor:4
Temperature, K	Mass density, kg/m3	uncertainty
293.15	778.62	0.48
298.15	773.92	0.48
303.15	769.19	0.49

System: cyclopentane; phases: Liquid
Fixed: Pressure, kPa = 101
Property: Viscosity, Pa*s (Liquid); method: CAPTUB:UFactor:4
Temperature, K	Viscosity, Pa*s	uncertainty
293.15	0.000439	1.3e-05
298.15	0.000416	1.2e-05
303.15	0.000394	1.2e-05

System: cyclopentane; phases: Liquid
Fixed: Pressure, kPa = 101
Property: Speed of sound, m/s (Liquid); method: FPINT:UFactor:3
Temperature, K	Speed of sound, m/s	uncertainty
293.15	1232	2
298.15	1206	2
303.15	1180	2

System: cyclopentane; phases: Liquid
Fixed: Pressure, kPa = 101
Property: Mass density, kg/m3 (Liquid); method: VIBTUB:UFactor:4
Temperature, K	Mass density, kg/m3	uncertainty
293.15	744.52	0.63
298.15	739.55	0.64
303.15	734.54	0.65

System: propan-1-ol; phases: Liquid
Fixed: Pressure, kPa = 101
Property: Viscosity, Pa*s (Liquid); method: CAPTUB::UFactor:4
Temperature, K	Viscosity, Pa*s	uncertainty
293.15	0.002159	5.1e-05
298.15	0.001915	4.6e-05
303.15	0.001713	4.2e-05

System: propan-1-ol; phases: Liquid
Fixed: Pressure, kPa = 101
Property: Speed of sound, m/s (Liquid); method: FPINT::UFactor:3
Temperature, K	Speed of sound, m/s	uncertainty
293.15	1223	2
298.15	1206	2
303.15	1189	2

System: propan-1-ol; phases: Liquid
Fixed: Pressure, kPa = 101
Property: Mass density, kg/m3 (Liquid); method: VIBTUB::UFactor:4
Temperature, K	Mass density, kg/m3	uncertainty
293.15	803.59	0.56
298.15	799.58	0.57
303.15	795.55	0.57

System: butan-1-ol; phases: Liquid
Fixed: Pressure, kPa = 101
Property: Viscosity, Pa*s (Liquid); method: CAPTUB::UFactor:4
Temperature, K	Viscosity, Pa*s	uncertainty
293.15	0.002941	6.8e-05
298.15	0.002571	6e-05
303.15	0.002255	5.3e-05

System: butan-1-ol; phases: Liquid
Fixed: Pressure, kPa = 101
Property: Speed of sound, m/s (Liquid); method: FPINT::UFactor:3
Temperature, K	Speed of sound, m/s	uncertainty
293.15	1257	2
298.15	1240	2
303.15	1224	2

System: butan-1-ol; phases: Liquid
Fixed: Pressure, kPa = 101
Property: Mass density, kg/m3 (Liquid); method: VIBTUB::UFactor:4
Temperature, K	Mass density, kg/m3	uncertainty
293.15	809.5	0.43
298.15	805.75	0.43
303.15	801.8	0.44

System: ethanol; phases: Liquid
Fixed: Pressure, kPa = 101
Property: Viscosity, Pa*s (Liquid); method: CAPTUB::UFactor:4
Temperature, K	Viscosity, Pa*s	uncertainty
293.15	0.001187	2.9e-05
298.15	0.001082	2.7e-05
303.15	0.000987	2.5e-05

System: ethanol; phases: Liquid
Fixed: Pressure, kPa = 101
Property: Speed of sound, m/s (Liquid); method: FPINT::UFactor:4
Temperature, K	Speed of sound, m/s	uncertainty
293.15	1162	3
298.15	1145	2
303.15	1128	2

System: ethanol; phases: Liquid
Fixed: Pressure, kPa = 101
Property: Mass density, kg/m3 (Liquid); method: VIBTUB::UFactor:4
Temperature, K	Mass density, kg/m3	uncertainty
293.15	789.75	0.46
298.15	785.46	0.47
303.15	781.15	0.47

System: ethanol + cyclohexane; phases: Liquid
Fixed: Pressure, kPa = 101
Property: Viscosity, Pa*s (Liquid); method: CAPTUB:UFactor:4
Temperature, K	Mole fraction of cyclohexane	Viscosity, Pa*s	uncertainty
293.15	0	0.001187	2.9e-05
293.15	0.0473	0.001148	2.8e-05
293.15	0.096	0.001102	2.7e-05
293.15	0.2043	0.001051	2.6e-05
293.15	0.3028	0.001005	2.5e-05
293.15	0.3979	0.000978	2.4e-05
293.15	0.5027	0.000954	2.4e-05
293.15	0.5939	0.000934	2.4e-05
293.15	0.7051	0.000915	2.3e-05
293.15	0.8055	0.000908	2.3e-05
293.15	0.9041	0.000923	2.3e-05
293.15	0.9534	0.000941	2.4e-05
293.15	1	0.000968	2.4e-05
298.15	0	0.001082	2.7e-05
298.15	0.0473	0.001046	2.6e-05
298.15	0.096	0.001009	2.5e-05
298.15	0.2043	0.000954	2.4e-05
298.15	0.3028	0.000918	2.3e-05
298.15	0.3979	0.000893	2.3e-05
298.15	0.5027	0.00087	2.2e-05
298.15	0.5939	0.000853	2.2e-05
298.15	0.7051	0.000836	2.1e-05
298.15	0.8055	0.000833	2.1e-05
298.15	0.9041	0.000846	2.2e-05
298.15	0.9534	0.000862	2.2e-05
298.15	1	0.000887	2.2e-05
303.15	0	0.000987	2.5e-05
303.15	0.0473	0.000956	2.4e-05
303.15	0.096	0.000922	2.3e-05
303.15	0.2043	0.000875	2.2e-05
303.15	0.3028	0.000838	2.1e-05
303.15	0.3979	0.000818	2.1e-05
303.15	0.5027	0.000796	2.1e-05
303.15	0.5939	0.000781	2e-05
303.15	0.7051	0.000769	2e-05
303.15	0.8055	0.000769	2e-05
303.15	0.9041	0.000778	2e-05
303.15	0.9534	0.000793	2e-05
303.15	1	0.000816	2.1e-05

System: ethanol + cyclohexane; phases: Liquid
Fixed: Pressure, kPa = 101
Property: Speed of sound, m/s (Liquid); method: FPINT:UFactor:4
Temperature, K	Mole fraction of cyclohexane	Speed of sound, m/s	uncertainty
293.15	0	1162	3
293.15	0.0473	1162	3
293.15	0.096	1165	3
293.15	0.2043	1174	3
293.15	0.3028	1184	3
293.15	0.3979	1195	3
293.15	0.5027	1208	3
293.15	0.5939	1219	3
293.15	0.7051	1232	3
293.15	0.8055	1245	3
293.15	0.9041	1258	3
293.15	0.9534	1267	3
293.15	1	1279	3
298.15	0	1145	2
298.15	0.0473	1144	2
298.15	0.096	1147	2
298.15	0.2043	1155	3
298.15	0.3028	1164	3
298.15	0.3979	1174	3
298.15	0.5027	1186	3
298.15	0.5939	1196	3
298.15	0.7051	1209	3
298.15	0.8055	1221	3
298.15	0.9041	1235	3
298.15	0.9534	1242	3
298.15	1	1254	3
303.15	0	1128	2
303.15	0.0473	1127	2
303.15	0.096	1129	2
303.15	0.2043	1135	2
303.15	0.3028	1144	2
303.15	0.3979	1153	3
303.15	0.5027	1164	3
303.15	0.5939	1174	3
303.15	0.7051	1186	3
303.15	0.8055	1197	3
303.15	0.9041	1211	3
303.15	0.9534	1218	3
303.15	1	1230	3

System: ethanol + cyclohexane; phases: Liquid
Fixed: Pressure, kPa = 101
Property: Mass density, kg/m3 (Liquid); method: VIBTUB:UFactor:4
Temperature, K	Mole fraction of cyclohexane	Mass density, kg/m3	uncertainty
293.15	0	789.75	0.46
293.15	0.0473	787	0.46
293.15	0.096	784.97	0.47
293.15	0.2043	781.33	0.47
293.15	0.3028	779.4	0.48
293.15	0.3979	778.2	0.48
293.15	0.5027	777.4	0.48
293.15	0.5939	776.98	0.48
293.15	0.7051	776.79	0.48
293.15	0.8055	776.89	0.48
293.15	0.9041	777.3	0.48
293.15	0.9534	777.74	0.48
293.15	1	778.62	0.48
298.15	0	785.46	0.47
298.15	0.0473	782.65	0.47
298.15	0.096	780.6	0.47
298.15	0.2043	776.87	0.48
298.15	0.3028	774.86	0.48
298.15	0.3979	773.6	0.48
298.15	0.5027	772.73	0.49
298.15	0.5939	772.26	0.49
298.15	0.7051	772.03	0.49
298.15	0.8055	772.11	0.49
298.15	0.9041	772.5	0.49
298.15	0.9534	772.98	0.49
298.15	1	773.92	0.48
303.15	0	781.15	0.47
303.15	0.0473	778.29	0.48
303.15	0.096	776.2	0.48
303.15	0.2043	772.37	0.49
303.15	0.3028	770.28	0.49
303.15	0.3979	768.95	0.49
303.15	0.5027	768	0.49
303.15	0.5939	767.49	0.49
303.15	0.7051	767.22	0.49
303.15	0.8055	767.28	0.49
303.15	0.9041	767.8	0.49
303.15	0.9534	768.18	0.49
303.15	1	769.19	0.49

System: propan-1-ol + cyclohexane; phases: Liquid
Fixed: Pressure, kPa = 101
Property: Viscosity, Pa*s (Liquid); method: CAPTUB:UFactor:4
Temperature, K	Mole fraction of cyclohexane	Viscosity, Pa*s	uncertainty
293.15	0	0.002159	5.1e-05
293.15	0.0487	0.002079	5e-05
293.15	0.0993	0.001958	4.7e-05
293.15	0.1967	0.001735	4.2e-05
293.15	0.2993	0.001544	3.7e-05
293.15	0.4017	0.001391	3.4e-05
293.15	0.5071	0.001253	3.1e-05
293.15	0.6048	0.001135	2.8e-05
293.15	0.7036	0.001036	2.6e-05
293.15	0.8062	0.00098	2.5e-05
293.15	0.9053	0.000972	2.4e-05
293.15	0.9522	0.000969	2.4e-05
293.15	1	0.000968	2.4e-05
298.15	0	0.001915	4.6e-05
298.15	0.0487	0.001842	4.4e-05
298.15	0.0993	0.00174	4.2e-05
298.15	0.1967	0.001544	3.8e-05
298.15	0.2993	0.00138	3.4e-05
298.15	0.4017	0.001249	3.1e-05
298.15	0.5071	0.001126	2.8e-05
298.15	0.6048	0.001026	2.6e-05
298.15	0.7036	0.000941	2.4e-05
298.15	0.8062	0.000895	2.3e-05
298.15	0.9053	0.000887	2.2e-05
298.15	0.9522	0.000892	2.3e-05
298.15	1	0.000887	2.2e-05
303.15	0	0.001713	4.2e-05
303.15	0.0487	0.001645	4e-05
303.15	0.0993	0.001552	3.8e-05
303.15	0.1967	0.001379	3.4e-05
303.15	0.2993	0.001234	3.1e-05
303.15	0.4017	0.001124	2.8e-05
303.15	0.5071	0.001015	2.6e-05
303.15	0.6048	0.000937	2.4e-05
303.15	0.7036	0.000858	2.2e-05
303.15	0.8062	0.000822	2.1e-05
303.15	0.9053	0.000816	2.1e-05
303.15	0.9522	0.00081	2.1e-05
303.15	1	0.000816	2.1e-05

System: propan-1-ol + cyclohexane; phases: Liquid
Fixed: Pressure, kPa = 101
Property: Speed of sound, m/s (Liquid); method: FPINT:UFactor:3
Temperature, K	Mole fraction of cyclohexane	Speed of sound, m/s	uncertainty
293.15	0	1223	2
293.15	0.0487	1222	2
293.15	0.0993	1222	2
293.15	0.1967	1223	2
293.15	0.2993	1225	2
293.15	0.4017	1228	2
293.15	0.5071	1233	2
293.15	0.6048	1238	2
293.15	0.7036	1244	2
293.15	0.8062	1252	2
293.15	0.9053	1262	2
293.15	0.9522	1268	2
293.15	1	1279	2
298.15	0	1206	2
298.15	0.0487	1205	2
298.15	0.0993	1204	2
298.15	0.1967	1204	2
298.15	0.2993	1205	2
298.15	0.4017	1207	2
298.15	0.5071	1211	2
298.15	0.6048	1215	2
298.15	0.7036	1221	2
298.15	0.8062	1228	2
298.15	0.9053	1237	2
298.15	0.9522	1243	2
298.15	1	1254	2
303.15	0	1189	2
303.15	0.0487	1187	2
303.15	0.0993	1186	2
303.15	0.1967	1185	2
303.15	0.2993	1185	2
303.15	0.4017	1186	2
303.15	0.5071	1189	2
303.15	0.6048	1193	2
303.15	0.7036	1198	2
303.15	0.8062	1204	2
303.15	0.9053	1213	2
303.15	0.9522	1219	2
303.15	1	1230	2

System: propan-1-ol + cyclohexane; phases: Liquid
Fixed: Pressure, kPa = 101
Property: Mass density, kg/m3 (Liquid); method: VIBTUB:UFactor:4
Temperature, K	Mole fraction of cyclohexane	Mass density, kg/m3	uncertainty
293.15	0	803.59	0.56
293.15	0.0487	801.17	0.55
293.15	0.0993	798.82	0.55
293.15	0.1967	794.76	0.53
293.15	0.2993	791.11	0.52
293.15	0.4017	787.98	0.51
293.15	0.5071	785.25	0.5
293.15	0.6048	783.08	0.5
293.15	0.7036	781.23	0.49
293.15	0.8062	779.66	0.49
293.15	0.9053	778.68	0.48
293.15	0.9522	778.41	0.48
293.15	1	778.62	0.48
298.15	0	799.58	0.57
298.15	0.0487	797.11	0.56
298.15	0.0993	794.71	0.55
298.15	0.1967	790.54	0.54
298.15	0.2993	786.78	0.53
298.15	0.4017	783.54	0.52
298.15	0.5071	780.71	0.51
298.15	0.6048	778.47	0.5
298.15	0.7036	776.55	0.5
298.15	0.8062	774.94	0.49
298.15	0.9053	773.93	0.49
298.15	0.9522	773.66	0.49
298.15	1	773.92	0.48
303.15	0	795.55	0.57
303.15	0.0487	793.02	0.56
303.15	0.0993	790.56	0.56
303.15	0.1967	786.28	0.55
303.15	0.2993	782.41	0.54
303.15	0.4017	779.05	0.53
303.15	0.5071	776.12	0.52
303.15	0.6048	773.8	0.51
303.15	0.7036	771.82	0.5
303.15	0.8062	770.17	0.5
303.15	0.9053	769.14	0.5
303.15	0.9522	768.87	0.49
303.15	1	769.19	0.49

System: butan-1-ol + cyclohexane; phases: Liquid
Fixed: Pressure, kPa = 101
Property: Viscosity, Pa*s (Liquid); method: CAPTUB:UFactor:4
Temperature, K	Mole fraction of cyclohexane	Viscosity, Pa*s	uncertainty
293.15	0	0.002941	6.8e-05
293.15	0.0491	0.002777	6.4e-05
293.15	0.0988	0.002593	6e-05
293.15	0.2003	0.002254	5.3e-05
293.15	0.3081	0.001937	4.6e-05
293.15	0.4082	0.001684	4e-05
293.15	0.5125	0.001449	3.5e-05
293.15	0.6157	0.001257	3.1e-05
293.15	0.7086	0.001121	2.8e-05
293.15	0.8022	0.001047	2.6e-05
293.15	0.9029	0.000995	2.5e-05
293.15	0.9519	0.000972	2.4e-05
293.15	1	0.000968	2.4e-05
298.15	0	0.002571	6e-05
298.15	0.0491	0.002437	5.7e-05
298.15	0.0988	0.002278	5.3e-05
298.15	0.2003	0.001984	4.7e-05
298.15	0.3081	0.001712	4.1e-05
298.15	0.4082	0.001492	3.6e-05
298.15	0.5125	0.001293	3.2e-05
298.15	0.6157	0.00113	2.8e-05
298.15	0.7086	0.001014	2.5e-05
298.15	0.8022	0.000955	2.4e-05
298.15	0.9029	0.000904	2.3e-05
298.15	0.9519	0.000889	2.3e-05
298.15	1	0.000887	2.2e-05
303.15	0	0.002255	5.3e-05
303.15	0.0491	0.002147	5.1e-05
303.15	0.0988	0.002009	4.7e-05
303.15	0.2003	0.001756	4.2e-05
303.15	0.3081	0.001514	3.6e-05
303.15	0.4082	0.00133	3.2e-05
303.15	0.5125	0.00116	2.9e-05
303.15	0.6157	0.001023	2.5e-05
303.15	0.7086	0.000928	2.3e-05
303.15	0.8022	0.000874	2.2e-05
303.15	0.9029	0.000829	2.1e-05
303.15	0.9519	0.000817	2.1e-05
303.15	1	0.000816	2.1e-05

System: butan-1-ol + cyclohexane; phases: Liquid
Fixed: Pressure, kPa = 101
Property: Speed of sound, m/s (Liquid); method: FPINT:UFactor:3
Temperature, K	Mole fraction of cyclohexane	Speed of sound, m/s	uncertainty
293.15	0	1257	2
293.15	0.0491	1254	2
293.15	0.0988	1252	2
293.15	0.2003	1249	2
293.15	0.3081	1246	2
293.15	0.4082	1245	2
293.15	0.5125	1245	2
293.15	0.6157	1247	2
293.15	0.7086	1250	2
293.15	0.8022	1255	2
293.15	0.9029	1263	2
293.15	0.9519	1269	2
293.15	1	1279	2
298.15	0	1240	2
298.15	0.0491	1237	2
298.15	0.0988	1234	2
298.15	0.2003	1230	2
298.15	0.3081	1227	2
298.15	0.4082	1224	2
298.15	0.5125	1224	2
298.15	0.6157	1225	2
298.15	0.7086	1227	2
298.15	0.8022	1231	2
298.15	0.9029	1239	2
298.15	0.9519	1244	2
298.15	1	1254	2
303.15	0	1224	2
303.15	0.0491	1220	2
303.15	0.0988	1217	2
303.15	0.2003	1211	2
303.15	0.3081	1207	2
303.15	0.4082	1204	2
303.15	0.5125	1202	2
303.15	0.6157	1202	2
303.15	0.7086	1204	2
303.15	0.8022	1208	2
303.15	0.9029	1215	2
303.15	0.9519	1220	2
303.15	1	1230	2

System: butan-1-ol + cyclohexane; phases: Liquid
Fixed: Pressure, kPa = 101
Property: Mass density, kg/m3 (Liquid); method: VIBTUB:UFactor:4
Temperature, K	Mole fraction of cyclohexane	Mass density, kg/m3	uncertainty
293.15	0	809.5	0.43
293.15	0.0491	807.27	0.43
293.15	0.0988	804.96	0.44
293.15	0.2003	800.76	0.44
293.15	0.3081	796.54	0.45
293.15	0.4082	792.86	0.45
293.15	0.5125	789.41	0.46
293.15	0.6157	786.28	0.47
293.15	0.7086	783.78	0.47
293.15	0.8022	781.56	0.47
293.15	0.9029	779.62	0.48
293.15	0.9519	778.88	0.48
293.15	1	778.62	0.48
298.15	0	805.75	0.43
298.15	0.0491	803.41	0.44
298.15	0.0988	801.04	0.44
298.15	0.2003	796.72	0.45
298.15	0.3081	792.37	0.46
298.15	0.4082	788.57	0.46
298.15	0.5125	785.01	0.47
298.15	0.6157	781.77	0.47
298.15	0.7086	779.19	0.48
298.15	0.8022	776.91	0.48
298.15	0.9029	774.9	0.48
298.15	0.9519	774.15	0.48
298.15	1	773.92	0.48
303.15	0	801.8	0.44
303.15	0.0491	799.52	0.44
303.15	0.0988	797.08	0.45
303.15	0.2003	792.63	0.45
303.15	0.3081	788.15	0.46
303.15	0.4082	784.23	0.47
303.15	0.5125	780.55	0.47
303.15	0.6157	777.21	0.48
303.15	0.7086	774.55	0.48
303.15	0.8022	772.21	0.49
303.15	0.9029	770.14	0.49
303.15	0.9519	769.37	0.49
303.15	1	769.19	0.49

System: ethanol + cyclopentane; phases: Liquid
Fixed: Pressure, kPa = 101
Property: Viscosity, Pa*s (Liquid); method: CAPTUB:UFactor:4
Temperature, K	Mole fraction of cyclopentane	Viscosity, Pa*s	uncertainty
293.15	0	0.001187	2.9e-05
293.15	0.0488	0.001148	2.8e-05
293.15	0.1011	0.00107	2.7e-05
293.15	0.1932	0.000955	2.4e-05
293.15	0.2926	0.000822	2.1e-05
293.15	0.3897	0.000735	1.9e-05
293.15	0.489	0.000659	1.8e-05
293.15	0.5973	0.000582	1.6e-05
293.15	0.7012	0.000521	1.5e-05
293.15	0.7992	0.000475	1.4e-05
293.15	0.8886	0.000448	1.3e-05
293.15	0.9495	0.00044	1.3e-05
293.15	1	0.000439	1.3e-05
298.15	0	0.001082	2.7e-05
298.15	0.0488	0.001047	2.6e-05
298.15	0.1011	0.000977	2.4e-05
298.15	0.1932	0.000875	2.2e-05
298.15	0.2926	0.000756	2e-05
298.15	0.3897	0.000679	1.8e-05
298.15	0.489	0.000609	1.6e-05
298.15	0.5973	0.00054	1.5e-05
298.15	0.7012	0.000487	1.4e-05
298.15	0.7992	0.000446	1.3e-05
298.15	0.8886	0.000423	1.2e-05
298.15	0.9495	0.000417	1.2e-05
298.15	1	0.000416	1.2e-05
303.15	0	0.000987	2.5e-05
303.15	0.0488	0.000956	2.4e-05
303.15	0.1011	0.000896	2.3e-05
303.15	0.1932	0.000806	2.1e-05
303.15	0.2926	0.000696	1.8e-05
303.15	0.3897	0.000628	1.7e-05
303.15	0.489	0.000564	1.5e-05
303.15	0.5973	0.000502	1.4e-05
303.15	0.7012	0.000456	1.3e-05
303.15	0.7992	0.00042	1.2e-05
303.15	0.8886	0.0004	1.2e-05
303.15	0.9495	0.000394	1.2e-05
303.15	1	0.000394	1.2e-05

System: ethanol + cyclopentane; phases: Liquid
Fixed: Pressure, kPa = 101
Property: Speed of sound, m/s (Liquid); method: FPINT:UFactor:3
Temperature, K	Mole fraction of cyclopentane	Speed of sound, m/s	uncertainty
293.15	0	1162	2
293.15	0.0488	1157	2
293.15	0.1011	1155	2
293.15	0.1932	1154	2
293.15	0.2926	1157	2
293.15	0.3897	1162	2
293.15	0.489	1168	2
293.15	0.5973	1177	2
293.15	0.7012	1186	2
293.15	0.7992	1196	2
293.15	0.8886	1208	2
293.15	0.9495	1217	2
293.15	1	1232	2
298.15	0	1145	2
298.15	0.0488	1139	2
298.15	0.1011	1137	2
298.15	0.1932	1135	2
298.15	0.2926	1136	2
298.15	0.3897	1140	2
298.15	0.489	1146	2
298.15	0.5973	1153	2
298.15	0.7012	1162	2
298.15	0.7992	1171	2
298.15	0.8886	1182	2
298.15	0.9495	1192	2
298.15	1	1206	2
303.15	0	1128	2
303.15	0.0488	1122	2
303.15	0.1011	1118	2
303.15	0.1932	1116	2
303.15	0.2926	1116	2
303.15	0.3897	1118	2
303.15	0.489	1123	2
303.15	0.5973	1130	2
303.15	0.7012	1137	2
303.15	0.7992	1146	2
303.15	0.8886	1156	2
303.15	0.9495	1166	2
303.15	1	1180	2

System: ethanol + cyclopentane; phases: Liquid
Fixed: Pressure, kPa = 101
Property: Mass density, kg/m3 (Liquid); method: VIBTUB:UFactor:4
Temperature, K	Mole fraction of cyclopentane	Mass density, kg/m3	uncertainty
293.15	0	789.75	0.46
293.15	0.0488	784.97	0.47
293.15	0.1011	780.67	0.48
293.15	0.1932	774.13	0.49
293.15	0.2926	768.22	0.51
293.15	0.3897	763.12	0.53
293.15	0.489	758.81	0.54
293.15	0.5973	754.7	0.56
293.15	0.7012	751.29	0.58
293.15	0.7992	748.53	0.6
293.15	0.8886	746.41	0.61
293.15	0.9495	745.36	0.62
293.15	1	744.52	0.63
298.15	0	785.46	0.47
298.15	0.0488	780.62	0.48
298.15	0.1011	776.25	0.49
298.15	0.1932	769.58	0.5
298.15	0.2926	763.55	0.52
298.15	0.3897	758.34	0.53
298.15	0.489	753.94	0.55
298.15	0.5973	749.75	0.57
298.15	0.7012	746.28	0.59
298.15	0.7992	743.48	0.6
298.15	0.8886	741.36	0.62
298.15	0.9495	740.33	0.63
298.15	1	739.55	0.64
303.15	0	781.15	0.47
303.15	0.0488	776.23	0.48
303.15	0.1011	771.78	0.49
303.15	0.1932	764.99	0.51
303.15	0.2926	758.83	0.52
303.15	0.3897	753.5	0.54
303.15	0.489	749.01	0.56
303.15	0.5973	744.74	0.58
303.15	0.7012	741.2	0.59
303.15	0.7992	738.38	0.61
303.15	0.8886	736.25	0.63
303.15	0.9495	735.23	0.64
303.15	1	734.54	0.65

System: propan-1-ol + cyclopentane; phases: Liquid
Fixed: Pressure, kPa = 101
Property: Viscosity, Pa*s (Liquid); method: CAPTUB:UFactor:4
Temperature, K	Mole fraction of cyclopentane	Viscosity, Pa*s	uncertainty
293.15	0	0.002159	5.1e-05
293.15	0.0461	0.002035	4.9e-05
293.15	0.09	0.001859	4.5e-05
293.15	0.1885	0.001571	3.8e-05
293.15	0.2951	0.001284	3.2e-05
293.15	0.4056	0.001057	2.7e-05
293.15	0.5051	0.000867	2.3e-05
293.15	0.61	0.000712	1.9e-05
293.15	0.7109	0.000594	1.6e-05
293.15	0.8225	0.000507	1.4e-05
293.15	0.9134	0.00046	1.3e-05
293.15	0.9532	0.000447	1.3e-05
293.15	1	0.000439	1.3e-05
298.15	0	0.001915	4.6e-05
298.15	0.0461	0.001809	4.4e-05
298.15	0.09	0.001655	4e-05
298.15	0.1885	0.001406	3.5e-05
298.15	0.2951	0.001159	2.9e-05
298.15	0.4056	0.000961	2.5e-05
298.15	0.5051	0.00079	2.1e-05
298.15	0.61	0.000656	1.8e-05
298.15	0.7109	0.000553	1.5e-05
298.15	0.8225	0.000476	1.4e-05
298.15	0.9134	0.000434	1.3e-05
298.15	0.9532	0.000422	1.2e-05
298.15	1	0.000416	1.2e-05
303.15	0	0.001713	4.2e-05
303.15	0.0461	0.001613	4e-05
303.15	0.09	0.001479	3.6e-05
303.15	0.1885	0.001275	3.2e-05
303.15	0.2951	0.001052	2.7e-05
303.15	0.4056	0.000875	2.3e-05
303.15	0.5051	0.000725	1.9e-05
303.15	0.61	0.000608	1.7e-05
303.15	0.7109	0.000514	1.4e-05
303.15	0.8225	0.000448	1.3e-05
303.15	0.9134	0.00041	1.2e-05
303.15	0.9532	0.0004	1.2e-05
303.15	1	0.000394	1.2e-05

System: propan-1-ol + cyclopentane; phases: Liquid
Fixed: Pressure, kPa = 101
Property: Speed of sound, m/s (Liquid); method: FPINT:UFactor:3
Temperature, K	Mole fraction of cyclopentane	Speed of sound, m/s	uncertainty
293.15	0	1223	2
293.15	0.0461	1219	2
293.15	0.09	1216	2
293.15	0.1885	1209	2
293.15	0.2951	1204	2
293.15	0.4056	1200	2
293.15	0.5051	1199	2
293.15	0.61	1199	2
293.15	0.7109	1200	2
293.15	0.8225	1206	2
293.15	0.9134	1214	2
293.15	0.9532	1219	2
293.15	1	1232	2
298.15	0	1206	2
298.15	0.0461	1202	2
298.15	0.09	1198	2
298.15	0.1885	1190	2
298.15	0.2951	1183	2
298.15	0.4056	1178	2
298.15	0.5051	1176	2
298.15	0.61	1175	2
298.15	0.7109	1176	2
298.15	0.8225	1181	2
298.15	0.9134	1188	2
298.15	0.9532	1193	2
298.15	1	1206	2
303.15	0	1189	2
303.15	0.0461	1184	2
303.15	0.09	1180	2
303.15	0.1885	1171	2
303.15	0.2951	1163	2
303.15	0.4056	1157	2
303.15	0.5051	1153	2
303.15	0.61	1152	2
303.15	0.7109	1152	2
303.15	0.8225	1156	2
303.15	0.9134	1163	2
303.15	0.9532	1168	2
303.15	1	1180	2

System: propan-1-ol + cyclopentane; phases: Liquid
Fixed: Pressure, kPa = 101
Property: Mass density, kg/m3 (Liquid); method: VIBTUB:UFactor:4
Temperature, K	Mole fraction of cyclopentane	Mass density, kg/m3	uncertainty
293.15	0	803.59	0.56
293.15	0.0461	800.15	0.56
293.15	0.09	796.74	0.57
293.15	0.1885	789.64	0.58
293.15	0.2951	782.12	0.59
293.15	0.4056	774.79	0.6
293.15	0.5051	768.67	0.6
293.15	0.61	762.67	0.61
293.15	0.7109	757.16	0.62
293.15	0.8225	751.67	0.63
293.15	0.9134	747.4	0.63
293.15	0.9532	745.94	0.63
293.15	1	744.52	0.63
298.15	0	799.58	0.57
298.15	0.0461	796.09	0.57
298.15	0.09	792.61	0.57
298.15	0.1885	785.36	0.58
298.15	0.2951	777.69	0.59
298.15	0.4056	770.22	0.6
298.15	0.5051	763.96	0.61
298.15	0.61	757.84	0.62
298.15	0.7109	752.26	0.63
298.15	0.8225	746.7	0.63
298.15	0.9134	742.5	0.64
298.15	0.9532	740.91	0.64
298.15	1	739.55	0.64
303.15	0	795.55	0.57
303.15	0.0461	791.98	0.57
303.15	0.09	788.44	0.58
303.15	0.1885	781.04	0.59
303.15	0.2951	773.21	0.6
303.15	0.4056	765.59	0.61
303.15	0.5051	759.2	0.62
303.15	0.61	752.96	0.62
303.15	0.7109	747.29	0.63
303.15	0.8225	741.66	0.64
303.15	0.9134	737.43	0.64
303.15	0.9532	735.84	0.65
303.15	1	734.54	0.65

System: butan-1-ol + cyclopentane; phases: Liquid
Fixed: Pressure, kPa = 101
Property: Viscosity, Pa*s (Liquid); method: CAPTUB:UFactor:4
Temperature, K	Mole fraction of cyclopentane	Viscosity, Pa*s	uncertainty
293.15	0	0.002941	6.8e-05
293.15	0.046	0.002714	6.3e-05
293.15	0.0914	0.002541	5.9e-05
293.15	0.1924	0.002095	4.9e-05
293.15	0.294	0.001683	4e-05
293.15	0.398	0.001358	3.3e-05
293.15	0.5211	0.001014	2.6e-05
293.15	0.6208	0.000807	2.1e-05
293.15	0.7182	0.000654	1.8e-05
293.15	0.8124	0.000555	1.5e-05
293.15	0.9141	0.00048	1.4e-05
293.15	0.9551	0.000456	1.3e-05
293.15	1	0.000439	1.3e-05
298.15	0	0.002571	6e-05
298.15	0.0446	0.002388	5.6e-05
298.15	0.0995	0.002168	5.1e-05
298.15	0.1924	0.001855	4.4e-05
298.15	0.312	0.001499	3.6e-05
298.15	0.3875	0.001233	3e-05
298.15	0.5104	0.000945	2.4e-05
298.15	0.6157	0.000748	2e-05
298.15	0.7372	0.000588	1.6e-05
298.15	0.8361	0.000498	1.4e-05
298.15	0.9032	0.000457	1.3e-05
298.15	0.9502	0.000432	1.3e-05
298.15	1	0.000416	1.2e-05
303.15	0	0.002255	5.3e-05
303.15	0.0446	0.002108	5e-05
303.15	0.0995	0.00192	4.5e-05
303.15	0.1924	0.001651	3.9e-05
303.15	0.312	0.001349	3.3e-05
303.15	0.3875	0.001108	2.7e-05
303.15	0.5104	0.000865	2.2e-05
303.15	0.6157	0.000689	1.8e-05
303.15	0.7372	0.000547	1.5e-05
303.15	0.8361	0.000472	1.4e-05
303.15	0.9032	0.000431	1.3e-05
303.15	0.9502	0.000409	1.2e-05
303.15	1	0.000394	1.2e-05

System: butan-1-ol + cyclopentane; phases: Liquid
Fixed: Pressure, kPa = 101
Property: Speed of sound, m/s (Liquid); method: FPINT:UFactor:3
Temperature, K	Mole fraction of cyclopentane	Speed of sound, m/s	uncertainty
293.15	0	1257	2
293.15	0.046	1252	2
293.15	0.0914	1248	2
293.15	0.1924	1239	2
293.15	0.294	1230	2
293.15	0.398	1223	2
293.15	0.5211	1215	2
293.15	0.6208	1211	2
293.15	0.7182	1209	2
293.15	0.8124	1210	2
293.15	0.9141	1216	2
293.15	0.9551	1220	2
293.15	1	1232	2
298.15	0	1240	2
298.15	0.0446	1236	2
298.15	0.0995	1229	2
298.15	0.1924	1220	2
298.15	0.312	1209	2
298.15	0.3875	1203	2
298.15	0.5104	1194	2
298.15	0.6157	1189	2
298.15	0.7372	1186	2
298.15	0.8361	1187	2
298.15	0.9032	1191	2
298.15	0.9502	1195	2
298.15	1	1206	2
303.15	0	1224	2
303.15	0.0446	1218	2
303.15	0.0995	1211	2
303.15	0.1924	1201	2
303.15	0.312	1189	2
303.15	0.3875	1182	2
303.15	0.5104	1172	2
303.15	0.6157	1166	2
303.15	0.7372	1162	2
303.15	0.8361	1163	2
303.15	0.9032	1166	2
303.15	0.9502	1170	2
303.15	1	1180	2

System: butan-1-ol + cyclopentane; phases: Liquid
Fixed: Pressure, kPa = 101
Property: Mass density, kg/m3 (Liquid); method: VIBTUB:UFactor:4
Temperature, K	Mole fraction of cyclopentane	Mass density, kg/m3	uncertainty
293.15	0	809.5	0.43
293.15	0.046	806.62	0.44
293.15	0.0914	803.7	0.44
293.15	0.1924	796.71	0.46
293.15	0.294	789.84	0.48
293.15	0.398	782.75	0.5
293.15	0.5211	774.4	0.52
293.15	0.6208	767.72	0.55
293.15	0.7182	761.29	0.57
293.15	0.8124	755.51	0.59
293.15	0.9141	749.28	0.61
293.15	0.9551	746.78	0.62
293.15	1	744.52	0.63
298.15	0	805.75	0.43
298.15	0.0446	802.7	0.44
298.15	0.0995	798.99	0.45
298.15	0.1924	792.62	0.47
298.15	0.312	784.43	0.49
298.15	0.3875	779.26	0.5
298.15	0.5104	770.8	0.53
298.15	0.6157	763.63	0.55
298.15	0.7372	755.6	0.58
298.15	0.8361	749.32	0.6
298.15	0.9032	745.24	0.62
298.15	0.9502	742.52	0.63
298.15	1	739.55	0.64
303.15	0	801.8	0.44
303.15	0.0446	798.9	0.45
303.15	0.0995	795.01	0.46
303.15	0.1924	788.49	0.47
303.15	0.312	780.13	0.49
303.15	0.3875	774.85	0.51
303.15	0.5104	766.2	0.54
303.15	0.6157	758.89	0.56
303.15	0.7372	750.73	0.59
303.15	0.8361	744.36	0.61
303.15	0.9032	740.23	0.62
303.15	0.9502	737.48	0.64
303.15	1	734.54	0.65
