Measured thermophysical data. Temperature and concentration dependence of volumetric properties of (tetrahydrofuran + methyl acrylate, or + ethyl acrylate, or + n-butyl acrylate, or + tert-butyl acrylate) binary mixtures
Source: J. Chem. Thermodyn., 2017, 10.1016/j.jct.2016.10.042
Compound 1: tetrahydrofuran, C4H8O, InChI=1S/C4H8O/c1-2-4-5-3-1/h1-4H2, purity 99.5%
Compound 2: methyl propenoate, C4H6O2, InChI=1S/C4H6O2/c1-3-4(5)6-2/h3H,1H2,2H3, purity 99%
Compound 3: ethyl propenoate, C5H8O2, InChI=1S/C5H8O2/c1-3-5(6)7-4-2/h3H,1,4H2,2H3, purity 99%
Compound 4: butyl 2-propenoate, C7H12O2, InChI=1S/C7H12O2/c1-3-5-6-9-7(8)4-2/h4H,2-3,5-6H2,1H3, purity 99%
Compound 5: tert-butyl acrylate, C7H12O2, InChI=1S/C7H12O2/c1-5-6(8)9-7(2,3)4/h5H,1H2,2-4H3, purity 99%

System: tetrahydrofuran; phases: Liquid
Fixed: Pressure, kPa = 101
Property: Mass density, kg/m3 (Liquid); method: Pycnometric method
Temperature, K	Mass density, kg/m3	uncertainty
293.15	887.01	1.02
298.15	882.05	1.02
303.15	877.1	1.02
308.15	872.14	1.02
313.15	867.19	1.02
318.15	862.23	1.03

System: tert-butyl acrylate; phases: Liquid
Fixed: Pressure, kPa = 101
Property: Mass density, kg/m3 (Liquid); method: Pycnometric method
Temperature, K	Mass density, kg/m3	uncertainty
293.15	884.13	1.03
298.15	879.66	1.03
303.15	875.2	1.03
308.15	870.74	1.03
313.15	866.28	1.03
318.15	861.82	1.04

System: methyl propenoate + tetrahydrofuran; phases: Liquid
Fixed: Pressure, kPa = 101
Property: Mass density, kg/m3 (Liquid); method: Pycnometric method
Temperature, K	Mole fraction of tetrahydrofuran	Mass density, kg/m3	uncertainty
293.15	0	953.51	1.03
293.15	0.0773	950.05	1.03
293.15	0.1554	946.35	1.03
293.15	0.2064	943.74	1.03
293.15	0.2545	941.15	1.03
293.15	0.3215	937.33	1.02
293.15	0.3989	932.62	1.02
293.15	0.4655	928.35	1.02
293.15	0.53	924.03	1.02
293.15	0.6023	918.98	1.02
293.15	0.6834	913.02	1.02
293.15	0.7632	906.87	1.02
293.15	0.8468	900.16	1.02
293.15	0.9316	893	1.02
293.15	1	887.01	1.02
298.15	0	947.56	1.03
298.15	0.0773	944.24	1.03
298.15	0.1554	940.67	1.03
298.15	0.2064	938.15	1.03
298.15	0.2545	935.63	1.03
298.15	0.3215	931.89	1.03
298.15	0.3989	927.26	1.03
298.15	0.4655	923.06	1.02
298.15	0.53	918.8	1.02
298.15	0.6023	913.81	1.02
298.15	0.6834	907.92	1.02
298.15	0.7632	901.83	1.02
298.15	0.8468	895.17	1.02
298.15	0.9316	888.04	1.02
298.15	1	882.05	1.02
303.15	0	941.61	1.03
303.15	0.0773	938.43	1.03
303.15	0.1554	934.99	1.03
303.15	0.2064	932.56	1.03
303.15	0.2545	930.11	1.03
303.15	0.3215	926.45	1.03
303.15	0.3989	921.9	1.03
303.15	0.4655	917.77	1.03
303.15	0.53	913.57	1.03
303.15	0.6023	908.64	1.03
303.15	0.6834	902.82	1.02
303.15	0.7632	896.79	1.02
303.15	0.8468	890.18	1.02
303.15	0.9316	883.08	1.02
303.15	1	877.1	1.02
308.15	0	935.66	1.04
308.15	0.0773	932.62	1.03
308.15	0.1554	929.31	1.03
308.15	0.2064	926.97	1.03
308.15	0.2545	924.58	1.03
308.15	0.3215	921	1.03
308.15	0.3989	916.54	1.03
308.15	0.4655	912.47	1.03
308.15	0.53	908.33	1.03
308.15	0.6023	903.47	1.03
308.15	0.6834	897.72	1.03
308.15	0.7632	891.75	1.03
308.15	0.8468	885.19	1.02
308.15	0.9316	878.12	1.02
308.15	1	872.14	1.02
313.15	0	929.71	1.04
313.15	0.0773	926.81	1.04
313.15	0.1554	923.63	1.03
313.15	0.2064	921.37	1.03
313.15	0.2545	919.05	1.03
313.15	0.3215	915.55	1.03
313.15	0.3989	911.17	1.03
313.15	0.4655	907.17	1.03
313.15	0.53	903.09	1.03
313.15	0.6023	898.3	1.03
313.15	0.6834	892.62	1.03
313.15	0.7632	886.7	1.03
313.15	0.8468	880.19	1.03
313.15	0.9316	873.16	1.03
313.15	1	867.19	1.02
318.15	0	923.76	1.04
318.15	0.0773	921	1.04
318.15	0.1554	917.95	1.04
318.15	0.2064	915.77	1.04
318.15	0.2545	913.52	1.04
318.15	0.3215	910.1	1.03
318.15	0.3989	905.8	1.03
318.15	0.4655	901.87	1.03
318.15	0.53	897.85	1.03
318.15	0.6023	893.13	1.03
318.15	0.6834	887.52	1.03
318.15	0.7632	881.65	1.03
318.15	0.8468	875.19	1.03
318.15	0.9316	868.2	1.03
318.15	1	862.23	1.03

System: tetrahydrofuran + ethyl propenoate; phases: Liquid
Fixed: Pressure, kPa = 101
Property: Mass density, kg/m3 (Liquid); method: Pycnometric method
Temperature, K	Mole fraction of tetrahydrofuran	Mass density, kg/m3	uncertainty
293.15	0	921.76	1.02
293.15	0.0825	920.35	1.02
293.15	0.167	918.74	1.02
293.15	0.2302	917.35	1.02
293.15	0.316	915.21	1.02
293.15	0.3892	913.14	1.02
293.15	0.4603	910.93	1.02
293.15	0.5286	908.61	1.02
293.15	0.5947	906.16	1.02
293.15	0.6605	903.54	1.02
293.15	0.7283	900.64	1.02
293.15	0.7874	897.95	1.02
293.15	0.8689	894	1.02
293.15	0.936	890.52	1.02
293.15	1	887.01	1.02
298.15	0	915.95	1.03
298.15	0.0825	914.64	1.02
298.15	0.167	913.11	1.02
298.15	0.2302	911.79	1.02
298.15	0.316	909.73	1.02
298.15	0.3892	907.73	1.02
298.15	0.4603	905.58	1.02
298.15	0.5286	903.32	1.02
298.15	0.5947	900.93	1.02
298.15	0.6605	898.36	1.02
298.15	0.7283	895.52	1.02
298.15	0.7874	892.88	1.02
298.15	0.8689	888.98	1.02
298.15	0.936	885.53	1.02
298.15	1	882.05	1.02
303.15	0	910.14	1.03
303.15	0.0825	908.93	1.03
303.15	0.167	907.48	1.03
303.15	0.2302	906.23	1.03
303.15	0.316	904.25	1.03
303.15	0.3892	902.32	1.02
303.15	0.4603	900.23	1.02
303.15	0.5286	898.03	1.02
303.15	0.5947	895.7	1.02
303.15	0.6605	893.18	1.02
303.15	0.7283	890.4	1.02
303.15	0.7874	887.81	1.02
303.15	0.8689	883.96	1.02
303.15	0.936	880.54	1.02
303.15	1	877.1	1.02
308.15	0	904.33	1.03
308.15	0.0825	903.22	1.03
308.15	0.167	901.85	1.03
308.15	0.2302	900.67	1.03
308.15	0.316	898.77	1.03
308.15	0.3892	896.91	1.03
308.15	0.4603	894.88	1.03
308.15	0.5286	892.74	1.03
308.15	0.5947	890.47	1.03
308.15	0.6605	888	1.02
308.15	0.7283	885.28	1.02
308.15	0.7874	882.74	1.02
308.15	0.8689	878.94	1.02
308.15	0.936	875.55	1.02
308.15	1	872.14	1.02
313.15	0	898.52	1.03
313.15	0.0825	897.5	1.03
313.15	0.167	896.22	1.03
313.15	0.2302	895.1	1.03
313.15	0.316	893.29	1.03
313.15	0.3892	891.5	1.03
313.15	0.4603	889.53	1.03
313.15	0.5286	887.45	1.03
313.15	0.5947	885.24	1.03
313.15	0.6605	882.82	1.03
313.15	0.7283	880.16	1.03
313.15	0.7874	877.67	1.03
313.15	0.8689	873.92	1.03
313.15	0.936	870.56	1.03
313.15	1	867.19	1.02
318.15	0	892.71	1.03
318.15	0.0825	891.78	1.03
318.15	0.167	890.59	1.03
318.15	0.2302	889.53	1.03
318.15	0.316	887.81	1.03
318.15	0.3892	886.09	1.03
318.15	0.4603	884.18	1.03
318.15	0.5286	882.16	1.03
318.15	0.5947	880	1.03
318.15	0.6605	877.64	1.03
318.15	0.7283	875.04	1.03
318.15	0.7874	872.6	1.03
318.15	0.8689	868.9	1.03
318.15	0.936	865.57	1.03
318.15	1	862.23	1.03

System: tetrahydrofuran + butyl 2-propenoate; phases: Liquid
Fixed: Pressure, kPa = 101
Property: Mass density, kg/m3 (Liquid); method: Pycnometric method
Temperature, K	Mole fraction of tetrahydrofuran	Mass density, kg/m3	uncertainty
293.15	0	898.85	1.03
293.15	0.0712	898.62	1.03
293.15	0.1406	898.39	1.03
293.15	0.208	898.1	1.02
293.15	0.2779	897.74	1.02
293.15	0.3685	897.14	1.02
293.15	0.4339	896.6	1.02
293.15	0.4996	895.97	1.02
293.15	0.5642	895.25	1.02
293.15	0.6426	894.22	1.02
293.15	0.7208	893.03	1.02
293.15	0.7956	891.72	1.02
293.15	0.8642	890.32	1.02
293.15	0.9322	888.76	1.02
293.15	1	887.01	1.02
298.15	0	894.1	1.03
298.15	0.0712	893.89	1.03
298.15	0.1406	893.66	1.03
298.15	0.208	893.37	1.03
298.15	0.2779	893.01	1.03
298.15	0.3685	892.4	1.02
298.15	0.4339	891.85	1.02
298.15	0.4996	891.21	1.02
298.15	0.5642	890.48	1.02
298.15	0.6426	889.43	1.02
298.15	0.7208	888.22	1.02
298.15	0.7956	886.88	1.02
298.15	0.8642	885.45	1.02
298.15	0.9322	883.86	1.02
298.15	1	882.05	1.02
303.15	0	889.35	1.03
303.15	0.0712	889.16	1.03
303.15	0.1406	888.93	1.03
303.15	0.208	888.64	1.03
303.15	0.2779	888.27	1.03
303.15	0.3685	887.66	1.03
303.15	0.4339	887.1	1.03
303.15	0.4996	886.45	1.03
303.15	0.5642	885.71	1.02
303.15	0.6426	884.64	1.02
303.15	0.7208	883.41	1.02
303.15	0.7956	882.04	1.02
303.15	0.8642	880.58	1.02
303.15	0.9322	878.96	1.02
303.15	1	877.1	1.02
308.15	0	884.6	1.03
308.15	0.0712	884.42	1.03
308.15	0.1406	884.19	1.03
308.15	0.208	883.91	1.03
308.15	0.2779	883.53	1.03
308.15	0.3685	882.91	1.03
308.15	0.4339	882.35	1.03
308.15	0.4996	881.69	1.03
308.15	0.5642	880.93	1.03
308.15	0.6426	879.85	1.03
308.15	0.7208	878.59	1.03
308.15	0.7956	877.2	1.02
308.15	0.8642	875.71	1.02
308.15	0.9322	874.05	1.02
308.15	1	872.14	1.02
313.15	0	879.85	1.04
313.15	0.0712	879.68	1.04
313.15	0.1406	879.45	1.03
313.15	0.208	879.17	1.03
313.15	0.2779	878.79	1.03
313.15	0.3685	878.16	1.03
313.15	0.4339	877.59	1.03
313.15	0.4996	876.92	1.03
313.15	0.5642	876.15	1.03
313.15	0.6426	875.05	1.03
313.15	0.7208	873.77	1.03
313.15	0.7956	872.36	1.03
313.15	0.8642	870.84	1.03
313.15	0.9322	869.14	1.03
313.15	1	867.19	1.02
318.15	0	875.1	1.04
318.15	0.0712	874.94	1.04
318.15	0.1406	874.71	1.04
318.15	0.208	874.43	1.04
318.15	0.2779	874.05	1.03
318.15	0.3685	873.41	1.03
318.15	0.4339	872.83	1.03
318.15	0.4996	872.15	1.03
318.15	0.5642	871.37	1.03
318.15	0.6426	870.25	1.03
318.15	0.7208	868.95	1.03
318.15	0.7956	867.51	1.03
318.15	0.8642	865.97	1.03
318.15	0.9322	864.23	1.03
318.15	1	862.23	1.03

System: tetrahydrofuran + tert-butyl acrylate; phases: Liquid
Fixed: Pressure, kPa = 101
Property: Mass density, kg/m3 (Liquid); method: Pycnometric method
Temperature, K	Mole fraction of tetrahydrofuran	Mass density, kg/m3	uncertainty
293.15	0	884.13	1.03
293.15	0.0736	884.47	1.03
293.15	0.1489	884.84	1.02
293.15	0.2121	885.14	1.02
293.15	0.2773	885.43	1.02
293.15	0.362	885.78	1.02
293.15	0.4382	886.06	1.02
293.15	0.5024	886.28	1.02
293.15	0.5815	886.5	1.02
293.15	0.6532	886.66	1.02
293.15	0.7268	886.79	1.02
293.15	0.7921	886.88	1.02
293.15	0.8698	886.97	1.02
293.15	0.9352	887	1.02
293.15	1	887.01	1.02
298.15	0	879.66	1.03
298.15	0.0736	880.01	1.03
298.15	0.1489	880.36	1.03
298.15	0.2121	880.65	1.03
298.15	0.2773	880.92	1.02
298.15	0.362	881.25	1.02
298.15	0.4382	881.5	1.02
298.15	0.5024	881.69	1.02
298.15	0.5815	881.87	1.02
298.15	0.6532	882	1.02
298.15	0.7268	882.08	1.02
298.15	0.7921	882.13	1.02
298.15	0.8698	882.15	1.02
298.15	0.9352	882.12	1.02
298.15	1	882.05	1.02
303.15	0	875.2	1.03
303.15	0.0736	875.55	1.03
303.15	0.1489	875.88	1.03
303.15	0.2121	876.16	1.03
303.15	0.2773	876.41	1.03
303.15	0.362	876.71	1.03
303.15	0.4382	876.94	1.03
303.15	0.5024	877.1	1.02
303.15	0.5815	877.24	1.02
303.15	0.6532	877.34	1.02
303.15	0.7268	877.37	1.02
303.15	0.7921	877.38	1.02
303.15	0.8698	877.33	1.02
303.15	0.9352	877.24	1.02
303.15	1	877.1	1.02
308.15	0	870.74	1.03
308.15	0.0736	871.08	1.03
308.15	0.1489	871.4	1.03
308.15	0.2121	871.67	1.03
308.15	0.2773	871.9	1.03
308.15	0.362	872.17	1.03
308.15	0.4382	872.37	1.03
308.15	0.5024	872.5	1.03
308.15	0.5815	872.61	1.03
308.15	0.6532	872.67	1.03
308.15	0.7268	872.66	1.02
308.15	0.7921	872.62	1.02
308.15	0.8698	872.51	1.02
308.15	0.9352	872.36	1.02
308.15	1	872.14	1.02
313.15	0	866.28	1.03
313.15	0.0736	866.61	1.03
313.15	0.1489	866.92	1.03
313.15	0.2121	867.17	1.03
313.15	0.2773	867.39	1.03
313.15	0.362	867.63	1.03
313.15	0.4382	867.8	1.03
313.15	0.5024	867.9	1.03
313.15	0.5815	867.98	1.03
313.15	0.6532	868	1.03
313.15	0.7268	867.95	1.03
313.15	0.7921	867.86	1.03
313.15	0.8698	867.69	1.03
313.15	0.9352	867.48	1.03
313.15	1	867.19	1.02
318.15	0	861.82	1.04
318.15	0.0736	862.14	1.04
318.15	0.1489	862.44	1.03
318.15	0.2121	862.67	1.03
318.15	0.2773	862.88	1.03
318.15	0.362	863.09	1.03
318.15	0.4382	863.23	1.03
318.15	0.5024	863.3	1.03
318.15	0.5815	863.35	1.03
318.15	0.6532	863.33	1.03
318.15	0.7268	863.24	1.03
318.15	0.7921	863.1	1.03
318.15	0.8698	862.86	1.03
318.15	0.9352	862.59	1.03
318.15	1	862.23	1.03
