Measured thermophysical data. Renewable platform-chemicals and materials: Thermochemical study of levulinic acid
Source: J. Chem. Thermodyn., 2012, 10.1016/j.jct.2011.07.014
Compound 1: carbon dioxide, CO2, InChI=1S/CO2/c2-1-3
Compound 2: water, H2O, InChI=1S/H2O/h1H2
Compound 3: oxygen, O2, InChI=1S/O2/c1-2
Compound 4: 4-oxopentanoic acid, C5H8O3, InChI=1S/C5H8O3/c1-4(6)2-3-5(7)8/h2-3H2,1H3,(H,7,8)

System: 4-oxopentanoic acid; phases: Liquid, Gas
Property: Molar enthalpy of vaporization or sublimation, kJ/mol (Liquid); method: Derived by Second law
Temperature, K	Molar enthalpy of vaporization or sublimation, kJ/mol	uncertainty
298.15	70.32	1.82

System: 4-oxopentanoic acid; phases: Liquid, Gas
Property: Vapor or sublimation pressure, kPa (Liquid); method: Transpiration method
Temperature, K	Vapor or sublimation pressure, kPa	uncertainty
328.4	0.00705	0.00038
333.4	0.01045	0.00054
338.3	0.01414	0.00074
343.3	0.02096	0.00108
343.4	0.02019	0.00104
348.3	0.02702	0.0014
353.3	0.0381	0.00197
358.3	0.05278	0.00274
358.4	0.05148	0.00268
363.4	0.07587	0.00392
368.4	0.10096	0.00519
373.4	0.13493	0.00688

Reaction: -1 4-oxopentanoic acid + 5 carbon dioxide + 4 water + -5.5 oxygen
Property: Specific internal energy of reaction at constant volume, J/g
-20891.8
