Measured thermophysical data. Solubility of CO2 in the solvent system (water + monoethanolamine + triethanolamine)
Source: J. Chem. Thermodyn., 2010, 10.1016/j.jct.2009.09.005
Compound 1: water, H2O, InChI=1S/H2O/h1H2, purity 99.9%
Compound 2: N-methyldiethanolamine, C5H13NO2, InChI=1S/C5H13NO2/c1-6(2-4-7)3-5-8/h7-8H,2-5H2,1H3, purity 99%
Compound 3: triethanolamine, C6H15NO3, InChI=1S/C6H15NO3/c8-4-1-7(2-5-9)3-6-10/h8-10H,1-6H2, purity 99%
Compound 4: carbon dioxide, CO2, InChI=1S/CO2/c2-1-3, purity 99.9%

System: N-methyldiethanolamine + carbon dioxide + water; phases: Liquid, Gas
Fixed: Pressure, kPa = 101.3
Fixed: Temperature, K = 343.2
Property: Mole fraction of carbon dioxide (Liquid); method: Titration method
Pressure, kPa of carbon dioxide	Mole fraction of carbon dioxide	uncertainty
3.49	0.00311	0.00191
5.97	0.00414	0.00121
10.6	0.00536	0.00147
16.8	0.00627	0.001
19.3	0.0068	0.00101
34.5	0.00904	0.00101
36.2	0.00933	0.00102
44.6	0.01038	0.00085
49.4	0.01106	0.00089
61	0.01176	0.00083
64.4	0.01194	0.00085
70	0.01256	0.00092
77	0.01319	0.0009
93.2	0.01422	0.00093

System: triethanolamine + carbon dioxide + water; phases: Liquid, Gas
Fixed: Pressure, kPa = 101.3
Property: Mole fraction of carbon dioxide (Liquid); method: Titration method
Temperature, K	Pressure, kPa of carbon dioxide	Mole fraction of carbon dioxide	uncertainty
313.2	6.78	0.0078	0.00192
313.2	12.4	0.00884	0.00194
313.2	17.9	0.01125	0.00178
313.2	25.3	0.01284	0.00132
313.2	39.2	0.0151	0.00132
313.2	48.1	0.01645	0.00131
313.2	69.9	0.01947	0.00144
313.2	92.3	0.02267	0.00154
313.2	94.3	0.02273	0.00155
313.2	109	0.02411	0.00156
333.2	1.7	0.00199	0.00088
333.2	4.71	0.00263	0.00042
333.2	15.7	0.00468	0.00074
333.2	34.3	0.0067	0.0008
333.2	55.7	0.009	0.00084
333.2	64.5	0.01045	0.00184
333.2	102	0.01363	0.00096
353.2	7.22	0.00369	0.00118
353.2	14	0.00427	0.00043
353.2	34.6	0.00526	0.00039
353.2	68.7	0.00634	0.00046
353.2	88.3	0.00762	0.00068
353.2	99.5	0.00897	0.00095
373.2	3.36	0.00206	0.00031
373.2	8.53	0.00256	0.0002
373.2	18.3	0.00277	0.00022
373.2	28.3	0.00304	0.0003
373.2	53.4	0.00416	0.0003
373.2	82	0.00455	0.00032
373.2	105	0.00558	0.00043
