Measured thermophysical data. Thermodynamic properties of trizirconium tetraphosphate
Source: J. Chem. Thermodyn., 2005, 10.1016/j.jct.2004.11.002
Compound 1: zirconium, Zr, InChI=1S/Zr
Compound 2: phosphorus, P, InChI=1S/P
Compound 3: oxygen, O2, InChI=1S/O2/c1-2
Compound 4: trizirconium tetraphosphate, O16P4Zr3, InChI=1S/4H3O4P.3Zr/c4*1-5(2,3)4;;;/h4*(H3,1,2,3,4);;;/q;;;;3*+4/p-12

System: trizirconium tetraphosphate; phases: Crystal
Fixed: Pressure, kPa = 101.325
Property: Molar heat capacity at constant pressure, J/K/mol (Crystal); method: Small (less than 1 g) adiabatic calorimetry
Temperature, K	Molar heat capacity at constant pressure, J/K/mol	uncertainty
7.04	0.348	0.021
7.12	0.35	0.021
7.53	0.445	0.022
7.57	0.451	0.022
8.01	0.54	0.022
8.08	0.545	0.023
8.44	0.644	0.024
8.53	0.645	0.024
8.99	0.734	0.025
9	0.731	0.025
9.56	0.865	0.02
9.56	0.856	0.02
10.03	0.989	0.02
10.03	0.989	0.02
10.48	1.21	0.03
10.49	1.22	0.03
10.93	1.46	0.03
10.94	1.44	0.03
11.36	1.634	0.037
11.37	1.665	0.037
11.82	1.838	0.038
12.37	2.148	0.042
13.07	2.555	0.047
13.75	2.895	0.05
14.44	3.36	0.054
15.12	3.87	0.059
15.78	4.412	0.065
16.5	5.031	0.07
17.16	5.744	0.076
17.83	6.311	0.081
18.49	6.978	0.0865
19.15	7.744	0.0923
19.81	8.439	0.1
21.36	10.31	0.108
23.7	13.28	0.125
26.05	16.5	0.141
28.43	20.06	0.158
30.81	24.08	0.183
33.22	28.27	0.208
35.65	32.53	0.233
38.09	36.82	0.249
40.54	41.24	0.274
42.99	45.82	0.299
45.45	50.74	0.324
47.91	55.45	0.349
50.37	60.08	0.374
52.84	64.8	0.399
55.32	69.35	0.424
57.79	74.08	0.449
60.27	78.85	0.474
62.74	84.31	0.5
65.22	88.72	0.5
67.69	93.62	0.58
70.17	98.69	0.58
72.64	103	0.58
75.11	108.5	0.67
77.59	113	0.67
80.07	117.7	0.67
82.55	122.2	0.67
83.13	122.9	0.75
85.03	126.3	0.75
85.63	127.5	0.75
87.52	130.6	0.75
88.07	132.1	0.75
90.51	136.3	0.75
92.95	140.7	0.75
95.39	145.3	0.831
97.83	149.8	0.831
100.86	155.4	0.831
103.34	159.8	0.915
105.77	163.7	0.915
108.21	168.1	0.915
110.64	172	0.915
113.07	176	0.915
115.5	180.2	0.998
117.92	183.9	0.998
120.35	187.8	0.998
122.77	191.6	0.998
125.19	195.4	1.081
127.61	199	1.081
130.02	203	1.081
132.44	206.4	1.081
134.85	209.9	1.081
137.26	213.6	1.164
139.66	217	1.164
142.07	220.3	1.164
144.47	223.8	1.164
146.87	227.3	1.164
149.27	230.3	1.247
151.67	234	1.247
154.06	237.5	1.247
156.45	240.1	1.247
158.84	243.5	1.247
161.22	246.7	1.33
163.61	249.7	1.33
165.99	252.7	1.33
168.36	255.8	1.33
170.74	258.8	1.33
173.11	261.6	1.33
175.48	264.6	1.413
177.82	267.5	1.413
180.19	270.3	1.413
182.55	273.1	1.413
184.9	276.2	1.413
187.26	279	1.413
189.6	281.5	1.497
191.95	284.1	1.497
194.29	286.9	1.497
196.61	289.3	1.497
198.95	292.3	1.497
201.29	294.9	1.497
203.62	297.3	1.58
205.94	299.7	1.58
208.25	302.4	1.58
210.56	304.9	1.58
212.87	307.1	1.58
215.13	309.7	1.58
217.43	312	1.58
219.72	314.3	1.663
222.01	316.4	1.663
224.3	319	1.663
226.58	321.3	1.663
228.86	323.8	1.663
231.2	325.8	1.663
233.39	327.8	1.663
235.65	330.3	1.746
237.89	332.2	1.746
240.13	334.4	1.746
242.36	336.7	1.746
244.6	338.6	1.746
246.81	340.9	1.746
249.04	342.8	1.746
251.18	344.9	1.746
253.4	347.1	1.746
255.76	349.5	1.829
257.81	351.1	1.829
260.01	352.9	1.829
262.21	355	1.829
264.39	357	1.829
266.57	359	1.829
268.73	361.3	1.829
270.9	363.1	1.829
273.03	365.1	1.912
275.17	367	1.912
277.31	369	1.912
279.44	370.8	1.912
281.55	372.7	1.912
283.64	374.5	1.912
285.61	376.3	1.912
287.68	378.1	1.912
289.74	379.6	1.912
291.82	381.6	1.995
293.89	383.5	1.995
295.95	385.1	1.995
297.97	387	1.995
299.97	388.7	1.995
301.97	390.3	1.995
303.99	391.9	1.995
306	393.4	1.995
308.01	395	1.995
310	396.6	1.995
311.98	398.2	1.995
313.95	399.9	2.079
315.87	401.5	2.079
317.55	402.8	2.079
319.49	404.3	2.079
321.43	405.7	2.079
323.37	407.1	2.079
325.29	408.6	2.079
327.2	410.1	2.079
329.07	411.5	2.079
330.93	413	2.079
332.83	414.5	2.079
334.72	415.9	2.162
336.6	417.4	2.162
338.48	418.8	2.162
340.34	420.1	2.162
342.23	421.6	2.162
344.1	423.4	2.162
345.97	424.5	2.162
347.85	426	2.162
349.71	427.5	2.162

System: trizirconium tetraphosphate; phases: Crystal
Fixed: Pressure, kPa = 101.325
Property: Molar heat capacity at constant pressure, J/K/mol (Crystal); method: automated dynamic calorimeter ADCTTB
Temperature, K	Molar heat capacity at constant pressure, J/K/mol	uncertainty
331.9	414	8.314
334.1	416	8.314
336.2	417	8.314
338.3	418	8.314
340.4	420	8.314
342.5	422	8.314
344.6	424	8.314
346.7	426	8.314
348.8	427	8.314
350.9	428	8.314
352.9	430	8.314
354.9	432	8.314
356.8	433	8.314
358.7	435	8.314
360.5	436	8.314
362.3	437	9.146
364.1	438	9.146
365.9	440	9.146
367.6	442	9.146
369.3	442	9.146
371	444	9.146
372.7	445	9.146
374.4	446	9.146
376.1	447	9.146
377.8	449	9.146
379.5	451	9.146
381.2	451	9.146
382.9	452	9.146
384.6	454	9.146
386.3	456	9.146
388	456	9.146
389.8	458	9.146
391.6	459	9.146
393.3	461	9.146
395.1	461	9.146
396.9	463	9.146
398.7	465	9.146
400.5	466	9.146
402.4	467	9.146
404.2	468	9.146
406.1	470	9.146
407.9	471	9.146
409.8	472	9.146
411.7	474	9.146
413.5	475	9.146
415.4	476	9.146
417.3	477	9.146
419.1	479	9.977
421	480	9.977
422.8	481	9.977
424.7	482	9.977
426.5	484	9.977
428.4	485	9.977
430.2	486	9.977
432	487	9.977
433.8	488	9.977
435.7	490	9.977
437.5	491	9.977
439.3	492	9.977
441.1	493	9.977
442.9	495	9.977
444.7	496	9.977
446.5	497	9.977
448.3	498	9.977
450.1	499	9.977
451.9	501	9.977
453.7	501	9.977
455.5	502	9.977
457.3	503	9.977
459.1	504	9.977
460.9	506	9.977
462.7	506	9.977
464.6	508	9.977
466.4	509	9.977
468.2	511	9.977
470.1	511	9.977
471.9	512	9.977
473.7	513	9.977
475.6	515	9.977
477.4	516	9.977
479.3	516	9.977
481.2	517	9.977
483	519	9.977
484.9	520	10.81
486.7	520	10.81
488.6	521	10.81
490.4	522	10.81
492.3	524	10.81
494.2	525	10.81
496	525	10.81
497.9	526	10.81
499.8	528	10.81
501.7	529	10.81
503.5	530	10.81
505.4	530	10.81
507.2	531	10.81
509	532	10.81
510.8	533	10.81
512.6	534	10.81
514.4	535	10.81
516.2	536	10.81
517.9	537	10.81
519.7	538	10.81
521.5	539	10.81
523.3	540	10.81
525.1	540	10.81
526.8	541	10.81
528.6	542	10.81
530.4	543	10.81
532.2	544	10.81
533.9	545	10.81
535.7	545	10.81
537.5	546	10.81
539.3	547	10.81
541	548	10.81
542.8	549	10.81
544.6	550	10.81
546.4	550	10.81
548.2	551	10.81
549.9	552	10.81
551.7	553	10.81
553.5	553	10.81
555.3	555	10.81
557.2	555	10.81
559	555	10.81
560.8	556	10.81
562.6	557	10.81
564.5	558	10.81
566.3	559	10.81
568.2	560	10.81
570	560	10.81
571.8	560	10.81
573.7	561	11.64
575.5	562	11.64
577.3	562	11.64
579.2	563	11.64
581	564	11.64
582.8	565	11.64
584.6	565	11.64
586.4	565	11.64
588.3	566	11.64
590.1	567	11.64
591.9	567	11.64
593.6	568	11.64
595.4	569	11.64
597.2	569	11.64
599	570	11.64
600.8	570	11.64
602.5	570	11.64
604.3	571	11.64
606.1	571	11.64
607.9	571	11.64
609.7	572	11.64
611.5	573	11.64
613.3	573	11.64
615.1	573	11.64
616.9	574	11.64
618.8	574	11.64
620.6	575	11.64
622.4	575	11.64
624.3	575	11.64
626.1	575	11.64
628	575	11.64
629.9	576	11.64
631.8	576	11.64
633.6	576	11.64
635.5	577	11.64
637.4	577	11.64
639.3	577	11.64

System: trizirconium tetraphosphate; phases: Crystal
Fixed: Pressure, kPa = 101.325
Property: Molar heat capacity at constant pressure, J/K/mol (Crystal); method: Small (less than 1 g) adiabatic calorimetry
Temperature, K	Molar heat capacity at constant pressure, J/K/mol	uncertainty
5	0.128	0.017
10	0.9886	0.029
15	3.774	0.058
20	8.664	0.1
25	15.02	0.141
30	22.67	0.183
35	31.14	0.224
40	40.44	0.274
45	49.73	0.316
50	59.29	0.366
60	78.65	0.474
70	98.19	0.58
80	117.4	0.67
90	135.6	0.75
100	153.7	0.831
110	170.9	0.915
120	187.2	0.998
130	202.8	1.081
140	217.6	1.164
150	231.6	1.247
160	245.1	1.247
170	258	1.33
180	270.3	1.413
190	282	1.497
200	293.3	1.497
210	304.1	1.58
220	314.5	1.663
230	324.6	1.663
240	334.4	1.746
250	343.9	1.746
260	353.2	1.829
270	362.3	1.829
280	371.2	1.912
290	380	1.912
298.15	387	1.995
300	388.5	1.995
310	396.9	1.995
320	404.8	2.079
330	412.2	2.079
340	420	2.162
350	427	2.49
360	436	2.49
370	443	2.49
380	451	2.49
390	458	2.49
400	466	2.49
410	472	2.49
420	479	2.49
430	486	2.49
440	492	2.49
450	499	2.49
460	505	2.49
470	511	2.49
480	517	2.49
490	522	2.49
500	528	2.49
510	533	2.49
520	538	2.49
530	543	2.49

System: trizirconium tetraphosphate; phases: Crystal
Fixed: Pressure, kPa = 101.325
Property: Molar enthalpy function {Hm(T)-Hm(0)}/T, J/K/mol (Crystal); method: Small (less than 1 g) adiabatic calorimetry
Temperature, K	Molar enthalpy function {Hm(T)-Hm(0)}/T, J/K/mol	uncertainty
5	0.04	0.016
10	0.26	0.0188
15	0.8797	0.025
20	2.18	0.037
25	4.096	0.048
30	6.613	0.1039
35	9.537	0.116
40	12.72	0.125
45	16.37	0.141
50	20.21	0.166
60	28.28	0.208
70	36.87	0.249
80	45.74	0.299
90	54.68	0.366
100	63.71	0.407
110	72.65	0.449
120	81.56	0.499
130	90.3	0.5
140	98.86	0.58
150	107.3	0.58
160	115.4	0.67
170	123.5	0.67
180	131.3	0.75
190	138.9	0.75
200	146.3	0.831
210	153.6	0.831
220	160.6	0.915
230	167.5	0.915
240	174.4	0.915
250	180.9	0.998
260	187.4	0.998
270	193.6	0.998
280	199.9	1.081
290	205.9	1.081
298.15	210.8	1.081
300	211.9	1.164
310	217.7	1.164
320	223.4	1.164
330	229.1	1.247
340	234.6	1.247
350	240	1.66
360	245	1.66
370	250	1.66
380	256	1.66
390	261	1.66
400	266	1.66
410	271	1.66
420	276	1.66
430	280	1.66
440	285	1.66
450	290	1.66
460	294	1.66
470	299	1.66
480	303	1.66
490	308	1.66
500	313	1.66
510	317	1.66
520	321	1.66
530	325	1.66

System: trizirconium tetraphosphate; phases: Crystal
Fixed: Pressure, kPa = 101.325
Property: Molar entropy, J/K/mol (Crystal); method: Small (less than 1 g) adiabatic calorimetry
Temperature, K	Molar entropy, J/K/mol	uncertainty
5	0.0426	0.0241
10	0.3414	0.0297
15	1.165	0.042
20	2.878	0.064
25	5.476	0.0873
30	8.838	0.166
35	12.94	0.191
40	17.77	0.224
45	22.89	0.266
50	28.52	0.308
60	41.31	0.407
70	54.75	0.515
80	69.28	0.632
90	84.06	0.75
100	99.36	0.831
110	114.8	0.998
120	130.5	1.081
130	146	1.247
140	161.6	1.33
150	177.1	1.413
160	192.5	1.58
170	207.7	1.663
180	222.8	1.746
190	237.8	1.912
200	252.5	1.995
210	267.1	2.079
220	281.4	2.162
230	295.7	2.328
240	309.7	2.411
250	323.6	2.494
260	337.2	2.577
270	350.7	2.744
280	364.1	2.827
290	377.2	2.91
298.15	387.9	2.993
300	390.3	2.993
310	403.2	3.076
320	415.9	3.159
330	428.4	3.243
340	440.8	3.326
350	453	3.33
360	466	3.33
370	477	3.33
380	489	4.16
390	501	4.16
400	513	4.16
410	525	4.16
420	535	4.16
430	547	4.16
440	559	4.16
450	570	4.16
460	580	4.16
470	591	4.16
480	602	4.16
490	613	4.99
500	624	4.99
510	634	4.99
520	644	4.99
530	655	4.99

Reaction: -3 zirconium + -4 phosphorus + 1 trizirconium tetraphosphate + -8 oxygen
Property: Molar enthalpy of reaction, kJ/mol
-3597
