Measured thermophysical data. Experimental vapor pressures (from 1 Pa to 100 kPa) of six saturated Fatty Acid Methyl Esters (FAMEs): Methyl hexanoate, methyl octanoate, methyl decanoate, methyl dodecanoate, methyl tetradecanoate and methyl hexadecanoate
Source: J. Chem. Thermodyn., 2016, 10.1016/j.jct.2016.07.024
Compound 1: methyl hexanoate, C7H14O2, InChI=1S/C7H14O2/c1-3-4-5-6-7(8)9-2/h3-6H2,1-2H3, purity 99%
Compound 2: methyl octanoate, C9H18O2, InChI=1S/C9H18O2/c1-3-4-5-6-7-8-9(10)11-2/h3-8H2,1-2H3, purity 99%
Compound 3: methyl decanoate, C11H22O2, InChI=1S/C11H22O2/c1-3-4-5-6-7-8-9-10-11(12)13-2/h3-10H2,1-2H3, purity 99%
Compound 4: methyl dodecanoate, C13H26O2, InChI=1S/C13H26O2/c1-3-4-5-6-7-8-9-10-11-12-13(14)15-2/h3-12H2,1-2H3, purity 98%
Compound 5: methyl tetradecanoate, C15H30O2, InChI=1S/C15H30O2/c1-3-4-5-6-7-8-9-10-11-12-13-14-15(16)17-2/h3-14H2,1-2H3, purity 98%
Compound 6: methyl hexadecanoate, C17H34O2, InChI=1S/C17H34O2/c1-3-4-5-6-7-8-9-10-11-12-13-14-15-16-17(18)19-2/h3-16H2,1-2H3, purity 97%

System: methyl hexanoate; phases: Liquid, Gas
Property: Vapor or sublimation pressure, kPa (Liquid); method: Closed cell (Static) method
Temperature, K	Vapor or sublimation pressure, kPa	uncertainty
262.64	0.032	0.0021
272.74	0.0751	0.0047
282.84	0.164	0.0101
292.87	0.3374	0.0205
307.63	0.885	0.019
307.9	0.895	0.019
317.65	1.605	0.014
332.72	3.529	0.026
347.57	7.131	0.048
362.19	13.058	0.086
377.31	23.112	0.15
392.48	38.939	0.25
407.4	62.308	0.398
422.29	96.031	0.608

System: methyl octanoate; phases: Liquid, Gas
Property: Vapor or sublimation pressure, kPa (Liquid); method: Closed cell (Static) method
Temperature, K	Vapor or sublimation pressure, kPa	uncertainty
282.64	0.015	0.001
292.8	0.0345	0.0022
302.87	0.0751	0.0047
312.89	0.154	0.009
323.02	0.302	0.018
333.08	0.554	0.034
343.23	0.986	0.021
353.34	1.668	0.014
362.45	2.714	0.021
372.52	4.279	0.03
382.72	6.575	0.045
392.83	9.826	0.065
402.83	14.272	0.093
412.89	20.335	0.132
422.74	28.288	0.182
432.68	38.823	0.248

System: methyl decanoate; phases: Liquid, Gas
Property: Vapor or sublimation pressure, kPa (Liquid); method: Closed cell (Static) method
Temperature, K	Vapor or sublimation pressure, kPa	uncertainty
292.87	0.00349	0.00036
302.97	0.0084	0.0006
313.01	0.0202	0.0013
323.04	0.0433	0.0028
333.13	0.0891	0.0056
343.3	0.168	0.01
352.4	0.312	0.019
362.72	0.555	0.034
372.54	0.934	0.02
382.62	1.562	0.014
392.75	2.525	0.019
402.71	3.92	0.028
412.79	6.013	0.041
422.71	8.887	0.059
432.65	12.797	0.083

System: methyl dodecanoate; phases: Liquid, Gas
Property: Vapor or sublimation pressure, kPa (Liquid); method: Closed cell (Static) method
Temperature, K	Vapor or sublimation pressure, kPa	uncertainty
322.68	0.00672	0.00048
332.79	0.0147	0.001
342.08	0.0303	0.002
353.19	0.0636	0.004
362.53	0.117	0.007
372.57	0.213	0.013
382.62	0.378	0.023
392.73	0.642	0.014
402.73	1.059	0.023
412.79	1.7	0.014
422.61	2.652	0.02
432.58	4.02	0.028
442.5	5.924	0.04

System: methyl tetradecanoate; phases: Liquid, Gas
Property: Vapor or sublimation pressure, kPa (Liquid); method: Closed cell (Static) method
Temperature, K	Vapor or sublimation pressure, kPa	uncertainty
332.4	0.00276	0.00035
342.28	0.00588	0.00043
342.28	0.00598	0.00043
352.35	0.0125	0.0009
352.35	0.0125	0.0009
362.59	0.0254	0.0017
372.73	0.0501	0.0032
382.82	0.0941	0.0059
392.86	0.166	0.01
392.87	0.168	0.01
402.76	0.302	0.018
412.8	0.514	0.031
422.64	0.831	0.018
432.57	1.311	0.012
432.57	1.306	0.012
432.58	1.309	0.012
442.36	2.056	0.016
442.37	2.053	0.016
442.38	2.051	0.016
452.24	3.123	0.023
452.25	3.127	0.023
452.26	3.132	0.023

System: methyl hexadecanoate; phases: Liquid, Gas
Property: Vapor or sublimation pressure, kPa (Liquid); method: Closed cell (Static) method
Temperature, K	Vapor or sublimation pressure, kPa	uncertainty
372.35	0.015	0.001
382.55	0.0283	0.0018
392.48	0.0515	0.0033
402.41	0.0909	0.0057
412.54	0.161	0.01
422.44	0.269	0.016
432.68	0.448	0.027
442.67	0.731	0.016
452.65	1.197	0.026
