Measured thermophysical data. Volumetric behaviour of the (2,2,4-trimethylpentane + methylbenzene + butan-1-ol) ternary system and its binary sub-systems within the temperature range (298.15-328.15) K
Source: J. Chem. Thermodyn., 2013, 10.1016/j.jct.2013.05.009
Compound 1: 2,2,4-trimethylpentane, C8H18, InChI=1S/C8H18/c1-7(2)6-8(3,4)5/h7H,6H2,1-5H3, purity 99.5%
Compound 2: toluene, C7H8, InChI=1S/C7H8/c1-7-5-3-2-4-6-7/h2-6H,1H3, purity 99.9%
Compound 3: butan-1-ol, C4H10O, InChI=1S/C4H10O/c1-2-3-4-5/h5H,2-4H2,1H3, purity 99.8%

System: 2,2,4-trimethylpentane; phases: Liquid
Property: Refractive index (Na D-line) (Liquid); method: Standard Abbe refractometry
Temperature, K	Pressure, kPa	Refractive index (Na D-line)	uncertainty
298.15	101.325	1.38901	0.00072

System: 2,2,4-trimethylpentane; phases: Liquid
Fixed: Pressure, kPa = 101
Property: Mass density, kg/m3 (Liquid); method: Vibrating tube method
Temperature, K	Mass density, kg/m3	uncertainty
298.15	687.68	0.18
308.15	679.45	0.18
318.15	671.3	0.18
328.15	663.17	0.18

System: 2,2,4-trimethylpentane; phases: Liquid
Fixed: Pressure, kPa = 101
Property: Speed of sound, m/s (Liquid); method: Sing-around technique in a fixed-path interferometer
Temperature, K	Speed of sound, m/s	uncertainty
298.15	1082.7	1.2
308.15	1041.1	1.2
318.15	1000.1	1.2
328.15	959.4	1.2

System: toluene; phases: Liquid
Property: Refractive index (Na D-line) (Liquid); method: Standard Abbe refractometry
Temperature, K	Pressure, kPa	Refractive index (Na D-line)	uncertainty
298.15	101.325	1.49393	0.00072

System: toluene; phases: Liquid
Fixed: Pressure, kPa = 101
Property: Mass density, kg/m3 (Liquid); method: Vibrating tube method
Temperature, K	Mass density, kg/m3	uncertainty
298.15	862.19	0.13
308.15	852.88	0.14
318.15	843.6	0.14
328.15	834.29	0.14

System: toluene; phases: Liquid
Fixed: Pressure, kPa = 101
Property: Speed of sound, m/s (Liquid); method: Sing-around technique in a fixed-path interferometer
Temperature, K	Speed of sound, m/s	uncertainty
298.15	1305.4	1.2
308.15	1262.7	1.2
318.15	1220.4	1.2
328.15	1178.6	1.2

System: butan-1-ol; phases: Liquid
Property: Refractive index (Na D-line) (Liquid); method: Standard Abbe refractometry
Temperature, K	Pressure, kPa	Refractive index (Na D-line)	uncertainty
298.15	101.325	1.39733	0.00072

System: butan-1-ol; phases: Liquid
Fixed: Pressure, kPa = 101
Property: Mass density, kg/m3 (Liquid); method: Vibrating tube method
Temperature, K	Mass density, kg/m3	uncertainty
298.15	805.74	0.15
308.15	798.07	0.15
318.15	790.38	0.15
328.15	782.58	0.15

System: butan-1-ol; phases: Liquid
Fixed: Pressure, kPa = 101
Property: Speed of sound, m/s (Liquid); method: Sing-around technique in a fixed-path interferometer
Temperature, K	Speed of sound, m/s	uncertainty
298.15	1239.9	1.2
308.15	1206.6	1.2
318.15	1173.4	1.2
328.15	1140.4	1.2

System: butan-1-ol + 2,2,4-trimethylpentane; phases: Liquid
Fixed: Pressure, kPa = 101
Property: Mass density, kg/m3 (Liquid); method: Vibrating tube method
Temperature, K	Mole fraction of 2,2,4-trimethylpentane	Mass density, kg/m3	uncertainty
298.15	1	687.68	0.18
298.15	0.98101	688.66	0.18
298.15	0.96192	689.83	0.18
298.15	0.94221	691.1	0.18
298.15	0.90776	693.42	0.18
298.15	0.86827	696.2	0.17
298.15	0.80947	700.58	0.17
298.15	0.74202	706.01	0.17
298.15	0.67875	711.51	0.17
298.15	0.60674	718.27	0.17
298.15	0.54579	724.43	0.17
298.15	0.45532	734.44	0.17
298.15	0.39323	741.94	0.16
298.15	0.31756	751.87	0.16
298.15	0.2621	759.76	0.16
298.15	0.2049	768.51	0.16
298.15	0.14265	778.75	0.16
298.15	0.07555	790.82	0.15
298.15	0.03101	799.41	0.15
298.15	0	805.74	0.15
308.15	1	679.45	0.18
308.15	0.98101	680.37	0.18
308.15	0.96192	681.51	0.18
308.15	0.94221	682.76	0.18
308.15	0.90776	685.07	0.18
308.15	0.86827	687.84	0.18
308.15	0.80947	692.21	0.18
308.15	0.74202	697.65	0.17
308.15	0.67875	703.15	0.17
308.15	0.60674	709.93	0.17
308.15	0.54579	716.13	0.17
308.15	0.45532	726.18	0.17
308.15	0.39323	733.74	0.17
308.15	0.31756	743.75	0.16
308.15	0.2621	751.67	0.16
308.15	0.2049	760.53	0.16
308.15	0.14265	770.87	0.16
308.15	0.07555	783.03	0.15
308.15	0.03101	791.7	0.15
308.15	0	798.07	0.15
318.15	1	671.3	0.18
318.15	0.98101	672.16	0.18
318.15	0.96192	673.25	0.18
318.15	0.94221	674.47	0.18
318.15	0.90776	676.75	0.18
318.15	0.86827	679.5	0.18
318.15	0.80947	683.87	0.18
318.15	0.74202	689.3	0.18
318.15	0.67875	694.8	0.18
318.15	0.60674	701.6	0.17
318.15	0.54579	707.81	0.17
318.15	0.45532	717.92	0.17
318.15	0.39323	725.51	0.17
318.15	0.31756	735.6	0.17
318.15	0.2621	743.61	0.16
318.15	0.2049	752.52	0.16
318.15	0.14265	762.95	0.16
318.15	0.07555	775.22	0.16
318.15	0.03101	783.95	0.15
318.15	0	790.38	0.15
328.15	1	663.17	0.18
328.15	0.98101	663.97	0.18
328.15	0.96192	664.98	0.18
328.15	0.94221	666.16	0.18
328.15	0.90776	668.4	0.18
328.15	0.86827	671.13	0.18
328.15	0.80947	675.5	0.18
328.15	0.74202	680.9	0.18
328.15	0.67875	686.39	0.18
328.15	0.60674	693.2	0.18
328.15	0.54579	699.42	0.18
328.15	0.45532	709.56	0.17
328.15	0.39323	717.19	0.17
328.15	0.31756	727.34	0.17
328.15	0.2621	735.41	0.17
328.15	0.2049	744.39	0.16
328.15	0.14265	754.91	0.16
328.15	0.07555	767.29	0.16
328.15	0.03101	776.09	0.16
328.15	0	782.58	0.15

System: butan-1-ol + 2,2,4-trimethylpentane; phases: Liquid
Fixed: Pressure, kPa = 101
Property: Speed of sound, m/s (Liquid); method: FPINT:WF = 
Temperature, K	Mole fraction of 2,2,4-trimethylpentane	Speed of sound, m/s	uncertainty
298.15	1	1082.7	1.2
298.15	0.98101	1082.1	1.2
298.15	0.96192	1082.3	1.2
298.15	0.94221	1082.9	1.2
298.15	0.90776	1084.5	1.2
298.15	0.86827	1086.7	1.2
298.15	0.80947	1090.6	1.2
298.15	0.74202	1095.9	1.2
298.15	0.67875	1101.9	1.2
298.15	0.60674	1109.8	1.2
298.15	0.54579	1117.4	1.2
298.15	0.45532	1130.7	1.2
298.15	0.39323	1141.1	1.2
298.15	0.31756	1155.5	1.2
298.15	0.2621	1167.3	1.2
298.15	0.2049	1180.8	1.2
298.15	0.14265	1196.8	1.2
298.15	0.07555	1216	1.2
298.15	0.03101	1229.7	1.2
298.15	0	1239.9	1.2
308.15	1	1041.1	1.2
308.15	0.98101	1040.9	1.2
308.15	0.96192	1040.7	1.2
308.15	0.94221	1041.5	1.2
308.15	0.90776	1043.1	1.2
308.15	0.86827	1045.4	1.2
308.15	0.80947	1049.5	1.2
308.15	0.74202	1055.1	1.2
308.15	0.67875	1061.3	1.2
308.15	0.60674	1069.5	1.2
308.15	0.54579	1077.5	1.2
308.15	0.45532	1091.4	1.2
308.15	0.39323	1102.3	1.2
308.15	0.31756	1117.5	1.2
308.15	0.2621	1130	1.2
308.15	0.2049	1144.2	1.2
308.15	0.14265	1161.1	1.2
308.15	0.07555	1181.3	1.2
308.15	0.03101	1195.8	1.2
308.15	0	1206.6	1.2
318.15	1	1000.1	1.2
318.15	0.98101	1000.1	1.2
318.15	0.96192	1000	1.2
318.15	0.94221	1000.6	1.2
318.15	0.90776	1002.2	1.2
318.15	0.86827	1004.6	1.2
318.15	0.80947	1008.8	1.2
318.15	0.74202	1014.7	1.2
318.15	0.67875	1021.1	1.2
318.15	0.60674	1029.7	1.2
318.15	0.54579	1038.1	1.2
318.15	0.45532	1052.6	1.2
318.15	0.39323	1063.9	1.2
318.15	0.31756	1079.8	1.2
318.15	0.2621	1092.5	1.2
318.15	0.2049	1107.8	1.2
318.15	0.14265	1125.6	1.2
318.15	0.07555	1146.9	1.2
318.15	0.03101	1162.1	1.2
318.15	0	1173.4	1.2
328.15	1	959.4	1.2
328.15	0.98101	959.7	1.2
328.15	0.96192	959.7	1.2
328.15	0.94221	960.2	1.2
328.15	0.90776	961.8	1.2
328.15	0.86827	964.3	1.2
328.15	0.80947	968.8	1.2
328.15	0.74202	974.8	1.2
328.15	0.67875	981.6	1.2
328.15	0.60674	990.4	1.2
328.15	0.54579	999.2	1.2
328.15	0.45532	1014.1	1.2
328.15	0.39323	1025.9	1.2
328.15	0.31756	1042.5	1.2
328.15	0.2621	1056.1	1.2
328.15	0.2049	1071.7	1.2
328.15	0.14265	1090.3	1.2
328.15	0.07555	1112.6	1.2
328.15	0.03101	1128.6	1.2
328.15	0	1140.4	1.2

System: butan-1-ol + toluene; phases: Liquid
Fixed: Pressure, kPa = 101
Property: Mass density, kg/m3 (Liquid); method: Vibrating tube method
Temperature, K	Mole fraction of toluene	Mass density, kg/m3	uncertainty
298.15	1	862.19	0.13
298.15	0.96494	860.1	0.13
298.15	0.93266	858.35	0.13
298.15	0.86914	854.94	0.14
298.15	0.79669	851.2	0.14
298.15	0.73764	848.14	0.14
298.15	0.67113	844.68	0.14
298.15	0.60067	841.01	0.14
298.15	0.54063	837.84	0.14
298.15	0.47296	834.2	0.14
298.15	0.40659	830.59	0.14
298.15	0.33909	826.8	0.14
298.15	0.26056	822.26	0.14
298.15	0.19094	818.08	0.14
298.15	0.13344	814.51	0.15
298.15	0.06979	810.42	0.15
298.15	0.02621	807.5	0.15
298.15	0	805.71	0.15
308.15	1	852.88	0.14
308.15	0.96494	850.75	0.14
308.15	0.93266	848.98	0.14
308.15	0.86914	845.61	0.14
308.15	0.79669	841.92	0.14
308.15	0.73764	838.93	0.14
308.15	0.67113	835.54	0.14
308.15	0.60067	831.96	0.14
308.15	0.54063	828.87	0.14
308.15	0.47296	825.36	0.14
308.15	0.40659	821.86	0.14
308.15	0.33909	818.22	0.14
308.15	0.26056	813.87	0.15
308.15	0.19094	809.86	0.15
308.15	0.13344	806.45	0.15
308.15	0.06979	802.54	0.15
308.15	0.02621	799.76	0.15
308.15	0	798.05	0.15
318.15	1	843.6	0.14
318.15	0.96494	841.43	0.14
318.15	0.93266	839.62	0.14
318.15	0.86914	836.27	0.14
318.15	0.79669	832.63	0.14
318.15	0.73764	829.68	0.14
318.15	0.67113	826.37	0.14
318.15	0.60067	822.88	0.14
318.15	0.54063	819.88	0.14
318.15	0.47296	816.47	0.14
318.15	0.40659	813.1	0.15
318.15	0.33909	809.59	0.15
318.15	0.26056	805.42	0.15
318.15	0.19094	801.59	0.15
318.15	0.13344	798.34	0.15
318.15	0.06979	794.62	0.15
318.15	0.02621	791.98	0.15
318.15	0	790.36	0.15
328.15	1	834.29	0.14
328.15	0.96494	832.09	0.14
328.15	0.93266	830.24	0.14
328.15	0.86914	826.88	0.14
328.15	0.79669	823.27	0.14
328.15	0.73764	820.37	0.14
328.15	0.67113	817.12	0.14
328.15	0.60067	813.7	0.15
328.15	0.54063	810.78	0.15
328.15	0.47296	807.48	0.15
328.15	0.40659	804.22	0.15
328.15	0.33909	800.85	0.15
328.15	0.26056	796.86	0.15
328.15	0.19094	793.21	0.15
328.15	0.13344	790.12	0.15
328.15	0.06979	786.6	0.15
328.15	0.02621	784.09	0.15
328.15	0	782.56	0.15

System: butan-1-ol + toluene; phases: Liquid
Fixed: Pressure, kPa = 101
Property: Speed of sound, m/s (Liquid); method: FPINT:WF = 
Temperature, K	Mole fraction of toluene	Speed of sound, m/s	uncertainty
298.15	1	1305.4	1.2
298.15	0.96494	1299.9	1.2
298.15	0.93266	1293.6	1.2
298.15	0.86914	1284.3	1.2
298.15	0.79669	1277	1.2
298.15	0.73764	1272.3	1.2
298.15	0.67113	1267.8	1.2
298.15	0.60067	1263.9	1.2
298.15	0.54063	1261	1.2
298.15	0.47296	1258	1.2
298.15	0.40659	1255.4	1.2
298.15	0.33909	1252.9	1.2
298.15	0.26056	1250.1	1.2
298.15	0.19094	1247.6	1.2
298.15	0.13344	1245.4	1.2
298.15	0.06979	1242.9	1.2
298.15	0.02621	1241.1	1.2
298.15	0	1240	1.2
308.15	1	1262.7	1.2
308.15	0.96494	1258.4	1.2
308.15	0.93266	1252.7	1.2
308.15	0.86914	1243.8	1.2
308.15	0.79669	1236.8	1.2
308.15	0.73764	1232.3	1.2
308.15	0.67113	1228.2	1.2
308.15	0.60067	1224.6	1.2
308.15	0.54063	1222	1.2
308.15	0.47296	1219.6	1.2
308.15	0.40659	1217.5	1.2
308.15	0.33909	1215.6	1.2
308.15	0.26056	1213.6	1.2
308.15	0.19094	1211.8	1.2
308.15	0.13344	1210.3	1.2
308.15	0.06979	1208.6	1.2
308.15	0.02621	1207.3	1.2
308.15	0	1206.6	1.2
318.15	1	1220.4	1.2
318.15	0.96494	1217	1.2
318.15	0.93266	1212.2	1.2
318.15	0.86914	1203.8	1.2
318.15	0.79669	1197.1	1.2
318.15	0.73764	1192.8	1.2
318.15	0.67113	1189.1	1.2
318.15	0.60067	1185.9	1.2
318.15	0.54063	1183.7	1.2
318.15	0.47296	1181.6	1.2
318.15	0.40659	1180	1.2
318.15	0.33909	1178.6	1.2
318.15	0.26056	1177.4	1.2
318.15	0.19094	1176.3	1.2
318.15	0.13344	1175.4	1.2
318.15	0.06979	1174.5	1.2
318.15	0.02621	1173.8	1.2
318.15	0	1173.4	1.2
328.15	1	1178.6	1.2
328.15	0.96494	1175.9	1.2
328.15	0.93266	1171.9	1.2
328.15	0.86914	1164.4	1.2
328.15	0.79669	1158	1.2
328.15	0.73764	1154	1.2
328.15	0.67113	1150.5	1.2
328.15	0.60067	1147.6	1.2
328.15	0.54063	1145.7	1.2
328.15	0.47296	1144.1	1.2
328.15	0.40659	1142.8	1.2
328.15	0.33909	1142	1.2
328.15	0.26056	1141.5	1.2
328.15	0.19094	1141	1.2
328.15	0.13344	1140.8	1.2
328.15	0.06979	1140.6	1.2
328.15	0.02621	1140.4	1.2
328.15	0	1140.4	1.2

System: butan-1-ol + toluene + 2,2,4-trimethylpentane; phases: Liquid
Fixed: Pressure, kPa = 101
Property: Mass density, kg/m3 (Liquid); method: Vibrating tube method
Temperature, K	Mole fraction of 2,2,4-trimethylpentane	Mole fraction of toluene	Mass density, kg/m3	uncertainty
298.15	0.01016	0.03928	806.27	0.15
298.15	0.02095	0.08102	806.77	0.15
298.15	0.04011	0.1551	807.48	0.15
298.15	0.06132	0.23713	808.05	0.15
298.15	0.08236	0.31849	808.46	0.15
298.15	0.10293	0.39802	808.82	0.15
298.15	0.12335	0.47698	809.12	0.15
298.15	0.14325	0.55393	809.53	0.15
298.15	0.16421	0.63496	810.1	0.15
298.15	0.18561	0.71773	810.83	0.15
298.15	0.19621	0.75872	811.29	0.15
298.15	0.20547	0.79453	811.87	0.14
318.15	0.01016	0.03928	790.63	0.15
318.15	0.02095	0.08102	790.85	0.15
318.15	0.04011	0.1551	791.09	0.15
318.15	0.06132	0.23713	791.21	0.15
318.15	0.08236	0.31849	791.26	0.15
318.15	0.10293	0.39802	791.31	0.15
318.15	0.12335	0.47698	791.42	0.15
318.15	0.14325	0.55393	791.62	0.15
318.15	0.16421	0.63496	792.06	0.15
318.15	0.18561	0.71773	792.71	0.15
318.15	0.19621	0.75872	793.2	0.15
318.15	0.20547	0.79453	793.92	0.15
308.15	0.01016	0.03928	798.4	0.15
308.15	0.02095	0.08102	798.84	0.15
308.15	0.04011	0.1551	799.3	0.15
308.15	0.06132	0.23713	799.66	0.15
308.15	0.08236	0.31849	799.88	0.15
308.15	0.10293	0.39802	800.09	0.15
308.15	0.12335	0.47698	800.3	0.15
308.15	0.14325	0.55393	800.59	0.15
308.15	0.16421	0.63496	801.09	0.15
308.15	0.18561	0.71773	801.77	0.15
308.15	0.19621	0.75872	802.23	0.15
308.15	0.20547	0.79453	802.88	0.15
328.15	0.01016	0.03928	782.69	0.16
328.15	0.02095	0.08102	782.76	0.16
328.15	0.04011	0.1551	782.76	0.16
328.15	0.06132	0.23713	782.66	0.16
328.15	0.08236	0.31849	782.53	0.15
328.15	0.10293	0.39802	782.46	0.15
328.15	0.12335	0.47698	782.45	0.15
328.15	0.14325	0.55393	782.59	0.15
328.15	0.16421	0.63496	782.97	0.15
328.15	0.18561	0.71773	783.62	0.15
328.15	0.19621	0.75872	784.16	0.15
328.15	0.20547	0.79453	784.96	0.15
298.15	0.02034	0.03013	803.6	0.15
298.15	0.04055	0.06007	801.46	0.15
298.15	0.08106	0.12007	797.28	0.15
298.15	0.11786	0.17458	793.62	0.15
298.15	0.1619	0.23982	789.38	0.15
298.15	0.20293	0.30059	785.68	0.15
298.15	0.24158	0.35784	782.46	0.16
298.15	0.28308	0.41931	779.27	0.16
298.15	0.32437	0.48048	776.49	0.15
298.15	0.36674	0.54324	773.98	0.15
298.15	0.38689	0.57308	772.95	0.15
298.15	0.40302	0.59698	772.32	0.15
318.15	0.02034	0.03013	787.98	0.15
318.15	0.04055	0.06007	785.61	0.15
318.15	0.08106	0.12007	780.98	0.16
318.15	0.11786	0.17458	776.97	0.16
318.15	0.1619	0.23982	772.39	0.16
318.15	0.20293	0.30059	768.44	0.16
318.15	0.24158	0.35784	765.06	0.16
318.15	0.28308	0.41931	761.73	0.16
318.15	0.32437	0.48048	758.85	0.16
318.15	0.36674	0.54324	756.32	0.16
318.15	0.38689	0.57308	755.35	0.16
318.15	0.40302	0.59698	754.88	0.16
308.15	0.02034	0.03013	795.81	0.15
308.15	0.04055	0.06007	793.55	0.15
308.15	0.08106	0.12007	789.15	0.15
308.15	0.11786	0.17458	785.32	0.15
308.15	0.1619	0.23982	780.91	0.15
308.15	0.20293	0.30059	777.07	0.15
308.15	0.24158	0.35784	773.77	0.16
308.15	0.28308	0.41931	770.51	0.16
308.15	0.32437	0.48048	767.67	0.16
308.15	0.36674	0.54324	765.14	0.16
308.15	0.38689	0.57308	764.13	0.16
308.15	0.40302	0.59698	763.58	0.16
328.15	0.02034	0.03013	780.04	0.16
328.15	0.04055	0.06007	777.55	0.16
328.15	0.08106	0.12007	772.7	0.16
328.15	0.11786	0.17458	768.52	0.16
328.15	0.1619	0.23982	763.78	0.16
328.15	0.20293	0.30059	759.72	0.16
328.15	0.24158	0.35784	756.27	0.16
328.15	0.28308	0.41931	752.88	0.16
328.15	0.32437	0.48048	749.98	0.16
328.15	0.36674	0.54324	747.47	0.16
328.15	0.38689	0.57308	746.56	0.16
328.15	0.40302	0.59698	746.18	0.16
298.15	0.03041	0.01976	800.87	0.15
298.15	0.06295	0.04089	795.84	0.15
298.15	0.12365	0.08032	787	0.15
298.15	0.18122	0.11773	779.25	0.16
298.15	0.24879	0.16162	770.85	0.16
298.15	0.30755	0.1998	764.15	0.16
298.15	0.36542	0.23739	758.06	0.16
298.15	0.42824	0.2782	752.11	0.16
298.15	0.48441	0.31469	747.28	0.16
298.15	0.54245	0.35239	742.76	0.16
298.15	0.57711	0.37491	740.32	0.16
298.15	0.59169	0.38438	739.35	0.16
298.15	0.6062	0.3938	738.6	0.16
318.15	0.03041	0.01976	785.29	0.15
318.15	0.06295	0.04089	780.03	0.16
318.15	0.12365	0.08032	770.8	0.16
318.15	0.18122	0.11773	762.74	0.16
318.15	0.24879	0.16162	754.04	0.16
318.15	0.30755	0.1998	747.16	0.16
318.15	0.36542	0.23739	740.94	0.16
318.15	0.42824	0.2782	734.88	0.17
318.15	0.48441	0.31469	730	0.17
318.15	0.54245	0.35239	725.48	0.17
318.15	0.57711	0.37491	723.1	0.17
318.15	0.59169	0.38438	722.21	0.17
318.15	0.6062	0.3938	721.58	0.17
308.15	0.03041	0.01976	793.1	0.15
308.15	0.06295	0.04089	787.95	0.15
308.15	0.12365	0.08032	778.93	0.16
308.15	0.18122	0.11773	771.01	0.16
308.15	0.24879	0.16162	762.46	0.16
308.15	0.30755	0.1998	755.66	0.16
308.15	0.36542	0.23739	749.51	0.16
308.15	0.42824	0.2782	743.5	0.16
308.15	0.48441	0.31469	738.64	0.16
308.15	0.54245	0.35239	734.11	0.16
308.15	0.57711	0.37491	731.69	0.17
308.15	0.59169	0.38438	730.75	0.17
308.15	0.6062	0.3938	730.06	0.17
328.15	0.03041	0.01976	777.38	0.16
328.15	0.06295	0.04089	772	0.16
328.15	0.12365	0.08032	762.58	0.16
328.15	0.18122	0.11773	754.36	0.16
328.15	0.24879	0.16162	745.53	0.16
328.15	0.30755	0.1998	738.56	0.16
328.15	0.36542	0.23739	732.3	0.16
328.15	0.42824	0.2782	726.21	0.17
328.15	0.48441	0.31469	721.31	0.17
328.15	0.54245	0.35239	716.83	0.17
328.15	0.57711	0.37491	714.51	0.17
328.15	0.59169	0.38438	713.68	0.17
328.15	0.6062	0.3938	713.11	0.17
298.15	0.0111	0.00277	803.68	0.15
298.15	0.0485	0.01212	796.81	0.15
298.15	0.08414	0.02102	790.56	0.15
298.15	0.15323	0.03828	779.3	0.15
298.15	0.23349	0.05833	767.46	0.16
298.15	0.31769	0.07936	756.23	0.16
298.15	0.39928	0.09974	746.47	0.16
298.15	0.48453	0.12104	737.29	0.16
298.15	0.5643	0.14097	729.61	0.17
298.15	0.63514	0.15866	723.45	0.17
298.15	0.70163	0.17527	718.18	0.17
298.15	0.77083	0.19256	713.21	0.17
298.15	0.80012	0.19988	711.48	0.17
318.15	0.0111	0.00277	788.27	0.15
318.15	0.0485	0.01212	781.21	0.16
318.15	0.08414	0.02102	774.8	0.16
318.15	0.15323	0.03828	763.25	0.16
318.15	0.23349	0.05833	751.11	0.16
318.15	0.31769	0.07936	739.62	0.16
318.15	0.39928	0.09974	729.69	0.17
318.15	0.48453	0.12104	720.41	0.17
318.15	0.5643	0.14097	712.66	0.17
318.15	0.63514	0.15866	706.47	0.17
318.15	0.70163	0.17527	701.2	0.17
318.15	0.77083	0.19256	696.33	0.17
318.15	0.80012	0.19988	694.81	0.18
308.15	0.0111	0.00277	795.99	0.15
308.15	0.0485	0.01212	789.03	0.15
308.15	0.08414	0.02102	782.69	0.15
308.15	0.15323	0.03828	771.3	0.16
308.15	0.23349	0.05833	759.3	0.16
308.15	0.31769	0.07936	747.94	0.16
308.15	0.39928	0.09974	738.09	0.16
308.15	0.48453	0.12104	728.85	0.17
308.15	0.5643	0.14097	721.13	0.17
308.15	0.63514	0.15866	714.95	0.17
308.15	0.70163	0.17527	709.68	0.17
308.15	0.77083	0.19256	704.75	0.17
308.15	0.80012	0.19988	703.11	0.17
328.15	0.0111	0.00277	780.44	0.16
328.15	0.0485	0.01212	773.29	0.16
328.15	0.08414	0.02102	766.8	0.16
328.15	0.15323	0.03828	755.09	0.16
328.15	0.23349	0.05833	742.81	0.16
328.15	0.31769	0.07936	731.21	0.17
328.15	0.39928	0.09974	721.22	0.17
328.15	0.48453	0.12104	711.89	0.17
328.15	0.5643	0.14097	704.13	0.17
328.15	0.63514	0.15866	697.94	0.18
328.15	0.70163	0.17527	692.69	0.18
328.15	0.77083	0.19256	687.93	0.18
328.15	0.80012	0.19988	686.51	0.18

System: butan-1-ol + toluene + 2,2,4-trimethylpentane; phases: Liquid
Fixed: Pressure, kPa = 101
Property: Speed of sound, m/s (Liquid); method: FPINT:WF = 
Temperature, K	Mole fraction of 2,2,4-trimethylpentane	Mole fraction of toluene	Speed of sound, m/s	uncertainty
298.15	0.01016	0.03928	1238.2	1.2
298.15	0.02095	0.08102	1236.4	1.2
298.15	0.04011	0.1551	1232.9	1.2
298.15	0.06132	0.23713	1229.2	1.2
298.15	0.08236	0.31849	1225.8	1.2
298.15	0.10293	0.39802	1223.2	1.2
298.15	0.12335	0.47698	1221.4	1.2
298.15	0.14325	0.55393	1220.9	1.2
298.15	0.16421	0.63496	1222.3	1.2
298.15	0.18561	0.71773	1226.4	1.2
298.15	0.19621	0.75872	1230.8	1.2
298.15	0.20547	0.79453	1235.8	1.2
318.15	0.01016	0.03928	1170.2	1.2
318.15	0.02095	0.08102	1167	1.2
318.15	0.04011	0.1551	1161.3	1.2
318.15	0.06132	0.23713	1155.3	1.2
318.15	0.08236	0.31849	1150	1.2
318.15	0.10293	0.39802	1145.9	1.2
318.15	0.12335	0.47698	1142.9	1.2
318.15	0.14325	0.55393	1141.5	1.2
318.15	0.16421	0.63496	1142.1	1.2
318.15	0.18561	0.71773	1145.4	1.2
318.15	0.19621	0.75872	1149.3	1.2
318.15	0.20547	0.79453	1151.9	1.2
308.15	0.01016	0.03928	1204.1	1.2
308.15	0.02095	0.08102	1201.6	1.2
308.15	0.04011	0.1551	1196.9	1.2
308.15	0.06132	0.23713	1192.1	1.2
308.15	0.08236	0.31849	1187.8	1.2
308.15	0.10293	0.39802	1184.4	1.2
308.15	0.12335	0.47698	1182	1.2
308.15	0.14325	0.55393	1180.9	1.2
308.15	0.16421	0.63496	1181.9	1.2
308.15	0.18561	0.71773	1185.7	1.2
308.15	0.19621	0.75872	1190	1.2
308.15	0.20547	0.79453	1193.6	1.2
328.15	0.01016	0.03928	1136.6	1.2
328.15	0.02095	0.08102	1132.6	1.2
328.15	0.04011	0.1551	1125.9	1.2
328.15	0.06132	0.23713	1118.9	1.2
328.15	0.08236	0.31849	1112.9	1.2
328.15	0.10293	0.39802	1108.1	1.2
328.15	0.12335	0.47698	1104.6	1.2
328.15	0.14325	0.55393	1102.8	1.2
328.15	0.16421	0.63496	1102.9	1.2
328.15	0.18561	0.71773	1105.9	1.2
328.15	0.19621	0.75872	1109.2	1.2
328.15	0.20547	0.79453	1110.8	1.2
298.15	0.02034	0.03013	1234.4	1.2
298.15	0.04055	0.06007	1229.2	1.2
298.15	0.08106	0.12007	1218.8	1.2
298.15	0.11786	0.17458	1210.1	1.2
298.15	0.1619	0.23982	1200.5	1.2
298.15	0.20293	0.30059	1192.9	1.2
298.15	0.24158	0.35784	1187	1.2
298.15	0.28308	0.41931	1182.2	1.2
298.15	0.32437	0.48048	1179.5	1.2
298.15	0.36674	0.54324	1179.4	1.2
298.15	0.38689	0.57308	1181.4	1.2
298.15	0.40302	0.59698	1184.2	1.2
318.15	0.02034	0.03013	1166.3	1.2
318.15	0.04055	0.06007	1159.6	1.2
318.15	0.08106	0.12007	1146.8	1.2
318.15	0.11786	0.17458	1136	1.2
318.15	0.1619	0.23982	1124.4	1.2
318.15	0.20293	0.30059	1115.2	1.2
318.15	0.24158	0.35784	1108.2	1.2
318.15	0.28308	0.41931	1102.4	1.2
318.15	0.32437	0.48048	1099	1.2
318.15	0.36674	0.54324	1098.2	1.2
318.15	0.38689	0.57308	1100	1.2
318.15	0.40302	0.59698	1100.9	1.2
308.15	0.02034	0.03013	1200.3	1.2
308.15	0.04055	0.06007	1194.3	1.2
308.15	0.08106	0.12007	1182.7	1.2
308.15	0.11786	0.17458	1172.9	1.2
308.15	0.1619	0.23982	1162.3	1.2
308.15	0.20293	0.30059	1153.9	1.2
308.15	0.24158	0.35784	1147.4	1.2
308.15	0.28308	0.41931	1142.1	1.2
308.15	0.32437	0.48048	1138.9	1.2
308.15	0.36674	0.54324	1138.5	1.2
308.15	0.38689	0.57308	1140.5	1.2
308.15	0.40302	0.59698	1142.3	1.2
328.15	0.02034	0.03013	1132.6	1.2
328.15	0.04055	0.06007	1125.3	1.2
328.15	0.08106	0.12007	1111.2	1.2
328.15	0.11786	0.17458	1099.5	1.2
328.15	0.1619	0.23982	1087.1	1.2
328.15	0.20293	0.30059	1077.2	1.2
328.15	0.24158	0.35784	1069.7	1.2
328.15	0.28308	0.41931	1063.5	1.2
328.15	0.32437	0.48048	1059.9	1.2
328.15	0.36674	0.54324	1058.5	1.2
328.15	0.38689	0.57308	1059.8	1.2
328.15	0.40302	0.59698	1060.1	1.2
298.15	0.03041	0.01976	1230.9	1.2
298.15	0.06295	0.04089	1221.5	1.2
298.15	0.12365	0.08032	1205	1.2
298.15	0.18122	0.11773	1191.6	1.2
298.15	0.24879	0.16162	1176.4	1.2
298.15	0.30755	0.1998	1165.5	1.2
298.15	0.36542	0.23739	1156.6	1.3
298.15	0.42824	0.2782	1148.8	1.2
298.15	0.48441	0.31469	1143.9	1.2
298.15	0.54245	0.35239	1140.6	1.2
298.15	0.57711	0.37491	1140.3	1.2
298.15	0.59169	0.38438	1141	1.2
298.15	0.6062	0.3938	1142.4	1.2
318.15	0.03041	0.01976	1162.7	1.2
318.15	0.06295	0.04089	1151.7	1.2
318.15	0.12365	0.08032	1132.5	1.2
318.15	0.18122	0.11773	1116.3	1.2
318.15	0.24879	0.16162	1099.7	1.2
318.15	0.30755	0.1998	1087.5	1.2
318.15	0.36542	0.23739	1077.4	1.2
318.15	0.42824	0.2782	1068.7	1.2
318.15	0.48441	0.31469	1062.9	1.2
318.15	0.54245	0.35239	1059	1.2
318.15	0.57711	0.37491	1058.7	1.2
318.15	0.59169	0.38438	1059.3	1.2
318.15	0.6062	0.3938	1059.3	1.2
308.15	0.03041	0.01976	1196.7	1.2
308.15	0.06295	0.04089	1186.5	1.2
308.15	0.12365	0.08032	1168.7	1.2
308.15	0.18122	0.11773	1153.5	1.2
308.15	0.24879	0.16162	1137.9	1.2
308.15	0.30755	0.1998	1126.3	1.2
308.15	0.36542	0.23739	1116.7	1.2
308.15	0.42824	0.2782	1108.5	1.2
308.15	0.48441	0.31469	1103.2	1.2
308.15	0.54245	0.35239	1099.5	1.2
308.15	0.57711	0.37491	1099.3	1.2
308.15	0.59169	0.38438	1100	1.2
308.15	0.6062	0.3938	1100.5	1.2
328.15	0.03041	0.01976	1129	1.2
328.15	0.06295	0.04089	1117.1	1.2
328.15	0.12365	0.08032	1096.8	1.2
328.15	0.18122	0.11773	1079.6	1.2
328.15	0.24879	0.16162	1062	1.2
328.15	0.30755	0.1998	1049.2	1.2
328.15	0.36542	0.23739	1038.7	1.2
328.15	0.42824	0.2782	1029.5	1.2
328.15	0.48441	0.31469	1023.4	1.2
328.15	0.54245	0.35239	1019.3	1.2
328.15	0.57711	0.37491	1018.7	1.2
328.15	0.59169	0.38438	1018.9	1.2
328.15	0.6062	0.3938	1018.7	1.2
298.15	0.0111	0.00277	1236.4	1.2
298.15	0.0485	0.01212	1224.8	1.2
298.15	0.08414	0.02102	1214.1	1.2
298.15	0.15323	0.03828	1195.3	1.2
298.15	0.23349	0.05833	1175.9	1.2
298.15	0.31769	0.07936	1158.3	1.2
298.15	0.39928	0.09974	1144	1.2
298.15	0.48453	0.12104	1131.6	1.2
298.15	0.5643	0.14097	1122.3	1.2
298.15	0.63514	0.15866	1116	1.2
298.15	0.70163	0.17527	1111.4	1.2
298.15	0.77083	0.19256	1108.8	1.2
298.15	0.80012	0.19988	1110	1.2
318.15	0.0111	0.00277	1169.3	1.2
318.15	0.0485	0.01212	1156.2	1.2
318.15	0.08414	0.02102	1144.2	1.2
318.15	0.15323	0.03828	1122.9	1.2
318.15	0.23349	0.05833	1101.1	1.2
318.15	0.31769	0.07936	1081.5	1.2
318.15	0.39928	0.09974	1065.5	1.2
318.15	0.48453	0.12104	1051.9	1.2
318.15	0.5643	0.14097	1041.8	1.2
318.15	0.63514	0.15866	1034.6	1.2
318.15	0.70163	0.17527	1029.5	1.2
318.15	0.77083	0.19256	1026.8	1.2
318.15	0.80012	0.19988	1027.2	1.2
308.15	0.0111	0.00277	1202.8	1.2
308.15	0.0485	0.01212	1190.4	1.2
308.15	0.08414	0.02102	1179.1	1.2
308.15	0.15323	0.03828	1159	1.2
308.15	0.23349	0.05833	1138.3	1.2
308.15	0.31769	0.07936	1119.8	1.2
308.15	0.39928	0.09974	1104.6	1.2
308.15	0.48453	0.12104	1091.6	1.2
308.15	0.5643	0.14097	1081.8	1.2
308.15	0.63514	0.15866	1075	1.2
308.15	0.70163	0.17527	1070.2	1.2
308.15	0.77083	0.19256	1067.6	1.2
308.15	0.80012	0.19988	1068.4	1.2
328.15	0.0111	0.00277	1136.1	1.2
328.15	0.0485	0.01212	1122.3	1.2
328.15	0.08414	0.02102	1109.6	1.2
328.15	0.15323	0.03828	1087.1	1.2
328.15	0.23349	0.05833	1064.3	1.2
328.15	0.31769	0.07936	1043.7	1.2
328.15	0.39928	0.09974	1027.2	1.2
328.15	0.48453	0.12104	1013	1.2
328.15	0.5643	0.14097	1002.4	1.2
328.15	0.63514	0.15866	994.9	1.2
328.15	0.70163	0.17527	989.6	1.2
328.15	0.77083	0.19256	986.8	1.2
328.15	0.80012	0.19988	986.7	1.2

System: toluene + 2,2,4-trimethylpentane; phases: Liquid
Fixed: Pressure, kPa = 101
Property: Mass density, kg/m3 (Liquid); method: Vibrating tube method
Temperature, K	Mole fraction of 2,2,4-trimethylpentane	Mass density, kg/m3	uncertainty
298.15	0.20547	811.87	0.14
318.15	0.20547	793.92	0.15
308.15	0.20547	802.88	0.15
328.15	0.20547	784.96	0.15
298.15	0.40302	772.32	0.15
318.15	0.40302	754.88	0.16
308.15	0.40302	763.58	0.16
328.15	0.40302	746.18	0.16
298.15	0.6062	738.6	0.16
318.15	0.6062	721.58	0.17
308.15	0.6062	730.06	0.17
328.15	0.6062	713.11	0.17
298.15	0.80012	711.48	0.17
318.15	0.80012	694.81	0.18
308.15	0.80012	703.11	0.17
328.15	0.80012	686.51	0.18

System: toluene + 2,2,4-trimethylpentane; phases: Liquid
Fixed: Pressure, kPa = 101
Property: Speed of sound, m/s (Liquid); method: FPINT:WF = 
Temperature, K	Mole fraction of 2,2,4-trimethylpentane	Speed of sound, m/s	uncertainty
298.15	0.20547	1235.8	1.2
318.15	0.20547	1151.9	1.2
308.15	0.20547	1193.6	1.2
328.15	0.20547	1110.8	1.2
298.15	0.40302	1184.2	1.2
318.15	0.40302	1100.9	1.2
308.15	0.40302	1142.3	1.2
328.15	0.40302	1060.1	1.2
298.15	0.6062	1142.4	1.2
318.15	0.6062	1059.3	1.2
308.15	0.6062	1100.5	1.2
328.15	0.6062	1018.7	1.2
298.15	0.80012	1110	1.2
318.15	0.80012	1027.2	1.2
308.15	0.80012	1068.4	1.2
328.15	0.80012	986.7	1.2
