Measured thermophysical data. Standard molar enthalpies of formation of 3'- and 4'-nitroacetophenones
Source: J. Chem. Thermodyn., 2011, 10.1016/j.jct.2011.01.006
Compound 1: carbon dioxide, CO2, InChI=1S/CO2/c2-1-3
Compound 2: nitrogen, N2, InChI=1S/N2/c1-2
Compound 3: water, H2O, InChI=1S/H2O/h1H2
Compound 4: oxygen, O2, InChI=1S/O2/c1-2
Compound 5: graphite, C
Compound 6: hydrogen, H2, InChI=1S/H2/h1H
Compound 7: 1-(3-nitrophenyl)ethanone, C8H7NO3, InChI=1S/C8H7NO3/c1-6(10)7-3-2-4-8(5-7)9(11)12/h2-5H,1H3
Compound 8: 1-(4-nitrophenyl)ethanone, C8H7NO3, InChI=1S/C8H7NO3/c1-6(10)7-2-4-8(5-3-7)9(11)12/h2-5H,1H3

System: 1-(3-nitrophenyl)ethanone; phases: Crystal, Gas
Property: Molar enthalpy of vaporization or sublimation, kJ/mol (Crystal); method: Ebulliometric method (Recirculating still)
Temperature, K	Molar enthalpy of vaporization or sublimation, kJ/mol	uncertainty
298.15	99.1	0.9

System: 1-(3-nitrophenyl)ethanone; phases: Crystal, Gas
Property: Vapor or sublimation pressure, kPa (Crystal); method: Calculated from knudsen effusion weight loss
Temperature, K	Vapor or sublimation pressure, kPa	uncertainty
300.2	7e-05	4e-06
300.2	6.8e-05	3e-06
300.2	6.6e-05	3e-06
302.18	8.8e-05	4e-06
302.18	8.9e-05	4e-06
302.18	8.8e-05	4e-06
304.08	0.000113	6e-06
304.08	0.000113	6e-06
304.08	0.000115	6e-06
306.2	0.000152	8e-06
306.2	0.000149	7e-06
306.2	0.000148	7e-06
308.16	0.000192	1e-05
308.16	0.000191	1e-05
308.16	0.000189	9e-06
310.08	0.000238	1.2e-05
310.08	0.000241	1.2e-05
310.08	0.000249	1.2e-05
312.19	0.000321	1.6e-05
312.19	0.000305	1.5e-05
312.19	0.000302	1.5e-05
314.15	0.000404	2e-05
314.15	0.000392	2e-05
314.15	0.000387	1.9e-05
316.08	0.000499	2.5e-05
316.08	0.000491	2.5e-05
316.08	0.00049	2.5e-05
318.18	0.000669	3.4e-05
318.18	0.000628	3.1e-05
318.18	0.000621	3.1e-05
320.15	0.000817	4.1e-05
320.15	0.000801	4e-05
320.15	0.00079	4e-05
322.08	0.001007	0.000101
322.08	0.001	5e-05
322.08	0.000997	5e-05

System: 1-(4-nitrophenyl)ethanone; phases: Crystal, Gas
Property: Molar enthalpy of vaporization or sublimation, kJ/mol (Crystal); method: Ebulliometric method (Recirculating still)
Temperature, K	Molar enthalpy of vaporization or sublimation, kJ/mol	uncertainty
298.15	97	1.1

System: 1-(4-nitrophenyl)ethanone; phases: Crystal, Gas
Property: Vapor or sublimation pressure, kPa (Crystal); method: Calculated from knudsen effusion weight loss
Temperature, K	Vapor or sublimation pressure, kPa	uncertainty
302.19	9.1e-05	5e-06
302.19	9e-05	5e-06
304.15	0.000121	6e-06
304.15	0.000119	6e-06
304.15	0.000118	6e-06
306.07	0.000149	7e-06
306.07	0.000156	8e-06
306.07	0.000151	8e-06
306.19	0.000151	8e-06
306.19	0.000147	7e-06
306.19	0.000148	7e-06
308.16	0.000192	1e-05
308.16	0.000193	1e-05
308.16	0.00019	1e-05
310.07	0.000239	1.2e-05
310.07	0.000235	1.2e-05
310.07	0.000243	1.2e-05
312.19	0.000329	1.6e-05
312.19	0.000306	1.5e-05
312.19	0.000304	1.5e-05
314.16	0.000402	2e-05
314.16	0.000397	2e-05
314.16	0.000392	2e-05
316.07	0.000494	2.5e-05
316.07	0.000502	2.5e-05
316.07	0.000503	2.5e-05
318.18	0.000657	3.3e-05
318.18	0.000619	3.1e-05
318.18	0.000617	3.1e-05
320.13	0.000795	4e-05
320.13	0.000792	4e-05
320.13	0.00078	3.9e-05
322.06	0.00096	4.8e-05
322.06	0.000984	4.9e-05
322.06	0.000991	5e-05

Reaction: -1 1-(3-nitrophenyl)ethanone + 8 carbon dioxide + .5 nitrogen + 3.5 water + -8.25 oxygen
Property: Specific internal energy of reaction at constant volume, J/g
-23921

Reaction: -1 1-(4-nitrophenyl)ethanone + 8 carbon dioxide + .5 nitrogen + 3.5 water + -8.25 oxygen
Property: Specific internal energy of reaction at constant volume, J/g
-23936.3

Reaction: 1 1-(3-nitrophenyl)ethanone + -8 graphite + -3.5 hydrogen + -.5 nitrogen + -1.5 oxygen
Property: Molar enthalpy of reaction, kJ/mol
-198.5

Reaction: 1 1-(3-nitrophenyl)ethanone + -8 graphite + -3.5 hydrogen + -.5 nitrogen + -1.5 oxygen
Property: Molar enthalpy of reaction, kJ/mol
-99.4

Reaction: 1 1-(4-nitrophenyl)ethanone + -8 graphite + -3.5 hydrogen + -.5 nitrogen + -1.5 oxygen
Property: Molar enthalpy of reaction, kJ/mol
-196.1

Reaction: 1 1-(4-nitrophenyl)ethanone + -8 graphite + -3.5 hydrogen + -.5 nitrogen + -1.5 oxygen
Property: Molar enthalpy of reaction, kJ/mol
-99.1
