Measured thermophysical data. High pressure speed of sound and density of (decalin + n-decane), (decalin + n-hexadecane) and (n-decane + n-hexadecane) systems and thermodynamic modeling with PHCT equation of state
Source: J. Chem. Thermodyn., 2016, 10.1016/j.jct.2015.12.002
Compound 1: cis-decahydronaphthalene, C10H18, InChI=1S/C10H18/c1-2-6-10-8-4-3-7-9(10)5-1/h9-10H,1-8H2/t9-,10+, purity 99%
Compound 2: trans-decahydronaphthalene, C10H18, InChI=1S/C10H18/c1-2-6-10-8-4-3-7-9(10)5-1/h9-10H,1-8H2/t9-,10-, purity 99%
Compound 3: decane, C10H22, InChI=1S/C10H22/c1-3-5-7-9-10-8-6-4-2/h3-10H2,1-2H3, purity 99%
Compound 4: hexadecane, C16H34, InChI=1S/C16H34/c1-3-5-7-9-11-13-15-16-14-12-10-8-6-4-2/h3-16H2,1-2H3, purity 99%

System: decane + cis-decahydronaphthalene + trans-decahydronaphthalene; phases: Liquid
Fixed: Pressure, kPa = 100
Fixed: Solvent: Mole fraction of cis-decahydronaphthalene = 0.4116
Property: Mass density, kg/m3 (Liquid); method: Vibrating tube method
Temperature, K	Mole fraction of decane	Mass density, kg/m3	uncertainty
313.15	0.75	747.45	2.68
323.15	0.75	739.83	2.68
333.15	0.75	732.16	2.69
313.15	0.5001	783.11	2.2
323.15	0.5001	775.54	2.21
333.15	0.5001	767.92	2.21
313.15	0.2369	824.38	1.79
323.15	0.2369	816.84	1.79
333.15	0.2369	809.27	1.79
313.15	0	865.43	1.61
323.15	0	857.89	1.61
333.15	0	850.33	1.61

System: decane + cis-decahydronaphthalene + trans-decahydronaphthalene; phases: Liquid
Fixed: Solvent: Mole fraction of cis-decahydronaphthalene = 0.4116
Fixed: Frequency, MHz = 4
Property: Speed of sound, m/s (Liquid); method: Single path-length method
Pressure, kPa	Temperature, K	Mole fraction of decane	Speed of sound, m/s	uncertainty
100	313.15	0.75	1209	4
100	323.15	0.75	1170	4
100	333.15	0.75	1131	4
100	313.15	0.5001	1245	3
100	323.15	0.5001	1206	3
100	333.15	0.5001	1168	3
100	313.15	0.2369	1292	3
100	323.15	0.2369	1253	3
100	333.15	0.2369	1215	3
100	313.15	0	1339	3
100	323.15	0	1300	3
100	333.15	0	1261	3
5000	313.15	0	1365	3
10000	313.15	0	1389	3
15000	313.15	0	1414	3
20000	313.15	0	1437	3
25000	313.15	0	1461	3
5000	323.15	0	1327	3
10000	323.15	0	1353	3
15000	323.15	0	1377	3
20000	323.15	0	1401	3
25000	323.15	0	1424	3
5000	333.15	0	1289	3
10000	333.15	0	1316	3
15000	333.15	0	1341	3
20000	333.15	0	1365	3
25000	333.15	0	1389	3
5000	313.15	0.75	1241	3
10000	313.15	0.75	1270	3
15000	313.15	0.75	1299	3
20000	313.15	0.75	1326	3
25000	313.15	0.75	1352	3
5000	323.15	0.75	1202	3
10000	323.15	0.75	1234	3
15000	323.15	0.75	1265	3
20000	323.15	0.75	1292	3
25000	323.15	0.75	1320	3
5000	333.15	0.75	1166	4
10000	333.15	0.75	1199	3
15000	333.15	0.75	1230	3
20000	333.15	0.75	1260	3
25000	333.15	0.75	1286	3
5000	313.15	0.5001	1274	3
10000	313.15	0.5001	1304	3
15000	313.15	0.5001	1331	3
20000	313.15	0.5001	1357	3
25000	313.15	0.5001	1382	3
5000	323.15	0.5001	1238	3
10000	323.15	0.5001	1268	3
15000	323.15	0.5001	1297	3
20000	323.15	0.5001	1322	3
25000	323.15	0.5001	1347	3
5000	333.15	0.5001	1201	3
10000	333.15	0.5001	1232	3
15000	333.15	0.5001	1261	3
20000	333.15	0.5001	1289	3
25000	333.15	0.5001	1315	3
5000	313.15	0.2369	1320	3
10000	313.15	0.2369	1346	3
15000	313.15	0.2369	1371	3
20000	313.15	0.2369	1395	3
25000	313.15	0.2369	1420	3
5000	323.15	0.2369	1282	3
10000	323.15	0.2369	1311	3
15000	323.15	0.2369	1336	3
20000	323.15	0.2369	1361	3
25000	323.15	0.2369	1385	3
5000	333.15	0.2369	1244	3
10000	333.15	0.2369	1273	3
15000	333.15	0.2369	1300	3
20000	333.15	0.2369	1328	3
25000	333.15	0.2369	1351	3

System: cis-decahydronaphthalene + trans-decahydronaphthalene + hexadecane; phases: Liquid
Fixed: Pressure, kPa = 100
Fixed: Solvent: Mole fraction of cis-decahydronaphthalene = 0.4116
Property: Mass density, kg/m3 (Liquid); method: Vibrating tube method
Temperature, K	Mole fraction of hexadecane	Mass density, kg/m3	uncertainty
313.15	0.7501	775.48	2.04
323.15	0.7501	768.52	2.04
333.15	0.7501	761.53	2.03
313.15	0.4997	796.31	1.89
323.15	0.4997	789.26	1.89
333.15	0.4997	782.18	1.89
313.15	0.2492	824.73	1.76
323.15	0.2492	817.5	1.75
333.15	0.2492	810.27	1.75
313.15	0	865.43	1.61
323.15	0	857.89	1.61
333.15	0	850.33	1.61

System: cis-decahydronaphthalene + trans-decahydronaphthalene + hexadecane; phases: Liquid
Fixed: Solvent: Mole fraction of cis-decahydronaphthalene = 0.4116
Fixed: Frequency, MHz = 4
Property: Speed of sound, m/s (Liquid); method: Single path-length method
Pressure, kPa	Temperature, K	Mole fraction of hexadecane	Speed of sound, m/s	uncertainty
100	313.15	0.7501	1290	3
100	323.15	0.7501	1254	3
100	333.15	0.7501	1217	3
100	313.15	0.4997	1297	3
100	323.15	0.4997	1262	3
100	333.15	0.4997	1225	3
100	313.15	0.2492	1311	3
100	323.15	0.2492	1272	3
100	333.15	0.2492	1235	3
5000	313.15	0.7501	1318	3
10000	313.15	0.7501	1346	3
15000	313.15	0.7501	1373	3
20000	313.15	0.7501	1398	3
25000	313.15	0.7501	1422	3
5000	323.15	0.7501	1284	3
10000	323.15	0.7501	1312	3
15000	323.15	0.7501	1340	3
20000	323.15	0.7501	1365	3
25000	323.15	0.7501	1390	3
5000	333.15	0.7501	1248	3
10000	333.15	0.7501	1278	3
15000	333.15	0.7501	1305	3
20000	333.15	0.7501	1330	3
25000	333.15	0.7501	1356	3
5000	313.15	0.4997	1325	3
10000	313.15	0.4997	1352	3
15000	313.15	0.4997	1379	3
20000	313.15	0.4997	1403	3
25000	313.15	0.4997	1427	3
5000	323.15	0.4997	1291	3
10000	323.15	0.4997	1318	3
15000	323.15	0.4997	1346	3
20000	323.15	0.4997	1371	3
25000	323.15	0.4997	1395	3
5000	333.15	0.4997	1256	3
10000	333.15	0.4997	1284	3
15000	333.15	0.4997	1311	3
20000	333.15	0.4997	1338	3
25000	333.15	0.4997	1363	3
5000	313.15	0.2492	1338	3
10000	313.15	0.2492	1363	3
15000	313.15	0.2492	1388	3
20000	313.15	0.2492	1412	3
25000	313.15	0.2492	1435	3
5000	323.15	0.2492	1300	3
10000	323.15	0.2492	1328	3
15000	323.15	0.2492	1354	3
20000	323.15	0.2492	1378	3
25000	323.15	0.2492	1402	3
5000	333.15	0.2492	1263	3
10000	333.15	0.2492	1293	3
15000	333.15	0.2492	1319	3
20000	333.15	0.2492	1344	3
25000	333.15	0.2492	1369	3
100	313.15	0	1339	3
100	323.15	0	1300	3
100	333.15	0	1261	3
5000	313.15	0	1365	3
10000	313.15	0	1389	3
15000	313.15	0	1414	3
20000	313.15	0	1437	3
25000	313.15	0	1461	3
5000	323.15	0	1327	3
10000	323.15	0	1353	3
15000	323.15	0	1377	3
20000	323.15	0	1401	3
25000	323.15	0	1424	3
5000	333.15	0	1289	3
10000	333.15	0	1316	3
15000	333.15	0	1341	3
20000	333.15	0	1365	3
25000	333.15	0	1389	3

System: decane + hexadecane; phases: Liquid
Fixed: Pressure, kPa = 100
Property: Mass density, kg/m3 (Liquid); method: Vibrating tube method
Temperature, K	Mole fraction of decane	Mass density, kg/m3	uncertainty
313.15	0.2517	751.56	1.63
323.15	0.2517	744.53	1.63
333.15	0.2517	737.49	1.63
313.15	0.5013	741.95	1.67
323.15	0.5013	734.76	1.67
333.15	0.5013	727.55	1.68
313.15	0.75	730.08	1.77
323.15	0.75	722.68	1.77
333.15	0.75	715.24	1.78

System: decane + hexadecane; phases: Liquid
Fixed: Frequency, MHz = 4
Property: Speed of sound, m/s (Liquid); method: Single path-length method
Pressure, kPa	Temperature, K	Mole fraction of decane	Speed of sound, m/s	uncertainty
100	313.15	0.2517	1264	3
100	323.15	0.2517	1227	3
100	333.15	0.2517	1191	3
100	313.15	0.5013	1236	3
100	323.15	0.5013	1200	3
100	333.15	0.5013	1166	3
100	313.15	0.75	1213	3
100	323.15	0.75	1176	3
100	333.15	0.75	1136	3
5000	313.15	0.2517	1294	3
10000	313.15	0.2517	1324	3
15000	313.15	0.2517	1351	3
20000	313.15	0.2517	1377	3
25000	313.15	0.2517	1401	3
5000	323.15	0.2517	1258	3
10000	323.15	0.2517	1288	3
15000	323.15	0.2517	1317	3
20000	323.15	0.2517	1345	3
25000	323.15	0.2517	1370	3
5000	333.15	0.2517	1224	3
10000	333.15	0.2517	1255	3
15000	333.15	0.2517	1283	3
20000	333.15	0.2517	1311	3
25000	333.15	0.2517	1336	3
5000	313.15	0.5013	1268	3
10000	313.15	0.5013	1298	3
15000	313.15	0.5013	1327	3
20000	313.15	0.5013	1354	3
25000	313.15	0.5013	1379	3
5000	323.15	0.5013	1232	3
10000	323.15	0.5013	1264	3
15000	323.15	0.5013	1293	3
20000	323.15	0.5013	1321	3
25000	323.15	0.5013	1347	3
5000	333.15	0.5013	1197	3
10000	333.15	0.5013	1231	3
15000	333.15	0.5013	1259	3
20000	333.15	0.5013	1290	3
25000	333.15	0.5013	1315	3
5000	313.15	0.75	1245	3
10000	313.15	0.75	1275	3
15000	313.15	0.75	1304	3
20000	313.15	0.75	1332	3
25000	313.15	0.75	1358	3
5000	323.15	0.75	1208	3
10000	323.15	0.75	1240	3
15000	323.15	0.75	1270	3
20000	323.15	0.75	1298	3
25000	323.15	0.75	1326	3
5000	333.15	0.75	1171	3
10000	333.15	0.75	1204	3
15000	333.15	0.75	1236	3
20000	333.15	0.75	1265	3
25000	333.15	0.75	1293	3

System: cis-decahydronaphthalene + trans-decahydronaphthalene; phases: Liquid
Fixed: Pressure, kPa = 100
Fixed: Mole fraction of cis-decahydronaphthalene = 0.4116
Property: Mass density, kg/m3 (Liquid); method: Vibrating tube method
Temperature, K	Mass density, kg/m3	uncertainty
313.15	865.43	1.77
323.15	857.89	1.76
333.15	850.33	1.76

System: cis-decahydronaphthalene + trans-decahydronaphthalene; phases: Liquid
Fixed: Mole fraction of cis-decahydronaphthalene = 0.4116
Fixed: Frequency, MHz = 4
Property: Speed of sound, m/s (Liquid); method: Single path-length method
Pressure, kPa	Temperature, K	Speed of sound, m/s	uncertainty
100	313.15	1339	3
100	323.15	1300	3
100	333.15	1261	3
5000	313.15	1365	3
10000	313.15	1389	3
15000	313.15	1414	3
20000	313.15	1437	3
25000	313.15	1461	3
5000	323.15	1327	3
10000	323.15	1353	3
15000	323.15	1377	3
20000	323.15	1401	3
25000	323.15	1424	3
5000	333.15	1289	3
10000	333.15	1316	3
15000	333.15	1341	3
20000	333.15	1365	3
25000	333.15	1389	3
