Measured thermophysical data. Thermodynamic study on levulinic acid in NaCl, (C2H5)4NI and mixed MgCl2/NaCl and CaCl2/NaCl aqueous solutions at T = 298.15 K
Source: J. Chem. Thermodyn., 2019, 10.1016/j.jct.2019.07.012
Compound 1: 4-oxopentanoic acid, C5H8O3, InChI=1S/C5H8O3/c1-4(6)2-3-5(7)8/h2-3H2,1H3,(H,7,8), purity 98%
Compound 2: 2-methyl-1-propanol, C4H10O, InChI=1S/C4H10O/c1-4(2)3-5/h4-5H,3H2,1-2H3, purity 99%
Compound 3: water, H2O, InChI=1S/H2O/h1H2, purity 99.9%

System: 4-oxopentanoic acid + 2-methyl-1-propanol + water; phases: Liquid, Liquid
Fixed: Pressure, kPa = 101.3
Fixed: Temperature, K = 298.15
Property: Amount concentration (molarity), mol/dm3 of 4-oxopentanoic acid (Liquid); method: potentiometric titration
Amount concentration (molarity), mol/dm3 of 4-oxopentanoic acid	Amount concentration (molarity), mol/dm3 of 4-oxopentanoic acid	uncertainty
0.00451	0.00807	0.00234
0.03722	0.06928	0.01965
