Measured thermophysical data. Dielectric study of H-bonded interactions in amyl alcohols with ketones and DMSO at T = 298.15 K
Source: J. Chem. Thermodyn., 2017, 10.1016/j.jct.2017.06.020
Compound 1: acetone, C3H6O, InChI=1S/C3H6O/c1-3(2)4/h1-2H3, purity 99.8%
Compound 2: butanone, C4H8O, InChI=1S/C4H8O/c1-3-4(2)5/h3H2,1-2H3, purity 99.5%
Compound 3: acetophenone, C8H8O, InChI=1S/C8H8O/c1-7(9)8-5-3-2-4-6-8/h2-6H,1H3, purity 98%
Compound 4: dimethyl sulfoxide, C2H6OS, InChI=1S/C2H6OS/c1-4(2)3/h1-2H3, purity 99%
Compound 5: pentan-1-ol, C5H12O, InChI=1S/C5H12O/c1-2-3-4-5-6/h6H,2-5H2,1H3, purity 99%
Compound 6: 3-methylbutan-1-ol, C5H12O, InChI=1S/C5H12O/c1-5(2)3-4-6/h5-6H,3-4H2,1-2H3, purity 99%
Compound 7: cyclohexane, C6H12, InChI=1S/C6H12/c1-2-4-6-5-3-1/h1-6H2, purity 99.9%

System: acetone; phases: Liquid
Property: Mass density, kg/m3 (Liquid); method: Vibrating tube method
Temperature, K	Pressure, kPa	Mass density, kg/m3	uncertainty
298.15	101.3	784.42	3.14

System: acetone; phases: Liquid
Property: Relative permittivity at various frequencies (Liquid); method: Coaxial cylinder capacitor
Temperature, K	Pressure, kPa	Frequency, MHz	Relative permittivity at various frequencies	uncertainty
298.15	101.3	0.01	20.69	0.04

System: acetone; phases: Liquid
Property: Refractive index (Na D-line) (Liquid); method: Standard Abbe refractometry
Temperature, K	Pressure, kPa	Refractive index (Na D-line)	uncertainty
298.15	101.3	1.3564	0.001

System: butanone; phases: Liquid
Property: Mass density, kg/m3 (Liquid); method: Vibrating tube method
Temperature, K	Pressure, kPa	Mass density, kg/m3	uncertainty
298.15	101.3	799.75	3.2

System: butanone; phases: Liquid
Property: Relative permittivity at various frequencies (Liquid); method: Coaxial cylinder capacitor
Temperature, K	Pressure, kPa	Frequency, MHz	Relative permittivity at various frequencies	uncertainty
298.15	101.3	0.01	18.38	0.04

System: butanone; phases: Liquid
Property: Refractive index (Na D-line) (Liquid); method: Standard Abbe refractometry
Temperature, K	Pressure, kPa	Refractive index (Na D-line)	uncertainty
298.15	101.3	1.376	0.001

System: acetophenone; phases: Liquid
Property: Mass density, kg/m3 (Liquid); method: Vibrating tube method
Temperature, K	Pressure, kPa	Mass density, kg/m3	uncertainty
298.15	101.3	1022.77	4.17

System: acetophenone; phases: Liquid
Property: Relative permittivity at various frequencies (Liquid); method: Coaxial cylinder capacitor
Temperature, K	Pressure, kPa	Frequency, MHz	Relative permittivity at various frequencies	uncertainty
298.15	101.3	0.01	17.51	0.04

System: acetophenone; phases: Liquid
Property: Refractive index (Na D-line) (Liquid); method: Standard Abbe refractometry
Temperature, K	Pressure, kPa	Refractive index (Na D-line)	uncertainty
298.15	101.3	1.5318	0.0011

System: dimethyl sulfoxide; phases: Liquid
Property: Mass density, kg/m3 (Liquid); method: Vibrating tube method
Temperature, K	Pressure, kPa	Mass density, kg/m3	uncertainty
298.15	101.3	1096.07	4.39

System: dimethyl sulfoxide; phases: Liquid
Property: Relative permittivity at various frequencies (Liquid); method: Coaxial cylinder capacitor
Temperature, K	Pressure, kPa	Frequency, MHz	Relative permittivity at various frequencies	uncertainty
298.15	101.3	0.01	46.71	0.04

System: dimethyl sulfoxide; phases: Liquid
Property: Refractive index (Na D-line) (Liquid); method: Standard Abbe refractometry
Temperature, K	Pressure, kPa	Refractive index (Na D-line)	uncertainty
298.15	101.3	1.4767	0.0011

System: pentan-1-ol; phases: Liquid
Property: Mass density, kg/m3 (Liquid); method: Vibrating tube method
Temperature, K	Pressure, kPa	Mass density, kg/m3	uncertainty
298.15	101.3	811.1	3.25

System: pentan-1-ol; phases: Liquid
Property: Relative permittivity at various frequencies (Liquid); method: Coaxial cylinder capacitor
Temperature, K	Pressure, kPa	Frequency, MHz	Relative permittivity at various frequencies	uncertainty
298.15	101.3	0.01	15.12	0.04

System: pentan-1-ol; phases: Liquid
Property: Refractive index (Na D-line) (Liquid); method: Standard Abbe refractometry
Temperature, K	Pressure, kPa	Refractive index (Na D-line)	uncertainty
298.15	101.3	1.4082	0.0011

System: 3-methylbutan-1-ol; phases: Liquid
Property: Mass density, kg/m3 (Liquid); method: Vibrating tube method
Temperature, K	Pressure, kPa	Mass density, kg/m3	uncertainty
298.15	101.3	807.16	3.24

System: 3-methylbutan-1-ol; phases: Liquid
Property: Relative permittivity at various frequencies (Liquid); method: Coaxial cylinder capacitor
Temperature, K	Pressure, kPa	Frequency, MHz	Relative permittivity at various frequencies	uncertainty
298.15	101.3	0.01	14.96	0.04

System: 3-methylbutan-1-ol; phases: Liquid
Property: Refractive index (Na D-line) (Liquid); method: Standard Abbe refractometry
Temperature, K	Pressure, kPa	Refractive index (Na D-line)	uncertainty
298.15	101.3	1.4048	0.0011

System: cyclohexane; phases: Liquid
Property: Relative permittivity at various frequencies (Liquid); method: Coaxial cylinder capacitor
Temperature, K	Pressure, kPa	Frequency, MHz	Relative permittivity at various frequencies	uncertainty
298.15	101.3	0.01	2.02	0.04

System: cyclohexane; phases: Liquid
Property: Refractive index (Na D-line) (Liquid); method: Standard Abbe refractometry
Temperature, K	Pressure, kPa	Refractive index (Na D-line)	uncertainty
298.15	101.3	1.4234	0.001

System: cyclohexane; phases: Liquid
Property: Mass density, kg/m3 (Liquid); method: Vibrating tube method
Temperature, K	Pressure, kPa	Mass density, kg/m3	uncertainty
298.15	101.3	773.58	3.1

System: pentan-1-ol + acetone; phases: Liquid
Fixed: Temperature, K = 298.15
Fixed: Pressure, kPa = 101.3
Fixed: Frequency, MHz = 0.01
Property: Relative permittivity at various frequencies (Liquid); method: Coaxial cylinder capacitor
Mole fraction of acetone	Relative permittivity at various frequencies	uncertainty
0	15.12	0.04
0.1	14.94	0.04
0.2	14.91	0.04
0.301	15.01	0.04
0.399	15.28	0.04
0.5	15.73	0.04
0.601	16.35	0.04
0.701	17.21	0.04
0.8	18.21	0.05
0.9	19.36	0.05
1	20.69	0.04

System: pentan-1-ol + acetone; phases: Liquid
Fixed: Temperature, K = 298.15
Fixed: Pressure, kPa = 101.3
Property: Refractive index (Na D-line) (Liquid); method: Standard Abbe refractometry
Mole fraction of acetone	Refractive index (Na D-line)	uncertainty
0	1.4082	0.0011
0.1	1.4049	0.0011
0.2	1.4015	0.0011
0.301	1.397	0.0011
0.399	1.3926	0.0011
0.5	1.3882	0.0011
0.601	1.3828	0.0011
0.701	1.3771	0.0011
0.8	1.3706	0.0011
0.9	1.3639	0.0011
1	1.3564	0.001

System: pentan-1-ol + acetophenone; phases: Liquid
Fixed: Temperature, K = 298.15
Fixed: Pressure, kPa = 101.3
Fixed: Frequency, MHz = 0.01
Property: Relative permittivity at various frequencies (Liquid); method: Coaxial cylinder capacitor
Mole fraction of acetophenone	Relative permittivity at various frequencies	uncertainty
0	15.12	0.04
0.1	14.86	0.04
0.2	14.71	0.04
0.3	14.66	0.04
0.4	14.75	0.04
0.501	14.94	0.04
0.6	15.25	0.04
0.7	15.65	0.04
0.8	16.19	0.04
0.9	16.83	0.04
1	17.51	0.04

System: pentan-1-ol + acetophenone; phases: Liquid
Fixed: Temperature, K = 298.15
Fixed: Pressure, kPa = 101.3
Property: Refractive index (Na D-line) (Liquid); method: Standard Abbe refractometry
Mole fraction of acetophenone	Refractive index (Na D-line)	uncertainty
0	1.4082	0.0011
0.1	1.4212	0.0011
0.2	1.4346	0.0011
0.3	1.4468	0.0011
0.4	1.4598	0.0011
0.501	1.4726	0.0011
0.6	1.4859	0.0011
0.7	1.4968	0.0011
0.8	1.5092	0.0011
0.9	1.5213	0.0011
1	1.5318	0.0011

System: pentan-1-ol + butanone; phases: Liquid
Fixed: Temperature, K = 298.15
Fixed: Pressure, kPa = 101.3
Fixed: Frequency, MHz = 0.01
Property: Relative permittivity at various frequencies (Liquid); method: Coaxial cylinder capacitor
Mole fraction of butanone	Relative permittivity at various frequencies	uncertainty
0	15.12	0.04
0.1	14.81	0.04
0.2	14.68	0.04
0.3	14.63	0.04
0.4	14.73	0.04
0.5	14.96	0.04
0.599	15.35	0.04
0.7	15.9	0.04
0.8	16.56	0.04
0.9	17.44	0.04
1	18.38	0.04

System: pentan-1-ol + butanone; phases: Liquid
Fixed: Temperature, K = 298.15
Fixed: Pressure, kPa = 101.3
Property: Refractive index (Na D-line) (Liquid); method: Standard Abbe refractometry
Mole fraction of butanone	Refractive index (Na D-line)	uncertainty
0	1.4082	0.0011
0.1	1.4053	0.0011
0.2	1.4023	0.0011
0.3	1.3988	0.0011
0.4	1.3959	0.0011
0.5	1.393	0.0011
0.599	1.3898	0.0011
0.7	1.3859	0.0011
0.8	1.3826	0.001
0.9	1.3796	0.001
1	1.376	0.001

System: pentan-1-ol + dimethyl sulfoxide; phases: Liquid
Fixed: Temperature, K = 298.15
Fixed: Pressure, kPa = 101.3
Fixed: Frequency, MHz = 0.01
Property: Relative permittivity at various frequencies (Liquid); method: Coaxial cylinder capacitor
Mole fraction of dimethyl sulfoxide	Relative permittivity at various frequencies	uncertainty
0	15.12	0.04
0.099	16.27	0.05
0.201	18.04	0.06
0.3	20.24	0.06
0.4	22.93	0.07
0.5	25.94	0.08
0.6	29.38	0.08
0.7	33.14	0.09
0.8	37.33	0.1
0.9	41.95	0.1
1	46.71	0.04

System: pentan-1-ol + dimethyl sulfoxide; phases: Liquid
Fixed: Temperature, K = 298.15
Fixed: Pressure, kPa = 101.3
Property: Refractive index (Na D-line) (Liquid); method: Standard Abbe refractometry
Mole fraction of dimethyl sulfoxide	Refractive index (Na D-line)	uncertainty
0	1.4082	0.0011
0.099	1.4109	0.0011
0.201	1.4164	0.0011
0.3	1.4217	0.0011
0.4	1.427	0.0011
0.5	1.4339	0.0011
0.6	1.44	0.0011
0.7	1.4488	0.0011
0.8	1.4573	0.0011
0.9	1.4675	0.0011
1	1.4767	0.0011

System: 3-methylbutan-1-ol + acetone; phases: Liquid
Fixed: Temperature, K = 298.15
Fixed: Pressure, kPa = 101.3
Fixed: Frequency, MHz = 0.01
Property: Relative permittivity at various frequencies (Liquid); method: Coaxial cylinder capacitor
Mole fraction of acetone	Relative permittivity at various frequencies	uncertainty
0	14.96	0.04
0.1	14.72	0.04
0.2	14.62	0.04
0.3	14.71	0.04
0.4	14.96	0.04
0.5	15.44	0.04
0.6	16.08	0.04
0.7	16.95	0.04
0.8	17.99	0.05
0.9	19.21	0.05
1	20.69	0.04

System: 3-methylbutan-1-ol + acetone; phases: Liquid
Fixed: Temperature, K = 298.15
Fixed: Pressure, kPa = 101.3
Property: Refractive index (Na D-line) (Liquid); method: Standard Abbe refractometry
Mole fraction of acetone	Refractive index (Na D-line)	uncertainty
0	1.4048	0.0011
0.1	1.4016	0.0011
0.2	1.3981	0.0011
0.3	1.3936	0.0011
0.4	1.3893	0.0011
0.5	1.3854	0.0011
0.6	1.3799	0.0011
0.7	1.3751	0.001
0.8	1.3701	0.001
0.9	1.3634	0.0011
1	1.3564	0.001

System: 3-methylbutan-1-ol + acetophenone; phases: Liquid
Fixed: Temperature, K = 298.15
Fixed: Pressure, kPa = 101.3
Fixed: Frequency, MHz = 0.01
Property: Relative permittivity at various frequencies (Liquid); method: Coaxial cylinder capacitor
Mole fraction of acetophenone	Relative permittivity at various frequencies	uncertainty
0	14.96	0.04
0.101	14.65	0.04
0.199	14.47	0.04
0.301	14.39	0.04
0.4	14.45	0.04
0.5	14.66	0.04
0.6	14.97	0.04
0.699	15.44	0.04
0.8	16.03	0.04
0.9	16.71	0.04
1	17.51	0.04

System: 3-methylbutan-1-ol + acetophenone; phases: Liquid
Fixed: Temperature, K = 298.15
Fixed: Pressure, kPa = 101.3
Property: Refractive index (Na D-line) (Liquid); method: Standard Abbe refractometry
Mole fraction of acetophenone	Refractive index (Na D-line)	uncertainty
0	1.4048	0.0011
0.101	1.418	0.0011
0.199	1.4303	0.0011
0.301	1.4451	0.0011
0.4	1.4573	0.0011
0.5	1.4709	0.0011
0.6	1.4817	0.0011
0.699	1.4935	0.0011
0.8	1.5063	0.0011
0.9	1.5187	0.0011
1	1.5318	0.0011

System: 3-methylbutan-1-ol + butanone; phases: Liquid
Fixed: Temperature, K = 298.15
Fixed: Pressure, kPa = 101.3
Fixed: Frequency, MHz = 0.01
Property: Relative permittivity at various frequencies (Liquid); method: Coaxial cylinder capacitor
Mole fraction of butanone	Relative permittivity at various frequencies	uncertainty
0	14.96	0.04
0.099	14.59	0.04
0.2	14.38	0.04
0.3	14.33	0.04
0.4	14.44	0.04
0.499	14.69	0.04
0.599	15.12	0.04
0.7	15.7	0.04
0.8	16.43	0.04
0.9	17.33	0.04
1	18.38	0.04

System: 3-methylbutan-1-ol + butanone; phases: Liquid
Fixed: Temperature, K = 298.15
Fixed: Pressure, kPa = 101.3
Property: Refractive index (Na D-line) (Liquid); method: Standard Abbe refractometry
Mole fraction of butanone	Refractive index (Na D-line)	uncertainty
0	1.4048	0.0011
0.099	1.4024	0.0011
0.2	1.4001	0.0011
0.3	1.3972	0.0011
0.4	1.3948	0.0011
0.499	1.392	0.0011
0.599	1.3891	0.0011
0.7	1.3863	0.0011
0.8	1.3829	0.001
0.9	1.38	0.001
1	1.376	0.001

System: 3-methylbutan-1-ol + dimethyl sulfoxide; phases: Liquid
Fixed: Temperature, K = 298.15
Fixed: Pressure, kPa = 101.3
Fixed: Frequency, MHz = 0.01
Property: Relative permittivity at various frequencies (Liquid); method: Coaxial cylinder capacitor
Mole fraction of dimethyl sulfoxide	Relative permittivity at various frequencies	uncertainty
0	14.96	0.04
0.1	15.92	0.05
0.2	17.56	0.06
0.3	19.79	0.06
0.4	22.45	0.07
0.5	25.51	0.08
0.6	28.95	0.08
0.7	32.76	0.09
0.8	37.01	0.1
0.9	41.68	0.11
1	46.71	0.04

System: 3-methylbutan-1-ol + dimethyl sulfoxide; phases: Liquid
Fixed: Temperature, K = 298.15
Fixed: Pressure, kPa = 101.3
Property: Refractive index (Na D-line) (Liquid); method: Standard Abbe refractometry
Mole fraction of dimethyl sulfoxide	Refractive index (Na D-line)	uncertainty
0	1.4048	0.0011
0.1	1.4071	0.0011
0.2	1.4118	0.0011
0.3	1.4168	0.0011
0.4	1.4227	0.0011
0.5	1.4305	0.0011
0.6	1.4385	0.0011
0.7	1.4459	0.0011
0.8	1.4549	0.0011
0.9	1.4651	0.0011
1	1.4768	0.0011
