Measured thermophysical data. Effect of the ethoxy groups distribution on the phase behaviour of the binary  systems carbon dioxide CO2 with industrial non-ionic surfactants (CiEOj)
Source: J. Chem. Thermodyn., 2013, 10.1016/j.jct.2012.09.001
Compound 1: carbon dioxide, CO2, InChI=1S/CO2/c2-1-3, purity 99.9%
Compound 2: 2-[2-[2-(octyloxy)ethoxy]ethoxy]ethanol, C14H30O4, InChI=1S/C14H30O4/c1-2-3-4-5-6-7-9-16-11-13-18-14-12-17-10-8-15/h15H,2-14H2,1H3, purity 98%
Compound 3: 3,6,9,12-tetraoxa-1-eicosanol, C16H34O5, InChI=1S/C16H34O5/c1-2-3-4-5-6-7-9-18-11-13-20-15-16-21-14-12-19-10-8-17/h17H,2-16H2,1H3, purity 98%
Compound 4: triethylene glycol monohexyl ether, C12H26O4, InChI=1S/C12H26O4/c1-2-3-4-5-7-14-9-11-16-12-10-15-8-6-13/h13H,2-12H2,1H3, purity 98%
Compound 5: 2-(hexyloxytetraethoxy)ethanol, C16H34O6, InChI=1S/C16H34O6/c1-2-3-4-5-7-18-9-11-20-13-15-22-16-14-21-12-10-19-8-6-17/h17H,2-16H2,1H3, purity 98%

System: carbon dioxide + 2-[2-[2-(octyloxy)ethoxy]ethoxy]ethanol; phases: Gas, Liquid
Property: Vapor or sublimation pressure, kPa (Gas); method: CCELL:UFactor:4
Mole fraction of 2-[2-[2-(octyloxy)ethoxy]ethoxy]ethanol	Temperature, K	Vapor or sublimation pressure, kPa	uncertainty
0.004	269.73	3200	40
0.004	272.51	3450	43
0.004	275.64	3740	47
0.004	278.72	4040	51
0.004	281.79	4360	55
0.004	284.1	4610	58
0.004	286.4	4880	61
0.004	288.64	5150	65
0.004	290.85	5420	68
0.004	293.18	5720	72
0.004	295.14	5980	75
0.004	296.72	6200	78
0.004	299.14	6550	82
0.0064	274.11	3560	45
0.0064	276.37	3770	47
0.0064	278.6	3980	50
0.0064	281.01	4240	53
0.0064	283.91	4550	57
0.0064	286.4	4840	61
0.0064	288.54	5100	64
0.0064	291.11	5420	68
0.0064	293.56	5750	72
0.0084	270.13	3260	41
0.0084	273.02	3510	44
0.0084	275.7	3750	47
0.0084	278.34	4010	51
0.0084	280.96	4280	54
0.0108	268.81	3090	39
0.0108	270.75	3260	41
0.0108	272.74	3430	43

System: carbon dioxide + 2-[2-[2-(octyloxy)ethoxy]ethoxy]ethanol; phases: Liquid mixture 2, Liquid mixture 1
Property: Vapor or sublimation pressure, kPa (Liquid mixture 2); method: static
Mole fraction of 2-[2-[2-(octyloxy)ethoxy]ethoxy]ethanol	Temperature, K	Vapor or sublimation pressure, kPa	uncertainty
0.004	301.15	6950	117
0.004	303.49	7600	127
0.004	306.05	8350	140
0.004	308.59	9000	151
0.004	311.39	9700	163
0.0064	295.98	6450	108
0.0064	297.89	7200	121
0.0064	300.31	7950	133
0.0064	302.64	8700	146
0.0064	305.27	9450	158
0.0084	283.49	5080	85
0.0084	284.96	5550	93
0.0084	287.1	6380	107
0.0084	288.72	7030	118
0.0084	290.85	7700	129
0.0084	292.57	8350	140
0.0084	294.32	9010	151
0.0084	295.78	9450	158
0.0108	275.62	4280	72
0.0108	277.3	4730	79
0.0108	278.93	5280	89
0.0108	282.19	6330	106
0.0108	284.37	7000	117
0.0108	286.22	7700	129
0.0108	288.64	8400	141
0.0108	290.66	9050	152
0.0108	292.56	9630	161

System: carbon dioxide + 3,6,9,12-tetraoxa-1-eicosanol; phases: Gas, Liquid
Property: Vapor or sublimation pressure, kPa (Gas); method: CCELL:UFactor:4
Mole fraction of 3,6,9,12-tetraoxa-1-eicosanol	Temperature, K	Vapor or sublimation pressure, kPa	uncertainty
0.0049	266.81	3290	41
0.0049	269.15	3470	44
0.0049	271.37	3650	46
0.0049	273.39	3680	46
0.0049	278.51	4010	50
0.0049	280.18	4080	51
0.0075	271.3	3290	41
0.0075	273.38	3470	44
0.0075	275.22	3650	46
0.0075	275.64	3680	46

System: carbon dioxide + 3,6,9,12-tetraoxa-1-eicosanol; phases: Liquid mixture 2, Liquid mixture 1
Property: Vapor or sublimation pressure, kPa (Liquid mixture 2); method: static
Mole fraction of 3,6,9,12-tetraoxa-1-eicosanol	Temperature, K	Vapor or sublimation pressure, kPa	uncertainty
0.0049	283.05	4950	83
0.0049	284.79	5650	95
0.0049	287.14	6400	107
0.0049	289.1	7050	118
0.0075	276.71	4280	600
0.0075	277.51	4400	600
0.0075	278.49	4440	600
0.0075	279.15	4540	76
0.0075	280.84	5350	90
0.0075	282.89	6400	108
0.0075	285.71	7650	128
0.0075	288.91	8700	146
0.0095	273.93	4080	69
0.0095	275.03	4580	77
0.0095	277.37	5480	92
0.0095	279.16	6300	106
0.0095	281.52	7200	121
0.0095	283.88	8100	136
0.0095	285.91	8980	151
0.0095	288.28	9840	165

System: carbon dioxide + triethylene glycol monohexyl ether; phases: Gas, Liquid
Property: Vapor or sublimation pressure, kPa (Gas); method: CCELL:UFactor:4
Mole fraction of triethylene glycol monohexyl ether	Temperature, K	Vapor or sublimation pressure, kPa	uncertainty
0.0096	271.67	3350	42
0.0096	274.22	3580	45
0.0096	275.42	3690	46
0.0096	277.42	3890	49
0.0096	278.77	4020	51
0.0096	280.34	4170	53
0.0096	282.08	4380	55
0.0096	283.87	4550	57
0.0096	286.89	4900	62
0.0096	288.68	5110	64
0.0096	290.07	5280	66
0.0096	292.21	5550	70
0.0096	294.21	5820	73
0.0096	296.46	6110	77
0.0096	297.11	6200	78
0.0138	270.65	3230	41
0.0138	272.65	3410	43
0.0138	274.83	3580	45
0.0138	276.84	3800	48
0.0138	278.97	4010	51
0.0138	281.32	4250	54
0.0138	283.78	4520	57
0.0138	286.13	4780	60
0.0138	288.58	5080	64
0.0138	290.04	5250	66
0.0138	291.45	5430	68
0.0198	270.63	3220	41
0.0198	272.5	3380	43
0.0198	274.43	3550	45
0.0198	276	3700	47
0.0198	277.86	3880	49
0.0198	279.11	4000	50
0.0198	281.05	4200	53
0.0198	284	4520	57
0.0198	285.22	4650	59
0.0198	286.35	4790	60
0.0198	287.64	4940	62
0.0198	288.66	5080	64
0.0198	290.21	5300	67
0.0271	270.85	3240	41
0.0271	272.75	3400	43
0.0271	274.76	3580	45
0.0271	276.82	3780	48
0.0271	278.38	3930	50
0.0271	280.73	4170	53
0.0271	283.32	4440	56
0.0271	285.17	4640	58
0.0271	286.96	4850	61

System: carbon dioxide + triethylene glycol monohexyl ether; phases: Liquid mixture 2, Liquid mixture 1
Property: Vapor or sublimation pressure, kPa (Liquid mixture 2); method: static
Mole fraction of triethylene glycol monohexyl ether	Temperature, K	Vapor or sublimation pressure, kPa	uncertainty
0.0096	298.35	6850	115
0.0096	299.72	7300	123
0.0096	301.14	7900	133
0.0096	302.61	8400	141
0.0096	304.17	9000	151
0.0096	305.33	9650	162
0.0138	293	6000	101
0.0138	294.07	6530	110
0.0138	295.31	6950	117
0.0138	297.38	7650	128
0.0138	299.51	8660	145
0.0138	301.75	9330	156
0.0198	291.67	6250	105
0.0198	293.28	6850	115
0.0198	295.08	7550	127
0.0198	297.21	8250	138
0.0198	299.18	9050	152
0.0271	288.36	5350	90
0.0271	289.32	5650	95
0.0271	290.73	6200	104
0.0271	292.71	6950	117
0.0271	294.63	7650	128
0.0271	296.87	8400	141
0.0271	299.79	9500	159

System: carbon dioxide + 2-(hexyloxytetraethoxy)ethanol; phases: Gas, Liquid
Property: Vapor or sublimation pressure, kPa (Gas); method: CCELL:UFactor:4
Mole fraction of 2-(hexyloxytetraethoxy)ethanol	Temperature, K	Vapor or sublimation pressure, kPa	uncertainty
0.0039	273.78	3554.67	44.78
0.0039	275.6744	3719.67	46.86
0.0039	278.2892	3979.67	50.13
0.0039	280.0848	4164.67	52.45
0.0039	282.6517	4439.67	55.91
0.0039	284.7066	4669.67	58.81
0.0039	287.5085	5004.67	63.02
0.0039	290.2098	5329.67	67.1
0.008	270.65	3230	41
0.008	272.65	3410	43
0.008	274.83	3580	45
0.008	276.84	3800	48
0.008	278.97	4010	51
0.008	281.32	4250	54
0.008	283.78	4520	57
0.008	286.13	4780	60
0.008	288.58	5080	64
0.008	290.04	5250	66
0.008	291.45	5430	68
0.0123	270.63	3220	41
0.0123	272.5	3380	43
0.0123	274.43	3550	45
0.0123	276	3700	47
0.0123	277.86	3880	49
0.0123	279.11	4000	50
0.0123	281.05	4200	53
0.0123	284	4520	57
0.0123	285.22	4650	59
0.0123	286.35	4790	60
0.0123	287.64	4940	62
0.0123	288.66	5080	64
0.0123	290.21	5300	67

System: carbon dioxide + 2-(hexyloxytetraethoxy)ethanol; phases: Liquid mixture 2, Liquid mixture 1
Property: Vapor or sublimation pressure, kPa (Liquid mixture 2); method: static
Mole fraction of 2-(hexyloxytetraethoxy)ethanol	Temperature, K	Vapor or sublimation pressure, kPa	uncertainty
0.0039	298.35	6850	115
0.0039	299.72	7300	123
0.0039	301.14	7900	133
0.0039	302.61	8400	141
0.0039	304.17	9000	151
0.0039	305.33	9650	162
0.008	293	6000	101
0.008	294.07	6530	110
0.008	295.31	6950	117
0.008	297.38	7650	128
0.008	299.51	8660	145
0.008	301.75	9330	156
0.0123	291.67	6250	105
0.0123	293.28	6850	115
0.0123	295.08	7550	127
0.0123	297.21	8250	138
0.0123	299.18	9050	152
