Measured thermophysical data. Volumetric and viscometric study of the ternary (dl-alanine/+d(-)-fructose + water) solution at different temperatures and atmospheric pressure
Source: J. Chem. Thermodyn., 2018, 10.1016/j.jct.2018.06.008
Compound 1: DL-2-aminopropanoic acid, C3H7NO2, InChI=1S/C3H7NO2/c1-2(4)3(5)6/h2H,4H2,1H3,(H,5,6), purity 99%
Compound 2: D-fructose, C6H12O6, InChI=1S/C6H12O6/c7-1-3(9)5(11)6(12)4(10)2-8/h3,5-9,11-12H,1-2H2/t3-,5-,6-/m1/s1, purity 99%
Compound 3: water, H2O, InChI=1S/H2O/h1H2

System: DL-2-aminopropanoic acid + water; phases: Liquid
Fixed: Pressure, kPa = 87
Property: Mass density, kg/m3 (Liquid); method: Vibrating tube method
Temperature, K	Molality, mol/kg of DL-2-aminopropanoic acid	Mass density, kg/m3	uncertainty
293.15	0	998.22	1.01
293.15	0.051	999.69	1.01
293.15	0.1023	1001.15	1.01
293.15	0.1522	1002.55	1.01
293.15	0.2034	1003.97	1.01
293.15	0.2524	1005.31	1.01
293.15	0.3021	1006.65	1.01
293.15	0.3542	1008.04	1.01
293.15	0.3984	1009.2	1.01
298.15	0	997.06	1.01
298.15	0.051	998.52	1.01
298.15	0.1023	999.97	1.01
298.15	0.1522	1001.36	1.01
298.15	0.2034	1002.77	1.01
298.15	0.2524	1004.1	1.01
298.15	0.3021	1005.43	1.01
298.15	0.3542	1006.81	1.01
298.15	0.3984	1007.97	1.01
303.15	0	995.66	1.01
303.15	0.051	997.11	1.01
303.15	0.1023	998.55	1.01
303.15	0.1522	999.93	1.01
303.15	0.2034	1001.33	1.01
303.15	0.2524	1002.65	1.01
303.15	0.3021	1003.97	1.01
303.15	0.3542	1005.34	1.01
303.15	0.3984	1006.49	1.01
308.15	0	994.05	1.01
308.15	0.051	995.49	1.01
308.15	0.1023	996.92	1.01
308.15	0.1522	998.29	1.01
308.15	0.2034	999.68	1.01
308.15	0.2524	1000.99	1.01
308.15	0.3021	1002.3	1.01
308.15	0.3542	1003.66	1.01
308.15	0.3984	1004.8	1.01
313.15	0	992.23	1.01
313.15	0.051	993.66	1.01
313.15	0.1023	995.08	1.01
313.15	0.1522	996.44	1.01
313.15	0.2034	997.82	1.01
313.15	0.2524	999.13	1.01
313.15	0.3021	1000.44	1.01
313.15	0.3542	1001.79	1.01
313.15	0.3984	1002.92	1.01

System: DL-2-aminopropanoic acid + water; phases: Liquid
Fixed: Pressure, kPa = 87
Property: Viscosity, Pa*s (Liquid); method: Capillary tube (Ostwald; Ubbelohde) method
Temperature, K	Molality, mol/kg of DL-2-aminopropanoic acid	Viscosity, Pa*s	uncertainty
293.15	0.051	0.001013	1.3e-05
293.15	0.1023	0.001028	1.3e-05
293.15	0.1522	0.001041	1.4e-05
293.15	0.2034	0.001054	1.4e-05
293.15	0.2524	0.001066	1.4e-05
293.15	0.3021	0.001079	1.4e-05
293.15	0.3542	0.001092	1.4e-05
293.15	0.3984	0.001104	1.4e-05
298.15	0.051	0.000899	1.3e-05
298.15	0.1023	0.00091	1e-05
298.15	0.1522	0.000922	1.3e-05
298.15	0.2034	0.000934	1.3e-05
298.15	0.2524	0.000945	1.3e-05
298.15	0.3021	0.000956	1.3e-05
298.15	0.3542	0.000968	1.3e-05
298.15	0.3984	0.000979	1.3e-05
303.15	0.051	0.000803	1.3e-05
303.15	0.1023	0.000814	1.3e-05
303.15	0.1522	0.000824	1.3e-05
303.15	0.2034	0.000834	1.3e-05
303.15	0.2524	0.000844	1.3e-05
303.15	0.3021	0.000853	1.3e-05
303.15	0.3542	0.000863	1.3e-05
303.15	0.3984	0.000872	1.3e-05
308.15	0.051	0.000724	1.3e-05
308.15	0.1023	0.000732	1.3e-05
308.15	0.1522	0.000741	1.3e-05
308.15	0.2034	0.000749	1.3e-05
308.15	0.2524	0.000758	1.3e-05
308.15	0.3021	0.000766	1.3e-05
308.15	0.3542	0.000775	1.3e-05
308.15	0.3984	0.000782	1.3e-05
313.15	0.051	0.000656	1.3e-05
313.15	0.1023	0.000664	1.3e-05
313.15	0.1522	0.000671	1.3e-05
313.15	0.2034	0.000678	1.3e-05
313.15	0.2524	0.000685	1.3e-05
313.15	0.3021	0.000692	1.3e-05
313.15	0.3542	0.0007	1.3e-05
313.15	0.3984	0.000706	1.3e-05

System: DL-2-aminopropanoic acid + D-fructose + water; phases: Liquid
Fixed: Pressure, kPa = 87
Property: Mass density, kg/m3 (Liquid); method: Vibrating tube method
Temperature, K	Solvent: Molality, mol/kg of D-fructose	Molality, mol/kg of DL-2-aminopropanoic acid	Mass density, kg/m3	uncertainty
293.15	0.05	0	1002.15	1.06
293.15	0.05	0.051	1003.64	1.06
293.15	0.05	0.1022	1005.12	1.06
293.15	0.05	0.1512	1006.52	1.06
293.15	0.05	0.2042	1008.02	1.06
293.15	0.05	0.2533	1009.4	1.06
293.15	0.05	0.3	1010.7	1.06
293.15	0.05	0.3508	1012.1	1.06
293.15	0.05	0.3988	1013.41	1.06
298.15	0.05	0	1000.96	1.06
298.15	0.05	0.051	1002.44	1.06
298.15	0.05	0.1022	1003.91	1.06
298.15	0.05	0.1512	1005.3	1.06
298.15	0.05	0.2042	1006.79	1.06
298.15	0.05	0.2533	1008.15	1.06
298.15	0.05	0.3	1009.44	1.06
298.15	0.05	0.3508	1010.82	1.06
298.15	0.05	0.3988	1012.12	1.06
303.15	0.05	0	999.54	1.06
303.15	0.05	0.051	1001.01	1.06
303.15	0.05	0.1022	1002.47	1.06
303.15	0.05	0.1512	1003.85	1.06
303.15	0.05	0.2042	1005.33	1.06
303.15	0.05	0.2533	1006.68	1.06
303.15	0.05	0.3	1007.96	1.06
303.15	0.05	0.3508	1009.33	1.06
303.15	0.05	0.3988	1010.62	1.06
308.15	0.05	0	997.89	1.06
308.15	0.05	0.051	999.35	1.05
308.15	0.05	0.1022	1000.8	1.06
308.15	0.05	0.1512	1002.17	1.06
308.15	0.05	0.2042	1003.64	1.06
308.15	0.05	0.2533	1004.99	1.06
308.15	0.05	0.3	1006.25	1.06
308.15	0.05	0.3508	1007.62	1.06
308.15	0.05	0.3988	1008.9	1.06
313.15	0.05	0	996.05	1.06
313.15	0.05	0.051	997.5	1.05
313.15	0.05	0.1022	998.94	1.05
313.15	0.05	0.1512	1000.3	1.05
313.15	0.05	0.2042	1001.76	1.06
313.15	0.05	0.2533	1003.1	1.06
313.15	0.05	0.3	1004.36	1.06
313.15	0.05	0.3508	1005.71	1.06
313.15	0.05	0.3988	1006.98	1.06
293.15	0.1	0	1005.59	1.05
293.15	0.1	0.0509	1007.09	1.05
293.15	0.1	0.1018	1008.57	1.05
293.15	0.1	0.1508	1009.98	1.05
293.15	0.1	0.2032	1011.47	1.05
293.15	0.1	0.2499	1012.78	1.05
293.15	0.1	0.2991	1014.15	1.05
293.15	0.1	0.3489	1015.52	1.05
293.15	0.1	0.4	1016.91	1.05
298.15	0.1	0	1004.39	1.05
298.15	0.1	0.0509	1005.88	1.05
298.15	0.1	0.1018	1007.35	1.05
298.15	0.1	0.1508	1008.75	1.05
298.15	0.1	0.2032	1010.23	1.05
298.15	0.1	0.2499	1011.53	1.05
298.15	0.1	0.2991	1012.88	1.05
298.15	0.1	0.3489	1014.24	1.05
298.15	0.1	0.4	1015.61	1.05
303.15	0.1	0	1002.93	1.05
303.15	0.1	0.0509	1004.41	1.05
303.15	0.1	0.1018	1005.87	1.05
303.15	0.1	0.1508	1007.26	1.05
303.15	0.1	0.2032	1008.73	1.05
303.15	0.1	0.2499	1010.02	1.05
303.15	0.1	0.2991	1011.36	1.05
303.15	0.1	0.3489	1012.71	1.05
303.15	0.1	0.4	1014.07	1.05
308.15	0.1	0	1001.26	1.05
308.15	0.1	0.0509	1002.73	1.05
308.15	0.1	0.1018	1004.18	1.05
308.15	0.1	0.1508	1005.56	1.05
308.15	0.1	0.2032	1007.02	1.05
308.15	0.1	0.2499	1008.3	1.05
308.15	0.1	0.2991	1009.63	1.05
308.15	0.1	0.3489	1010.97	1.05
308.15	0.1	0.4	1012.32	1.05
313.15	0.1	0	999.39	1.05
313.15	0.1	0.0509	1000.85	1.05
313.15	0.1	0.1018	1002.29	1.05
313.15	0.1	0.1508	1003.66	1.05
313.15	0.1	0.2032	1005.11	1.05
313.15	0.1	0.2499	1006.38	1.05
313.15	0.1	0.2991	1007.71	1.05
313.15	0.1	0.3489	1009.04	1.05
313.15	0.1	0.4	1010.39	1.05
293.15	0.15	0	1008.99	1.05
293.15	0.15	0.0512	1010.51	1.05
293.15	0.15	0.1023	1012.01	1.05
293.15	0.15	0.1509	1013.42	1.05
293.15	0.15	0.2008	1014.85	1.05
293.15	0.15	0.2515	1016.29	1.05
293.15	0.15	0.2997	1017.64	1.05
293.15	0.15	0.3503	1019.04	1.05
293.15	0.15	0.4011	1020.43	1.05
298.15	0.15	0	1007.75	1.05
298.15	0.15	0.0512	1009.26	1.05
298.15	0.15	0.1023	1010.75	1.05
298.15	0.15	0.1509	1012.15	1.05
298.15	0.15	0.2008	1013.57	1.05
298.15	0.15	0.2515	1014.99	1.05
298.15	0.15	0.2997	1016.33	1.05
298.15	0.15	0.3503	1017.72	1.05
298.15	0.15	0.4011	1019.1	1.05
303.15	0.15	0	1006.27	1.05
303.15	0.15	0.0512	1007.77	1.05
303.15	0.15	0.1023	1009.25	1.05
303.15	0.15	0.1509	1010.64	1.05
303.15	0.15	0.2008	1012.05	1.05
303.15	0.15	0.2515	1013.46	1.05
303.15	0.15	0.2997	1014.79	1.05
303.15	0.15	0.3503	1016.17	1.05
303.15	0.15	0.4011	1017.53	1.05
308.15	0.15	0	1004.57	1.05
308.15	0.15	0.0512	1006.06	1.05
308.15	0.15	0.1023	1007.53	1.05
308.15	0.15	0.1509	1008.91	1.05
308.15	0.15	0.2008	1010.31	1.05
308.15	0.15	0.2515	1011.71	1.05
308.15	0.15	0.2997	1013.03	1.05
308.15	0.15	0.3503	1014.4	1.05
308.15	0.15	0.4011	1015.76	1.05
313.15	0.15	0	1002.68	1.05
313.15	0.15	0.0512	1004.16	1.05
313.15	0.15	0.1023	1005.62	1.05
313.15	0.15	0.1509	1006.99	1.05
313.15	0.15	0.2008	1008.38	1.05
313.15	0.15	0.2515	1009.78	1.05
313.15	0.15	0.2997	1011.09	1.05
313.15	0.15	0.3503	1012.45	1.05
313.15	0.15	0.4011	1013.8	1.05
293.15	0	0	998.22	1.06
293.15	0	0.051	999.69	1.06
293.15	0	0.1023	1001.15	1.06
293.15	0	0.1522	1002.55	1.06
293.15	0	0.2034	1003.97	1.06
293.15	0	0.2524	1005.31	1.07
293.15	0	0.3021	1006.65	1.07
293.15	0	0.3542	1008.04	1.07
293.15	0	0.3984	1009.2	1.07
298.15	0	0	997.06	1.06
298.15	0	0.051	998.52	1.06
298.15	0	0.1023	999.97	1.06
298.15	0	0.1522	1001.36	1.06
298.15	0	0.2034	1002.77	1.06
298.15	0	0.2524	1004.1	1.07
298.15	0	0.3021	1005.43	1.07
298.15	0	0.3542	1006.81	1.07
298.15	0	0.3984	1007.97	1.07
303.15	0	0	995.66	1.06
303.15	0	0.051	997.11	1.06
303.15	0	0.1023	998.55	1.06
303.15	0	0.1522	999.93	1.06
303.15	0	0.2034	1001.33	1.06
303.15	0	0.2524	1002.65	1.06
303.15	0	0.3021	1003.97	1.07
303.15	0	0.3542	1005.34	1.07
303.15	0	0.3984	1006.49	1.07
308.15	0	0	994.05	1.06
308.15	0	0.051	995.49	1.06
308.15	0	0.1023	996.92	1.06
308.15	0	0.1522	998.29	1.06
308.15	0	0.2034	999.68	1.06
308.15	0	0.2524	1000.99	1.06
308.15	0	0.3021	1002.3	1.06
308.15	0	0.3542	1003.66	1.07
308.15	0	0.3984	1004.8	1.07
313.15	0	0	992.23	1.06
313.15	0	0.051	993.66	1.06
313.15	0	0.1023	995.08	1.06
313.15	0	0.1522	996.44	1.06
313.15	0	0.2034	997.82	1.06
313.15	0	0.2524	999.13	1.06
313.15	0	0.3021	1000.44	1.06
313.15	0	0.3542	1001.79	1.06
313.15	0	0.3984	1002.92	1.06

System: DL-2-aminopropanoic acid + D-fructose + water; phases: Liquid
Fixed: Pressure, kPa = 87
Property: Viscosity, Pa*s (Liquid); method: Capillary tube (Ostwald; Ubbelohde) method
Temperature, K	Molality, mol/kg of DL-2-aminopropanoic acid	Solvent: Molality, mol/kg of D-fructose	Viscosity, Pa*s	uncertainty
293.15	0.051	0	0.001013	1.4e-05
293.15	0.1023	0	0.001028	1.4e-05
293.15	0.1522	0	0.001041	1.4e-05
293.15	0.2034	0	0.001054	1.4e-05
293.15	0.2524	0	0.001066	1.4e-05
293.15	0.3021	0	0.001079	1.4e-05
293.15	0.3542	0	0.001092	1.4e-05
293.15	0.3984	0	0.001104	1.4e-05
298.15	0.051	0	0.000899	1.4e-05
298.15	0.1023	0	0.00091	1e-05
298.15	0.1522	0	0.000922	1.4e-05
298.15	0.2034	0	0.000934	1.4e-05
298.15	0.2524	0	0.000945	1.4e-05
298.15	0.3021	0	0.000956	1.4e-05
298.15	0.3542	0	0.000968	1.4e-05
298.15	0.3984	0	0.000979	1.4e-05
303.15	0.051	0	0.000803	1.3e-05
303.15	0.1023	0	0.000814	1.3e-05
303.15	0.1522	0	0.000824	1.3e-05
303.15	0.2034	0	0.000834	1.4e-05
303.15	0.2524	0	0.000844	1.4e-05
303.15	0.3021	0	0.000853	1.4e-05
303.15	0.3542	0	0.000863	1.4e-05
303.15	0.3984	0	0.000872	1.4e-05
308.15	0.051	0	0.000724	1.3e-05
308.15	0.1023	0	0.000732	1.3e-05
308.15	0.1522	0	0.000741	1.3e-05
308.15	0.2034	0	0.000749	1.3e-05
308.15	0.2524	0	0.000758	1.3e-05
308.15	0.3021	0	0.000766	1.3e-05
308.15	0.3542	0	0.000775	1.3e-05
308.15	0.3984	0	0.000782	1.3e-05
313.15	0.051	0	0.000656	1.3e-05
313.15	0.1023	0	0.000664	1.3e-05
313.15	0.1522	0	0.000671	1.3e-05
313.15	0.2034	0	0.000678	1.3e-05
313.15	0.2524	0	0.000685	1.3e-05
313.15	0.3021	0	0.000692	1.3e-05
313.15	0.3542	0	0.0007	1.3e-05
313.15	0.3984	0	0.000706	1.3e-05
293.15	0.051	0.05	0.001036	1.4e-05
293.15	0.1022	0.05	0.001051	1.4e-05
293.15	0.1512	0.05	0.001065	1.4e-05
293.15	0.2042	0.05	0.001081	1.4e-05
293.15	0.2533	0.05	0.001092	1.4e-05
293.15	0.3	0.05	0.001106	1.4e-05
293.15	0.3508	0.05	0.00112	2e-05
293.15	0.3988	0.05	0.001133	1.5e-05
298.15	0.051	0.05	0.000923	1.4e-05
298.15	0.1022	0.05	0.000935	1.4e-05
298.15	0.1512	0.05	0.000947	1.4e-05
298.15	0.2042	0.05	0.000959	1.4e-05
298.15	0.2533	0.05	0.000972	1.4e-05
298.15	0.3	0.05	0.000982	1.4e-05
298.15	0.3508	0.05	0.000995	1.4e-05
298.15	0.3988	0.05	0.001007	1.4e-05
303.15	0.051	0.05	0.00083	1.3e-05
303.15	0.1022	0.05	0.00084	1e-05
303.15	0.1512	0.05	0.000851	1.4e-05
303.15	0.2042	0.05	0.000862	1.4e-05
303.15	0.2533	0.05	0.000874	1.4e-05
303.15	0.3	0.05	0.000882	1.4e-05
303.15	0.3508	0.05	0.000894	1.4e-05
303.15	0.3988	0.05	0.000904	1.4e-05
308.15	0.051	0.05	0.000752	1.3e-05
308.15	0.1022	0.05	0.000762	1.3e-05
308.15	0.1512	0.05	0.000771	1.3e-05
308.15	0.2042	0.05	0.000781	1.3e-05
308.15	0.2533	0.05	0.00079	1e-05
308.15	0.3	0.05	0.000799	1.3e-05
308.15	0.3508	0.05	0.000808	1.3e-05
308.15	0.3988	0.05	0.000816	1.3e-05
313.15	0.051	0.05	0.000688	1.3e-05
313.15	0.1022	0.05	0.000698	1.3e-05
313.15	0.1512	0.05	0.000707	1.3e-05
313.15	0.2042	0.05	0.000715	1.3e-05
313.15	0.2533	0.05	0.000723	1.3e-05
313.15	0.3	0.05	0.000732	1.3e-05
313.15	0.3508	0.05	0.00074	1e-05
313.15	0.3988	0.05	0.000748	1.3e-05
293.15	0.0509	0.1	0.001063	1.4e-05
293.15	0.1018	0.1	0.001079	1.4e-05
293.15	0.1508	0.1	0.001093	1.4e-05
293.15	0.2032	0.1	0.001109	1.4e-05
293.15	0.2499	0.1	0.001121	1.4e-05
293.15	0.2991	0.1	0.001136	1.4e-05
293.15	0.3489	0.1	0.001149	1.5e-05
293.15	0.4	0.1	0.001164	1.5e-05
298.15	0.0509	0.1	0.000946	1.4e-05
298.15	0.1018	0.1	0.000959	1.4e-05
298.15	0.1508	0.1	0.000971	1.4e-05
298.15	0.2032	0.1	0.000984	1.4e-05
298.15	0.2499	0.1	0.000995	1.4e-05
298.15	0.2991	0.1	0.001008	1.4e-05
298.15	0.3489	0.1	0.00102	1.4e-05
298.15	0.4	0.1	0.001031	1.4e-05
303.15	0.0509	0.1	0.000848	1.3e-05
303.15	0.1018	0.1	0.000859	1.4e-05
303.15	0.1508	0.1	0.00087	1e-05
303.15	0.2032	0.1	0.000881	1.4e-05
303.15	0.2499	0.1	0.00089	1e-05
303.15	0.2991	0.1	0.000902	1.4e-05
303.15	0.3489	0.1	0.000911	1.4e-05
303.15	0.4	0.1	0.000922	1.4e-05
308.15	0.0509	0.1	0.000765	1.3e-05
308.15	0.1018	0.1	0.000775	1.3e-05
308.15	0.1508	0.1	0.000783	1.3e-05
308.15	0.2032	0.1	0.000794	1.3e-05
308.15	0.2499	0.1	0.000802	1.3e-05
308.15	0.2991	0.1	0.000811	1.3e-05
308.15	0.3489	0.1	0.00082	1e-05
308.15	0.4	0.1	0.000829	1.3e-05
313.15	0.0509	0.1	0.000697	1.3e-05
313.15	0.1018	0.1	0.000705	1.3e-05
313.15	0.1508	0.1	0.000714	1.3e-05
313.15	0.2032	0.1	0.000722	1.3e-05
313.15	0.2499	0.1	0.00073	1e-05
313.15	0.2991	0.1	0.000738	1.3e-05
313.15	0.3489	0.1	0.000745	1.3e-05
313.15	0.4	0.1	0.000754	1.3e-05
293.15	0.0512	0.15	0.001088	1.4e-05
293.15	0.1023	0.15	0.001103	1.4e-05
293.15	0.1509	0.15	0.001117	1.4e-05
293.15	0.2008	0.15	0.001132	1.4e-05
293.15	0.2515	0.15	0.001145	1.4e-05
293.15	0.2997	0.15	0.00116	1.5e-05
293.15	0.3503	0.15	0.001173	1.5e-05
293.15	0.4011	0.15	0.001187	1.5e-05
298.15	0.0512	0.15	0.000966	1.4e-05
298.15	0.1023	0.15	0.00098	1e-05
298.15	0.1509	0.15	0.000992	1.4e-05
298.15	0.2008	0.15	0.001005	1.4e-05
298.15	0.2515	0.15	0.001017	1.4e-05
298.15	0.2997	0.15	0.001029	1.4e-05
298.15	0.3503	0.15	0.001041	1.4e-05
298.15	0.4011	0.15	0.001054	1.4e-05
303.15	0.0512	0.15	0.000863	1.4e-05
303.15	0.1023	0.15	0.000876	1.4e-05
303.15	0.1509	0.15	0.000886	1.4e-05
303.15	0.2008	0.15	0.000897	1.4e-05
303.15	0.2515	0.15	0.000908	1.4e-05
303.15	0.2997	0.15	0.000918	1.4e-05
303.15	0.3503	0.15	0.000929	1.4e-05
303.15	0.4011	0.15	0.000941	1.4e-05
308.15	0.0512	0.15	0.000781	1.3e-05
308.15	0.1023	0.15	0.000791	1.3e-05
308.15	0.1509	0.15	0.0008	1.3e-05
308.15	0.2008	0.15	0.00081	1.3e-05
308.15	0.2515	0.15	0.000819	1.3e-05
308.15	0.2997	0.15	0.000828	1.3e-05
308.15	0.3503	0.15	0.000838	1.3e-05
308.15	0.4011	0.15	0.000848	1.4e-05
313.15	0.0512	0.15	0.000709	1.3e-05
313.15	0.1023	0.15	0.000718	1.3e-05
313.15	0.1509	0.15	0.000726	1.3e-05
313.15	0.2008	0.15	0.000735	1.3e-05
313.15	0.2515	0.15	0.000743	1.3e-05
313.15	0.2997	0.15	0.000751	1.3e-05
313.15	0.3503	0.15	0.000759	1.3e-05
313.15	0.4011	0.15	0.000768	1.3e-05

System: D-fructose + water; phases: Liquid
Fixed: Pressure, kPa = 87
Property: Mass density, kg/m3 (Liquid); method: Vibrating tube method
Temperature, K	Molality, mol/kg of D-fructose	Mass density, kg/m3	uncertainty
293.15	0.05	1002.15	1.01
298.15	0.05	1000.96	1.01
303.15	0.05	999.54	1.01
308.15	0.05	997.89	1.01
313.15	0.05	996.05	1.01
293.15	0.1	1005.59	1.01
298.15	0.1	1004.39	1.01
303.15	0.1	1002.93	1.01
308.15	0.1	1001.26	1.01
313.15	0.1	999.39	1.01
293.15	0.15	1008.99	1.01
298.15	0.15	1007.75	1.01
303.15	0.15	1006.27	1.01
308.15	0.15	1004.57	1.01
313.15	0.15	1002.68	1.01
293.15	0	998.22	1
298.15	0	997.06	1
303.15	0	995.66	1
308.15	0	994.05	1
313.15	0	992.23	1
