Measured thermophysical data. Enthalpies of formation of europium alkoxides: What lessons can be drawn from them
Source: J. Chem. Thermodyn., 2014, 10.1016/j.jct.2014.04.009
Compound 1: europium, Eu, InChI=1S/Eu
Compound 2: hydrogen, H2, InChI=1S/H2/h1H
Compound 3: graphite, C
Compound 4: oxygen, O2, InChI=1S/O2/c1-2
Compound 5: europium(II) methanolate, C2H6EuO2, InChI=1S/2CH3O.Eu/c2*1-2;/h2*1H3;/q2*-1;+2, purity 95%
Compound 6: europium(II) ethanolate, C4H10EuO2, InChI=1S/2C2H5O.Eu/c2*1-2-3;/h2*2H2,1H3;/q2*-1;+2, purity 95%
Compound 7: hydrogen chloride, ClH, InChI=1S/ClH/h1H
Compound 8: europium(III) chloride, Cl3Eu, InChI=1S/3ClH.Eu/h3*1H;/q;;;+3/p-3
Compound 9: water, H2O, InChI=1S/H2O/h1H2

System: hydrogen chloride + water + europium(III) chloride; phases: Liquid
Property: Molar enthalpy of solution, kJ/mol (Liquid); method: ISOPERIBOL
Solvent: Amount concentration (molarity), mol/dm3 of hydrogen chloride	Pressure, kPa	Temperature, K	Mole fraction of europium(III) chloride	Molar enthalpy of solution, kJ/mol	uncertainty
0.1	101	298.15	0	-165.9	3.8

Reaction: -1 europium + 1 europium(II) ethanolate + -5 hydrogen + -4 graphite + -1 oxygen
Property: Molar enthalpy of reaction, kJ/mol
-902.5

Reaction: -1 europium + 1 europium(II) methanolate + -3 hydrogen + -2 graphite + -1 oxygen
Property: Molar enthalpy of reaction, kJ/mol
-850.5
