Measured thermophysical data. Quaternary phosphonium-based ionic liquids: Thermal stability and heat capacity  of the liquid phase
Source: J. Chem. Thermodyn., 2012, 10.1016/j.jct.2011.08.019
Compound 1: trihexyl(tetradecyl)phosphonium chloride, C32H68ClP, InChI=1S/C32H68P.ClH/c1-5-9-13-17-18-19-20-21-22-23-24-28-32-33(29-25-14-10-6-2,30-26-15-11-7-3)31-27-16-12-8-4;/h5-32H2,1-4H3;1H/q+1;/p-1, purity 96%
Compound 2: tetradecyl(trihexyl)phosphonium dicyanamide, C34H68N3P, InChI=1S/C32H68P.C2N3/c1-5-9-13-17-18-19-20-21-22-23-24-28-32-33(29-25-14-10-6-2,30-26-15-11-7-3)31-27-16-12-8-4;3-1-5-2-4/h5-32H2,1-4H3;/q+1;-1, purity 97%
Compound 3: tributylmethylphosphonium methyl sulfate, C14H33O4PS, InChI=1S/C13H30P.CH4O4S/c1-5-8-11-14(4,12-9-6-2)13-10-7-3;1-5-6(2,3)4/h5-13H2,1-4H3;1H3,(H,2,3,4)/q+1;/p-1, purity 98.6%
Compound 4: trihexyl(tetradecyl)phosphonium bis[(trifluoromethyl)sulfonyl]imide, C34H68F6NO4PS2, InChI=1S/C32H68P.C2F6NO4S2/c1-5-9-13-17-18-19-20-21-22-23-24-28-32-33(29-25-14-10-6-2,30-26-15-11-7-3)31-27-16-12-8-4;3-1(4,5)14(10,11)9-15(12,13)2(6,7)8/h5-32H2,1-4H3;/q+1;-1, purity 98.6%
Compound 5: trihexyl(tetradecyl)phosphonium tris(pentafluoroethyl)trifluorophosphate, C38H68F18P2, InChI=1S/C32H68P.C6F18P/c1-5-9-13-17-18-19-20-21-22-23-24-28-32-33(29-25-14-10-6-2,30-26-15-11-7-3)31-27-16-12-8-4;7-1(8,9)4(16,17)25(22,23,24,5(18,19)2(10,11)12)6(20,21)3(13,14)15/h5-32H2,1-4H3;/q+1;-1, purity 99.4%
Compound 6: 1-ethyl-3-methylimidazolium bis((trifluoromethyl)sulfonyl)imide, C8H11F6N3O4S2, InChI=1S/C6H11N2.C2F6NO4S2/c1-3-8-5-4-7(2)6-8;3-1(4,5)14(10,11)9-15(12,13)2(6,7)8/h4-6H,3H2,1-2H3;/q+1;-1, purity 99%

System: trihexyl(tetradecyl)phosphonium chloride; phases: Liquid
Fixed: Pressure, kPa = 101.325
Property: Molar heat capacity at constant pressure, J/K/mol (Liquid); method: Small sample (50 mg) DSC
Temperature, K	Molar heat capacity at constant pressure, J/K/mol	uncertainty
338.15	835	84.3
338.15	833.5	84.2
338.15	833.5	84.2
338.15	834	84.2
343.15	838.7	84.7
343.15	837.1	84.5
343.15	837.6	84.6
343.15	837.6	84.6
348.15	844.4	85.3
348.15	842.8	85.1
348.15	841.8	85
348.15	842.3	85.1
353.15	850.6	85.9
353.15	848.5	85.7
353.15	849.1	85.8
353.15	848.5	85.7
358.15	857.9	86.6
358.15	855.3	86.4
358.15	854.8	86.3
358.15	855.3	86.4
363.15	863.6	87.2
363.15	861.5	87
363.15	860.5	86.9
363.15	861.5	87
368.15	870.9	88
368.15	868.3	87.7
368.15	867.8	87.6
368.15	868.3	87.7
373.15	876.6	88.5
373.15	874.5	88.3
373.15	874.5	88.3
373.15	874	88.3
378.15	883.3	89.2
378.15	881.8	89.1
378.15	880.7	88.9
378.15	880.2	88.9
383.15	889.6	89.8
383.15	886.5	89.5
383.15	886.5	89.5
383.15	888	89.7
388.15	894.8	90.4
388.15	893.7	90.3
388.15	893.2	90.2
388.15	891.7	90.1
393.15	901	91
393.15	899.4	90.8
393.15	898.4	90.7
393.15	899.4	90.8
398.15	905.7	91.5
398.15	905.2	91.4
398.15	904.1	91.3
398.15	904.6	91.4
403.15	912.4	92.1
403.15	910.3	91.9
403.15	909.8	91.9
403.15	909.3	91.8
408.15	917.6	92.7
408.15	915	92.4
408.15	915	92.4
408.15	916.1	92.5
413.15	923.8	93.3
413.15	922.8	93.2
413.15	920.7	93
413.15	921.8	93.1
418.15	928	93.7
418.15	928.5	93.8
418.15	927	93.6
418.15	926.4	93.6
423.15	933.2	94.2
423.15	933.2	94.2
423.15	931.1	94
423.15	932.7	94.2
428.15	939.4	94.9
428.15	937.9	94.7
428.15	936.8	94.6
428.15	936.3	94.6
433.15	944.1	95.3
433.15	944.6	95.4
433.15	942	95.1
433.15	939.4	94.9
438.15	948.8	95.8
438.15	950.3	96
438.15	948.3	95.8
438.15	946.2	95.6
443.15	952.4	96.2
443.15	953.4	96.3
443.15	952.4	96.2
443.15	951.4	96.1
448.15	957.6	96.7
448.15	957.1	96.7
448.15	951.4	96.1
448.15	956.6	96.6
453.15	959.7	96.9
453.15	962.8	97.2
453.15	951.9	96.1
453.15	961.2	97.1
458.15	965.4	97.5
458.15	966.4	97.6
458.15	964.4	97.4
458.15	963.8	97.3
463.15	969.5	97.9
463.15	968	97.8
463.15	966.4	97.6
463.15	966.9	97.7

System: tetradecyl(trihexyl)phosphonium dicyanamide; phases: Liquid
Fixed: Pressure, kPa = 101.325
Property: Molar heat capacity at constant pressure, J/K/mol (Liquid); method: Small sample (50 mg) DSC
Temperature, K	Molar heat capacity at constant pressure, J/K/mol	uncertainty
313.15	1060.2	107.1
313.15	1065.1	107.6
313.15	1061.3	107.2
318.15	1065.7	107.6
318.15	1070.6	108.1
318.15	1067.3	107.8
323.15	1075.6	108.6
323.15	1080	109.1
323.15	1076.1	108.7
328.15	1084.4	109.5
328.15	1089.3	110
328.15	1086	109.7
333.15	1094.3	110.5
333.15	1099.2	111
333.15	1095.4	110.6
338.15	1105.3	111.6
338.15	1109.1	112
338.15	1106.9	111.8
343.15	1114.6	112.6
343.15	1119.6	113.1
343.15	1116.8	112.8
348.15	1124.5	113.6
348.15	1129.5	114.1
348.15	1127.3	113.9
353.15	1135	114.6
353.15	1140.5	115.2
353.15	1137.2	114.9
358.15	1145.4	115.7
358.15	1150.4	116.2
358.15	1147.6	115.9
363.15	1155.3	116.7
363.15	1160.3	117.2
363.15	1155.3	116.7
368.15	1164.1	117.6
368.15	1169.1	118.1
368.15	1165.2	117.7
373.15	1172.9	118.5
373.15	1177.9	119
373.15	1173.5	118.5
378.15	1180.6	119.2
378.15	1186.1	119.8
378.15	1190.5	120.2
383.15	1188.9	120.1
383.15	1194.4	120.6
383.15	1194.9	120.7
388.15	1197.7	121
388.15	1203.2	121.5
388.15	1204.8	121.7
393.15	1205.9	121.8
393.15	1212	122.4
393.15	1214.2	122.6
398.15	1213.6	122.6
398.15	1219.7	123.2
398.15	1220.2	123.2
403.15	1221.3	123.3
403.15	1226.8	123.9
403.15	1227.9	124
408.15	1227.4	124
408.15	1233.4	124.6
408.15	1234	124.6
413.15	1234.5	124.7
413.15	1241.1	125.3
413.15	1244.4	125.7

System: tributylmethylphosphonium methyl sulfate; phases: Liquid
Fixed: Pressure, kPa = 101.325
Property: Molar heat capacity at constant pressure, J/K/mol (Liquid); method: Small sample (50 mg) DSC
Temperature, K	Molar heat capacity at constant pressure, J/K/mol	uncertainty
343.15	668.1	67.5
343.15	660.8	66.7
348.15	672	67.9
348.15	665.4	67.2
353.15	676.3	68.3
353.15	669.7	67.6
358.15	681.2	68.8
358.15	674.3	68.1
363.15	685.8	69.3
363.15	678.9	68.6
368.15	690.4	69.7
368.15	683.8	69.1
373.15	695.3	70.2
373.15	687.4	69.4
378.15	698.3	70.5
378.15	692.4	69.9
383.15	703.2	71
383.15	697.3	70.4
388.15	707.2	71.4
388.15	702.2	70.9
393.15	711.1	71.8
393.15	705.5	71.3
398.15	714.4	72.2
398.15	711.1	71.8
403.15	715	72.2
403.15	715.4	72.3
408.15	720	72.7
408.15	718.6	72.6
413.15	726.2	73.3
413.15	721.3	72.8
418.15	729.2	73.6
418.15	723.9	73.1
423.15	733.1	74
423.15	728.8	73.6
428.15	736.4	74.4
428.15	732.4	74
433.15	738.4	74.6
433.15	737.4	74.5
438.15	743.3	75.1
438.15	741.6	74.9
443.15	745.9	75.3
443.15	744.6	75.2
448.15	748.9	75.6
448.15	747.6	75.5
453.15	751.8	75.9
453.15	750.8	75.8
458.15	754.4	76.2
458.15	754.1	76.2
463.15	757.4	76.5
463.15	756.1	76.4

System: trihexyl(tetradecyl)phosphonium bis[(trifluoromethyl)sulfonyl]imide; phases: Liquid
Fixed: Pressure, kPa = 101.325
Property: Molar heat capacity at constant pressure, J/K/mol (Liquid); method: Small sample (50 mg) DSC
Temperature, K	Molar heat capacity at constant pressure, J/K/mol	uncertainty
328.15	1373.7	138.7
328.15	1363	137.7
328.15	1359.9	137.3
333.15	1370.6	138.4
333.15	1376	139
333.15	1363.8	137.7
333.15	1359.9	137.3
338.15	1375.2	138.9
338.15	1379	139.3
338.15	1369.1	138.3
338.15	1364.5	137.8
343.15	1381.3	139.5
343.15	1386.7	140
343.15	1375.2	138.9
343.15	1369.9	138.4
348.15	1390.5	140.4
348.15	1393.6	140.7
348.15	1382.9	139.7
348.15	1378.3	139.2
353.15	1400.4	141.4
353.15	1402	141.6
353.15	1391.3	140.5
353.15	1385.9	140
358.15	1410.4	142.4
358.15	1410.4	142.4
358.15	1399.7	141.4
358.15	1395.1	140.9
363.15	1419.5	143.4
363.15	1420.3	143.4
363.15	1409.6	142.4
363.15	1405	141.9
368.15	1428.7	144.3
368.15	1428.7	144.3
368.15	1420.3	143.4
368.15	1426.4	144.1
373.15	1439.4	145.4
373.15	1437.1	145.1
373.15	1441.7	145.6
373.15	1424.9	143.9
378.15	1447.8	146.2
378.15	1445.5	146
378.15	1438.6	145.3
378.15	1432.5	144.7
383.15	1456.2	147.1
383.15	1454.7	146.9
383.15	1447	146.1
383.15	1441.7	145.6
388.15	1464.6	147.9
388.15	1462.3	147.7
388.15	1455.4	147
388.15	1447.8	146.2
393.15	1472.2	148.7
393.15	1470	148.5
393.15	1463.8	147.8
393.15	1455.4	147
398.15	1479.9	149.5
398.15	1480.7	149.5
398.15	1470.7	148.5
398.15	1463.1	147.8
403.15	1487.5	150.2
403.15	1487.5	150.2
403.15	1478.4	149.3
403.15	1469.2	148.4
408.15	1494.4	150.9
408.15	1495.2	151
408.15	1485.2	150
408.15	1476.8	149.1
413.15	1503.6	151.9
413.15	1501.3	151.6
413.15	1492.9	150.8
413.15	1486	150.1
418.15	1511.2	152.6
418.15	1508.9	152.4
418.15	1500.5	151.5
418.15	1489.8	150.5
423.15	1517.3	153.2
423.15	1516.6	153.2
423.15	1508.2	152.3
423.15	1496.7	151.2
428.15	1527.3	154.2
428.15	1521.9	153.7
428.15	1515	153
428.15	1505.1	152
433.15	1533.4	154.9
433.15	1519.6	153.5
433.15	1509.7	152.5
438.15	1541	155.6
438.15	1547.1	156.2
438.15	1527.3	154.2
438.15	1517.3	153.2
443.15	1546.4	156.2
443.15	1544.8	156
443.15	1533.4	154.9
443.15	1519.6	153.5
448.15	1554.8	157
448.15	1548.6	156.4
448.15	1541	155.6
448.15	1527.3	154.2
453.15	1562.4	157.8
453.15	1557.8	157.3
453.15	1547.1	156.2
453.15	1531.8	154.7
458.15	1569.3	158.5
458.15	1561.6	157.7
458.15	1554	156.9
458.15	1538.7	155.4
463.15	1573.9	159
463.15	1567.7	158.3
463.15	1557.8	157.3
463.15	1543.3	155.9

System: trihexyl(tetradecyl)phosphonium tris(pentafluoroethyl)trifluorophosphate; phases: Liquid
Fixed: Pressure, kPa = 101.325
Property: Molar heat capacity at constant pressure, J/K/mol (Liquid); method: Small sample (50 mg) DSC
Temperature, K	Molar heat capacity at constant pressure, J/K/mol	uncertainty
338.15	1544.7	156
338.15	1540	155.5
338.15	1539.1	155.4
338.15	1543.8	155.9
343.15	1550.3	156.6
343.15	1546.5	156.2
343.15	1544.7	156
343.15	1547.5	156.3
348.15	1557.7	157.3
348.15	1554	156.9
348.15	1554.9	157
348.15	1556.8	157.2
353.15	1566.1	158.2
353.15	1563.3	157.9
353.15	1566.1	158.2
353.15	1566.1	158.2
358.15	1577.2	159.3
358.15	1574.4	159
358.15	1577.2	159.3
358.15	1577.2	159.3
363.15	1587.4	160.3
363.15	1583.7	159.9
363.15	1585.6	160.1
363.15	1583.7	159.9
368.15	1599.5	161.5
368.15	1593.9	161
368.15	1596.7	161.3
368.15	1594.8	161.1
373.15	1600.4	161.6
373.15	1602.3	161.8
373.15	1606.9	162.3
373.15	1604.1	162
378.15	1606.9	162.3
378.15	1615.3	163.1
378.15	1617.1	163.3
378.15	1613.4	162.9
383.15	1627.4	164.4
383.15	1625.5	164.2
383.15	1626.4	164.3
383.15	1622.7	163.9
388.15	1634.8	165.1
388.15	1634.8	165.1
388.15	1634.8	165.1
388.15	1634.8	165.1
393.15	1642.2	165.9
393.15	1648.7	166.5
393.15	1645	166.1
393.15	1644.1	166
398.15	1651.5	166.8
398.15	1652.4	166.9
398.15	1654.3	167.1
398.15	1649.6	166.6
403.15	1645.9	166.2
403.15	1662.7	167.9
403.15	1661.7	167.8
403.15	1660.8	167.7
408.15	1668.2	168.5
408.15	1668.2	168.5
408.15	1669.2	168.6
408.15	1669.2	168.6
413.15	1678.4	169.5
413.15	1678.4	169.5
413.15	1677.5	169.4
413.15	1678.4	169.5
418.15	1688.7	170.6
418.15	1685.9	170.3
418.15	1687.7	170.4
418.15	1688.7	170.6
423.15	1695.2	171.2
423.15	1693.3	171
423.15	1697.9	171.5
423.15	1697	171.4
428.15	1699.8	171.7
428.15	1700.7	171.8
428.15	1697.9	171.5
428.15	1702.6	172
433.15	1707.2	172.4
433.15	1711	172.8
433.15	1707.2	172.4
433.15	1711	172.8
438.15	1721.2	173.8
438.15	1724.9	174.2
438.15	1722.1	173.9
438.15	1718.4	173.5
443.15	1724	174.1
443.15	1732.3	175
443.15	1727.7	174.5
443.15	1721.2	173.8
448.15	1727.7	174.5
448.15	1740.7	175.8
448.15	1735.1	175.2
448.15	1728.6	174.6
453.15	1735.1	175.2
453.15	1747.2	176.5
453.15	1743.5	176.1
453.15	1734.2	175.1
458.15	1750	176.7
458.15	1753.7	177.1
458.15	1750	176.7
458.15	1739.7	175.7
463.15	1747.2	176.5
463.15	1756.5	177.4
463.15	1758.3	177.6
463.15	1746.2	176.4
468.15	1762	178
468.15	1759.3	177.7
468.15	1761.1	177.9
468.15	1749	176.6
473.15	1760.2	177.8
473.15	1763.9	178.1
473.15	1767.6	178.5
473.15	1755.5	177.3
478.15	1764.8	178.2
478.15	1767.6	178.5
478.15	1773.2	179.1
478.15	1771.3	178.9
483.15	1768.5	178.6
483.15	1776	179.4
483.15	1780.6	179.8
483.15	1776	179.4
488.15	1777.8	179.5
488.15	1786.2	180.4
488.15	1785.3	180.3
488.15	1771.3	178.9
493.15	1783.4	180.1
493.15	1786.2	180.4
493.15	1785.3	180.3
493.15	1771.3	178.9
498.15	1787.1	180.5
498.15	1789.9	180.8
498.15	1783.4	180.1
498.15	1784.3	180.2
503.15	1797.3	181.5
503.15	1802.9	182.1
503.15	1798.3	181.6
503.15	1789.9	180.8
508.15	1802	182
508.15	1805.7	182.4
508.15	1799.2	181.7
508.15	1797.3	181.5
513.15	1809.4	182.7
513.15	1803.8	182.2
513.15	1805.7	182.4

System: 1-ethyl-3-methylimidazolium bis((trifluoromethyl)sulfonyl)imide; phases: Liquid
Fixed: Pressure, kPa = 101.325
Property: Molar heat capacity at constant pressure, J/K/mol (Liquid); method: Small sample (50 mg) DSC
Temperature, K	Molar heat capacity at constant pressure, J/K/mol	uncertainty
343.15	531	53.6
343.15	533.4	53.9
343.15	533.7	53.9
348.15	531.8	53.7
348.15	534.1	53.9
348.15	534.9	54
353.15	533	53.8
353.15	536.1	54.1
353.15	536.1	54.1
358.15	534.9	54
358.15	537.3	54.3
358.15	537.7	54.3
363.15	536.1	54.1
363.15	538.4	54.4
363.15	539.2	54.5
368.15	537.7	54.3
368.15	539.6	54.5
368.15	540.4	54.6
373.15	538.8	54.4
373.15	541.6	54.7
373.15	542.4	54.8
378.15	540.8	54.6
378.15	542.7	54.8
378.15	543.5	54.9
383.15	541.6	54.7
383.15	543.9	54.9
383.15	543.9	54.9
388.15	542.7	54.8
388.15	545.1	55.1
388.15	545.5	55.1
393.15	544.7	55
393.15	546.7	55.2
393.15	546.7	55.2
398.15	545.5	55.1
398.15	547.4	55.3
398.15	548.2	55.4
403.15	547.4	55.3
403.15	549.4	55.5
403.15	549.4	55.5
408.15	548.6	55.4
408.15	550.2	55.6
408.15	549.8	55.5
413.15	549.4	55.5
413.15	552.1	55.8
413.15	550.2	55.6
418.15	550.6	55.6
418.15	552.5	55.8
418.15	551.7	55.7
423.15	551.4	55.7
423.15	552.9	55.8
423.15	552.5	55.8
428.15	552.1	55.8
428.15	553.7	55.9
428.15	552.9	55.8
433.15	552.5	55.8
433.15	554.9	56
433.15	555.3	56.1
438.15	554.1	56
438.15	556.1	56.2
438.15	555.7	56.1
443.15	554.9	56
443.15	556.4	56.2
443.15	556.1	56.2
448.15	555.7	56.1
448.15	557.2	56.3
448.15	557.2	56.3
453.15	556.4	56.2
453.15	558.4	56.4
453.15	556.8	56.2
458.15	557.6	56.3
458.15	558.4	56.4
458.15	558	56.4
463.15	557.6	56.3
463.15	558.8	56.4
463.15	558.8	56.4
