Measured thermophysical data. Thermophysical and spectroscopic studies of room temperature ionic liquid,  1-butyl-3-methylimidazolium hexafluorophosphate in Tritons
Source: J. Chem. Thermodyn., 2012, 10.1016/j.jct.2012.01.028
Compound 1: 1-butyl-3-methylimidazolium hexafluorophosphate, C8H15F6N2P, InChI=1S/C8H15N2.F6P/c1-3-4-5-10-7-6-9(2)8-10;1-7(2,3,4,5)6/h6-8H,3-5H2,1-2H3;/q+1;-1, purity 97%

System: 1-butyl-3-methylimidazolium hexafluorophosphate; phases: Liquid
Fixed: Pressure, kPa = 101.325
Property: Electrical conductivity, S/m (Liquid); method: Alternating current cell with electrodes
Temperature, K	Electrical conductivity, S/m	uncertainty
293.15	0.1368	0.0082
298.15	0.1828	0.011
303.15	0.2238	0.0134
308.15	0.2666	0.016
313.15	0.314	0.0188
318.15	0.384	0.023
323.15	0.459	0.0275

System: 1-butyl-3-methylimidazolium hexafluorophosphate; phases: Liquid
Fixed: Pressure, kPa = 101.325
Property: Speed of sound, m/s (Liquid); method: Sing-around technique in a fixed-path interferometer
Temperature, K	Speed of sound, m/s	uncertainty
293.15	1454.93	3.15
298.15	1442.64	3.15
303.15	1430.7	3.15
308.15	1419.03	3.14
313.15	1407.59	3.14
318.15	1396.32	3.14
323.15	1385.15	3.14

System: 1-butyl-3-methylimidazolium hexafluorophosphate; phases: Liquid
Fixed: Pressure, kPa = 101.325
Property: Mass density, kg/m3 (Liquid); method: Vibrating tube method
Temperature, K	Mass density, kg/m3	uncertainty
293.15	1371.611	4.73
298.15	1367.651	4.702
303.15	1363.13	4.671
308.15	1359.04	4.642
313.15	1354.935	4.613
318.15	1350.829	4.585
323.15	1346.721	4.556
