Measured thermophysical data. Volumetric and ultrasonic studies on interactions of ethylene glycol, diethylene glycol and triethylene glycol in aqueous solutions of glycerol at temperatures T = (293.15 K - 308.15) K
Source: J. Chem. Thermodyn., 2018, 10.1016/j.jct.2018.05.016
Compound 1: 1,2-ethanediol, C2H6O2, InChI=1S/C2H6O2/c3-1-2-4/h3-4H,1-2H2, purity 99%
Compound 2: diethylene glycol, C4H10O3, InChI=1S/C4H10O3/c5-1-3-7-4-2-6/h5-6H,1-4H2, purity 98.5%
Compound 3: triethylene glycol, C6H14O4, InChI=1S/C6H14O4/c7-1-3-9-5-6-10-4-2-8/h7-8H,1-6H2, purity 99%
Compound 4: glycerol, C3H8O3, InChI=1S/C3H8O3/c4-1-3(6)2-5/h3-6H,1-2H2, purity 99%
Compound 5: water, H2O, InChI=1S/H2O/h1H2

System: glycerol + water + 1,2-ethanediol; phases: Liquid
Fixed: Pressure, kPa = 100
Property: Mass density, kg/m3 (Liquid); method: Vibrating tube method
Temperature, K	Solvent: Molality, mol/kg of glycerol	Molality, mol/kg of 1,2-ethanediol	Mass density, kg/m3	uncertainty
293.15	0	0	998.21	0.33
293.15	0	0.09889	999.06	0.33
293.15	0	0.19894	999.88	0.33
293.15	0	0.29967	1000.68	0.33
293.15	0	0.39481	1001.41	0.33
293.15	0	0.50155	1002.2	0.33
298.15	0	0	997.05	0.33
298.15	0	0.09889	997.88	0.33
298.15	0	0.19894	998.69	0.33
298.15	0	0.29967	999.47	0.33
298.15	0	0.39481	1000.18	0.33
298.15	0	0.50155	1000.96	0.33
303.15	0	0	995.66	0.33
303.15	0	0.09889	996.47	0.33
303.15	0	0.19894	997.26	0.33
303.15	0	0.29967	998.03	0.33
303.15	0	0.39481	998.73	0.33
303.15	0	0.50155	999.48	0.33
308.15	0	0	994.04	0.33
308.15	0	0.09889	994.84	0.33
308.15	0	0.19894	995.61	0.33
308.15	0	0.29967	996.36	0.33
308.15	0	0.39481	997.04	0.33
308.15	0	0.50155	997.76	0.33
293.15	0.01	0	998.45	0.33
293.15	0.01	0.10554	999.35	0.33
293.15	0.01	0.1995	1000.11	0.33
293.15	0.01	0.30122	1000.92	0.33
293.15	0.01	0.38815	1001.57	0.33
293.15	0.01	0.49426	1002.34	0.33
298.15	0.01	0	997.31	0.33
298.15	0.01	0.10554	998.19	0.33
298.15	0.01	0.1995	998.94	0.33
298.15	0.01	0.30122	999.72	0.33
298.15	0.01	0.38815	1000.37	0.33
298.15	0.01	0.49426	1001.13	0.33
303.15	0.01	0	995.87	0.33
303.15	0.01	0.10554	996.73	0.33
303.15	0.01	0.1995	997.47	0.33
303.15	0.01	0.30122	998.23	0.33
303.15	0.01	0.38815	998.87	0.33
303.15	0.01	0.49426	999.61	0.33
308.15	0.01	0	994.25	0.33
308.15	0.01	0.10554	995.1	0.33
308.15	0.01	0.1995	995.82	0.33
308.15	0.01	0.30122	996.57	0.33
308.15	0.01	0.38815	997.18	0.33
308.15	0.01	0.49426	997.9	0.33
293.15	0.03	0	998.87	0.33
293.15	0.03	0.09813	999.68	0.33
293.15	0.03	0.19827	1000.46	0.33
293.15	0.03	0.30069	1001.24	0.33
293.15	0.03	0.39774	1001.95	0.33
293.15	0.03	0.4963	1002.66	0.33
298.15	0.03	0	997.71	0.33
298.15	0.03	0.09813	998.49	0.33
298.15	0.03	0.19827	999.26	0.33
298.15	0.03	0.30069	1000.02	0.33
298.15	0.03	0.39774	1000.7	0.33
298.15	0.03	0.4963	1001.39	0.33
303.15	0.03	0	996.3	0.33
303.15	0.03	0.09813	997.07	0.33
303.15	0.03	0.19827	997.83	0.33
303.15	0.03	0.30069	998.57	0.33
303.15	0.03	0.39774	999.25	0.33
303.15	0.03	0.4963	999.93	0.33
308.15	0.03	0	994.68	0.33
308.15	0.03	0.09813	995.44	0.33
308.15	0.03	0.19827	996.17	0.33
308.15	0.03	0.30069	996.89	0.33
308.15	0.03	0.39774	997.55	0.33
308.15	0.03	0.4963	998.21	0.33
293.15	0.05	0	999.29	0.33
293.15	0.05	0.09871	1000.07	0.33
293.15	0.05	0.20179	1000.86	0.33
293.15	0.05	0.30048	1001.59	0.33
293.15	0.05	0.40056	1002.32	0.33
293.15	0.05	0.49986	1003.03	0.33
298.15	0.05	0	998.12	0.33
298.15	0.05	0.09871	998.88	0.33
298.15	0.05	0.20179	999.66	0.33
298.15	0.05	0.30048	1000.38	0.33
298.15	0.05	0.40056	1001.09	0.33
298.15	0.05	0.49986	1001.78	0.33
303.15	0.05	0	996.72	0.33
303.15	0.05	0.09871	997.47	0.33
303.15	0.05	0.20179	998.23	0.33
303.15	0.05	0.30048	998.94	0.33
303.15	0.05	0.40056	999.63	0.33
303.15	0.05	0.49986	1000.31	0.33
308.15	0.05	0	995.09	0.33
308.15	0.05	0.09871	995.83	0.33
308.15	0.05	0.20179	996.57	0.33
308.15	0.05	0.30048	997.26	0.33
308.15	0.05	0.40056	997.94	0.33
308.15	0.05	0.49986	998.59	0.33

System: glycerol + water + 1,2-ethanediol; phases: Liquid
Fixed: Pressure, kPa = 100
Fixed: Frequency, MHz = 3
Property: Speed of sound, m/s (Liquid); method: Single path-length method
Temperature, K	Solvent: Molality, mol/kg of glycerol	Molality, mol/kg of 1,2-ethanediol	Speed of sound, m/s	uncertainty
293.15	0	0	1482.3	2.1
293.15	0	0.09889	1485.3	2.1
293.15	0	0.19894	1488.3	2.1
293.15	0	0.29967	1491.2	2.1
293.15	0	0.39481	1493.9	2.1
293.15	0	0.50155	1496.8	2.2
298.15	0	0	1495.9	2.1
298.15	0	0.09889	1498.9	2.1
298.15	0	0.19894	1501.7	2.1
298.15	0	0.29967	1504.3	2.1
298.15	0	0.39481	1506.6	2.1
298.15	0	0.50155	1509.1	2.1
303.15	0	0	1508.5	2.1
303.15	0	0.09889	1511.1	2.1
303.15	0	0.19894	1513.8	2.1
303.15	0	0.29967	1516.2	2.1
303.15	0	0.39481	1518.7	2.1
303.15	0	0.50155	1521.2	2.1
308.15	0	0	1519.1	2.1
308.15	0	0.09889	1521.8	2.1
308.15	0	0.19894	1524	2.1
308.15	0	0.29967	1526.2	2.1
308.15	0	0.39481	1528.3	2.1
308.15	0	0.50155	1530.3	2.1
293.15	0.01	0	1483.2	2.1
293.15	0.01	0.09871	1486.3	2.1
293.15	0.01	0.20179	1489	2.1
293.15	0.01	0.30048	1491.9	2.1
293.15	0.01	0.40056	1494.2	2.1
293.15	0.01	0.49986	1497.2	2.2
298.15	0.01	0	1497	2.1
298.15	0.01	0.09871	1500.1	2.1
298.15	0.01	0.20179	1502.5	2.1
298.15	0.01	0.30048	1505	2.1
298.15	0.01	0.40056	1507.2	2.1
298.15	0.01	0.49986	1509.7	2.1
303.15	0.01	0	1509.3	2.1
303.15	0.01	0.09871	1512	2.1
303.15	0.01	0.20179	1514.4	2.1
303.15	0.01	0.30048	1516.8	2.1
303.15	0.01	0.40056	1519	2.1
303.15	0.01	0.49986	1521.6	2.1
308.15	0.01	0	1519.9	2.1
308.15	0.01	0.09871	1522.6	2.1
308.15	0.01	0.20179	1524.6	2.1
308.15	0.01	0.30048	1526.8	2.1
308.15	0.01	0.40056	1528.8	2.1
308.15	0.01	0.49986	1530.9	2.1
293.15	0.03	0	1484	2.1
293.15	0.03	0.09813	1486.8	2.1
293.15	0.03	0.19827	1489.8	2.1
293.15	0.03	0.30069	1492.5	2.1
293.15	0.03	0.39774	1495.4	2.1
293.15	0.03	0.4963	1497.9	2.1
298.15	0.03	0	1497.8	2.1
298.15	0.03	0.09813	1500.6	2.1
298.15	0.03	0.19827	1503.1	2.1
298.15	0.03	0.30069	1505.7	2.1
298.15	0.03	0.39774	1508.3	2.1
298.15	0.03	0.4963	1510.7	2.1
303.15	0.03	0	1510	2.1
303.15	0.03	0.09813	1512.5	2.1
303.15	0.03	0.19827	1515	2.1
303.15	0.03	0.30069	1517.4	2.1
303.15	0.03	0.39774	1519.8	2.1
303.15	0.03	0.4963	1522.2	2.1
308.15	0.03	0	1520.6	2.1
308.15	0.03	0.09813	1523	2.1
308.15	0.03	0.19827	1525.2	2.1
308.15	0.03	0.30069	1527.4	2.1
308.15	0.03	0.39774	1529.6	2.1
308.15	0.03	0.4963	1531.6	2.1
293.15	0.05	0	1484.8	2.1
293.15	0.05	0.09871	1487.7	2.1
293.15	0.05	0.20179	1490.6	2.1
293.15	0.05	0.30048	1493.5	2.1
293.15	0.05	0.40056	1496.3	2.1
293.15	0.05	0.49986	1499	2.2
298.15	0.05	0	1498.6	2.1
298.15	0.05	0.09871	1501.3	2.1
298.15	0.05	0.20179	1504	2.1
298.15	0.05	0.30048	1506.6	2.1
298.15	0.05	0.40056	1509.4	2.1
298.15	0.05	0.49986	1511.7	2.1
303.15	0.05	0	1510.7	2.1
303.15	0.05	0.09871	1513.2	2.1
303.15	0.05	0.20179	1515.8	2.1
303.15	0.05	0.30048	1518.2	2.1
303.15	0.05	0.40056	1520.8	2.1
303.15	0.05	0.49986	1522.9	2.1
308.15	0.05	0	1521.2	2.1
308.15	0.05	0.09871	1523.5	2.1
308.15	0.05	0.20179	1525.9	2.1
308.15	0.05	0.30048	1528.2	2.1
308.15	0.05	0.40056	1530.5	2.1
308.15	0.05	0.49986	1532.5	2.1

System: glycerol + water + diethylene glycol; phases: Liquid
Fixed: Pressure, kPa = 100
Property: Mass density, kg/m3 (Liquid); method: Vibrating tube method
Temperature, K	Solvent: Molality, mol/kg of glycerol	Molality, mol/kg of diethylene glycol	Mass density, kg/m3	uncertainty
293.15	0	0	998.21	0.35
293.15	0	0.09849	999.65	0.35
293.15	0	0.19736	1001.03	0.35
293.15	0	0.29505	1002.36	0.36
293.15	0	0.41013	1003.86	0.36
293.15	0	0.50063	1004.99	0.37
298.15	0	0	997.05	0.35
298.15	0	0.09849	998.46	0.35
298.15	0	0.19736	999.78	0.35
298.15	0	0.29505	1001.03	0.36
298.15	0	0.41013	1002.49	0.36
298.15	0	0.50063	1003.59	0.37
303.15	0	0	995.66	0.35
303.15	0	0.09849	997.07	0.35
303.15	0	0.19736	998.39	0.35
303.15	0	0.29505	999.64	0.35
303.15	0	0.41013	1001.05	0.36
303.15	0	0.50063	1002.15	0.37
308.15	0	0	994.04	0.35
308.15	0	0.09849	995.44	0.35
308.15	0	0.19736	996.78	0.35
308.15	0	0.29505	998.05	0.35
308.15	0	0.41013	999.47	0.36
308.15	0	0.50063	1000.53	0.37
293.15	0.01	0	998.45	0.35
293.15	0.01	0.09949	999.88	0.35
293.15	0.01	0.1989	1001.26	0.35
293.15	0.01	0.31059	1002.77	0.36
293.15	0.01	0.38936	1003.8	0.36
293.15	0.01	0.50142	1005.22	0.37
298.15	0.01	0	997.31	0.35
298.15	0.01	0.09949	998.68	0.35
298.15	0.01	0.1989	1000.02	0.35
298.15	0.01	0.31059	1001.48	0.36
298.15	0.01	0.38936	1002.46	0.36
298.15	0.01	0.50142	1003.83	0.37
303.15	0.01	0	995.87	0.35
303.15	0.01	0.09949	997.28	0.35
303.15	0.01	0.1989	998.63	0.35
303.15	0.01	0.31059	1000.04	0.36
303.15	0.01	0.38936	1001	0.36
303.15	0.01	0.50142	1002.35	0.37
308.15	0.01	0	994.25	0.35
308.15	0.01	0.09949	995.63	0.35
308.15	0.01	0.1989	996.98	0.35
308.15	0.01	0.31059	998.4	0.36
308.15	0.01	0.38936	999.39	0.36
308.15	0.01	0.50142	1000.69	0.37
293.15	0.03	0	998.87	0.35
293.15	0.03	0.10019	1000.27	0.35
293.15	0.03	0.19894	1001.62	0.35
293.15	0.03	0.2889	1002.8	0.36
293.15	0.03	0.39933	1004.21	0.36
293.15	0.03	0.50046	1005.46	0.37
298.15	0.03	0	997.71	0.35
298.15	0.03	0.10019	999.08	0.35
298.15	0.03	0.19894	1000.39	0.35
298.15	0.03	0.2889	1001.55	0.36
298.15	0.03	0.39933	1002.9	0.36
298.15	0.03	0.50046	1004.08	0.37
303.15	0.03	0	996.3	0.35
303.15	0.03	0.10019	997.67	0.35
303.15	0.03	0.19894	998.95	0.35
303.15	0.03	0.2889	1000.08	0.35
303.15	0.03	0.39933	1001.42	0.36
303.15	0.03	0.50046	1002.65	0.37
308.15	0.03	0	994.68	0.35
308.15	0.03	0.10019	996.03	0.35
308.15	0.03	0.19894	997.31	0.35
308.15	0.03	0.2889	998.44	0.35
308.15	0.03	0.39933	999.77	0.36
308.15	0.03	0.50046	1000.97	0.37
293.15	0.05	0	999.29	0.35
293.15	0.05	0.09939	1000.66	0.35
293.15	0.05	0.19981	1001.99	0.35
293.15	0.05	0.29813	1003.29	0.36
293.15	0.05	0.40035	1004.61	0.36
293.15	0.05	0.50015	1005.87	0.37
298.15	0.05	0	998.12	0.35
298.15	0.05	0.09939	999.45	0.35
298.15	0.05	0.19981	1000.78	0.35
298.15	0.05	0.29813	1002.02	0.36
298.15	0.05	0.40035	1003.29	0.36
298.15	0.05	0.50015	1004.47	0.37
303.15	0.05	0	996.72	0.35
303.15	0.05	0.09939	998.03	0.35
303.15	0.05	0.19981	999.32	0.35
303.15	0.05	0.29813	1000.54	0.36
303.15	0.05	0.40035	1001.77	0.36
303.15	0.05	0.50015	1002.96	0.37
308.15	0.05	0	995.09	0.35
308.15	0.05	0.09939	996.39	0.35
308.15	0.05	0.19981	997.68	0.35
308.15	0.05	0.29813	998.88	0.35
308.15	0.05	0.40035	1000.12	0.36
308.15	0.05	0.50015	1001.29	0.37

System: glycerol + water + diethylene glycol; phases: Liquid
Fixed: Pressure, kPa = 100
Fixed: Frequency, MHz = 3
Property: Speed of sound, m/s (Liquid); method: Single path-length method
Temperature, K	Solvent: Molality, mol/kg of glycerol	Molality, mol/kg of diethylene glycol	Speed of sound, m/s	uncertainty
293.15	0	0	1482.3	2.2
293.15	0	0.09849	1487.7	2.2
293.15	0	0.19736	1493.1	2.2
293.15	0	0.29505	1498.1	2.2
293.15	0	0.41013	1504.1	2.2
293.15	0	0.50063	1508.3	2.2
298.15	0	0	1495.9	2.2
298.15	0	0.09849	1501.2	2.2
298.15	0	0.19736	1506	2.2
298.15	0	0.29505	1510.8	2.2
298.15	0	0.41013	1516.2	2.2
298.15	0	0.50063	1520.3	2.2
303.15	0	0	1508.5	2.2
303.15	0	0.09849	1513.1	2.2
303.15	0	0.19736	1517.6	2.2
303.15	0	0.29505	1522	2.2
303.15	0	0.41013	1526.9	2.2
303.15	0	0.50063	1530.6	2.2
308.15	0	0	1519.1	2.2
308.15	0	0.09849	1523.5	2.2
308.15	0	0.19736	1527.5	2.2
308.15	0	0.29505	1531.5	2.2
308.15	0	0.41013	1536.1	2.2
308.15	0	0.50063	1541.6	2.3
293.15	0.01	0	1483.2	2.2
293.15	0.01	0.09949	1488.5	2.2
293.15	0.01	0.1989	1493.9	2.2
293.15	0.01	0.31059	1499.6	2.2
293.15	0.01	0.38936	1503.7	2.2
293.15	0.01	0.50142	1509.2	2.2
298.15	0.01	0	1497	2.2
298.15	0.01	0.09949	1502	2.2
298.15	0.01	0.1989	1506.7	2.2
298.15	0.01	0.31059	1512.2	2.2
298.15	0.01	0.38936	1515.8	2.2
298.15	0.01	0.50142	1521	2.2
303.15	0.01	0	1509.3	2.2
303.15	0.01	0.09949	1513.9	2.2
303.15	0.01	0.1989	1518.3	2.2
303.15	0.01	0.31059	1523.3	2.2
303.15	0.01	0.38936	1526.6	2.2
303.15	0.01	0.50142	1531.4	2.2
308.15	0.01	0	1519.9	2.2
308.15	0.01	0.09949	1524.2	2.2
308.15	0.01	0.1989	1528.2	2.2
308.15	0.01	0.31059	1532.7	2.2
308.15	0.01	0.38936	1535.9	2.2
308.15	0.01	0.50142	1540.3	2.2
293.15	0.03	0	1484	2.2
293.15	0.03	0.10019	1489.3	2.2
293.15	0.03	0.19894	1494.5	2.2
293.15	0.03	0.2889	1499.2	2.2
293.15	0.03	0.39933	1504.7	2.2
293.15	0.03	0.50046	1509.8	2.3
298.15	0.03	0	1497.8	2.2
298.15	0.03	0.10019	1502.7	2.2
298.15	0.03	0.19894	1507.5	2.2
298.15	0.03	0.2889	1511.8	2.2
298.15	0.03	0.39933	1517	2.2
298.15	0.03	0.50046	1521.6	2.2
303.15	0.03	0	1510	2.2
303.15	0.03	0.10019	1514.6	2.2
303.15	0.03	0.19894	1519	2.2
303.15	0.03	0.2889	1523	2.2
303.15	0.03	0.39933	1527.7	2.2
303.15	0.03	0.50046	1532	2.2
308.15	0.03	0	1520.6	2.2
308.15	0.03	0.10019	1524.8	2.2
308.15	0.03	0.19894	1528.9	2.2
308.15	0.03	0.2889	1532.5	2.2
308.15	0.03	0.39933	1536.9	2.2
308.15	0.03	0.50046	1540.8	2.2
293.15	0.05	0	1484.8	2.2
293.15	0.05	0.09939	1490	2.2
293.15	0.05	0.19981	1495.2	2.2
293.15	0.05	0.29813	1500.3	2.2
293.15	0.05	0.40035	1505.3	2.2
293.15	0.05	0.50015	1510.3	2.3
298.15	0.05	0	1498.6	2.2
298.15	0.05	0.09939	1503.4	2.2
298.15	0.05	0.19981	1508.2	2.2
298.15	0.05	0.29813	1512.8	2.2
298.15	0.05	0.40035	1517.6	2.2
298.15	0.05	0.50015	1522.1	2.2
303.15	0.05	0	1510.7	2.2
303.15	0.05	0.09939	1515.3	2.2
303.15	0.05	0.19981	1519.6	2.2
303.15	0.05	0.29813	1523.9	2.2
303.15	0.05	0.40035	1528.3	2.2
303.15	0.05	0.50015	1532.4	2.2
308.15	0.05	0	1521.2	2.2
308.15	0.05	0.09939	1525.5	2.2
308.15	0.05	0.19981	1529.5	2.2
308.15	0.05	0.29813	1533.5	2.2
308.15	0.05	0.40035	1537.5	2.2
308.15	0.05	0.50015	1541.3	2.2

System: glycerol + water + triethylene glycol; phases: Liquid
Fixed: Pressure, kPa = 100
Property: Mass density, kg/m3 (Liquid); method: Vibrating tube method
Temperature, K	Solvent: Molality, mol/kg of glycerol	Molality, mol/kg of triethylene glycol	Mass density, kg/m3	uncertainty
293.15	0	0	998.21	0.33
293.15	0	0.0965	1000.31	0.33
293.15	0	0.2002	1002.46	0.34
293.15	0	0.29205	1004.29	0.35
293.15	0	0.39856	1006.36	0.36
293.15	0	0.49879	1008.22	0.38
298.15	0	0	997.05	0.33
298.15	0	0.0965	999.13	0.33
298.15	0	0.2002	1001.27	0.34
298.15	0	0.29205	1003.11	0.35
298.15	0	0.39856	1005.14	0.36
298.15	0	0.49879	1006.99	0.37
303.15	0	0	995.66	0.33
303.15	0	0.0965	997.73	0.33
303.15	0	0.2002	999.86	0.33
303.15	0	0.29205	1001.67	0.34
303.15	0	0.39856	1003.69	0.36
303.15	0	0.49879	1005.54	0.37
308.15	0	0	994.04	0.33
308.15	0	0.0965	996.1	0.33
308.15	0	0.2002	998.22	0.33
308.15	0	0.29205	1000.01	0.34
308.15	0	0.39856	1002.03	0.36
308.15	0	0.49879	1003.85	0.37
293.15	0.01	0	998.45	0.33
293.15	0.01	0.09918	1000.59	0.33
293.15	0.01	0.20037	1002.69	0.34
293.15	0.01	0.30083	1004.69	0.35
293.15	0.01	0.40057	1006.6	0.36
293.15	0.01	0.49903	1008.43	0.38
298.15	0.01	0	997.31	0.33
298.15	0.01	0.09918	999.43	0.33
298.15	0.01	0.20037	1001.51	0.34
298.15	0.01	0.30083	1003.49	0.35
298.15	0.01	0.40057	1005.36	0.36
298.15	0.01	0.49903	1007.16	0.37
303.15	0.01	0	995.87	0.33
303.15	0.01	0.09918	997.98	0.33
303.15	0.01	0.20037	1000.05	0.33
303.15	0.01	0.30083	1002.02	0.35
303.15	0.01	0.40057	1003.91	0.36
303.15	0.01	0.49903	1005.71	0.37
308.15	0.01	0	994.25	0.33
308.15	0.01	0.09918	996.35	0.33
308.15	0.01	0.20037	998.41	0.33
308.15	0.01	0.30083	1000.36	0.34
308.15	0.01	0.40057	1002.22	0.36
308.15	0.01	0.49903	1003.99	0.37
293.15	0.03	0	998.87	0.33
293.15	0.03	0.09994	1000.98	0.33
293.15	0.03	0.20031	1003.02	0.34
293.15	0.03	0.2998	1004.97	0.35
293.15	0.03	0.39952	1006.87	0.36
293.15	0.03	0.50056	1008.8	0.38
298.15	0.03	0	997.71	0.33
298.15	0.03	0.09994	999.81	0.33
298.15	0.03	0.20031	1001.84	0.34
298.15	0.03	0.2998	1003.77	0.35
298.15	0.03	0.39952	1005.63	0.36
298.15	0.03	0.50056	1007.49	0.38
303.15	0.03	0	996.3	0.33
303.15	0.03	0.09994	998.39	0.33
303.15	0.03	0.20031	1000.4	0.33
303.15	0.03	0.2998	1002.38	0.35
303.15	0.03	0.39952	1004.25	0.36
303.15	0.03	0.50056	1006.14	0.37
308.15	0.03	0	994.68	0.33
308.15	0.03	0.09994	996.76	0.33
308.15	0.03	0.20031	998.77	0.33
308.15	0.03	0.2998	1000.73	0.34
308.15	0.03	0.39952	1002.58	0.36
308.15	0.03	0.50056	1004.42	0.37
293.15	0.05	0	999.29	0.33
293.15	0.05	0.10034	1001.37	0.33
293.15	0.05	0.2007	1003.39	0.34
293.15	0.05	0.29991	1005.37	0.35
293.15	0.05	0.39955	1007.3	0.36
293.15	0.05	0.50015	1009.18	0.38
298.15	0.05	0	998.12	0.33
298.15	0.05	0.10034	1000.19	0.33
298.15	0.05	0.2007	1002.23	0.34
298.15	0.05	0.29991	1004.15	0.35
298.15	0.05	0.39955	1006	0.36
298.15	0.05	0.50015	1007.82	0.37
303.15	0.05	0	996.72	0.33
303.15	0.05	0.10034	998.78	0.33
303.15	0.05	0.2007	1000.77	0.34
303.15	0.05	0.29991	1002.72	0.35
303.15	0.05	0.39955	1004.62	0.36
303.15	0.05	0.50015	1006.45	0.37
308.15	0.05	0	995.09	0.33
308.15	0.05	0.10034	997.14	0.33
308.15	0.05	0.2007	999.16	0.34
308.15	0.05	0.29991	1001.11	0.35
308.15	0.05	0.39955	1002.95	0.36
308.15	0.05	0.50015	1004.79	0.37

System: glycerol + water + triethylene glycol; phases: Liquid
Fixed: Pressure, kPa = 100
Fixed: Frequency, MHz = 3
Property: Speed of sound, m/s (Liquid); method: Single path-length method
Temperature, K	Solvent: Molality, mol/kg of glycerol	Molality, mol/kg of triethylene glycol	Speed of sound, m/s	uncertainty
293.15	0	0	1482.3	2.1
293.15	0	0.0965	1489.9	2.1
293.15	0	0.2002	1498	2.2
293.15	0	0.29205	1504.8	2.2
293.15	0	0.39856	1513.1	2.2
293.15	0	0.49879	1520.5	2.3
298.15	0	0	1495.9	2.1
298.15	0	0.0965	1503.5	2.1
298.15	0	0.2002	1511	2.2
298.15	0	0.29205	1517.6	2.2
298.15	0	0.39856	1525.4	2.2
298.15	0	0.49879	1532.2	2.2
303.15	0	0	1508.5	2.1
303.15	0	0.0965	1514.9	2.1
303.15	0	0.2002	1521.8	2.2
303.15	0	0.29205	1528	2.2
303.15	0	0.39856	1535.1	2.2
303.15	0	0.49879	1541.7	2.2
308.15	0	0	1519.1	2.1
308.15	0	0.0965	1525.1	2.1
308.15	0	0.2002	1531.3	2.1
308.15	0	0.29205	1536.9	2.2
308.15	0	0.39856	1543.3	2.2
308.15	0	0.49879	1550.9	2.3
293.15	0.01	0	1483.2	2.1
293.15	0.01	0.09918	1491.3	2.1
293.15	0.01	0.20037	1499.2	2.2
293.15	0.01	0.30083	1506.6	2.2
293.15	0.01	0.40057	1514.4	2.2
293.15	0.01	0.49903	1521.8	2.3
298.15	0.01	0	1497	2.1
298.15	0.01	0.09918	1504.4	2.1
298.15	0.01	0.20037	1511.7	2.2
298.15	0.01	0.30083	1519	2.2
298.15	0.01	0.40057	1526.3	2.2
298.15	0.01	0.49903	1532.9	2.2
303.15	0.01	0	1509.3	2.1
303.15	0.01	0.09918	1515.8	2.1
303.15	0.01	0.20037	1522.6	2.2
303.15	0.01	0.30083	1529.4	2.2
303.15	0.01	0.40057	1536	2.2
303.15	0.01	0.49903	1542.5	2.2
308.15	0.01	0	1519.9	2.1
308.15	0.01	0.09918	1526.1	2.1
308.15	0.01	0.20037	1532.2	2.1
308.15	0.01	0.30083	1538.4	2.2
308.15	0.01	0.40057	1544.4	2.2
308.15	0.01	0.49903	1550.5	2.2
293.15	0.03	0	1484	2.1
293.15	0.03	0.09994	1492.8	2.1
293.15	0.03	0.20031	1500.4	2.2
293.15	0.03	0.2998	1507.9	2.2
293.15	0.03	0.39952	1515.6	2.2
293.15	0.03	0.50056	1523.2	2.3
298.15	0.03	0	1497.8	2.1
298.15	0.03	0.09994	1505.4	2.1
298.15	0.03	0.20031	1512.7	2.2
298.15	0.03	0.2998	1519.9	2.2
298.15	0.03	0.39952	1527.1	2.2
298.15	0.03	0.50056	1534	2.2
303.15	0.03	0	1510	2.1
303.15	0.03	0.09994	1517.1	2.1
303.15	0.03	0.20031	1523.8	2.2
303.15	0.03	0.2998	1530.4	2.2
303.15	0.03	0.39952	1537.1	2.2
303.15	0.03	0.50056	1543.5	2.2
308.15	0.03	0	1520.6	2.1
308.15	0.03	0.09994	1527.1	2.1
308.15	0.03	0.20031	1533.2	2.1
308.15	0.03	0.2998	1539.4	2.2
308.15	0.03	0.39952	1545.4	2.2
308.15	0.03	0.50056	1551.5	2.2
293.15	0.05	0	1484.8	2.1
293.15	0.05	0.10034	1493.1	2.1
293.15	0.05	0.2007	1501.2	2.2
293.15	0.05	0.29991	1509.3	2.2
293.15	0.05	0.39955	1517	2.2
293.15	0.05	0.50015	1524.4	2.3
298.15	0.05	0	1498.6	2.1
298.15	0.05	0.10034	1506.2	2.1
298.15	0.05	0.2007	1513.5	2.2
298.15	0.05	0.29991	1520.7	2.2
298.15	0.05	0.39955	1527.9	2.2
298.15	0.05	0.50015	1535	2.2
303.15	0.05	0	1510.7	2.1
303.15	0.05	0.10034	1518.1	2.1
303.15	0.05	0.2007	1524.8	2.2
303.15	0.05	0.29991	1531.3	2.2
303.15	0.05	0.39955	1537.9	2.2
303.15	0.05	0.50015	1544.3	2.2
308.15	0.05	0	1521.2	2.1
308.15	0.05	0.10034	1527.8	2.1
308.15	0.05	0.2007	1534	2.1
308.15	0.05	0.29991	1540.2	2.2
308.15	0.05	0.39955	1546.2	2.2
308.15	0.05	0.50015	1552.4	2.2

System: water + 1,2-ethanediol; phases: Liquid
Fixed: Pressure, kPa = 100
Property: Mass density, kg/m3 (Liquid); method: Vibrating tube method
Temperature, K	Molality, mol/kg of 1,2-ethanediol	Mass density, kg/m3	uncertainty
293.15	0.09889	999.06	0.3
293.15	0.19894	999.88	0.3
293.15	0.29967	1000.68	0.31
293.15	0.39481	1001.41	0.31
293.15	0.50155	1002.2	0.31
303.15	0.09889	996.47	0.3
303.15	0.19894	997.26	0.3
303.15	0.29967	998.03	0.31
303.15	0.39481	998.73	0.31
303.15	0.50155	999.48	0.31
293.15	0	998.21	0.3
303.15	0	995.66	0.3

System: water + 1,2-ethanediol; phases: Liquid
Fixed: Pressure, kPa = 100
Fixed: Frequency, MHz = 3
Property: Speed of sound, m/s (Liquid); method: Single path-length method
Temperature, K	Molality, mol/kg of 1,2-ethanediol	Speed of sound, m/s	uncertainty
293.15	0.09889	1485.3	2
293.15	0.19894	1488.3	2
293.15	0.29967	1491.2	2
293.15	0.39481	1493.9	2
293.15	0.50155	1496.8	2
303.15	0.09889	1511.1	2
303.15	0.19894	1513.8	2
303.15	0.29967	1516.2	2
303.15	0.39481	1518.7	2
303.15	0.50155	1521.2	2
293.15	0	1482.3	2
303.15	0	1508.5	2

System: glycerol + water; phases: Liquid
Fixed: Pressure, kPa = 100
Property: Mass density, kg/m3 (Liquid); method: Vibrating tube method
Temperature, K	Molality, mol/kg of glycerol	Mass density, kg/m3	uncertainty
293.15	0.01	998.45	0.3
298.15	0.01	997.31	0.3
303.15	0.01	995.87	0.3
308.15	0.01	994.25	0.3
293.15	0.03	998.87	0.3
298.15	0.03	997.71	0.3
303.15	0.03	996.3	0.3
308.15	0.03	994.68	0.3
293.15	0.05	999.29	0.3
298.15	0.05	998.12	0.3
303.15	0.05	996.72	0.3
308.15	0.05	995.09	0.3
293.15	0	998.21	0.3
298.15	0	997.05	0.3
303.15	0	995.66	0.3
308.15	0	994.04	0.3

System: glycerol + water; phases: Liquid
Fixed: Pressure, kPa = 100
Fixed: Frequency, MHz = 3
Property: Speed of sound, m/s (Liquid); method: Single path-length method
Temperature, K	Molality, mol/kg of glycerol	Speed of sound, m/s	uncertainty
293.15	0.01	1483.2	2
298.15	0.01	1497	2
303.15	0.01	1509.3	2
308.15	0.01	1519.9	2
293.15	0.03	1484	2
298.15	0.03	1497.8	2
303.15	0.03	1510	2
308.15	0.03	1520.6	2
293.15	0.05	1484.8	2
298.15	0.05	1498.6	2
303.15	0.05	1510.7	2
308.15	0.05	1521.2	2
293.15	0	1482.3	2
298.15	0	1495.9	2
303.15	0	1508.5	2
308.15	0	1519.1	2

System: water + diethylene glycol; phases: Liquid
Fixed: Pressure, kPa = 100
Property: Mass density, kg/m3 (Liquid); method: Vibrating tube method
Temperature, K	Molality, mol/kg of diethylene glycol	Mass density, kg/m3	uncertainty
293.15	0.09849	999.65	0.3
293.15	0.19736	1001.03	0.31
293.15	0.29505	1002.36	0.31
293.15	0.41013	1003.86	0.32
293.15	0.50063	1004.99	0.33
303.15	0.09849	997.07	0.3
303.15	0.19736	998.39	0.31
303.15	0.29505	999.64	0.31
303.15	0.41013	1001.05	0.32
303.15	0.50063	1002.15	0.32
293.15	0	998.21	0.3
303.15	0	995.66	0.3

System: water + diethylene glycol; phases: Liquid
Fixed: Pressure, kPa = 100
Fixed: Frequency, MHz = 3
Property: Speed of sound, m/s (Liquid); method: Single path-length method
Temperature, K	Molality, mol/kg of diethylene glycol	Speed of sound, m/s	uncertainty
293.15	0.09849	1487.7	2
293.15	0.19736	1493.1	2
293.15	0.29505	1498.1	2
293.15	0.41013	1504.1	2.1
293.15	0.50063	1508.3	2.1
303.15	0.09849	1513.1	2
303.15	0.19736	1517.6	2
303.15	0.29505	1522	2
303.15	0.41013	1526.9	2
303.15	0.50063	1530.6	2.1
293.15	0	1482.3	2
303.15	0	1508.5	2

System: water + triethylene glycol; phases: Liquid
Fixed: Pressure, kPa = 100
Property: Mass density, kg/m3 (Liquid); method: Vibrating tube method
Temperature, K	Molality, mol/kg of triethylene glycol	Mass density, kg/m3	uncertainty
293.15	0.0965	1000.31	0.31
293.15	0.2002	1002.46	0.31
293.15	0.29205	1004.29	0.32
293.15	0.39856	1006.36	0.34
293.15	0.49879	1008.22	0.36
303.15	0.0965	997.73	0.31
303.15	0.2002	999.86	0.31
303.15	0.29205	1001.67	0.32
303.15	0.39856	1003.69	0.34
303.15	0.49879	1005.54	0.35
293.15	0	998.21	0.3
303.15	0	995.66	0.3

System: water + triethylene glycol; phases: Liquid
Fixed: Pressure, kPa = 100
Fixed: Frequency, MHz = 3
Property: Speed of sound, m/s (Liquid); method: Single path-length method
Temperature, K	Molality, mol/kg of triethylene glycol	Speed of sound, m/s	uncertainty
293.15	0.0965	1489.9	2
293.15	0.2002	1498	2
293.15	0.29205	1504.8	2.1
293.15	0.39856	1513.1	2.1
293.15	0.49879	1520.5	2.2
303.15	0.0965	1514.9	2
303.15	0.2002	1521.8	2
303.15	0.29205	1528	2.1
303.15	0.39856	1535.1	2.1
303.15	0.49879	1541.7	2.1
293.15	0	1482.3	2
303.15	0	1508.5	2
