Measured thermophysical data. Measurements and equation-of-state modelling of thermodynamic properties of binary mixtures of 1-butyl-1-methylpyrrolidinium tetracyanoborate ionic liquid with molecular compounds
Source: J. Chem. Thermodyn., 2015, 10.1016/j.jct.2015.06.004
Compound 1: 1-butyl-1-methylpyrrolidinium tetracyanoborate, C13H20BN5, InChI=1S/C9H20N.C4BN4/c1-3-4-7-10(2)8-5-6-9-10;6-1-5(2-7,3-8)4-9/h3-9H2,1-2H3;/q+1;-1, purity 99%
Compound 2: heptane, C7H16, InChI=1S/C7H16/c1-3-5-7-6-4-2/h3-7H2,1-2H3, purity 99%
Compound 3: benzene, C6H6, InChI=1S/C6H6/c1-2-4-6-5-3-1/h1-6H, purity 99.7%
Compound 4: toluene, C7H8, InChI=1S/C7H8/c1-7-5-3-2-4-6-7/h2-6H,1H3, purity 99.5%
Compound 5: ethylbenzene, C8H10, InChI=1S/C8H10/c1-2-8-6-4-3-5-7-8/h3-7H,2H2,1H3, purity 99%
Compound 6: thiophene, C4H4S, InChI=1S/C4H4S/c1-2-4-5-3-1/h1-4H, purity 99%
Compound 7: methanol, CH4O, InChI=1S/CH4O/c1-2/h2H,1H3, purity 99.9%
Compound 8: ethanol, C2H6O, InChI=1S/C2H6O/c1-2-3/h3H,2H2,1H3, purity 99.8%
Compound 9: propan-1-ol, C3H8O, InChI=1S/C3H8O/c1-2-3-4/h4H,2-3H2,1H3, purity 99%
Compound 10: butan-1-ol, C4H10O, InChI=1S/C4H10O/c1-2-3-4-5/h5H,2-4H2,1H3, purity 99.5%
Compound 11: hexan-1-ol, C6H14O, InChI=1S/C6H14O/c1-2-3-4-5-6-7/h7H,2-6H2,1H3, purity 99%
Compound 12: octan-1-ol, C8H18O, InChI=1S/C8H18O/c1-2-3-4-5-6-7-8-9/h9H,2-8H2,1H3, purity 99%
Compound 13: decan-1-ol, C10H22O, InChI=1S/C10H22O/c1-2-3-4-5-6-7-8-9-10-11/h11H,2-10H2,1H3, purity 99%
Compound 14: dodecan-1-ol, C12H26O, InChI=1S/C12H26O/c1-2-3-4-5-6-7-8-9-10-11-12-13/h13H,2-12H2,1H3, purity 98.5%

System: 1-butyl-1-methylpyrrolidinium tetracyanoborate; phases: Liquid
Property: Mass density, kg/m3 (Liquid); method: Vibrating tube method
Temperature, K	Pressure, kPa	Mass density, kg/m3	uncertainty
298.15	101.325	975.61	1.02

System: benzene; phases: Liquid
Property: Mass density, kg/m3 (Liquid); method: Vibrating tube method
Temperature, K	Pressure, kPa	Mass density, kg/m3	uncertainty
298.15	101.325	873.57	1.01

System: toluene; phases: Liquid
Property: Mass density, kg/m3 (Liquid); method: Vibrating tube method
Temperature, K	Pressure, kPa	Mass density, kg/m3	uncertainty
298.15	101.325	862.22	1.01

System: thiophene; phases: Liquid
Property: Mass density, kg/m3 (Liquid); method: Vibrating tube method
Temperature, K	Pressure, kPa	Mass density, kg/m3	uncertainty
298.15	101.325	1058.46	1

System: methanol; phases: Liquid
Property: Mass density, kg/m3 (Liquid); method: Vibrating tube method
Temperature, K	Pressure, kPa	Mass density, kg/m3	uncertainty
298.15	101.325	786.6	1.01

System: ethanol; phases: Liquid
Property: Mass density, kg/m3 (Liquid); method: Vibrating tube method
Temperature, K	Pressure, kPa	Mass density, kg/m3	uncertainty
298.15	101.325	785.39	1.01

System: propan-1-ol; phases: Liquid
Property: Mass density, kg/m3 (Liquid); method: Vibrating tube method
Temperature, K	Pressure, kPa	Mass density, kg/m3	uncertainty
298.15	101.325	799.56	1.01

System: butan-1-ol; phases: Liquid
Property: Mass density, kg/m3 (Liquid); method: Vibrating tube method
Temperature, K	Pressure, kPa	Mass density, kg/m3	uncertainty
298.15	101.325	805.79	1.01

System: heptane + 1-butyl-1-methylpyrrolidinium tetracyanoborate; phases: Liquid mixture 1, Liquid mixture 2
Fixed: Pressure, kPa = 100
Property: Liquid-liquid equilibrium temperature, K (Liquid mixture 1); method: VISOBS
Mole fraction of 1-butyl-1-methylpyrrolidinium tetracyanoborate	Liquid-liquid equilibrium temperature, K	uncertainty
0.9211	311.5	2
0.9036	317.3	2
0.8425	343.7	2.1
0.8311	348.7	2.1
0.8278	351.5	2.2

System: benzene + 1-butyl-1-methylpyrrolidinium tetracyanoborate; phases: Liquid mixture 1, Liquid mixture 2
Fixed: Pressure, kPa = 100
Property: Liquid-liquid equilibrium temperature, K (Liquid mixture 1); method: VISOBS
Mole fraction of 1-butyl-1-methylpyrrolidinium tetracyanoborate	Liquid-liquid equilibrium temperature, K	uncertainty
0.1895	340.3	2
0.1877	328.2	2
0.1868	319.9	2
0.1851	311	2
0.1848	305.8	2

System: benzene + 1-butyl-1-methylpyrrolidinium tetracyanoborate; phases: Liquid
Fixed: Pressure, kPa = 100
Fixed: Temperature, K = 298.15
Property: Excess molar enthalpy (molar enthalpy of mixing), kJ/mol (Liquid); method: Power-compensation calorimetry
Mole fraction of 1-butyl-1-methylpyrrolidinium tetracyanoborate	Excess molar enthalpy (molar enthalpy of mixing), kJ/mol	uncertainty
0.9596	-0.0624	0.0023
0.9191	-0.1277	0.0034
0.8788	-0.195	0.0047
0.8384	-0.2645	0.0061
0.7979	-0.336	0.0076
0.7575	-0.4105	0.0092
0.7172	-0.4839	0.0107
0.6769	-0.5625	0.0123
0.6367	-0.6414	0.014
0.5965	-0.7213	0.0157
0.5564	-0.8044	0.0174
0.5162	-0.8889	0.0192
0.4762	-0.9725	0.021
0.4362	-1.0524	0.0227
0.3963	-1.1262	0.0242
0.3564	-1.1884	0.0255
0.3165	-1.2303	0.0264
0.2767	-1.2365	0.0265
0.2534	-1.2128	0.026
0.28	-1.2402	0.0266
0.2685	-1.2387	0.0265
0.254	-1.2307	0.0264
0.2396	-1.2151	0.026
0.2253	-1.191	0.0256
0.2109	-1.1573	0.0249
0.1966	-1.1136	0.0241
0.1824	-1.0599	0.0231
0.1681	-0.9948	0.0219
0.1539	-0.9183	0.0205
0.1398	-0.8379	0.0189
0.1256	-0.7539	0.0173
0.1115	-0.6697	0.0157
0.0975	-0.5855	0.014
0.0834	-0.5016	0.0124
0.0694	-0.4176	0.0109
0.0555	-0.3342	0.0095
0.0415	-0.251	0.0082
0.0277	-0.1681	0.0071
0.0138	-0.0849	0.0064

System: toluene + 1-butyl-1-methylpyrrolidinium tetracyanoborate; phases: Liquid mixture 1, Liquid mixture 2
Fixed: Pressure, kPa = 100
Property: Liquid-liquid equilibrium temperature, K (Liquid mixture 1); method: VISOBS
Mole fraction of 1-butyl-1-methylpyrrolidinium tetracyanoborate	Liquid-liquid equilibrium temperature, K	uncertainty
0.2616	337.6	2.5
0.2595	334.5	3.2
0.2567	325.8	3
0.2505	313.7	3
0.2444	298.8	3.2

System: toluene + 1-butyl-1-methylpyrrolidinium tetracyanoborate; phases: Liquid
Fixed: Pressure, kPa = 100
Fixed: Temperature, K = 298.15
Property: Excess molar enthalpy (molar enthalpy of mixing), kJ/mol (Liquid); method: Power-compensation calorimetry
Mole fraction of 1-butyl-1-methylpyrrolidinium tetracyanoborate	Excess molar enthalpy (molar enthalpy of mixing), kJ/mol	uncertainty
0.9601	-0.0767	0.0029
0.9202	-0.1586	0.0042
0.8803	-0.2427	0.0058
0.8405	-0.3282	0.0075
0.8006	-0.4146	0.0093
0.7606	-0.5019	0.0111
0.7207	-0.5908	0.013
0.6807	-0.6809	0.0149
0.6407	-0.7714	0.0168
0.6006	-0.8615	0.0187
0.5606	-0.9467	0.0204
0.5206	-1.0327	0.0223
0.4805	-1.1164	0.024
0.4405	-1.1938	0.0256
0.4004	-1.2599	0.027
0.3603	-1.3074	0.028
0.3203	-1.3332	0.0285
0.2933	-1.3159	0.0282
0.3369	-1.3421	0.0287
0.3239	-1.3529	0.0289
0.3059	-1.349	0.0289
0.2878	-1.3355	0.0286
0.2698	-1.311	0.0281
0.2519	-1.2716	0.0273
0.2339	-1.2176	0.0264
0.2159	-1.1335	0.0248
0.1979	-1.0429	0.0229
0.1799	-0.9543	0.0211
0.1619	-0.862	0.0192
0.1439	-0.7679	0.0173
0.1259	-0.6735	0.0155
0.1079	-0.5789	0.0136
0.0898	-0.4841	0.0118
0.0719	-0.3892	0.01
0.0539	-0.2939	0.0084
0.0359	-0.1982	0.007
0.0179	-0.1011	0.0059

System: ethylbenzene + 1-butyl-1-methylpyrrolidinium tetracyanoborate; phases: Liquid mixture 1, Liquid mixture 2
Fixed: Pressure, kPa = 100
Property: Liquid-liquid equilibrium temperature, K (Liquid mixture 1); method: VISOBS
Mole fraction of 1-butyl-1-methylpyrrolidinium tetracyanoborate	Liquid-liquid equilibrium temperature, K	uncertainty
0.3908	338.5	2.3
0.3794	326	2.3
0.3657	309.4	2.3
0.3619	305.2	2.2
0.3546	298.1	2.2

System: thiophene + 1-butyl-1-methylpyrrolidinium tetracyanoborate; phases: Liquid mixture 1, Liquid mixture 2
Fixed: Pressure, kPa = 100
Property: Liquid-liquid equilibrium temperature, K (Liquid mixture 1); method: VISOBS
Mole fraction of 1-butyl-1-methylpyrrolidinium tetracyanoborate	Liquid-liquid equilibrium temperature, K	uncertainty
0.1755	305.9	6.6
0.1783	323.4	5.9
0.183	348	5.7
0.1862	365.2	5.7

System: thiophene + 1-butyl-1-methylpyrrolidinium tetracyanoborate; phases: Liquid
Fixed: Pressure, kPa = 100
Fixed: Temperature, K = 298.15
Property: Excess molar enthalpy (molar enthalpy of mixing), kJ/mol (Liquid); method: Power-compensation calorimetry
Mole fraction of 1-butyl-1-methylpyrrolidinium tetracyanoborate	Excess molar enthalpy (molar enthalpy of mixing), kJ/mol	uncertainty
0.9595	-0.0713	0.0026
0.9188	-0.1472	0.0039
0.8782	-0.2247	0.0054
0.8378	-0.3037	0.007
0.7974	-0.3841	0.0086
0.757	-0.4658	0.0103
0.7165	-0.5496	0.0121
0.6763	-0.6337	0.0139
0.636	-0.7187	0.0156
0.5958	-0.8044	0.0174
0.5556	-0.8902	0.0192
0.5155	-0.9752	0.021
0.4756	-1.058	0.0228
0.4356	-1.1364	0.0244
0.3957	-1.2085	0.0259
0.3559	-1.2677	0.0272
0.316	-1.3086	0.028
0.2763	-1.3175	0.0282
0.2515	-1.2995	0.0331
0.2316	-1.2683	0.0272
0.2642	-1.3352	0.0286
0.2503	-1.3211	0.0335
0.2355	-1.2977	0.0279
0.2207	-1.2648	0.0271
0.2059	-1.2214	0.0264
0.1911	-1.1671	0.0253
0.1763	-1.1015	0.0241
0.1616	-1.0245	0.0227
0.1468	-0.9377	0.021
0.1321	-0.8465	0.0192
0.1173	-0.7542	0.0174
0.1026	-0.6618	0.0156
0.0879	-0.5693	0.0139
0.0732	-0.4763	0.0122
0.0586	-0.3831	0.0105
0.0439	-0.2895	0.0091
0.0293	-0.1956	0.0079
0.0147	-0.1001	0.007

System: butan-1-ol + 1-butyl-1-methylpyrrolidinium tetracyanoborate; phases: Liquid mixture 1, Liquid mixture 2
Fixed: Pressure, kPa = 100
Property: Liquid-liquid equilibrium temperature, K (Liquid mixture 1); method: VISOBS
Mole fraction of 1-butyl-1-methylpyrrolidinium tetracyanoborate	Liquid-liquid equilibrium temperature, K	uncertainty
0.5203	281.2	2
0.4193	282.2	2
0.3681	282.5	2
0.2954	283.2	2
0.2677	283.4	2
0.2332	283.7	2
0.2085	283.7	2
0.1988	283.7	2
0.1706	283.1	2
0.1501	282.4	2
0.1501	282.4	2
0.1122	281	2
0.0858	279.7	2
0.0587	277.3	2

System: butan-1-ol + 1-butyl-1-methylpyrrolidinium tetracyanoborate; phases: Liquid
Fixed: Pressure, kPa = 100
Fixed: Temperature, K = 298.15
Property: Excess molar enthalpy (molar enthalpy of mixing), kJ/mol (Liquid); method: Power-compensation calorimetry
Mole fraction of 1-butyl-1-methylpyrrolidinium tetracyanoborate	Excess molar enthalpy (molar enthalpy of mixing), kJ/mol	uncertainty
0.9632	0.267	0.0092
0.9262	0.5283	0.0134
0.8892	0.7774	0.018
0.8525	1.0131	0.0226
0.8157	1.2361	0.0271
0.7789	1.4464	0.0314
0.7419	1.6417	0.0354
0.7049	1.8208	0.0391
0.6681	1.9825	0.0425
0.631	2.125	0.0455
0.5941	2.2466	0.048
0.557	2.3472	0.0501
0.5199	2.4234	0.0517
0.4828	2.4707	0.0527
0.2999	2.4102	0.0515
0.2849	2.3641	0.0505
0.2698	2.3122	0.0494
0.2549	2.2546	0.0482
0.2399	2.191	0.0469
0.2248	2.1212	0.0455
0.2099	2.0451	0.0439
0.1949	1.9625	0.0423
0.1799	1.8732	0.0405
0.1649	1.7766	0.0385
0.1499	1.6726	0.0364
0.1349	1.5605	0.0342
0.1199	1.4395	0.0319
0.1049	1.3088	0.0294
0.0899	1.1675	0.0269
0.0749	1.0143	0.0242
0.0599	0.8471	0.0216
0.0449	0.6646	0.0192
0.03	0.4646	0.0173
0.0149	0.2437	0.0156

System: hexan-1-ol + 1-butyl-1-methylpyrrolidinium tetracyanoborate; phases: Liquid mixture 1, Liquid mixture 2
Fixed: Pressure, kPa = 100
Property: Liquid-liquid equilibrium temperature, K (Liquid mixture 1); method: VISOBS
Mole fraction of 1-butyl-1-methylpyrrolidinium tetracyanoborate	Liquid-liquid equilibrium temperature, K	uncertainty
0.6068	292.5	2
0.5713	295	2
0.5338	299.8	2
0.4967	302.6	2
0.4649	305	2
0.4373	306	2
0.4109	306.8	2
0.3813	307.8	2
0.3566	308.4	2
0.3148	309.1	2
0.2702	309.6	2
0.2352	309.6	2
0.1964	309.7	2
0.1664	309.7	2
0.093	307.3	2
0.0582	303.1	2
0.0385	298.2	2
0.0216	288.6	2.1

System: octan-1-ol + 1-butyl-1-methylpyrrolidinium tetracyanoborate; phases: Liquid mixture 1, Liquid mixture 2
Fixed: Pressure, kPa = 100
Property: Liquid-liquid equilibrium temperature, K (Liquid mixture 1); method: VISOBS
Mole fraction of 1-butyl-1-methylpyrrolidinium tetracyanoborate	Liquid-liquid equilibrium temperature, K	uncertainty
0.845	295.1	2
0.7966	302.8	2
0.7679	309.7	2
0.7406	314	2
0.6944	321.8	2
0.6558	325.8	2
0.6191	328.6	2
0.5836	331.8	2
0.5355	334.5	2
0.4875	338	2
0.4371	339.6	2
0.3887	340.7	2
0.3501	341.2	2
0.3088	341.5	2
0.2723	341.9	2
0.2389	341.9	2
0.1897	341.7	2
0.1544	341.3	2
0.1217	340.1	2
0.094	338.6	2
0.0637	334.9	2
0.0357	326.6	2.1
0.0056	298.5	2.2

System: decan-1-ol + 1-butyl-1-methylpyrrolidinium tetracyanoborate; phases: Liquid mixture 1, Liquid mixture 2
Fixed: Pressure, kPa = 100
Property: Liquid-liquid equilibrium temperature, K (Liquid mixture 1); method: VISOBS
Mole fraction of 1-butyl-1-methylpyrrolidinium tetracyanoborate	Liquid-liquid equilibrium temperature, K	uncertainty
0.9408	294.4	2
0.8865	311.2	2
0.863	318.1	2
0.84	324	2
0.8153	330.1	2
0.7976	333.7	2
0.7538	343.8	2
0.713	349.2	2
0.6772	354.7	2
0.6474	357.5	2
0.6131	360.9	2
0.5786	364.8	2
0.5438	367	2
0.5105	368.8	2
0.4754	370.7	2
0.4348	370.4	2
0.4006	371.9	2
0.3611	373	2
0.3198	372.6	2
0.2835	372.9	2
0.2489	372.9	2
0.2093	373	2
0.1725	371.7	2
0.133	369.1	2
0.1193	368.4	2
0.0691	363.9	2
0.0567	361.6	2
0.0322	354.6	2.1
0.0042	326.6	2.2

System: dodecan-1-ol + 1-butyl-1-methylpyrrolidinium tetracyanoborate; phases: Liquid mixture 1, Liquid mixture 2
Fixed: Pressure, kPa = 100
Property: Liquid-liquid equilibrium temperature, K (Liquid mixture 1); method: VISOBS
Mole fraction of 1-butyl-1-methylpyrrolidinium tetracyanoborate	Liquid-liquid equilibrium temperature, K	uncertainty
0.9907	294.8	2
0.97	302.8	2.1
0.9622	311.8	2.3
0.9307	324.8	2.1
0.9009	341.7	2.1
0.8758	352.9	2.1
0.849	364.6	2
0.7974	378.7	2
0.7676	387.2	2
0.7284	393.6	2
0.6827	398.4	2
0.6503	403	2
0.6076	406.6	2
0.5768	408.6	2
0.2299	413.7	2
0.2033	411.5	2
0.1693	408.4	2
0.1322	404	2
0.0858	392.2	2
0.0486	382.5	2

System: methanol + 1-butyl-1-methylpyrrolidinium tetracyanoborate; phases: Liquid
Fixed: Pressure, kPa = 100
Fixed: Temperature, K = 298.15
Property: Excess molar enthalpy (molar enthalpy of mixing), kJ/mol (Liquid); method: Power-compensation calorimetry
Mole fraction of 1-butyl-1-methylpyrrolidinium tetracyanoborate	Excess molar enthalpy (molar enthalpy of mixing), kJ/mol	uncertainty
0.9606	0.1328	0.0061
0.9213	0.3393	0.0091
0.8814	0.5451	0.0128
0.8414	0.7394	0.0166
0.8015	0.9229	0.0203
0.7616	1.0902	0.0237
0.7217	1.2458	0.0269
0.6816	1.3853	0.0298
0.6416	1.5087	0.0324
0.6016	1.6149	0.0346
0.5615	1.7018	0.0364
0.5213	1.7694	0.0378
0.4812	1.8153	0.0388
0.441	1.8383	0.0392
0.4009	1.8367	0.0392
0.3608	1.8091	0.0386
0.3207	1.7535	0.0375
0.2805	1.6677	0.0357
0.2404	1.5501	0.0333
0.2003	1.3972	0.0303
0.1602	1.2049	0.0261
0.1362	1.069	0.0236
0.1775	1.2408	0.0273
0.169	1.2004	0.0258
0.156	1.1349	0.0254
0.143	1.0648	0.0231
0.13	0.99	0.0227
0.117	0.9104	0.0206
0.104	0.8256	0.019
0.091	0.7358	0.0174
0.078	0.6406	0.0157
0.065	0.5404	0.0141
0.052	0.4356	0.0125
0.039	0.3273	0.0111
0.026	0.2173	0.0097
0.013	0.1081	0.0088

System: ethanol + 1-butyl-1-methylpyrrolidinium tetracyanoborate; phases: Liquid
Fixed: Pressure, kPa = 100
Fixed: Temperature, K = 298.15
Property: Excess molar enthalpy (molar enthalpy of mixing), kJ/mol (Liquid); method: Power-compensation calorimetry
Mole fraction of 1-butyl-1-methylpyrrolidinium tetracyanoborate	Excess molar enthalpy (molar enthalpy of mixing), kJ/mol	uncertainty
0.96	0.2562	0.0085
0.9201	0.5081	0.0126
0.8802	0.7464	0.0171
0.8402	0.9723	0.0216
0.8002	1.1803	0.0258
0.7604	1.374	0.0298
0.7203	1.5503	0.0334
0.6807	1.7068	0.0366
0.6408	1.8459	0.0395
0.6007	1.9645	0.042
0.5607	2.0603	0.044
0.5206	2.1328	0.0455
0.4806	2.1809	0.0465
0.4406	2.2035	0.047
0.4005	2.1977	0.0469
0.3604	2.1618	0.0461
0.3203	2.0948	0.0447
0.2803	1.9941	0.0426
0.2403	1.856	0.0398
0.2202	1.772	0.0382
0.1902	1.6259	0.0352
0.1652	1.4841	0.0322
0.1511	1.3966	0.0306
0.2067	1.6864	0.0365
0.1933	1.6206	0.0347
0.1792	1.5453	0.0335
0.165	1.4642	0.0317
0.1509	1.3769	0.0301
0.1368	1.2834	0.0283
0.1228	1.1831	0.0264
0.1088	1.0762	0.0244
0.0948	0.9619	0.0223
0.0808	0.8405	0.0202
0.0672	0.7157	0.0181
0.0537	0.5846	0.0161
0.0402	0.4475	0.0143
0.0268	0.3049	0.0128
0.0134	0.1567	0.0116

System: propan-1-ol + 1-butyl-1-methylpyrrolidinium tetracyanoborate; phases: Liquid
Fixed: Pressure, kPa = 100
Fixed: Temperature, K = 298.15
Property: Excess molar enthalpy (molar enthalpy of mixing), kJ/mol (Liquid); method: Power-compensation calorimetry
Mole fraction of 1-butyl-1-methylpyrrolidinium tetracyanoborate	Excess molar enthalpy (molar enthalpy of mixing), kJ/mol	uncertainty
0.9615	0.2325	0.0086
0.9228	0.4993	0.0128
0.8839	0.7546	0.0175
0.8451	0.9954	0.0222
0.8062	1.2227	0.0268
0.7672	1.4352	0.0311
0.7282	1.6322	0.0352
0.6891	1.8116	0.0389
0.65	1.9725	0.0423
0.611	2.1125	0.0452
0.572	2.2305	0.0476
0.5329	2.3268	0.0496
0.4938	2.3985	0.0511
0.4547	2.4433	0.0521
0.4156	2.4596	0.0524
0.3765	2.4452	0.0521
0.3374	2.3974	0.0511
0.2983	2.312	0.0494
0.2592	2.1821	0.0467
0.2257	2.0238	0.0456
0.264	2.2095	0.0475
0.252	2.1658	0.0463
0.238	2.11	0.0453
0.224	2.0485	0.046
0.21	1.9813	0.0426
0.1959	1.908	0.0411
0.1819	1.8285	0.0395
0.168	1.7428	0.0378
0.1539	1.6499	0.0359
0.1399	1.5499	0.0339
0.126	1.4423	0.0319
0.112	1.3264	0.0297
0.098	1.2017	0.0273
0.084	1.0674	0.025
0.07	0.9225	0.0225
0.056	0.7664	0.0202
0.042	0.5979	0.018
0.028	0.416	0.0164
0.014	0.2169	0.015
