Measured thermophysical data. Optimization and modeling of extraction equilibria of the type 2 ternary systems containing (water + isovaleric acid + solvent)
Source: J. Chem. Thermodyn., 2015, 10.1016/j.jct.2015.07.035
Compound 1: chlorobenzene, C6H5Cl, InChI=1S/C6H5Cl/c7-6-4-2-1-3-5-6/h1-5H, purity 99%
Compound 2: dibenzyl ether, C14H14O, InChI=1S/C14H14O/c1-3-7-13(8-4-1)11-15-12-14-9-5-2-6-10-14/h1-10H,11-12H2, purity 99%
Compound 3: 1-phenylethanol, C8H10O, InChI=1S/C8H10O/c1-7(9)8-5-3-2-4-6-8/h2-7,9H,1H3, purity 99%
Compound 4: cyclohexanol, C6H12O, InChI=1S/C6H12O/c7-6-4-2-1-3-5-6/h6-7H,1-5H2, purity 99%
Compound 5: decan-1-ol, C10H22O, InChI=1S/C10H22O/c1-2-3-4-5-6-7-8-9-10-11/h11H,2-10H2,1H3, purity 99%
Compound 6: 3-methylbutanoic acid, C5H10O2, InChI=1S/C5H10O2/c1-4(2)3-5(6)7/h4H,3H2,1-2H3,(H,6,7), purity 99%
Compound 7: water, H2O, InChI=1S/H2O/h1H2

System: chlorobenzene; phases: Liquid
Property: Mass density, kg/m3 (Liquid); method: Vibrating tube method
Temperature, K	Pressure, kPa	Mass density, kg/m3	uncertainty
298.2	101.325	1101.08	1.07

System: chlorobenzene; phases: Liquid
Property: Refractive index (Na D-line) (Liquid); method: Standard Abbe refractometry
Temperature, K	Pressure, kPa	Refractive index (Na D-line)	uncertainty
298.2	101.325	1.52165	0.00042

System: dibenzyl ether; phases: Liquid
Property: Mass density, kg/m3 (Liquid); method: Vibrating tube method
Temperature, K	Pressure, kPa	Mass density, kg/m3	uncertainty
298.2	101.325	1039.32	1.06

System: dibenzyl ether; phases: Liquid
Property: Refractive index (Na D-line) (Liquid); method: Standard Abbe refractometry
Temperature, K	Pressure, kPa	Refractive index (Na D-line)	uncertainty
298.2	101.325	1.56019	0.00042

System: 1-phenylethanol; phases: Liquid
Property: Mass density, kg/m3 (Liquid); method: Vibrating tube method
Temperature, K	Pressure, kPa	Mass density, kg/m3	uncertainty
298.2	101.325	1006.48	1.05

System: 1-phenylethanol; phases: Liquid
Property: Refractive index (Na D-line) (Liquid); method: Standard Abbe refractometry
Temperature, K	Pressure, kPa	Refractive index (Na D-line)	uncertainty
298.2	101.325	1.52467	0.00042

System: cyclohexanol; phases: Liquid
Property: Mass density, kg/m3 (Liquid); method: Vibrating tube method
Temperature, K	Pressure, kPa	Mass density, kg/m3	uncertainty
303.2	101.325	941.42	1.05

System: cyclohexanol; phases: Liquid
Property: Refractive index (Na D-line) (Liquid); method: Standard Abbe refractometry
Temperature, K	Pressure, kPa	Refractive index (Na D-line)	uncertainty
303.2	101.325	1.46238	0.00042

System: decan-1-ol; phases: Liquid
Property: Mass density, kg/m3 (Liquid); method: Vibrating tube method
Temperature, K	Pressure, kPa	Mass density, kg/m3	uncertainty
298.2	101.325	826.41	1.04

System: decan-1-ol; phases: Liquid
Property: Refractive index (Na D-line) (Liquid); method: Standard Abbe refractometry
Temperature, K	Pressure, kPa	Refractive index (Na D-line)	uncertainty
298.2	101.325	1.43554	0.00042

System: 3-methylbutanoic acid; phases: Liquid
Property: Mass density, kg/m3 (Liquid); method: Vibrating tube method
Temperature, K	Pressure, kPa	Mass density, kg/m3	uncertainty
298.2	101.325	921.34	1.05

System: 3-methylbutanoic acid; phases: Liquid
Property: Refractive index (Na D-line) (Liquid); method: Standard Abbe refractometry
Temperature, K	Pressure, kPa	Refractive index (Na D-line)	uncertainty
298.2	101.325	1.40124	0.00042

System: chlorobenzene + 3-methylbutanoic acid + water; phases: Liquid mixture 1, Liquid mixture 2
Fixed: Pressure, kPa = 101.3
Fixed: Temperature, K = 298.2
Property: Mole fraction of 3-methylbutanoic acid (Liquid mixture 1); method: Titration method
Mole fraction of water	Mole fraction of 3-methylbutanoic acid	uncertainty
0.4985	0.5015	0.0259
0.3346	0.3894	0.0255
0.2271	0.2842	0.027
0.155	0.2051	0.028
0.1015	0.1402	0.0296
0.061	0.084	0.0309
0.9893	0.0107	0.0107

System: chlorobenzene + 3-methylbutanoic acid + water; phases: Liquid mixture 2, Liquid mixture 1
Fixed: Temperature, K = 298.2
Fixed: Pressure, kPa = 101.3
Property: Mole fraction of 3-methylbutanoic acid (Liquid mixture 2); method: Chromatography
Property: Mole fraction of 3-methylbutanoic acid (Liquid mixture 1); method: Chromatography
Property: Mole fraction of water (Liquid mixture 1); method: Chromatography
Mole fraction of water	Mole fraction of 3-methylbutanoic acid	uncertainty	Mole fraction of 3-methylbutanoic acid	uncertainty	Mole fraction of water	uncertainty
0.0814	0.1045	0.001	0.0036	0.0006	0.996	
0.1503	0.1894	0.0015	0.0042	0.0006	0.9955	
0.2175	0.2567	0.002	0.0051	0.0006	0.9946	
0.2862	0.3287	0.0026	0.0057	0.0006	0.994	
0.3674	0.3976	0.0031	0.0068	0.0006	0.9929	

System: dibenzyl ether + 3-methylbutanoic acid + water; phases: Liquid mixture 1, Liquid mixture 2
Fixed: Pressure, kPa = 101.3
Fixed: Temperature, K = 298.2
Property: Mole fraction of 3-methylbutanoic acid (Liquid mixture 1); method: Titration method
Mole fraction of water	Mole fraction of 3-methylbutanoic acid	uncertainty
0.4985	0.5015	0.0264
0.415	0.4402	0.0262
0.341	0.376	0.0266
0.2961	0.3304	0.0279
0.2332	0.2618	0.0291
0.1539	0.1602	0.0334
0.0632	0	
0.9996	0	
0.9893	0.0107	0.0107

System: dibenzyl ether + 3-methylbutanoic acid + water; phases: Liquid mixture 2, Liquid mixture 1
Fixed: Temperature, K = 298.2
Fixed: Pressure, kPa = 101.3
Property: Mole fraction of 3-methylbutanoic acid (Liquid mixture 2); method: Chromatography
Property: Mole fraction of 3-methylbutanoic acid (Liquid mixture 1); method: Chromatography
Property: Mole fraction of water (Liquid mixture 1); method: Chromatography
Mole fraction of water	Mole fraction of 3-methylbutanoic acid	uncertainty	Mole fraction of 3-methylbutanoic acid	uncertainty	Mole fraction of water	uncertainty
0.1282	0.0965	0.001	0.004	0.0006	0.9956	
0.1805	0.1784	0.0015	0.0053	0.0006	0.9943	
0.2461	0.2713	0.0022	0.006	0.0006	0.9936	
0.3261	0.3456	0.0027	0.0067	0.0006	0.993	
0.3814	0.3981	0.0031	0.0072	0.0006	0.9925	

System: 1-phenylethanol + 3-methylbutanoic acid + water; phases: Liquid mixture 1, Liquid mixture 2
Fixed: Pressure, kPa = 101.3
Fixed: Temperature, K = 298.2
Property: Mole fraction of 3-methylbutanoic acid (Liquid mixture 1); method: Titration method
Mole fraction of water	Mole fraction of 3-methylbutanoic acid	uncertainty
0.4985	0.5015	0.0318
0.4302	0.4179	0.0327
0.367	0.3214	0.0384
0.3371	0.244	0.044
0.2906	0.1521	0.0401
0.9893	0.0107	0.0107

System: 1-phenylethanol + 3-methylbutanoic acid + water; phases: Liquid mixture 1, Liquid mixture 2
Fixed: Temperature, K = 298.2
Fixed: Pressure, kPa = 101.3
Property: Mole fraction of water (Liquid mixture 1); method: Chromatography
Property: Mole fraction of water (Liquid mixture 2); method: Chromatography
Property: Mole fraction of 3-methylbutanoic acid (Liquid mixture 2); method: Chromatography
Mole fraction of 3-methylbutanoic acid	Mole fraction of water	uncertainty	Mole fraction of water	uncertainty	Mole fraction of 3-methylbutanoic acid	uncertainty
0.0051	0.9915	0.0005	0.2885	0.0022	0.1078	
0.0073	0.9899	0.0005	0.3198	0.0025	0.2004	
0.0084	0.9893	0.0005	0.3525	0.0027	0.2814	
0.0093	0.9888	0.0005	0.3935	0.0031	0.3586	
0.0098	0.9885	0.0005	0.4183	0.0032	0.4062	

System: cyclohexanol + 3-methylbutanoic acid + water; phases: Liquid mixture 1, Liquid mixture 2
Fixed: Pressure, kPa = 101.3
Fixed: Temperature, K = 298.2
Property: Mole fraction of 3-methylbutanoic acid (Liquid mixture 1); method: Titration method
Mole fraction of water	Mole fraction of 3-methylbutanoic acid	uncertainty
0.4985	0.5015	0.0477
0.4515	0.3922	0.0586
0.4224	0.265	0.0811
0.4076	0.1426	0.104
0.4063	0	
0.9939	0	
0.9893	0.0107	0.0107

System: cyclohexanol + 3-methylbutanoic acid + water; phases: Liquid mixture 1, Liquid mixture 2
Fixed: Temperature, K = 298.2
Fixed: Pressure, kPa = 101.3
Property: Mole fraction of water (Liquid mixture 1); method: Chromatography
Property: Mole fraction of water (Liquid mixture 2); method: Chromatography
Property: Mole fraction of 3-methylbutanoic acid (Liquid mixture 2); method: Chromatography
Mole fraction of 3-methylbutanoic acid	Mole fraction of water	uncertainty	Mole fraction of water	uncertainty	Mole fraction of 3-methylbutanoic acid	uncertainty
0.0067	0.9858	0.0004	0.3982	0.0031	0.0916	
0.0079	0.9855	0.0004	0.4138	0.0032	0.1652	
0.0088	0.9854	0.0004	0.4276	0.0033	0.2505	
0.0097	0.9853	0.0004	0.4384	0.0034	0.3071	
0.0102	0.9852	0.0004	0.4481	0.0035	0.3684	

System: decan-1-ol + 3-methylbutanoic acid + water; phases: Liquid mixture 1, Liquid mixture 2
Fixed: Pressure, kPa = 101.3
Fixed: Temperature, K = 298.2
Property: Mole fraction of 3-methylbutanoic acid (Liquid mixture 1); method: Titration method
Mole fraction of water	Mole fraction of 3-methylbutanoic acid	uncertainty
0.4985	0.5015	0.0279
0.416	0.428	0.0301
0.334	0.311	0.032
0.302	0.2712	0.0339
0.2631	0.2024	0.0402
0.2352	0.1384	0.0452
0.9893	0.0107	0.0107

System: decan-1-ol + 3-methylbutanoic acid + water; phases: Liquid mixture 1, Liquid mixture 2
Fixed: Temperature, K = 298.2
Fixed: Pressure, kPa = 101.3
Property: Mole fraction of water (Liquid mixture 1); method: Chromatography
Property: Mole fraction of water (Liquid mixture 2); method: Chromatography
Property: Mole fraction of 3-methylbutanoic acid (Liquid mixture 2); method: Chromatography
Mole fraction of 3-methylbutanoic acid	Mole fraction of water	uncertainty	Mole fraction of water	uncertainty	Mole fraction of 3-methylbutanoic acid	uncertainty
0.0031	0.9951	0.0005	0.2015	0.0016	0.1063	
0.0044	0.994	0.0005	0.2721	0.0021	0.1892	
0.006	0.9928	0.0005	0.3151	0.0025	0.2793	
0.0074	0.9916	0.0005	0.3646	0.0028	0.3584	
0.0082	0.991	0.0005	0.3985	0.0031	0.4173	

System: 3-methylbutanoic acid + water; phases: Liquid mixture 2, Liquid mixture 1
Property: Mole fraction of 3-methylbutanoic acid (Liquid mixture 2); method: Titration method
Temperature, K	Pressure, kPa	Mole fraction of 3-methylbutanoic acid	uncertainty
298.2	101.3	0.5015	0.0193

System: 3-methylbutanoic acid + water; phases: Liquid mixture 1, Liquid mixture 2
Property: Mole fraction of water (Liquid mixture 1); method: Titration method
Temperature, K	Pressure, kPa	Mole fraction of water	uncertainty
298.2	101.3	0.9893	0.0107

System: chlorobenzene + water; phases: Liquid mixture 2, Liquid mixture 1
Fixed: Temperature, K = 298.2
Fixed: Pressure, kPa = 101.3
Property: Mole fraction of water (Liquid mixture 2); method: Titration method
Mole fraction of water	uncertainty
0.0128	0.0128
0.0145	0.0145

System: dibenzyl ether + water; phases: Liquid mixture 1, Liquid mixture 2
Property: Mole fraction of water (Liquid mixture 1); method: Titration method
Pressure, kPa	Temperature, K	Mole fraction of water	uncertainty
101.3	298.2	0.9996	0.0004

System: dibenzyl ether + water; phases: Liquid mixture 2, Liquid mixture 1
Property: Mole fraction of water (Liquid mixture 2); method: Titration method
Temperature, K	Pressure, kPa	Mole fraction of water	uncertainty
298.2	101.3	0.0632	0.018

System: 1-phenylethanol + water; phases: Liquid mixture 1, Liquid mixture 2
Fixed: Pressure, kPa = 101.3
Fixed: Temperature, K = 298.2
Property: Mole fraction of water (Liquid mixture 1); method: Titration method
Mole fraction of water	uncertainty
0.9957	0.0043
0.9959	0.0041

System: 1-phenylethanol + water; phases: Liquid mixture 2, Liquid mixture 1
Fixed: Temperature, K = 298.2
Fixed: Pressure, kPa = 101.3
Property: Mole fraction of water (Liquid mixture 2); method: Titration method
Mole fraction of water	uncertainty
0.2385	0.0183
0.2372	0.0183

System: cyclohexanol + water; phases: Liquid mixture 1, Liquid mixture 2
Property: Mole fraction of water (Liquid mixture 1); method: Titration method
Pressure, kPa	Temperature, K	Mole fraction of water	uncertainty
101.3	298.2	0.9939	0.0061

System: cyclohexanol + water; phases: Liquid mixture 2, Liquid mixture 1
Property: Mole fraction of water (Liquid mixture 2); method: Titration method
Temperature, K	Pressure, kPa	Mole fraction of water	uncertainty
298.2	101.3	0.4063	0.0189

System: decan-1-ol + water; phases: Liquid mixture 1, Liquid mixture 2
Fixed: Pressure, kPa = 101.3
Fixed: Temperature, K = 298.2
Property: Mole fraction of water (Liquid mixture 1); method: Titration method
Mole fraction of water	uncertainty
0.9997	0.0003
0.9998	0.0002

System: decan-1-ol + water; phases: Liquid mixture 2, Liquid mixture 1
Fixed: Temperature, K = 298.2
Fixed: Pressure, kPa = 101.3
Property: Mole fraction of water (Liquid mixture 2); method: Titration method
Mole fraction of water	uncertainty
0.1765	0.0182
0.1784	0.0182
