Measured thermophysical data. Partial molar volumes of organic solutes in water. XXV. Branched aliphatic diols at temperatures (298 to 573) K and pressures up to 30 MPa
Source: J. Chem. Thermodyn., 2014, 10.1016/j.jct.2013.11.014
Compound 1: 2-methyl-2-propyl-1,3-propanediol, C7H16O2, InChI=1S/C7H16O2/c1-3-4-7(2,5-8)6-9/h8-9H,3-6H2,1-2H3, purity 98%
Compound 2: 2,2-diethyl-1,3-propanediol, C7H16O2, InChI=1S/C7H16O2/c1-3-7(4-2,5-8)6-9/h8-9H,3-6H2,1-2H3, purity 99%
Compound 3: 2-butyl-2-ethyl-1,3-propanediol, C9H20O2, InChI=1S/C9H20O2/c1-3-5-6-9(4-2,7-10)8-11/h10-11H,3-8H2,1-2H3, purity 99%
Compound 4: 1,5-dihydroxy-3-methylpentane, C6H14O2, InChI=1S/C6H14O2/c1-6(2-4-7)3-5-8/h6-8H,2-5H2,1H3, purity 98%
Compound 5: water, H2O, InChI=1S/H2O/h1H2

System: 2-methyl-2-propyl-1,3-propanediol + water; phases: Liquid
Property: Mass density, kg/m3 (Liquid); method: Vibrating tube method
Temperature, K	Pressure, kPa	Molality, mol/kg of 2-methyl-2-propyl-1,3-propanediol	Mass density, kg/m3	uncertainty
298.15	520	0.042109	0.0102	0.0574
298.15	520	0.042109	0.0131	0.0575
298.15	520	0.082992	0.0265	0.0575
298.15	520	0.082992	0.0267	0.0575
298.15	520	0.082992	0.0286	0.0575
298.15	520	0.1195	0.0441	0.0575
298.15	520	0.1195	0.0422	0.0575
298.15	520	0.1195	0.0424	0.0575
298.15	520	0.152844	0.0639	0.0575
298.15	520	0.152844	0.0633	0.0575
298.15	520	0.152844	0.0629	0.0575
298.15	520	0.212771	0.099	0.0575
298.15	520	0.212771	0.0996	0.0575
298.15	520	0.212771	0.0996	0.0575
298.16	15160	0.042109	-0.0242	0.0575
298.16	15160	0.042109	-0.0261	0.0575
298.16	15160	0.042109	-0.0246	0.0575
298.16	15160	0.082992	-0.0438	0.0575
298.16	15160	0.082992	-0.0393	0.0575
298.16	15160	0.082992	-0.0419	0.0575
298.16	15160	0.1195	-0.0526	0.0575
298.16	15160	0.1195	-0.0527	0.0575
298.16	15160	0.1195	-0.057	0.0575
298.16	15160	0.152844	-0.0591	0.0575
298.16	15160	0.152844	-0.0577	0.0575
298.16	15160	0.152844	-0.0561	0.0575
298.16	15160	0.212771	-0.0658	0.0575
298.16	15160	0.212771	-0.0654	0.0575
298.16	15160	0.212771	-0.0668	0.0575
298.17	30060	0.042109	-0.0597	0.0576
298.17	30060	0.042109	-0.0534	0.0576
298.17	30060	0.042109	-0.0504	0.0576
298.17	30060	0.082992	-0.1024	0.0577
298.17	30060	0.082992	-0.1107	0.0577
298.17	30060	0.082992	-0.1121	0.0577
298.17	30060	0.1195	-0.1439	0.0578
298.17	30060	0.1195	-0.1449	0.0578
298.17	30060	0.1195	-0.143	0.0578
298.17	30060	0.152844	-0.1708	0.0579
298.17	30060	0.152844	-0.1729	0.0579
298.17	30060	0.152844	-0.1678	0.0579
298.17	30060	0.212771	-0.2179	0.058
298.17	30060	0.212771	-0.2178	0.058
298.17	30060	0.212771	-0.2232	0.058
318.19	510	0.042109	-0.0551	0.0575
318.19	510	0.042109	-0.0391	0.0575
318.19	510	0.042109	-0.0568	0.0575
318.19	510	0.082992	-0.0803	0.0575
318.19	510	0.082992	-0.0903	0.0575
318.19	510	0.082992	-0.0946	0.0575
318.19	510	0.1195	-0.1186	0.0575
318.19	510	0.1195	-0.1249	0.0575
318.19	510	0.1195	-0.1288	0.0575
318.19	510	0.152844	-0.1566	0.0575
318.19	510	0.152844	-0.147	0.0575
318.19	510	0.152844	-0.1505	0.0575
318.19	510	0.212771	-0.2138	0.0575
318.19	510	0.212771	-0.2183	0.0575
318.19	510	0.212771	-0.224	0.0575
318.17	15150	0.042109	-0.0558	0.0575
318.17	15150	0.042109	-0.0645	0.0575
318.17	15150	0.042109	-0.0686	0.0575
318.17	15150	0.082992	-0.1256	0.0576
318.17	15150	0.082992	-0.1268	0.0576
318.17	15150	0.082992	-0.1133	0.0576
318.17	15150	0.1195	-0.1774	0.0577
318.17	15150	0.1195	-0.1817	0.0577
318.17	15150	0.1195	-0.1877	0.0577
318.17	15150	0.152844	-0.2271	0.0578
318.17	15150	0.152844	-0.2242	0.0578
318.17	15150	0.152844	-0.2209	0.0578
318.17	15150	0.212771	-0.3062	0.0579
318.17	15150	0.212771	-0.3071	0.0579
318.17	15150	0.212771	-0.3115	0.0579
338.19	520	0.042109	-0.098	0.0575
338.19	520	0.042109	-0.1004	0.0575
338.19	520	0.042109	-0.1007	0.0575
338.19	520	0.082992	-0.1966	0.0575
338.19	520	0.082992	-0.1978	0.0575
338.19	520	0.082992	-0.1998	0.0575
338.19	520	0.1195	-0.2822	0.0576
338.19	520	0.1195	-0.2844	0.0576
338.19	520	0.1195	-0.2839	0.0576
338.19	520	0.152844	-0.3622	0.0576
338.19	520	0.152844	-0.3638	0.0576
338.19	520	0.152844	-0.3726	0.0576
338.19	520	0.212771	-0.5128	0.0577
338.19	520	0.212771	-0.5116	0.0577
338.19	520	0.212771	-0.5129	0.0577
338.23	30020	0.046106	-0.1364	0.0578
338.23	30020	0.046106	-0.136	0.0578
338.23	30020	0.046106	-0.1372	0.0578
338.23	30020	0.076502	-0.2243	0.058
338.23	30020	0.076502	-0.2242	0.058
338.23	30020	0.076502	-0.2251	0.058
338.23	30020	0.123648	-0.3572	0.0584
338.23	30020	0.123648	-0.3591	0.0584
338.23	30020	0.123648	-0.3591	0.0584
338.23	30020	0.162387	-0.4673	0.0586
338.23	30020	0.162387	-0.4687	0.0586
338.23	30020	0.162387	-0.4652	0.0586
338.23	30020	0.206067	-0.5929	0.059
338.23	30020	0.206067	-0.591	0.059
338.23	30020	0.206067	-0.5904	0.059
358.2	15040	0.038943	-0.1464	0.0578
358.2	15040	0.038943	-0.1454	0.0578
358.2	15040	0.038943	-0.1462	0.0578
358.2	15040	0.084816	-0.3144	0.058
358.2	15040	0.084816	-0.3169	0.058
358.2	15040	0.084816	-0.3172	0.058
358.2	15040	0.125668	-0.4669	0.0582
358.2	15040	0.125668	-0.4721	0.0582
358.2	15040	0.125668	-0.4726	0.0582
358.2	15040	0.166068	-0.6238	0.0585
358.2	15040	0.166068	-0.6231	0.0585
358.2	15040	0.200255	-0.7536	0.0586
358.2	15040	0.200255	-0.7557	0.0587
318.2	30260	0.042109	-0.0912	0.0577
318.2	30260	0.042109	-0.0835	0.0577
318.2	30260	0.042109	-0.0854	0.0577
318.2	30260	0.082992	-0.1686	0.0579
318.2	30260	0.082992	-0.1569	0.0578
318.2	30260	0.082992	-0.1648	0.0579
318.2	30260	0.1195	-0.238	0.058
318.2	30260	0.1195	-0.2352	0.058
318.2	30260	0.1195	-0.2357	0.058
318.2	30260	0.152844	-0.2884	0.0582
318.2	30260	0.152844	-0.2976	0.0582
318.2	30260	0.152844	-0.2954	0.0582
318.2	30260	0.212771	-0.4041	0.0585
318.2	30260	0.212771	-0.4055	0.0585
318.2	30260	0.212771	-0.4087	0.0585
338.18	15180	0.042109	-0.1093	0.0576
338.18	15180	0.042109	-0.1151	0.0576
338.18	15180	0.042109	-0.1131	0.0576
338.18	15180	0.082992	-0.2181	0.0578
338.18	15180	0.082992	-0.2214	0.0578
338.18	15180	0.082992	-0.228	0.0578
338.18	15180	0.1195	-0.3141	0.0579
338.18	15180	0.1195	-0.3139	0.0579
338.18	15180	0.1195	-0.3215	0.0579
338.18	15180	0.152844	-0.3988	0.058
338.18	15180	0.152844	-0.402	0.058
338.18	15180	0.152844	-0.4	0.058
338.18	15180	0.212771	-0.5635	0.0583
338.18	15180	0.212771	-0.5597	0.0583
338.18	15180	0.212771	-0.5643	0.0583
358.21	530	0.038943	-0.1423	0.0576
358.21	530	0.038943	-0.1429	0.0576
358.21	530	0.038943	-0.1419	0.0576
358.21	530	0.076502	-0.2808	0.0577
358.21	530	0.076502	-0.2829	0.0577
358.21	530	0.076502	-0.2818	0.0577
358.21	530	0.123648	-0.4544	0.0577
358.21	530	0.123648	-0.4554	0.0577
358.21	530	0.123648	-0.4554	0.0577
358.21	530	0.162387	-0.5998	0.0578
358.21	530	0.162387	-0.5987	0.0578
358.21	530	0.162387	-0.5986	0.0578
358.21	530	0.200255	-0.7458	0.0579
358.21	530	0.200255	-0.7443	0.0579
358.21	530	0.200255	-0.7475	0.0579
358.2	30030	0.038943	-0.1505	0.0579
358.2	30030	0.038943	-0.1508	0.0579
358.2	30030	0.038943	-0.1525	0.0579
358.2	30030	0.084816	-0.3282	0.0584
358.2	30030	0.084816	-0.3284	0.0584
358.2	30030	0.084816	-0.3283	0.0584
358.2	30030	0.125668	-0.4852	0.0588
358.2	30030	0.125668	-0.4858	0.0588
358.2	30030	0.125668	-0.4858	0.0588
358.2	30030	0.166068	-0.6404	0.0592
358.2	30030	0.166068	-0.641	0.0592
358.2	30030	0.166068	-0.642	0.0592
358.2	30030	0.200255	-0.7738	0.0596
358.2	30030	0.200255	-0.773	0.0596
358.2	30030	0.200255	-0.7728	0.0596
373.25	540	0.038943	-0.1789	0.0578
373.25	540	0.038943	-0.1797	0.0578
373.25	540	0.038943	-0.1783	0.0578
373.25	540	0.084816	-0.3903	0.0579
373.25	540	0.084816	-0.391	0.0579
373.25	540	0.084816	-0.3913	0.0579
373.25	540	0.125668	-0.5813	0.058
373.25	540	0.125668	-0.5822	0.058
373.25	540	0.125668	-0.5818	0.058
373.25	540	0.166068	-0.7717	0.058
373.25	540	0.166068	-0.7721	0.058
373.25	540	0.166068	-0.7725	0.058
373.25	540	0.200255	-0.935	0.0581
373.25	540	0.200255	-0.9348	0.0581
373.25	540	0.200255	-0.9349	0.0581
373.19	14990	0.038943	-0.1736	0.058
373.19	14990	0.038943	-0.173	0.058
373.19	14990	0.084816	-0.3828	0.0583
373.19	14990	0.084816	-0.3831	0.0583
373.19	14990	0.084816	-0.3834	0.0583
373.19	14990	0.125668	-0.571	0.0585
373.19	14990	0.125668	-0.5704	0.0585
373.19	14990	0.125668	-0.5705	0.0585
373.19	14990	0.166068	-0.7566	0.0588
373.19	14990	0.166068	-0.7572	0.0588
373.19	14990	0.166068	-0.7577	0.0588
373.19	14990	0.200255	-0.918	0.0591
373.19	14990	0.200255	-0.9169	0.0591
373.19	14990	0.200255	-0.9168	0.0591
373.24	30030	0.038943	-0.1753	0.0582
373.24	30030	0.038943	-0.175	0.0582
373.24	30030	0.038943	-0.1779	0.0582
373.24	30030	0.084816	-0.3855	0.0587
373.24	30030	0.084816	-0.3846	0.0587
373.24	30030	0.084816	-0.3872	0.0587
373.24	30030	0.125668	-0.5755	0.0592
373.24	30030	0.125668	-0.5741	0.0592
373.24	30030	0.125668	-0.5733	0.0592
373.24	30030	0.166068	-0.7576	0.0597
373.24	30030	0.166068	-0.7587	0.0597
373.24	30030	0.166068	-0.7608	0.0597
373.24	30030	0.200255	-0.9143	0.0601
373.24	30030	0.200255	-0.92	0.0601
373.24	30030	0.200255	-0.9138	0.0601
398.15	1880	0.0433	-0.2614	0.0585
398.15	1880	0.0433	-0.2647	0.0585
398.15	1880	0.0433	-0.2656	0.0585
398.15	1880	0.082551	-0.5004	0.0586
398.15	1880	0.082551	-0.5016	0.0586
398.15	1880	0.082551	-0.5042	0.0586
398.15	1880	0.126042	-0.7669	0.0587
398.15	1880	0.126042	-0.7689	0.0587
398.15	1880	0.126042	-0.767	0.0587
398.15	1880	0.168842	-1.0316	0.0589
398.15	1880	0.168842	-1.0292	0.0589
398.15	1880	0.168842	-1.0345	0.0589
398.15	1880	0.209719	-1.2758	0.059
398.15	1880	0.209719	-1.2775	0.059
398.15	1880	0.209719	-1.2777	0.059
398.14	15060	0.0433	-0.2542	0.0587
398.14	15060	0.0433	-0.2526	0.0587
398.14	15060	0.0433	-0.2541	0.0587
398.14	15060	0.082551	-0.48	0.059
398.14	15060	0.082551	-0.4868	0.0591
398.14	15060	0.082551	-0.4795	0.059
398.14	15060	0.126042	-0.7372	0.0594
398.14	15060	0.126042	-0.7394	0.0594
398.14	15060	0.126042	-0.7385	0.0594
398.14	15060	0.168842	-0.9921	0.0598
398.14	15060	0.168842	-0.9904	0.0598
398.14	15060	0.168842	-0.9921	0.0598
398.14	15060	0.209719	-1.2246	0.0602
398.14	15060	0.209719	-1.2241	0.0602
398.14	15060	0.209719	-1.229	0.0602
398.12	30200	0.0433	-0.2438	0.059
398.12	30200	0.0433	-0.2445	0.059
398.12	30200	0.0433	-0.244	0.059
398.12	30200	0.082551	-0.4635	0.0596
398.12	30200	0.082551	-0.4689	0.0596
398.12	30200	0.082551	-0.4632	0.0596
398.12	30200	0.126042	-0.7108	0.0602
398.12	30200	0.126042	-0.713	0.0602
398.12	30200	0.126042	-0.7073	0.0602
398.12	30200	0.168842	-0.9586	0.0609
398.12	30200	0.168842	-0.9565	0.0609
398.12	30200	0.168842	-0.9567	0.0609
398.12	30200	0.209719	-1.1791	0.0616
398.12	30200	0.209719	-1.1814	0.0616
398.12	30200	0.209719	-1.1789	0.0616
423.16	1860	0.0433	-0.3193	0.0598
423.16	1860	0.0433	-0.3224	0.0598
423.16	1860	0.0433	-0.3217	0.0598
423.16	1860	0.082551	-0.6099	0.06
423.16	1860	0.082551	-0.612	0.06
423.16	1860	0.082551	-0.6107	0.06
423.16	1860	0.126042	-0.9333	0.0602
423.16	1860	0.126042	-0.9338	0.0602
423.16	1860	0.126042	-0.9327	0.0602
423.16	1860	0.168842	-1.254	0.0603
423.16	1860	0.168842	-1.2547	0.0603
423.16	1860	0.168842	-1.2554	0.0603
423.16	1860	0.209719	-1.549	0.0605
423.16	1860	0.209719	-1.55	0.0605
423.16	1860	0.209719	-1.5526	0.0605
423.16	15130	0.0433	-0.3034	0.0601
423.16	15130	0.0433	-0.3017	0.0601
423.16	15130	0.0433	-0.3007	0.0601
423.16	15130	0.082551	-0.5763	0.0606
423.16	15130	0.082551	-0.5751	0.0606
423.16	15130	0.082551	-0.5738	0.0606
423.16	15130	0.126042	-0.8795	0.0611
423.16	15130	0.126042	-0.8806	0.0611
423.16	15130	0.126042	-0.8772	0.0611
423.16	15130	0.168842	-1.1844	0.0616
423.16	15130	0.168842	-1.1815	0.0616
423.16	15130	0.168842	-1.1799	0.0616
423.16	15130	0.209719	-1.4637	0.062
423.16	15130	0.209719	-1.4609	0.062
423.16	15130	0.209719	-1.4566	0.062
423.15	30130	0.0433	-0.2876	0.0605
423.15	30130	0.0433	-0.2888	0.0605
423.15	30130	0.0433	-0.2906	0.0605
423.15	30130	0.082551	-0.5482	0.0612
423.15	30130	0.082551	-0.5473	0.0612
423.15	30130	0.082551	-0.5481	0.0612
423.15	30130	0.126042	-0.8365	0.062
423.15	30130	0.126042	-0.8386	0.062
423.15	30130	0.126042	-0.8399	0.062
423.15	30130	0.168842	-1.1228	0.0629
423.15	30130	0.168842	-1.1239	0.0629
423.15	30130	0.168842	-1.1268	0.0629
423.15	30130	0.209719	-1.3859	0.0637
423.15	30130	0.209719	-1.3868	0.0637
423.15	30130	0.209719	-1.3878	0.0637
448.16	1850	0.0433	-0.3792	0.0625
448.16	1850	0.0433	-0.3759	0.0625
448.16	1850	0.0433	-0.3769	0.0625
448.16	1850	0.082551	-0.7138	0.0627
448.16	1850	0.082551	-0.7139	0.0627
448.16	1850	0.082551	-0.714	0.0627
448.16	1850	0.126042	-1.0884	0.0629
448.16	1850	0.126042	-1.09	0.0629
448.16	1850	0.126042	-1.0888	0.0629
448.16	1850	0.168842	-1.4602	0.0632
448.16	1850	0.168842	-1.4616	0.0632
448.16	1850	0.168842	-1.4612	0.0632
448.16	1850	0.209719	-1.8018	0.0634
448.16	1850	0.209719	-1.8005	0.0634
448.16	1850	0.209719	-1.7993	0.0634
448.17	15140	0.0433	-0.3501	0.0629
448.17	15140	0.0433	-0.3506	0.0629
448.17	15140	0.0433	-0.3499	0.0629
448.17	15140	0.082551	-0.6648	0.0634
448.17	15140	0.082551	-0.6644	0.0634
448.17	15140	0.082551	-0.6647	0.0634
448.17	15140	0.126042	-1.0114	0.0641
448.17	15140	0.126042	-1.0133	0.0641
448.17	15140	0.126042	-1.0125	0.0641
448.17	15140	0.168842	-1.3564	0.0647
448.17	15140	0.168842	-1.3575	0.0647
448.17	15140	0.168842	-1.3577	0.0647
448.17	15140	0.209719	-1.6742	0.0653
448.17	15140	0.209719	-1.673	0.0653
448.17	15140	0.209719	-1.6745	0.0653
448.18	30060	0.0433	-0.3291	0.0633
448.18	30060	0.0433	-0.3295	0.0633
448.18	30060	0.082551	-0.6245	0.0642
448.18	30060	0.082551	-0.6234	0.0642
448.18	30060	0.082551	-0.6213	0.0642
448.18	30060	0.126042	-0.9464	0.0652
448.18	30060	0.126042	-0.9462	0.0652
448.18	30060	0.126042	-0.9475	0.0652
448.18	30060	0.168842	-1.2666	0.0662
448.18	30060	0.168842	-1.2686	0.0662
448.18	30060	0.168842	-1.2683	0.0662
448.18	30060	0.209719	-1.5619	0.0672
448.18	30060	0.209719	-1.561	0.0672
448.18	30060	0.209719	-1.5608	0.0672
473.23	1850	0.042793	-0.4258	0.0674
473.23	1850	0.042793	-0.4251	0.0674
473.23	1850	0.042793	-0.4249	0.0674
473.23	1850	0.081167	-0.8018	0.0676
473.23	1850	0.081167	-0.8033	0.0676
473.23	1850	0.081167	-0.8033	0.0676
473.23	1850	0.122932	-1.2084	0.0679
473.23	1850	0.122932	-1.2085	0.0679
473.23	1850	0.122932	-1.2078	0.0679
473.23	1850	0.163556	-1.5998	0.0681
473.23	1850	0.163556	-1.6017	0.0681
473.23	1850	0.163556	-1.5994	0.0681
473.23	1850	0.207555	-2.0202	0.0684
473.23	1850	0.207555	-2.021	0.0684
473.23	1850	0.207555	-2.0212	0.0684
473.22	15120	0.042793	-0.3857	0.0678
473.22	15120	0.042793	-0.3834	0.0678
473.22	15120	0.042793	-0.3854	0.0678
473.22	15120	0.081167	-0.7285	0.0685
473.22	15120	0.081167	-0.7318	0.0685
473.22	15120	0.081167	-0.7311	0.0685
473.22	15120	0.122932	-1.0959	0.0692
473.22	15120	0.122932	-1.0982	0.0692
473.22	15120	0.122932	-1.0987	0.0692
473.22	15120	0.163556	-1.4552	0.0699
473.22	15120	0.163556	-1.4572	0.0699
473.22	15120	0.163556	-1.4538	0.0699
473.22	15120	0.207555	-1.8384	0.0707
473.22	15120	0.207555	-1.837	0.0707
473.22	15120	0.207555	-1.8403	0.0707
473.22	30040	0.042793	-0.3536	0.0683
473.22	30040	0.042793	-0.3581	0.0683
473.22	30040	0.081167	-0.6692	0.0694
473.22	30040	0.081167	-0.668	0.0693
473.22	30040	0.122932	-1.0035	0.0705
473.22	30040	0.122932	-1.006	0.0705
473.22	30040	0.122932	-1.0076	0.0705
473.22	30040	0.163556	-1.3342	0.0717
473.22	30040	0.163556	-1.3357	0.0717
473.22	30040	0.163556	-1.3321	0.0717
473.22	30040	0.207555	-1.6845	0.0729
473.22	30040	0.207555	-1.6821	0.0729
473.22	30040	0.207555	-1.6807	0.0729
498.14	3050	0.042793	-0.4725	0.0757
498.14	3050	0.042793	-0.4748	0.0757
498.14	3050	0.042793	-0.4697	0.0757
498.14	3050	0.081167	-0.8854	0.0761
498.14	3050	0.081167	-0.8832	0.0761
498.14	3050	0.081167	-0.886	0.0761
498.14	3050	0.122932	-1.3357	0.0764
498.14	3050	0.122932	-1.3363	0.0764
498.14	3050	0.122932	-1.3376	0.0764
498.14	3050	0.163556	-1.7682	0.0768
498.14	3050	0.163556	-1.7687	0.0768
498.14	3050	0.163556	-1.7689	0.0768
498.14	3050	0.207555	-2.231	0.0772
498.14	3050	0.207555	-2.235	0.0772
498.14	3050	0.207555	-2.2348	0.0772
498.12	15110	0.042793	-0.425	0.0762
498.12	15110	0.042793	-0.4229	0.0762
498.12	15110	0.081167	-0.7987	0.077
498.12	15110	0.081167	-0.7966	0.077
498.12	15110	0.122932	-1.2018	0.0779
498.12	15110	0.122932	-1.2005	0.0779
498.12	15110	0.122932	-1.2023	0.0779
498.12	15110	0.163556	-1.5901	0.0787
498.12	15110	0.163556	-1.5884	0.0787
498.12	15110	0.163556	-1.5888	0.0787
498.12	15110	0.207555	-2.0023	0.0796
498.12	15110	0.207555	-2.0028	0.0796
498.12	15110	0.207555	-2.0068	0.0797
498.12	30090	0.042793	-0.3785	0.0767
498.12	30090	0.042793	-0.38	0.0767
498.12	30090	0.042793	-0.3779	0.0767
498.12	30090	0.081167	-0.7121	0.078
498.12	30090	0.081167	-0.7126	0.078
498.12	30090	0.081167	-0.7136	0.078
498.12	30090	0.122932	-1.0733	0.0794
498.12	30090	0.122932	-1.0746	0.0794
498.12	30090	0.122932	-1.0724	0.0793
498.12	30090	0.163556	-1.4146	0.0807
498.12	30090	0.163556	-1.4209	0.0807
498.12	30090	0.163556	-1.4203	0.0807
498.12	30090	0.207555	-1.7928	0.0822
498.12	30090	0.207555	-1.7901	0.0821
498.12	30090	0.207555	-1.7941	0.0822
523.19	5030	0.042793	-0.5239	0.0892
523.19	5030	0.042793	-0.5261	0.0893
523.19	5030	0.042793	-0.5344	0.0893
523.19	5030	0.081167	-0.9737	0.0898
523.19	5030	0.081167	-0.9765	0.0898
523.19	5030	0.081167	-0.991	0.0898
523.19	5030	0.122932	-1.4685	0.0904
523.19	5030	0.122932	-1.4694	0.0904
523.19	5030	0.122932	-1.4707	0.0904
523.19	5030	0.163556	-1.9391	0.0909
523.19	5030	0.163556	-1.9423	0.0909
523.19	5030	0.163556	-1.9403	0.0909
523.19	5030	0.207555	-2.4462	0.0915
523.19	5030	0.207555	-2.4494	0.0915
523.19	5030	0.207555	-2.4468	0.0915
523.19	15140	0.042793	-0.4564	0.0897
523.19	15140	0.042793	-0.46	0.0897
523.19	15140	0.042793	-0.4642	0.0897
523.19	15140	0.081167	-0.8654	0.0907
523.19	15140	0.081167	-0.8642	0.0907
523.19	15140	0.081167	-0.8682	0.0907
523.19	15140	0.122932	-1.3027	0.0917
523.19	15140	0.122932	-1.2974	0.0917
523.19	15140	0.122932	-1.303	0.0917
523.19	15140	0.163556	-1.7162	0.0927
523.19	15140	0.163556	-1.7178	0.0927
523.19	15140	0.163556	-1.7176	0.0927
523.19	15140	0.207555	-2.1689	0.0938
523.19	15140	0.207555	-2.1639	0.0938
523.19	15140	0.207555	-2.167	0.0938
523.19	30040	0.042793	-0.3992	0.0903
523.19	30040	0.042793	-0.3984	0.0903
523.19	30040	0.081167	-0.7502	0.0917
523.19	30040	0.122932	-1.1281	0.0933
523.19	30040	0.122932	-1.1329	0.0933
523.19	30040	0.163556	-1.4927	0.0948
523.19	30040	0.207555	-1.8786	0.0965
523.19	30040	0.207555	-1.8802	0.0965
548.16	7050	0.042793	-0.5783	0.1097
548.16	7050	0.042793	-0.5741	0.1097
548.16	7050	0.042793	-0.5767	0.1097
548.16	7050	0.081167	-1.072	0.1105
548.16	7050	0.081167	-1.0755	0.1105
548.16	7050	0.081167	-1.078	0.1105
548.16	7050	0.122932	-1.6205	0.1113
548.16	7050	0.122932	-1.6183	0.1113
548.16	7050	0.122932	-1.6172	0.1113
548.16	7050	0.163556	-2.1256	0.1121
548.16	7050	0.163556	-2.1353	0.1121
548.16	7050	0.163556	-2.1391	0.1121
548.16	7050	0.207555	-2.6858	0.1129
548.16	7050	0.207555	-2.6862	0.1129
548.16	7050	0.207555	-2.6819	0.1129
548.22	15060	0.046106	-0.5544	0.1103
548.22	15060	0.046106	-0.5256	0.1102
548.22	15060	0.046106	-0.5334	0.1102
548.22	15060	0.046106	-0.5531	0.1103
548.22	15060	0.076502	-0.8575	0.1111
548.22	15060	0.076502	-0.9022	0.1112
548.22	15060	0.076502	-0.881	0.1111
548.22	15060	0.076502	-0.8914	0.1111
548.22	15060	0.076502	-0.8705	0.1111
548.22	15060	0.123648	-1.4076	0.1125
548.22	15060	0.123648	-1.4132	0.1125
548.22	15060	0.123648	-1.4166	0.1125
548.22	15060	0.123648	-1.4227	0.1125
548.22	15060	0.123648	-1.4249	0.1125
548.22	15060	0.162387	-1.7874	0.1134
548.22	15060	0.162387	-1.7948	0.1134
548.22	15060	0.162387	-1.8402	0.1136
548.22	15060	0.162387	-1.8544	0.1136
548.22	15060	0.162387	-1.8495	0.1136
548.22	15060	0.162387	-1.8741	0.1136
548.22	15060	0.206067	-2.2487	0.1146
548.22	15060	0.206067	-2.3224	0.1148
548.22	15060	0.206067	-2.3043	0.1147
548.22	15060	0.206067	-2.3374	0.1148
548.22	15060	0.206067	-2.3289	0.1148
548.22	15060	0.206067	-2.3393	0.1148
548.17	30110	0.046106	-0.4472	0.1108
548.17	30110	0.046106	-0.443	0.1108
548.17	30110	0.046106	-0.4413	0.1108
548.17	30110	0.046106	-0.4417	0.1108
548.17	30110	0.076502	-0.7323	0.1121
548.17	30110	0.076502	-0.7333	0.1121
548.17	30110	0.076502	-0.728	0.1121
548.17	30110	0.076502	-0.7256	0.1121
548.17	30110	0.076502	-0.7263	0.1121
548.17	30110	0.123648	-1.1739	0.114
548.17	30110	0.123648	-1.1733	0.114
548.17	30110	0.123648	-1.1677	0.114
548.17	30110	0.123648	-1.1671	0.114
548.17	30110	0.123648	-1.171	0.114
548.17	30110	0.162387	-1.5298	0.1156
548.17	30110	0.162387	-1.5316	0.1156
548.17	30110	0.162387	-1.5247	0.1156
548.17	30110	0.162387	-1.5276	0.1156
548.17	30110	0.162387	-1.526	0.1156
548.17	30110	0.206067	-1.9267	0.1174
548.17	30110	0.206067	-1.93	0.1174
548.17	30110	0.206067	-1.9205	0.1174
548.17	30110	0.206067	-1.9207	0.1174
548.17	30110	0.206067	-1.9197	0.1174
573.18	10030	0.046106	-0.6878	0.1423
573.18	10030	0.046106	-0.686	0.1423
573.18	10030	0.046106	-0.6886	0.1423
573.18	10030	0.076502	-1.1263	0.1433
573.18	10030	0.076502	-1.1251	0.1433
573.18	10030	0.076502	-1.1286	0.1433
573.18	10030	0.123648	-1.8024	0.1449
573.18	10030	0.123648	-1.8061	0.1449
573.18	10030	0.123648	-1.8024	0.1449
573.18	10030	0.162387	-2.3501	0.1462
573.18	10030	0.162387	-2.3454	0.1462
573.18	10030	0.162387	-2.3541	0.1462
573.18	10030	0.206067	-2.958	0.1476
573.18	10030	0.206067	-2.9608	0.1476
573.18	10030	0.206067	-2.9587	0.1476
573.2	15210	0.046106	-0.5983	0.1426
573.2	15210	0.046106	-0.6045	0.1426
573.2	15210	0.046106	-0.6045	0.1426
573.2	15210	0.076502	-0.9899	0.1438
573.2	15210	0.076502	-0.9897	0.1438
573.2	15210	0.076502	-0.991	0.1438
573.2	15210	0.123648	-1.5842	0.1457
573.2	15210	0.123648	-1.5858	0.1457
573.2	15210	0.123648	-1.5879	0.1457
573.2	15210	0.162387	-2.065	0.1472
573.2	15210	0.162387	-2.0641	0.1472
573.2	15210	0.206067	-2.5973	0.1489
573.2	15210	0.206067	-2.6124	0.1489
573.2	15210	0.206067	-2.6037	0.1489
573.18	30020	0.046106	-0.4611	0.1432
573.18	30020	0.046106	-0.457	0.1431
573.18	30020	0.046106	-0.4573	0.1431
573.18	30020	0.076502	-0.75	0.1447
573.18	30020	0.076502	-0.7538	0.1447
573.18	30020	0.076502	-0.7567	0.1448
573.18	30020	0.123648	-1.2077	0.1472
573.18	30020	0.123648	-1.2066	0.1472
573.18	30020	0.123648	-1.2148	0.1473
573.18	30020	0.162387	-1.5738	0.1492
573.18	30020	0.162387	-1.5769	0.1492
573.18	30020	0.162387	-1.5798	0.1492
573.18	30020	0.206067	-1.9781	0.1514
573.18	30020	0.206067	-1.9804	0.1514
573.18	30020	0.206067	-1.9964	0.1515

System: 2,2-diethyl-1,3-propanediol + water; phases: Liquid
Property: Mass density, kg/m3 (Liquid); method: Vibrating tube method
Temperature, K	Pressure, kPa	Molality, mol/kg of 2,2-diethyl-1,3-propanediol	Mass density, kg/m3	uncertainty
298.15	520	0.051797	0.165	0.0575
298.15	520	0.051797	0.1634	0.0575
298.15	520	0.051797	0.1687	0.0575
298.15	520	0.101567	0.3306	0.0576
298.15	520	0.101567	0.3248	0.0576
298.15	520	0.101567	0.3296	0.0576
298.15	520	0.15725	0.52	0.0576
298.15	520	0.15725	0.5233	0.0577
298.15	520	0.15725	0.5152	0.0576
298.15	520	0.204584	0.6879	0.0577
298.15	520	0.204584	0.6882	0.0577
298.15	520	0.204584	0.6847	0.0577
298.15	520	0.256848	0.8781	0.0578
298.15	520	0.256848	0.8693	0.0578
298.15	520	0.256848	0.8707	0.0578
298.16	15160	0.051797	0.1193	0.0576
298.16	15160	0.051797	0.1185	0.0576
298.16	15160	0.051797	0.1199	0.0576
298.16	15160	0.101567	0.2427	0.0578
298.16	15160	0.101567	0.2481	0.0578
298.16	15160	0.101567	0.2461	0.0578
298.16	15160	0.15725	0.3932	0.058
298.16	15160	0.15725	0.3947	0.058
298.16	15160	0.15725	0.391	0.058
298.16	15160	0.204584	0.5255	0.0582
298.16	15160	0.204584	0.5261	0.0582
298.16	15160	0.204584	0.5233	0.0582
298.16	15160	0.256848	0.6762	0.0584
298.16	15160	0.256848	0.6799	0.0584
298.16	15160	0.256848	0.6731	0.0584
298.17	30060	0.051797	0.0826	0.0576
298.17	30060	0.051797	0.0802	0.0576
298.17	30060	0.051797	0.0825	0.0576
298.17	30060	0.101567	0.1697	0.0579
298.17	30060	0.101567	0.1752	0.0579
298.17	30060	0.101567	0.1625	0.0578
298.17	30060	0.15725	0.275	0.0581
298.17	30060	0.15725	0.2802	0.0581
298.17	30060	0.15725	0.2748	0.0581
298.17	30060	0.204584	0.378	0.0584
298.17	30060	0.204584	0.3772	0.0584
298.17	30060	0.204584	0.3734	0.0584
298.17	30060	0.256848	0.4962	0.0587
298.17	30060	0.256848	0.4927	0.0587
298.17	30060	0.256848	0.4947	0.0587
318.19	510	0.051797	0.1016	0.0575
318.19	510	0.051797	0.0935	0.0575
318.19	510	0.051797	0.0973	0.0575
318.19	510	0.101567	0.1859	0.0575
318.19	510	0.101567	0.192	0.0575
318.19	510	0.101567	0.1925	0.0575
318.19	510	0.15725	0.3021	0.0576
318.19	510	0.15725	0.2913	0.0576
318.19	510	0.15725	0.3001	0.0576
318.19	510	0.204584	0.3945	0.0576
318.19	510	0.204584	0.3893	0.0576
318.19	510	0.204584	0.3847	0.0576
318.19	510	0.256848	0.4914	0.0576
318.19	510	0.256848	0.4881	0.0576
318.19	510	0.256848	0.4899	0.0576
318.17	15150	0.051797	0.0677	0.0575
318.17	15150	0.051797	0.0768	0.0576
318.17	15150	0.051797	0.0703	0.0575
318.17	15150	0.101567	0.1479	0.0577
318.17	15150	0.101567	0.1432	0.0576
318.17	15150	0.101567	0.1318	0.0576
318.17	15150	0.15725	0.2212	0.0578
318.17	15150	0.15725	0.226	0.0578
318.17	15150	0.15725	0.2311	0.0578
318.17	15150	0.204584	0.3022	0.0579
318.17	15150	0.204584	0.3076	0.0579
318.17	15150	0.204584	0.303	0.0579
318.17	15150	0.256848	0.3897	0.058
318.17	15150	0.256848	0.3757	0.058
318.17	15150	0.256848	0.3772	0.058
318.2	30250	0.051797	0.0486	0.0576
318.2	30250	0.051797	0.0383	0.0575
318.2	30250	0.051797	0.0463	0.0576
318.2	30250	0.101567	0.0839	0.0577
318.2	30250	0.101567	0.0898	0.0577
318.2	30250	0.101567	0.091	0.0577
318.2	30250	0.15725	0.1595	0.0578
318.2	30250	0.15725	0.1461	0.0578
318.2	30250	0.15725	0.1517	0.0578
318.2	30250	0.204584	0.2021	0.058
318.2	30250	0.204584	0.1997	0.0579
318.2	30250	0.204584	0.1944	0.0579
318.2	30250	0.256848	0.263	0.0581
318.2	30250	0.256848	0.259	0.0581
318.2	30250	0.256848	0.2529	0.0581
338.19	510	0.051797	0.0303	0.0575
338.19	510	0.051797	0.0273	0.0575
338.19	510	0.051797	0.0268	0.0575
338.19	510	0.101567	0.0581	0.0575
338.19	510	0.101567	0.0568	0.0575
338.19	510	0.101567	0.0574	0.0575
338.19	510	0.15725	0.0894	0.0575
338.19	510	0.15725	0.0862	0.0575
338.19	510	0.15725	0.0827	0.0575
338.19	510	0.204584	0.1119	0.0575
338.19	510	0.204584	0.1123	0.0575
338.19	510	0.204584	0.1103	0.0575
338.19	510	0.256848	0.1319	0.0575
338.19	510	0.256848	0.1313	0.0575
338.19	510	0.256848	0.1293	0.0575
338.18	15180	0.051797	0.0153	0.0575
338.18	15180	0.051797	0.0084	0.0575
338.18	15180	0.101567	0.0287	0.0575
338.18	15180	0.101567	0.0263	0.0575
338.18	15180	0.101567	0.0196	0.0575
338.18	15180	0.15725	0.0445	0.0575
338.18	15180	0.15725	0.0385	0.0575
338.18	15180	0.15725	0.04	0.0575
338.18	15180	0.204584	0.0566	0.0576
338.18	15180	0.204584	0.0549	0.0575
338.18	15180	0.204584	0.0505	0.0575
338.18	15180	0.256848	0.0683	0.0576
338.18	15180	0.256848	0.0622	0.0576
338.18	15180	0.256848	0.0637	0.0576
338.16	30170	0.05007	-0.0008	0.0575
338.16	30170	0.05007	-0.0011	0.0575
338.16	30170	0.05007	-0.0027	0.0575
338.16	30170	0.10063	0.0015	0.0575
338.16	30170	0.10063	0.0011	0.0575
338.16	30170	0.10063	-0.0025	0.0575
338.16	30170	0.15031	0.0059	0.0575
338.16	30170	0.15031	0.0039	0.0575
338.16	30170	0.15031	0.0012	0.0575
338.16	30170	0.19965	0.0019	0.0575
338.16	30170	0.19965	-0.0002	0.0575
338.16	30170	0.19965	0.0003	0.0575
338.16	30170	0.25031	0.0025	0.0575
338.16	30170	0.25031	0.0006	0.0575
338.16	30170	0.25031	0.0024	0.0575
358.16	510	0.05007	-0.0334	0.0576
358.16	510	0.05007	-0.0341	0.0576
358.16	510	0.05007	-0.0346	0.0576
358.16	510	0.10063	-0.0762	0.0576
358.16	510	0.10063	-0.0731	0.0576
358.16	510	0.10063	-0.0726	0.0576
358.16	510	0.14531	-0.1072	0.0576
358.16	510	0.14531	-0.1073	0.0576
358.16	510	0.14531	-0.1079	0.0576
358.16	510	0.204703	-0.1601	0.0576
358.16	510	0.204703	-0.1624	0.0576
358.16	510	0.204703	-0.1614	0.0576
358.16	510	0.252649	-0.209	0.0576
358.16	510	0.252649	-0.2072	0.0576
358.16	510	0.252649	-0.206	0.0576
358.15	15120	0.05007	-0.0413	0.0576
358.15	15120	0.05007	-0.0402	0.0576
358.15	15120	0.10063	-0.081	0.0577
358.15	15120	0.10063	-0.0825	0.0577
358.15	15120	0.10063	-0.0826	0.0577
358.15	15120	0.14531	-0.1187	0.0577
358.15	15120	0.14531	-0.1207	0.0577
358.15	15120	0.14531	-0.1219	0.0577
358.15	15120	0.204703	-0.1798	0.0578
358.15	15120	0.204703	-0.1768	0.0578
358.15	15120	0.204703	-0.1785	0.0578
358.15	15120	0.252649	-0.2238	0.0579
358.15	15120	0.252649	-0.2263	0.0579
358.15	15120	0.252649	-0.2253	0.0579
358.13	30110	0.052089	-0.0465	0.0577
358.13	30110	0.052089	-0.0463	0.0577
358.13	30110	0.052089	-0.0471	0.0577
358.13	30110	0.099534	-0.0928	0.0578
358.13	30110	0.099534	-0.0952	0.0578
358.13	30110	0.099534	-0.0951	0.0578
358.13	30110	0.155129	-0.1484	0.0579
358.13	30110	0.155129	-0.1469	0.0579
358.13	30110	0.155129	-0.1467	0.0579
358.13	30110	0.204703	-0.1963	0.058
358.13	30110	0.204703	-0.1996	0.0581
358.13	30110	0.204703	-0.1991	0.0581
358.13	30110	0.252649	-0.2478	0.0582
358.13	30110	0.252649	-0.2477	0.0582
358.13	30110	0.252649	-0.2491	0.0582
373.18	520	0.052089	-0.0837	0.0578
373.18	520	0.052089	-0.0841	0.0578
373.18	520	0.052089	-0.0842	0.0578
373.18	520	0.099534	-0.1646	0.0578
373.18	520	0.099534	-0.1648	0.0578
373.18	520	0.099534	-0.1658	0.0578
373.18	520	0.155129	-0.2625	0.0578
373.18	520	0.155129	-0.2625	0.0578
373.18	520	0.155129	-0.2636	0.0578
373.18	520	0.204703	-0.3525	0.0579
373.18	520	0.204703	-0.3534	0.0579
373.18	520	0.204703	-0.3537	0.0579
373.18	520	0.252649	-0.4443	0.0579
373.18	520	0.252649	-0.4443	0.0579
373.18	520	0.252649	-0.4454	0.0579
373.15	15190	0.052089	-0.0845	0.0578
373.15	15190	0.052089	-0.0833	0.0578
373.15	15190	0.052089	-0.0845	0.0578
373.15	15190	0.099534	-0.1637	0.058
373.15	15190	0.099534	-0.166	0.058
373.15	15190	0.099534	-0.1642	0.058
373.15	15190	0.155129	-0.257	0.0581
373.15	15190	0.155129	-0.2541	0.0581
373.15	15190	0.155129	-0.2584	0.0581
373.15	15190	0.204703	-0.3453	0.0582
373.15	15190	0.204703	-0.3455	0.0582
373.15	15190	0.204703	-0.346	0.0582
373.15	15190	0.252649	-0.4325	0.0584
373.15	15190	0.252649	-0.4348	0.0584
373.15	15190	0.252649	-0.4345	0.0584
373.16	30210	0.052089	-0.0854	0.0579
373.16	30210	0.052089	-0.087	0.0579
373.16	30210	0.099534	-0.1628	0.0581
373.16	30210	0.099534	-0.1663	0.0581
373.16	30210	0.155129	-0.2609	0.0584
373.16	30210	0.155129	-0.2587	0.0584
373.16	30210	0.204703	-0.3431	0.0586
373.16	30210	0.204703	-0.3481	0.0586
373.16	30210	0.252649	-0.4311	0.0588
373.16	30210	0.252649	-0.4297	0.0588
398.15	1880	0.052089	-0.1595	0.0584
398.15	1880	0.052089	-0.1607	0.0584
398.15	1880	0.052089	-0.1613	0.0584
398.15	1880	0.099534	-0.3085	0.0585
398.15	1880	0.099534	-0.3112	0.0585
398.15	1880	0.099534	-0.3115	0.0585
398.15	1880	0.155129	-0.4856	0.0586
398.15	1880	0.155129	-0.4865	0.0586
398.15	1880	0.155129	-0.4881	0.0586
398.15	1880	0.204703	-0.6452	0.0587
398.15	1880	0.204703	-0.6457	0.0587
398.15	1880	0.204703	-0.647	0.0587
398.15	1880	0.252649	-0.804	0.0587
398.15	1880	0.252649	-0.8047	0.0587
398.15	1880	0.252649	-0.8063	0.0587
398.14	15050	0.052089	-0.1512	0.0586
398.14	15050	0.052089	-0.1501	0.0586
398.14	15050	0.052089	-0.1498	0.0586
398.14	15050	0.099534	-0.2907	0.0588
398.14	15050	0.099534	-0.2925	0.0588
398.14	15050	0.099534	-0.29	0.0588
398.14	15050	0.155129	-0.4545	0.059
398.14	15050	0.155129	-0.4569	0.059
398.14	15050	0.155129	-0.4563	0.059
398.14	15050	0.204703	-0.6045	0.0592
398.14	15050	0.204703	-0.6048	0.0592
398.14	15050	0.204703	-0.6059	0.0592
398.14	15050	0.252649	-0.7529	0.0595
398.14	15050	0.252649	-0.7539	0.0595
398.14	15050	0.252649	-0.7559	0.0595
398.12	30210	0.052089	-0.1423	0.0587
398.12	30210	0.052089	-0.1445	0.0587
398.12	30210	0.052089	-0.1426	0.0587
398.12	30210	0.099534	-0.2769	0.0591
398.12	30210	0.099534	-0.2742	0.059
398.12	30210	0.099534	-0.2731	0.059
398.12	30210	0.155129	-0.4299	0.0595
398.12	30210	0.155129	-0.427	0.0595
398.12	30210	0.155129	-0.4315	0.0595
398.12	30210	0.204703	-0.57	0.0598
398.12	30210	0.204703	-0.5697	0.0598
398.12	30210	0.204703	-0.566	0.0598
398.12	30210	0.252649	-0.7082	0.0602
398.12	30210	0.252649	-0.7122	0.0602
398.12	30210	0.252649	-0.7104	0.0602
423.16	1860	0.052089	-0.2284	0.0598
423.16	1860	0.052089	-0.229	0.0598
423.16	1860	0.052089	-0.2286	0.0598
423.16	1860	0.099534	-0.4429	0.0599
423.16	1860	0.099534	-0.4446	0.0599
423.16	1860	0.099534	-0.4431	0.0599
423.16	1860	0.155129	-0.6881	0.06
423.16	1860	0.155129	-0.6893	0.06
423.16	1860	0.155129	-0.6929	0.06
423.16	1860	0.204703	-0.9107	0.0602
423.16	1860	0.204703	-0.914	0.0602
423.16	1860	0.204703	-0.9126	0.0602
423.16	1860	0.252649	-1.1291	0.0603
423.16	1860	0.252649	-1.1285	0.0603
423.16	1860	0.252649	-1.1304	0.0603
423.16	15140	0.052089	-0.2105	0.06
423.16	15140	0.052089	-0.2075	0.06
423.16	15140	0.099534	-0.406	0.0603
423.16	15140	0.099534	-0.4057	0.0603
423.16	15140	0.099534	-0.404	0.0603
423.16	15140	0.155129	-0.6327	0.0607
423.16	15140	0.155129	-0.6346	0.0607
423.16	15140	0.155129	-0.6323	0.0607
423.16	15140	0.207023	-0.8472	0.061
423.16	15140	0.207023	-0.8467	0.061
423.16	15140	0.207023	-0.8436	0.061
423.16	15140	0.261664	-1.0705	0.0614
423.16	15140	0.261664	-1.0716	0.0614
423.16	15140	0.261664	-1.0726	0.0614
423.15	30130	0.052089	-0.194	0.0602
423.15	30130	0.052089	-0.1957	0.0602
423.15	30130	0.052089	-0.1978	0.0602
423.15	30130	0.099534	-0.3754	0.0607
423.15	30130	0.099534	-0.3763	0.0607
423.15	30130	0.099534	-0.3765	0.0607
423.15	30130	0.155129	-0.5851	0.0613
423.15	30130	0.155129	-0.5863	0.0613
423.15	30130	0.155129	-0.5865	0.0613
423.15	30130	0.207023	-0.785	0.0619
423.15	30130	0.207023	-0.7846	0.0619
423.15	30130	0.207023	-0.7841	0.0619
423.15	30130	0.252649	-0.9566	0.0624
423.15	30130	0.252649	-0.9579	0.0624
423.15	30130	0.252649	-0.9568	0.0624
448.16	1850	0.054203	-0.3062	0.0625
448.16	1850	0.054203	-0.3081	0.0625
448.16	1850	0.054203	-0.3093	0.0625
448.16	1850	0.097124	-0.5505	0.0626
448.16	1850	0.097124	-0.5514	0.0626
448.16	1850	0.097124	-0.5512	0.0626
448.16	1850	0.155052	-0.8774	0.0628
448.16	1850	0.155052	-0.88	0.0628
448.16	1850	0.155052	-0.8796	0.0628
448.16	1850	0.207023	-1.1743	0.063
448.16	1850	0.207023	-1.1723	0.063
448.16	1850	0.207023	-1.1723	0.063
448.16	1850	0.261664	-1.4712	0.0632
448.16	1850	0.261664	-1.4778	0.0632
448.16	1850	0.261664	-1.4783	0.0632
448.17	15140	0.054203	-0.2782	0.0628
448.17	15140	0.054203	-0.278	0.0628
448.17	15140	0.054203	-0.2797	0.0628
448.17	15140	0.097124	-0.4971	0.0632
448.17	15140	0.097124	-0.4989	0.0632
448.17	15140	0.097124	-0.4998	0.0632
448.17	15140	0.155052	-0.7933	0.0637
448.17	15140	0.155052	-0.7957	0.0637
448.17	15140	0.155052	-0.7937	0.0637
448.17	15140	0.207023	-1.0574	0.0641
448.17	15140	0.207023	-1.0575	0.0641
448.17	15140	0.207023	-1.0595	0.0641
448.17	15140	0.261664	-1.3324	0.0646
448.17	15140	0.261664	-1.3327	0.0646
448.17	15140	0.261664	-1.3347	0.0646
448.18	30060	0.054203	-0.2529	0.0631
448.18	30060	0.054203	-0.2539	0.0631
448.18	30060	0.054203	-0.2571	0.0631
448.18	30060	0.097124	-0.4523	0.0637
448.18	30060	0.097124	-0.4541	0.0637
448.18	30060	0.097124	-0.4545	0.0637
448.18	30060	0.155052	-0.7212	0.0645
448.18	30060	0.155052	-0.7208	0.0645
448.18	30060	0.155052	-0.7205	0.0645
448.18	30060	0.207023	-0.9579	0.0652
448.18	30060	0.207023	-0.9589	0.0653
448.18	30060	0.207023	-0.9621	0.0653
448.18	30060	0.261664	-1.2054	0.066
448.18	30060	0.261664	-1.207	0.066
448.18	30060	0.261664	-1.2079	0.0661
473.23	1850	0.054203	-0.3742	0.0673
473.23	1850	0.054203	-0.3739	0.0673
473.23	1850	0.054203	-0.3726	0.0673
473.23	1850	0.097124	-0.6669	0.0675
473.23	1850	0.097124	-0.6679	0.0675
473.23	1850	0.097124	-0.6672	0.0675
473.23	1850	0.155052	-1.0597	0.0678
473.23	1850	0.155052	-1.06	0.0678
473.23	1850	0.155052	-1.0615	0.0678
473.23	1850	0.207023	-1.4082	0.068
473.23	1850	0.207023	-1.4072	0.068
473.23	1850	0.207023	-1.407	0.068
473.23	1850	0.261664	-1.7697	0.0683
473.23	1850	0.261664	-1.7712	0.0683
473.23	1850	0.261664	-1.7699	0.0683
473.22	15120	0.054203	-0.3276	0.0677
473.22	15120	0.054203	-0.3301	0.0677
473.22	15120	0.097124	-0.5876	0.0682
473.22	15120	0.097124	-0.5883	0.0682
473.22	15120	0.097124	-0.5869	0.0682
473.22	15120	0.155052	-0.9349	0.0689
473.22	15120	0.155052	-0.9354	0.0689
473.22	15120	0.155052	-0.9358	0.0689
473.22	15120	0.207023	-1.2368	0.0695
473.22	15120	0.207023	-1.2415	0.0695
473.22	15120	0.207023	-1.2419	0.0695
473.22	15120	0.261664	-1.5613	0.0701
473.22	15120	0.261664	-1.5607	0.0701
473.22	15120	0.261664	-1.563	0.0701
473.22	30040	0.054203	-0.2892	0.0681
473.22	30040	0.054203	-0.2897	0.0681
473.22	30040	0.054203	-0.2932	0.0681
473.22	30040	0.097124	-0.5193	0.0688
473.22	30040	0.097124	-0.5229	0.0689
473.22	30040	0.097124	-0.523	0.0689
473.22	30040	0.155052	-0.8241	0.0699
473.22	30040	0.155052	-0.8299	0.0699
473.22	30040	0.155052	-0.8302	0.0699
473.22	30040	0.207023	-1.0936	0.0708
473.22	30040	0.207023	-1.0989	0.0708
473.22	30040	0.207023	-1.1046	0.0709
473.22	30040	0.261664	-1.3817	0.0718
473.22	30040	0.261664	-1.381	0.0718
473.22	30040	0.261664	-1.3849	0.0719
498.13	3050	0.054203	-0.4295	0.0757
498.13	3050	0.054203	-0.4269	0.0757
498.13	3050	0.054203	-0.4312	0.0757
498.13	3050	0.097124	-0.7674	0.0759
498.13	3050	0.097124	-0.7643	0.0759
498.13	3050	0.097124	-0.7647	0.0759
498.13	3050	0.155052	-1.2124	0.0763
498.13	3050	0.155052	-1.2159	0.0763
498.13	3050	0.155052	-1.2187	0.0763
498.13	3050	0.207023	-1.6142	0.0767
498.13	3050	0.207023	-1.6158	0.0767
498.13	3050	0.207023	-1.6166	0.0767
498.13	3050	0.261664	-2.025	0.077
498.13	3050	0.261664	-2.0309	0.077
498.13	3050	0.261664	-2.0295	0.077
498.12	15110	0.054203	-0.375	0.0761
498.12	15110	0.054203	-0.3757	0.0761
498.12	15110	0.054203	-0.3733	0.0761
498.12	15110	0.097124	-0.6702	0.0767
498.12	15110	0.097124	-0.6704	0.0767
498.12	15110	0.097124	-0.6691	0.0767
498.12	15110	0.155052	-1.0601	0.0776
498.12	15110	0.155052	-1.0609	0.0776
498.12	15110	0.155052	-1.0619	0.0776
498.12	15110	0.205039	-1.3932	0.0783
498.12	15110	0.205039	-1.3949	0.0783
498.12	15110	0.205039	-1.3927	0.0783
498.12	15110	0.261664	-1.7639	0.0791
498.12	15110	0.261664	-1.7623	0.0791
498.12	15110	0.261664	-1.764	0.0791
498.11	30120	0.054203	-0.3235	0.0765
498.11	30120	0.054203	-0.3236	0.0765
498.11	30120	0.054203	-0.3249	0.0765
498.11	30120	0.097124	-0.5781	0.0775
498.11	30120	0.097124	-0.5714	0.0774
498.11	30120	0.097124	-0.5776	0.0775
498.11	30120	0.155052	-0.9168	0.0787
498.11	30120	0.155052	-0.9135	0.0787
498.11	30120	0.155052	-0.9172	0.0787
498.11	30120	0.205039	-1.2005	0.0798
498.11	30120	0.205039	-1.2052	0.0799
498.11	30120	0.205039	-1.1997	0.0798
498.11	30120	0.250463	-1.456	0.0808
498.11	30120	0.250463	-1.456	0.0808
498.11	30120	0.250463	-1.4604	0.0809
523.19	5040	0.097124	-0.8735	0.0897
523.19	5040	0.097124	-0.8748	0.0897
523.19	5040	0.097124	-0.8847	0.0897
523.19	5040	0.052044	-0.4711	0.0892
523.19	5040	0.052044	-0.4747	0.0892
523.19	5040	0.052044	-0.4707	0.0892
523.19	5040	0.157628	-1.4094	0.0903
523.19	5040	0.157628	-1.4005	0.0903
523.19	5040	0.157628	-1.4029	0.0903
523.19	5040	0.205039	-1.8111	0.0908
523.19	5040	0.205039	-1.8103	0.0908
523.19	5040	0.205039	-1.8158	0.0908
523.19	5040	0.250463	-2.1954	0.0912
523.19	5040	0.250463	-2.1985	0.0912
523.19	5040	0.250463	-2.1979	0.0912
523.19	15150	0.052044	-0.4004	0.0896
523.19	15150	0.052044	-0.3994	0.0896
523.19	15150	0.052044	-0.4056	0.0896
523.19	15150	0.103253	-0.8023	0.0905
523.19	15150	0.103253	-0.7916	0.0905
523.19	15150	0.103253	-0.7994	0.0905
523.19	15150	0.157628	-1.2068	0.0915
523.19	15150	0.157628	-1.2074	0.0915
523.19	15150	0.157628	-1.2024	0.0915
523.19	15150	0.205039	-1.5574	0.0923
523.19	15150	0.205039	-1.5569	0.0923
523.19	15150	0.205039	-1.5575	0.0923
523.19	15150	0.250463	-1.8864	0.0931
523.19	15150	0.250463	-1.8855	0.0931
523.19	15150	0.250463	-1.8851	0.0931
523.19	30030	0.052044	-0.3359	0.09
523.19	30030	0.052044	-0.3341	0.09
523.19	30030	0.103253	-0.6614	0.0914
523.19	30030	0.103253	-0.666	0.0914
523.19	30030	0.157628	-1.0019	0.0928
523.19	30030	0.157628	-1.0049	0.0928
523.19	30030	0.205039	-1.296	0.094
523.19	30030	0.205039	-1.2946	0.094
523.19	30030	0.250463	-1.562	0.0951
523.19	30030	0.250463	-1.5665	0.0952
548.16	7050	0.052044	-0.5386	0.1096
548.16	7050	0.052044	-0.5357	0.1096
548.16	7050	0.052044	-0.5384	0.1096
548.16	7050	0.103253	-1.0504	0.1104
548.16	7050	0.103253	-1.0482	0.1104
548.16	7050	0.103253	-1.0534	0.1104
548.16	7050	0.157628	-1.5881	0.1112
548.16	7050	0.157628	-1.5885	0.1112
548.16	7050	0.157628	-1.5913	0.1112
548.16	7050	0.205039	-2.041	0.1119
548.16	7050	0.205039	-2.0473	0.1119
548.16	7050	0.205039	-2.047	0.1119
548.16	7050	0.250463	-2.472	0.1126
548.16	7050	0.250463	-2.474	0.1126
548.16	7050	0.250463	-2.4772	0.1126
548.22	15060	0.052044	-0.4544	0.11
548.22	15060	0.052044	-0.4554	0.11
548.22	15060	0.052044	-0.436	0.11
548.22	15060	0.103253	-0.8823	0.1111
548.22	15060	0.103253	-0.8679	0.1111
548.22	15060	0.103253	-0.8902	0.1111
548.22	15060	0.103253	-0.882	0.1111
548.22	15060	0.103253	-0.8743	0.1111
548.22	15060	0.157628	-1.3337	0.1123
548.22	15060	0.157628	-1.343	0.1123
548.22	15060	0.157628	-1.3411	0.1123
548.22	15060	0.157628	-1.3524	0.1123
548.22	15060	0.205039	-1.7012	0.1132
548.22	15060	0.205039	-1.7361	0.1133
548.22	15060	0.205039	-1.7465	0.1133
548.22	15060	0.205039	-1.7514	0.1133
548.22	15060	0.205039	-1.7487	0.1133
548.22	15060	0.250463	-2.0594	0.1141
548.22	15060	0.250463	-2.1043	0.1142
548.22	15060	0.250463	-2.0835	0.1142
548.22	15060	0.250463	-2.105	0.1142
548.22	15060	0.250463	-2.1007	0.1142
548.22	15060	0.250463	-2.1095	0.1143
548.16	30120	0.052044	-0.3622	0.1104
548.16	30120	0.052044	-0.354	0.1104
548.16	30120	0.052044	-0.352	0.1104
548.16	30120	0.052044	-0.3479	0.1104
548.16	30120	0.052044	-0.3498	0.1104
548.16	30120	0.103253	-0.7019	0.1119
548.16	30120	0.103253	-0.7018	0.1119
548.16	30120	0.103253	-0.6983	0.1119
548.16	30120	0.103253	-0.6947	0.1119
548.16	30120	0.103253	-0.6954	0.1119
548.16	30120	0.157628	-1.0546	0.1135
548.16	30120	0.157628	-1.058	0.1135
548.16	30120	0.157628	-1.0558	0.1135
548.16	30120	0.157628	-1.0509	0.1135
548.16	30120	0.157628	-1.0543	0.1135
548.16	30120	0.189112	-1.2579	0.1144
548.16	30120	0.189112	-1.2588	0.1144
548.16	30120	0.189112	-1.2561	0.1144
548.16	30120	0.205039	-1.3447	0.1148
548.16	30120	0.205039	-1.3639	0.1149
548.16	30120	0.205039	-1.3588	0.1149
548.16	30120	0.250463	-1.6674	0.1163
548.16	30120	0.250463	-1.6533	0.1162
548.16	30120	0.250463	-1.6761	0.1163
548.16	30120	0.256899	-1.6844	0.1163
548.16	30120	0.256899	-1.6851	0.1163
548.16	30120	0.256899	-1.6787	0.1163
573.18	10030	0.050723	-0.598	0.1421
573.18	10030	0.050723	-0.5981	0.1421
573.18	10030	0.103253	-1.1966	0.1435
573.18	10030	0.103253	-1.2033	0.1435
573.18	10030	0.103253	-1.2037	0.1435
573.18	10030	0.155423	-1.7855	0.1448
573.18	10030	0.155423	-1.8039	0.1449
573.18	10030	0.155423	-1.7853	0.1448
573.18	10030	0.189112	-2.1522	0.1457
573.18	10030	0.189112	-2.146	0.1457
573.18	10030	0.189112	-2.1517	0.1457
573.18	10030	0.256899	-2.8859	0.1475
573.18	10030	0.256899	-2.8831	0.1475
573.18	10030	0.256899	-2.8825	0.1475
573.2	15210	0.050723	-0.5097	0.1423
573.2	15210	0.050723	-0.5116	0.1423
573.2	15210	0.050723	-0.5142	0.1423
573.2	15210	0.101705	-1.0129	0.1439
573.2	15210	0.101705	-1.0126	0.1439
573.2	15210	0.101705	-1.0175	0.1439
573.2	15210	0.155423	-1.5282	0.1455
573.2	15210	0.155423	-1.5305	0.1455
573.2	15210	0.155423	-1.5367	0.1455
573.2	15210	0.189112	-1.8522	0.1465
573.2	15210	0.189112	-1.8507	0.1465
573.2	15210	0.189112	-1.8514	0.1465
573.2	15210	0.256899	-2.4696	0.1485
573.2	15210	0.256899	-2.4754	0.1485
573.2	15210	0.256899	-2.4785	0.1485
573.19	30030	0.050723	-0.3649	0.1427
573.19	30030	0.050723	-0.3662	0.1427
573.19	30030	0.050723	-0.3647	0.1427
573.19	30030	0.101705	-0.7244	0.1446
573.19	30030	0.101705	-0.7339	0.1447
573.19	30030	0.101705	-0.7348	0.1447
573.19	30030	0.155423	-1.096	0.1466
573.19	30030	0.155423	-1.1084	0.1467
573.19	30030	0.155423	-1.1102	0.1467
573.19	30030	0.189112	-1.3232	0.1479
573.19	30030	0.189112	-1.3351	0.1479
573.19	30030	0.189112	-1.3356	0.1479
573.19	30030	0.256899	-1.764	0.1503
573.19	30030	0.256899	-1.7754	0.1503
573.19	30030	0.256899	-1.7815	0.1504

System: 2-butyl-2-ethyl-1,3-propanediol + water; phases: Liquid
Property: Mass density, kg/m3 (Liquid); method: Vibrating tube method
Temperature, K	Pressure, kPa	Molality, mol/kg of 2-butyl-2-ethyl-1,3-propanediol	Mass density, kg/m3	uncertainty
298.15	510	0.027196	-0.0181	0.0575
298.15	510	0.027196	-0.0186	0.0575
298.15	510	0.027196	-0.017	0.0575
298.15	510	0.031471	-0.0204	0.0575
298.15	510	0.031471	-0.0209	0.0575
298.15	510	0.031471	-0.0158	0.0575
298.15	510	0.034885	-0.0205	0.0575
298.15	510	0.034885	-0.0198	0.0575
298.15	510	0.034885	-0.0212	0.0575
298.15	510	0.040009	-0.0116	0.0575
298.15	510	0.040009	-0.0146	0.0575
298.15	510	0.040009	-0.0152	0.0575
298.17	15160	0.027196	-0.0455	0.0575
298.17	15160	0.027196	-0.0464	0.0575
298.17	15160	0.027196	-0.052	0.0575
298.17	15160	0.031471	-0.0537	0.0575
298.17	15160	0.031471	-0.0578	0.0575
298.17	15160	0.031471	-0.058	0.0575
298.17	15160	0.034885	-0.0646	0.0575
298.17	15160	0.034885	-0.0565	0.0575
298.17	15160	0.034885	-0.0609	0.0575
298.17	15160	0.040009	-0.049	0.0575
298.17	15160	0.040009	-0.0615	0.0575
298.17	15160	0.040009	-0.0556	0.0575
298.16	30120	0.027196	-0.0754	0.0576
298.16	30120	0.027196	-0.0702	0.0576
298.16	30120	0.027196	-0.0754	0.0576
298.16	30120	0.031471	-0.0807	0.0576
298.16	30120	0.031471	-0.089	0.0577
298.16	30120	0.031471	-0.0874	0.0577
298.16	30120	0.034885	-0.0964	0.0577
298.16	30120	0.034885	-0.0942	0.0577
298.16	30120	0.034885	-0.0925	0.0577
298.16	30120	0.040009	-0.0964	0.0577
298.16	30120	0.040009	-0.0932	0.0577
298.16	30120	0.040009	-0.0944	0.0577
318.19	510	0.027196	-0.0825	0.0575
318.19	510	0.027196	-0.0772	0.0575
318.19	510	0.027196	-0.0817	0.0575
318.19	510	0.031471	-0.095	0.0575
318.19	510	0.031471	-0.0946	0.0575
318.19	510	0.031471	-0.0897	0.0575
318.19	510	0.034885	-0.0903	0.0575
318.19	510	0.034885	-0.099	0.0575
318.19	510	0.034885	-0.1036	0.0575
318.19	510	0.040009	-0.0975	0.0575
318.19	510	0.040009	-0.0988	0.0575
318.19	510	0.040009	-0.1019	0.0575
318.17	15130	0.027196	-0.0889	0.0576
318.17	15130	0.027196	-0.0838	0.0576
318.17	15130	0.027196	-0.0957	0.0576
318.17	15130	0.031471	-0.1062	0.0576
318.17	15130	0.031471	-0.106	0.0576
318.17	15130	0.031471	-0.1056	0.0576
318.17	15130	0.034885	-0.1171	0.0576
318.17	15130	0.034885	-0.1172	0.0576
318.17	15130	0.034885	-0.124	0.0576
318.17	15130	0.040009	-0.1197	0.0576
318.17	15130	0.040009	-0.1179	0.0576
318.17	15130	0.040009	-0.1116	0.0576
318.16	30250	0.027196	-0.1003	0.0577
318.16	30250	0.027196	-0.1101	0.0577
318.16	30250	0.027196	-0.1075	0.0577
318.16	30250	0.031471	-0.1241	0.0578
318.16	30250	0.031471	-0.1233	0.0578
318.16	30250	0.031471	-0.1299	0.0578
318.16	30250	0.034885	-0.1407	0.0578
318.16	30250	0.034885	-0.1437	0.0578
318.16	30250	0.034885	-0.1405	0.0578
318.16	30250	0.040009	-0.1427	0.0578
318.16	30250	0.040009	-0.1449	0.0578
318.16	30250	0.040009	-0.1387	0.0578
338.19	520	0.027196	-0.1337	0.0575
338.19	520	0.027196	-0.1369	0.0575
338.19	520	0.027196	-0.1377	0.0575
338.19	520	0.031471	-0.1559	0.0575
338.19	520	0.031471	-0.1586	0.0575
338.19	520	0.031471	-0.1581	0.0575
338.19	520	0.034885	-0.17	0.0575
338.19	520	0.034885	-0.1696	0.0575
338.19	520	0.034885	-0.1768	0.0575
338.19	520	0.040009	-0.177	0.0575
338.19	520	0.040009	-0.177	0.0575
338.19	520	0.040009	-0.1731	0.0575
338.17	15190	0.027196	-0.1525	0.0577
338.17	15190	0.027196	-0.1486	0.0577
338.17	15190	0.027196	-0.1536	0.0577
338.17	15190	0.031471	-0.1736	0.0577
338.17	15190	0.031471	-0.1779	0.0577
338.17	15190	0.031471	-0.178	0.0577
338.17	15190	0.034885	-0.1897	0.0577
338.17	15190	0.034885	-0.1927	0.0577
338.17	15190	0.034885	-0.1986	0.0577
338.17	15190	0.040009	-0.1887	0.0577
338.17	15190	0.040009	-0.1881	0.0577
338.17	15190	0.040009	-0.1916	0.0577
338.16	30100	0.027196	-0.1619	0.0579
338.16	30100	0.027196	-0.1664	0.0579
338.16	30100	0.027196	-0.1599	0.0579
338.16	30100	0.0341	-0.1929	0.0579
338.16	30100	0.0341	-0.1956	0.058
338.16	30100	0.0341	-0.1777	0.0579
338.16	30100	0.034885	-0.1934	0.0579
338.16	30100	0.034885	-0.2082	0.058
338.16	30100	0.034885	-0.2057	0.058
338.16	30100	0.040009	-0.1896	0.0579
338.16	30100	0.040009	-0.1953	0.058
338.16	30100	0.040009	-0.1982	0.058
358.16	510	0.02882	-0.1964	0.0576
358.16	510	0.02882	-0.1966	0.0576
358.16	510	0.02882	-0.1981	0.0576
358.16	510	0.03298	-0.2256	0.0576
358.16	510	0.03298	-0.2255	0.0576
358.16	510	0.03298	-0.2271	0.0576
358.16	510	0.0341	-0.2334	0.0577
358.16	510	0.0341	-0.2351	0.0577
358.16	510	0.0341	-0.2361	0.0577
358.16	510	0.03433	-0.2361	0.0577
358.16	510	0.03433	-0.2362	0.0577
358.16	510	0.03433	-0.234	0.0576
358.15	15120	0.02882	-0.1975	0.0578
358.15	15120	0.02882	-0.1987	0.0578
358.15	15120	0.02882	-0.1983	0.0578
358.15	15120	0.03298	-0.2275	0.0579
358.15	15120	0.03298	-0.2264	0.0579
358.15	15120	0.03298	-0.2267	0.0579
358.15	15120	0.0341	-0.2344	0.058
358.15	15120	0.0341	-0.2353	0.058
358.15	15120	0.0341	-0.237	0.0581
358.15	15120	0.03433	-0.2358	0.0579
358.15	15120	0.03433	-0.2369	0.0579
358.15	15120	0.03433	-0.2375	0.0579
358.14	30090	0.02882	-0.2017	0.0581
358.14	30090	0.02882	-0.2015	0.0581
358.14	30090	0.02882	-0.2024	0.0581
358.14	30090	0.03298	-0.2267	0.0581
358.14	30090	0.03298	-0.23	0.0581
358.14	30090	0.03298	-0.2304	0.0581
358.14	30090	0.0341	-0.2374	0.0582
358.14	30090	0.0341	-0.2378	0.0582
358.14	30090	0.0341	-0.2408	0.0582
358.14	30090	0.03433	-0.24	0.0582
358.14	30090	0.03433	-0.2406	0.0582
358.14	30090	0.03433	-0.2431	0.0582
373.18	520	0.028374	-0.2351	0.0578
373.18	520	0.028374	-0.2338	0.0578
373.18	520	0.028374	-0.234	0.0578
373.18	520	0.036297	-0.2989	0.0578
373.18	520	0.036297	-0.2993	0.0578
373.18	520	0.036297	-0.3008	0.0578
373.18	520	0.037029	-0.3063	0.0578
373.18	520	0.037029	-0.306	0.0578
373.18	520	0.037029	-0.3058	0.0578
373.18	520	0.037365	-0.3087	0.0578
373.18	520	0.037365	-0.309	0.0578
373.18	520	0.037365	-0.3095	0.0578
373.15	15190	0.028374	-0.2339	0.0581
373.15	15190	0.028374	-0.232	0.0581
373.15	15190	0.028374	-0.2331	0.0581
373.15	15190	0.036297	-0.2962	0.0582
373.15	15190	0.036297	-0.2976	0.0582
373.15	15190	0.036297	-0.2978	0.0582
373.15	15190	0.037029	-0.3036	0.0582
373.15	15190	0.037029	-0.3032	0.0582
373.15	15190	0.037029	-0.305	0.0582
373.15	15190	0.037365	-0.3057	0.0582
373.15	15190	0.037365	-0.3075	0.0582
373.15	15190	0.037365	-0.3075	0.0582
373.17	30200	0.028374	-0.2308	0.0583
373.17	30200	0.028374	-0.2313	0.0583
373.17	30200	0.028374	-0.2308	0.0583
373.17	30200	0.036297	-0.2947	0.0585
373.17	30200	0.036297	-0.294	0.0585
373.17	30200	0.037029	-0.3004	0.0585
373.17	30200	0.037029	-0.3003	0.0585
373.17	30200	0.037365	-0.3047	0.0585
373.17	30200	0.037365	-0.3045	0.0585
373.17	30200	0.037365	-0.3049	0.0585
398.13	1880	0.028374	-0.2968	0.0585
398.13	1880	0.028374	-0.2953	0.0585
398.13	1880	0.028374	-0.2955	0.0585
398.13	1880	0.036297	-0.379	0.0585
398.13	1880	0.036297	-0.3777	0.0585
398.13	1880	0.036297	-0.378	0.0585
398.13	1880	0.037029	-0.3864	0.0585
398.13	1880	0.037029	-0.3865	0.0585
398.13	1880	0.037029	-0.3836	0.0585
398.13	1880	0.037365	-0.3892	0.0585
398.13	1880	0.037365	-0.3895	0.0585
398.13	1880	0.037365	-0.3897	0.0585
398.14	15200	0.025253	-0.2533	0.0587
398.14	15200	0.025253	-0.2526	0.0587
398.14	15200	0.025253	-0.2522	0.0587
398.14	15200	0.036297	-0.3645	0.0589
398.14	15200	0.036297	-0.3659	0.0589
398.14	15200	0.037029	-0.3715	0.0589
398.14	15200	0.037029	-0.3729	0.0589
398.14	15200	0.037029	-0.3737	0.0589
398.14	15200	0.037365	-0.376	0.0589
398.14	15200	0.037365	-0.3761	0.0589
398.14	15200	0.037365	-0.3762	0.0589
398.12	30190	0.025253	-0.2438	0.059
398.12	30190	0.025253	-0.2447	0.059
398.12	30190	0.025253	-0.2468	0.059
398.12	30190	0.036297	-0.3508	0.0592
398.12	30190	0.036297	-0.3571	0.0593
398.12	30190	0.036297	-0.3534	0.0593
398.12	30190	0.037029	-0.3568	0.0593
398.12	30190	0.037029	-0.3601	0.0593
398.12	30190	0.037029	-0.361	0.0593
398.12	30190	0.037365	-0.3621	0.0593
398.12	30190	0.037365	-0.3646	0.0593
423.16	1850	0.025253	-0.3129	0.0598
423.16	1850	0.025253	-0.3145	0.0598
423.16	1850	0.025253	-0.3109	0.0598
423.16	1850	0.036297	-0.4496	0.0599
423.16	1850	0.036297	-0.4494	0.0599
423.16	1850	0.036297	-0.4502	0.0599
423.16	1850	0.037029	-0.4565	0.0599
423.16	1850	0.037029	-0.4578	0.0599
423.16	1850	0.037029	-0.4552	0.0599
423.16	1850	0.037365	-0.4632	0.0599
423.16	1850	0.037365	-0.4611	0.0599
423.16	1850	0.037365	-0.4653	0.0599
423.15	15130	0.025253	-0.2964	0.0601
423.15	15130	0.025253	-0.2977	0.0601
423.15	15130	0.025253	-0.2974	0.0601
423.15	15130	0.036297	-0.4258	0.0603
423.15	15130	0.036297	-0.4265	0.0603
423.15	15130	0.036297	-0.4269	0.0603
423.15	15130	0.037029	-0.4349	0.0604
423.15	15130	0.037029	-0.4351	0.0604
423.15	15130	0.037029	-0.4341	0.0604
423.15	15130	0.037365	-0.4381	0.0604
423.15	15130	0.037365	-0.4404	0.0604
423.15	15130	0.037365	-0.4391	0.0604
423.14	30130	0.025253	-0.2858	0.0605
423.14	30130	0.025253	-0.2875	0.0605
423.14	30130	0.025253	-0.285	0.0605
423.14	30130	0.036297	-0.4091	0.0608
423.14	30130	0.036297	-0.4104	0.0608
423.14	30130	0.036297	-0.4114	0.0608
423.14	30130	0.037029	-0.4155	0.0608
423.14	30130	0.037029	-0.4168	0.0608
423.14	30130	0.037029	-0.417	0.0608
423.14	30130	0.037365	-0.4204	0.0608
423.14	30130	0.037365	-0.4232	0.0608
423.14	30130	0.037365	-0.4216	0.0608
448.16	1850	0.025253	-0.3553	0.0625
448.16	1850	0.025253	-0.3553	0.0625
448.16	1850	0.025253	-0.3563	0.0625
448.16	1850	0.036297	-0.511	0.0626
448.16	1850	0.036297	-0.5136	0.0626
448.16	1850	0.036297	-0.5126	0.0626
448.16	1850	0.037029	-0.5213	0.0626
448.16	1850	0.037029	-0.5204	0.0626
448.16	1850	0.037029	-0.5249	0.0626
448.16	1850	0.037365	-0.5256	0.0626
448.16	1850	0.037365	-0.526	0.0626
448.16	1850	0.037365	-0.5271	0.0626
448.17	15210	0.025253	-0.3344	0.0629
448.17	15210	0.025253	-0.3335	0.0629
448.17	15210	0.025253	-0.3308	0.0629
448.17	15210	0.031239	-0.4112	0.063
448.17	15210	0.031239	-0.4094	0.063
448.17	15210	0.031239	-0.4176	0.063
448.17	15210	0.031239	-0.4103	0.063
448.17	15210	0.032911	-0.4336	0.0631
448.17	15210	0.032911	-0.4336	0.0631
448.17	15210	0.032911	-0.436	0.0631
448.17	15210	0.032911	-0.4322	0.063
448.17	15210	0.037218	-0.4881	0.0631
448.17	15210	0.037218	-0.4921	0.0632
448.17	15210	0.037218	-0.4989	0.0632
448.17	15210	0.037218	-0.4875	0.0631
448.19	30050	0.025253	-0.3142	0.0632
448.19	30050	0.025253	-0.3155	0.0633
448.19	30050	0.031239	-0.3881	0.0635
448.19	30050	0.031239	-0.3895	0.0635
448.19	30050	0.031239	-0.39	0.0635
448.19	30050	0.032911	-0.4103	0.0635
448.19	30050	0.032911	-0.4103	0.0635
448.19	30050	0.037218	-0.4614	0.0637
448.19	30050	0.037218	-0.4629	0.0637
473.23	1830	0.025253	-0.3979	0.0674
473.23	1830	0.025253	-0.3983	0.0674
473.23	1830	0.025253	-0.3969	0.0674
473.23	1830	0.031239	-0.4904	0.0674
473.23	1830	0.031239	-0.4899	0.0674
473.23	1830	0.031239	-0.4906	0.0674
473.23	1830	0.032911	-0.5183	0.0674
473.23	1830	0.032911	-0.518	0.0674
473.23	1830	0.032911	-0.5174	0.0674
473.23	1830	0.037218	-0.5838	0.0675
473.23	1830	0.037218	-0.5859	0.0675
473.23	1830	0.037218	-0.5843	0.0675
473.22	15130	0.025885	-0.3728	0.0678
473.22	15130	0.025885	-0.3728	0.0678
473.22	15130	0.025885	-0.3732	0.0678
473.22	15130	0.031239	-0.4498	0.068
473.22	15130	0.031239	-0.4468	0.068
473.22	15130	0.031239	-0.4493	0.068
473.22	15130	0.032911	-0.4746	0.068
473.22	15130	0.032911	-0.4769	0.068
473.22	15130	0.032911	-0.4757	0.068
473.22	15130	0.037218	-0.5356	0.0681
473.22	15130	0.037218	-0.5365	0.0681
473.22	15130	0.037218	-0.5367	0.0681
473.22	30030	0.025885	-0.3467	0.0683
473.22	30030	0.025885	-0.3481	0.0683
473.22	30030	0.025885	-0.3489	0.0683
473.22	30030	0.031239	-0.4184	0.0685
473.22	30030	0.031239	-0.4159	0.0685
473.22	30030	0.031239	-0.422	0.0685
473.22	30030	0.032911	-0.4414	0.0686
473.22	30030	0.032911	-0.4414	0.0686
473.22	30030	0.032911	-0.4435	0.0686
473.22	30030	0.037218	-0.4983	0.0688
473.22	30030	0.037218	-0.5023	0.0688
473.22	30030	0.037218	-0.5017	0.0688
498.13	3050	0.025885	-0.4452	0.0757
498.13	3050	0.025885	-0.4445	0.0757
498.13	3050	0.025885	-0.4435	0.0757
498.13	3050	0.031239	-0.5367	0.0758
498.13	3050	0.031239	-0.5379	0.0758
498.13	3050	0.031239	-0.5363	0.0758
498.13	3050	0.032911	-0.5654	0.0758
498.13	3050	0.032911	-0.5654	0.0758
498.13	3050	0.032911	-0.5651	0.0758
498.13	3050	0.037218	-0.6397	0.0758
498.13	3050	0.037218	-0.6368	0.0758
498.13	3050	0.037218	-0.6349	0.0758
498.12	15110	0.025885	-0.4049	0.0762
498.12	15110	0.025885	-0.4041	0.0762
498.12	15110	0.031239	-0.491	0.0763
498.12	15110	0.031239	-0.4862	0.0763
498.12	15110	0.031239	-0.4862	0.0763
498.12	15110	0.032911	-0.5173	0.0764
498.12	15110	0.032911	-0.5134	0.0764
498.12	15110	0.032911	-0.5143	0.0764
498.12	15110	0.037218	-0.5821	0.0765
498.12	15110	0.037218	-0.5811	0.0765
498.12	15110	0.037218	-0.5802	0.0765
498.11	30110	0.025885	-0.368	0.0767
498.11	30110	0.025885	-0.3682	0.0767
498.11	30110	0.025885	-0.3683	0.0767
498.11	30110	0.031239	-0.4454	0.077
498.11	30110	0.031239	-0.4418	0.0769
498.11	30110	0.031239	-0.4432	0.0769
498.11	30110	0.032911	-0.4685	0.077
498.11	30110	0.032911	-0.4677	0.077
498.11	30110	0.032911	-0.4702	0.077
498.11	30110	0.037218	-0.529	0.0773
498.11	30110	0.037218	-0.5295	0.0773
498.11	30110	0.037218	-0.5275	0.0773
523.19	5040	0.025885	-0.4875	0.0892
523.19	5040	0.025885	-0.4849	0.0892
523.19	5040	0.031239	-0.5872	0.0893
523.19	5040	0.031239	-0.5845	0.0893
523.19	5040	0.031239	-0.5858	0.0893
523.19	5040	0.032911	-0.6199	0.0894
523.19	5040	0.032911	-0.6189	0.0894
523.19	5040	0.037218	-0.6989	0.0895
523.19	5040	0.037218	-0.6955	0.0895
523.19	5040	0.037218	-0.6963	0.0895
523.19	15140	0.025885	-0.4441	0.0897
523.19	15140	0.025885	-0.4352	0.0897
523.19	15140	0.025885	-0.4397	0.0897
523.19	15140	0.025885	-0.4414	0.0897
523.19	15140	0.029983	-0.4979	0.0898
523.19	15140	0.029983	-0.5029	0.0898
523.19	15140	0.029983	-0.5119	0.0898
523.19	15140	0.029983	-0.5085	0.0898
523.19	15140	0.035892	-0.6036	0.0901
523.19	15140	0.035892	-0.6064	0.0901
523.19	15140	0.035892	-0.6039	0.0901
523.19	15140	0.035892	-0.602	0.0901
523.19	15140	0.03896	-0.6585	0.0902
523.19	15140	0.03896	-0.651	0.0902
523.19	15140	0.03896	-0.6611	0.0902
523.19	15140	0.03896	-0.6536	0.0902
523.19	30060	0.025885	-0.3824	0.0902
523.19	30060	0.025885	-0.3835	0.0902
523.19	30060	0.025885	-0.3892	0.0902
523.19	30060	0.029983	-0.4414	0.0905
523.19	30060	0.029983	-0.4482	0.0905
523.19	30060	0.029983	-0.4477	0.0905
523.19	30060	0.035892	-0.5246	0.0908
523.19	30060	0.035892	-0.5344	0.0908
523.19	30060	0.035892	-0.5349	0.0908
523.19	30060	0.03896	-0.5833	0.091
523.19	30060	0.03896	-0.5738	0.091
523.19	30060	0.03896	-0.5786	0.091
548.17	7050	0.025885	-0.5319	0.1096
548.17	7050	0.025885	-0.5335	0.1097
548.17	7050	0.025885	-0.5349	0.1097
548.17	7050	0.029983	-0.6178	0.1098
548.17	7050	0.029983	-0.6151	0.1098
548.17	7050	0.029983	-0.6177	0.1098
548.17	7050	0.035892	-0.7352	0.11
548.17	7050	0.035892	-0.7346	0.11
548.17	7050	0.035892	-0.733	0.11
548.17	7050	0.03896	-0.7928	0.11
548.17	7050	0.03896	-0.7951	0.11
548.17	7050	0.03896	-0.7935	0.11
548.16	15050	0.025885	-0.4644	0.11
548.16	15050	0.025885	-0.459	0.11
548.16	15050	0.029983	-0.5382	0.1102
548.16	15050	0.029983	-0.5298	0.1102
548.16	15050	0.029983	-0.5286	0.1102
548.16	15050	0.035892	-0.6461	0.1105
548.16	15050	0.035892	-0.6343	0.1104
548.16	15050	0.035892	-0.6552	0.1105
548.16	15050	0.03896	-0.6865	0.1106
548.16	15050	0.03896	-0.6985	0.1106
548.16	15050	0.03896	-0.7176	0.1106
548.16	30100	0.025973	-0.397	0.1106
548.16	30100	0.025973	-0.3966	0.1106
548.16	30100	0.029983	-0.4589	0.1109
548.16	30100	0.029983	-0.4562	0.1108
548.16	30100	0.035892	-0.5478	0.1113
548.16	30100	0.035892	-0.5473	0.1113
548.16	30100	0.03896	-0.5924	0.1115
548.16	30100	0.03896	-0.5914	0.1114
573.18	10050	0.025973	-0.5906	0.142
573.18	10050	0.025973	-0.5865	0.142
573.18	10050	0.025973	-0.5924	0.142
573.18	10050	0.029983	-0.6782	0.1422
573.18	10050	0.029983	-0.6776	0.1422
573.18	10050	0.029983	-0.6764	0.1422
573.18	10050	0.035892	-0.8082	0.1425
573.18	10050	0.035892	-0.8104	0.1426
573.18	10050	0.035892	-0.8108	0.1426
573.18	10050	0.03896	-0.8748	0.1427
573.18	10050	0.03896	-0.8712	0.1427
573.19	15230	0.025973	-0.5202	0.1423
573.19	15230	0.025973	-0.5173	0.1423
573.19	15230	0.025973	-0.5174	0.1423
573.19	15230	0.029983	-0.5931	0.1425
573.19	15230	0.029983	-0.5986	0.1426
573.19	15230	0.029983	-0.5977	0.1426
573.19	15230	0.035892	-0.7134	0.1429
573.19	15230	0.035892	-0.7161	0.1429
573.19	15230	0.035892	-0.7177	0.1429
573.19	15230	0.03896	-0.7698	0.1431
573.19	15230	0.03896	-0.7746	0.1431
573.19	15230	0.03896	-0.7731	0.1431
573.19	30080	0.025973	-0.4071	0.1429
573.19	30080	0.025973	-0.4156	0.1429
573.19	30080	0.025973	-0.4108	0.1429
573.19	30080	0.029983	-0.471	0.1432
573.19	30080	0.029983	-0.4784	0.1433
573.19	30080	0.029983	-0.4701	0.1432
573.19	30080	0.035892	-0.568	0.1438
573.19	30080	0.035892	-0.571	0.1438
573.19	30080	0.035892	-0.5667	0.1438
573.19	30080	0.03896	-0.6015	0.1439
573.19	30080	0.03896	-0.6071	0.144
573.19	30080	0.03896	-0.6091	0.144

System: 1,5-dihydroxy-3-methylpentane + water; phases: Liquid
Property: Mass density, kg/m3 (Liquid); method: Vibrating tube method
Temperature, K	Pressure, kPa	Molality, mol/kg of 1,5-dihydroxy-3-methylpentane	Mass density, kg/m3	uncertainty
298.15	510	0.079261	-0.0647	0.0575
298.15	510	0.079261	-0.0642	0.0575
298.15	510	0.079261	-0.0661	0.0575
298.15	510	0.162349	-0.1174	0.0575
298.15	510	0.162349	-0.1184	0.0575
298.15	510	0.162349	-0.117	0.0575
298.15	510	0.237813	-0.1509	0.0575
298.15	510	0.237813	-0.151	0.0575
298.15	510	0.237813	-0.1456	0.0575
298.15	510	0.328838	-0.1706	0.0575
298.15	510	0.328838	-0.1734	0.0575
298.15	510	0.328838	-0.173	0.0575
298.15	510	0.406608	-0.1782	0.0575
298.15	510	0.406608	-0.1791	0.0575
298.15	510	0.406608	-0.1801	0.0575
298.15	510	0.45931	-0.182	0.0575
298.15	510	0.45931	-0.181	0.0575
298.15	510	0.45931	-0.1776	0.0575
298.17	15160	0.079261	-0.1188	0.0576
298.17	15160	0.079261	-0.1216	0.0576
298.17	15160	0.079261	-0.1146	0.0576
298.17	15160	0.162349	-0.2208	0.0578
298.17	15160	0.162349	-0.2226	0.0578
298.17	15160	0.162349	-0.227	0.0578
298.17	15160	0.237813	-0.2926	0.0579
298.17	15160	0.237813	-0.2997	0.0579
298.17	15160	0.237813	-0.2947	0.0579
298.17	15160	0.328838	-0.3668	0.058
298.17	15160	0.328838	-0.3668	0.058
298.17	15160	0.328838	-0.3741	0.058
298.17	15160	0.406608	-0.4106	0.058
298.17	15160	0.406608	-0.4169	0.0581
298.17	15160	0.406608	-0.4136	0.058
298.17	15160	0.45931	-0.4397	0.0581
298.17	15160	0.45931	-0.4454	0.0581
298.17	15160	0.45931	-0.4412	0.0581
298.16	30120	0.079261	-0.1657	0.0579
298.16	30120	0.079261	-0.1685	0.0579
298.16	30120	0.079261	-0.1622	0.0578
298.16	30120	0.162349	-0.3137	0.0582
298.16	30120	0.162349	-0.3134	0.0582
298.16	30120	0.162349	-0.3091	0.0582
298.16	30120	0.237813	-0.4252	0.0585
298.16	30120	0.237813	-0.4274	0.0585
298.16	30120	0.237813	-0.4252	0.0585
298.16	30120	0.328838	-0.552	0.0588
298.16	30120	0.328838	-0.5483	0.0588
298.16	30120	0.328838	-0.5484	0.0588
298.16	30120	0.406608	-0.6309	0.0591
298.16	30120	0.406608	-0.6331	0.0591
298.16	30120	0.406608	-0.6363	0.0591
298.16	30120	0.45931	-0.6883	0.0592
298.16	30120	0.45931	-0.6832	0.0592
298.16	30120	0.45931	-0.6863	0.0592
318.19	510	0.079261	-0.1325	0.0575
318.19	510	0.079261	-0.1353	0.0575
318.19	510	0.162349	-0.2764	0.0576
318.19	510	0.162349	-0.2631	0.0575
318.19	510	0.162349	-0.2567	0.0575
318.19	510	0.237813	-0.359	0.0576
318.19	510	0.237813	-0.3694	0.0576
318.19	510	0.237813	-0.3748	0.0576
318.19	510	0.328838	-0.4814	0.0576
318.19	510	0.328838	-0.487	0.0576
318.19	510	0.328838	-0.4817	0.0576
318.19	510	0.406608	-0.583	0.0577
318.19	510	0.406608	-0.583	0.0577
318.19	510	0.406608	-0.5821	0.0577
318.19	510	0.45931	-0.6421	0.0577
318.19	510	0.45931	-0.6428	0.0577
318.19	510	0.45931	-0.6336	0.0577
318.17	15140	0.079261	-0.1605	0.0577
318.17	15140	0.079261	-0.1628	0.0577
318.17	15140	0.162349	-0.3183	0.0579
318.17	15140	0.162349	-0.3133	0.0579
318.17	15140	0.162349	-0.3327	0.0579
318.17	15140	0.237813	-0.4553	0.0581
318.17	15140	0.237813	-0.4342	0.0581
318.17	15140	0.237813	-0.4473	0.0581
318.17	15140	0.328838	-0.5916	0.0583
318.17	15140	0.328838	-0.6042	0.0583
318.17	15140	0.328838	-0.5878	0.0583
318.17	15140	0.406608	-0.7095	0.0585
318.17	15140	0.406608	-0.7102	0.0585
318.17	15140	0.406608	-0.7149	0.0585
318.17	15140	0.45931	-0.7923	0.0586
318.17	15140	0.45931	-0.7939	0.0586
318.17	15140	0.45931	-0.7748	0.0586
318.16	30250	0.079261	-0.1982	0.0579
318.16	30250	0.079261	-0.1905	0.0579
318.16	30250	0.079261	-0.1938	0.0579
318.16	30250	0.162349	-0.3802	0.0584
318.16	30250	0.162349	-0.3833	0.0584
318.16	30250	0.162349	-0.3741	0.0584
318.16	30250	0.237813	-0.5442	0.0588
318.16	30250	0.237813	-0.5344	0.0588
318.16	30250	0.237813	-0.5361	0.0588
318.16	30250	0.328838	-0.7146	0.0593
318.16	30250	0.328838	-0.7165	0.0593
318.16	30250	0.328838	-0.719	0.0593
318.16	30250	0.406608	-0.8544	0.0597
318.16	30250	0.406608	-0.8506	0.0597
318.16	30250	0.406608	-0.8621	0.0597
318.16	30250	0.45931	-0.9531	0.0599
318.16	30250	0.45931	-0.9504	0.0599
318.16	30250	0.45931	-0.9535	0.0599
338.19	520	0.079261	-0.1951	0.0575
338.19	520	0.162349	-0.3906	0.0576
338.19	520	0.162349	-0.3926	0.0576
338.19	520	0.162349	-0.3927	0.0576
338.19	520	0.237813	-0.5614	0.0577
338.19	520	0.237813	-0.5615	0.0577
338.19	520	0.237813	-0.5654	0.0577
338.19	520	0.328838	-0.7655	0.0578
338.19	520	0.328838	-0.7651	0.0578
338.19	520	0.328838	-0.7666	0.0578
338.19	520	0.406608	-0.9326	0.0578
338.19	520	0.406608	-0.9331	0.0578
338.19	520	0.406608	-0.9356	0.0578
338.19	520	0.45931	-1.0464	0.0579
338.19	520	0.45931	-1.0458	0.0579
338.19	520	0.45931	-1.0491	0.0579
338.17	15190	0.079261	-0.2103	0.0578
338.17	15190	0.079261	-0.2225	0.0578
338.17	15190	0.079261	-0.2254	0.0578
338.17	15190	0.162349	-0.428	0.0581
338.17	15190	0.162349	-0.4319	0.0581
338.17	15190	0.162349	-0.4418	0.0581
338.17	15190	0.237813	-0.6124	0.0584
338.17	15190	0.237813	-0.6227	0.0584
338.17	15190	0.237813	-0.6277	0.0584
338.17	15190	0.328838	-0.8391	0.0587
338.17	15190	0.328838	-0.8305	0.0587
338.17	15190	0.328838	-0.8381	0.0587
338.17	15190	0.406608	-1.0134	0.059
338.17	15190	0.406608	-1.0191	0.059
338.17	15190	0.406608	-1.0249	0.059
338.17	15190	0.45931	-1.1375	0.0591
338.17	15190	0.45931	-1.139	0.0591
338.17	15190	0.45931	-1.1366	0.0591
338.16	30110	0.079261	-0.2333	0.058
338.16	30110	0.079261	-0.2496	0.0581
338.16	30110	0.079261	-0.2252	0.058
338.16	30110	0.165783	-0.468	0.0586
338.16	30110	0.165783	-0.4572	0.0586
338.16	30110	0.165783	-0.5003	0.0587
338.16	30110	0.237813	-0.6661	0.0592
338.16	30110	0.237813	-0.6701	0.0592
338.16	30110	0.237813	-0.6603	0.0592
338.16	30110	0.328838	-0.9007	0.0598
338.16	30110	0.328838	-0.8727	0.0597
338.16	30110	0.328838	-0.8976	0.0598
338.16	30110	0.406608	-1.0709	0.0603
338.16	30110	0.406608	-1.0879	0.0603
338.16	30110	0.406608	-1.0988	0.0603
338.16	30110	0.45931	-1.2223	0.0607
338.16	30110	0.45931	-1.2141	0.0607
338.16	30110	0.45931	-1.2227	0.0607
358.16	510	0.077771	-0.2495	0.0577
358.16	510	0.077771	-0.2498	0.0577
358.16	510	0.077771	-0.2479	0.0577
358.16	510	0.13013	-0.4135	0.0577
358.16	510	0.13013	-0.415	0.0577
358.16	510	0.13013	-0.4155	0.0577
358.16	510	0.165783	-0.525	0.0578
358.16	510	0.165783	-0.5246	0.0578
358.16	510	0.165783	-0.525	0.0578
358.16	510	0.256169	-0.8025	0.0579
358.16	510	0.256169	-0.8033	0.0579
358.16	510	0.256169	-0.8031	0.0579
358.16	510	0.326046	-1.0129	0.058
358.16	510	0.326046	-1.014	0.058
358.16	510	0.326046	-1.0135	0.058
358.16	510	0.416983	-1.2833	0.0581
358.16	510	0.416983	-1.2834	0.0581
358.16	510	0.416983	-1.2825	0.0581
358.15	15120	0.077771	-0.2559	0.0579
358.15	15120	0.077771	-0.258	0.0579
358.15	15120	0.12943	-0.4222	0.0582
358.15	15120	0.12943	-0.4218	0.0582
358.15	15120	0.12943	-0.4249	0.0582
358.15	15120	0.165783	-0.5375	0.0583
358.15	15120	0.165783	-0.5378	0.0583
358.15	15120	0.165783	-0.5394	0.0583
358.15	15120	0.256169	-0.8228	0.0588
358.15	15120	0.256169	-0.8222	0.0588
358.15	15120	0.256169	-0.8205	0.0588
358.15	15120	0.326046	-1.0348	0.0591
358.15	15120	0.326046	-1.0347	0.0591
358.15	15120	0.326046	-1.0375	0.0591
358.15	15120	0.416983	-1.309	0.0595
358.15	15120	0.416983	-1.3111	0.0595
358.15	15120	0.416983	-1.3095	0.0595
358.14	30090	0.077771	-0.2616	0.0582
358.14	30090	0.077771	-0.2643	0.0582
358.14	30090	0.077771	-0.2674	0.0582
358.14	30090	0.12943	-0.436	0.0587
358.14	30090	0.12943	-0.4374	0.0587
358.14	30090	0.12943	-0.4372	0.0587
358.14	30090	0.165783	-0.5582	0.059
358.14	30090	0.165783	-0.5542	0.059
358.14	30090	0.165783	-0.5556	0.059
358.14	30090	0.256169	-0.8449	0.0597
358.14	30090	0.256169	-0.8449	0.0597
358.14	30090	0.256169	-0.8492	0.0598
358.14	30090	0.326046	-1.0669	0.0604
358.14	30090	0.326046	-1.0669	0.0604
358.14	30090	0.326046	-1.0678	0.0604
358.14	30090	0.416983	-1.3405	0.0611
358.14	30090	0.416983	-1.342	0.0611
358.14	30090	0.416983	-1.3436	0.0611
373.18	520	0.077771	-0.29	0.0578
373.18	520	0.077771	-0.2911	0.0578
373.18	520	0.077771	-0.2916	0.0578
373.18	520	0.12943	-0.4828	0.0579
373.18	520	0.12943	-0.4832	0.0579
373.18	520	0.12943	-0.4839	0.0579
373.18	520	0.165783	-0.6133	0.058
373.18	520	0.165783	-0.6148	0.058
373.18	520	0.165783	-0.6133	0.058
373.18	520	0.256169	-0.9417	0.0581
373.18	520	0.256169	-0.9419	0.0581
373.18	520	0.256169	-0.941	0.0581
373.18	520	0.326046	-1.1894	0.0582
373.18	520	0.326046	-1.1889	0.0582
373.18	520	0.326046	-1.1915	0.0582
373.18	520	0.416983	-1.5077	0.0583
373.18	520	0.416983	-1.5079	0.0583
373.18	520	0.416983	-1.5071	0.0583
373.15	15190	0.077771	-0.2926	0.0581
373.15	15190	0.077771	-0.292	0.0581
373.15	15190	0.077771	-0.2947	0.0581
373.15	15190	0.12943	-0.483	0.0584
373.15	15190	0.12943	-0.4851	0.0584
373.15	15190	0.12943	-0.4846	0.0584
373.15	15190	0.165783	-0.6147	0.0586
373.15	15190	0.165783	-0.6162	0.0586
373.15	15190	0.165783	-0.6161	0.0586
373.15	15190	0.256169	-0.9408	0.0591
373.15	15190	0.256169	-0.9397	0.0591
373.15	15190	0.256169	-0.9441	0.0591
373.15	15190	0.326046	-1.1872	0.0595
373.15	15190	0.326046	-1.1885	0.0595
373.15	15190	0.326046	-1.1895	0.0595
373.15	15190	0.416983	-1.5028	0.06
373.15	15190	0.416983	-1.5017	0.06
373.15	15190	0.416983	-1.504	0.06
373.17	30190	0.077771	-0.2952	0.0585
373.17	30190	0.077771	-0.2958	0.0585
373.17	30190	0.12943	-0.4879	0.059
373.17	30190	0.12943	-0.4885	0.059
373.17	30190	0.12943	-0.4855	0.059
373.17	30190	0.165783	-0.618	0.0593
373.17	30190	0.165783	-0.6185	0.0593
373.17	30190	0.256169	-0.9461	0.0602
373.17	30190	0.256169	-0.9494	0.0602
373.17	30190	0.326046	-1.1904	0.0609
373.17	30190	0.326046	-1.1924	0.0609
373.17	30190	0.326046	-1.1972	0.0609
373.17	30190	0.416983	-1.5229	0.0619
373.17	30190	0.416983	-1.5059	0.0618
373.17	30190	0.416983	-1.493	0.0618
398.14	1880	0.077771	-0.3532	0.0585
398.14	1880	0.077771	-0.3539	0.0585
398.14	1880	0.077771	-0.3541	0.0585
398.14	1880	0.12943	-0.5879	0.0586
398.14	1880	0.12943	-0.5884	0.0586
398.14	1880	0.12943	-0.5879	0.0586
398.14	1880	0.165783	-0.7488	0.0587
398.14	1880	0.165783	-0.7474	0.0587
398.14	1880	0.165783	-0.7474	0.0587
398.14	1880	0.256169	-1.1448	0.0589
398.14	1880	0.256169	-1.1487	0.0589
398.14	1880	0.256169	-1.1455	0.0589
398.14	1880	0.326046	-1.4487	0.0591
398.14	1880	0.326046	-1.4474	0.0591
398.14	1880	0.326046	-1.4451	0.0591
398.14	1880	0.416983	-1.8333	0.0593
398.14	1880	0.416983	-1.8321	0.0593
398.14	1880	0.416983	-1.835	0.0593
398.14	15190	0.077771	-0.3456	0.0588
398.14	15190	0.077771	-0.3453	0.0588
398.14	15190	0.077771	-0.3446	0.0588
398.14	15190	0.12943	-0.5738	0.0592
398.14	15190	0.12943	-0.5723	0.0592
398.14	15190	0.12943	-0.572	0.0592
398.14	15190	0.165783	-0.7288	0.0594
398.14	15190	0.165783	-0.7285	0.0594
398.14	15190	0.165783	-0.7272	0.0594
398.14	15190	0.256169	-1.1167	0.06
398.14	15190	0.256169	-1.1155	0.06
398.14	15190	0.256169	-1.1166	0.06
398.14	15190	0.326046	-1.4086	0.0605
398.14	15190	0.326046	-1.4088	0.0605
398.14	15190	0.326046	-1.4083	0.0605
398.14	15190	0.416983	-1.78	0.0611
398.14	15190	0.416983	-1.7824	0.0611
398.14	15190	0.416983	-1.7818	0.0611
398.12	30190	0.077771	-0.3348	0.0592
398.12	30190	0.077771	-0.3387	0.0592
398.12	30190	0.077771	-0.3365	0.0592
398.12	30190	0.12943	-0.556	0.0598
398.12	30190	0.12943	-0.5614	0.0598
398.12	30190	0.12943	-0.5575	0.0598
398.12	30190	0.165783	-0.707	0.0602
398.12	30190	0.165783	-0.7104	0.0602
398.12	30190	0.165783	-0.7099	0.0602
398.12	30190	0.256169	-1.0896	0.0613
398.12	30190	0.256169	-1.0935	0.0613
398.12	30190	0.256169	-1.0943	0.0613
398.12	30190	0.326046	-1.3731	0.0621
398.12	30190	0.326046	-1.3741	0.0621
398.12	30190	0.326046	-1.3741	0.0621
398.12	30190	0.416983	-1.7361	0.0632
398.12	30190	0.416983	-1.7398	0.0632
398.12	30190	0.416983	-1.7421	0.0632
423.16	1850	0.077771	-0.4103	0.0599
423.16	1850	0.077771	-0.41	0.0599
423.16	1850	0.077771	-0.4113	0.0599
423.16	1850	0.12943	-0.6796	0.06
423.16	1850	0.12943	-0.6796	0.06
423.16	1850	0.12943	-0.6794	0.06
423.16	1850	0.162727	-0.8483	0.0601
423.16	1850	0.162727	-0.8502	0.0601
423.16	1850	0.162727	-0.8477	0.0601
423.16	1850	0.256169	-1.3221	0.0604
423.16	1850	0.256169	-1.3226	0.0604
423.16	1850	0.256169	-1.324	0.0604
423.16	1850	0.326046	-1.6683	0.0606
423.16	1850	0.326046	-1.67	0.0606
423.16	1850	0.326046	-1.6684	0.0606
423.16	1850	0.416983	-2.1092	0.0608
423.16	1850	0.416983	-2.1092	0.0608
423.16	1850	0.416983	-2.111	0.0608
423.15	15130	0.086615	-0.4352	0.0604
423.15	15130	0.086615	-0.4349	0.0604
423.15	15130	0.086615	-0.4353	0.0604
423.15	15130	0.162727	-0.8101	0.061
423.15	15130	0.162727	-0.8107	0.061
423.15	15130	0.162727	-0.8111	0.061
423.15	15130	0.252375	-1.2403	0.0617
423.15	15130	0.252375	-1.2375	0.0617
423.15	15130	0.252375	-1.2424	0.0617
423.15	15130	0.332145	-1.6193	0.0623
423.15	15130	0.332145	-1.6175	0.0623
423.15	15130	0.332145	-1.6187	0.0623
423.15	15130	0.392061	-1.8951	0.0628
423.15	15130	0.392061	-1.8969	0.0628
423.15	15130	0.392061	-1.8951	0.0628
423.15	15130	0.47951	-2.2918	0.0635
423.15	15130	0.47951	-2.2919	0.0635
423.15	15130	0.47951	-2.2922	0.0635
423.15	30130	0.086615	-0.4179	0.0608
423.15	30130	0.086615	-0.4184	0.0608
423.15	30130	0.086615	-0.4192	0.0608
423.15	30130	0.162727	-0.7768	0.0619
423.15	30130	0.162727	-0.7794	0.0619
423.15	30130	0.162727	-0.7804	0.0619
423.15	30130	0.252375	-1.1926	0.0631
423.15	30130	0.252375	-1.1991	0.0631
423.15	30130	0.252375	-1.1947	0.0631
423.15	30130	0.332145	-1.5521	0.0642
423.15	30130	0.332145	-1.5529	0.0642
423.15	30130	0.332145	-1.5558	0.0642
423.15	30130	0.392061	-1.817	0.065
423.15	30130	0.392061	-1.816	0.065
423.15	30130	0.392061	-1.8223	0.0651
423.15	30130	0.47951	-2.1974	0.0663
423.15	30130	0.47951	-2.1922	0.0663
423.15	30130	0.47951	-2.2019	0.0663
448.16	1850	0.086615	-0.5057	0.0626
448.16	1850	0.086615	-0.5033	0.0626
448.16	1850	0.086615	-0.5107	0.0626
448.16	1850	0.162727	-0.9414	0.0628
448.16	1850	0.162727	-0.9446	0.0628
448.16	1850	0.162727	-0.9443	0.0628
448.16	1850	0.252375	-1.4429	0.0631
448.16	1850	0.252375	-1.4435	0.0631
448.16	1850	0.252375	-1.4453	0.0631
448.16	1850	0.332145	-1.879	0.0634
448.16	1850	0.332145	-1.8796	0.0634
448.16	1850	0.332145	-1.879	0.0634
448.16	1850	0.392061	-2.2003	0.0636
448.16	1850	0.392061	-2.2047	0.0636
448.16	1850	0.392061	-2.1984	0.0636
448.16	1850	0.47951	-2.6568	0.0639
448.16	1850	0.47951	-2.6567	0.0639
448.16	1850	0.47951	-2.6602	0.0639
448.17	15220	0.086615	-0.4757	0.0631
448.17	15220	0.086615	-0.475	0.0631
448.17	15220	0.086615	-0.4733	0.0631
448.17	15220	0.162727	-0.8826	0.0638
448.17	15220	0.162727	-0.8844	0.0638
448.17	15220	0.162727	-0.8814	0.0638
448.17	15220	0.252375	-1.3532	0.0647
448.17	15220	0.252375	-1.3535	0.0647
448.17	15220	0.252375	-1.3506	0.0647
448.17	15220	0.332145	-1.7599	0.0654
448.17	15220	0.332145	-1.76	0.0654
448.17	15220	0.332145	-1.7585	0.0654
448.17	15220	0.392061	-2.0614	0.066
448.17	15220	0.392061	-2.0623	0.066
448.17	15220	0.392061	-2.0594	0.066
448.17	15220	0.47951	-2.4869	0.0668
448.17	15220	0.47951	-2.4898	0.0668
448.17	15220	0.47951	-2.4849	0.0668
448.19	30040	0.086615	-0.4502	0.0637
448.19	30040	0.086615	-0.4495	0.0637
448.19	30040	0.162727	-0.8353	0.0649
448.19	30040	0.162727	-0.8379	0.0649
448.19	30040	0.252375	-1.2786	0.0663
448.19	30040	0.252375	-1.2755	0.0663
448.19	30040	0.332145	-1.66	0.0675
448.19	30040	0.332145	-1.6619	0.0675
448.19	30040	0.392061	-1.9375	0.0685
448.19	30040	0.392061	-1.9433	0.0685
448.19	30040	0.392061	-1.9431	0.0685
448.19	30040	0.47951	-2.3449	0.0699
448.19	30040	0.47951	-2.3435	0.0699
448.19	30040	0.47951	-2.3438	0.0699
473.23	1830	0.086615	-0.551	0.0675
473.23	1830	0.086615	-0.5532	0.0675
473.23	1830	0.086615	-0.5518	0.0675
473.23	1830	0.162727	-1.0227	0.0678
473.23	1830	0.162727	-1.0251	0.0678
473.23	1830	0.162727	-1.0188	0.0678
473.23	1830	0.252375	-1.5634	0.0681
473.23	1830	0.252375	-1.5635	0.0681
473.23	1830	0.252375	-1.5603	0.0681
473.23	1830	0.332145	-2.0311	0.0684
473.23	1830	0.332145	-2.0322	0.0684
473.23	1830	0.332145	-2.0317	0.0684
473.23	1830	0.392061	-2.371	0.0686
473.23	1830	0.392061	-2.3748	0.0687
473.23	1830	0.392061	-2.3724	0.0686
473.23	1830	0.47951	-2.8635	0.069
473.23	1830	0.47951	-2.8637	0.069
473.23	1830	0.47951	-2.8593	0.069
473.22	15140	0.086615	-0.5052	0.0681
473.22	15140	0.086615	-0.5049	0.0681
473.22	15140	0.086615	-0.5039	0.0681
473.22	15140	0.162727	-0.9398	0.0689
473.22	15140	0.162727	-0.943	0.0689
473.22	15140	0.162727	-0.9371	0.0689
473.22	15140	0.252375	-1.4358	0.0699
473.22	15140	0.252375	-1.4333	0.0699
473.22	15140	0.252375	-1.4369	0.0699
473.22	15140	0.332145	-1.8635	0.0707
473.22	15140	0.332145	-1.8626	0.0707
473.22	15140	0.332145	-1.8621	0.0707
473.22	15140	0.392061	-2.17	0.0714
473.22	15140	0.392061	-2.1785	0.0714
473.22	15140	0.392061	-2.1757	0.0714
473.22	15140	0.47951	-2.6226	0.0723
473.22	15140	0.47951	-2.6199	0.0723
473.22	15140	0.47951	-2.623	0.0723
473.22	30030	0.086615	-0.4666	0.0687
473.22	30030	0.086615	-0.4696	0.0687
473.22	30030	0.086615	-0.4701	0.0687
473.22	30030	0.162727	-0.8728	0.0701
473.22	30030	0.162727	-0.8729	0.0701
473.22	30030	0.162727	-0.8732	0.0701
473.22	30030	0.252375	-1.325	0.0716
473.22	30030	0.252375	-1.3283	0.0717
473.22	30030	0.252375	-1.3301	0.0717
473.22	30030	0.332145	-1.724	0.0731
473.22	30030	0.332145	-1.7225	0.0731
473.22	30030	0.332145	-1.724	0.0731
473.22	30030	0.392061	-2.0086	0.0741
473.22	30030	0.392061	-2.0138	0.0741
473.22	30030	0.392061	-2.0115	0.0741
473.22	30030	0.47951	-2.4214	0.0756
473.22	30030	0.47951	-2.4283	0.0757
473.22	30030	0.47951	-2.4235	0.0756
498.13	3050	0.086615	-0.5783	0.0758
498.13	3050	0.086615	-0.5781	0.0758
498.13	3050	0.086615	-0.5796	0.0758
498.13	3050	0.162727	-1.077	0.0762
498.13	3050	0.162727	-1.0767	0.0762
498.13	3050	0.162727	-1.0767	0.0762
498.13	3050	0.252375	-1.6415	0.0767
498.13	3050	0.252375	-1.6448	0.0767
498.13	3050	0.252375	-1.6432	0.0767
498.13	3050	0.332145	-2.1316	0.0771
498.13	3050	0.332145	-2.1314	0.0771
498.13	3050	0.332145	-2.1302	0.0771
498.13	3050	0.392061	-2.4872	0.0774
498.13	3050	0.392061	-2.4894	0.0774
498.13	3050	0.392061	-2.4892	0.0774
498.13	3050	0.47951	-2.9972	0.0779
498.13	3050	0.47951	-2.9965	0.0779
498.13	3050	0.47951	-2.9943	0.0779
498.12	15110	0.079752	-0.4846	0.0763
498.12	15110	0.079752	-0.4814	0.0763
498.12	15110	0.079752	-0.4825	0.0763
498.12	15110	0.162242	-0.9704	0.0774
498.12	15110	0.162242	-0.9689	0.0774
498.12	15110	0.162242	-0.9691	0.0774
498.12	15110	0.252375	-1.4837	0.0785
498.12	15110	0.252375	-1.4834	0.0785
498.12	15110	0.252375	-1.4806	0.0785
498.12	15110	0.326484	-1.8898	0.0794
498.12	15110	0.326484	-1.8923	0.0794
498.12	15110	0.326484	-1.8929	0.0794
498.12	15110	0.392061	-2.2411	0.0802
498.12	15110	0.392061	-2.2449	0.0802
498.12	15110	0.392061	-2.2453	0.0802
498.12	15110	0.47951	-2.7012	0.0812
498.12	15110	0.47951	-2.7028	0.0812
498.12	15110	0.47951	-2.6991	0.0812
498.11	30110	0.079752	-0.4359	0.0769
498.11	30110	0.079752	-0.4317	0.0769
498.11	30110	0.079752	-0.4364	0.0769
498.11	30110	0.162242	-0.8753	0.0786
498.11	30110	0.162242	-0.8724	0.0786
498.11	30110	0.162242	-0.8754	0.0786
498.11	30110	0.244301	-1.2972	0.0802
498.11	30110	0.244301	-1.2983	0.0802
498.11	30110	0.244301	-1.2971	0.0802
498.11	30110	0.326484	-1.705	0.0818
498.11	30110	0.326484	-1.7061	0.0818
498.11	30110	0.326484	-1.7052	0.0818
498.11	30110	0.392061	-2.0169	0.083
498.11	30110	0.392061	-2.0244	0.0831
498.11	30110	0.392061	-2.0235	0.0831
498.11	30110	0.505084	-2.5473	0.0852
498.11	30110	0.505084	-2.5473	0.0852
498.11	30110	0.505084	-2.5584	0.0852
523.19	5040	0.079752	-0.5552	0.0893
523.19	5040	0.079752	-0.5534	0.0893
523.19	5040	0.162242	-1.1109	0.0899
523.19	5040	0.162242	-1.1107	0.0899
523.19	5040	0.244301	-1.6395	0.0906
523.19	5040	0.244301	-1.6408	0.0906
523.19	5040	0.326484	-2.1565	0.0912
523.19	5040	0.326484	-2.1554	0.0912
523.19	5040	0.398624	-2.592	0.0917
523.19	5040	0.505084	-3.2132	0.0924
523.19	5040	0.505084	-3.2162	0.0924
523.19	15140	0.079752	-0.4895	0.0898
523.19	15140	0.079752	-0.4892	0.0898
523.19	15140	0.079752	-0.4922	0.0898
523.19	15140	0.079752	-0.4832	0.0898
523.19	15140	0.162242	-0.9819	0.091
523.19	15140	0.162242	-0.9809	0.091
523.19	15140	0.162242	-0.9773	0.0909
523.19	15140	0.162242	-0.9847	0.091
523.19	15140	0.244301	-1.4567	0.0921
523.19	15140	0.244301	-1.4558	0.0921
523.19	15140	0.244301	-1.4621	0.0921
523.19	15140	0.244301	-1.4571	0.0921
523.19	15140	0.326484	-1.9153	0.0932
523.19	15140	0.326484	-1.9305	0.0932
523.19	15140	0.326484	-1.9182	0.0932
523.19	15140	0.326484	-1.8958	0.0931
523.19	15140	0.398624	-2.291	0.0941
523.19	15140	0.398624	-2.3036	0.0941
523.19	15140	0.398624	-2.3154	0.0942
523.19	15140	0.398624	-2.3037	0.0941
523.19	15140	0.505084	-2.8514	0.0955
523.19	15140	0.505084	-2.8604	0.0955
523.19	15140	0.505084	-2.8549	0.0955
523.19	15140	0.505084	-2.849	0.0955
523.19	30060	0.079752	-0.4295	0.0904
523.19	30060	0.079752	-0.4348	0.0904
523.19	30060	0.079752	-0.435	0.0904
523.19	30060	0.162242	-0.8586	0.0922
523.19	30060	0.162242	-0.8652	0.0922
523.19	30060	0.162242	-0.8638	0.0922
523.19	30060	0.244301	-1.2716	0.0939
523.19	30060	0.244301	-1.27	0.0939
523.19	30060	0.244301	-1.2728	0.0939
523.19	30060	0.326484	-1.6666	0.0956
523.19	30060	0.326484	-1.6727	0.0956
523.19	30060	0.326484	-1.6647	0.0956
523.19	30060	0.398624	-2.0041	0.097
523.19	30060	0.398624	-2.0063	0.097
523.19	30060	0.398624	-2.0097	0.097
523.19	30060	0.505084	-2.4823	0.0991
523.19	30060	0.505084	-2.4833	0.0991
523.19	30060	0.505084	-2.4808	0.099
548.17	7040	0.079752	-0.5677	0.1097
548.17	7040	0.079752	-0.567	0.1097
548.17	7040	0.079752	-0.5671	0.1097
548.17	7040	0.162242	-1.1322	0.1106
548.17	7040	0.162242	-1.1293	0.1105
548.17	7040	0.162242	-1.1326	0.1106
548.17	7040	0.244301	-1.6684	0.1114
548.17	7040	0.244301	-1.6716	0.1114
548.17	7040	0.244301	-1.6679	0.1114
548.17	7040	0.326484	-2.2072	0.1122
548.17	7040	0.326484	-2.1842	0.1122
548.17	7040	0.326484	-2.1819	0.1122
548.17	7040	0.398624	-2.6076	0.1128
548.17	7040	0.398624	-2.6338	0.1128
548.17	7040	0.398624	-2.6212	0.1128
548.17	7040	0.505084	-3.2531	0.1138
548.17	7040	0.505084	-3.2327	0.1138
548.17	7040	0.505084	-3.247	0.1138
548.16	15050	0.079752	-0.4835	0.11
548.16	15050	0.079752	-0.4923	0.1101
548.16	15050	0.079752	-0.5012	0.1101
548.16	15050	0.162242	-0.981	0.1113
548.16	15050	0.162242	-0.9793	0.1113
548.16	15050	0.162242	-0.9917	0.1113
548.16	15050	0.244301	-1.4593	0.1125
548.16	15050	0.244301	-1.4542	0.1125
548.16	15050	0.326484	-1.9074	0.1137
548.16	15050	0.326484	-1.9182	0.1137
548.16	15050	0.398624	-2.2785	0.1146
548.16	15050	0.398624	-2.2815	0.1146
548.16	15050	0.398624	-2.2995	0.1147
548.16	15050	0.505084	-2.8315	0.116
548.16	15050	0.505084	-2.8408	0.1161
548.16	15050	0.505084	-2.8306	0.116
548.16	30100	0.079752	-0.4046	0.1106
548.16	30100	0.079752	-0.4039	0.1106
548.16	30100	0.162242	-0.8091	0.1124
548.16	30100	0.162242	-0.8102	0.1124
548.16	30100	0.244301	-1.2005	0.1142
548.16	30100	0.244301	-1.1998	0.1142
548.16	30100	0.326484	-1.5691	0.1158
548.16	30100	0.326484	-1.5692	0.1158
548.16	30100	0.398624	-1.8856	0.1172
548.16	30100	0.398624	-1.8878	0.1172
548.16	30100	0.398624	-1.8864	0.1172
548.16	30100	0.505084	-2.3301	0.1192
548.16	30100	0.505084	-2.3306	0.1192
548.16	30100	0.505084	-2.3308	0.1192
573.18	10050	0.079752	-0.5627	0.142
573.18	10050	0.079752	-0.5623	0.142
573.18	10050	0.079752	-0.5593	0.142
573.18	10050	0.162242	-1.1193	0.1433
573.18	10050	0.162242	-1.1192	0.1433
573.18	10050	0.162242	-1.1262	0.1433
573.18	10050	0.244301	-1.6559	0.1445
573.18	10050	0.244301	-1.6563	0.1445
573.18	10050	0.244301	-1.6661	0.1446
573.18	10050	0.326484	-2.1463	0.1457
573.18	10050	0.326484	-2.1416	0.1457
573.18	10050	0.326484	-2.1343	0.1457
573.18	10050	0.398624	-2.5929	0.1467
573.18	10050	0.398624	-2.593	0.1467
573.18	10050	0.505084	-3.1935	0.1482
573.18	10050	0.505084	-3.1907	0.1482
573.18	10050	0.505084	-3.192	0.1482
573.2	15230	0.079752	-0.4889	0.1422
573.2	15230	0.079752	-0.4945	0.1422
573.2	15230	0.079752	-0.4936	0.1422
573.2	15230	0.162242	-0.9801	0.1438
573.2	15230	0.162242	-0.9786	0.1438
573.2	15230	0.162242	-0.9808	0.1438
573.2	15230	0.244301	-1.4425	0.1452
573.2	15230	0.244301	-1.4458	0.1452
573.2	15230	0.244301	-1.4456	0.1452
573.2	15230	0.326484	-1.8715	0.1466
573.2	15230	0.326484	-1.8757	0.1466
573.2	15230	0.326484	-1.8743	0.1466
573.2	15230	0.398624	-2.2605	0.1478
573.2	15230	0.398624	-2.259	0.1478
573.2	15230	0.398624	-2.2644	0.1478
573.2	15230	0.505084	-2.7816	0.1494
573.2	15230	0.505084	-2.7779	0.1494
573.2	15230	0.505084	-2.7871	0.1495
573.19	30080	0.084401	-0.3873	0.1428
573.19	30080	0.084401	-0.396	0.1428
573.19	30080	0.084401	-0.3821	0.1427
573.19	30080	0.1607	-0.7267	0.1446
573.19	30080	0.1607	-0.7227	0.1446
573.19	30080	0.1607	-0.7328	0.1447
573.19	30080	0.244301	-1.0841	0.1466
573.19	30080	0.244301	-1.0839	0.1466
573.19	30080	0.244301	-1.0805	0.1466
573.19	30080	0.340526	-1.4675	0.1487
573.19	30080	0.340526	-1.4706	0.1487
573.19	30080	0.340526	-1.4543	0.1486
573.19	30080	0.398624	-1.6957	0.1499
573.19	30080	0.398624	-1.6949	0.1499
573.19	30080	0.398624	-1.7031	0.15
573.19	30080	0.505084	-2.0836	0.152
573.19	30080	0.505084	-2.0822	0.152
573.19	30080	0.505084	-2.0784	0.152
