Measured thermophysical data. Vapour-liquid equilibria of binary and ternary mixtures containing 1-butanol, 2,2,4-trimethylpentane and 1-hexene at T = 313.15 K
Source: J. Chem. Thermodyn., 2013, 10.1016/j.jct.2013.04.003
Compound 1: butan-1-ol, C4H10O, InChI=1S/C4H10O/c1-2-3-4-5/h5H,2-4H2,1H3, purity 99.5%
Compound 2: hex-1-ene, C6H12, InChI=1S/C6H12/c1-3-5-6-4-2/h3H,1,4-6H2,2H3, purity 96%
Compound 3: 2,2,4-trimethylpentane, C8H18, InChI=1S/C8H18/c1-7(2)6-8(3,4)5/h7H,6H2,1-5H3, purity 99.7%

System: butan-1-ol; phases: Liquid, Gas
Property: Vapor or sublimation pressure, kPa (Liquid); method: Closed cell (Static) method
Temperature, K	Vapor or sublimation pressure, kPa	uncertainty
313.15	2.483	0.015

System: hex-1-ene; phases: Liquid, Gas
Property: Vapor or sublimation pressure, kPa (Liquid); method: Closed cell (Static) method
Temperature, K	Vapor or sublimation pressure, kPa	uncertainty
313.15	44.978	0.201

System: 2,2,4-trimethylpentane; phases: Liquid, Gas
Property: Vapor or sublimation pressure, kPa (Liquid); method: Closed cell (Static) method
Temperature, K	Vapor or sublimation pressure, kPa	uncertainty
313.15	12.947	0.031

System: butan-1-ol + hex-1-ene; phases: Liquid, Gas
Fixed: Temperature, K = 313.15
Property: Vapor or sublimation pressure, kPa (Liquid); method: Closed cell (Static) method
Mole fraction of butan-1-ol	Vapor or sublimation pressure, kPa	uncertainty
0	44.986	0.394
0.0502	44.518	0.376
0.1006	44.066	0.358
0.1497	43.7	0.342
0.2006	43.169	0.325
0.2513	42.603	0.307
0.2989	41.978	0.291
0.3505	41.315	0.274
0.401	40.508	0.257
0.4014	40.57	0.257
0.4512	39.741	0.241
0.4514	39.688	0.241
0.5015	38.836	0.225
0.5017	38.74	0.225
0.5515	37.694	0.209
0.5518	37.674	0.209
0.6013	36.298	0.199
0.6024	36.239	0.198
0.6522	34.533	0.178
0.7024	32.413	0.164
0.7539	29.672	0.15
0.802	26.443	0.14
0.8459	22.811	0.138
0.8992	17.341	0.143
0.9585	9.351	0.154
1	2.482	0.024
0.3017	42.054	0.291
0.7128	31.931	0.162

System: butan-1-ol + 2,2,4-trimethylpentane + hex-1-ene; phases: Liquid, Gas
Fixed: Temperature, K = 313.15
Property: Vapor or sublimation pressure, kPa (Liquid); method: Closed cell (Static) method
Mole fraction of butan-1-ol	Mole fraction of 2,2,4-trimethylpentane	Vapor or sublimation pressure, kPa	uncertainty
1	0	2.486	0.024
0.7005	0.2995	11.547	0.111
0.6753	0.2888	14.038	0.109
0.6613	0.2828	15.294	0.112
0.6267	0.2681	18.385	0.115
0.5959	0.2549	20.891	0.12
0.5585	0.239	23.77	0.126
0.525	0.2247	25.938	0.139
0.4892	0.2094	28.053	0.15
0.4554	0.1949	29.857	0.162
0.4201	0.1799	31.591	0.176
0.3855	0.1651	33.148	0.189
0.3505	0.1501	34.604	0.205
0	1	12.94	0.058
0.3006	0.6994	13.498	0.081
0.2913	0.6778	14.753	0.084
0.2847	0.6626	15.614	0.086
0.2695	0.6272	17.595	0.092
0.255	0.5934	19.41	0.1
0.2403	0.5594	21.201	0.109
0.225	0.5238	23.024	0.117
0.2105	0.49	24.712	0.128
0.1956	0.4554	26.391	0.14
0.1801	0.4194	28.091	0.155
0.1653	0.3848	29.679	0.169
0.1505	0.3504	31.218	0.184
0	0	44.991	0.394
0.3017	0	42.054	0.291
0.2939	0.0259	41.08	0.282
0.2865	0.0503	40.156	0.286
0.2713	0.1005	38.323	0.253
0.2561	0.1506	36.573	0.234
0.2409	0.2007	34.9	0.217
0.2258	0.2507	33.291	0.2
0.2107	0.3009	31.711	0.185
0.1955	0.3509	30.217	0.172
0.1804	0.4009	28.759	0.161
0.1654	0.4509	27.351	0.148
0.1536	0.4897	26.279	0.14
1	0	2.482	0.024
0.7128	0	31.931	0.162
0.6947	0.0254	30.929	0.307
0.6765	0.0507	29.991	0.157
0.641	0.1003	28.299	0.152
0.6051	0.1504	26.773	0.143
0.5692	0.2007	25.383	0.134
0.534	0.25	24.158	0.132
0.498	0.3004	23.021	0.12
0.4624	0.3504	22	0.118
0.4267	0.4004	21.068	0.115
0.3913	0.45	20.22	0.11
0.3554	0.5004	19.441	0.104
0	1	12.953	0.058
0	0.6962	22.917	0.115
0.0245	0.6792	23.145	0.116
0.0505	0.6611	23.141	0.119
0.1	0.6266	22.97	0.119
0.1501	0.5917	22.755	0.117
0.2003	0.5568	22.627	0.116
0.2503	0.5219	22.371	0.113
0.3003	0.4871	22.082	0.113
0.3504	0.4523	21.772	0.111
0.4004	0.4174	21.426	0.109
0.4503	0.3827	21.048	0.107
0.5004	0.3478	20.61	0.111
0	0	44.96	0.394
0	0.3007	35.396	0.244
0.0253	0.2931	35.3	0.241
0.0511	0.2854	35.262	0.237
0.1004	0.2706	34.893	0.228
0.1508	0.2554	34.487	0.219
0.2005	0.2405	34.067	0.211
0.2509	0.2253	33.611	0.204
0.3008	0.2103	33.133	0.195
0.3509	0.1952	32.611	0.187
0.4011	0.1801	32.106	0.18
0.4509	0.1651	31.469	0.173
0.5011	0.15	30.672	0.166

System: butan-1-ol + 2,2,4-trimethylpentane; phases: Liquid, Gas
Fixed: Temperature, K = 313.15
Property: Vapor or sublimation pressure, kPa (Liquid); method: Closed cell (Static) method
Mole fraction of butan-1-ol	Vapor or sublimation pressure, kPa	uncertainty
0.7005	11.547	0.111
0.3006	13.498	0.081

System: 2,2,4-trimethylpentane + hex-1-ene; phases: Liquid, Gas
Fixed: Temperature, K = 313.15
Property: Vapor or sublimation pressure, kPa (Liquid); method: Closed cell (Static) method
Mole fraction of 2,2,4-trimethylpentane	Vapor or sublimation pressure, kPa	uncertainty
0.6962	22.917	0.115
0.3007	35.396	0.244
