Measured thermophysical data. Densities and excess volumes of binary mixtures of N,N-dimethylformamide with aromatic hydrocarbon at different temperature
Source: J. Chem. Thermodyn., 2007, 10.1016/j.jct.2006.07.022
Compound 1: dimethylformamide, C3H7NO, InChI=1S/C3H7NO/c1-4(2)3-5/h3H,1-2H3, purity 99.5%
Compound 2: benzene, C6H6, InChI=1S/C6H6/c1-2-4-6-5-3-1/h1-6H, purity 99.7%
Compound 3: toluene, C7H8, InChI=1S/C7H8/c1-7-5-3-2-4-6-7/h2-6H,1H3, purity 98%
Compound 4: ethylbenzene, C8H10, InChI=1S/C8H10/c1-2-8-6-4-3-5-7-8/h3-7H,2H2,1H3, purity 99%

System: dimethylformamide; phases: Liquid
Property: Refractive index (Na D-line) (Liquid); method: Standard Abbe refractometry
Temperature, K	Pressure, kPa	Refractive index (Na D-line)	uncertainty
298.15	101.325	1.4307	0.0007

System: benzene; phases: Liquid
Property: Refractive index (Na D-line) (Liquid); method: Standard Abbe refractometry
Temperature, K	Pressure, kPa	Refractive index (Na D-line)	uncertainty
298.15	101.325	1.5009	0.0007

System: toluene; phases: Liquid
Property: Refractive index (Na D-line) (Liquid); method: Standard Abbe refractometry
Temperature, K	Pressure, kPa	Refractive index (Na D-line)	uncertainty
298.15	101.325	1.4965	0.0008

System: ethylbenzene; phases: Liquid
Property: Refractive index (Na D-line) (Liquid); method: Standard Abbe refractometry
Temperature, K	Pressure, kPa	Refractive index (Na D-line)	uncertainty
298.15	101.325	1.4962	0.0008

System: dimethylformamide + benzene; phases: Liquid
Fixed: Pressure, kPa = 101
Property: Mass density, kg/m3 (Liquid); method: VIBTUB:UFactor:4
Temperature, K	Mole fraction of benzene	Mass density, kg/m3	uncertainty
293.15	0	948.58	0.25
293.15	0.0785	943.13	0.25
293.15	0.1347	939.28	0.26
293.15	0.2036	934.59	0.26
293.15	0.2699	930.11	0.27
293.15	0.3352	925.71	0.27
293.15	0.4034	921.13	0.28
293.15	0.4874	915.49	0.28
293.15	0.5432	911.72	0.29
293.15	0.6044	907.55	0.29
293.15	0.6705	903	0.3
293.15	0.7413	898.06	0.3
293.15	0.8056	893.49	0.31
293.15	0.871	888.73	0.32
293.15	0.9214	884.99	0.32
293.15	0.9785	880.66	0.33
293.15	1	878.96	0.33
303.15	0	939.46	0.26
303.15	0.0689	934.59	0.27
303.15	0.1354	929.93	0.27
303.15	0.2037	925.19	0.28
303.15	0.2701	920.6	0.28
303.15	0.3387	915.87	0.29
303.15	0.407	911.17	0.29
303.15	0.4735	906.6	0.3
303.15	0.5403	901.98	0.3
303.15	0.6054	897.43	0.31
303.15	0.6791	892.23	0.31
303.15	0.7441	887.56	0.32
303.15	0.81	882.75	0.33
303.15	0.8741	877.97	0.33
303.15	0.9245	874.12	0.34
303.15	0.9784	869.92	0.34
303.15	1	868.21	0.34
313.15	0	930.12	0.28
313.15	0.0655	925.37	0.28
313.15	0.1357	920.35	0.29
313.15	0.2019	915.66	0.29
313.15	0.2684	910.98	0.3
313.15	0.336	906.21	0.3
313.15	0.4063	901.26	0.31
313.15	0.4726	896.57	0.31
313.15	0.5367	892.03	0.32
313.15	0.6038	887.24	0.32
313.15	0.6792	881.8	0.33
313.15	0.738	877.51	0.34
313.15	0.8119	872.03	0.34
313.15	0.873	867.4	0.35
313.15	0.9314	862.88	0.35
313.15	0.98	859.02	0.36
313.15	1	857.4	0.36
323.15	0	920.55	0.29
323.15	0.0785	914.76	0.3
323.15	0.1359	910.58	0.3
323.15	0.2021	905.79	0.31
323.15	0.2687	901.01	0.31
323.15	0.3364	896.14	0.32
323.15	0.4066	891.09	0.32
323.15	0.4735	886.28	0.33
323.15	0.5415	881.37	0.33
323.15	0.6092	876.44	0.34
323.15	0.6736	871.72	0.35
323.15	0.7453	866.4	0.35
323.15	0.8089	861.6	0.36
323.15	0.8797	856.16	0.36
323.15	0.9374	851.62	0.37
323.15	0.9777	848.38	0.37
323.15	1	846.55	0.38
333.15	0	910.75	0.3
333.15	0.0695	905.54	0.31
333.15	0.1354	900.67	0.32
333.15	0.2026	895.73	0.32
333.15	0.2701	890.79	0.33
333.15	0.3321	886.27	0.33
333.15	0.4042	881.01	0.34
333.15	0.475	875.82	0.34
333.15	0.5487	870.41	0.35
333.15	0.6014	866.51	0.35
333.15	0.6758	860.97	0.36
333.15	0.7371	856.36	0.37
333.15	0.8142	850.48	0.37
333.15	0.8809	845.28	0.38
333.15	0.9398	840.58	0.39
333.15	0.9785	837.43	0.39
333.15	1	835.66	0.39
343.15	0	900.73	0.32
343.15	0.0577	896.35	0.32
343.15	0.1155	892	0.33
343.15	0.1728	887.74	0.33
343.15	0.2388	882.84	0.34
343.15	0.299	878.39	0.34
343.15	0.3652	873.49	0.35
343.15	0.4202	869.41	0.35
343.15	0.504	863.2	0.36
343.15	0.5606	858.98	0.37
343.15	0.6275	853.95	0.37
343.15	0.6963	848.75	0.38
343.15	0.7585	844	0.39
343.15	0.8187	839.33	0.39
343.15	0.8814	834.39	0.4
343.15	0.9584	828.16	0.41
343.15	1	824.71	0.41

System: dimethylformamide + toluene; phases: Liquid
Fixed: Pressure, kPa = 101
Property: Mass density, kg/m3 (Liquid); method: VIBTUB:UFactor:4
Temperature, K	Mole fraction of toluene	Mass density, kg/m3	uncertainty
293.15	0	948.58	0.25
293.15	0.0587	943.21	0.27
293.15	0.0924	940.15	0.29
293.15	0.1596	934.15	0.32
293.15	0.2106	929.65	0.35
293.15	0.2706	924.43	0.38
293.15	0.3202	920.16	0.41
293.15	0.3823	914.89	0.45
293.15	0.4504	909.2	0.49
293.15	0.5171	903.73	0.54
293.15	0.5636	899.97	0.57
293.15	0.7212	887.54	0.69
293.15	0.7647	884.19	0.73
293.15	0.8114	880.65	0.77
293.15	0.8715	876.16	0.82
293.15	0.9412	871.04	0.88
293.15	1	866.8	0.94
303.15	0	939.46	0.26
303.15	0.0451	935.32	0.28
303.15	0.1012	930.23	0.31
303.15	0.1674	924.31	0.34
303.15	0.2151	920.11	0.36
303.15	0.2855	913.98	0.4
303.15	0.3484	908.59	0.44
303.15	0.4188	902.65	0.48
303.15	0.4876	896.96	0.53
303.15	0.5508	891.8	0.57
303.15	0.6134	886.77	0.62
303.15	0.6745	881.95	0.66
303.15	0.7512	876	0.72
303.15	0.8121	871.36	0.77
303.15	0.8614	867.66	0.82
303.15	0.9318	862.47	0.88
303.15	1	857.53	0.94
313.15	0	930.12	0.28
313.15	0.051	925.45	0.3
313.15	0.1112	920.02	0.32
313.15	0.1984	912.27	0.37
313.15	0.2511	907.67	0.39
313.15	0.3147	902.18	0.43
313.15	0.3784	896.76	0.47
313.15	0.4322	892.26	0.5
313.15	0.5053	886.23	0.55
313.15	0.5721	880.8	0.6
313.15	0.6427	875.17	0.65
313.15	0.7077	870.09	0.7
313.15	0.7812	864.43	0.75
313.15	0.8419	859.84	0.8
313.15	0.8932	856.01	0.85
313.15	0.9588	851.2	0.91
313.15	1	848.23	0.94
323.15	0	920.55	0.29
323.15	0.044	916.54	0.31
323.15	0.1062	910.94	0.33
323.15	0.1721	905.1	0.37
323.15	0.2314	899.91	0.4
323.15	0.2985	894.12	0.43
323.15	0.3647	888.5	0.47
323.15	0.4215	883.74	0.5
323.15	0.4874	878.3	0.55
323.15	0.5484	873.34	0.59
323.15	0.6014	869.09	0.62
323.15	0.6647	864.08	0.67
323.15	0.7314	858.9	0.72
323.15	0.7951	854.03	0.77
323.15	0.8654	848.74	0.83
323.15	0.9321	843.83	0.88
323.15	1	838.91	0.94
333.15	0	910.75	0.3
333.15	0.0512	906.14	0.33
333.15	0.112	900.72	0.35
333.15	0.1784	894.89	0.38
333.15	0.2351	889.98	0.41
333.15	0.2985	884.55	0.44
333.15	0.3514	880.08	0.47
333.15	0.4122	875	0.51
333.15	0.4841	869.09	0.55
333.15	0.5451	864.14	0.59
333.15	0.6015	859.64	0.63
333.15	0.6641	854.71	0.68
333.15	0.7321	849.44	0.73
333.15	0.7951	844.64	0.78
333.15	0.8621	839.62	0.83
333.15	0.9245	835.02	0.88
333.15	1	829.55	0.95
343.15	0	900.73	0.32
343.15	0.0632	895.11	0.34
343.15	0.1201	890.11	0.37
343.15	0.1854	884.45	0.4
343.15	0.2554	878.46	0.43
343.15	0.3114	873.73	0.46
343.15	0.3784	868.14	0.5
343.15	0.4552	861.82	0.55
343.15	0.5114	857.28	0.58
343.15	0.5662	852.9	0.62
343.15	0.6212	848.55	0.66
343.15	0.6812	843.88	0.7
343.15	0.7499	838.61	0.75
343.15	0.8021	834.67	0.79
343.15	0.8654	829.95	0.84
343.15	0.9421	824.34	0.9
343.15	1	820.17	0.95
353.15	0	890.48	0.34
353.15	0.0451	886.53	0.35
353.15	0.1023	881.55	0.38
353.15	0.1654	876.13	0.4
353.15	0.2215	871.36	0.43
353.15	0.2865	865.91	0.46
353.15	0.3412	861.36	0.49
353.15	0.4012	856.44	0.53
353.15	0.4687	850.98	0.57
353.15	0.5214	846.76	0.6
353.15	0.5841	841.82	0.64
353.15	0.6474	836.89	0.68
353.15	0.7142	831.77	0.73
353.15	0.7784	826.93	0.78
353.15	0.8451	821.96	0.83
353.15	0.9012	817.86	0.87
353.15	1	810.77	0.95

System: dimethylformamide + ethylbenzene; phases: Liquid
Fixed: Pressure, kPa = 101
Property: Mass density, kg/m3 (Liquid); method: VIBTUB:UFactor:4
Temperature, K	Mole fraction of ethylbenzene	Mass density, kg/m3	uncertainty
293.15	0	948.58	0.25
293.15	0.0514	942.69	0.26
293.15	0.1124	936.07	0.28
293.15	0.1754	929.58	0.29
293.15	0.2451	922.8	0.31
293.15	0.3102	916.81	0.33
293.15	0.3754	911.11	0.34
293.15	0.4514	904.81	0.36
293.15	0.5214	899.3	0.37
293.15	0.5862	894.43	0.39
293.15	0.6478	890	0.4
293.15	0.7012	886.28	0.41
293.15	0.7658	881.94	0.43
293.15	0.8214	878.33	0.44
293.15	0.8845	874.33	0.45
293.15	0.9451	870.6	0.47
293.15	1	867.28	0.48
303.15	0	939.46	0.26
303.15	0.0562	933.08	0.28
303.15	0.1141	926.82	0.29
303.15	0.1865	919.45	0.31
303.15	0.2451	913.8	0.32
303.15	0.3065	908.15	0.34
303.15	0.375	902.18	0.35
303.15	0.4354	897.14	0.37
303.15	0.4952	892.39	0.38
303.15	0.5685	886.81	0.4
303.15	0.6284	882.45	0.41
303.15	0.7025	877.28	0.43
303.15	0.7654	873.05	0.44
303.15	0.8251	869.17	0.45
303.15	0.8821	865.57	0.47
303.15	0.9422	861.86	0.48
303.15	1	858.36	0.49
313.15	0	930.12	0.28
313.15	0.0684	922.45	0.29
313.15	0.1151	917.46	0.31
313.15	0.1855	910.34	0.32
313.15	0.2525	903.93	0.34
313.15	0.3101	898.69	0.35
313.15	0.3852	892.2	0.37
313.15	0.4421	887.51	0.38
313.15	0.5012	882.85	0.39
313.15	0.5688	877.74	0.41
313.15	0.6211	873.93	0.42
313.15	0.6855	869.42	0.43
313.15	0.7451	865.39	0.45
313.15	0.8021	861.65	0.46
313.15	0.8654	857.62	0.47
313.15	0.9325	853.47	0.49
313.15	1	849.38	0.5
323.15	0	920.55	0.29
323.15	0.0463	915.35	0.3
323.15	0.1125	908.29	0.32
323.15	0.1785	901.64	0.33
323.15	0.2462	895.17	0.35
323.15	0.312	889.22	0.36
323.15	0.3745	883.85	0.38
323.15	0.4352	878.85	0.39
323.15	0.4952	874.12	0.41
323.15	0.5552	869.58	0.42
323.15	0.6125	865.41	0.43
323.15	0.6784	860.79	0.45
323.15	0.7451	856.29	0.46
323.15	0.8021	852.57	0.47
323.15	0.8666	848.48	0.49
323.15	0.9451	843.65	0.5
323.15	1	840.35	0.51
333.15	0	910.75	0.3
333.15	0.0548	904.7	0.32
333.15	0.1241	897.45	0.34
333.15	0.1852	891.41	0.35
333.15	0.2451	885.77	0.36
333.15	0.3021	880.64	0.38
333.15	0.3625	875.45	0.39
333.15	0.4255	870.27	0.4
333.15	0.4954	864.79	0.42
333.15	0.5621	859.79	0.43
333.15	0.6215	855.53	0.45
333.15	0.6865	851.02	0.46
333.15	0.7451	847.11	0.47
333.15	0.8002	843.53	0.48
333.15	0.8621	839.62	0.5
333.15	0.9351	835.15	0.51
333.15	1	831.25	0.52
343.15	0	900.73	0.32
343.15	0.0689	893.27	0.34
343.15	0.132	886.83	0.35
343.15	0.1952	880.71	0.37
343.15	0.2621	874.55	0.38
343.15	0.3262	868.95	0.4
343.15	0.3865	863.91	0.41
343.15	0.4461	859.15	0.42
343.15	0.5121	854.09	0.44
343.15	0.5685	849.94	0.45
343.15	0.6332	845.36	0.46
343.15	0.7095	840.17	0.48
343.15	0.7651	836.53	0.49
343.15	0.8221	832.9	0.5
343.15	0.8858	828.96	0.51
343.15	0.9514	824.99	0.53
343.15	1	822.11	0.54
353.15	0	890.48	0.34
353.15	0.0458	885.55	0.35
353.15	0.1112	878.86	0.36
353.15	0.1784	872.35	0.38
353.15	0.2351	867.13	0.39
353.15	0.2965	861.72	0.4
353.15	0.3589	856.48	0.42
353.15	0.4152	851.94	0.43
353.15	0.4784	847.06	0.44
353.15	0.5321	843.06	0.45
353.15	0.5962	838.48	0.47
353.15	0.6748	833.09	0.48
353.15	0.7451	828.47	0.5
353.15	0.8032	824.77	0.51
353.15	0.8745	820.37	0.52
353.15	0.9548	815.56	0.54
353.15	1	812.9	0.55
