Measured thermophysical data. Thermodynamic and acoustic properties of binary mixtures of alcohols and alkanes. II. Density and heat capacity of (ethanol + n-heptane) under elevated pressures
Source: J. Chem. Thermodyn., 2005, 10.1016/j.jct.2004.12.002
Compound 1: ethanol, C2H6O, InChI=1S/C2H6O/c1-2-3/h3H,2H2,1H3, purity 99.8%
Compound 2: heptane, C7H16, InChI=1S/C7H16/c1-3-5-7-6-4-2/h3-7H2,1-2H3, purity 99.5%

System: ethanol; phases: Liquid
Fixed: Pressure, kPa = 101
Property: Mass density, kg/m3 (Liquid); method: VIBTUB:UFactor:4
Temperature, K	Mass density, kg/m3	uncertainty
293.22	789.54	0.47
298.16	785.46	0.47
303.17	781.05	0.48
308.17	776.75	0.49
313.17	772.42	0.49
318.18	768	0.5

System: heptane; phases: Liquid
Fixed: Pressure, kPa = 101
Property: Mass density, kg/m3 (Liquid); method: VIBTUB:UFactor:4
Temperature, K	Mass density, kg/m3	uncertainty
293.22	683.82	0.65
298.16	679.75	0.65
303.17	675.51	0.66
308.17	671.21	0.67
313.17	666.97	0.67
318.18	662.67	0.68

System: ethanol + heptane; phases: Liquid
Fixed: Pressure, kPa = 101
Property: Mass density, kg/m3 (Liquid); method: VIBTUB:UFactor:4
Mole fraction of ethanol	Temperature, K	Mass density, kg/m3	uncertainty
0	293.22	683.82	0.65
0	298.16	679.75	0.65
0	303.17	675.51	0.66
0	308.17	671.21	0.67
0	313.17	666.97	0.67
0	318.18	662.67	0.68
0.0237	293.22	684.36	0.65
0.0237	298.17	680.19	0.65
0.0237	303.17	675.81	0.66
0.0237	308.17	671.53	0.66
0.0237	313.17	667.19	0.67
0.0237	318.17	663.59	0.68
0.0507	293.22	685.26	0.64
0.0507	298.17	681.04	0.65
0.0507	303.17	676.65	0.66
0.0507	308.17	672.35	0.66
0.0507	313.17	667.92	0.67
0.0507	318.18	662.82	0.68
0.1041	293.22	687.27	0.64
0.1041	298.17	683.06	0.65
0.1041	303.17	678.74	0.65
0.1041	308.17	674.32	0.66
0.1041	313.17	669.78	0.67
0.1041	318.17	665.46	0.67
0.2043	293.21	691.74	0.63
0.2043	298.17	687.5	0.64
0.2043	303.17	683.12	0.64
0.2043	308.17	678.62	0.65
0.2043	313.17	674.12	0.66
0.2043	318.17	669.66	0.66
0.3044	293.21	697.14	0.62
0.3044	298.17	692.93	0.63
0.3044	303.17	688.45	0.63
0.3044	308.17	683.9	0.64
0.3044	313.17	679.46	0.65
0.3044	318.17	674.88	0.65
0.3971	293.21	703.04	0.61
0.3971	298.17	698.76	0.62
0.3971	303.17	694.32	0.62
0.3971	308.17	689.82	0.63
0.3971	313.17	685.29	0.64
0.3971	318.17	680.74	0.64
0.4975	293.21	710.62	0.6
0.4975	298.17	706.35	0.6
0.4975	303.17	701.88	0.61
0.4975	308.17	697.41	0.62
0.4975	313.17	692.92	0.62
0.4975	318.17	688.34	0.63
0.6043	293.22	720.54	0.58
0.6043	298.17	716.27	0.59
0.6043	303.17	711.77	0.59
0.6043	308.17	707.35	0.6
0.6043	313.17	702.8	0.61
0.6043	318.17	698.25	0.61
0.6954	293.21	730.78	0.57
0.6954	298.17	726.58	0.57
0.6954	303.17	722.09	0.58
0.6954	308.17	717.65	0.58
0.6954	313.17	713.21	0.59
0.6954	318.17	708.71	0.59
0.8023	293.21	745.94	0.54
0.8023	298.17	741.81	0.54
0.8023	303.17	737.39	0.55
0.8023	308.17	733.18	0.56
0.8023	313.17	728.57	0.57
0.8023	318.17	724.14	0.57
0.9009	293.21	764.36	0.51
0.9009	298.17	760.18	0.51
0.9009	303.17	755.87	0.52
0.9009	308.17	751.57	0.53
0.9009	313.17	747.21	0.53
0.9009	318.17	742.91	0.54
0.9531	293.22	776.53	0.49
0.9531	298.17	772.37	0.49
0.9531	303.17	768.14	0.5
0.9531	308.17	763.83	0.51
0.9531	313.17	759.41	0.51
0.9531	318.18	754.95	0.52
1	293.22	789.54	0.47
1	298.16	785.46	0.47
1	303.17	781.05	0.48
1	308.17	776.75	0.49
1	313.17	772.42	0.49
1	318.18	768	0.5
