Measured thermophysical data. Phase behaviour for the (CO2 + 1-butyl-2-pyrrolidone) and (CO2 + 1-octyl-2-pyrrolidone) systems at temperatures from (313.2 to 393.2) K and pressures up to 28 MPa
Source: J. Chem. Thermodyn., 2019, 10.1016/j.jct.2018.10.002
Compound 1: carbon dioxide, CO2, InChI=1S/CO2/c2-1-3, purity 99.9%
Compound 2: 1-butyl-2-pyrrolidone, C8H15NO, InChI=1S/C8H15NO/c1-2-3-6-9-7-4-5-8(9)10/h2-7H2,1H3, purity 95%
Compound 3: N-octyl-2-pyrrolidone, C12H23NO, InChI=1S/C12H23NO/c1-2-3-4-5-6-7-10-13-11-8-9-12(13)14/h2-11H2,1H3, purity 98%

System: 1-butyl-2-pyrrolidone + carbon dioxide; phases: Liquid, Gas
Property: Vapor or sublimation pressure, kPa (Liquid); method: Closed cell (Static) method
Temperature, K	Mole fraction of 1-butyl-2-pyrrolidone	Vapor or sublimation pressure, kPa	uncertainty
313.2	0.063	10100	1010
313.2	0.082	10130	1010
313.2	0.106	10110	1010
313.2	0.143	10030	1000
313.2	0.16	9930	1000
313.2	0.183	9830	1000
313.2	0.233	9560	1000
313.2	0.277	9350	1000
313.2	0.316	9110	1000
313.2	0.371	8760	1000
313.2	0.432	8390	1000
313.2	0.502	7820	1000
313.2	0.604	7000	1000
313.2	0.632	6750	1000
333.2	0.106	15080	1010
333.2	0.143	14600	1010
333.2	0.16	14240	1010
333.2	0.183	13790	1010
333.2	0.233	13080	1010
333.2	0.277	12420	1010
333.2	0.316	11760	1010
333.2	0.371	10960	1010
333.2	0.432	10220	1010
333.2	0.502	9210	1000
333.2	0.604	7970	1000
333.2	0.632	7640	1000
353.2	0.143	19350	1010
353.2	0.16	19140	1010
353.2	0.183	18440	1020
353.2	0.233	16930	1020
353.2	0.277	15830	1020
353.2	0.316	14660	1020
353.2	0.371	13340	1010
353.2	0.432	12110	1010
353.2	0.502	10660	1010
353.2	0.604	8930	1010
353.2	0.632	8590	1010
373.2	0.16	22790	1020
373.2	0.183	21970	1020
373.2	0.233	20390	1030
373.2	0.277	18720	1030
373.2	0.316	17280	1020
373.2	0.371	15760	1020
373.2	0.432	14030	1020
373.2	0.502	12170	1010
373.2	0.604	9970	1010
373.2	0.632	9390	1010
393.2	0.16	26050	1030
393.2	0.183	25230	1030
393.2	0.233	23620	1030
393.2	0.277	21830	1040
393.2	0.316	19970	1030
393.2	0.371	18240	1030
393.2	0.432	16030	1030
393.2	0.502	13760	1020
393.2	0.604	11070	1020
393.2	0.632	10360	1010

System: 1-butyl-2-pyrrolidone + carbon dioxide; phases: Gas, Liquid
Property: Vapor or sublimation pressure, kPa (Gas); method: Closed cell (Static) method
Temperature, K	Mole fraction of 1-butyl-2-pyrrolidone	Vapor or sublimation pressure, kPa	uncertainty
333.2	0.063	14860	1000
353.2	0.063	18870	1020
353.2	0.082	19280	1010
373.2	0.063	22390	1030
373.2	0.082	22720	1010
373.2	0.106	23140	1010
393.2	0.063	24910	1010
393.2	0.082	25350	1020
393.2	0.106	25970	1010
393.2	0.143	26100	1010

System: 1-butyl-2-pyrrolidone + carbon dioxide; phases: Liquid, Gas
Property: Critical temperature, K (Liquid); method: Visual observation in an unstirred cell
Mole fraction of 1-butyl-2-pyrrolidone	Critical temperature, K	uncertainty
0.082	333.2	5
0.106	353.2	3.9
0.143	373.2	3.3

System: 1-butyl-2-pyrrolidone + carbon dioxide; phases: Liquid, Gas
Property: Critical pressure, kPa (Liquid); method: Direct measurement
Mole fraction of 1-butyl-2-pyrrolidone	Critical pressure, kPa	uncertainty
0.082	15070	1500
0.106	19520	1270
0.143	23140	1160

System: N-octyl-2-pyrrolidone + carbon dioxide; phases: Liquid, Gas
Property: Vapor or sublimation pressure, kPa (Liquid); method: Closed cell (Static) method
Temperature, K	Mole fraction of N-octyl-2-pyrrolidone	Vapor or sublimation pressure, kPa	uncertainty
313.2	0.031	12140	1010
313.2	0.062	12550	1010
313.2	0.099	12100	1010
313.2	0.143	11480	1010
313.2	0.198	10450	1010
313.2	0.229	9450	1010
313.2	0.254	9240	1010
313.2	0.271	8900	1010
313.2	0.291	8520	1010
313.2	0.332	8110	1000
313.2	0.393	7390	1000
313.2	0.448	6730	1000
313.2	0.518	5970	1000
313.2	0.591	5160	1000
313.2	0.663	4450	1000
333.2	0.062	18040	1010
333.2	0.099	17970	1010
333.2	0.143	17210	1020
333.2	0.198	15040	1050
333.2	0.229	12860	1040
333.2	0.254	12520	1010
333.2	0.271	12120	1010
333.2	0.291	11830	1010
333.2	0.332	11210	1010
333.2	0.393	9860	1010
333.2	0.448	8720	1010
333.2	0.518	7660	1000
333.2	0.591	6620	1000
333.2	0.663	6010	1000
353.2	0.099	22690	1010
353.2	0.143	21690	1030
353.2	0.198	19310	1050
353.2	0.229	17310	1070
353.2	0.254	16070	1040
353.2	0.271	15520	1010
353.2	0.291	15140	1020
353.2	0.332	13860	1020
353.2	0.393	12030	1010
353.2	0.448	10760	1010
353.2	0.518	9000	1010
353.2	0.591	7970	1000
353.2	0.663	7040	1000
373.2	0.099	26410	1010
373.2	0.143	25720	1030
373.2	0.198	22930	1060
373.2	0.229	21030	1070
373.2	0.254	19550	1040
373.2	0.271	19240	1030
373.2	0.291	18070	1040
373.2	0.332	16520	1030
373.2	0.393	14140	1020
373.2	0.448	12410	1020
373.2	0.518	10450	1010
373.2	0.591	9280	1010
373.2	0.663	7720	1010
393.2	0.143	28350	1040
393.2	0.198	26040	1040
393.2	0.229	24170	1080
393.2	0.254	22410	1070
393.2	0.271	21620	1030
393.2	0.291	20970	1040
393.2	0.332	19030	1040
393.2	0.393	16100	1030
393.2	0.448	14070	1020
393.2	0.518	11690	1010
393.2	0.591	10550	1010
393.2	0.663	8520	1010

System: N-octyl-2-pyrrolidone + carbon dioxide; phases: Gas, Liquid
Property: Vapor or sublimation pressure, kPa (Gas); method: Closed cell (Static) method
Temperature, K	Mole fraction of N-octyl-2-pyrrolidone	Vapor or sublimation pressure, kPa	uncertainty
333.2	0.031	17690	1010
353.2	0.031	22100	1010
373.2	0.031	25900	1040
373.2	0.062	26450	1010
393.2	0.031	26880	1040
393.2	0.062	28220	1040

System: N-octyl-2-pyrrolidone + carbon dioxide; phases: Liquid, Gas
Property: Critical temperature, K (Liquid); method: Visual observation in an unstirred cell
Mole fraction of N-octyl-2-pyrrolidone	Critical temperature, K	uncertainty
0.062	353.2	6.5
0.099	393.2	6.5

System: N-octyl-2-pyrrolidone + carbon dioxide; phases: Liquid, Gas
Property: Critical pressure, kPa (Liquid); method: Direct measurement
Mole fraction of N-octyl-2-pyrrolidone	Critical pressure, kPa	uncertainty
0.062	22860	1380
0.099	28720	1380
