Measured thermophysical data. (Vapour + liquid) equilibria, volumetric and compressibility behaviour of binary and ternary aqueous solutions of 1-hexyl-3-methylimidazolium chloride,  methyl potassium malonate, and ethyl potassium malonate
Source: J. Chem. Thermodyn., 2012, 10.1016/j.jct.2011.11.014
Compound 1: water, H2O, InChI=1S/H2O/h1H2, purity 99.8%
Compound 2: 1-hexyl-3-methylimidazolium chloride, C10H19ClN2, InChI=1S/C10H19N2.ClH/c1-3-4-5-6-7-12-9-8-11(2)10-12;/h8-10H,3-7H2,1-2H3;1H/q+1;/p-1, purity 99%
Compound 3: potassium 3-methoxy-3-oxopropanoate, C4H5KO4, InChI=1S/C4H6O4.K/c1-8-4(7)2-3(5)6;/h2H2,1H3,(H,5,6);/q;+1/p-1, purity 98%
Compound 4: potassium 3-ethoxy-3-oxopropanoate, C5H7KO4, InChI=1S/C5H8O4.K/c1-2-9-5(8)3-4(6)7;/h2-3H2,1H3,(H,6,7);/q;+1/p-1, purity 98%

System: water + 1-hexyl-3-methylimidazolium chloride; phases: Liquid, Gas
Fixed: Temperature, K = 298.15
Property: (Relative) activity of water (Liquid); method: Isopiestic method
Molality, mol/kg of 1-hexyl-3-methylimidazolium chloride	(Relative) activity of water	uncertainty
0.1399	0.9951	0.001
0.1456	0.9949	0.001
0.1523	0.9946	0.001
0.1575	0.9946	0.001
0.1732	0.9942	0.001
0.181	0.9938	0.001
0.1899	0.9936	0.001
0.2052	0.9931	0.001
0.3194	0.9898	0.001
0.3662	0.9881	0.001
0.4416	0.9859	0.001
0.4713	0.9853	0.001
0.5054	0.9847	0.001
0.6303	0.9811	0.001
0.6994	0.9802	0.001
0.7071	0.9802	0.001
0.7115	0.9796	0.001
0.7585	0.9784	0.001
0.8664	0.9761	0.001
0.9044	0.975	0.001
1.0665	0.9717	0.001
1.1425	0.9697	0.001
1.1992	0.968	0.001
1.2617	0.9671	0.001
1.3356	0.9661	0.001
1.4741	0.9624	0.001
1.5752	0.9607	0.001
1.6326	0.959	0.001
1.8356	0.9554	0.001
2.0752	0.95	0.001
2.326	0.9436	0.001
2.6297	0.9379	0.001
3.0984	0.9277	0.001
3.9318	0.909	0.001

System: water + potassium 3-methoxy-3-oxopropanoate; phases: Liquid, Gas
Fixed: Temperature, K = 298.15
Property: (Relative) activity of water (Liquid); method: Isopiestic method
Molality, mol/kg of potassium 3-methoxy-3-oxopropanoate	(Relative) activity of water	uncertainty
0.2024	0.993	0.001
0.2187	0.9926	0.001
0.2289	0.9924	0.001
0.233	0.9921	0.001
0.2385	0.9919	0.001
0.2563	0.9916	0.001
0.2887	0.9904	0.001
0.3096	0.9897	0.001
0.3313	0.9889	0.001
0.356	0.9881	0.001
0.3701	0.9875	0.001
0.3887	0.9869	0.001
0.4246	0.9857	0.001
0.4333	0.9853	0.001
0.4697	0.9838	0.001
0.5384	0.9815	0.001
0.5541	0.9813	0.001
0.5563	0.9811	0.001
0.5699	0.9802	0.001
0.6429	0.9784	0.001
0.7058	0.9761	0.001
0.727	0.9751	0.001
0.7428	0.975	0.001
0.8463	0.9717	0.001
0.8987	0.9697	0.001
0.9103	0.9685	0.001
0.9629	0.9671	0.001
1.0825	0.9624	0.001
1.1051	0.962	0.001
1.1367	0.96	0.001
1.1667	0.9594	0.001
1.9796	0.9297	0.001
2.9567	0.893	0.001
4.0223	0.8527	0.001

System: water + potassium 3-methoxy-3-oxopropanoate; phases: Liquid
Fixed: Pressure, kPa = 101.3
Property: Speed of sound, m/s (Liquid); method: Sing-around technique in a fixed-path interferometer
Molality, mol/kg of potassium 3-methoxy-3-oxopropanoate	Temperature, K	Speed of sound, m/s	uncertainty
0.0128	288.15	1468.13	2.21
0.0128	293.15	1484.02	2.2
0.0128	298.15	1498.12	2.18
0.0128	303.15	1510.38	2.17
0.0128	308.15	1520.94	2.16
0.0128	313.15	1529.95	2.15
0.0148	288.15	1468.26	2.21
0.0148	293.15	1484.25	2.2
0.0148	298.15	1498.36	2.18
0.0148	303.15	1510.6	2.17
0.0148	308.15	1521.18	2.16
0.0148	313.15	1530.18	2.15
0.0189	288.15	1468.75	2.21
0.0189	293.15	1484.69	2.2
0.0189	298.15	1498.75	2.18
0.0189	303.15	1510.99	2.17
0.0189	308.15	1521.52	2.16
0.0189	313.15	1530.51	2.15
0.0253	288.15	1469.6	2.2
0.0253	293.15	1485.43	2.2
0.0253	298.15	1499.44	2.18
0.0253	303.15	1511.63	2.17
0.0253	308.15	1522.13	2.16
0.0253	313.15	1531.1	2.15
0.0316	288.15	1470.27	2.21
0.0316	293.15	1486.09	2.2
0.0316	298.15	1500.07	2.18
0.0316	303.15	1512.21	2.17
0.0316	308.15	1522.68	2.16
0.0316	313.15	1531.59	2.15
0.0444	288.15	1471.75	2.21
0.0444	293.15	1487.43	2.2
0.0444	298.15	1501.31	2.18
0.0444	303.15	1513.34	2.17
0.0444	308.15	1523.74	2.16
0.0444	313.15	1532.59	2.15
0.0512	288.15	1472.44	2.21
0.0512	293.15	1488.16	2.2
0.0512	298.15	1502	2.18
0.0512	303.15	1514.03	2.17
0.0512	308.15	1524.41	2.16
0.0512	313.15	1533.23	2.15
0.0637	288.15	1473.98	2.21
0.0637	293.15	1489.53	2.2
0.0637	298.15	1503.28	2.18
0.0637	303.15	1515.2	2.17
0.0637	308.15	1525.51	2.16
0.0637	313.15	1534.26	2.15
0.0836	288.15	1476.04	2.21
0.0836	293.15	1491.48	2.2
0.0836	298.15	1505.11	2.18
0.0836	303.15	1516.96	2.17
0.0836	308.15	1527.14	2.16
0.0836	313.15	1535.79	2.15
0.1286	288.15	1481.13	2.21
0.1286	293.15	1496.21	2.2
0.1286	298.15	1509.51	2.18
0.1286	303.15	1521.07	2.17
0.1286	308.15	1531.03	2.16
0.1286	313.15	1539.45	2.15
0.1868	288.15	1487.36	2.2
0.1868	293.15	1502	2.2
0.1868	298.15	1514.91	2.18
0.1868	303.15	1526.16	2.17
0.1868	308.15	1535.78	2.16
0.1868	313.15	1543.94	2.15
0.2644	288.15	1495.44	2.2
0.2644	293.15	1509.59	2.19
0.2644	298.15	1522.11	2.18
0.2644	303.15	1532.9	2.17
0.2644	308.15	1542.12	2.16
0.2644	313.15	1549.88	2.16
0.3285	288.15	1502.21	2.2
0.3285	293.15	1516.07	2.19
0.3285	298.15	1528.05	2.18
0.3285	303.15	1538.52	2.17
0.3285	308.15	1547.4	2.16
0.3285	313.15	1554.89	2.16
0.3591	288.15	1504.99	2.2
0.3591	293.15	1518.59	2.19
0.3591	298.15	1530.51	2.18
0.3591	303.15	1540.79	2.17
0.3591	308.15	1549.52	2.16
0.3591	313.15	1556.85	2.16

System: water + potassium 3-methoxy-3-oxopropanoate; phases: Liquid
Fixed: Pressure, kPa = 101.3
Property: Mass density, kg/m3 (Liquid); method: Vibrating tube method
Molality, mol/kg of potassium 3-methoxy-3-oxopropanoate	Temperature, K	Mass density, kg/m3	uncertainty
0.0128	288.15	1000.032	0.136
0.0128	293.15	999.122	0.165
0.0128	298.15	997.951	0.164
0.0128	303.15	996.543	0.165
0.0128	308.15	994.92	0.166
0.0128	313.15	993.096	0.149
0.0148	288.15	1000.184	0.133
0.0148	293.15	999.272	0.137
0.0148	298.15	998.099	0.14
0.0148	303.15	996.691	0.143
0.0148	308.15	995.066	0.146
0.0148	313.15	993.243	0.147
0.0189	288.15	1000.468	0.134
0.0189	293.15	999.553	0.136
0.0189	298.15	998.377	0.139
0.0189	303.15	996.967	0.142
0.0189	308.15	995.341	0.146
0.0189	313.15	993.515	0.146
0.0253	288.15	1000.942	0.134
0.0253	293.15	1000.019	0.135
0.0253	298.15	998.84	0.138
0.0253	303.15	997.423	0.142
0.0253	308.15	995.793	0.145
0.0253	313.15	993.962	0.147
0.0316	288.15	1001.391	0.133
0.0316	293.15	1000.465	0.135
0.0316	298.15	999.281	0.138
0.0316	303.15	997.862	0.142
0.0316	308.15	996.226	0.145
0.0316	313.15	994.391	0.146
0.0444	288.15	1002.302	0.134
0.0444	293.15	1001.366	0.134
0.0444	298.15	1000.17	0.137
0.0444	303.15	998.743	0.141
0.0444	308.15	997.101	0.144
0.0444	313.15	995.26	0.147
0.0512	288.15	1002.813	0.134
0.0512	293.15	1001.869	0.136
0.0512	298.15	1000.668	0.139
0.0512	303.15	999.236	0.142
0.0512	308.15	997.589	0.146
0.0512	313.15	995.745	0.147
0.0637	288.15	1003.7	0.134
0.0637	293.15	1002.743	0.135
0.0637	298.15	1001.535	0.138
0.0637	303.15	1000.101	0.141
0.0637	308.15	998.449	0.145
0.0637	313.15	996.599	0.147
0.0836	288.15	1005.107	0.135
0.0836	293.15	1004.138	0.136
0.0836	298.15	1002.913	0.139
0.0836	303.15	1001.459	0.142
0.0836	308.15	999.794	0.145
0.0836	313.15	997.933	0.147
0.1286	288.15	1008.323	0.135
0.1286	293.15	1007.314	0.136
0.1286	298.15	1006.055	0.139
0.1286	303.15	1004.572	0.143
0.1286	308.15	1002.88	0.146
0.1286	313.15	1000.997	0.148
0.1868	288.15	1012.394	0.135
0.1868	293.15	1011.338	0.137
0.1868	298.15	1010.037	0.14
0.1868	303.15	1008.518	0.143
0.1868	308.15	1006.795	0.146
0.1868	313.15	1004.881	0.149
0.2644	288.15	1017.685	0.137
0.2644	293.15	1016.566	0.139
0.2644	298.15	1015.211	0.142
0.2644	303.15	1013.645	0.145
0.2644	308.15	1011.879	0.148
0.2644	313.15	1009.928	0.15
0.3285	288.15	1022.016	0.139
0.3285	293.15	1020.844	0.14
0.3285	298.15	1019.448	0.143
0.3285	303.15	1017.844	0.146
0.3285	308.15	1016.044	0.149
0.3285	313.15	1014.064	0.151
0.3591	288.15	1023.999	0.139
0.3591	293.15	1022.808	0.139
0.3591	298.15	1021.389	0.142
0.3591	303.15	1019.765	0.145
0.3591	308.15	1017.951	0.148
0.3591	313.15	1015.958	0.151

System: potassium 3-ethoxy-3-oxopropanoate + water; phases: Liquid, Gas
Fixed: Temperature, K = 298.15
Property: (Relative) activity of water (Liquid); method: Isopiestic method
Molality, mol/kg of potassium 3-ethoxy-3-oxopropanoate	(Relative) activity of water	uncertainty
0.1952	0.993	0.001
0.2083	0.9926	0.001
0.2146	0.9922	0.001
0.2272	0.9918	0.001
0.2486	0.9913	0.001
0.2677	0.9906	0.001
0.2747	0.9903	0.001
0.2882	0.9896	0.001
0.3256	0.9883	0.001
0.3695	0.9868	0.001
0.4233	0.9848	0.001
0.4651	0.9838	0.001
0.5172	0.9815	0.001
0.5366	0.9811	0.001
0.5603	0.9809	0.001
0.575	0.9797	0.001
0.6246	0.9784	0.001
0.6346	0.9782	0.001
0.7004	0.9761	0.001
0.7194	0.975	0.001
0.7283	0.9748	0.001
0.8277	0.9717	0.001
0.8583	0.97	0.001
0.91	0.9671	0.001
0.931	0.9661	0.001
1.0872	0.96	0.001
1.1945	0.9554	0.001
1.4031	0.9477	0.001
2.1666	0.9164	0.001
2.3407	0.9092	0.001
2.7704	0.8918	0.001
3.9437	0.8484	0.001
6.0054	0.773	0.001

System: potassium 3-ethoxy-3-oxopropanoate + water; phases: Liquid
Fixed: Pressure, kPa = 101.3
Property: Speed of sound, m/s (Liquid); method: Sing-around technique in a fixed-path interferometer
Molality, mol/kg of potassium 3-ethoxy-3-oxopropanoate	Temperature, K	Speed of sound, m/s	uncertainty
0.0116	288.15	1468.2	2.21
0.0116	293.15	1484.11	2.2
0.0116	298.15	1498.22	2.18
0.0116	303.15	1510.48	2.17
0.0116	308.15	1521.04	2.16
0.0116	313.15	1530.04	2.15
0.0175	288.15	1469.05	2.21
0.0175	293.15	1484.9	2.2
0.0175	298.15	1498.96	2.18
0.0175	303.15	1511.16	2.17
0.0175	308.15	1521.73	2.16
0.0175	313.15	1530.66	2.15
0.0352	288.15	1471.19	2.21
0.0352	293.15	1486.95	2.2
0.0352	298.15	1500.88	2.18
0.0352	303.15	1512.95	2.17
0.0352	308.15	1523.38	2.16
0.0352	313.15	1532.24	2.15
0.0453	288.15	1472.63	2.21
0.0453	293.15	1488.29	2.2
0.0453	298.15	1502.1	2.18
0.0453	303.15	1514.1	2.17
0.0453	308.15	1524.44	2.16
0.0453	313.15	1533.24	2.15
0.0579	288.15	1474.25	2.21
0.0579	293.15	1489.81	2.2
0.0579	298.15	1503.53	2.18
0.0579	303.15	1515.44	2.17
0.0579	308.15	1525.71	2.16
0.0579	313.15	1534.42	2.15
0.1204	288.15	1482.16	2.2
0.1204	293.15	1497.21	2.2
0.1204	298.15	1510.41	2.18
0.1204	303.15	1521.91	2.17
0.1204	308.15	1531.76	2.16
0.1204	313.15	1540.06	2.15
0.18	288.15	1489.66	2.2
0.18	293.15	1504.18	2.19
0.18	298.15	1516.92	2.18
0.18	303.15	1527.99	2.17
0.18	308.15	1537.44	2.16
0.18	313.15	1545.4	2.15
0.2369	288.15	1496.6	2.2
0.2369	293.15	1510.61	2.19
0.2369	298.15	1522.95	2.18
0.2369	303.15	1533.61	2.17
0.2369	308.15	1542.7	2.16
0.2369	313.15	1550.32	2.15
0.3076	288.15	1505.06	2.2
0.3076	293.15	1518.65	2.19
0.3076	298.15	1530.46	2.18
0.3076	303.15	1540.58	2.17
0.3076	308.15	1549.07	2.16
0.3076	313.15	1556.26	2.16

System: potassium 3-ethoxy-3-oxopropanoate + water; phases: Liquid
Fixed: Pressure, kPa = 101.3
Property: Mass density, kg/m3 (Liquid); method: Vibrating tube method
Molality, mol/kg of potassium 3-ethoxy-3-oxopropanoate	Temperature, K	Mass density, kg/m3	uncertainty
0.0116	288.15	999.92	2
0.0116	293.15	999.013	2.001
0.0116	298.15	997.84	1.999
0.0116	303.15	996.433	1.996
0.0116	308.15	994.811	1.993
0.0116	313.15	992.986	1.989
0.0175	288.15	1000.336	2.004
0.0175	293.15	999.423	2.002
0.0175	298.15	998.247	1.999
0.0175	303.15	996.835	1.997
0.0175	308.15	995.206	1.993
0.0175	313.15	993.379	1.99
0.0352	288.15	1001.567	2.006
0.0352	293.15	1000.636	2.004
0.0352	298.15	999.442	2.002
0.0352	303.15	998.02	1.999
0.0352	308.15	996.379	1.996
0.0352	313.15	994.542	1.992
0.0453	288.15	1002.286	2.008
0.0453	293.15	1001.346	2.006
0.0453	298.15	1000.147	2.003
0.0453	303.15	998.716	2
0.0453	308.15	997.071	1.997
0.0453	313.15	995.228	1.993
0.0579	288.15	1003.14	2.009
0.0579	293.15	1002.186	2.007
0.0579	298.15	1000.978	2.005
0.0579	303.15	999.538	2.002
0.0579	308.15	997.885	1.999
0.0579	313.15	996.034	1.995
0.1204	288.15	1007.449	2.019
0.1204	293.15	1006.438	2.016
0.1204	298.15	1005.179	2.013
0.1204	303.15	1003.695	2.01
0.1204	308.15	1002.002	2.007
0.1204	313.15	1000.116	2.003
0.18	288.15	1011.471	2.026
0.18	293.15	1010.408	2.024
0.18	298.15	1009.1	2.021
0.18	303.15	1007.575	2.018
0.18	308.15	1005.845	2.015
0.18	313.15	1003.928	2.011
0.2369	288.15	1015.219	2.034
0.2369	293.15	1014.11	2.031
0.2369	298.15	1012.76	2.029
0.2369	303.15	1011.194	2.025
0.2369	308.15	1009.427	2.022
0.2369	313.15	1007.474	2.018
0.3076	288.15	1019.825	2.043
0.3076	293.15	1018.65	2.04
0.3076	298.15	1017.248	2.038
0.3076	303.15	1015.636	2.034
0.3076	308.15	1013.832	2.031
0.3076	313.15	1011.844	2.027

System: water + potassium 3-methoxy-3-oxopropanoate + 1-hexyl-3-methylimidazolium chloride; phases: Liquid
Fixed: Pressure, kPa = 101.3
Fixed: Molality, mol/kg of potassium 3-methoxy-3-oxopropanoate = 0.25
Property: Speed of sound, m/s (Liquid); method: Sing-around technique in a fixed-path interferometer
Molality, mol/kg of 1-hexyl-3-methylimidazolium chloride	Temperature, K	Speed of sound, m/s	uncertainty
0.0392	288.15	1501.66	2.2
0.0392	293.15	1515.34	2.19
0.0392	298.15	1527.38	2.18
0.0392	303.15	1537.71	2.17
0.0392	308.15	1546.51	2.16
0.0392	313.15	1553.89	2.15
0.0965	288.15	1511.72	2.19
0.0965	293.15	1524.72	2.19
0.0965	298.15	1536.03	2.17
0.0965	303.15	1545.75	2.16
0.0965	308.15	1553.95	2.16
0.0965	313.15	1560.77	2.15
0.151	288.15	1521.84	2.19
0.151	293.15	1534	2.18
0.151	298.15	1544.59	2.17
0.151	303.15	1553.65	2.16
0.151	308.15	1561.25	2.15
0.151	313.15	1567.48	2.15
0.2027	288.15	1530.03	2.18
0.2027	293.15	1541.57	2.18
0.2027	298.15	1551.58	2.17
0.2027	303.15	1560.09	2.16
0.2027	308.15	1567.19	2.15
0.2027	313.15	1572.94	2.15
0.2564	288.15	1538.91	2.18
0.2564	293.15	1549.78	2.18
0.2564	298.15	1559.18	2.17
0.2564	303.15	1567.1	2.16
0.2564	308.15	1573.59	2.15
0.2564	313.15	1578.85	2.15
0.3108	288.15	1547.57	2.18
0.3108	293.15	1557.73	2.17
0.3108	298.15	1566.48	2.16
0.3108	303.15	1573.77	2.16
0.3108	308.15	1579.74	2.15
0.3108	313.15	1584.45	2.15
0.3536	288.15	1553.6	2.17
0.3536	293.15	1563.33	2.17
0.3536	298.15	1571.61	2.16
0.3536	303.15	1578.48	2.16
0.3536	308.15	1584.06	2.15
0.3536	313.15	1588.42	2.15
0.4226	288.15	1564.18	2.17
0.4226	293.15	1573	2.17
0.4226	298.15	1580.48	2.16
0.4226	303.15	1586.61	2.16
0.4226	308.15	1591.5	2.15
0.4226	313.15	1595.22	2.15

System: water + potassium 3-methoxy-3-oxopropanoate + 1-hexyl-3-methylimidazolium chloride; phases: Liquid
Fixed: Pressure, kPa = 101.3
Fixed: Molality, mol/kg of potassium 3-methoxy-3-oxopropanoate = 0.25
Property: Mass density, kg/m3 (Liquid); method: Vibrating tube method
Molality, mol/kg of 1-hexyl-3-methylimidazolium chloride	Temperature, K	Mass density, kg/m3	uncertainty
0.0392	288.15	1016.15	0.121
0.0392	293.15	1015.009	0.122
0.0392	298.15	1013.634	0.126
0.0392	303.15	1012.048	0.13
0.0392	308.15	1010.265	0.134
0.0392	313.15	1008.298	0.135
0.0965	288.15	1016.614	0.122
0.0965	293.15	1015.423	0.123
0.0965	298.15	1014.003	0.127
0.0965	303.15	1012.374	0.131
0.0965	308.15	1010.55	0.135
0.0965	313.15	1008.547	0.136
0.151	288.15	1017.093	0.123
0.151	293.15	1015.852	0.125
0.151	298.15	1014.384	0.128
0.151	303.15	1012.714	0.132
0.151	308.15	1010.851	0.136
0.151	313.15	1008.812	0.138
0.2027	288.15	1017.494	0.124
0.2027	293.15	1016.208	0.126
0.2027	298.15	1014.703	0.129
0.2027	303.15	1012.996	0.133
0.2027	308.15	1011.102	0.137
0.2027	313.15	1009.031	0.138
0.2564	288.15	1017.954	0.125
0.2564	293.15	1016.62	0.127
0.2564	298.15	1015.07	0.131
0.2564	303.15	1013.32	0.134
0.2564	308.15	1011.388	0.138
0.2564	313.15	1009.283	0.14
0.3108	288.15	1018.431	0.126
0.3108	293.15	1017.048	0.128
0.3108	298.15	1015.451	0.132
0.3108	303.15	1013.662	0.135
0.3108	308.15	1011.693	0.139
0.3108	313.15	1009.555	0.141
0.3536	288.15	1018.748	0.128
0.3536	293.15	1017.326	0.129
0.3536	298.15	1015.699	0.133
0.3536	303.15	1013.88	0.136
0.3536	308.15	1011.884	0.14
0.3536	313.15	1009.721	0.141
0.4226	288.15	1019.343	0.129
0.4226	293.15	1017.86	0.131
0.4226	298.15	1016.172	0.134
0.4226	303.15	1014.299	0.138
0.4226	308.15	1012.256	0.142
0.4226	313.15	1010.048	0.143

System: potassium 3-ethoxy-3-oxopropanoate + water + 1-hexyl-3-methylimidazolium chloride; phases: Liquid
Fixed: Pressure, kPa = 101.3
Fixed: Molality, mol/kg of potassium 3-ethoxy-3-oxopropanoate = 0.25
Property: Speed of sound, m/s (Liquid); method: Sing-around technique in a fixed-path interferometer
Molality, mol/kg of 1-hexyl-3-methylimidazolium chloride	Temperature, K	Speed of sound, m/s	uncertainty
0.0116	288.15	1499.84	2.2
0.0116	293.15	1513.68	2.19
0.0116	298.15	1525.81	2.18
0.0116	303.15	1536.27	2.17
0.0116	308.15	1545.16	2.16
0.0116	313.15	1552.61	2.15
0.0196	288.15	1501.29	2.2
0.0196	293.15	1515.02	2.19
0.0196	298.15	1527.04	2.18
0.0196	303.15	1537.42	2.17
0.0196	308.15	1546.22	2.16
0.0196	313.15	1553.59	2.15
0.0453	288.15	1505.79	2.19
0.0453	293.15	1519.22	2.19
0.0453	298.15	1530.95	2.18
0.0453	303.15	1541.03	2.17
0.0453	308.15	1549.56	2.16
0.0453	313.15	1556.69	2.15
0.0963	288.15	1515.07	2.19
0.0963	293.15	1527.74	2.18
0.0963	298.15	1538.8	2.17
0.0963	303.15	1548.25	2.16
0.0963	308.15	1556.23	2.16
0.0963	313.15	1562.85	2.15
0.1498	288.15	1524.23	2.19
0.1498	293.15	1536.21	2.18
0.1498	298.15	1546.6	2.17
0.1498	303.15	1555.48	2.16
0.1498	308.15	1562.91	2.15
0.1498	313.15	1568.99	2.15
0.2012	288.15	1532.79	2.18
0.2012	293.15	1544.11	2.18
0.2012	298.15	1553.91	2.17
0.2012	303.15	1562.23	2.16
0.2012	308.15	1569.13	2.15
0.2012	313.15	1574.69	2.15
0.247	288.15	1540.31	2.18
0.247	293.15	1551.02	2.18
0.247	298.15	1560.29	2.17
0.247	303.15	1568.08	2.16
0.247	308.15	1574.48	2.15
0.247	313.15	1579.58	2.15
0.2951	288.15	1547.89	2.18
0.2951	293.15	1558.03	2.17
0.2951	298.15	1566.72	2.16
0.2951	303.15	1573.96	2.16
0.2951	308.15	1579.88	2.15
0.2951	313.15	1584.53	2.15
0.3667	288.15	1558.53	2.17
0.3667	293.15	1567.78	2.17
0.3667	298.15	1575.64	2.16
0.3667	303.15	1582.14	2.16
0.3667	308.15	1587.37	2.15
0.3667	313.15	1591.37	2.15
0.3869	288.15	1561.28	2.17
0.3869	293.15	1570.32	2.17
0.3869	298.15	1577.96	2.16
0.3869	303.15	1584.26	2.16
0.3869	308.15	1589.3	2.15
0.3869	313.15	1593.14	2.15

System: potassium 3-ethoxy-3-oxopropanoate + water + 1-hexyl-3-methylimidazolium chloride; phases: Liquid
Fixed: Pressure, kPa = 101.3
Fixed: Molality, mol/kg of potassium 3-ethoxy-3-oxopropanoate = 0.25
Property: Mass density, kg/m3 (Liquid); method: Vibrating tube method
Molality, mol/kg of 1-hexyl-3-methylimidazolium chloride	Temperature, K	Mass density, kg/m3	uncertainty
0.0116	288.15	1015.995	0.12
0.0116	293.15	1014.863	0.123
0.0116	298.15	1013.494	0.127
0.0116	303.15	1011.914	0.13
0.0116	308.15	1010.136	0.134
0.0116	313.15	1008.174	0.135
0.0196	288.15	1016.059	0.121
0.0196	293.15	1014.918	0.122
0.0196	298.15	1013.545	0.126
0.0196	303.15	1011.958	0.13
0.0196	308.15	1010.174	0.134
0.0196	313.15	1008.207	0.135
0.0453	288.15	1016.269	0.121
0.0453	293.15	1015.104	0.123
0.0453	298.15	1013.711	0.126
0.0453	303.15	1012.107	0.13
0.0453	308.15	1010.305	0.134
0.0453	313.15	1008.322	0.136
0.0963	288.15	1016.69	0.122
0.0963	293.15	1015.483	0.124
0.0963	298.15	1014.047	0.128
0.0963	303.15	1012.402	0.131
0.0963	308.15	1010.567	0.135
0.0963	313.15	1008.551	0.137
0.1498	288.15	1017.131	0.123
0.1498	293.15	1015.876	0.125
0.1498	298.15	1014.394	0.129
0.1498	303.15	1012.712	0.132
0.1498	308.15	1010.841	0.136
0.1498	313.15	1008.79	0.14
0.2012	288.15	1017.573	0.125
0.2012	293.15	1016.268	0.126
0.2012	298.15	1014.745	0.13
0.2012	303.15	1013.022	0.134
0.2012	308.15	1011.113	0.137
0.2012	313.15	1009.029	0.139
0.247	288.15	1017.955	0.126
0.247	293.15	1016.611	0.127
0.247	298.15	1015.049	0.131
0.247	303.15	1013.292	0.135
0.247	308.15	1011.35	0.138
0.247	313.15	1009.239	0.14
0.2951	288.15	1018.37	0.127
0.2951	293.15	1016.981	0.128
0.2951	298.15	1015.381	0.132
0.2951	303.15	1013.587	0.136
0.2951	308.15	1011.61	0.139
0.2951	313.15	1009.47	0.141
0.3667	288.15	1018.953	0.128
0.3667	293.15	1017.502	0.13
0.3667	298.15	1015.842	0.134
0.3667	303.15	1013.996	0.137
0.3667	308.15	1011.973	0.141
0.3667	313.15	1009.785	0.143
0.3869	288.15	1019.121	0.129
0.3869	293.15	1017.653	0.13
0.3869	298.15	1015.978	0.134
0.3869	303.15	1014.116	0.138
0.3869	308.15	1012.079	0.141
0.3869	313.15	1009.882	0.143
