Measured thermophysical data. Excess molar enthalpies of the ternary mixtures: (tetrahydrofuran or 2-methyltetrahydrofuran + methyl tert-butyl ether + n-octane) at the temperature 298.15 K
Source: J. Chem. Thermodyn., 2006, 10.1016/j.jct.2005.07.017
Compound 1: 2-methoxy-2-methylpropane, C5H12O, InChI=1S/C5H12O/c1-5(2,3)6-4/h1-4H3, purity 99.5%
Compound 2: tetrahydrofuran, C4H8O, InChI=1S/C4H8O/c1-2-4-5-3-1/h1-4H2, purity 99%
Compound 3: 2-methyltetrahydrofuran, C5H10O, InChI=1S/C5H10O/c1-5-3-2-4-6-5/h5H,2-4H2,1H3, purity 99%
Compound 4: octane, C8H18, InChI=1S/C8H18/c1-3-5-7-8-6-4-2/h3-8H2,1-2H3, purity 99%

System: 2-methoxy-2-methylpropane; phases: Liquid
Property: Mass density, kg/m3 (Liquid); method: VIBTUB:UFactor:4
Temperature, K	Pressure, kPa	Mass density, kg/m3	uncertainty
298.15	101.325	735.99	0.86

System: tetrahydrofuran; phases: Liquid
Property: Mass density, kg/m3 (Liquid); method: VIBTUB:UFactor:4
Temperature, K	Pressure, kPa	Mass density, kg/m3	uncertainty
298.15	101.325	882.09	0.64

System: 2-methyltetrahydrofuran; phases: Liquid
Property: Mass density, kg/m3 (Liquid); method: VIBTUB:UFactor:4
Temperature, K	Pressure, kPa	Mass density, kg/m3	uncertainty
298.15	101.325	848.1	0.73

System: octane; phases: Liquid
Property: Mass density, kg/m3 (Liquid); method: VIBTUB:UFactor:4
Temperature, K	Pressure, kPa	Mass density, kg/m3	uncertainty
298.15	101.325	698.73	0.86

System: tetrahydrofuran + octane + 2-methoxy-2-methylpropane; phases: Liquid
Fixed: Temperature, K = 298.15
Fixed: Pressure, kPa = 101
Property: Excess molar enthalpy (molar enthalpy of mixing), kJ/mol (Liquid); method: Flow calorimetry
Mole fraction of tetrahydrofuran	Solvent: Amount ratio of component to other component of binary solvent of 2-methoxy-2-methylpropane	Excess molar enthalpy (molar enthalpy of mixing), kJ/mol	uncertainty
0.0499	0.9996	0.05465	0.00166
0.0499	3.0003	0.04018	0.00128
0.0501	0.3333	0.10464	0.00274
0.0999	0.9996	0.13128	0.00249
0.1001	0.3333	0.20871	0.00354
0.1004	3.0003	0.07404	0.00159
0.15	0.9996	0.18843	0.00299
0.15	3.0003	0.10764	0.00193
0.1537	0.3333	0.29531	0.00434
0.2	0.3333	0.35933	0.00503
0.2002	0.9996	0.23821	0.0035
0.2005	3.0003	0.13601	0.00221
0.2498	0.3333	0.42498	0.00578
0.25	0.9996	0.2812	0.00398
0.2501	3.0003	0.15813	0.00246
0.3001	0.3333	0.48253	0.00643
0.3003	0.9996	0.31736	0.00439
0.3005	3.0003	0.18015	0.00271
0.3496	3.0003	0.19568	0.00288
0.3498	0.3333	0.52589	0.00692
0.3498	0.9996	0.34647	0.00472
0.399	0.3333	0.56127	0.00734
0.3991	0.9996	0.36858	0.00497
0.4007	3.0003	0.20999	0.00305
0.4493	0.3333	0.58509	0.00761
0.4493	3.0003	0.21724	0.00313
0.4504	0.9996	0.38592	0.00518
0.4988	3.0003	0.2242	0.00321
0.4999	0.3333	0.5927	0.0077
0.5008	0.9996	0.39591	0.00529
0.5496	0.3333	0.60035	0.00779
0.5496	0.9996	0.39779	0.00531
0.5525	3.0003	0.22402	0.00321
0.5999	0.3333	0.59102	0.00768
0.6002	0.9996	0.38939	0.00522
0.6002	3.0003	0.22024	0.00316
0.6498	0.3333	0.56931	0.00743
0.6498	3.0003	0.21167	0.00307
0.6504	0.9996	0.37312	0.00503
0.6998	0.3333	0.53409	0.00703
0.7001	0.9996	0.35084	0.00477
0.7003	3.0003	0.19707	0.0029
0.7498	0.3333	0.48534	0.00648
0.7502	0.9996	0.31893	0.00442
0.7513	3.0003	0.17714	0.00268
0.7987	3.0003	0.15429	0.00243
0.7998	0.3333	0.42077	0.00577
0.8003	0.9996	0.27746	0.00397
0.8498	0.9996	0.22484	0.00342
0.85	0.3333	0.34599	0.00499
0.8514	3.0003	0.12218	0.0021
0.8988	3.0003	0.08718	0.00174
0.9001	0.3333	0.24868	0.00409
0.9003	0.9996	0.16231	0.00284
0.9497	3.0003	0.05188	0.00138
0.95	0.9996	0.08487	0.00196
0.9501	0.3333	0.13517	0.00312

System: 2-methyltetrahydrofuran + octane + 2-methoxy-2-methylpropane; phases: Liquid
Fixed: Temperature, K = 298.15
Fixed: Pressure, kPa = 101
Property: Excess molar enthalpy (molar enthalpy of mixing), kJ/mol (Liquid); method: Flow calorimetry
Mole fraction of 2-methyltetrahydrofuran	Solvent: Amount ratio of component to other component of binary solvent of 2-methoxy-2-methylpropane	Excess molar enthalpy (molar enthalpy of mixing), kJ/mol	uncertainty
0.05	0.3333	0.06556	0.00195
0.05	3.0003	0.01759	0.00099
0.0501	0.9996	0.04404	0.00126
0.0999	0.3333	0.1361	0.00251
0.0999	3.0003	0.0363	0.00112
0.1	0.9996	0.07928	0.00166
0.1497	0.3333	0.1943	0.00306
0.15	0.9996	0.11486	0.00201
0.1503	3.0003	0.05252	0.00124
0.1996	0.9996	0.14365	0.00231
0.2	3.0003	0.06635	0.00138
0.2004	0.3333	0.2466	0.00361
0.2496	0.3333	0.2902	0.0041
0.2496	3.0003	0.07813	0.0015
0.2506	0.9996	0.17085	0.00261
0.3	0.3333	0.32987	0.00454
0.3003	3.0003	0.08797	0.00161
0.3006	0.9996	0.1924	0.00285
0.3502	0.9996	0.2093	0.00307
0.3505	3.0003	0.09609	0.0017
0.3645	0.3333	0.36467	0.00494
0.3998	0.3333	0.37944	0.00511
0.3999	0.9996	0.22151	0.00319
0.4	3.0003	0.10182	0.00176
0.4496	3.0003	0.10503	0.00179
0.4499	0.9996	0.23324	0.00332
0.4506	0.3333	0.39864	0.00533
0.4998	0.3333	0.40142	0.00536
0.5001	3.0003	0.1072	0.00182
0.5002	0.9996	0.23426	0.00333
0.5498	0.3333	0.40325	0.00538
0.5502	0.9996	0.23423	0.00333
0.5512	3.0003	0.107	0.00182
0.5999	3.0003	0.1041	0.00178
0.6003	0.3333	0.39537	0.00529
0.6004	0.9996	0.22945	0.00328
0.6488	0.3333	0.37879	0.00511
0.6501	0.9996	0.21948	0.00316
0.6504	3.0003	0.09938	0.00173
0.6994	3.0003	0.09207	0.00165
0.6996	0.9996	0.20448	0.00299
0.7006	0.3333	0.35171	0.0048
0.7503	0.3333	0.31719	0.00441
0.7503	0.9996	0.18307	0.00275
0.7506	3.0003	0.08204	0.00154
0.7995	3.0003	0.07087	0.00143
0.8001	0.9996	0.15863	0.00249
0.8011	0.3333	0.27356	0.00393
0.8472	3.0003	0.05703	0.00129
0.8501	0.3333	0.22085	0.00339
0.8502	0.9996	0.12728	0.00216
0.8966	0.3333	0.15987	0.0028
0.8998	0.9996	0.09148	0.00183
0.9005	3.0003	0.03941	0.00114
0.9499	0.9996	0.04855	0.00131
0.95	0.3333	0.0841	0.0021
0.95	3.0003	0.02067	0.00101
