Measured thermophysical data. Volume-related properties of thiophene and furan-2-carboxaldehyde phenylhydrazone derivatives in DMSO: A discussion about non-intrinsic contribution
Source: J. Chem. Thermodyn., 2015, 10.1016/j.jct.2015.01.016
Compound 1: dimethyl sulfoxide, C2H6OS, InChI=1S/C2H6OS/c1-4(2)3/h1-2H3, purity 99.97%
Compound 2: benzene, C6H6, InChI=1S/C6H6/c1-2-4-6-5-3-1/h1-6H, purity 99.8%
Compound 3: furan-2-carboxaldehyde-phenylhydrazone, C11H10N2O, InChI=1S/C11H10N2O/c1-2-5-10(6-3-1)13-12-9-11-7-4-8-14-11/h1-9,13H/b12-9+, purity 99%
Compound 4: 1-(furan-2-ylmethylene)-2-(4-nitrophenyl)hydrazine, C11H9N3O3, InChI=1S/C11H9N3O3/c15-14(16)10-5-3-9(4-6-10)13-12-8-11-2-1-7-17-11/h1-8,13H, purity 99%
Compound 5: 1-(2,4-dinitrophenyl)-2-(furan-2-ylmethylene)hydrazine, C11H8N4O5, InChI=1S/C11H8N4O5/c16-14(17)8-3-4-10(11(6-8)15(18)19)13-12-7-9-2-1-5-20-9/h1-7,13H, purity 99%
Compound 6: 2-thiophenecarboxaldehyde phenylhydrazone, C11H10N2S, InChI=1S/C11H10N2S/c1-2-5-10(6-3-1)13-12-9-11-7-4-8-14-11/h1-9,13H, purity 99%
Compound 7: 1-(4-nitrophenyl)-2-(thiophen-2-ylmethylene)hydrazine, C11H9N3O2S, InChI=1S/C11H9N3O2S/c15-14(16)10-5-3-9(4-6-10)13-12-8-11-2-1-7-17-11/h1-8,13H, purity 99%
Compound 8: 1-(2,4-dinitrophenyl)-2-(thiophen-2-ylmethylene)hydrazine, C11H8N4O4S, InChI=1S/C11H8N4O4S/c16-14(17)8-3-4-10(11(6-8)15(18)19)13-12-7-9-2-1-5-20-9/h1-7,13H, purity 99%

System: dimethyl sulfoxide; phases: Liquid
Fixed: Temperature, K = 293.15
Fixed: Pressure, kPa = 100.31
Property: Refractive index (other wavelength) (Liquid); method: Standard Abbe refractometry
Wavelength, nm	Refractive index (other wavelength)	uncertainty
657.7	1.47595	0.00031
589.6	1.47775	0.00031

System: dimethyl sulfoxide; phases: Liquid
Property: Mass density, kg/m3 (Liquid); method: Vibrating tube method
Pressure, kPa	Temperature, K	Mass density, kg/m3	uncertainty
100.31	293.15	1100.56	0.12

System: benzene; phases: Liquid
Property: Mass density, kg/m3 (Liquid); method: Vibrating tube method
Temperature, K	Pressure, kPa	Mass density, kg/m3	uncertainty
293.15	101.325	879.01	0.13

System: benzene; phases: Liquid
Fixed: Temperature, K = 293.15
Fixed: Pressure, kPa = 100.31
Property: Refractive index (other wavelength) (Liquid); method: Standard Abbe refractometry
Wavelength, nm	Refractive index (other wavelength)	uncertainty
657.7	1.49639	0.00032
589.6	1.50111	0.00032

System: dimethyl sulfoxide + furan-2-carboxaldehyde-phenylhydrazone; phases: Liquid
Fixed: Pressure, kPa = 100.31
Fixed: Temperature, K = 293.15
Property: Mass density, kg/m3 (Liquid); method: Vibrating tube method
Mass fraction of furan-2-carboxaldehyde-phenylhydrazone	Mass density, kg/m3	uncertainty
0	1100.56	0.12
0.0009	1100.62	0.12
0.00179	1100.65	0.12
0.0036	1100.74	0.12
0.0054	1100.85	0.12
0.00719	1100.99	0.12

System: dimethyl sulfoxide + furan-2-carboxaldehyde-phenylhydrazone; phases: Liquid
Fixed: Pressure, kPa = 100.31
Fixed: Temperature, K = 293.15
Fixed: Wavelength, nm = 657.7
Property: Refractive index (other wavelength) (Liquid); method: Standard Abbe refractometry
Mass fraction of furan-2-carboxaldehyde-phenylhydrazone	Refractive index (other wavelength)	uncertainty
0	1.47595	0.00031
0.000737	1.47614	0.00031
0.00158	1.47627	0.00031
0.00289	1.47655	0.00031
0.0047	1.47694	0.00031
0.00592	1.47718	0.00031

System: dimethyl sulfoxide + 1-(furan-2-ylmethylene)-2-(4-nitrophenyl)hydrazine; phases: Liquid
Fixed: Pressure, kPa = 100.31
Fixed: Temperature, K = 293.15
Property: Mass density, kg/m3 (Liquid); method: Vibrating tube method
Mass fraction of 1-(furan-2-ylmethylene)-2-(4-nitrophenyl)hydrazine	Mass density, kg/m3	uncertainty
0	1100.56	0.12
0.000737	1100.73	0.12
0.00148	1100.86	0.12
0.00296	1101.1	0.12
0.00443	1101.38	0.12
0.0059	1101.65	0.12

System: dimethyl sulfoxide + 1-(furan-2-ylmethylene)-2-(4-nitrophenyl)hydrazine; phases: Liquid
Fixed: Pressure, kPa = 100.31
Fixed: Temperature, K = 293.15
Fixed: Wavelength, nm = 657.7
Property: Refractive index (other wavelength) (Liquid); method: Standard Abbe refractometry
Mass fraction of 1-(furan-2-ylmethylene)-2-(4-nitrophenyl)hydrazine	Refractive index (other wavelength)	uncertainty
0	1.47595	0.00031
0.000831	1.4763	0.00031
0.00146	1.47649	0.00031
0.00321	1.47703	0.00031
0.00451	1.47756	0.00031
0.00586	1.47803	0.00031

System: dimethyl sulfoxide + 1-(2,4-dinitrophenyl)-2-(furan-2-ylmethylene)hydrazine; phases: Liquid
Fixed: Pressure, kPa = 100.31
Fixed: Temperature, K = 293.15
Property: Mass density, kg/m3 (Liquid); method: Vibrating tube method
Mass fraction of 1-(2,4-dinitrophenyl)-2-(furan-2-ylmethylene)hydrazine	Mass density, kg/m3	uncertainty
0	1100.56	0.12
0.000248	1100.62	0.12
0.000622	1100.72	0.12
0.00123	1100.87	0.12
0.00188	1101.04	0.12
0.00249	1101.18	0.12

System: dimethyl sulfoxide + 1-(2,4-dinitrophenyl)-2-(furan-2-ylmethylene)hydrazine; phases: Liquid
Fixed: Pressure, kPa = 100.31
Fixed: Temperature, K = 293.15
Fixed: Wavelength, nm = 657.7
Property: Refractive index (other wavelength) (Liquid); method: Standard Abbe refractometry
Mass fraction of 1-(2,4-dinitrophenyl)-2-(furan-2-ylmethylene)hydrazine	Refractive index (other wavelength)	uncertainty
0	1.47595	0.00031
0.000594	1.47609	0.00031
0.0012	1.47625	0.00031
0.00182	1.47642	0.00031
0.00243	1.47655	0.00031
0.00314	1.47671	0.00031

System: dimethyl sulfoxide + 2-thiophenecarboxaldehyde phenylhydrazone; phases: Liquid
Fixed: Pressure, kPa = 100.31
Fixed: Temperature, K = 293.15
Property: Mass density, kg/m3 (Liquid); method: Vibrating tube method
Mass fraction of 2-thiophenecarboxaldehyde phenylhydrazone	Mass density, kg/m3	uncertainty
0	1100.56	0.12
0.000761	1100.62	0.12
0.00152	1100.72	0.12
0.00305	1100.82	0.12
0.00456	1100.95	0.12
0.00608	1101.08	0.12

System: dimethyl sulfoxide + 2-thiophenecarboxaldehyde phenylhydrazone; phases: Liquid
Fixed: Pressure, kPa = 100.31
Fixed: Temperature, K = 293.15
Fixed: Wavelength, nm = 657.7
Property: Refractive index (other wavelength) (Liquid); method: Standard Abbe refractometry
Mass fraction of 2-thiophenecarboxaldehyde phenylhydrazone	Refractive index (other wavelength)	uncertainty
0	1.47595	0.00031
0.000761	1.47608	0.00031
0.00152	1.47627	0.00031
0.00305	1.47674	0.00031
0.00456	1.47711	0.00031
0.00608	1.47742	0.00031

System: dimethyl sulfoxide + 1-(4-nitrophenyl)-2-(thiophen-2-ylmethylene)hydrazine; phases: Liquid
Fixed: Pressure, kPa = 100.31
Fixed: Temperature, K = 293.15
Property: Mass density, kg/m3 (Liquid); method: Vibrating tube method
Mass fraction of 1-(4-nitrophenyl)-2-(thiophen-2-ylmethylene)hydrazine	Mass density, kg/m3	uncertainty
0	1100.56	0.12
0.000851	1100.73	0.12
0.0017	1100.9	0.12
0.00341	1101.23	0.12
0.0051	1101.55	0.12
0.0068	1101.89	0.12

System: dimethyl sulfoxide + 1-(4-nitrophenyl)-2-(thiophen-2-ylmethylene)hydrazine; phases: Liquid
Fixed: Pressure, kPa = 100.31
Fixed: Temperature, K = 293.15
Fixed: Wavelength, nm = 657.7
Property: Refractive index (other wavelength) (Liquid); method: Standard Abbe refractometry
Mass fraction of 1-(4-nitrophenyl)-2-(thiophen-2-ylmethylene)hydrazine	Refractive index (other wavelength)	uncertainty
0	1.47596	0.00031
0.000851	1.47621	0.00031
0.0017	1.47648	0.00031
0.00341	1.47711	0.00031
0.0051	1.47751	0.00031
0.0068	1.4782	0.00031

System: dimethyl sulfoxide + 1-(2,4-dinitrophenyl)-2-(thiophen-2-ylmethylene)hydrazine; phases: Liquid
Fixed: Pressure, kPa = 100.31
Fixed: Temperature, K = 293.15
Property: Mass density, kg/m3 (Liquid); method: Vibrating tube method
Mass fraction of 1-(2,4-dinitrophenyl)-2-(thiophen-2-ylmethylene)hydrazine	Mass density, kg/m3	uncertainty
0	1100.56	0.12
0.000212	1100.64	0.12
0.000422	1100.7	0.12
0.000844	1100.81	0.12
0.00127	1100.92	0.12
0.00169	1101.04	0.12

System: dimethyl sulfoxide + 1-(2,4-dinitrophenyl)-2-(thiophen-2-ylmethylene)hydrazine; phases: Liquid
Fixed: Pressure, kPa = 100.31
Fixed: Temperature, K = 293.15
Fixed: Wavelength, nm = 657.7
Property: Refractive index (other wavelength) (Liquid); method: Standard Abbe refractometry
Mass fraction of 1-(2,4-dinitrophenyl)-2-(thiophen-2-ylmethylene)hydrazine	Refractive index (other wavelength)	uncertainty
0	1.47595	0.00031
0.000212	1.47598	0.00031
0.000422	1.47602	0.00031
0.000844	1.47613	0.00031
0.00127	1.47623	0.00031
0.00169	1.47634	0.00031
