Measured thermophysical data. Physical properties of (propyl propanoate + hexane + toluene) at 298.15 K
Source: J. Chem. Thermodyn., 2007, 10.1016/j.jct.2006.08.011
Compound 1: propyl propanoate, C6H12O2, InChI=1S/C6H12O2/c1-3-5-8-6(7)4-2/h3-5H2,1-2H3, purity 99%
Compound 2: hexane, C6H14, InChI=1S/C6H14/c1-3-5-6-4-2/h3-6H2,1-2H3, purity 99.5%
Compound 3: toluene, C7H8, InChI=1S/C7H8/c1-7-5-3-2-4-6-7/h2-6H,1H3, purity 99.8%

System: propyl propanoate; phases: Liquid
Property: Refractive index (Na D-line) (Liquid); method: Standard Abbe refractometry
Temperature, K	Pressure, kPa	Refractive index (Na D-line)	uncertainty
298.15	101.325	1.3906	0.0004

System: propyl propanoate; phases: Liquid
Property: Mass density, kg/m3 (Liquid); method: VIBTUB:UFactor:6
Temperature, K	Pressure, kPa	Mass density, kg/m3	uncertainty
298.15	101.325	875.48	0.64

System: hexane; phases: Liquid
Property: Refractive index (Na D-line) (Liquid); method: Standard Abbe refractometry
Temperature, K	Pressure, kPa	Refractive index (Na D-line)	uncertainty
298.15	101.325	1.3723	0.0004

System: hexane; phases: Liquid
Property: Mass density, kg/m3 (Liquid); method: VIBTUB:UFactor:4
Temperature, K	Pressure, kPa	Mass density, kg/m3	uncertainty
298.15	101.325	654.68	0.7

System: toluene; phases: Liquid
Property: Refractive index (Na D-line) (Liquid); method: Standard Abbe refractometry
Temperature, K	Pressure, kPa	Refractive index (Na D-line)	uncertainty
298.15	101.325	1.4941	0.0004

System: toluene; phases: Liquid
Property: Mass density, kg/m3 (Liquid); method: VIBTUB:UFactor:2
Temperature, K	Pressure, kPa	Mass density, kg/m3	uncertainty
298.15	101.325	862.11	0.18

System: propyl propanoate + toluene; phases: Liquid
Fixed: Temperature, K = 298.15
Fixed: Pressure, kPa = 101
Property: Excess molar enthalpy (molar enthalpy of mixing), kJ/mol (Liquid); method: CALVET:UFactor:4
Mole fraction of propyl propanoate	Excess molar enthalpy (molar enthalpy of mixing), kJ/mol	uncertainty
0.0547	-0.0427	0.0044
0.1357	-0.0932	0.006
0.1718	-0.1099	0.0065
0.2389	-0.1404	0.0074
0.2823	-0.1527	0.0078
0.3263	-0.1668	0.0083
0.3957	-0.1763	0.0086
0.4277	-0.176	0.0086
0.5486	-0.1583	0.008
0.5841	-0.151	0.0078
0.6522	-0.1374	0.0074
0.709	-0.1227	0.0069
0.7394	-0.1135	0.0066
0.8031	-0.0954	0.0061
0.8568	-0.0766	0.0055
0.892	-0.0547	0.0048
0.9577	-0.0244	0.0039

System: propyl propanoate + toluene; phases: Liquid
Fixed: Pressure, kPa = 101.3
Fixed: Temperature, K = 298.15
Property: Refractive index (Na D-line) (Liquid); method: Standard Abbe refractometry
Mole fraction of propyl propanoate	Refractive index (Na D-line)	uncertainty
0.0625	1.4858	0.0007
0.1072	1.4803	0.0007
0.1826	1.4712	0.0007
0.2232	1.4665	0.0007
0.2747	1.4605	0.0007
0.3426	1.4529	0.0007
0.4514	1.4411	0.0007
0.4907	1.437	0.0007
0.5441	1.4316	0.0007
0.5833	1.4277	0.0007
0.6451	1.4218	0.0007
0.7066	1.416	0.0007
0.7346	1.4135	0.0007
0.7898	1.4085	0.0007
0.8508	1.4031	0.0007
0.9037	1.3986	0.0007
0.956	1.3942	0.0007

System: propyl propanoate + toluene; phases: Liquid
Fixed: Pressure, kPa = 101.3
Fixed: Temperature, K = 298.15
Property: Mass density, kg/m3 (Liquid); method: VIBTUB:UFactor:4
Mole fraction of propyl propanoate	Mass density, kg/m3	uncertainty
0.0625	863.5	0.35
0.1072	864.46	0.35
0.1826	865.94	0.35
0.2232	866.69	0.36
0.2747	867.57	0.36
0.3426	868.66	0.37
0.4514	870.21	0.38
0.4907	870.73	0.38
0.5441	871.41	0.39
0.5833	871.86	0.39
0.6451	872.53	0.4
0.7066	873.14	0.41
0.7346	873.41	0.42
0.7898	873.9	0.43
0.8508	874.42	0.44
0.9037	874.81	0.45
0.956	875.2	0.46

System: toluene + hexane; phases: Liquid
Fixed: Temperature, K = 298.15
Fixed: Pressure, kPa = 101
Property: Excess molar enthalpy (molar enthalpy of mixing), kJ/mol (Liquid); method: CALVET:UFactor:2
Mole fraction of hexane	Excess molar enthalpy (molar enthalpy of mixing), kJ/mol	uncertainty
0.0525	0.1231	0.004
0.0957	0.2123	0.0061
0.1586	0.3163	0.0086
0.2119	0.3913	0.0105
0.2672	0.4567	0.0121
0.3135	0.4938	0.013
0.3766	0.5284	0.0138
0.4264	0.5433	0.0142
0.4723	0.5467	0.0143
0.5414	0.5343	0.014
0.6641	0.4799	0.0126
0.6927	0.4556	0.012
0.7484	0.393	0.0105
0.8045	0.326	0.0089
0.8657	0.2411	0.0068
0.9023	0.1832	0.0054

System: toluene + hexane; phases: Liquid
Fixed: Pressure, kPa = 101.3
Fixed: Temperature, K = 298.15
Property: Refractive index (Na D-line) (Liquid); method: Standard Abbe refractometry
Mole fraction of hexane	Refractive index (Na D-line)	uncertainty
0.0543	1.486	0.0007
0.0958	1.4801	0.0007
0.1667	1.4701	0.0007
0.2129	1.4637	0.0007
0.2818	1.4541	0.0007
0.3261	1.4482	0.0007
0.3762	1.4417	0.0007
0.4262	1.4353	0.0007
0.4769	1.429	0.0007
0.5136	1.4246	0.0007
0.5742	1.4174	0.0007
0.6327	1.4107	0.0007
0.6862	1.4047	0.0007
0.7402	1.3987	0.0007
0.7958	1.3927	0.0007
0.8548	1.3866	0.0007
0.9106	1.381	0.0007
0.9409	1.378	0.0007

System: toluene + hexane; phases: Liquid
Fixed: Pressure, kPa = 101
Fixed: Temperature, K = 298.15
Property: Mass density, kg/m3 (Liquid); method: VIBTUB:UFactor:4
Mole fraction of hexane	Mass density, kg/m3	uncertainty
0.0524	848.99	0.37
0.0926	839.12	0.39
0.1636	822.1	0.41
0.2011	813.3	0.43
0.2475	802.64	0.45
0.3184	786.7	0.48
0.4088	767.06	0.51
0.4739	753.36	0.53
0.5096	746	0.55
0.5734	733.08	0.56
0.6086	726.13	0.57
0.6754	713.16	0.59
0.7338	702.09	0.61
0.7827	693.01	0.62
0.8426	682.13	0.64
0.9055	670.97	0.66
0.9323	666.29	0.67

System: propyl propanoate + toluene + hexane; phases: Liquid
Fixed: Pressure, kPa = 101.3
Fixed: Temperature, K = 298.15
Property: Excess molar enthalpy (molar enthalpy of mixing), kJ/mol (Liquid); method: CALVET:UFactor:2
Mole fraction of propyl propanoate	Mole fraction of hexane	Excess molar enthalpy (molar enthalpy of mixing), kJ/mol	uncertainty
0.0074	0.0415	0.0952	0.0034
0.0161	0.0375	0.079	0.003
0.0233	0.1317	0.2713	0.0076
0.0241	0.0249	0.0479	0.0023
0.0286	0.019	0.0229	0.0019
0.0373	0.0123	0.0028	0.0016
0.0401	0.2265	0.4093	0.0109
0.046	0.1069	0.2048	0.0059
0.047	0.0051	-0.0196	0.0019
0.0569	0.3208	0.5043	0.0132
0.0682	0.0832	0.1469	0.0046
0.074	0.4173	0.5542	0.0144
0.0782	0.1818	0.3209	0.0088
0.0887	0.5004	0.5984	0.0155
0.0905	0.0601	0.0865	0.0032
0.1059	0.5978	0.6374	0.0165
0.1118	0.037	0.0207	0.0019
0.1122	0.2608	0.4231	0.0112
0.1209	0.1474	0.2529	0.0071
0.1376	0.015	-0.05	0.0023
0.1466	0.3408	0.5088	0.0133
0.1551	0.1031	0.1568	0.0048
0.1717	0.2093	0.3508	0.0095
0.1815	0.422	0.5843	0.0152
0.1989	0.0659	0.0579	0.0025
0.2123	0.4938	0.6303	0.0163
0.2156	0.2629	0.4296	0.0114
0.2178	0.1447	0.2212	0.0063
0.235	0.0255	-0.0633	0.0026
0.2392	0.5562	0.6704	0.0173
0.268	0.3267	0.5148	0.0135
0.2695	0.6267	0.7097	0.0182
0.2714	0.0899	0.1039	0.0036
0.2859	0.19	0.299	0.0082
0.3159	0.3852	0.5975	0.0155
0.3279	0.0356	-0.0523	0.0024
0.3511	0.2333	0.3931	0.0105
0.3571	0.1183	0.1608	0.0049
0.3605	0.4395	0.6781	0.0175
0.404	0.4926	0.7537	0.0193
0.4197	0.2788	0.4952	0.013
0.4333	0.0471	-0.0238	0.0019
0.4435	0.1469	0.244	0.0069
0.4879	0.3242	0.6028	0.0156
0.5239	0.1735	0.3205	0.0087
0.5369	0.0584	0.0214	0.0019
0.5417	0.3599	0.6894	0.0177
0.6012	0.1991	0.4106	0.0109
0.6379	0.0693	0.0936	0.0033
0.6725	0.2228	0.4908	0.0129
0.7182	0.0781	0.1421	0.0045
0.8042	0.0874	0.1922	0.0056

System: propyl propanoate + toluene + hexane; phases: Liquid
Fixed: Pressure, kPa = 101.3
Fixed: Temperature, K = 298.15
Property: Refractive index (Na D-line) (Liquid); method: Standard Abbe refractometry
Mole fraction of propyl propanoate	Mole fraction of hexane	Refractive index (Na D-line)	uncertainty
0.0795	0.2455	1.4503	0.0004
0.0798	0.0638	1.4746	0.0004
0.0827	0.1527	1.4623	0.0004
0.0844	0.3992	1.4298	0.0004
0.0859	0.5004	1.4177	0.0004
0.0881	0.5583	1.4108	0.0004
0.0909	0.6564	1.3997	0.0004
0.0932	0.7154	1.3932	0.0004
0.0952	0.8472	1.3792	0.0004
0.146	0.6596	1.3943	0.0004
0.1518	0.769	1.3829	0.0004
0.1676	0.2352	1.4417	0.0004
0.1716	0.1549	1.4517	0.0004
0.1758	0.4785	1.4114	0.0004
0.1778	0.3025	1.4322	0.0004
0.1802	0.0599	1.4635	0.0004
0.1844	0.4078	1.4191	0.0004
0.1906	0.5602	1.4011	0.0004
0.2367	0.4058	1.4141	0.0004
0.2428	0.3366	1.4213	0.0004
0.2488	0.5632	1.3955	0.0004
0.2549	0.486	1.4033	0.0004
0.2576	0.69	1.3815	0.0004
0.2602	0.1522	1.4423	0.0004
0.2653	0.0787	1.4513	0.0004
0.2844	0.1995	1.4339	0.0004
0.3292	0.1501	1.4353	0.0004
0.3339	0.3052	1.4165	0.0004
0.3449	0.4142	1.4029	0.0004
0.3466	0.4656	1.397	0.0004
0.35	0.0672	1.4437	0.0004
0.3549	0.5878	1.3836	0.0004
0.355	0.2109	1.4252	0.0004
0.4179	0.0728	1.4358	0.0004
0.42	0.3966	1.3983	0.0004
0.4352	0.1439	1.4255	0.0004
0.4415	0.1993	1.4183	0.0004
0.4428	0.311	1.4056	0.0004
0.4544	0.4744	1.3869	0.0004
0.4946	0.3037	1.4017	0.0004
0.5155	0.0773	1.4256	0.0004
0.5371	0.3912	1.3885	0.0004
0.5444	0.1987	1.4088	0.0004
0.5572	0.0573	1.4237	0.0004
0.5692	0.077	1.4204	0.0004
0.5989	0.2055	1.4031	0.0004
0.6103	0.3124	1.3907	0.0004
0.6134	0.1242	1.4109	0.0004
0.6796	0.0688	1.4111	0.0004
0.698	0.1086	1.4049	0.0004
0.7086	0.2141	1.3926	0.0004
0.7398	0.0723	1.4052	0.0004
0.7886	0.129	1.3948	0.0004
0.8691	0.0766	1.3933	0.0004

System: propyl propanoate + toluene + hexane; phases: Liquid
Fixed: Pressure, kPa = 101.3
Fixed: Temperature, K = 298.15
Property: Mass density, kg/m3 (Liquid); method: VIBTUB:UFactor:4
Mole fraction of propyl propanoate	Mole fraction of hexane	Mass density, kg/m3	uncertainty
0.0694	0.744	702.89	0.61
0.0702	0.8322	686.79	0.64
0.0837	0.1614	824.89	0.42
0.0846	0.0744	845.61	0.38
0.0873	0.4931	752.54	0.53
0.0876	0.3145	790.38	0.47
0.0879	0.2286	809.58	0.44
0.0887	0.5665	737.75	0.56
0.093	0.3992	772.29	0.5
0.1594	0.3314	788.82	0.48
0.1639	0.4037	773.51	0.51
0.1651	0.4888	756.02	0.53
0.1699	0.6468	724.98	0.59
0.1703	0.5618	741.56	0.56
0.1712	0.7312	709.15	0.61
0.1749	0.1553	828.63	0.42
0.1781	0.0561	852.19	0.38
0.1818	0.2348	810.71	0.45
0.237	0.0767	848.46	0.39
0.2449	0.5689	742.6	0.56
0.248	0.6561	725.95	0.59
0.2494	0.148	832.03	0.42
0.2524	0.4055	775.81	0.51
0.2526	0.2345	812.57	0.45
0.2572	0.315	795.1	0.48
0.2584	0.4823	760.22	0.54
0.3297	0.4942	760	0.55
0.3307	0.3124	797.56	0.48
0.3332	0.0791	849.72	0.4
0.3342	0.395	780.3	0.51
0.3386	0.2398	813.46	0.46
0.3444	0.1476	834.18	0.43
0.4127	0.4006	781.22	0.52
0.418	0.1532	834.33	0.43
0.4191	0.2336	816.58	0.46
0.4194	0.4837	764.64	0.55
0.4198	0.0788	851.32	0.41
0.426	0.3071	800.98	0.49
0.4964	0.153	835.81	0.44
0.4974	0.0758	853.23	0.41
0.5049	0.2232	820.55	0.47
0.5059	0.31	802.12	0.5
0.5841	0.0647	856.97	0.42
0.5882	0.2288	820.89	0.48
0.5934	0.3096	804.08	0.51
0.6106	0.1475	838.95	0.45
0.6705	0.2383	820.39	0.5
0.6923	0.1297	844.01	0.46
0.7554	0.1491	840.68	0.48
0.76	0.0568	860.92	0.45
