Measured thermophysical data. Viscosity of aqueous solutions of 2-methoxyethanol, 2-ethoxyethanol, and ethanolamine
Source: J. Chem. Thermodyn., 2004, 10.1016/j.jct.2004.06.004
Compound 1: water, H2O, InChI=1S/H2O/h1H2
Compound 2: 2-methoxyethan-1-ol, C3H8O2, InChI=1S/C3H8O2/c1-5-3-2-4/h4H,2-3H2,1H3
Compound 3: 2-ethoxyethan-1-ol, C4H10O2, InChI=1S/C4H10O2/c1-2-6-4-3-5/h5H,2-4H2,1H3
Compound 4: 2-aminoethan-1-ol, C2H7NO, InChI=1S/C2H7NO/c3-1-2-4/h4H,1-3H2

System: 2-methoxyethan-1-ol; phases: Liquid
Property: Mass density, kg/m3 (Liquid); method: PYCNOM:UFactor:2
Temperature, K	Pressure, kPa	Mass density, kg/m3	uncertainty
293.15	101.325	965.2	0.5

System: 2-methoxyethan-1-ol; phases: Liquid
Property: Viscosity, Pa*s (Liquid); method: Capillary tube (Ostwald; Ubbelohde) method
Temperature, K	Pressure, kPa	Viscosity, Pa*s	uncertainty
293.15	101.325	0.001991	1.5e-05

System: 2-methoxyethan-1-ol; phases: Liquid
Fixed: Pressure, kPa = 101.3
Property: Viscosity, Pa*s (Liquid); method: CAPTUB:UFactor:4
Temperature, K	Viscosity, Pa*s	uncertainty
293.15	0.001991	4e-05
303.15	0.001375	3.3e-05
308.15	0.001126	2.7e-05
313.15	0.000942	2.3e-05
318.15	0.000832	2.1e-05
323.15	0.000757	1.9e-05

System: 2-ethoxyethan-1-ol; phases: Liquid
Property: Mass density, kg/m3 (Liquid); method: PYCNOM:UFactor:2
Temperature, K	Pressure, kPa	Mass density, kg/m3	uncertainty
293.15	101.325	929.7	0.4

System: 2-ethoxyethan-1-ol; phases: Liquid
Fixed: Pressure, kPa = 101.3
Property: Viscosity, Pa*s (Liquid); method: CAPTUB:UFactor:4
Temperature, K	Viscosity, Pa*s	uncertainty
293.15	0.002077	4.5e-05
303.15	0.001612	3.8e-05
308.15	0.001413	3.4e-05
313.15	0.00124	3e-05
318.15	0.001166	2.8e-05
323.15	0.001026	2.5e-05

System: 2-aminoethan-1-ol; phases: Liquid
Property: Mass density, kg/m3 (Liquid); method: Pycnometric method
Temperature, K	Pressure, kPa	Mass density, kg/m3	uncertainty
293.15	101.325	1012.1	0.5

System: 2-aminoethan-1-ol; phases: Liquid
Fixed: Pressure, kPa = 101.3
Property: Viscosity, Pa*s (Liquid); method: CAPTUB:UFactor:4
Temperature, K	Viscosity, Pa*s	uncertainty
298.15	0.01891	0.0003
303.15	0.01471	0.00026
308.15	0.01182	0.00022
313.15	0.00927	0.00018
318.15	0.00752	0.00015
323.15	0.00621	0.00013

System: 2-methoxyethan-1-ol + water; phases: Liquid
Fixed: Pressure, kPa = 101.3
Property: Viscosity, Pa*s (Liquid); method: CAPTUB:UFactor:4
Temperature, K	Mole fraction of 2-methoxyethan-1-ol	Viscosity, Pa*s	uncertainty
303.15	0	0.0007975	2.03e-05
303.15	0.0247	0.00108	2.6e-05
303.15	0.05399	0.001353	3.2e-05
303.15	0.08909	0.001656	3.9e-05
303.15	0.13208	0.001979	4.6e-05
303.15	0.18578	0.002247	5.1e-05
303.15	0.25507	0.002396	5.4e-05
303.15	0.34747	0.002418	5.5e-05
303.15	0.47726	0.002296	5.2e-05
303.15	0.67256	0.001825	4.2e-05
303.15	1	0.001375	3.3e-05
308.15	0	0.0007195	1.87e-05
308.15	0.0247	0.000953	2.4e-05
308.15	0.05399	0.001165	2.8e-05
308.15	0.08909	0.001459	3.5e-05
308.15	0.13208	0.001652	3.9e-05
308.15	0.18578	0.001888	4.4e-05
308.15	0.25507	0.002016	4.6e-05
308.15	0.34747	0.002051	4.7e-05
308.15	0.47726	0.001941	4.5e-05
308.15	0.67256	0.001528	3.6e-05
308.15	1	0.001126	2.7e-05
313.15	0	0.0006532	1.72e-05
313.15	0.0247	0.000811	2.1e-05
313.15	0.05399	0.000985	2.4e-05
313.15	0.08909	0.001205	2.9e-05
313.15	0.13208	0.001367	3.3e-05
313.15	0.18578	0.001529	3.6e-05
313.15	0.25507	0.001668	3.9e-05
313.15	0.34747	0.001733	4e-05
313.15	0.47726	0.0016	3.8e-05
313.15	0.67256	0.001323	3.2e-05
313.15	1	0.000942	2.3e-05
318.15	0	0.0005963	1.6e-05
318.15	0.0247	0.000735	1.9e-05
318.15	0.05399	0.000885	2.2e-05
318.15	0.08909	0.001031	2.5e-05
318.15	0.13208	0.001176	2.8e-05
318.15	0.18578	0.001368	3.3e-05
318.15	0.25507	0.001457	3.4e-05
318.15	0.34747	0.00153	3.6e-05
318.15	0.47726	0.00141	3.3e-05
318.15	0.67256	0.001133	2.8e-05
318.15	1	0.000832	2.1e-05
323.15	0	0.0005471	1.49e-05
323.15	0.0247	0.000667	1.8e-05
323.15	0.05399	0.000796	2e-05
323.15	0.08909	0.000926	2.3e-05
323.15	0.13208	0.001056	2.6e-05
323.15	0.18578	0.001226	3e-05
323.15	0.25507	0.001322	3.2e-05
323.15	0.34747	0.001381	3.3e-05
323.15	0.47726	0.001258	3e-05
323.15	0.67256	0.00105	2.6e-05
323.15	1	0.000757	1.9e-05

System: 2-ethoxyethan-1-ol + water; phases: Liquid
Fixed: Pressure, kPa = 101.3
Property: Viscosity, Pa*s (Liquid); method: CAPTUB:UFactor:4
Temperature, K	Mole fraction of 2-ethoxyethan-1-ol	Viscosity, Pa*s	uncertainty
303.15	0	0.0007975	2.03e-05
303.15	0.0201	0.001046	2.6e-05
303.15	0.04419	0.001384	3.3e-05
303.15	0.07339	0.001709	4e-05
303.15	0.10979	0.002135	4.9e-05
303.15	0.15608	0.002516	5.7e-05
303.15	0.21718	0.002711	6.1e-05
303.15	0.30147	0.002858	6.4e-05
303.15	0.42517	0.002747	6.2e-05
303.15	0.62466	0.002266	5.2e-05
303.15	1	0.001612	3.8e-05
308.15	0	0.0007195	1.87e-05
308.15	0.0201	0.000924	2.3e-05
308.15	0.04419	0.001177	2.9e-05
308.15	0.07339	0.001472	3.5e-05
308.15	0.10979	0.001769	4.1e-05
308.15	0.15608	0.002057	4.7e-05
308.15	0.21718	0.002248	5.1e-05
308.15	0.30147	0.002329	5.3e-05
308.15	0.42517	0.0022	5e-05
308.15	0.62466	0.001951	4.5e-05
308.15	1	0.001413	3.4e-05
313.15	0	0.0006532	1.72e-05
313.15	0.0201	0.000814	2.1e-05
313.15	0.04419	0.001008	2.5e-05
313.15	0.07339	0.001238	3e-05
313.15	0.10979	0.001499	3.5e-05
313.15	0.15608	0.001711	4e-05
313.15	0.21718	0.001864	4.3e-05
313.15	0.30147	0.001947	4.5e-05
313.15	0.42517	0.001867	4.3e-05
313.15	0.62466	0.001676	3.9e-05
313.15	1	0.00124	3e-05
318.15	0	0.0005963	1.6e-05
318.15	0.0201	0.00071	1.8e-05
318.15	0.04419	0.000898	2.3e-05
318.15	0.07339	0.001108	2.7e-05
318.15	0.10979	0.001322	3.2e-05
318.15	0.15608	0.001521	3.6e-05
318.15	0.21718	0.001663	3.9e-05
318.15	0.30147	0.001723	4e-05
318.15	0.42517	0.001632	3.8e-05
318.15	0.62466	0.001516	3.6e-05
318.15	1	0.001166	2.8e-05
323.15	0	0.0005471	1.49e-05
323.15	0.0201	0.000651	1.7e-05
323.15	0.04419	0.000791	2e-05
323.15	0.07339	0.000958	2.4e-05
323.15	0.10979	0.001164	2.8e-05
323.15	0.15608	0.001339	3.2e-05
323.15	0.21718	0.00145	3.4e-05
323.15	0.30147	0.00155	3.6e-05
323.15	0.42517	0.001486	3.5e-05
323.15	0.62466	0.001361	3.2e-05
323.15	1	0.001026	2.5e-05

System: 2-aminoethan-1-ol + water; phases: Liquid
Fixed: Pressure, kPa = 101.3
Property: Viscosity, Pa*s (Liquid); method: CAPTUB:UFactor:4
Temperature, K	Mole fraction of 2-aminoethan-1-ol	Viscosity, Pa*s	uncertainty
303.15	0	0.0007975	8.19e-05
303.15	0.03219	0.001081	0.000111
303.15	0.06969	0.001448	0.000148
303.15	0.11378	0.002041	0.000209
303.15	0.16658	0.00293	0.0003
303.15	0.23057	0.00428	0.00044
303.15	0.31016	0.00627	0.00064
303.15	0.41156	0.00925	0.00094
303.15	0.54516	0.01242	0.00126
303.15	0.72956	0.01456	0.00148
303.15	1	0.01471	0.00149
308.15	0	0.0007195	7.4e-05
308.15	0.03219	0.000962	9.9e-05
308.15	0.06969	0.001282	0.000131
308.15	0.11378	0.001784	0.000183
308.15	0.16658	0.002513	0.000257
308.15	0.23057	0.00361	0.00037
308.15	0.31016	0.00523	0.00053
308.15	0.41156	0.0073	0.00074
308.15	0.54516	0.00975	0.00099
308.15	0.72956	0.01162	0.00118
308.15	1	0.01182	0.0012
313.15	0	0.0006532	6.72e-05
313.15	0.03219	0.000865	8.9e-05
313.15	0.06969	0.001149	0.000118
313.15	0.11378	0.001536	0.000157
313.15	0.16658	0.002085	0.000214
313.15	0.23057	0.002932	0.0003
313.15	0.31016	0.00423	0.00043
313.15	0.41156	0.00588	0.0006
313.15	0.54516	0.00782	0.0008
313.15	0.72956	0.00926	0.00094
313.15	1	0.00927	0.00094
318.15	0	0.0005963	6.14e-05
318.15	0.03219	0.000779	8e-05
318.15	0.06969	0.00101	0.000104
318.15	0.11378	0.001345	0.000138
318.15	0.16658	0.001786	0.000183
318.15	0.23057	0.002472	0.000253
318.15	0.31016	0.00351	0.00036
318.15	0.41156	0.00492	0.0005
318.15	0.54516	0.00653	0.00067
318.15	0.72956	0.00757	0.00077
318.15	1	0.00752	0.00077
323.15	0	0.0005471	5.64e-05
323.15	0.03219	0.000703	7.2e-05
323.15	0.06969	0.000907	9.3e-05
323.15	0.11378	0.001173	0.00012
323.15	0.16658	0.001553	0.000159
323.15	0.23057	0.002125	0.000217
323.15	0.31016	0.002925	0.000299
323.15	0.41156	0.00395	0.0004
323.15	0.54516	0.00524	0.00054
323.15	0.72956	0.00606	0.00062
323.15	1	0.00621	0.00063
