Measured thermophysical data. Densities, excess volumes, isobaric expansivity, and isothermal compressibility of the (1-ethyl-3-methylimidazolium ethylsulfate + methanol) system at temperatures (283.15 to 333.15) K and pressures from (0.1 to 35) MPa
Source: J. Chem. Thermodyn., 2008, 10.1016/j.jct.2007.11.011
Compound 1: 1-ethyl-3-methylimidazolium ethyl sulfate, C8H16N2O4S, InChI=1S/C6H11N2.C2H6O4S/c1-3-8-5-4-7(2)6-8;1-2-6-7(3,4)5/h4-6H,3H2,1-2H3;2H2,1H3,(H,3,4,5)/q+1;/p-1, purity 99.7%
Compound 2: methanol, CH4O, InChI=1S/CH4O/c1-2/h2H,1H3

System: 1-ethyl-3-methylimidazolium ethyl sulfate; phases: Liquid
Property: Mass density, kg/m3 (Liquid); method: VIBTUB:UFactor:6
Pressure, kPa	Temperature, K	Mass density, kg/m3	uncertainty
100	283.15	1246.94	0.83
100	293.15	1239.88	0.81
100	298.15	1236.35	0.81
100	303.15	1232.72	0.8
100	313.15	1226.06	0.79
100	323.15	1219.19	0.77
100	333.15	1212.42	0.76
2500	283.15	1247.9	0.94
2500	293.15	1240.89	0.92
2500	298.15	1237.35	0.92
2500	303.15	1233.78	0.91
2500	313.15	1227.11	0.89
2500	323.15	1220.23	0.87
2500	333.15	1213.53	0.86
5000	283.15	1248.89	1.08
5000	293.15	1241.91	1.06
5000	298.15	1238.4	1.04
5000	303.15	1234.83	1.03
5000	313.15	1228.18	1.01
5000	323.15	1221.36	0.98
5000	333.15	1214.66	0.96
10000	283.15	1250.85	1.38
10000	293.15	1243.9	1.35
10000	298.15	1240.44	1.33
10000	303.15	1237	1.31
10000	313.15	1230.3	1.28
10000	323.15	1223.53	1.25
10000	333.15	1216.87	1.22
15000	283.15	1252.79	1.68
15000	293.15	1245.88	1.64
15000	298.15	1242.46	1.62
15000	303.15	1239.02	1.6
15000	313.15	1232.38	1.56
15000	323.15	1225.69	1.52
15000	333.15	1219.08	1.49
20000	283.15	1254.73	1.99
20000	293.15	1247.83	1.94
20000	298.15	1244.44	1.92
20000	303.15	1241.03	1.89
20000	313.15	1234.45	1.85
20000	323.15	1227.8	1.8
20000	333.15	1221.24	1.75
25000	283.15	1256.61	2.3
25000	293.15	1249.76	2.25
25000	298.15	1246.41	2.22
25000	303.15	1243.02	2.19
25000	313.15	1236.48	2.14
25000	323.15	1229.93	2.08
25000	333.15	1223.33	2.03
30000	283.15	1258.47	2.62
30000	293.15	1251.66	2.55
30000	298.15	1248.35	2.52
30000	303.15	1244.98	2.49
30000	313.15	1238.47	2.43
30000	323.15	1231.96	2.37
30000	333.15	1225.42	2.31
35000	283.15	1260.31	2.94
35000	293.15	1253.57	2.87
35000	298.15	1250.23	2.83
35000	303.15	1246.84	2.79
35000	313.15	1240.45	2.73
35000	323.15	1233.91	2.66
35000	333.15	1227.46	2.59

System: methanol + 1-ethyl-3-methylimidazolium ethyl sulfate; phases: Liquid
Property: Mass density, kg/m3 (Liquid); method: VIBTUB:UFactor:6
Temperature, K	Pressure, kPa	Mole fraction of 1-ethyl-3-methylimidazolium ethyl sulfate	Mass density, kg/m3	uncertainty
283.15	100	0.04781	895.14	0.57
283.15	100	0.10257	968.87	0.48
283.15	100	0.19771	1052.5	0.52
283.15	100	0.24323	1081.02	0.55
283.15	100	0.30257	1111.91	0.59
283.15	100	0.38873	1145.18	0.64
283.15	100	0.48505	1173.12	0.69
283.15	100	0.58896	1195.65	0.73
283.15	100	0.72888	1218.63	0.77
283.15	100	0.85211	1233.5	0.8
283.15	100	0.93975	1242.49	0.82
283.15	2500	0.04781	896.98	0.6
283.15	2500	0.10257	970.47	0.48
283.15	2500	0.19771	1053.84	0.54
283.15	2500	0.24323	1082.31	0.58
283.15	2500	0.30257	1113.14	0.64
283.15	2500	0.38873	1146.33	0.7
283.15	2500	0.48505	1174.24	0.77
283.15	2500	0.58896	1196.74	0.81
283.15	2500	0.72888	1219.71	0.87
283.15	2500	0.85211	1234.47	0.9
283.15	2500	0.93975	1243.52	0.93
283.15	5000	0.04781	898.83	0.64
283.15	5000	0.10257	972.09	0.49
283.15	5000	0.19771	1055.23	0.56
283.15	5000	0.24323	1083.64	0.61
283.15	5000	0.30257	1114.41	0.68
283.15	5000	0.38873	1147.51	0.77
283.15	5000	0.48505	1175.35	0.85
283.15	5000	0.58896	1197.79	0.91
283.15	5000	0.72888	1220.74	0.97
283.15	5000	0.85211	1235.48	1.03
283.15	5000	0.93975	1244.49	1.06
283.15	10000	0.04781	902.39	0.71
283.15	10000	0.10257	975.24	0.5
283.15	10000	0.19771	1057.94	0.6
283.15	10000	0.24323	1086.24	0.69
283.15	10000	0.30257	1116.86	0.79
283.15	10000	0.38873	1149.84	0.92
283.15	10000	0.48505	1177.57	1.03
283.15	10000	0.58896	1199.93	1.13
283.15	10000	0.72888	1222.79	1.24
283.15	10000	0.85211	1237.48	1.31
283.15	10000	0.93975	1246.47	1.36
283.15	15000	0.04781	905.85	0.78
283.15	15000	0.10257	978.32	0.5
283.15	15000	0.19771	1060.59	0.66
283.15	15000	0.24323	1088.8	0.77
283.15	15000	0.30257	1119.26	0.91
283.15	15000	0.38873	1152.14	1.09
283.15	15000	0.48505	1179.75	1.25
283.15	15000	0.58896	1202.04	1.38
283.15	15000	0.72888	1224.82	1.51
283.15	15000	0.85211	1239.47	1.6
283.15	15000	0.93975	1248.43	1.65
283.15	20000	0.04781	909.18	0.85
283.15	20000	0.10257	981.31	0.51
283.15	20000	0.19771	1063.21	0.72
283.15	20000	0.24323	1091.31	0.87
283.15	20000	0.30257	1121.66	1.05
283.15	20000	0.38873	1154.4	1.28
283.15	20000	0.48505	1181.92	1.47
283.15	20000	0.58896	1204.13	1.62
283.15	20000	0.72888	1226.84	1.79
283.15	20000	0.85211	1241.45	1.89
283.15	20000	0.93975	1250.39	1.96
283.15	25000	0.04781	912.41	0.92
283.15	25000	0.10257	984.2	0.51
283.15	25000	0.19771	1065.75	0.79
283.15	25000	0.24323	1093.76	0.97
283.15	25000	0.30257	1123.99	1.21
283.15	25000	0.38873	1156.62	1.47
283.15	25000	0.48505	1184.04	1.7
283.15	25000	0.58896	1206.18	1.88
283.15	25000	0.72888	1228.82	2.07
283.15	25000	0.85211	1243.37	2.19
283.15	25000	0.93975	1252.3	2.26
283.15	30000	0.04781	915.51	0.98
283.15	30000	0.10257	987.02	0.5
283.15	30000	0.19771	1068.22	0.87
283.15	30000	0.24323	1096.15	1.09
283.15	30000	0.30257	1126.28	1.37
283.15	30000	0.38873	1158.82	1.68
283.15	30000	0.48505	1186.14	1.93
283.15	30000	0.58896	1208.21	2.14
283.15	30000	0.72888	1230.77	2.35
283.15	30000	0.85211	1245.28	2.49
283.15	30000	0.93975	1254.18	2.57
283.15	35000	0.04781	918.59	1.04
283.15	35000	0.10257	989.77	0.54
283.15	35000	0.19771	1070.64	0.95
283.15	35000	0.24323	1098.5	1.23
283.15	35000	0.30257	1128.48	1.54
283.15	35000	0.38873	1160.95	1.88
283.15	35000	0.48505	1188.17	2.17
283.15	35000	0.58896	1210.17	2.4
283.15	35000	0.72888	1232.67	2.64
283.15	35000	0.85211	1247.16	2.79
283.15	35000	0.93975	1256.03	2.89
293.15	100	0.04781	886.34	0.58
293.15	100	0.10257	960.49	0.49
293.15	100	0.19771	1044.52	0.51
293.15	100	0.24323	1073.23	0.54
293.15	100	0.30257	1104.25	0.58
293.15	100	0.38873	1137.8	0.63
293.15	100	0.48505	1165.78	0.68
293.15	100	0.58896	1188.53	0.71
293.15	100	0.72888	1211.6	0.75
293.15	100	0.85211	1226.42	0.78
293.15	100	0.93975	1235.42	0.8
293.15	2500	0.04781	888.27	0.62
293.15	2500	0.10257	962.13	0.5
293.15	2500	0.19771	1045.92	0.52
293.15	2500	0.24323	1074.55	0.56
293.15	2500	0.30257	1105.51	0.62
293.15	2500	0.38873	1138.99	0.69
293.15	2500	0.48505	1166.91	0.75
293.15	2500	0.58896	1189.55	0.8
293.15	2500	0.72888	1212.63	0.85
293.15	2500	0.85211	1227.39	0.89
293.15	2500	0.93975	1236.43	0.91
293.15	5000	0.04781	890.2	0.66
293.15	5000	0.10257	963.82	0.5
293.15	5000	0.19771	1047.38	0.54
293.15	5000	0.24323	1075.93	0.59
293.15	5000	0.30257	1106.81	0.67
293.15	5000	0.38873	1140.22	0.75
293.15	5000	0.48505	1168.06	0.83
293.15	5000	0.58896	1190.65	0.89
293.15	5000	0.72888	1213.69	0.95
293.15	5000	0.85211	1228.45	1
293.15	5000	0.93975	1237.46	1.04
293.15	10000	0.04781	893.93	0.74
293.15	10000	0.10257	967.09	0.52
293.15	10000	0.19771	1050.18	0.58
293.15	10000	0.24323	1078.61	0.66
293.15	10000	0.30257	1109.35	0.77
293.15	10000	0.38873	1142.61	0.89
293.15	10000	0.48505	1170.35	1
293.15	10000	0.58896	1192.84	1.1
293.15	10000	0.72888	1215.79	1.21
293.15	10000	0.85211	1230.49	1.28
293.15	10000	0.93975	1239.51	1.32
293.15	15000	0.04781	897.52	0.82
293.15	15000	0.10257	970.28	0.53
293.15	15000	0.19771	1052.91	0.63
293.15	15000	0.24323	1081.24	0.74
293.15	15000	0.30257	1111.82	0.88
293.15	15000	0.38873	1144.95	1.04
293.15	15000	0.48505	1172.59	1.21
293.15	15000	0.58896	1194.99	1.33
293.15	15000	0.72888	1217.88	1.47
293.15	15000	0.85211	1232.52	1.56
293.15	15000	0.93975	1241.5	1.61
293.15	20000	0.04781	900.98	0.9
293.15	20000	0.10257	973.36	0.54
293.15	20000	0.19771	1055.6	0.68
293.15	20000	0.24323	1083.82	0.83
293.15	20000	0.30257	1114.27	1
293.15	20000	0.38873	1147.27	1.23
293.15	20000	0.48505	1174.79	1.42
293.15	20000	0.58896	1197.11	1.58
293.15	20000	0.72888	1219.92	1.74
293.15	20000	0.85211	1234.53	1.84
293.15	20000	0.93975	1243.48	1.91
293.15	25000	0.04781	904.34	0.97
293.15	25000	0.10257	976.36	0.54
293.15	25000	0.19771	1058.22	0.75
293.15	25000	0.24323	1086.34	0.92
293.15	25000	0.30257	1116.67	1.15
293.15	25000	0.38873	1149.55	1.42
293.15	25000	0.48505	1176.97	1.64
293.15	25000	0.58896	1199.2	1.82
293.15	25000	0.72888	1221.94	2.01
293.15	25000	0.85211	1236.51	2.13
293.15	25000	0.93975	1245.42	2.21
293.15	30000	0.04781	907.55	1.05
293.15	30000	0.10257	979.27	0.54
293.15	30000	0.19771	1060.75	0.81
293.15	30000	0.24323	1088.79	1.03
293.15	30000	0.30257	1119.01	1.31
293.15	30000	0.38873	1151.75	1.61
293.15	30000	0.48505	1179.09	1.87
293.15	30000	0.58896	1201.26	2.07
293.15	30000	0.72888	1223.92	2.29
293.15	30000	0.85211	1238.43	2.42
293.15	30000	0.93975	1247.34	2.51
293.15	35000	0.04781	910.71	1.13
293.15	35000	0.10257	982.13	0.55
293.15	35000	0.19771	1063.26	0.89
293.15	35000	0.24323	1091.21	1.15
293.15	35000	0.30257	1121.32	1.47
293.15	35000	0.38873	1153.96	1.81
293.15	35000	0.48505	1181.21	2.09
293.15	35000	0.58896	1203.3	2.33
293.15	35000	0.72888	1225.88	2.57
293.15	35000	0.85211	1240.37	2.72
293.15	35000	0.93975	1249.28	2.82
298.15	100	0.04781	881.9	0.59
298.15	100	0.10257	956.23	0.49
298.15	100	0.19771	1040.54	0.5
298.15	100	0.24323	1069.25	0.53
298.15	100	0.30257	1100.31	0.57
298.15	100	0.38873	1134.01	0.63
298.15	100	0.48505	1162.03	0.67
298.15	100	0.58896	1184.83	0.71
298.15	100	0.72888	1207.95	0.75
298.15	100	0.85211	1222.76	0.78
298.15	100	0.93975	1231.87	0.8
298.15	2500	0.04781	883.82	0.63
298.15	2500	0.10257	957.85	0.5
298.15	2500	0.19771	1041.91	0.52
298.15	2500	0.24323	1070.58	0.56
298.15	2500	0.30257	1101.59	0.61
298.15	2500	0.38873	1135.21	0.68
298.15	2500	0.48505	1163.15	0.74
298.15	2500	0.58896	1185.86	0.79
298.15	2500	0.72888	1208.92	0.84
298.15	2500	0.85211	1223.17	0.88
298.15	2500	0.93975	1232.94	0.9
298.15	5000	0.04781	885.81	0.67
298.15	5000	0.10257	959.6	0.51
298.15	5000	0.19771	1043.39	0.53
298.15	5000	0.24323	1071.99	0.58
298.15	5000	0.30257	1102.92	0.66
298.15	5000	0.38873	1136.46	0.74
298.15	5000	0.48505	1164.36	0.82
298.15	5000	0.58896	1187.01	0.88
298.15	5000	0.72888	1210.02	0.94
298.15	5000	0.85211	1224.62	0.99
298.15	5000	0.93975	1234.01	1.03
298.15	10000	0.04781	889.63	0.76
298.15	10000	0.10257	962.97	0.53
298.15	10000	0.19771	1046.26	0.57
298.15	10000	0.24323	1074.73	0.65
298.15	10000	0.30257	1105.51	0.75
298.15	10000	0.38873	1138.92	0.87
298.15	10000	0.48505	1166.69	0.98
298.15	10000	0.58896	1189.25	1.08
298.15	10000	0.72888	1212.17	1.19
298.15	10000	0.85211	1226.79	1.26
298.15	10000	0.93975	1236.07	1.31
298.15	15000	0.04781	893.33	0.84
298.15	15000	0.10257	966.22	0.54
298.15	15000	0.19771	1049.05	0.61
298.15	15000	0.24323	1077.43	0.72
298.15	15000	0.30257	1108.07	0.86
298.15	15000	0.38873	1141.32	1.02
298.15	15000	0.48505	1168.99	1.18
298.15	15000	0.58896	1191.45	1.31
298.15	15000	0.72888	1214.29	1.45
298.15	15000	0.85211	1228.88	1.54
298.15	15000	0.93975	1238.12	1.59
298.15	20000	0.04781	896.87	0.92
298.15	20000	0.10257	969.37	0.55
298.15	20000	0.19771	1051.78	0.66
298.15	20000	0.24323	1080.03	0.8
298.15	20000	0.30257	1110.55	0.98
298.15	20000	0.38873	1143.68	1.2
298.15	20000	0.48505	1171.24	1.4
298.15	20000	0.58896	1193.61	1.55
298.15	20000	0.72888	1216.37	1.71
298.15	20000	0.85211	1230.93	1.82
298.15	20000	0.93975	1240.12	1.89
298.15	25000	0.04781	900.3	1
298.15	25000	0.10257	972.43	0.56
298.15	25000	0.19771	1054.44	0.72
298.15	25000	0.24323	1082.59	0.9
298.15	25000	0.30257	1112.96	1.12
298.15	25000	0.38873	1145.98	1.39
298.15	25000	0.48505	1173.44	1.61
298.15	25000	0.58896	1195.76	1.79
298.15	25000	0.72888	1218.42	1.98
298.15	25000	0.85211	1232.93	2.1
298.15	25000	0.93975	1242.11	2.18
298.15	30000	0.04781	903.63	1.09
298.15	30000	0.10257	975.41	0.57
298.15	30000	0.19771	1057.05	0.79
298.15	30000	0.24323	1085.11	0.99
298.15	30000	0.30257	1115.37	1.27
298.15	30000	0.38873	1148.26	1.58
298.15	30000	0.48505	1175.62	1.83
298.15	30000	0.58896	1197.87	2.04
298.15	30000	0.72888	1220.46	2.25
298.15	30000	0.85211	1234.93	2.39
298.15	30000	0.93975	1244.08	2.48
298.15	35000	0.04781	906.81	1.17
298.15	35000	0.10257	978.3	0.57
298.15	35000	0.19771	1059.58	0.86
298.15	35000	0.24323	1087.54	1.12
298.15	35000	0.30257	1117.69	1.43
298.15	35000	0.38873	1150.46	1.77
298.15	35000	0.48505	1177.74	2.06
298.15	35000	0.58896	1199.91	2.29
298.15	35000	0.72888	1222.43	2.53
298.15	35000	0.85211	1236.86	2.69
298.15	35000	0.93975	1245.99	2.78
303.15	100	0.04781	877.37	0.59
303.15	100	0.10257	951.86	0.5
303.15	100	0.19771	1036.37	0.5
303.15	100	0.24323	1065.2	0.53
303.15	100	0.30257	1096.34	0.57
303.15	100	0.38873	1130.14	0.62
303.15	100	0.48505	1158.24	0.67
303.15	100	0.58896	1181.07	0.7
303.15	100	0.72888	1204.24	0.74
303.15	100	0.85211	1219.11	0.77
303.15	100	0.93975	1228.28	0.79
303.15	2500	0.04781	879.39	0.64
303.15	2500	0.10257	953.61	0.51
303.15	2500	0.19771	1037.84	0.51
303.15	2500	0.24323	1066.61	0.55
303.15	2500	0.30257	1097.65	0.61
303.15	2500	0.38873	1131.4	0.67
303.15	2500	0.48505	1159.4	0.73
303.15	2500	0.58896	1182.15	0.78
303.15	2500	0.72888	1205.29	0.83
303.15	2500	0.85211	1220.12	0.87
303.15	2500	0.93975	1229.37	0.89
303.15	5000	0.04781	881.43	0.68
303.15	5000	0.10257	955.38	0.52
303.15	5000	0.19771	1039.36	0.53
303.15	5000	0.24323	1068.04	0.58
303.15	5000	0.30257	1099	0.65
303.15	5000	0.38873	1132.67	0.73
303.15	5000	0.48505	1160.61	0.81
303.15	5000	0.58896	1183.33	0.87
303.15	5000	0.72888	1206.4	0.93
303.15	5000	0.85211	1221.21	0.98
303.15	5000	0.93975	1230.44	1.01
303.15	10000	0.04781	885.44	0.77
303.15	10000	0.10257	958.89	0.54
303.15	10000	0.19771	1042.38	0.56
303.15	10000	0.24323	1070.92	0.64
303.15	10000	0.30257	1101.75	0.74
303.15	10000	0.38873	1135.24	0.86
303.15	10000	0.48505	1163.06	0.97
303.15	10000	0.58896	1185.69	1.06
303.15	10000	0.72888	1208.67	1.17
303.15	10000	0.85211	1223.41	1.25
303.15	10000	0.93975	1232.62	1.29
303.15	15000	0.04781	890.01	0.86
303.15	15000	0.10257	962.19	0.56
303.15	15000	0.19771	1045.21	0.6
303.15	15000	0.24323	1073.64	0.71
303.15	15000	0.30257	1104.31	0.84
303.15	15000	0.38873	1137.67	1
303.15	15000	0.48505	1165.38	1.16
303.15	15000	0.58896	1187.91	1.29
303.15	15000	0.72888	1210.81	1.43
303.15	15000	0.85211	1225.51	1.52
303.15	15000	0.93975	1234.67	1.57
303.15	20000	0.04781	892.79	0.95
303.15	20000	0.10257	965.4	0.57
303.15	20000	0.19771	1047.97	0.65
303.15	20000	0.24323	1076.28	0.78
303.15	20000	0.30257	1106.82	0.95
303.15	20000	0.38873	1140.05	1.18
303.15	20000	0.48505	1167.67	1.37
303.15	20000	0.58896	1190.1	1.53
303.15	20000	0.72888	1212.92	1.69
303.15	20000	0.85211	1227.56	1.79
303.15	20000	0.93975	1236.7	1.86
303.15	25000	0.04781	896.28	1.04
303.15	25000	0.10257	968.54	0.58
303.15	25000	0.19771	1050.68	0.7
303.15	25000	0.24323	1078.9	0.87
303.15	25000	0.30257	1109.29	1.09
303.15	25000	0.38873	1142.39	1.36
303.15	25000	0.48505	1169.9	1.58
303.15	25000	0.58896	1192.25	1.76
303.15	25000	0.72888	1214.99	1.95
303.15	25000	0.85211	1229.58	2.08
303.15	25000	0.93975	1238.71	2.15
303.15	30000	0.04781	899.65	1.13
303.15	30000	0.10257	971.57	0.59
303.15	30000	0.19771	1053.34	0.76
303.15	30000	0.24323	1081.44	0.96
303.15	30000	0.30257	1111.72	1.24
303.15	30000	0.38873	1144.7	1.55
303.15	30000	0.48505	1172.11	1.8
303.15	30000	0.58896	1194.38	2.01
303.15	30000	0.72888	1217.04	2.22
303.15	30000	0.85211	1231.59	2.36
303.15	30000	0.93975	1240.68	2.45
303.15	35000	0.04781	902.86	1.21
303.15	35000	0.10257	974.42	0.59
303.15	35000	0.19771	1055.86	0.83
303.15	35000	0.24323	1083.87	1.08
303.15	35000	0.30257	1114.04	1.39
303.15	35000	0.38873	1146.89	1.73
303.15	35000	0.48505	1174.2	2.02
303.15	35000	0.58896	1196.4	2.25
303.15	35000	0.72888	1219	2.49
303.15	35000	0.85211	1233.49	2.65
303.15	35000	0.93975	1242.56	2.75
313.15	100	0.04781	868.71	0.61
313.15	100	0.10257	943.67	0.51
313.15	100	0.19771	1028.79	0.49
313.15	100	0.24323	1057.64	0.52
313.15	100	0.30257	1088.94	0.56
313.15	100	0.38873	1122.96	0.61
313.15	100	0.48505	1151.19	0.65
313.15	100	0.58896	1174.15	0.69
313.15	100	0.72888	1197.48	0.73
313.15	100	0.85211	1212.41	0.76
313.15	100	0.93975	1221.68	0.78
313.15	2500	0.04781	870.87	0.65
313.15	2500	0.10257	945.44	0.52
313.15	2500	0.19771	1030.21	0.5
313.15	2500	0.24323	1059.08	0.54
313.15	2500	0.30257	1090.22	0.59
313.15	2500	0.38873	1124.22	0.66
313.15	2500	0.48505	1152.35	0.72
313.15	2500	0.58896	1175.21	0.76
313.15	2500	0.72888	1198.52	0.82
313.15	2500	0.85211	1213.23	0.85
313.15	2500	0.93975	1222.7	0.88
313.15	5000	0.04781	873	0.7
313.15	5000	0.10257	947.28	0.54
313.15	5000	0.19771	1031.77	0.51
313.15	5000	0.24323	1060.59	0.56
313.15	5000	0.30257	1091.62	0.63
313.15	5000	0.38873	1125.52	0.71
313.15	5000	0.48505	1153.6	0.79
313.15	5000	0.58896	1176.41	0.85
313.15	5000	0.72888	1199.65	0.91
313.15	5000	0.85211	1214.31	0.96
313.15	5000	0.93975	1223.82	0.99
313.15	10000	0.04781	877.12	0.8
313.15	10000	0.10257	950.87	0.56
313.15	10000	0.19771	1034.78	0.54
313.15	10000	0.24323	1063.49	0.61
313.15	10000	0.30257	1094.33	0.71
313.15	10000	0.38873	1128.06	0.83
313.15	10000	0.48505	1156.03	0.94
313.15	10000	0.58896	1178.75	1.03
313.15	10000	0.72888	1201.89	1.14
313.15	10000	0.85211	1216.48	1.21
313.15	10000	0.93975	1225.96	1.26
313.15	15000	0.04781	881.03	0.9
313.15	15000	0.10257	954.31	0.59
313.15	15000	0.19771	1037.72	0.57
313.15	15000	0.24323	1066.28	0.68
313.15	15000	0.30257	1097	0.81
313.15	15000	0.38873	1130.57	0.97
313.15	15000	0.48505	1158.42	1.12
313.15	15000	0.58896	1181.04	1.25
313.15	15000	0.72888	1204.09	1.39
313.15	15000	0.85211	1218.62	1.48
313.15	15000	0.93975	1228.06	1.54
313.15	20000	0.04781	884.83	0.99
313.15	20000	0.10257	957.65	0.61
313.15	20000	0.19771	1040.6	0.61
313.15	20000	0.24323	1069.03	0.75
313.15	20000	0.30257	1099.6	0.91
313.15	20000	0.38873	1133.05	1.13
313.15	20000	0.48505	1160.76	1.32
313.15	20000	0.58896	1183.3	1.48
313.15	20000	0.72888	1206.26	1.64
313.15	20000	0.85211	1220.72	1.75
313.15	20000	0.93975	1230.16	1.82
313.15	25000	0.04781	888.46	1.1
313.15	25000	0.10257	960.89	0.62
313.15	25000	0.19771	1043.41	0.66
313.15	25000	0.24323	1071.73	0.83
313.15	25000	0.30257	1102.15	1.03
313.15	25000	0.38873	1135.46	1.3
313.15	25000	0.48505	1163.07	1.53
313.15	25000	0.58896	1185.51	1.71
313.15	25000	0.72888	1208.39	1.9
313.15	25000	0.85211	1222.81	2.02
313.15	25000	0.93975	1232.21	2.1
313.15	30000	0.04781	891.58	1.2
313.15	30000	0.10257	964.01	0.64
313.15	30000	0.19771	1046.12	0.71
313.15	30000	0.24323	1074.34	0.91
313.15	30000	0.30257	1104.62	1.17
313.15	30000	0.38873	1137.8	1.48
313.15	30000	0.48505	1165.3	1.74
313.15	30000	0.58896	1187.68	1.95
313.15	30000	0.72888	1210.48	2.16
313.15	30000	0.85211	1224.83	2.3
313.15	30000	0.93975	1234.23	2.39
313.15	35000	0.04781	896.52	1.28
313.15	35000	0.10257	967.07	0.64
313.15	35000	0.19771	1048.8	0.77
313.15	35000	0.24323	1076.92	1.01
313.15	35000	0.30257	1107.08	1.32
313.15	35000	0.38873	1140.13	1.66
313.15	35000	0.48505	1167.55	1.95
313.15	35000	0.58896	1189.83	2.19
313.15	35000	0.72888	1212.56	2.43
313.15	35000	0.85211	1226.88	2.58
313.15	35000	0.93975	1236.23	2.68
323.15	100	0.04781	859.88	0.62
323.15	100	0.10257	935.3	0.52
323.15	100	0.19771	1020.88	0.49
323.15	100	0.24323	1049.97	0.51
323.15	100	0.30257	1081.45	0.55
323.15	100	0.38873	1115.61	0.6
323.15	100	0.48505	1143.95	0.64
323.15	100	0.58896	1167	0.68
323.15	100	0.72888	1190.46	0.72
323.15	100	0.85211	1205.38	0.75
323.15	100	0.93975	1214.87	0.76
323.15	2500	0.04781	862.14	0.67
323.15	2500	0.10257	937.17	0.53
323.15	2500	0.19771	1022.39	0.49
323.15	2500	0.24323	1051.46	0.53
323.15	2500	0.30257	1082.65	0.58
323.15	2500	0.38873	1116.83	0.64
323.15	2500	0.48505	1145.15	0.7
323.15	2500	0.58896	1168.12	0.75
323.15	2500	0.72888	1191.53	0.8
323.15	2500	0.85211	1206.3	0.84
323.15	2500	0.93975	1215.9	0.86
323.15	5000	0.04781	864.43	0.73
323.15	5000	0.10257	939.08	0.55
323.15	5000	0.19771	1024.01	0.5
323.15	5000	0.24323	1052.99	0.54
323.15	5000	0.30257	1084.11	0.61
323.15	5000	0.38873	1118.22	0.7
323.15	5000	0.48505	1146.43	0.77
323.15	5000	0.58896	1169.35	0.83
323.15	5000	0.72888	1192.7	0.89
323.15	5000	0.85211	1207.44	0.94
323.15	5000	0.93975	1217.06	0.97
323.15	10000	0.04781	868.74	0.83
323.15	10000	0.10257	942.8	0.59
323.15	10000	0.19771	1027.14	0.52
323.15	10000	0.24323	1055.97	0.59
323.15	10000	0.30257	1086.92	0.69
323.15	10000	0.38873	1120.88	0.81
323.15	10000	0.48505	1148.93	0.91
323.15	10000	0.58896	1171.75	1
323.15	10000	0.72888	1194.99	1.11
323.15	10000	0.85211	1209.67	1.18
323.15	10000	0.93975	1219.28	1.23
323.15	15000	0.04781	872.87	0.94
323.15	15000	0.10257	946.41	0.62
323.15	15000	0.19771	1030.2	0.55
323.15	15000	0.24323	1058.89	0.65
323.15	15000	0.30257	1089.69	0.78
323.15	15000	0.38873	1123.48	0.93
323.15	15000	0.48505	1151.4	1.08
323.15	15000	0.58896	1174.11	1.21
323.15	15000	0.72888	1197.27	1.35
323.15	15000	0.85211	1211.88	1.44
323.15	15000	0.93975	1221.46	1.5
323.15	20000	0.04781	876.82	1.05
323.15	20000	0.10257	949.87	0.64
323.15	20000	0.19771	1033.16	0.58
323.15	20000	0.24323	1061.72	0.71
323.15	20000	0.30257	1092.38	0.87
323.15	20000	0.38873	1126.02	1.08
323.15	20000	0.48505	1153.83	1.27
323.15	20000	0.58896	1176.44	1.43
323.15	20000	0.72888	1199.49	1.59
323.15	20000	0.85211	1214.04	1.7
323.15	20000	0.93975	1223.61	1.77
323.15	25000	0.04781	880.61	1.16
323.15	25000	0.10257	953.21	0.67
323.15	25000	0.19771	1036.04	0.62
323.15	25000	0.24323	1064.46	0.78
323.15	25000	0.30257	1094.99	0.98
323.15	25000	0.38873	1128.5	1.25
323.15	25000	0.48505	1156.17	1.47
323.15	25000	0.58896	1178.7	1.65
323.15	25000	0.72888	1201.68	1.84
323.15	25000	0.85211	1216.15	1.97
323.15	25000	0.93975	1225.7	2.05
323.15	30000	0.04781	884.24	1.27
323.15	30000	0.10257	956.44	0.69
323.15	30000	0.19771	1038.84	0.67
323.15	30000	0.24323	1067.16	0.86
323.15	30000	0.30257	1097.52	1.11
323.15	30000	0.38873	1130.9	1.42
323.15	30000	0.48505	1158.47	1.67
323.15	30000	0.58896	1180.91	1.88
323.15	30000	0.72888	1203.82	2.1
323.15	30000	0.85211	1218.23	2.24
323.15	30000	0.93975	1227.76	2.33
323.15	35000	0.04781	887.77	1.37
323.15	35000	0.10257	959.59	0.7
323.15	35000	0.19771	1041.58	0.71
323.15	35000	0.24323	1069.79	0.94
323.15	35000	0.30257	1100.04	1.25
323.15	35000	0.38873	1133.28	1.59
323.15	35000	0.48505	1160.75	1.88
323.15	35000	0.58896	1183.11	2.12
323.15	35000	0.72888	1205.91	2.36
323.15	35000	0.85211	1220.28	2.51
323.15	35000	0.93975	1229.79	2.61
333.15	100	0.04781	850.98	0.64
333.15	100	0.10257	926.85	0.53
333.15	100	0.19771	1012.95	0.48
333.15	100	0.24323	1042.28	0.5
333.15	100	0.30257	1073.72	0.54
333.15	100	0.38873	1108.15	0.59
333.15	100	0.48505	1136.7	0.63
333.15	100	0.58896	1159.94	0.66
333.15	100	0.72888	1183.49	0.7
333.15	100	0.85211	1198.51	0.73
333.15	100	0.93975	1207.93	0.75
333.15	2500	0.04781	853.34	0.69
333.15	2500	0.10257	928.81	0.55
333.15	2500	0.19771	1014.54	0.48
333.15	2500	0.24323	1043.81	0.51
333.15	2500	0.30257	1075.11	0.56
333.15	2500	0.38873	1109.48	0.63
333.15	2500	0.48505	1137.95	0.69
333.15	2500	0.58896	1161.11	0.73
333.15	2500	0.72888	1184.59	0.79
333.15	2500	0.85211	1199.19	0.82
333.15	2500	0.93975	1209.04	0.85
333.15	5000	0.04781	855.7	0.75
333.15	5000	0.10257	930.83	0.57
333.15	5000	0.19771	1016.23	0.49
333.15	5000	0.24323	1045.4	0.53
333.15	5000	0.30257	1076.58	0.6
333.15	5000	0.38873	1110.88	0.68
333.15	5000	0.48505	1139.28	0.75
333.15	5000	0.58896	1162.35	0.81
333.15	5000	0.72888	1185.79	0.87
333.15	5000	0.85211	1200.35	0.92
333.15	5000	0.93975	1210.2	0.95
333.15	10000	0.04781	860.18	0.87
333.15	10000	0.10257	934.71	0.61
333.15	10000	0.19771	1019.48	0.5
333.15	10000	0.24323	1048.48	0.57
333.15	10000	0.30257	1079.47	0.66
333.15	10000	0.38873	1113.59	0.78
333.15	10000	0.48505	1141.86	0.89
333.15	10000	0.58896	1164.82	0.97
333.15	10000	0.72888	1188.13	1.08
333.15	10000	0.85211	1202.62	1.15
333.15	10000	0.93975	1212.45	1.2
333.15	15000	0.04781	864.49	0.98
333.15	15000	0.10257	938.46	0.65
333.15	15000	0.19771	1022.66	0.52
333.15	15000	0.24323	1051.51	0.62
333.15	15000	0.30257	1082.32	0.74
333.15	15000	0.38873	1116.27	0.9
333.15	15000	0.48505	1144.4	1.04
333.15	15000	0.58896	1167.24	1.17
333.15	15000	0.72888	1190.47	1.31
333.15	15000	0.85211	1204.87	1.4
333.15	15000	0.93975	1214.69	1.46
333.15	20000	0.04781	868.61	1.11
333.15	20000	0.10257	942.07	0.68
333.15	20000	0.19771	1025.73	0.55
333.15	20000	0.24323	1054.43	0.67
333.15	20000	0.30257	1085.07	0.83
333.15	20000	0.38873	1118.87	1.03
333.15	20000	0.48505	1146.86	1.23
333.15	20000	0.58896	1169.62	1.38
333.15	20000	0.72888	1192.77	1.55
333.15	20000	0.85211	1207.1	1.65
333.15	20000	0.93975	1216.87	1.72
333.15	25000	0.04781	872.54	1.23
333.15	25000	0.10257	945.55	0.71
333.15	25000	0.19771	1028.71	0.58
333.15	25000	0.24323	1057.29	0.74
333.15	25000	0.30257	1087.76	0.93
333.15	25000	0.38873	1121.41	1.19
333.15	25000	0.48505	1149.29	1.42
333.15	25000	0.58896	1171.94	1.6
333.15	25000	0.72888	1194.98	1.79
333.15	25000	0.85211	1209.26	1.91
333.15	25000	0.93975	1219.03	1.99
333.15	30000	0.04781	876.32	1.34
333.15	30000	0.10257	948.89	0.74
333.15	30000	0.19771	1031.6	0.62
333.15	30000	0.24323	1060.06	0.81
333.15	30000	0.30257	1090.37	1.04
333.15	30000	0.38873	1123.9	1.35
333.15	30000	0.48505	1151.66	1.61
333.15	30000	0.58896	1174.22	1.82
333.15	30000	0.72888	1197.18	2.04
333.15	30000	0.85211	1211.4	2.17
333.15	30000	0.93975	1221.13	2.27
333.15	35000	0.04781	879.95	1.45
333.15	35000	0.10257	952.14	0.78
333.15	35000	0.19771	1034.42	0.66
333.15	35000	0.24323	1062.76	0.88
333.15	35000	0.30257	1092.96	1.17
333.15	35000	0.38873	1126.35	1.52
333.15	35000	0.48505	1153.97	1.81
333.15	35000	0.58896	1176.46	2.05
333.15	35000	0.72888	1199.35	2.29
333.15	35000	0.85211	1213.49	2.44
333.15	35000	0.93975	1223.21	2.55
