Measured thermophysical data. Thermodynamic and acoustic properties of binary mixtures of alcohols and alkanes. I. Speed of sound in (ethanol + n-heptane) under elevated pressures
Source: J. Chem. Thermodyn., 2005, 10.1016/j.jct.2004.10.001
Compound 1: ethanol, C2H6O, InChI=1S/C2H6O/c1-2-3/h3H,2H2,1H3, purity 99.8%
Compound 2: heptane, C7H16, InChI=1S/C7H16/c1-3-5-7-6-4-2/h3-7H2,1-2H3

System: ethanol; phases: Liquid
Property: Mass density, kg/m3 (Liquid); method: VIBTUB:UFactor:16
Temperature, K	Pressure, kPa	Mass density, kg/m3	uncertainty
298.15	101.325	785.36	2.41

System: ethanol; phases: Liquid
Property: Speed of sound, m/s (Liquid); method: Pulse-echo method
Temperature, K	Pressure, kPa	Speed of sound, m/s	uncertainty
293.08	101.3	1160.35	1.34
293.19	75800	1503.64	1.83
293.19	76230	1505.03	1.83
293.19	90940	1554.43	1.92
293.19	91350	1555.68	1.92
293.21	14850	1248.74	1.44
293.21	15560	1252.34	1.45
293.21	60510	1448.22	1.76
293.21	61020	1450.12	1.76
293.22	30240	1323.04	1.55
293.22	30530	1324.36	1.55
293.22	45370	1388.31	1.68
293.22	45730	1389.98	1.69
298.06	60400	1435.65	1.74
298.06	61240	1438.8	1.74
298.06	75580	1491.15	1.82
298.06	76400	1493.94	1.83
298.06	90950	1543.11	1.9
298.06	91410	1544.52	1.9
298.07	29970	1308.39	1.55
298.07	30620	1311.31	1.54
298.07	45360	1375.87	1.66
298.07	46020	1378.64	1.67
298.08	14980	1234.63	1.42
298.08	15400	1236.78	1.43
298.15	101.3	1142.95	1.33
298.2	15040	1234.66	1.42
298.2	15870	1238.89	1.44
298.21	30120	1308.59	1.55
298.21	30740	1311.45	1.55
298.22	45380	1375.51	1.65
298.22	45830	1377.32	1.67
298.22	60330	1435.06	1.75
298.22	61220	1438.49	1.75
298.22	75690	1491.29	1.83
298.22	76300	1493.37	1.83
298.22	90960	1543.01	1.91
298.22	91410	1544.42	1.91
303.15	45380	1362.61	1.63
303.15	45880	1364.72	1.65
303.16	101.3	1125.86	1.31
303.16	30180	1295	1.52
303.16	30670	1297.28	1.53
303.16	60390	1423.15	1.73
303.16	61210	1426.21	1.74
303.16	75770	1479.89	1.82
303.16	76310	1481.74	1.84
303.17	91120	1532.29	1.87
303.17	91290	1532.78	1.97
303.21	14980	1219.01	1.41
303.21	15390	1221.13	1.42
308.12	101.3	1109.05	1.29
308.21	15040	1204.23	1.4
308.21	15340	1205.9	1.4
308.21	30060	1280.48	1.51
308.21	30810	1284.01	1.52
308.21	60460	1410.96	1.72
308.21	61180	1413.77	1.74
308.21	90850	1520.16	1.93
308.21	91540	1522.49	1.93
308.22	45310	1349.23	1.63
308.22	45940	1351.95	1.63
308.22	75820	1468.28	1.81
308.22	76160	1469.46	1.84
313.13	15040	1189.52	1.38
313.13	15290	1190.83	1.39
313.13	30130	1267.31	1.5
313.13	30650	1269.78	1.51
313.13	45400	1336.96	1.6
313.13	45710	1338.29	1.52
313.13	75590	1456.15	1.81
313.13	76230	1458.42	1.82
313.14	90960	1509.5	1.91
313.14	91420	1511.19	1.97
313.15	101.3	1092.08	1.27
313.15	60650	1399.78	1.71
313.15	60900	1400.71	1.73
318.15	30270	1254.36	1.5
318.15	30510	1255.57	1.5
318.16	60520	1387.27	1.7
318.16	60940	1388.87	1.71
318.16	90860	1498.35	1.91
318.16	91490	1500.49	1.91
318.17	45400	1324.25	1.6
318.17	45790	1325.92	1.61
318.19	15070	1174.65	1.37
318.19	15320	1176.04	1.37
318.2	75730	1445	1.82
318.2	76240	1446.87	1.82
318.21	101.3	1075.08	1.26

System: heptane; phases: Liquid
Property: Mass density, kg/m3 (Liquid); method: VIBTUB:UFactor:16
Temperature, K	Pressure, kPa	Mass density, kg/m3	uncertainty
298.15	101.325	679.66	3.28

System: heptane; phases: Liquid
Property: Speed of sound, m/s (Liquid); method: Pulse-echo method
Temperature, K	Pressure, kPa	Speed of sound, m/s	uncertainty
293.07	101.3	1152.51	1.44
293.18	15180	1256.01	1.52
293.18	15260	1256.48	1.52
293.21	30380	1340.39	3.96
293.26	30470	1340.95	3.96
293.26	60770	1483.38	1.89
293.26	60830	1483.64	1.89
293.27	45570	1415.53	1.78
293.27	45620	1415.72	1.78
293.32	91080	1601.93	2.06
293.32	92070	1605.28	2.07
293.34	75970	1544.66	1.99
293.35	76010	1544.87	1.99
298.04	101.3	1130.92	1.42
298.09	30350	1323.18	1.66
298.09	30560	1324.46	1.71
298.09	45560	1399.44	1.82
298.09	46100	1402.12	1.8
298.09	60740	1467.68	2.48
298.09	60810	1467.91	2.45
298.1	15160	1236.9	3.87
298.1	15250	1237.64	3.82
298.1	75940	1530.75	2.24
298.1	76030	1531.02	2.19
298.13	91130	1588.35	2.11
298.13	91220	1588.59	2.09
298.17	91140	1588.27	2.11
298.17	91220	1588.55	2.09
298.18	60700	1467.43	1.82
298.18	60840	1467.96	1.82
298.19	75920	1530.25	2.03
298.19	76040	1530.73	2.01
298.26	30320	1322.55	1.63
298.26	30610	1323.95	1.66
298.26	45470	1398.25	1.79
298.26	45630	1398.96	1.79
298.28	15140	1235.81	1.57
298.28	15280	1236.62	1.62
303.12	101.3	1109.04	1.4
303.27	15140	1217.15	1.51
303.27	15250	1217.67	1.5
303.31	30370	1305.31	1.64
303.31	30450	1305.64	1.64
303.32	45480	1382.07	1.73
303.32	45630	1382.7	1.73
303.33	60750	1452.31	2
303.33	60850	1452.64	1.72
303.35	75920	1515.34	2.28
303.35	76020	1515.95	8.31
303.35	91130	1574.09	2.17
303.35	91230	1574.35	1.98
308.09	45550	1367.04	1.67
308.09	45650	1367.45	1.74
308.11	91130	1560.56	1.97
308.11	91530	1562	2.02
308.15	30350	1288.43	1.58
308.15	30510	1289.2	1.61
308.16	60730	1437.21	1.75
308.16	60860	1437.73	1.88
308.16	75920	1501.36	1.87
308.16	76100	1502.05	1.99
308.18	15130	1198.46	1.47
308.18	15270	1199.24	1.5
308.2	101.3	1087.16	1.38
313.07	91130	1547.28	1.95
313.07	91230	1547.5	1.89
313.08	60770	1422.79	1.86
313.09	60810	1422.98	1.86
313.11	45610	1351.5	9.69
313.12	75980	1487.72	1.96
313.12	76040	1487.83	1.97
313.13	30360	1271.71	1.61
313.13	30420	1272.06	1.61
313.14	15140	1180.52	1.48
313.14	15230	1181.07	1.48
313.14	45520	1351.08	9.69
313.16	101.3	1066.04	1.36
318.18	15060	1161.26	1.46
318.18	15350	1163.34	1.47
318.18	30290	1254.11	1.65
318.18	30500	1255.67	1.66
318.19	45540	1334.79	1.71
318.19	45660	1335.35	1.71
318.19	60720	1407.69	1.88
318.19	60850	1408.33	1.88
318.19	75830	1472.86	1.91
318.19	76180	1474.16	1.91
318.21	91120	1533.3	2.04
318.21	91260	1533.82	2.04
318.22	101.3	1044.52	1.34

System: ethanol + heptane; phases: Liquid
Property: Speed of sound, m/s (Liquid); method: Pulse-echo method
Mole fraction of ethanol	Temperature, K	Pressure, kPa	Speed of sound, m/s	uncertainty
0	293.07	101.3	1152.51	1.44
0	293.18	15180	1256.01	1.52
0	293.18	15260	1256.48	1.52
0	293.21	30380	1340.39	3.96
0	293.26	30470	1340.95	3.96
0	293.26	60770	1483.38	1.89
0	293.26	60830	1483.64	1.89
0	293.27	45570	1415.53	1.78
0	293.27	45620	1415.72	1.78
0	293.32	91080	1601.93	2.06
0	293.32	92070	1605.28	2.07
0	293.34	75970	1544.66	1.99
0	293.35	76010	1544.87	1.99
0	298.04	101.3	1130.92	1.42
0	298.09	30350	1323.18	1.66
0	298.09	30560	1324.46	1.71
0	298.09	45560	1399.44	1.82
0	298.09	46100	1402.12	1.8
0	298.09	60740	1467.68	2.48
0	298.09	60810	1467.91	2.45
0	298.1	15160	1236.9	3.87
0	298.1	15250	1237.64	3.82
0	298.1	75940	1530.75	2.24
0	298.1	76030	1531.02	2.19
0	298.13	91130	1588.35	2.11
0	298.13	91220	1588.59	2.09
0	298.17	91140	1588.27	2.11
0	298.17	91220	1588.55	2.09
0	298.18	60700	1467.43	1.82
0	298.18	60840	1467.96	1.82
0	298.19	75920	1530.25	2.03
0	298.19	76040	1530.73	2.01
0	298.26	30320	1322.55	1.63
0	298.26	30610	1323.95	1.66
0	298.26	45470	1398.25	1.79
0	298.26	45630	1398.96	1.79
0	298.28	15140	1235.81	1.57
0	298.28	15280	1236.62	1.62
0	303.12	101.3	1109.04	1.4
0	303.27	15140	1217.15	1.51
0	303.27	15250	1217.67	1.5
0	303.31	30370	1305.31	1.64
0	303.31	30450	1305.64	1.64
0	303.32	45480	1382.07	1.73
0	303.32	45630	1382.7	1.73
0	303.33	60750	1452.31	2
0	303.33	60850	1452.64	1.72
0	303.35	75920	1515.34	2.28
0	303.35	76020	1515.95	8.31
0	303.35	91130	1574.09	2.17
0	303.35	91230	1574.35	1.98
0	308.09	45550	1367.04	1.67
0	308.09	45650	1367.45	1.74
0	308.11	91130	1560.56	1.97
0	308.11	91530	1562	2.02
0	308.15	30350	1288.43	1.58
0	308.15	30510	1289.2	1.61
0	308.16	60730	1437.21	1.75
0	308.16	60860	1437.73	1.88
0	308.16	75920	1501.36	1.87
0	308.16	76100	1502.05	1.99
0	308.18	15130	1198.46	1.47
0	308.18	15270	1199.24	1.5
0	308.2	101.3	1087.16	1.38
0	313.07	91130	1547.28	1.95
0	313.07	91230	1547.5	1.89
0	313.08	60770	1422.79	1.86
0	313.09	60810	1422.98	1.86
0	313.11	45610	1351.5	9.69
0	313.12	75980	1487.72	1.96
0	313.12	76040	1487.83	1.97
0	313.13	30360	1271.71	1.61
0	313.13	30420	1272.06	1.61
0	313.14	15140	1180.52	1.48
0	313.14	15230	1181.07	1.48
0	313.14	45520	1351.08	9.69
0	313.16	101.3	1066.04	1.36
0	318.18	15060	1161.26	1.46
0	318.18	15350	1163.34	1.47
0	318.18	30290	1254.11	1.65
0	318.18	30500	1255.67	1.66
0	318.19	45540	1334.79	1.71
0	318.19	45660	1335.35	1.71
0	318.19	60720	1407.69	1.88
0	318.19	60850	1408.33	1.88
0	318.19	75830	1472.86	1.91
0	318.19	76180	1474.16	1.91
0	318.21	91120	1533.3	2.04
0	318.21	91260	1533.82	2.04
0	318.22	101.3	1044.52	1.34
0.1214	293.04	91000	1593.03	1.83
0.1214	293.04	91410	1594.45	2.54
0.1214	293.14	14860	1244.57	1.52
0.1214	293.14	15660	1249.68	1.55
0.1214	293.14	30150	1330.35	1.61
0.1214	293.14	30840	1333.99	1.67
0.1214	293.15	75800	1535.55	1.8
0.1214	293.15	76350	1537.55	2.08
0.1214	293.19	45200	1404.76	1.72
0.1214	293.19	46110	1409.05	1.82
0.1214	293.24	60710	1473.88	1.72
0.1214	293.24	61090	1475.4	1.88
0.1214	298.08	45300	1388.93	2.03
0.1214	298.08	45940	1392.18	2.29
0.1214	298.08	60480	1457.6	1.98
0.1214	298.08	61090	1460.27	2.12
0.1214	298.08	75620	1520.19	2.11
0.1214	298.08	76440	1523.5	2.23
0.1214	298.08	90880	1578.37	2
0.1214	298.08	91460	1580.41	2.38
0.1214	298.09	15050	1226.67	2.51
0.1214	298.09	15340	1228.4	2.94
0.1214	298.09	30100	1312.47	1.99
0.1214	298.09	30690	1315.61	2.18
0.1214	298.23	45320	1388.67	1.83
0.1214	298.23	45880	1391.31	1.86
0.1214	298.23	60590	1457.78	1.74
0.1214	298.23	60990	1459.5	1.96
0.1214	298.23	75710	1520.19	1.85
0.1214	298.23	76350	1522.71	2.06
0.1214	298.23	90970	1578.28	2.3
0.1214	298.23	91330	1579.59	2.1
0.1214	298.24	14920	1225.46	1.67
0.1214	298.24	15570	1229.45	1.68
0.1214	298.24	30150	1312.41	1.86
0.1214	298.24	30670	1315.14	1.91
0.1214	303.16	60500	1442.6	1.83
0.1214	303.16	61040	1444.81	2.11
0.1214	303.17	45260	1372.63	1.67
0.1214	303.17	45960	1375.94	1.79
0.1214	303.2	75860	1506.7	1.9
0.1214	303.2	76420	1508.8	1.83
0.1214	303.2	91010	1564.92	1.94
0.1214	303.2	91460	1566.43	1.99
0.1214	303.25	30110	1295.12	1.58
0.1214	303.25	30660	1297.86	1.62
0.1214	303.29	15020	1207.53	1.46
0.1214	303.29	15380	1209.46	1.51
0.1214	308.11	60360	1427	1.78
0.1214	308.11	91010	1551.27	1.78
0.1214	308.11	91360	1552.44	2.54
0.1214	308.12	30230	1278.88	1.56
0.1214	308.12	30650	1281.02	1.64
0.1214	308.12	45340	1357.18	1.71
0.1214	308.12	45910	1359.83	1.74
0.1214	308.14	75640	1491.51	1.9
0.1214	308.14	76460	1494.79	1.96
0.1214	308.16	61140	1430.25	1.93
0.1214	308.19	15130	1189.25	1.45
0.1214	308.19	15330	1190.6	1.52
0.1214	313.07	75700	1477.95	1.85
0.1214	313.07	76330	1480.43	1.95
0.1214	313.08	60510	1413.06	1.75
0.1214	313.08	61090	1415.65	1.8
0.1214	313.08	91120	1538.35	1.85
0.1214	313.08	91350	1539.22	2.02
0.1214	313.21	14800	1168.57	1.44
0.1214	313.21	15570	1173.57	1.47
0.1214	313.21	30180	1261.41	1.52
0.1214	313.21	30600	1263.78	1.62
0.1214	313.21	45200	1340.57	1.66
0.1214	313.21	45990	1344.44	1.76
0.1214	318.12	45550	1327.37	2.94
0.1214	318.13	60350	1397.61	1.78
0.1214	318.13	61070	1400.96	1.95
0.1214	318.15	45620	1327.72	2.75
0.1214	318.18	15070	1152.37	1.39
0.1214	318.18	15370	1154.38	1.48
0.1214	318.21	75800	1464.41	1.78
0.1214	318.21	76380	1466.65	2
0.1214	318.21	90980	1524.62	1.84
0.1214	318.21	91340	1525.92	2.29
0.1214	318.23	30330	1246.1	1.48
0.1214	318.23	30510	1246.85	1.81
0.1217	293.2	101.3	1142.52	1.43
0.1217	298.12	101.3	1121	1.4
0.1217	303.15	101.3	1099.14	1.38
0.1217	308.09	101.3	1077.73	1.35
0.1217	313.11	101.3	1056.11	1.33
0.1217	318.24	101.3	1034.16	1.3
0.2269	293.23	101.3	1138.41	1.39
0.2269	298.11	101.3	1117.12	1.56
0.2269	303.21	101.3	1095.07	1.67
0.2269	308.18	101.3	1073.68	2.06
0.2269	313.2	101.3	1052.17	1.64
0.2269	318.19	101.3	1030.8	1.28
0.2279	293.15	100	1138.72	1.39
0.2279	293.16	75630	1530.32	1.97
0.2279	293.16	76350	1533.08	1.94
0.2279	293.18	60640	1469.37	1.88
0.2279	293.18	60970	1470.8	1.86
0.2279	293.18	90790	1587.21	2.09
0.2279	293.18	91630	1590.3	2.06
0.2279	293.2	14990	1241.86	1.51
0.2279	293.2	15490	1244.82	1.52
0.2279	293.22	30100	1326.09	1.63
0.2279	293.22	30690	1329.15	1.63
0.2279	293.23	45250	1400.8	1.76
0.2279	293.23	46000	1404.42	1.76
0.2279	298.09	75700	1516.58	2.05
0.2279	298.09	76230	1518.63	1.88
0.2279	298.1	14760	1222.25	1.53
0.2279	298.1	15640	1227.38	1.51
0.2279	298.1	45340	1385.8	1.81
0.2279	298.1	45840	1388.12	1.76
0.2279	298.1	60580	1454.45	1.97
0.2279	298.1	60930	1455.88	1.77
0.2279	298.1	90900	1574.15	2.18
0.2279	298.1	91450	1576.11	1.95
0.2279	298.11	30100	1309.37	1.66
0.2279	298.11	30690	1312.43	1.6
0.2279	298.15	100	1116.97	1.56
0.2279	298.19	60540	1453.45	1.99
0.2279	298.19	61000	1455.37	2.01
0.2279	298.19	91070	1574.01	2.11
0.2279	298.19	91300	1574.79	2.19
0.2279	298.2	75660	1515.61	2.07
0.2279	298.2	76370	1518.3	2.08
0.2279	298.23	45510	1385.59	1.81
0.2279	298.23	45660	1386.21	1.86
0.2279	298.28	14970	1222.27	1.6
0.2279	298.28	15490	1225.46	1.54
0.2279	298.28	30350	1309.61	1.7
0.2279	298.28	30670	1311.32	1.69
0.2279	303.15	100	1095.32	1.67
0.2279	303.21	14640	1201.75	1.47
0.2279	303.21	15710	1208.26	1.48
0.2279	303.21	30100	1291.31	1.6
0.2279	303.21	30640	1294.25	1.61
0.2279	303.21	45100	1367.64	1.72
0.2279	303.21	46100	1372.5	1.74
0.2279	303.21	60470	1437.88	1.82
0.2279	303.21	61140	1440.75	1.86
0.2279	303.21	75690	1501.21	1.91
0.2279	303.21	76240	1503.37	1.98
0.2279	303.21	90980	1559.79	1.98
0.2279	303.21	91330	1561.06	2.06
0.2279	308.1	90880	1546.48	2.07
0.2279	308.1	91430	1548.45	1.96
0.2279	308.11	14810	1184.44	1.46
0.2279	308.11	15560	1189.06	1.46
0.2279	308.11	30140	1274.91	1.59
0.2279	308.11	30650	1277.61	1.59
0.2279	308.11	45320	1353.33	1.71
0.2279	308.11	45930	1356.18	1.71
0.2279	308.11	75810	1488.03	1.97
0.2279	308.11	76300	1489.97	1.9
0.2279	308.12	60350	1422.94	1.83
0.2279	308.12	61240	1426.75	1.82
0.2279	308.15	100	1073.76	2.06
0.2279	313.13	14940	1166.44	1.44
0.2279	313.13	15470	1169.8	1.45
0.2279	313.13	30120	1257.67	1.57
0.2279	313.13	30590	1260.29	1.58
0.2279	313.13	45280	1337.18	1.69
0.2279	313.13	45900	1340.24	1.72
0.2279	313.13	60600	1408.93	1.78
0.2279	313.13	60940	1410.4	1.85
0.2279	313.14	75620	1472.87	1.93
0.2279	313.14	76330	1475.75	1.93
0.2279	313.14	91020	1533.11	1.93
0.2279	313.14	91320	1534.22	2.08
0.2279	313.15	100	1052.28	1.64
0.2279	318.15	100	1030.9	1.28
0.2279	318.18	15080	1148.7	1.41
0.2279	318.18	15310	1150.24	1.44
0.2279	318.18	30120	1240.86	1.54
0.2279	318.18	30770	1244.47	1.57
0.2279	318.18	45130	1320.83	1.68
0.2279	318.18	46050	1325.37	1.7
0.2279	318.18	60500	1393.79	1.8
0.2279	318.18	61050	1396.23	1.82
0.2279	318.18	75720	1459.27	1.91
0.2279	318.18	76210	1461.28	1.93
0.2279	318.18	91010	1519.77	2
0.2279	318.18	91300	1520.88	1.98
0.3054	293.14	90970	1584.02	1.99
0.3054	293.14	91220	1584.91	2.09
0.3054	293.15	45510	1399.14	1.71
0.3054	293.15	45640	1399.81	1.78
0.3054	293.15	75530	1526.33	1.92
0.3054	293.15	76180	1528.78	1.97
0.3054	293.16	60750	1466.56	1.85
0.3054	293.16	60800	1466.82	1.85
0.3054	293.17	15110	1240.32	1.5
0.3054	293.17	15350	1241.82	1.51
0.3054	293.18	30340	1324.73	1.61
0.3054	293.18	30510	1325.57	1.65
0.3054	298.09	45450	1382.72	1.65
0.3054	298.09	45740	1384.03	1.8
0.3054	298.09	90890	1569.85	1.96
0.3054	298.09	91520	1571.99	2.06
0.3054	298.1	15120	1221.52	1.49
0.3054	298.1	15380	1223.05	1.49
0.3054	298.1	30140	1306.37	1.58
0.3054	298.1	30650	1308.95	1.64
0.3054	298.1	60590	1450.57	1.83
0.3054	298.1	61050	1452.56	1.97
0.3054	298.1	75750	1512.71	1.89
0.3054	298.1	76260	1514.66	2.01
0.3054	298.16	75840	1513.18	1.93
0.3054	298.16	76130	1514.28	1.95
0.3054	298.18	60440	1450.08	1.82
0.3054	298.18	61220	1453.35	1.81
0.3054	298.2	90820	1569.63	2.02
0.3054	298.2	91700	1572.71	2.01
0.3054	298.22	15030	1220.84	1.44
0.3054	298.22	15390	1223.03	1.44
0.3054	298.22	30210	1306.69	1.58
0.3054	298.22	30610	1308.8	1.57
0.3054	298.22	45470	1382.71	1.71
0.3054	298.22	45760	1384.1	1.69
0.3054	303.16	91070	1556.38	1.9
0.3054	303.16	91300	1557.32	2.19
0.3054	303.19	15190	1202.8	1.47
0.3054	303.19	15220	1202.99	1.47
0.3054	303.19	30330	1290.05	1.58
0.3054	303.19	30600	1291.47	1.62
0.3054	303.19	60530	1435.2	1.81
0.3054	303.19	60930	1436.91	1.84
0.3054	303.2	45560	1367.07	1.68
0.3054	303.2	45670	1367.54	1.75
0.3054	303.2	75680	1498.04	1.94
0.3054	303.2	76170	1499.95	1.93
0.3054	303.2	90740	1555.57	2.02
0.3054	303.2	91740	1559.12	2.03
0.3054	308.15	30240	1272.68	1.58
0.3054	308.15	30560	1274.52	1.59
0.3054	308.16	14940	1182.65	1.44
0.3054	308.16	15420	1185.5	1.46
0.3054	308.16	45280	1350.1	1.69
0.3054	308.16	45910	1353.05	1.72
0.3054	308.19	60570	1420.45	1.78
0.3054	308.19	61000	1422.2	1.85
0.3054	308.22	75630	1483.48	1.92
0.3054	308.22	76310	1486.1	1.93
0.3054	313.16	15090	1165.21	1.42
0.3054	313.16	15330	1166.76	1.45
0.3054	313.16	30050	1254.69	1.55
0.3054	313.16	30710	1258.22	1.57
0.3054	313.19	91020	1529.28	1.94
0.3054	313.19	91320	1530.43	2.11
0.3054	313.2	75560	1469.08	1.89
0.3054	313.2	76430	1472.5	1.94
0.3054	313.21	60590	1405.55	1.77
0.3054	313.21	61020	1407.41	1.84
0.3054	313.22	45060	1333.06	1.68
0.3054	313.22	46060	1337.97	1.71
0.3054	318.06	90520	1514.47	2
0.3054	318.06	91460	1517.93	2.05
0.3054	318.15	60680	1391.67	1.7
0.3054	318.15	60870	1392.38	1.89
0.3054	318.16	75880	1456.59	1.78
0.3054	318.16	76040	1457.23	2.09
0.3054	318.18	45340	1319.17	1.65
0.3054	318.18	45860	1321.69	1.71
0.3054	318.21	14970	1145.91	1.4
0.3054	318.21	15350	1148.28	1.43
0.3054	318.21	29960	1237.53	1.54
0.3054	318.21	30790	1242.12	1.56
0.3072	293.19	101.3	1136.41	1.39
0.3072	298.12	101.3	1115.03	1.37
0.3072	303.15	101.3	1093.39	1.35
0.3072	308.18	101.3	1071.8	1.33
0.3072	313.13	101.3	1050.62	1.31
0.3072	318.23	101.3	1028.91	1.29
0.4045	293.16	90780	1578.65	2.01
0.4045	293.16	91570	1581.36	2.03
0.4045	293.17	14880	1236.68	1.49
0.4045	293.17	15540	1240.55	1.51
0.4045	293.17	30020	1320.19	1.6
0.4045	293.17	30730	1323.82	1.63
0.4045	293.17	75530	1522.11	1.93
0.4045	293.17	76600	1526.13	1.94
0.4045	293.22	60320	1460.61	1.82
0.4045	293.22	61360	1464.94	1.86
0.4045	293.23	45290	1394.43	1.69
0.4045	293.23	45890	1397.13	1.77
0.4045	298.06	14880	1218.34	1.57
0.4045	298.06	15550	1222.21	1.62
0.4045	298.06	60410	1446.29	1.78
0.4045	298.06	61210	1449.57	1.86
0.4045	298.07	75830	1508.96	1.98
0.4045	298.07	76320	1510.8	2.04
0.4045	298.08	30050	1303.52	1.82
0.4045	298.08	30730	1307	1.86
0.4045	298.08	90910	1565.36	1.97
0.4045	298.08	91440	1567.13	2.19
0.4045	298.09	46110	1382.65	2.07
0.4045	298.2	45150	1377.69	1.71
0.4045	298.2	46070	1381.93	1.79
0.4045	298.2	60660	1446.81	1.72
0.4045	298.2	60950	1448.06	2.11
0.4045	298.2	90890	1565.05	1.91
0.4045	298.2	91470	1567.16	2.18
0.4045	298.22	15200	1219.48	1.84
0.4045	298.22	15420	1220.77	1.68
0.4045	298.22	30080	1302.92	1.54
0.4045	298.22	30760	1306.45	1.59
0.4045	298.22	75590	1507.48	1.87
0.4045	298.22	76550	1511.16	1.98
0.4045	303.15	14900	1199.39	1.45
0.4045	303.15	15520	1203.09	1.46
0.4045	303.15	30040	1286.08	1.54
0.4045	303.15	30700	1289.53	1.62
0.4045	303.16	44830	1360.67	1.72
0.4045	303.16	45930	1365.77	1.71
0.4045	303.16	60290	1430.62	1.75
0.4045	303.16	61280	1434.76	1.86
0.4045	303.16	75640	1493.83	1.77
0.4045	303.16	76340	1496.46	2.05
0.4045	303.21	90850	1551.3	1.82
0.4045	303.21	91440	1553.38	2.09
0.4045	308.14	60600	1417.11	1.73
0.4045	308.14	61250	1419.9	1.88
0.4045	308.14	90930	1538.31	1.81
0.4045	308.14	91530	1540.41	1.86
0.4045	308.18	45210	1346.51	1.68
0.4045	308.18	46280	1351.78	1.74
0.4045	308.18	75960	1481.08	1.92
0.4045	308.18	76000	1481.27	1.92
0.4045	308.19	15000	1181.25	1.42
0.4045	308.19	15520	1184.44	1.49
0.4045	308.21	30370	1270.77	1.52
0.4045	308.21	30560	1271.8	1.95
0.4045	313.19	60520	1401.98	1.66
0.4045	313.19	60980	1403.92	1.9
0.4045	313.2	45350	1331.84	1.61
0.4045	313.2	45760	1333.76	1.71
0.4045	313.2	75640	1465.66	1.71
0.4045	313.2	76370	1468.5	2.24
0.4045	313.2	90730	1524.1	1.87
0.4045	313.2	91530	1527.02	2.13
0.4045	313.22	14860	1162.26	1.42
0.4045	313.22	15610	1166.89	1.42
0.4045	313.23	30150	1252.92	1.49
0.4045	313.23	30430	1254.51	1.84
0.4045	318.09	30060	1236.55	1.47
0.4045	318.09	30820	1240.74	1.6
0.4045	318.1	14720	1143.53	1.37
0.4045	318.1	15710	1149.8	1.42
0.4045	318.1	45100	1315.7	1.6
0.4045	318.1	46080	1320.46	1.74
0.4045	318.1	60510	1388	1.62
0.4045	318.1	61100	1390.57	1.99
0.4045	318.14	75760	1452.65	1.65
0.4045	318.14	76120	1454.16	2.55
0.4045	318.15	91030	1512.37	1.74
0.4045	318.15	91380	1513.64	2.74
0.4052	293.09	101.3	1134.69	1.38
0.4052	298.1	101.3	1113.2	1.36
0.4052	303.13	101.3	1091.8	1.34
0.4052	308.17	101.3	1070.41	1.32
0.4052	313.17	101.3	1049.23	1.3
0.4052	318.16	101.3	1028.19	1.28
0.4966	293.05	90920	1575.24	2.23
0.4966	293.05	91390	1576.93	1.86
0.4966	293.13	75930	1520.09	2.14
0.4966	293.13	76070	1520.57	1.79
0.4966	293.17	60320	1457.79	1.87
0.4966	293.17	61300	1461.87	1.78
0.4966	293.18	30110	1319.46	1.64
0.4966	293.18	30700	1322.41	1.56
0.4966	293.19	45100	1391.85	1.74
0.4966	293.19	46100	1396.3	1.68
0.4966	293.2	14950	1236.61	1.49
0.4966	293.2	15470	1239.67	1.47
0.4966	298.06	90800	1562.15	2.23
0.4966	298.06	91490	1564.59	1.91
0.4966	298.08	15070	1220.33	1.58
0.4966	298.08	15330	1221.8	2.01
0.4966	298.08	75950	1506.87	1.96
0.4966	298.08	76120	1507.6	1.72
0.4966	298.09	30300	1304.7	1.82
0.4966	298.09	30490	1305.74	1.52
0.4966	298.09	45580	1379.35	2.11
0.4966	298.09	45600	1379.45	2.11
0.4966	298.14	60110	1443.12	1.8
0.4966	298.14	61010	1446.67	2.54
0.4966	298.17	75510	1505.12	1.98
0.4966	298.17	76480	1508.61	1.8
0.4966	298.18	60510	1444.56	1.77
0.4966	298.18	61110	1447.02	3.58
0.4966	298.19	90810	1561.74	2.64
0.4966	298.19	91420	1564.09	2.19
0.4966	298.2	15080	1220.2	2.18
0.4966	298.2	15570	1223.1	1.95
0.4966	298.2	30360	1304.91	2.9
0.4966	298.2	30440	1305.3	2.98
0.4966	298.2	45420	1378.46	2.07
0.4966	298.2	45700	1379.74	1.64
0.4966	303.05	15000	1203.49	1.49
0.4966	303.05	15420	1205.95	1.44
0.4966	303.07	45210	1363.71	1.91
0.4966	303.07	45980	1367.23	1.6
0.4966	303.08	30040	1288.29	1.71
0.4966	303.08	30720	1291.8	1.52
0.4966	303.1	60500	1431.58	2.02
0.4966	303.1	61200	1434.5	1.68
0.4966	303.13	75520	1492.73	2.05
0.4966	303.13	76460	1496.38	1.81
0.4966	303.15	90490	1548.85	2.1
0.4966	303.15	91490	1552.48	1.82
0.4966	308.28	90750	1537.25	1.75
0.4966	308.28	91180	1538.87	2.51
0.4966	308.32	75960	1481.31	1.72
0.4966	308.32	76070	1481.68	2.46
0.4966	308.34	14860	1184.94	1.44
0.4966	308.34	15960	1191.7	1.43
0.4966	308.34	45490	1349.95	2.1
0.4966	308.34	45860	1351.68	1.61
0.4966	308.34	60470	1417.55	1.91
0.4966	308.34	61170	1420.45	1.64
0.4966	308.35	30600	1275.16	1.56
0.4966	308.35	30680	1275.58	1.56
0.4966	313.19	15000	1169.14	1.46
0.4966	313.19	15420	1171.72	1.41
0.4966	313.21	90860	1525.3	2.38
0.4966	313.21	91470	1527.54	1.73
0.4966	313.23	30230	1257.8	2.07
0.4966	313.23	30560	1259.53	1.53
0.4966	313.24	45440	1335.24	2.35
0.4966	313.24	45770	1336.75	1.54
0.4966	313.24	75670	1467.07	2.46
0.4966	313.24	76280	1469.46	1.67
0.4966	313.25	60570	1404.35	1.98
0.4966	313.25	61040	1406.35	1.76
0.4966	318.12	14820	1150.19	1.47
0.4966	318.12	15530	1154.74	1.39
0.4966	318.12	30330	1242.08	2.27
0.4966	318.12	30460	1242.76	1.58
0.4966	318.14	45350	1319.63	2.12
0.4966	318.14	45830	1321.94	1.54
0.4966	318.17	60400	1389.27	2.07
0.4966	318.17	61100	1392.33	1.61
0.4966	318.18	75590	1452.89	2.17
0.4966	318.18	76380	1456.16	1.78
0.4966	318.23	90800	1511.68	2.37
0.4966	318.23	91540	1514.54	1.76
0.508	293.07	101.3	1133.11	1.37
0.508	298.15	101.3	1111.75	1.35
0.508	303.24	101.3	1090.42	1.33
0.508	308.14	101.3	1069.99	1.31
0.508	313.17	101.3	1049.07	1.29
0.508	318.2	101.3	1028.22	1.26
0.6174	293.14	101.3	1132.31	1.36
0.6174	298.08	101.3	1112.06	1.34
0.6174	303.2	101.3	1091.17	1.32
0.6174	308.2	101.3	1070.82	1.3
0.6174	313.16	101.3	1050.73	1.28
0.6174	318.28	101.3	1030.01	1.25
0.7016	293.07	45410	1384.68	1.62
0.7016	293.07	45800	1386.29	2.17
0.7016	293.14	91020	1563.02	1.76
0.7016	293.14	91390	1564.2	2.36
0.7016	293.15	30060	1312.4	1.52
0.7016	293.15	30700	1315.42	1.75
0.7016	293.15	75450	1507.02	1.84
0.7016	293.15	76590	1511.16	1.94
0.7016	293.16	60500	1448.65	1.65
0.7016	293.16	61030	1450.66	2.13
0.7016	293.22	14830	1231.04	1.46
0.7016	293.22	15610	1235.47	1.51
0.7016	298.06	90950	1550.12	1.94
0.7016	298.06	91380	1551.52	2.41
0.7016	298.07	14830	1213.99	1.48
0.7016	298.07	15560	1218.15	1.51
0.7016	298.07	75740	1494.88	1.93
0.7016	298.07	76280	1496.88	2.17
0.7016	298.09	60550	1434.97	1.9
0.7016	298.09	61040	1436.99	2.17
0.7016	298.1	30230	1297.18	2.15
0.7016	298.1	30530	1298.65	2.24
0.7016	298.11	45310	1369.34	1.92
0.7016	298.11	45910	1371.96	2.05
0.7016	298.21	30060	1296.42	1.74
0.7016	298.21	30700	1299.47	1.79
0.7016	298.21	75660	1494.22	1.77
0.7016	298.21	76340	1496.71	1.97
0.7016	298.22	90770	1549.07	1.91
0.7016	298.22	91630	1551.96	2.01
0.7016	298.23	45300	1368.81	1.61
0.7016	298.23	45920	1371.57	1.79
0.7016	298.23	60500	1434.38	1.65
0.7016	298.23	61050	1436.58	1.99
0.7016	298.25	14980	1214.74	1.63
0.7016	298.25	15400	1217.08	1.73
0.7016	303.11	45420	1355.22	1.6
0.7016	303.11	45810	1356.93	1.73
0.7016	303.13	30280	1281.74	1.63
0.7016	303.13	30500	1282.86	1.67
0.7016	303.13	60620	1421.42	1.64
0.7016	303.13	60930	1422.63	1.97
0.7016	303.16	75830	1481.89	1.8
0.7016	303.16	76160	1483.09	1.96
0.7016	303.19	14900	1196.98	1.41
0.7016	303.19	15460	1200.19	1.46
0.7016	303.21	90700	1536.39	1.93
0.7016	303.21	91640	1539.57	1.96
0.7016	308.19	15060	1180.57	1.38
0.7016	308.19	15300	1182	1.4
0.7016	308.19	30130	1265.38	1.5
0.7016	308.19	30640	1267.99	1.65
0.7016	308.19	90940	1524.62	1.8
0.7016	308.19	91480	1526.43	2
0.7016	308.2	45370	1339.93	1.74
0.7016	308.2	45830	1342.03	1.8
0.7016	308.2	75820	1468.49	1.68
0.7016	308.2	76150	1469.74	2.18
0.7016	308.21	60600	1407.26	1.6
0.7016	308.21	60960	1408.67	2.11
0.7016	313.18	60610	1394.76	1.64
0.7016	313.18	60930	1396.06	1.89
0.7016	313.18	75760	1456.28	1.74
0.7016	313.18	76230	1458.08	2.02
0.7016	313.18	91080	1513.58	1.93
0.7016	313.18	91310	1514.4	1.96
0.7016	313.19	30230	1251.25	1.46
0.7016	313.19	30530	1252.88	1.61
0.7016	313.19	45260	1326.21	1.65
0.7016	313.19	45940	1329.18	1.61
0.7016	313.22	14940	1163.95	1.37
0.7016	313.22	15410	1166.88	1.37
0.7016	318.12	14960	1147.29	1.34
0.7016	318.12	15390	1149.86	1.42
0.7016	318.13	60590	1381.28	1.63
0.7016	318.13	61010	1383.03	1.92
0.7016	318.14	30150	1235.44	1.45
0.7016	318.14	30600	1237.82	1.61
0.7016	318.15	45330	1312.25	1.56
0.7016	318.15	45850	1314.72	1.74
0.7016	318.19	75870	1443.85	1.69
0.7016	318.19	76110	1444.76	2.12
0.7016	318.19	90900	1500.7	1.84
0.7016	318.19	91440	1502.59	2.08
0.7024	293.1	101.3	1133.03	1.35
0.7024	298.13	101.3	1112.91	1.33
0.7024	303.22	101.3	1092.64	1.31
0.7024	308.19	101.3	1072.96	1.29
0.7024	313.15	101.3	1053.35	1.27
0.7024	318.25	101.3	1033.23	1.24
0.8112	293.12	101.3	1136.24	1.35
0.8112	298.15	101.3	1116.92	1.32
0.8112	303.12	101.3	1097.97	1.3
0.8112	308.16	101.3	1078.89	1.28
0.8112	313.13	101.3	1060.12	1.26
0.8112	318.16	101.3	1041.15	1.23
0.8123	298.08	60660	1432.73	1.96
0.8123	298.08	60890	1433.66	2.12
0.8123	298.1	75730	1490.83	2.27
0.8123	298.1	76250	1492.68	1.94
0.8123	298.11	90870	1544.55	2.33
0.8123	298.11	91510	1546.74	2.35
0.8123	298.12	14890	1215.41	2.31
0.8123	298.12	15650	1219.38	2.25
0.8123	298.12	30150	1295.78	2.21
0.8123	298.12	30790	1298.84	2.2
0.8123	298.14	45030	1365.47	1.7
0.8123	298.14	46330	1371.3	1.73
0.8123	298.18	90930	1543.93	1.79
0.8123	298.18	91450	1545.65	2.19
0.8123	298.2	60460	1431.34	1.73
0.8123	298.2	61130	1434.31	1.83
0.8123	298.2	75520	1488.94	1.79
0.8123	298.2	76670	1493.17	1.93
0.8123	298.22	14880	1215.14	2.09
0.8123	298.22	15510	1218.8	2.67
0.8123	298.23	30210	1295.73	1.86
0.8123	298.23	30610	1297.76	2.4
0.8123	298.23	45140	1365.67	2.11
0.8123	298.23	46090	1369.78	2.14
0.8123	303.04	75890	1477.23	1.69
0.8123	303.04	76110	1478.02	2.05
0.8123	303.12	14890	1197.97	1.4
0.8123	303.12	15720	1202.89	1.44
0.8123	303.13	45380	1352.29	1.53
0.8123	303.13	45770	1354.17	1.78
0.8123	303.13	60460	1417.2	1.66
0.8123	303.13	61130	1419.65	1.87
0.8123	303.13	91090	1532.04	1.72
0.8123	303.13	91300	1532.76	2.67
0.8123	303.14	29720	1278.08	1.53
0.8123	303.14	30710	1282.92	1.57
0.8123	308.11	75720	1464.06	1.83
0.8123	308.11	76230	1465.94	1.9
0.8123	308.13	44850	1336	1.62
0.8123	308.13	45830	1340.44	1.72
0.8123	308.13	91000	1519.65	1.7
0.8123	308.13	91360	1520.88	2.36
0.8123	308.14	60580	1404.22	1.72
0.8123	308.14	61000	1405.9	1.77
0.8123	308.17	14970	1181.85	1.4
0.8123	308.17	15410	1184.41	1.46
0.8123	308.17	30080	1264.55	1.5
0.8123	308.17	30730	1267.78	1.57
0.8123	313.16	14790	1164.3	1.37
0.8123	313.16	16070	1171.88	1.39
0.8123	313.16	29910	1248.6	1.48
0.8123	313.16	30900	1253.7	1.54
0.8123	313.18	75550	1450.65	1.74
0.8123	313.18	76340	1453.67	2.01
0.8123	313.18	91010	1507.65	1.7
0.8123	313.18	91410	1508.9	2.24
0.8123	313.19	45510	1324.79	1.65
0.8123	313.19	45680	1325.53	2.22
0.8123	313.19	60480	1390.46	1.58
0.8123	313.19	61090	1393.01	1.93
0.8123	318.16	45410	1310.8	1.49
0.8123	318.16	45800	1312.64	1.93
0.8123	318.16	60540	1377.86	1.55
0.8123	318.16	61050	1379.99	2.11
0.8123	318.16	75670	1438.95	1.65
0.8123	318.16	76280	1441.25	2.1
0.8123	318.17	14970	1149.02	1.32
0.8123	318.17	15450	1151.97	1.42
0.8123	318.17	30070	1234.72	1.44
0.8123	318.17	30760	1238.3	1.53
0.8123	318.17	90930	1495.66	1.68
0.8123	318.17	91440	1497.48	2.42
0.9097	293.11	101.3	1144.16	1.36
0.9097	298.12	101.3	1125.92	1.32
0.9097	303.15	101.3	1107.68	1.3
0.9097	308.11	101.3	1089.85	1.28
0.9097	313.14	101.3	1071.83	1.26
0.9097	318.23	101.3	1053.61	1.23
0.9157	293.17	15090	1238.25	1.51
0.9157	293.17	15350	1239.68	1.73
0.9157	293.17	91040	1553.09	2.43
0.9157	293.17	91330	1554	3.79
0.9157	293.18	45490	1382.58	2.03
0.9157	293.18	45740	1383.62	2.9
0.9157	293.18	60450	1443.39	1.63
0.9157	293.18	61190	1446.17	2.03
0.9157	293.19	30020	1313.3	1.52
0.9157	293.19	30930	1317.48	1.61
0.9157	293.19	75750	1500.41	1.77
0.9157	293.19	76250	1502.1	2.7
0.9157	298.08	14880	1221.34	2.6
0.9157	298.08	15560	1225.12	2.62
0.9157	298.08	30060	1298.96	2.12
0.9157	298.08	30810	1302.53	2.13
0.9157	298.08	45420	1368.91	2.27
0.9157	298.08	45780	1370.48	2.38
0.9157	298.08	75650	1487.84	2.42
0.9157	298.08	76360	1490.3	2.75
0.9157	298.08	91010	1541.22	2.62
0.9157	298.08	91300	1542.18	3.59
0.9157	298.09	60620	1431.12	2.98
0.9157	298.09	60960	1432.48	3.32
0.9157	298.17	91020	1541.21	2.4
0.9157	298.17	91310	1542.15	3.09
0.9157	298.19	14860	1221.17	3.04
0.9157	298.19	15550	1224.84	2.62
0.9157	298.19	60580	1430.83	2.11
0.9157	298.19	60960	1432.2	2.77
0.9157	298.21	30210	1299.45	2.75
0.9157	298.21	30590	1301.29	3.12
0.9157	298.21	75670	1487.67	2.06
0.9157	298.21	76300	1489.92	2.57
0.9157	298.23	45310	1368.1	1.72
0.9157	298.23	45860	1370.43	2.06
0.9157	303.16	45280	1354.58	1.59
0.9157	303.16	45950	1357.43	1.71
0.9157	303.16	75660	1475.66	1.8
0.9157	303.16	76360	1478.22	1.97
0.9157	303.16	90840	1529.16	2
0.9157	303.16	91460	1531.25	2.04
0.9157	303.17	60470	1417.87	1.61
0.9157	303.17	61140	1420.49	2.01
0.9157	303.2	30110	1284.5	1.47
0.9157	303.2	30710	1287.4	1.59
0.9157	303.21	14880	1205.1	1.4
0.9157	303.21	15540	1208.71	1.44
0.9157	308.13	60640	1405.76	1.63
0.9157	308.13	60970	1407.04	2
0.9157	308.14	75820	1464.12	1.74
0.9157	308.14	76130	1465.28	1.96
0.9157	308.15	90990	1517.99	1.74
0.9157	308.15	91320	1519.12	2.4
0.9157	308.17	14940	1189.73	1.38
0.9157	308.17	15460	1192.58	1.4
0.9157	308.17	29950	1269.23	1.48
0.9157	308.17	30840	1273.55	1.58
0.9157	308.18	45350	1341.24	1.69
0.9157	308.18	45880	1343.53	1.81
0.9157	313.2	14940	1174.03	1.36
0.9157	313.2	15510	1177.2	1.44
0.9157	313.21	90860	1506.1	1.91
0.9157	313.21	91450	1508.1	2.18
0.9157	313.22	30050	1255.42	1.44
0.9157	313.22	30780	1259.05	1.6
0.9157	313.22	45340	1327.91	1.54
0.9157	313.22	45780	1329.89	1.7
0.9157	313.22	60120	1391	1.7
0.9157	313.22	61140	1395.01	1.81
0.9157	313.22	75640	1451.41	1.65
0.9157	313.22	76290	1453.74	2.09
0.9157	318.1	75700	1440.12	1.61
0.9157	318.1	76220	1441.99	2.23
0.9157	318.11	90650	1494.31	1.8
0.9157	318.11	91420	1496.96	2.22
0.9157	318.12	30380	1243.27	1.5
0.9157	318.12	30420	1243.43	1.5
0.9157	318.12	60510	1380.54	1.55
0.9157	318.12	61030	1382.66	2.02
0.9157	318.13	45570	1316.07	1.62
0.9157	318.13	45610	1316.22	1.62
0.9157	318.15	14960	1158.9	1.33
0.9157	318.15	15470	1161.88	1.41
1	293.08	101.3	1160.35	1.34
1	293.19	75800	1503.64	1.83
1	293.19	76230	1505.03	1.83
1	293.19	90940	1554.43	1.92
1	293.19	91350	1555.68	1.92
1	293.21	14850	1248.74	1.44
1	293.21	15560	1252.34	1.45
1	293.21	60510	1448.22	1.76
1	293.21	61020	1450.12	1.76
1	293.22	30240	1323.04	1.55
1	293.22	30530	1324.36	1.55
1	293.22	45370	1388.31	1.68
1	293.22	45730	1389.98	1.69
1	298.06	60400	1435.65	1.74
1	298.06	61240	1438.8	1.74
1	298.06	75580	1491.15	1.82
1	298.06	76400	1493.94	1.83
1	298.06	90950	1543.11	1.9
1	298.06	91410	1544.52	1.9
1	298.07	29970	1308.39	1.55
1	298.07	30620	1311.31	1.54
1	298.07	45360	1375.87	1.66
1	298.07	46020	1378.64	1.67
1	298.08	14980	1234.63	1.42
1	298.08	15400	1236.78	1.43
1	298.15	101.3	1142.95	1.33
1	298.2	15040	1234.66	1.42
1	298.2	15870	1238.89	1.44
1	298.21	30120	1308.59	1.55
1	298.21	30740	1311.45	1.55
1	298.22	45380	1375.51	1.65
1	298.22	45830	1377.32	1.67
1	298.22	60330	1435.06	1.75
1	298.22	61220	1438.49	1.75
1	298.22	75690	1491.29	1.83
1	298.22	76300	1493.37	1.83
1	298.22	90960	1543.01	1.91
1	298.22	91410	1544.42	1.91
1	303.15	45380	1362.61	1.63
1	303.15	45880	1364.72	1.65
1	303.16	101.3	1125.86	1.31
1	303.16	30180	1295	1.52
1	303.16	30670	1297.28	1.53
1	303.16	60390	1423.15	1.73
1	303.16	61210	1426.21	1.74
1	303.16	75770	1479.89	1.82
1	303.16	76310	1481.74	1.84
1	303.17	91120	1532.29	1.87
1	303.17	91290	1532.78	1.97
1	303.21	14980	1219.01	1.41
1	303.21	15390	1221.13	1.42
1	308.12	101.3	1109.05	1.29
1	308.21	15040	1204.23	1.4
1	308.21	15340	1205.9	1.4
1	308.21	30060	1280.48	1.51
1	308.21	30810	1284.01	1.52
1	308.21	60460	1410.96	1.72
1	308.21	61180	1413.77	1.74
1	308.21	90850	1520.16	1.93
1	308.21	91540	1522.49	1.93
1	308.22	45310	1349.23	1.63
1	308.22	45940	1351.95	1.63
1	308.22	75820	1468.28	1.81
1	308.22	76160	1469.46	1.84
1	313.13	15040	1189.52	1.38
1	313.13	15290	1190.83	1.39
1	313.13	30130	1267.31	1.5
1	313.13	30650	1269.78	1.51
1	313.13	45400	1336.96	1.6
1	313.13	45710	1338.29	1.52
1	313.13	75590	1456.15	1.81
1	313.13	76230	1458.42	1.82
1	313.14	90960	1509.5	1.91
1	313.14	91420	1511.19	1.97
1	313.15	101.3	1092.08	1.27
1	313.15	60650	1399.78	1.71
1	313.15	60900	1400.71	1.73
1	318.15	30270	1254.36	1.5
1	318.15	30510	1255.57	1.5
1	318.16	60520	1387.27	1.7
1	318.16	60940	1388.87	1.71
1	318.16	90860	1498.35	1.91
1	318.16	91490	1500.49	1.91
1	318.17	45400	1324.25	1.6
1	318.17	45790	1325.92	1.61
1	318.19	15070	1174.65	1.37
1	318.19	15320	1176.04	1.37
1	318.2	75730	1445	1.82
1	318.2	76240	1446.87	1.82
1	318.21	101.3	1075.08	1.26
