Measured thermophysical data. Experimental and computational thermochemical study of oxindole
Source: J. Chem. Thermodyn., 2010, 10.1016/j.jct.2010.04.006
Compound 1: carbon dioxide, CO2, InChI=1S/CO2/c2-1-3
Compound 2: nitrogen, N2, InChI=1S/N2/c1-2
Compound 3: water, H2O, InChI=1S/H2O/h1H2
Compound 4: oxygen, O2, InChI=1S/O2/c1-2
Compound 5: hydrogen, H2, InChI=1S/H2/h1H
Compound 6: graphite, C
Compound 7: indolin-2-one, C8H7NO, InChI=1S/C8H7NO/c10-8-5-6-3-1-2-4-7(6)9-8/h1-4H,5H2,(H,9,10), purity 99.8%

System: indolin-2-one; phases: Crystal, Liquid, Air at 1 atmosphere
Property: Normal melting temperature, K (Crystal); method: DTA
Normal melting temperature, K	uncertainty
398.86	0.5

System: indolin-2-one; phases: Crystal, Liquid, Air at 1 atmosphere
Property: Molar enthalpy of transition or fusion, kJ/mol (Crystal); method: DSC
Molar enthalpy of transition or fusion, kJ/mol	uncertainty
18.74	0.57

System: indolin-2-one; phases: Gas
Property: Molar enthalpy, kJ/mol (Gas); method: Drop calorimetry
Temperature, K	Pressure, kPa	Molar enthalpy, kJ/mol	uncertainty
390	101.325	113	3.4

Reaction: -1 indolin-2-one + 8 carbon dioxide + .5 nitrogen + 3.5 water + -9.25 oxygen
Property: Specific internal energy of reaction at constant volume, J/g
-29892.6

Reaction: 1 indolin-2-one + -3.5 hydrogen + -.5 nitrogen + -8 graphite + -.5 oxygen
Property: Molar internal energy of reaction at constant volume, kJ/mol
-166.5

Reaction: 1 indolin-2-one + -3.5 hydrogen + -.5 nitrogen + -8 graphite + -.5 oxygen
Property: Molar internal energy of reaction at constant volume, kJ/mol
-66.8
