Measured thermophysical data. Conformational analysis of branched alkanes using limiting partial molar volumes
Source: J. Chem. Thermodyn., 2017, 10.1016/j.jct.2017.07.026
Compound 1: methanol, CH4O, InChI=1S/CH4O/c1-2/h2H,1H3, purity 99.8%
Compound 2: 2-methylheptane, C8H18, InChI=1S/C8H18/c1-4-5-6-7-8(2)3/h8H,4-7H2,1-3H3, purity 99%
Compound 3: 2-methylpentane, C6H14, InChI=1S/C6H14/c1-4-5-6(2)3/h6H,4-5H2,1-3H3, purity 99.5%
Compound 4: 3-methylpentane, C6H14, InChI=1S/C6H14/c1-4-6(3)5-2/h6H,4-5H2,1-3H3, purity 99.5%
Compound 5: toluene, C7H8, InChI=1S/C7H8/c1-7-5-3-2-4-6-7/h2-6H,1H3, purity 99.95%
Compound 6: heptane, C7H16, InChI=1S/C7H16/c1-3-5-7-6-4-2/h3-7H2,1-2H3, purity 99.5%

System: methanol; phases: Liquid
Property: Mass density, kg/m3 (Liquid); method: Vibrating tube method
Temperature, K	Pressure, kPa	Mass density, kg/m3	uncertainty
298.15	100	786.57	0.33

System: 2-methylheptane; phases: Liquid
Property: Mass density, kg/m3 (Liquid); method: Vibrating tube method
Temperature, K	Pressure, kPa	Mass density, kg/m3	uncertainty
298.15	100	693.9	1.4

System: 2-methylpentane; phases: Liquid
Property: Mass density, kg/m3 (Liquid); method: Vibrating tube method
Temperature, K	Pressure, kPa	Mass density, kg/m3	uncertainty
298.15	100	648.48	0.67

System: 3-methylpentane; phases: Liquid
Property: Mass density, kg/m3 (Liquid); method: Vibrating tube method
Temperature, K	Pressure, kPa	Mass density, kg/m3	uncertainty
298.15	100	659.76	0.68

System: toluene; phases: Liquid
Property: Mass density, kg/m3 (Liquid); method: Pycnometric method
Temperature, K	Pressure, kPa	Mass density, kg/m3	uncertainty
298.15	101.325	862.214	0.262

System: heptane; phases: Liquid
Property: Mass density, kg/m3 (Liquid); method: Pycnometric method
Temperature, K	Pressure, kPa	Mass density, kg/m3	uncertainty
298.15	101.325	679.455	0.218

System: 2-methylpentane + methanol; phases: Liquid
Fixed: Pressure, kPa = 100
Fixed: Temperature, K = 298.15
Property: Mass density, kg/m3 (Liquid); method: Vibrating tube method
Molality, mol/kg of 2-methylpentane	Mass density, kg/m3	uncertainty
0.02577	786.15	0.33
0.09112	785.08	0.33
0.10022	784.95	0.33
0.1267	784.51	0.33
0.18334	783.59	0.33
0.22472	782.95	0.33
0.23925	782.73	0.33
0.33549	781.24	0.33
0.35057	781.02	0.33
0.3833	780.53	0.33
0.44976	779.5	0.33
0.49369	778.85	0.34
0.50325	778.68	0.34
0.56293	777.84	0.34
0.63426	776.78	0.34
0	786.57	0.33

System: 3-methylpentane + methanol; phases: Liquid
Fixed: Pressure, kPa = 100
Fixed: Temperature, K = 298.15
Property: Mass density, kg/m3 (Liquid); method: Vibrating tube method
Molality, mol/kg of 3-methylpentane	Mass density, kg/m3	uncertainty
0.02902	786.12	0.33
0.04025	785.97	0.33
0.06079	785.65	0.33
0.07925	785.37	0.33
0.11056	784.93	0.33
0.2045	783.51	0.33
0.307	782.05	0.33
0.3825	781.03	0.33
0.3944	780.81	0.34
0.4638	779.87	0.33
0.5751	778.42	0.33
0.6145	777.81	0.34
0.7207	776.46	0.34
0	786.57	0.33

System: 2-methylheptane + methanol; phases: Liquid
Fixed: Pressure, kPa = 100
Fixed: Temperature, K = 298.15
Property: Mass density, kg/m3 (Liquid); method: Vibrating tube method
Molality, mol/kg of 2-methylheptane	Mass density, kg/m3	uncertainty
0.11741	784.76	0.33
0.14059	784.42	0.33
0.21552	783.3	0.33
0.37112	781.09	0.33
0.41772	780.47	0.33
0.44967	780.04	0.33
0.52588	779.01	0.33
0.58151	778.29	0.34
0.63895	777.54	0.34
0.73388	776.35	0.34
0	786.57	0.33
