Measured thermophysical data. Thermodynamic properties of ZnSO4(aq) and phase equilibria in the ZnSO4 H2O system from 268 K to 373 K
Source: J. Chem. Thermodyn., 2018, 10.1016/j.jct.2017.09.012
Compound 1: zinc sulfate, O4SZn, InChI=1S/H2O4S.Zn/c1-5(2,3)4;/h(H2,1,2,3,4);/q;+2/p-2, purity 99%
Compound 2: water, H2O, InChI=1S/H2O/h1H2

System: zinc sulfate + water; phases: Liquid
Fixed: Pressure, kPa = 101
Property: Osmotic coefficient (Liquid); method: ISOPIE
Temperature, K	Molality, mol/kg of zinc sulfate	Osmotic coefficient	uncertainty
298.15	3.223	0.935	0.009
298.15	3.836	1.156	0.013
288.15	3.567	1.093	0.03
288.15	3.787	1.189	0.033
288.15	3.997	1.294	0.03
308.15	3.614	1.019	0.005
308.15	3.962	1.144	0.009
308.15	4.295	1.274	0.015
313.15	4.47	1.302	0.013
313.15	4.25	1.217	0.009
313.15	4.014	1.133	0.007
