Measured thermophysical data. Automated apparatus for gas solubility measurements
Source: J. Chem. Thermodyn., 2007, 10.1016/j.jct.2007.05.013
Compound 1: carbon dioxide, CO2, InChI=1S/CO2/c2-1-3, purity 99.5%
Compound 2: water, H2O, InChI=1S/H2O/h1H2, purity 99.5%
Compound 3: nitrous oxide, N2O, InChI=1S/N2O/c1-2-3, purity 99.5%

System: carbon dioxide + water; phases: Liquid, Gas
Fixed: Pressure, kPa = 101.325
Property: Mole fraction of carbon dioxide (Liquid); method: Change in gas volume before and after dissolution
Temperature, K	Mole fraction of carbon dioxide	uncertainty
290.27	0.00077	1.5e-05
291.49	0.000736	1.5e-05
292.11	0.000722	1.4e-05
293.39	0.00069	1.4e-05
294.58	0.000665	1.3e-05
295.15	0.000666	1.3e-05
296.19	0.000636	1.3e-05
297.19	0.000619	1.2e-05
298.39	0.000598	1.2e-05
299.37	0.000589	1.2e-05
300.15	0.00058	1.2e-05
301.1	0.000561	1.1e-05
302.13	0.000543	1.1e-05
302.93	0.000535	1.1e-05

System: water + nitrous oxide; phases: Liquid, Gas
Fixed: Pressure, kPa = 101.325
Property: Mole fraction of nitrous oxide (Liquid); method: Change in gas volume before and after dissolution
Temperature, K	Mole fraction of nitrous oxide	uncertainty
290.36	0.000549	1.1e-05
291.36	0.000538	1.1e-05
292.36	0.000517	1e-05
293.3	0.000503	1e-05
294.2	0.000493	1e-05
295.4	0.000471	9e-06
296.15	0.000466	9e-06
297.25	0.000449	9e-06
298.13	0.000438	9e-06
299.07	0.000428	9e-06
300.16	0.000413	8e-06
301.15	0.000397	8e-06
302.15	0.000384	8e-06
303.13	0.000381	8e-06
