Measured thermophysical data. Measurements of the density and refractive index for 1-n-butyl-3-methylimidazolium-based ionic liquids
Source: J. Chem. Thermodyn., 2009, 10.1016/j.jct.2008.08.010
Compound 1: 1-butyl-3-methylimidazolium tetrafluoroborate, C8H15BF4N2, InChI=1S/C8H15N2.BF4/c1-3-4-5-10-7-6-9(2)8-10;2-1(3,4)5/h6-8H,3-5H2,1-2H3;/q+1;-1, purity 99%
Compound 2: 1-butyl-3-methylimidazolium hexafluorophosphate, C8H15F6N2P, InChI=1S/C8H15N2.F6P/c1-3-4-5-10-7-6-9(2)8-10;1-7(2,3,4,5)6/h6-8H,3-5H2,1-2H3;/q+1;-1, purity 99%
Compound 3: 1-butyl-3-methylimidazolium methyl sulfate, C9H18N2O4S, InChI=1S/C8H15N2.CH4O4S/c1-3-4-5-10-7-6-9(2)8-10;1-5-6(2,3)4/h6-8H,3-5H2,1-2H3;1H3,(H,2,3,4)/q+1;/p-1, purity 98%
Compound 4: 1-butyl-3-methylimidazolium trifluoromethanesulfonate, C9H15F3N2O3S, InChI=1S/C8H15N2.CHF3O3S/c1-3-4-5-10-7-6-9(2)8-10;2-1(3,4)8(5,6)7/h6-8H,3-5H2,1-2H3;(H,5,6,7)/q+1;/p-1, purity 98.1%

System: 1-butyl-3-methylimidazolium tetrafluoroborate; phases: Liquid
Fixed: Pressure, kPa = 101.325
Property: Refractive index (Na D-line) (Liquid); method: Standard Abbe refractometry
Temperature, K	Refractive index (Na D-line)	uncertainty
298.2	1.4218	0.0007
299.2	1.4216	0.0007
300.2	1.4213	0.0007
301.2	1.4211	0.0007
302.2	1.4208	0.0007
303.2	1.4206	0.0007
304.2	1.4204	0.0007
305.2	1.4201	0.0007
306.2	1.4199	0.0007
307.2	1.4197	0.0007
308.2	1.4195	0.0007

System: 1-butyl-3-methylimidazolium tetrafluoroborate; phases: Liquid
Fixed: Pressure, kPa = 101.325
Property: Mass density, kg/m3 (Liquid); method: Vibrating tube method
Temperature, K	Mass density, kg/m3	uncertainty
298.2	1201	0.9
299.2	1200.3	0.9
300.2	1199.6	0.9
301.2	1199	0.9
302.2	1198.3	0.9
303.2	1197.6	0.9
304.2	1196.9	0.9
305.2	1196.2	0.9
306.2	1195.6	0.9
307.2	1194.9	0.9
308.2	1194.2	0.9
313.2	1190.8	0.9
318.2	1187.4	0.9
323.2	1184	0.9
333.2	1177.2	0.9
343.2	1170.4	0.9
353.2	1163.6	0.9

System: 1-butyl-3-methylimidazolium hexafluorophosphate; phases: Liquid
Fixed: Pressure, kPa = 101.325
Property: Refractive index (Na D-line) (Liquid); method: Standard Abbe refractometry
Temperature, K	Refractive index (Na D-line)	uncertainty
298.2	1.4095	0.0007
299.2	1.4093	0.0007
300.2	1.4091	0.0007
301.2	1.4089	0.0007
302.2	1.4087	0.0007
303.2	1.4085	0.0007
304.2	1.4083	0.0007
305.2	1.4081	0.0007
306.2	1.4079	0.0007
307.2	1.4077	0.0007
308.2	1.4075	0.0007

System: 1-butyl-3-methylimidazolium hexafluorophosphate; phases: Liquid
Fixed: Pressure, kPa = 101.325
Property: Mass density, kg/m3 (Liquid); method: Vibrating tube method
Temperature, K	Mass density, kg/m3	uncertainty
298.2	1363.9	0.9
299.2	1363.2	0.9
300.2	1362.4	0.9
301.2	1361.6	0.9
302.2	1360.8	0.9
303.2	1360.1	0.9
304.2	1359.3	0.9
305.2	1358.5	0.9
306.2	1357.8	0.9
307.2	1357	0.9
308.2	1356.2	0.9
313.2	1352.8	0.9
318.2	1348.8	0.9
323.2	1344.9	0.9
333.2	1336.9	0.9
343.2	1329	0.9
353.2	1321.1	0.9

System: 1-butyl-3-methylimidazolium methyl sulfate; phases: Liquid
Fixed: Pressure, kPa = 101.325
Property: Refractive index (Na D-line) (Liquid); method: Standard Abbe refractometry
Temperature, K	Refractive index (Na D-line)	uncertainty
298.2	1.4792	0.0008
299.2	1.4789	0.0008
300.2	1.4787	0.0008
301.2	1.4784	0.0008
302.2	1.4782	0.0008
303.2	1.4779	0.0008
304.2	1.4776	0.0008
305.2	1.4774	0.0008
306.2	1.4771	0.0008
307.2	1.4768	0.0008
308.2	1.4766	0.0008

System: 1-butyl-3-methylimidazolium methyl sulfate; phases: Liquid
Fixed: Pressure, kPa = 101.325
Property: Mass density, kg/m3 (Liquid); method: Vibrating tube method
Temperature, K	Mass density, kg/m3	uncertainty
298.2	1205.7	1.4
299.2	1205	1.4
300.2	1204.4	1.4
301.2	1203.8	1.4
302.2	1203.1	1.4
303.2	1202.5	1.4
304.2	1201.9	1.4
305.2	1201.2	1.4
306.2	1200.6	1.4
307.2	1199.9	1.4
308.2	1199.3	1.4
313.2	1196.2	1.4
318.2	1193	1.4
323.2	1189.9	1.4
333.2	1183.5	1.4
343.2	1177	1.4
353.2	1170.6	1.4

System: 1-butyl-3-methylimidazolium trifluoromethanesulfonate; phases: Liquid
Fixed: Pressure, kPa = 101.325
Property: Refractive index (Na D-line) (Liquid); method: Standard Abbe refractometry
Temperature, K	Refractive index (Na D-line)	uncertainty
298.2	1.4368	0.0008
299.2	1.4366	0.0008
300.2	1.4364	0.0008
301.2	1.4362	0.0008
302.2	1.436	0.0008
303.2	1.4357	0.0008
304.2	1.4355	0.0008
305.2	1.4352	0.0008
306.2	1.435	0.0008
307.2	1.4348	0.0008
308.2	1.4346	0.0008

System: 1-butyl-3-methylimidazolium trifluoromethanesulfonate; phases: Liquid
Fixed: Pressure, kPa = 101.325
Property: Mass density, kg/m3 (Liquid); method: Vibrating tube method
Temperature, K	Mass density, kg/m3	uncertainty
298.2	1303.8	1.5
299.2	1303	1.5
300.2	1302.3	1.5
301.2	1301.5	1.5
302.2	1300.8	1.5
303.2	1300	1.5
304.2	1299.2	1.5
305.2	1298.5	1.5
306.2	1297.7	1.5
307.2	1297	1.5
308.2	1296.2	1.5
313.2	1292.4	1.5
318.2	1288.6	1.5
323.2	1284.7	1.5
333.2	1277.1	1.5
343.2	1269.5	1.4
353.2	1261.9	1.4
