Measured thermophysical data. The measurements of coexistence curves and light scattering for {xC6H5CN + (1- x)CH3(CH2)6CH3} in the critical region
Source: J. Chem. Thermodyn., 2008, 10.1016/j.jct.2008.07.008
Compound 1: benzonitrile, C7H5N, InChI=1S/C7H5N/c8-6-7-4-2-1-3-5-7/h1-5H, purity 99%
Compound 2: octane, C8H18, InChI=1S/C8H18/c1-3-5-7-8-6-4-2/h3-8H2,1-2H3, purity 99%

System: benzonitrile; phases: Liquid
Fixed: Pressure, kPa = 101.325
Property: Refractive index (Na D-line) (Liquid); method: Standard Abbe refractometry
Temperature, K	Refractive index (Na D-line)	uncertainty
277.425	1.5321	0.0004
278.326	1.5318	0.0004
279.487	1.5312	0.0004
280.36	1.5307	0.0004
280.376	1.5307	0.0004
280.861	1.5305	0.0004
281.968	1.5299	0.0004
284.13	1.5289	0.0004

System: octane; phases: Liquid
Fixed: Pressure, kPa = 101.325
Property: Refractive index (Na D-line) (Liquid); method: Standard Abbe refractometry
Temperature, K	Refractive index (Na D-line)	uncertainty
277.796	1.404	0.0004
279.678	1.4032	0.0004
280.36	1.4028	0.0004
280.512	1.4027	0.0004
281.662	1.4021	0.0004
282.652	1.4017	0.0004
283.876	1.4012	0.0004
284.733	1.4007	0.0004

System: benzonitrile + octane; phases: Liquid
Fixed: Pressure, kPa = 101
Fixed: Temperature, K = 280.36
Property: Refractive index (Na D-line) (Liquid); method: Standard Abbe refractometry
Mole fraction of benzonitrile	Refractive index (Na D-line)	uncertainty
0	1.4028	0.0004
0.092	1.4104	0.0004
0.244	1.4248	0.0004
0.344	1.4353	0.0005
0.558	1.4613	0.0005
0.644	1.4726	0.0005
0.762	1.4901	0.0005
0.821	1.4996	0.0005
0.927	1.5176	0.0005
1	1.5307	0.0004

System: benzonitrile + octane; phases: Liquid mixture 1, Liquid mixture 2
Fixed: Pressure, kPa = 101
Property: Mole fraction of benzonitrile (Liquid mixture 1); method: Index of refraction calibration data
Temperature, K	Mole fraction of benzonitrile	uncertainty
277.501	0.232	0.002
278.366	0.246	0.002
278.974	0.256	0.002
279.446	0.264	0.002
279.912	0.273	0.002
280.464	0.286	0.002
280.943	0.295	0.002
281.36	0.305	0.002
281.88	0.323	0.002
282.101	0.332	0.002
282.295	0.338	0.002
282.516	0.351	0.002
282.617	0.356	0.002
282.858	0.368	0.003
283.049	0.394	0.004
283.161	0.411	0.004
283.195	0.422	0.008
283.206	0.428	0.008
283.215	0.433	0.011
283.22	0.438	0.013
283.222	0.444	0.016

System: benzonitrile + octane; phases: Liquid mixture 2, Liquid mixture 1
Fixed: Pressure, kPa = 101
Property: Mole fraction of benzonitrile (Liquid mixture 2); method: Index of refraction calibration data
Temperature, K	Mole fraction of benzonitrile	uncertainty
277.501	0.678	0.002
278.366	0.663	0.002
278.974	0.655	0.002
279.446	0.647	0.002
279.912	0.64	0.002
280.464	0.628	0.002
280.943	0.619	0.002
281.36	0.609	0.002
281.88	0.594	0.002
282.101	0.586	0.002
282.295	0.578	0.002
282.516	0.569	0.002
282.617	0.563	0.002
282.858	0.551	0.003
283.049	0.528	0.003
283.161	0.512	0.004
283.195	0.501	0.009
283.206	0.494	0.008
283.215	0.488	0.013
283.22	0.485	0.013
283.222	0.479	0.016

System: benzonitrile + octane; phases: Liquid
Fixed: Pressure, kPa = 101
Property: Refractive index (Na D-line) (Liquid); method: Standard Abbe refractometry
Mole fraction of benzonitrile	Temperature, K	Refractive index (Na D-line)	uncertainty
0.344	283.346	1.4339	0.0005
0.344	283.672	1.4337	0.0005
0.344	284.574	1.4333	0.0005
0.344	285.648	1.4327	0.0005
0.344	286.725	1.4322	0.0005
0.344	287.767	1.4318	0.0005
0.344	288.818	1.4313	0.0005
0.558	282.925	1.4599	0.0005
0.558	283.663	1.4597	0.0005
0.558	284.781	1.4591	0.0005
0.558	285.735	1.4586	0.0005
0.558	286.641	1.4583	0.0005
0.558	287.636	1.4578	0.0005
0.558	288.605	1.4574	0.0005
