Measured thermophysical data. Viscosity of CO2-rich mixtures from 243 K to 423 K at pressures up to 155 MPa: New experimental viscosity data and modelling
Source: J. Chem. Thermodyn., 2018, 10.1016/j.jct.2017.11.005
Compound 1: carbon dioxide, CO2, InChI=1S/CO2/c2-1-3, purity 99.995%

System: carbon dioxide; phases: Gas
Property: Viscosity, Pa*s (Gas); method: Capillary tube (Ostwald; Ubbelohde) method
Temperature, K	Pressure, kPa	Viscosity, Pa*s	uncertainty
308.2	1200	1.53e-05	5e-07
308.2	2070	1.54e-05	5e-07
308.2	11330	6.38e-05	1.2e-06
308.2	22090	8.82e-05	1.7e-06
308.2	34970	0.0001068	2.1e-06
308.2	68930	0.0001441	2.8e-06
308.2	101200	0.0001733	3.6e-06
308.2	150520	0.000222	4.7e-06
323.2	1270	1.61e-05	5e-07
323.2	2050	1.63e-05	5e-07
323.2	5040	1.74e-05	5e-07
323.2	11440	3.98e-05	1e-06
323.2	20670	7.11e-05	1.5e-06
323.2	50820	0.000112	2.4e-06
323.2	105530	0.0001606	3.5e-06
323.2	150430	0.0001953	4.3e-06
