Measured thermophysical data. Solubilities and partial molar volumes of N,N0-dibutyl-oxalamide,  N,N0-dihexyl-oxalamide, N,N0-dioctyl-oxalamide in supercritical carbon dioxide
Source: J. Chem. Thermodyn., 2012, 10.1016/j.jct.2012.05.014
Compound 1: N,N'-dibutyloxalamide, C10H20N2O2, InChI=1S/C10H20N2O2/c1-3-5-7-11-9(13)10(14)12-8-6-4-2/h3-8H2,1-2H3,(H,11,13)(H,12,14)
Compound 2: N1,N2-dihexyloxalamide, C14H28N2O2, InChI=1S/C14H28N2O2/c1-3-5-7-9-11-15-13(17)14(18)16-12-10-8-6-4-2/h3-12H2,1-2H3,(H,15,17)(H,16,18)
Compound 3: N1,N2-dioctyloxalamide, C18H36N2O2, InChI=1S/C18H36N2O2/c1-3-5-7-9-11-13-15-19-17(21)18(22)20-16-14-12-10-8-6-4-2/h3-16H2,1-2H3,(H,19,21)(H,20,22)
Compound 4: carbon dioxide, CO2, InChI=1S/CO2/c2-1-3, purity 99.99%

System: carbon dioxide + N,N'-dibutyloxalamide; phases: Fluid (supercritical or subcritical phases), Crystal
Property: Solid-liquid equilibrium temperature, K (Fluid (supercritical or subcritical phases)); method: VISOBS
Pressure, kPa	Mole fraction of N,N'-dibutyloxalamide	Solid-liquid equilibrium temperature, K	uncertainty
9100	0.0002628	313	1
9300	0.0005167	313	1
9500	0.0008035	313	1
9700	0.0011362	313	1
9800	0.0012948	313	1
10300	0.0001531	323	1
10600	0.0003084	323	1
10900	0.000518	323	1
11100	0.0007008	323	1
11300	0.000942	323	1
11600	0.0003355	333	2
12000	0.0005099	333	2
12100	0.0003508	343	2
12300	0.0007204	333	2
12500	0.000503	343	3
12500	0.0009202	333	2
12600	0.0003735	353	3
12700	0.001115	333	1
12800	0.000639	343	2
13000	0.0007821	343	2
13100	0.0005294	353	2
13200	0.0009026	343	2
13500	0.0006999	353	2
13800	0.0008396	353	2
14000	0.0009729	353	2

System: carbon dioxide + N,N'-dibutyloxalamide; phases: Fluid (supercritical or subcritical phases)
Property: Mass density, kg/m3 (Fluid (supercritical or subcritical phases)); method: Gravimetric method
Temperature, K	Pressure, kPa	Mole fraction of N,N'-dibutyloxalamide	Mass density, kg/m3	uncertainty
313	9100	0.0002628	517.19	0.12
313	9300	0.0005167	556.08	0.13
313	9500	0.0008035	584.52	0.14
313	9700	0.0011362	606.4	0.15
313	9800	0.0012948	615.65	0.15
323	10300	0.0001531	423.74	0.1
323	10600	0.0003084	460.74	0.11
323	10900	0.000518	495.1	0.12
323	11100	0.0007008	515.81	0.12
323	11300	0.000942	534.61	0.13
333	11600	0.0003355	405.21	0.1
333	12000	0.0005099	436.26	0.1
333	12300	0.0007204	458.89	0.11
333	12500	0.0009202	473.43	0.11
333	12700	0.001115	487.42	0.12
343	12100	0.0003508	352.31	0.08
343	12500	0.000503	374.67	0.09
343	12800	0.000639	391.64	0.09
343	13000	0.0007821	402.95	0.1
343	13200	0.0009026	414.22	0.1
353	12600	0.0003735	322.59	0.08
353	13100	0.0005294	344.33	0.08
353	13500	0.0006999	362.01	0.09
353	13800	0.0008396	375.36	0.09
353	14000	0.0009729	384.26	0.09

System: carbon dioxide + N1,N2-dihexyloxalamide; phases: Fluid (supercritical or subcritical phases), Crystal
Property: Solid-liquid equilibrium temperature, K (Fluid (supercritical or subcritical phases)); method: VISOBS
Pressure, kPa	Mole fraction of N1,N2-dihexyloxalamide	Solid-liquid equilibrium temperature, K	uncertainty
9100	0.000112	313	1
9500	0.0002518	313	1
9800	0.000392	313	1
10100	0.0005214	313	1
10400	0.0006463	313	1
10700	0.0001583	323	1
11100	0.0003041	323	1
11400	0.0004264	323	1
11700	0.0005407	323	1
11900	0.0002196	333	1
12000	0.0006537	323	1
12300	0.0003629	333	1
12500	0.000277	343	1
12600	0.0004822	333	1
12800	0.0003133	353	1
12900	0.0003827	343	1
12900	0.0006024	333	1
13200	0.0004661	343	1
13200	0.0007245	333	1
13300	0.0004305	353	1
13500	0.00056	343	1
13700	0.0005336	353	1
13700	0.0006445	343	1
14000	0.0006155	353	1
14300	0.0007224	353	1

System: carbon dioxide + N1,N2-dihexyloxalamide; phases: Fluid (supercritical or subcritical phases)
Property: Mass density, kg/m3 (Fluid (supercritical or subcritical phases)); method: Gravimetric method
Temperature, K	Pressure, kPa	Mole fraction of N1,N2-dihexyloxalamide	Mass density, kg/m3	uncertainty
313	9100	0.000112	517.19	0.12
313	9500	0.0002518	584.52	0.14
313	9800	0.000392	615.65	0.15
313	10100	0.0005214	638.82	0.15
313	10400	0.0006463	657.22	0.16
323	10700	0.0001583	472.58	0.11
323	11100	0.0003041	515.81	0.12
323	11400	0.0004264	543.31	0.13
323	11700	0.0005407	566.85	0.14
323	12000	0.0006537	587.07	0.14
333	11900	0.0002196	428.55	0.1
333	12300	0.0003629	458.89	0.11
333	12600	0.0004822	480.5	0.12
333	12900	0.0006024	500.8	0.12
333	13200	0.0007245	519.67	0.12
343	12500	0.000277	374.67	0.09
343	12900	0.0003827	397.3	0.1
343	13200	0.0004661	414.22	0.1
343	13500	0.00056	430.94	0.1
343	13700	0.0006445	441.9	0.11
353	12800	0.0003133	331.22	0.08
353	13300	0.0004305	353.15	0.08
353	13700	0.0005336	370.9	0.09
353	14000	0.0006155	384.26	0.09
353	14300	0.0007224	397.58	0.1

System: carbon dioxide + N1,N2-dioctyloxalamide; phases: Fluid (supercritical or subcritical phases), Crystal
Property: Solid-liquid equilibrium temperature, K (Fluid (supercritical or subcritical phases)); method: VISOBS
Pressure, kPa	Mole fraction of N1,N2-dioctyloxalamide	Solid-liquid equilibrium temperature, K	uncertainty
11700	0.0001449	313	1
12000	0.0001679	313	1
12300	0.0001146	323	1
12500	0.0002108	313	1
12900	9.49e-05	333	1
12900	0.0001562	323	1
13000	0.00025	313	1
13400	9.77e-05	343	1
13400	0.000212	323	1
13400	0.000284	313	1
13500	0.0001511	333	1
13600	0.0001134	353	1
13700	0.0001344	343	1
13900	0.0002093	333	1
13900	0.0002628	323	1
14000	0.0001546	353	1
14000	0.0001772	343	1
14300	0.0002091	343	1
14400	0.0002019	353	1
14400	0.0002622	333	1
14400	0.0003178	323	1
14600	0.0002392	343	1
14700	0.0002432	353	1
14800	0.0003278	333	1
15000	0.0002821	353	1

System: carbon dioxide + N1,N2-dioctyloxalamide; phases: Fluid (supercritical or subcritical phases)
Property: Mass density, kg/m3 (Fluid (supercritical or subcritical phases)); method: Gravimetric method
Temperature, K	Pressure, kPa	Mole fraction of N1,N2-dioctyloxalamide	Mass density, kg/m3	uncertainty
313	11700	0.0001449	710.44	32.24
313	12000	0.0001679	719.38	14.08
313	12500	0.0002108	732.67	39.64
313	13000	0.00025	744.41	12.39
313	13400	0.000284	752.9	6.01
323	12300	0.0001146	604.62	11.32
323	12900	0.0001562	633.72	3.93
323	13400	0.000212	653.57	3.75
323	13900	0.0002628	670.57	5.05
323	14400	0.0003178	685.43	4.19
333	12900	9.49e-05	500.8	8.24
333	13500	0.0001511	537.09	3.36
333	13900	0.0002093	558.17	9.47
333	14400	0.0002622	581.45	3.8
333	14800	0.0003278	597.96	4.64
343	13400	9.77e-05	425.4	5.72
343	13700	0.0001344	441.9	7.79
343	14000	0.0001772	457.97	6.31
343	14300	0.0002091	473.49	12.04
343	14600	0.0002392	488.4	11.46
353	13600	0.0001134	366.46	6.28
353	14000	0.0001546	384.26	8.69
353	14400	0.0002019	402	7.24
353	14700	0.0002432	415.16	6.49
353	15000	0.0002821	428.15	6.66
