Measured thermophysical data. Comparative study of physical properties of binary mixtures of halogen free ionic liquids with alcohols
Source: J. Chem. Thermodyn., 2017, 10.1016/j.jct.2017.02.022
Compound 1: 1-ethyl-3-methylimidazolium methylsulfate, C7H14N2O4S, InChI=1S/C6H11N2.CH4O4S/c1-3-8-5-4-7(2)6-8;1-5-6(2,3)4/h4-6H,3H2,1-2H3;1H3,(H,2,3,4)/q+1;/p-1, purity 98%
Compound 2: 1,3-dimethylimidazolium methylsulfate, C6H12N2O4S, InChI=1S/C5H9N2.CH4O4S/c1-6-3-4-7(2)5-6;1-5-6(2,3)4/h3-5H,1-2H3;1H3,(H,2,3,4)/q+1;/p-1, purity 97%
Compound 3: propan-1-ol, C3H8O, InChI=1S/C3H8O/c1-2-3-4/h4H,2-3H2,1H3, purity 99.7%
Compound 4: butan-1-ol, C4H10O, InChI=1S/C4H10O/c1-2-3-4-5/h5H,2-4H2,1H3, purity 99.8%
Compound 5: pentan-1-ol, C5H12O, InChI=1S/C5H12O/c1-2-3-4-5-6/h6H,2-5H2,1H3, purity 99.8%

System: 1-ethyl-3-methylimidazolium methylsulfate; phases: Liquid
Fixed: Pressure, kPa = 101.325
Property: Molar heat capacity at constant pressure, J/K/mol (Liquid); method: Small sample (50 mg) DSC
Temperature, K	Molar heat capacity at constant pressure, J/K/mol	uncertainty
298	313.3	40.2
303	319.9	40.3
308	326.6	40.3
313	333.2	40.3

System: 1-ethyl-3-methylimidazolium methylsulfate; phases: Liquid
Fixed: Pressure, kPa = 101.3
Property: Mass density, kg/m3 (Liquid); method: Vibrating tube method
Temperature, K	Mass density, kg/m3	uncertainty
298	1292	2
303	1289	2
308	1285	2
313	1282	2

System: 1-ethyl-3-methylimidazolium methylsulfate; phases: Liquid
Fixed: Pressure, kPa = 101.3
Property: Refractive index (Na D-line) (Liquid); method: Standard Abbe refractometry
Temperature, K	Refractive index (Na D-line)	uncertainty
298	1.48	0.01
303	1.479	0.01
308	1.478	0.01
313	1.476	0.01

System: 1-ethyl-3-methylimidazolium methylsulfate; phases: Liquid
Fixed: Pressure, kPa = 101.3
Fixed: Frequency, MHz = 3
Property: Speed of sound, m/s (Liquid); method: Sing-around technique in a fixed-path interferometer
Temperature, K	Speed of sound, m/s	uncertainty
298	1762	20
303	1750	20
308	1739	20
313	1727	20

System: 1,3-dimethylimidazolium methylsulfate; phases: Liquid
Fixed: Pressure, kPa = 101.325
Property: Molar heat capacity at constant pressure, J/K/mol (Liquid); method: Small sample (50 mg) DSC
Temperature, K	Molar heat capacity at constant pressure, J/K/mol	uncertainty
298	298.1	40.2
303	303.1	40.2
308	308	40.2
313	312.9	40.2

System: 1,3-dimethylimidazolium methylsulfate; phases: Liquid
Fixed: Pressure, kPa = 101.3
Property: Mass density, kg/m3 (Liquid); method: Vibrating tube method
Temperature, K	Mass density, kg/m3	uncertainty
298	1329	4
303	1322	4
308	1319	4
313	1315	4

System: 1,3-dimethylimidazolium methylsulfate; phases: Liquid
Fixed: Pressure, kPa = 101.3
Property: Refractive index (Na D-line) (Liquid); method: Standard Abbe refractometry
Temperature, K	Refractive index (Na D-line)	uncertainty
298	1.483	0.01
303	1.481	0.01
308	1.48	0.01
313	1.479	0.01

System: 1,3-dimethylimidazolium methylsulfate; phases: Liquid
Fixed: Pressure, kPa = 101.3
Fixed: Frequency, MHz = 3
Property: Speed of sound, m/s (Liquid); method: Sing-around technique in a fixed-path interferometer
Temperature, K	Speed of sound, m/s	uncertainty
298	1811	20
303	1799	20
308	1787	20
313	1775	20

System: propan-1-ol; phases: Liquid
Fixed: Pressure, kPa = 101.3
Property: Mass density, kg/m3 (Liquid); method: Vibrating tube method
Temperature, K	Mass density, kg/m3	uncertainty
298	800	2
303	796	2
308	792	2
313	789	2

System: propan-1-ol; phases: Liquid
Fixed: Pressure, kPa = 101.3
Property: Refractive index (Na D-line) (Liquid); method: Standard Abbe refractometry
Temperature, K	Refractive index (Na D-line)	uncertainty
298	1.383	0.01
303	1.382	0.01
308	1.38	0.01
313	1.378	0.01

System: propan-1-ol; phases: Liquid
Fixed: Pressure, kPa = 101.3
Fixed: Frequency, MHz = 3
Property: Speed of sound, m/s (Liquid); method: Sing-around technique in a fixed-path interferometer
Temperature, K	Speed of sound, m/s	uncertainty
298	1208	20
303	1191	20
308	1174	20
313	1158	20

System: butan-1-ol; phases: Liquid
Fixed: Pressure, kPa = 101.3
Property: Mass density, kg/m3 (Liquid); method: Vibrating tube method
Temperature, K	Mass density, kg/m3	uncertainty
298	806	2
303	802	2
308	798	2
313	794	2

System: butan-1-ol; phases: Liquid
Fixed: Pressure, kPa = 101.3
Property: Refractive index (Na D-line) (Liquid); method: Standard Abbe refractometry
Temperature, K	Refractive index (Na D-line)	uncertainty
298	1.397	0.01
303	1.395	0.01
308	1.392	0.01
313	1.389	0.01

System: butan-1-ol; phases: Liquid
Fixed: Pressure, kPa = 101.3
Fixed: Frequency, MHz = 3
Property: Speed of sound, m/s (Liquid); method: Sing-around technique in a fixed-path interferometer
Temperature, K	Speed of sound, m/s	uncertainty
298	1240	20
303	1224	20
308	1206	20
313	1190	20

System: pentan-1-ol; phases: Liquid
Fixed: Pressure, kPa = 101.3
Property: Mass density, kg/m3 (Liquid); method: Vibrating tube method
Temperature, K	Mass density, kg/m3	uncertainty
298	811	2
303	807	2
308	803	2
313	800	2

System: pentan-1-ol; phases: Liquid
Fixed: Pressure, kPa = 101.3
Property: Refractive index (Na D-line) (Liquid); method: Standard Abbe refractometry
Temperature, K	Refractive index (Na D-line)	uncertainty
298	1.408	0.01
303	1.407	0.01
308	1.406	0.01
313	1.404	0.01

System: pentan-1-ol; phases: Liquid
Fixed: Pressure, kPa = 101.3
Fixed: Frequency, MHz = 3
Property: Speed of sound, m/s (Liquid); method: Sing-around technique in a fixed-path interferometer
Temperature, K	Speed of sound, m/s	uncertainty
298	1276	20
303	1259	20
308	1242	20
313	1226	20

System: propan-1-ol + 1-ethyl-3-methylimidazolium methylsulfate; phases: Liquid
Fixed: Pressure, kPa = 101.3
Property: Mass density, kg/m3 (Liquid); method: Vibrating tube method
Temperature, K	Mole fraction of 1-ethyl-3-methylimidazolium methylsulfate	Mass density, kg/m3	uncertainty
298	0	800	2
298	0.059	864	3
298	0.228	1003	3
298	0.375	1090	2
298	0.524	1156	2
298	0.72	1223	2
298	0.874	1264	2
298	1	1292	2
303	0	796	2
303	0.059	859	3
303	0.228	998	3
303	0.375	1085	2
303	0.524	1152	2
303	0.72	1219	2
303	0.874	1260	2
303	1	1289	2
308	0	792	2
308	0.059	855	3
308	0.228	993	3
308	0.375	1080	2
308	0.524	1148	2
308	0.72	1215	2
308	0.874	1257	2
308	1	1285	2
313	0	789	2
313	0.059	851	3
313	0.228	989	3
313	0.375	1076	2
313	0.524	1143	2
313	0.72	1211	2
313	0.874	1253	2
313	1	1282	2

System: propan-1-ol + 1-ethyl-3-methylimidazolium methylsulfate; phases: Liquid
Fixed: Pressure, kPa = 101.3
Property: Refractive index (Na D-line) (Liquid); method: Standard Abbe refractometry
Temperature, K	Mole fraction of 1-ethyl-3-methylimidazolium methylsulfate	Refractive index (Na D-line)	uncertainty
298	0	1.383	0.01
298	0.059	1.394	0.01
298	0.228	1.419	0.01
298	0.375	1.435	0.01
298	0.524	1.448	0.01
298	0.72	1.463	0.01
298	0.874	1.473	0.01
298	1	1.48	0.01
303	0	1.382	0.01
303	0.059	1.393	0.01
303	0.228	1.417	0.01
303	0.375	1.433	0.01
303	0.524	1.446	0.01
303	0.72	1.461	0.01
303	0.874	1.471	0.01
303	1	1.479	0.01
308	0	1.38	0.01
308	0.059	1.391	0.01
308	0.228	1.415	0.01
308	0.375	1.431	0.01
308	0.524	1.444	0.01
308	0.72	1.459	0.01
308	0.874	1.469	0.01
308	1	1.478	0.01
313	0	1.378	0.01
313	0.059	1.389	0.01
313	0.228	1.413	0.01
313	0.375	1.428	0.01
313	0.524	1.442	0.01
313	0.72	1.457	0.01
313	0.874	1.468	0.01
313	1	1.476	0.01

System: propan-1-ol + 1-ethyl-3-methylimidazolium methylsulfate; phases: Liquid
Fixed: Pressure, kPa = 101.3
Fixed: Frequency, MHz = 3
Property: Speed of sound, m/s (Liquid); method: Sing-around technique in a fixed-path interferometer
Temperature, K	Mole fraction of 1-ethyl-3-methylimidazolium methylsulfate	Speed of sound, m/s	uncertainty
298	0	1208	20
298	0.059	1247	20
298	0.228	1377	20
298	0.375	1487	20
298	0.524	1588	20
298	0.72	1681	20
298	0.874	1730	20
298	1	1762	20
303	0	1191	20
303	0.059	1230	20
303	0.228	1362	20
303	0.375	1473	20
303	0.524	1574	20
303	0.72	1668	20
303	0.874	1717	20
303	1	1750	20
308	0	1174	20
308	0.059	1214	20
308	0.228	1347	20
308	0.375	1458	20
308	0.524	1560	20
308	0.72	1654	20
308	0.874	1704	20
308	1	1739	20
313	0	1158	20
313	0.059	1197	20
313	0.228	1332	20
313	0.375	1443	20
313	0.524	1546	20
313	0.72	1641	20
313	0.874	1692	20
313	1	1727	20

System: butan-1-ol + 1-ethyl-3-methylimidazolium methylsulfate; phases: Liquid
Fixed: Pressure, kPa = 101.3
Property: Mass density, kg/m3 (Liquid); method: Vibrating tube method
Temperature, K	Mole fraction of 1-ethyl-3-methylimidazolium methylsulfate	Mass density, kg/m3	uncertainty
298	0	806	2
298	0.041	843	3
298	0.219	976	2
298	0.417	1087	2
298	0.571	1156	2
298	0.731	1214	2
298	0.909	1268	2
298	1	1292	2
303	0	802	2
303	0.041	839	3
303	0.219	972	2
303	0.417	1083	2
303	0.571	1152	2
303	0.731	1210	2
303	0.909	1264	2
303	1	1289	2
308	0	798	2
308	0.041	835	3
308	0.219	967	2
308	0.417	1078	2
308	0.571	1147	2
308	0.731	1206	2
308	0.909	1261	2
308	1	1285	2
313	0	794	2
313	0.041	830	3
313	0.219	963	2
313	0.417	1074	2
313	0.571	1143	2
313	0.731	1202	2
313	0.909	1257	2
313	1	1282	2

System: butan-1-ol + 1-ethyl-3-methylimidazolium methylsulfate; phases: Liquid
Fixed: Pressure, kPa = 101.3
Property: Refractive index (Na D-line) (Liquid); method: Standard Abbe refractometry
Temperature, K	Mole fraction of 1-ethyl-3-methylimidazolium methylsulfate	Refractive index (Na D-line)	uncertainty
298	0	1.397	0.01
298	0.041	1.403	0.01
298	0.219	1.424	0.01
298	0.417	1.442	0.01
298	0.571	1.454	0.01
298	0.731	1.464	0.01
298	0.909	1.475	0.01
298	1	1.48	0.01
303	0	1.395	0.01
303	0.041	1.401	0.01
303	0.219	1.422	0.01
303	0.417	1.44	0.01
303	0.571	1.452	0.01
303	0.731	1.462	0.01
303	0.909	1.473	0.01
303	1	1.479	0.01
308	0	1.392	0.01
308	0.041	1.398	0.01
308	0.219	1.419	0.01
308	0.417	1.437	0.01
308	0.571	1.449	0.01
308	0.731	1.461	0.01
308	0.909	1.472	0.01
308	1	1.478	0.01
313	0	1.389	0.01
313	0.041	1.395	0.01
313	0.219	1.416	0.01
313	0.417	1.435	0.01
313	0.571	1.447	0.01
313	0.731	1.459	0.01
313	0.909	1.47	0.01
313	1	1.476	0.01

System: butan-1-ol + 1-ethyl-3-methylimidazolium methylsulfate; phases: Liquid
Fixed: Pressure, kPa = 101.3
Fixed: Frequency, MHz = 3
Property: Speed of sound, m/s (Liquid); method: Sing-around technique in a fixed-path interferometer
Temperature, K	Mole fraction of 1-ethyl-3-methylimidazolium methylsulfate	Speed of sound, m/s	uncertainty
298	0	1240	20
298	0.041	1260	20
298	0.219	1372	20
298	0.417	1504	20
298	0.571	1593	20
298	0.731	1662	20
298	0.909	1729	20
298	1	1762	20
303	0	1224	20
303	0.041	1243	20
303	0.219	1356	20
303	0.417	1488	20
303	0.571	1578	20
303	0.731	1648	20
303	0.909	1716	20
303	1	1750	20
308	0	1206	20
308	0.041	1226	20
308	0.219	1340	20
308	0.417	1473	20
308	0.571	1563	20
308	0.731	1634	20
308	0.909	1702	20
308	1	1739	20
313	0	1190	20
313	0.041	1209	20
313	0.219	1324	20
313	0.417	1457	20
313	0.571	1548	20
313	0.731	1620	20
313	0.909	1689	20
313	1	1727	20

System: pentan-1-ol + 1-ethyl-3-methylimidazolium methylsulfate; phases: Liquid
Fixed: Pressure, kPa = 101.3
Property: Mass density, kg/m3 (Liquid); method: Vibrating tube method
Temperature, K	Mole fraction of 1-ethyl-3-methylimidazolium methylsulfate	Mass density, kg/m3	uncertainty
298	0	811	2
298	0.05	849	3
298	0.284	999	2
298	0.459	1089	2
298	0.613	1157	2
298	0.768	1216	2
298	0.922	1268	2
298	1	1292	2
303	0	807	2
303	0.05	845	3
303	0.284	994	2
303	0.459	1085	2
303	0.613	1153	2
303	0.768	1212	2
303	0.922	1265	2
303	1	1289	2
308	0	803	2
308	0.05	841	3
308	0.284	990	2
308	0.459	1081	2
308	0.613	1149	2
308	0.768	1208	2
308	0.922	1261	2
308	1	1285	2
313	0	800	2
313	0.05	837	3
313	0.284	986	2
313	0.459	1077	2
313	0.613	1145	2
313	0.768	1205	2
313	0.922	1258	2
313	1	1282	2

System: pentan-1-ol + 1-ethyl-3-methylimidazolium methylsulfate; phases: Liquid
Fixed: Pressure, kPa = 101.3
Property: Refractive index (Na D-line) (Liquid); method: Standard Abbe refractometry
Temperature, K	Mole fraction of 1-ethyl-3-methylimidazolium methylsulfate	Refractive index (Na D-line)	uncertainty
298	0	1.408	0.01
298	0.05	1.413	0.01
298	0.284	1.435	0.01
298	0.459	1.448	0.01
298	0.613	1.458	0.01
298	0.768	1.468	0.01
298	0.922	1.476	0.01
298	1	1.48	0.01
303	0	1.407	0.01
303	0.05	1.412	0.01
303	0.284	1.434	0.01
303	0.459	1.447	0.01
303	0.613	1.457	0.01
303	0.768	1.466	0.01
303	0.922	1.475	0.01
303	1	1.479	0.01
308	0	1.406	0.01
308	0.05	1.411	0.01
308	0.284	1.432	0.01
308	0.459	1.445	0.01
308	0.613	1.455	0.01
308	0.768	1.465	0.01
308	0.922	1.473	0.01
308	1	1.478	0.01
313	0	1.404	0.01
313	0.05	1.409	0.01
313	0.284	1.43	0.01
313	0.459	1.443	0.01
313	0.613	1.453	0.01
313	0.768	1.463	0.01
313	0.922	1.472	0.01
313	1	1.476	0.01

System: pentan-1-ol + 1-ethyl-3-methylimidazolium methylsulfate; phases: Liquid
Fixed: Pressure, kPa = 101.3
Fixed: Frequency, MHz = 3
Property: Speed of sound, m/s (Liquid); method: Sing-around technique in a fixed-path interferometer
Temperature, K	Mole fraction of 1-ethyl-3-methylimidazolium methylsulfate	Speed of sound, m/s	uncertainty
298	0	1276	20
298	0.05	1291	20
298	0.284	1425	20
298	0.459	1527	20
298	0.613	1603	20
298	0.768	1662	20
298	0.922	1721	20
298	1	1762	20
303	0	1259	20
303	0.05	1274	20
303	0.284	1409	20
303	0.459	1511	20
303	0.613	1588	20
303	0.768	1648	20
303	0.922	1708	20
303	1	1750	20
308	0	1242	20
308	0.05	1258	20
308	0.284	1393	20
308	0.459	1496	20
308	0.613	1573	20
308	0.768	1634	20
308	0.922	1695	20
308	1	1739	20
313	0	1226	20
313	0.05	1241	20
313	0.284	1377	20
313	0.459	1480	20
313	0.613	1559	20
313	0.768	1620	20
313	0.922	1682	20
313	1	1727	20

System: propan-1-ol + 1,3-dimethylimidazolium methylsulfate; phases: Liquid
Fixed: Pressure, kPa = 101.3
Property: Mass density, kg/m3 (Liquid); method: Vibrating tube method
Temperature, K	Mole fraction of 1,3-dimethylimidazolium methylsulfate	Mass density, kg/m3	uncertainty
298	0	800	2
298	0.039	843	3
298	0.208	995	3
298	0.382	1107	2
298	0.561	1193	2
298	0.702	1246	3
298	0.912	1307	3
298	1	1329	4
303	0	796	2
303	0.039	839	3
303	0.208	989	3
303	0.382	1100	2
303	0.561	1186	2
303	0.702	1239	3
303	0.912	1301	3
303	1	1322	4
308	0	792	2
308	0.039	834	3
308	0.208	984	3
308	0.382	1095	2
308	0.561	1181	2
308	0.702	1234	3
308	0.912	1297	3
308	1	1319	4
313	0	789	2
313	0.039	830	3
313	0.208	979	3
313	0.382	1090	2
313	0.561	1176	2
313	0.702	1229	3
313	0.912	1293	3
313	1	1315	4

System: propan-1-ol + 1,3-dimethylimidazolium methylsulfate; phases: Liquid
Fixed: Pressure, kPa = 101.3
Property: Refractive index (Na D-line) (Liquid); method: Standard Abbe refractometry
Temperature, K	Mole fraction of 1,3-dimethylimidazolium methylsulfate	Refractive index (Na D-line)	uncertainty
298	0	1.383	0.01
298	0.039	1.389	0.01
298	0.208	1.413	0.01
298	0.382	1.434	0.01
298	0.561	1.452	0.01
298	0.702	1.464	0.01
298	0.912	1.477	0.01
298	1	1.483	0.01
303	0	1.382	0.01
303	0.039	1.387	0.01
303	0.208	1.41	0.01
303	0.382	1.432	0.01
303	0.561	1.45	0.01
303	0.702	1.461	0.01
303	0.912	1.476	0.01
303	1	1.481	0.01
308	0	1.38	0.01
308	0.039	1.385	0.01
308	0.208	1.408	0.01
308	0.382	1.429	0.01
308	0.561	1.447	0.01
308	0.702	1.459	0.01
308	0.912	1.474	0.01
308	1	1.48	0.01
313	0	1.378	0.01
313	0.039	1.382	0.01
313	0.208	1.404	0.01
313	0.382	1.426	0.01
313	0.561	1.444	0.01
313	0.702	1.456	0.01
313	0.912	1.472	0.01
313	1	1.479	0.01

System: propan-1-ol + 1,3-dimethylimidazolium methylsulfate; phases: Liquid
Fixed: Pressure, kPa = 101.3
Fixed: Frequency, MHz = 3
Property: Speed of sound, m/s (Liquid); method: Sing-around technique in a fixed-path interferometer
Temperature, K	Mole fraction of 1,3-dimethylimidazolium methylsulfate	Speed of sound, m/s	uncertainty
298	0	1208	20
298	0.039	1225	20
298	0.208	1348	20
298	0.382	1481	20
298	0.561	1605	20
298	0.702	1684	20
298	0.912	1773	20
298	1	1811	20
303	0	1191	20
303	0.039	1208	20
303	0.208	1332	20
303	0.382	1465	20
303	0.561	1590	20
303	0.702	1670	20
303	0.912	1760	20
303	1	1799	20
308	0	1174	20
308	0.039	1191	20
308	0.208	1316	20
308	0.382	1450	20
308	0.561	1575	20
308	0.702	1656	20
308	0.912	1747	20
308	1	1787	20
313	0	1158	20
313	0.039	1175	20
313	0.208	1300	20
313	0.382	1434	20
313	0.561	1561	20
313	0.702	1642	20
313	0.912	1734	20
313	1	1775	20

System: butan-1-ol + 1,3-dimethylimidazolium methylsulfate; phases: Liquid
Fixed: Pressure, kPa = 101.3
Property: Mass density, kg/m3 (Liquid); method: Vibrating tube method
Temperature, K	Mole fraction of 1,3-dimethylimidazolium methylsulfate	Mass density, kg/m3	uncertainty
298	0	806	2
298	0.063	861	3
298	0.221	982	2
298	0.432	1108	2
298	0.64	1205	3
298	0.781	1258	3
298	0.927	1307	3
298	1	1329	4
303	0	802	2
303	0.063	857	3
303	0.221	977	2
303	0.432	1102	2
303	0.64	1198	3
303	0.781	1252	3
303	0.927	1300	3
303	1	1322	4
308	0	798	2
308	0.063	852	3
308	0.221	972	2
308	0.432	1097	2
308	0.64	1193	3
308	0.781	1248	3
308	0.927	1297	3
308	1	1319	4
313	0	794	2
313	0.063	848	3
313	0.221	967	2
313	0.432	1092	2
313	0.64	1189	3
313	0.781	1243	3
313	0.927	1293	3
313	1	1315	4

System: butan-1-ol + 1,3-dimethylimidazolium methylsulfate; phases: Liquid
Fixed: Pressure, kPa = 101.3
Property: Refractive index (Na D-line) (Liquid); method: Standard Abbe refractometry
Temperature, K	Mole fraction of 1,3-dimethylimidazolium methylsulfate	Refractive index (Na D-line)	uncertainty
298	0	1.397	0.01
298	0.063	1.405	0.01
298	0.221	1.421	0.01
298	0.432	1.443	0.01
298	0.64	1.46	0.01
298	0.781	1.47	0.01
298	0.927	1.479	0.01
298	1	1.483	0.01
303	0	1.395	0.01
303	0.063	1.401	0.01
303	0.221	1.418	0.01
303	0.432	1.439	0.01
303	0.64	1.457	0.01
303	0.781	1.468	0.01
303	0.927	1.477	0.01
303	1	1.481	0.01
308	0	1.392	0.01
308	0.063	1.398	0.01
308	0.221	1.414	0.01
308	0.432	1.435	0.01
308	0.64	1.454	0.01
308	0.781	1.465	0.01
308	0.927	1.475	0.01
308	1	1.48	0.01
313	0	1.389	0.01
313	0.063	1.395	0.01
313	0.221	1.41	0.01
313	0.432	1.431	0.01
313	0.64	1.45	0.01
313	0.781	1.461	0.01
313	0.927	1.472	0.01
313	1	1.479	0.01

System: butan-1-ol + 1,3-dimethylimidazolium methylsulfate; phases: Liquid
Fixed: Pressure, kPa = 101.3
Fixed: Frequency, MHz = 3
Property: Speed of sound, m/s (Liquid); method: Sing-around technique in a fixed-path interferometer
Temperature, K	Mole fraction of 1,3-dimethylimidazolium methylsulfate	Speed of sound, m/s	uncertainty
298	0	1240	20
298	0.063	1263	20
298	0.221	1357	20
298	0.432	1500	20
298	0.64	1617	20
298	0.781	1688	20
298	0.927	1761	20
298	1	1811	20
303	0	1224	20
303	0.063	1246	20
303	0.221	1341	20
303	0.432	1485	20
303	0.64	1602	20
303	0.781	1675	20
303	0.927	1748	20
303	1	1799	20
308	0	1206	20
308	0.063	1229	20
308	0.221	1325	20
308	0.432	1469	20
308	0.64	1587	20
308	0.781	1661	20
308	0.927	1735	20
308	1	1787	20
313	0	1190	20
313	0.063	1213	20
313	0.221	1309	20
313	0.432	1454	20
313	0.64	1572	20
313	0.781	1647	20
313	0.927	1722	20
313	1	1775	20

System: pentan-1-ol + 1,3-dimethylimidazolium methylsulfate; phases: Liquid
Fixed: Pressure, kPa = 101.3
Property: Mass density, kg/m3 (Liquid); method: Vibrating tube method
Temperature, K	Mole fraction of 1,3-dimethylimidazolium methylsulfate	Mass density, kg/m3	uncertainty
298	0	811	2
298	0.1	884	2
298	0.35	1041	2
298	0.54	1140	2
298	0.661	1195	3
298	0.79	1250	3
298	0.931	1304	3
298	1	1329	4
303	0	807	2
303	0.1	879	2
303	0.35	1035	2
303	0.54	1134	2
303	0.661	1189	3
303	0.79	1243	3
303	0.931	1298	3
303	1	1322	4
308	0	803	2
308	0.1	875	2
308	0.35	1031	2
308	0.54	1129	2
308	0.661	1185	3
308	0.79	1239	3
308	0.931	1294	3
308	1	1319	4
313	0	800	2
313	0.1	871	2
313	0.35	1026	2
313	0.54	1125	2
313	0.661	1181	3
313	0.79	1235	3
313	0.931	1290	3
313	1	1315	4

System: pentan-1-ol + 1,3-dimethylimidazolium methylsulfate; phases: Liquid
Fixed: Pressure, kPa = 101.3
Property: Refractive index (Na D-line) (Liquid); method: Standard Abbe refractometry
Temperature, K	Mole fraction of 1,3-dimethylimidazolium methylsulfate	Refractive index (Na D-line)	uncertainty
298	0	1.408	0.01
298	0.1	1.417	0.01
298	0.35	1.439	0.01
298	0.54	1.454	0.01
298	0.661	1.463	0.01
298	0.79	1.471	0.01
298	0.931	1.479	0.01
298	1	1.483	0.01
303	0	1.407	0.01
303	0.1	1.416	0.01
303	0.35	1.438	0.01
303	0.54	1.452	0.01
303	0.661	1.461	0.01
303	0.79	1.469	0.01
303	0.931	1.477	0.01
303	1	1.481	0.01
308	0	1.406	0.01
308	0.1	1.414	0.01
308	0.35	1.436	0.01
308	0.54	1.451	0.01
308	0.661	1.459	0.01
308	0.79	1.467	0.01
308	0.931	1.476	0.01
308	1	1.48	0.01
313	0	1.404	0.01
313	0.1	1.412	0.01
313	0.35	1.433	0.01
313	0.54	1.448	0.01
313	0.661	1.456	0.01
313	0.79	1.465	0.01
313	0.931	1.474	0.01
313	1	1.479	0.01

System: pentan-1-ol + 1,3-dimethylimidazolium methylsulfate; phases: Liquid
Fixed: Pressure, kPa = 101.3
Fixed: Frequency, MHz = 3
Property: Speed of sound, m/s (Liquid); method: Sing-around technique in a fixed-path interferometer
Temperature, K	Mole fraction of 1,3-dimethylimidazolium methylsulfate	Speed of sound, m/s	uncertainty
298	0	1276	20
298	0.1	1311	20
298	0.35	1448	20
298	0.54	1552	20
298	0.661	1618	20
298	0.79	1672	20
298	0.931	1751	20
298	1	1811	20
303	0	1259	20
303	0.1	1295	20
303	0.35	1432	20
303	0.54	1536	20
303	0.661	1603	20
303	0.79	1659	20
303	0.931	1738	20
303	1	1799	20
308	0	1242	20
308	0.1	1278	20
308	0.35	1417	20
308	0.54	1521	20
308	0.661	1588	20
308	0.79	1645	20
308	0.931	1725	20
308	1	1787	20
313	0	1226	20
313	0.1	1261	20
313	0.35	1401	20
313	0.54	1506	20
313	0.661	1574	20
313	0.79	1631	20
313	0.931	1713	20
313	1	1775	20
