Measured thermophysical data. Conductivity and fluorescence studies on the micellization properties of sodium cholate and sodium deoxycholate in aqueous medium at different temperatures: Effect of selected amino acids
Source: J. Chem. Thermodyn., 2015, 10.1016/j.jct.2014.10.014
Compound 1: sodium cholate, C24H39NaO5, InChI=1S/C24H40O5.Na/c1-13(4-7-21(28)29)16-5-6-17-22-18(12-20(27)24(16,17)3)23(2)9-8-15(25)10-14(23)11-19(22)26;/h13-20,22,25-27H,4-12H2,1-3H3,(H,28,29);/q;+1/p-1/t13-,14+,15-,16-,17+,18+,19-,20+,22+,23+,24-;/m1./s1, purity 98%
Compound 2: sodium deoxycholate, C24H39NaO4, InChI=1S/C24H40O4.Na/c1-14(4-9-22(27)28)18-7-8-19-17-6-5-15-12-16(25)10-11-23(15,2)20(17)13-21(26)24(18,19)3;/h14-21,25-26H,4-13H2,1-3H3,(H,27,28);/q;+1/p-1/t14-,15-,16-,17+,18-,19+,20+,21+,23+,24-;/m1./s1, purity 98%
Compound 3: 2-aminoacetic acid, C2H5NO2, InChI=1S/C2H5NO2/c3-1-2(4)5/h1,3H2,(H,4,5), purity 99%
Compound 4: L-leucine, C6H13NO2, InChI=1S/C6H13NO2/c1-4(2)3-5(7)6(8)9/h4-5H,3,7H2,1-2H3,(H,8,9)/t5-/m0/s1, purity 99%
Compound 5: L-methionine, C5H11NO2S, InChI=1S/C5H11NO2S/c1-9-3-2-4(6)5(7)8/h4H,2-3,6H2,1H3,(H,7,8)/t4-/m0/s1, purity 98%
Compound 6: L-histidine, C6H9N3O2, InChI=1S/C6H9N3O2/c7-5(6(10)11)1-4-2-8-3-9-4/h2-3,5H,1,7H2,(H,8,9)(H,10,11)/t5-/m0/s1, purity 99%
Compound 7: water, H2O, InChI=1S/H2O/h1H2

System: L-histidine + sodium cholate + water; phases: Liquid
Fixed: Pressure, kPa = 100
Fixed: Solvent: Molality, mol/kg of L-histidine = 0.1
Property: Electrical conductivity, S/m (Liquid); method: Alternating current cell with electrodes
Temperature, K	Molality, mol/kg of sodium cholate	Electrical conductivity, S/m	uncertainty
293.15	0.001	0.016	0.0036
293.15	0.002	0.021	0.0037
293.15	0.003	0.0272	0.0038
293.15	0.004	0.0324	0.0036
293.15	0.005	0.0374	0.0038
293.15	0.006	0.0439	0.0038
293.15	0.007	0.0487	0.0038
293.15	0.008	0.0553	0.0038
293.15	0.009	0.0607	0.0037
293.15	0.01	0.0661	0.0038
293.15	0.011	0.072	0.0038
293.15	0.012	0.0779	0.0039
293.15	0.013	0.0841	0.0037
293.15	0.014	0.089	0.0036
293.15	0.015	0.094	0.0035
293.15	0.016	0.0983	0.0034
293.15	0.017	0.102	0.0034
293.15	0.018	0.106	0.0033
293.15	0.019	0.109	0.0032
293.15	0.02	0.112	0.0032
298.15	0.001	0.017	0.0038
298.15	0.002	0.023	0.0037
298.15	0.003	0.0276	0.0037
298.15	0.004	0.034	0.0038
298.15	0.005	0.0393	0.0038
298.15	0.006	0.0456	0.0038
298.15	0.007	0.051	0.0038
298.15	0.008	0.0575	0.0037
298.15	0.009	0.0619	0.0035
298.15	0.01	0.0669	0.0037
298.15	0.011	0.0723	0.0038
298.15	0.012	0.0785	0.0038
298.15	0.013	0.0838	0.0036
298.15	0.014	0.088	0.0034
298.15	0.015	0.0919	0.0034
298.15	0.016	0.0964	0.0034
298.15	0.017	0.1	0.0033
298.15	0.018	0.103	0.0033
298.15	0.019	0.107	0.0033
298.15	0.02	0.11	0.0038
303.15	0.001	0.018	0.0037
303.15	0.002	0.0234	0.0037
303.15	0.003	0.0288	0.0037
303.15	0.004	0.0343	0.0038
303.15	0.005	0.0406	0.0039
303.15	0.006	0.0464	0.0038
303.15	0.007	0.0523	0.0039
303.15	0.008	0.0585	0.0038
303.15	0.009	0.0641	0.0037
303.15	0.01	0.0696	0.0037
303.15	0.011	0.0752	0.0038
303.15	0.012	0.0809	0.0039
303.15	0.013	0.0874	0.0037
303.15	0.014	0.0921	0.0036
303.15	0.015	0.0969	0.0035
303.15	0.016	0.101	0.0034
303.15	0.017	0.1045	0.0034
303.15	0.018	0.1085	0.0034
303.15	0.019	0.1125	0.0034
303.15	0.02	0.1165	0.003
308.15	0.001	0.019	0.0038
308.15	0.002	0.0246	0.0037
308.15	0.003	0.0301	0.0037
308.15	0.004	0.0355	0.0038
308.15	0.005	0.0414	0.0038
308.15	0.006	0.0469	0.0038
308.15	0.007	0.0533	0.0039
308.15	0.008	0.059	0.0037
308.15	0.009	0.0643	0.0037
308.15	0.01	0.07	0.0038
308.15	0.011	0.0761	0.0037
308.15	0.012	0.081	0.0036
308.15	0.013	0.0864	0.0036
308.15	0.014	0.091	0.0035
308.15	0.015	0.095	0.0034
308.15	0.016	0.0995	0.0035
308.15	0.017	0.1035	0.0034
308.15	0.018	0.107	0.0033
308.15	0.019	0.1105	0.0034
308.15	0.02	0.1147	0.0042
313.15	0.001	0.0196	0.0038
313.15	0.002	0.0258	0.0038
313.15	0.003	0.0314	0.0038
313.15	0.004	0.0376	0.0039
313.15	0.005	0.0436	0.0038
313.15	0.006	0.0496	0.0038
313.15	0.007	0.0553	0.0038
313.15	0.008	0.061	0.0039
313.15	0.009	0.0675	0.004
313.15	0.01	0.074	0.0039
313.15	0.011	0.08	0.0039
313.15	0.012	0.0866	0.0039
313.15	0.013	0.0925	0.0037
313.15	0.014	0.097	0.0035
313.15	0.015	0.101	0.0035
313.15	0.016	0.1061	0.0036
313.15	0.017	0.1108	0.0035
313.15	0.018	0.115	0.0034
313.15	0.019	0.119	0.0033
313.15	0.02	0.1222	0.0031
318.15	0.001	0.021	0.004
318.15	0.002	0.0275	0.004
318.15	0.003	0.034	0.0041
318.15	0.004	0.0411	0.004
318.15	0.005	0.0473	0.0038
318.15	0.006	0.053	0.0039
318.15	0.007	0.0598	0.0039
318.15	0.008	0.0658	0.0038
318.15	0.009	0.0717	0.0039
318.15	0.01	0.0782	0.0039
318.15	0.011	0.0842	0.0038
318.15	0.012	0.0902	0.0038
318.15	0.013	0.096	0.0038
318.15	0.014	0.102	0.0036
318.15	0.015	0.106	0.0034
318.15	0.016	0.1095	0.0034
318.15	0.017	0.114	0.0035
318.15	0.018	0.118	0.0035
318.15	0.019	0.1225	0.0035
318.15	0.02	0.1265	0.0034

System: 2-aminoacetic acid + sodium cholate + water; phases: Liquid
Fixed: Pressure, kPa = 100
Fixed: Solvent: Molality, mol/kg of 2-aminoacetic acid = 0.1
Property: Electrical conductivity, S/m (Liquid); method: Alternating current cell with electrodes
Temperature, K	Molality, mol/kg of sodium cholate	Electrical conductivity, S/m	uncertainty
293.15	0.001	0.006	0.0038
293.15	0.002	0.012	0.0038
293.15	0.003	0.018	0.0038
293.15	0.004	0.0239	0.0038
293.15	0.005	0.0295	0.0038
293.15	0.006	0.0355	0.0038
293.15	0.007	0.0413	0.0037
293.15	0.008	0.0467	0.0037
293.15	0.009	0.0525	0.0037
293.15	0.01	0.0577	0.0037
293.15	0.011	0.0632	0.0037
293.15	0.012	0.0689	0.0039
293.15	0.013	0.0753	0.0038
293.15	0.014	0.0801	0.0035
293.15	0.015	0.0845	0.0034
293.15	0.016	0.0885	0.0034
293.15	0.017	0.0925	0.0034
293.15	0.018	0.096	0.0033
293.15	0.019	0.099	0.0032
293.15	0.02	0.102	0.0032
298.15	0.001	0.009	0.0044
298.15	0.002	0.015	0.0037
298.15	0.003	0.02	0.0037
298.15	0.004	0.0255	0.0038
298.15	0.005	0.0315	0.0038
298.15	0.006	0.037	0.0037
298.15	0.007	0.0425	0.0038
298.15	0.008	0.049	0.0039
298.15	0.009	0.055	0.0038
298.15	0.01	0.061	0.0038
298.15	0.011	0.067	0.004
298.15	0.012	0.074	0.0041
298.15	0.013	0.081	0.0037
298.15	0.014	0.085	0.0034
298.15	0.015	0.089	0.0034
298.15	0.016	0.093	0.0034
298.15	0.017	0.0965	0.0033
298.15	0.018	0.1	0.0033
298.15	0.019	0.103	0.0032
298.15	0.02	0.106	0.003
303.15	0.001	0.006	0.0035
303.15	0.002	0.012	0.0038
303.15	0.003	0.018	0.0039
303.15	0.004	0.0245	0.0039
303.15	0.005	0.0306	0.0039
303.15	0.006	0.0366	0.0037
303.15	0.007	0.0415	0.0037
303.15	0.008	0.0474	0.0038
303.15	0.009	0.0532	0.0039
303.15	0.01	0.0596	0.0039
303.15	0.011	0.0657	0.004
303.15	0.012	0.0725	0.004
303.15	0.013	0.079	0.0037
303.15	0.014	0.083	0.0034
303.15	0.015	0.087	0.0034
303.15	0.016	0.091	0.0034
303.15	0.017	0.095	0.0033
303.15	0.018	0.098	0.0032
303.15	0.019	0.101	0.0033
303.15	0.02	0.105	0.0035
308.15	0.001	0.007	0.0039
308.15	0.002	0.013	0.0038
308.15	0.003	0.019	0.0039
308.15	0.004	0.0251	0.0038
308.15	0.005	0.031	0.0038
308.15	0.006	0.0366	0.0039
308.15	0.007	0.0431	0.0039
308.15	0.008	0.049	0.0038
308.15	0.009	0.0551	0.0038
308.15	0.01	0.0609	0.0038
308.15	0.011	0.0666	0.0039
308.15	0.012	0.0733	0.004
308.15	0.013	0.08	0.0037
308.15	0.014	0.0845	0.0034
308.15	0.015	0.088	0.0034
308.15	0.016	0.092	0.0034
308.15	0.017	0.096	0.0034
308.15	0.018	0.1	0.0033
308.15	0.019	0.103	0.0032
308.15	0.02	0.106	0.0039
313.15	0.001	0.0075	0.0041
313.15	0.002	0.014	0.0041
313.15	0.003	0.0214	0.0042
313.15	0.004	0.0285	0.004
313.15	0.005	0.0347	0.004
313.15	0.006	0.042	0.0041
313.15	0.007	0.0485	0.0041
313.15	0.008	0.0558	0.0041
313.15	0.009	0.0625	0.004
313.15	0.01	0.069	0.0039
313.15	0.011	0.0751	0.004
313.15	0.012	0.0819	0.004
313.15	0.013	0.0885	0.0037
313.15	0.014	0.093	0.0034
313.15	0.015	0.0965	0.0033
313.15	0.016	0.1	0.0034
313.15	0.017	0.104	0.0034
313.15	0.018	0.1085	0.0035
313.15	0.019	0.1127	0.0034
313.15	0.02	0.1167	0.003
318.15	0.001	0.007	0.004
318.15	0.002	0.0135	0.0039
318.15	0.003	0.0194	0.0038
318.15	0.004	0.025	0.0041
318.15	0.005	0.0331	0.0042
318.15	0.006	0.0397	0.004
318.15	0.007	0.0465	0.004
318.15	0.008	0.053	0.0039
318.15	0.009	0.0592	0.0038
318.15	0.01	0.0645	0.0038
318.15	0.011	0.0709	0.004
318.15	0.012	0.0776	0.004
318.15	0.013	0.0841	0.0037
318.15	0.014	0.088	0.0034
318.15	0.015	0.092	0.0034
318.15	0.016	0.096	0.0034
318.15	0.017	0.1	0.0034
318.15	0.018	0.1043	0.0035
318.15	0.019	0.1085	0.0034
318.15	0.02	0.1125	0.0034

System: L-methionine + sodium cholate + water; phases: Liquid
Fixed: Pressure, kPa = 100
Fixed: Solvent: Molality, mol/kg of L-methionine = 0.1
Property: Electrical conductivity, S/m (Liquid); method: Alternating current cell with electrodes
Temperature, K	Molality, mol/kg of sodium cholate	Electrical conductivity, S/m	uncertainty
293.15	0.001	0.008	0.0037
293.15	0.002	0.0135	0.0037
293.15	0.003	0.0189	0.0037
293.15	0.004	0.0242	0.0037
293.15	0.005	0.0298	0.0037
293.15	0.006	0.0351	0.0038
293.15	0.007	0.0415	0.0038
293.15	0.008	0.0469	0.0037
293.15	0.009	0.0523	0.0037
293.15	0.01	0.0573	0.0036
293.15	0.011	0.0625	0.0035
293.15	0.012	0.0663	0.0034
293.15	0.013	0.0701	0.0034
293.15	0.014	0.0741	0.0034
293.15	0.015	0.078	0.0033
293.15	0.016	0.081	0.0033
293.15	0.017	0.085	0.0034
293.15	0.018	0.089	0.0034
293.15	0.019	0.093	0.0034
293.15	0.02	0.097	0.0034
298.15	0.001	0.007	0.0037
298.15	0.002	0.013	0.0038
298.15	0.003	0.019	0.0038
298.15	0.004	0.0243	0.0037
298.15	0.005	0.03	0.0038
298.15	0.006	0.0362	0.0039
298.15	0.007	0.0421	0.0038
298.15	0.008	0.0479	0.0038
298.15	0.009	0.054	0.0039
298.15	0.01	0.06	0.0038
298.15	0.011	0.0655	0.0036
298.15	0.012	0.0699	0.0034
298.15	0.013	0.0735	0.0033
298.15	0.014	0.077	0.0034
298.15	0.015	0.081	0.0034
298.15	0.016	0.085	0.0034
298.15	0.017	0.089	0.0034
298.15	0.018	0.093	0.0034
298.15	0.019	0.097	0.0034
298.15	0.02	0.101	0.0033
303.15	0.001	0.0076	0.0037
303.15	0.002	0.0137	0.0039
303.15	0.003	0.02	0.0039
303.15	0.004	0.0264	0.0039
303.15	0.005	0.0325	0.0038
303.15	0.006	0.038	0.0037
303.15	0.007	0.0435	0.0038
303.15	0.008	0.0495	0.0038
303.15	0.009	0.055	0.0038
303.15	0.01	0.061	0.0037
303.15	0.011	0.066	0.0037
303.15	0.012	0.0715	0.0036
303.15	0.013	0.076	0.0035
303.15	0.014	0.08	0.0034
303.15	0.015	0.084	0.0034
303.15	0.016	0.088	0.0034
303.15	0.017	0.092	0.0034
303.15	0.018	0.096	0.0034
303.15	0.019	0.1	0.0034
303.15	0.02	0.104	0.0036
308.15	0.001	0.0097	0.004
308.15	0.002	0.0158	0.0039
308.15	0.003	0.0221	0.0038
308.15	0.004	0.0273	0.0038
308.15	0.005	0.0337	0.0039
308.15	0.006	0.0395	0.0038
308.15	0.007	0.0455	0.0038
308.15	0.008	0.0512	0.0037
308.15	0.009	0.0565	0.0038
308.15	0.01	0.0625	0.0039
308.15	0.011	0.0691	0.004
308.15	0.012	0.0755	0.0039
308.15	0.013	0.0815	0.0036
308.15	0.014	0.0851	0.0034
308.15	0.015	0.0895	0.0035
308.15	0.016	0.0941	0.0034
308.15	0.017	0.098	0.0034
308.15	0.018	0.102	0.0034
308.15	0.019	0.106	0.0034
308.15	0.02	0.11	0.003
313.15	0.001	0.0099	0.0039
313.15	0.002	0.016	0.0039
313.15	0.003	0.0222	0.0038
313.15	0.004	0.0275	0.0038
313.15	0.005	0.0337	0.0038
313.15	0.006	0.0394	0.0038
313.15	0.007	0.045	0.0038
313.15	0.008	0.0508	0.0038
313.15	0.009	0.0566	0.0038
313.15	0.01	0.0622	0.0038
313.15	0.011	0.0681	0.0038
313.15	0.012	0.0741	0.0037
313.15	0.013	0.079	0.0035
313.15	0.014	0.083	0.0034
313.15	0.015	0.087	0.0034
313.15	0.016	0.091	0.0034
313.15	0.017	0.095	0.0034
313.15	0.018	0.099	0.0034
313.15	0.019	0.103	0.0034
313.15	0.02	0.107	0.0037
318.15	0.001	0.01	0.004
318.15	0.002	0.0168	0.0039
318.15	0.003	0.0224	0.0038
318.15	0.004	0.0283	0.0038
318.15	0.005	0.0341	0.0038
318.15	0.006	0.04	0.0037
318.15	0.007	0.045	0.0037
318.15	0.008	0.051	0.0037
318.15	0.009	0.056	0.0037
318.15	0.01	0.062	0.0038
318.15	0.011	0.068	0.0037
318.15	0.012	0.073	0.0037
318.15	0.013	0.079	0.0037
318.15	0.014	0.084	0.0035
318.15	0.015	0.088	0.0034
318.15	0.016	0.092	0.0034
318.15	0.017	0.096	0.0034
318.15	0.018	0.1	0.0034
318.15	0.019	0.104	0.0034
318.15	0.02	0.108	0.0034

System: L-leucine + sodium cholate + water; phases: Liquid
Fixed: Pressure, kPa = 100
Fixed: Solvent: Molality, mol/kg of L-leucine = 0.1
Property: Electrical conductivity, S/m (Liquid); method: Alternating current cell with electrodes
Temperature, K	Molality, mol/kg of sodium cholate	Electrical conductivity, S/m	uncertainty
293.15	0.001	0.0085	0.0037
293.15	0.002	0.014	0.0037
293.15	0.003	0.0193	0.0037
293.15	0.004	0.0246	0.0038
293.15	0.005	0.0307	0.0039
293.15	0.006	0.0368	0.0038
293.15	0.007	0.0426	0.0038
293.15	0.008	0.0482	0.0037
293.15	0.009	0.0538	0.0038
293.15	0.01	0.0595	0.0037
293.15	0.011	0.065	0.0038
293.15	0.012	0.0709	0.0038
293.15	0.013	0.077	0.0036
293.15	0.014	0.0805	0.0034
293.15	0.015	0.0848	0.0034
293.15	0.016	0.0887	0.0034
293.15	0.017	0.0925	0.0033
293.15	0.018	0.096	0.0033
293.15	0.019	0.0995	0.0033
293.15	0.02	0.103	0.0033
298.15	0.001	0.0077	0.0038
298.15	0.002	0.014	0.0038
298.15	0.003	0.0195	0.0037
298.15	0.004	0.0251	0.0038
298.15	0.005	0.0312	0.0039
298.15	0.006	0.0376	0.0038
298.15	0.007	0.0428	0.0037
298.15	0.008	0.048	0.0037
298.15	0.009	0.0536	0.0037
298.15	0.01	0.0587	0.0037
298.15	0.011	0.0644	0.0037
298.15	0.012	0.0699	0.0036
298.15	0.013	0.0741	0.0034
298.15	0.014	0.078	0.0034
298.15	0.015	0.082	0.0034
298.15	0.016	0.086	0.0034
298.15	0.017	0.0895	0.0033
298.15	0.018	0.093	0.0033
298.15	0.019	0.0965	0.0033
298.15	0.02	0.0998	0.0036
303.15	0.001	0.0078	0.0038
303.15	0.002	0.0135	0.0037
303.15	0.003	0.019	0.0038
303.15	0.004	0.025	0.0038
303.15	0.005	0.031	0.0037
303.15	0.006	0.036	0.0038
303.15	0.007	0.0423	0.0039
303.15	0.008	0.0483	0.0038
303.15	0.009	0.0536	0.0038
303.15	0.01	0.0597	0.0038
303.15	0.011	0.0649	0.0037
303.15	0.012	0.0705	0.0037
303.15	0.013	0.0754	0.0034
303.15	0.014	0.079	0.0034
303.15	0.015	0.083	0.0034
303.15	0.016	0.087	0.0034
303.15	0.017	0.091	0.0033
303.15	0.018	0.0942	0.0033
303.15	0.019	0.0975	0.0033
303.15	0.02	0.101	0.0034
308.15	0.001	0.008	0.0038
308.15	0.002	0.0139	0.0038
308.15	0.003	0.0196	0.0038
308.15	0.004	0.0256	0.0039
308.15	0.005	0.0319	0.0038
308.15	0.006	0.0374	0.0038
308.15	0.007	0.0437	0.0039
308.15	0.008	0.0499	0.0038
308.15	0.009	0.0557	0.0038
308.15	0.01	0.0612	0.0037
308.15	0.011	0.0663	0.0037
308.15	0.012	0.0721	0.0037
308.15	0.013	0.077	0.0035
308.15	0.014	0.081	0.0034
308.15	0.015	0.085	0.0034
308.15	0.016	0.089	0.0034
308.15	0.017	0.093	0.0034
308.15	0.018	0.097	0.0033
308.15	0.019	0.1003	0.0033
308.15	0.02	0.1037	0.0035
313.15	0.001	0.008	0.0037
313.15	0.002	0.014	0.0038
313.15	0.003	0.0196	0.0038
313.15	0.004	0.026	0.0039
313.15	0.005	0.0322	0.004
313.15	0.006	0.0389	0.0039
313.15	0.007	0.0444	0.0039
313.15	0.008	0.0515	0.004
313.15	0.009	0.0578	0.0038
313.15	0.01	0.0635	0.0037
313.15	0.011	0.069	0.0038
313.15	0.012	0.0749	0.0037
313.15	0.013	0.0795	0.0035
313.15	0.014	0.0839	0.0036
313.15	0.015	0.0892	0.0035
313.15	0.016	0.093	0.0034
313.15	0.017	0.097	0.0034
313.15	0.018	0.101	0.0034
313.15	0.019	0.105	0.0034
313.15	0.02	0.109	0.0033
318.15	0.001	0.0094	0.0037
318.15	0.002	0.0149	0.0038
318.15	0.003	0.0212	0.0039
318.15	0.004	0.0276	0.0039
318.15	0.005	0.0337	0.0039
318.15	0.006	0.04	0.0039
318.15	0.007	0.046	0.0039
318.15	0.008	0.0521	0.004
318.15	0.009	0.059	0.004
318.15	0.01	0.065	0.0039
318.15	0.011	0.0715	0.004
318.15	0.012	0.0781	0.0038
318.15	0.013	0.0829	0.0036
318.15	0.014	0.0877	0.0035
318.15	0.015	0.092	0.0034
318.15	0.016	0.096	0.0034
318.15	0.017	0.1	0.0034
318.15	0.018	0.104	0.0034
318.15	0.019	0.108	0.0034
318.15	0.02	0.112	0.0034

System: L-histidine + sodium deoxycholate + water; phases: Liquid
Fixed: Pressure, kPa = 100
Fixed: Solvent: Molality, mol/kg of L-histidine = 0.1
Property: Electrical conductivity, S/m (Liquid); method: Alternating current cell with electrodes
Temperature, K	Molality, mol/kg of sodium deoxycholate	Electrical conductivity, S/m	uncertainty
293.15	0.0005	0.015	0.0038
293.15	0.001	0.018	0.0037
293.15	0.0015	0.0205	0.0037
293.15	0.002	0.0235	0.0037
293.15	0.0025	0.026	0.0037
293.15	0.003	0.029	0.0037
293.15	0.0035	0.0315	0.0036
293.15	0.004	0.0338	0.0036
293.15	0.0045	0.0365	0.0037
293.15	0.005	0.039	0.0037
293.15	0.0055	0.042	0.0036
293.15	0.006	0.044	0.0034
293.15	0.0065	0.046	0.0033
293.15	0.007	0.0475	0.0033
293.15	0.0075	0.0495	0.0033
293.15	0.008	0.051	0.0033
293.15	0.0085	0.053	0.0033
293.15	0.009	0.0545	0.0032
293.15	0.0095	0.056	0.0032
293.15	0.01	0.0576	0.0033
298.15	0.0005	0.015	0.0036
298.15	0.001	0.0175	0.0036
298.15	0.0015	0.02	0.0037
298.15	0.002	0.023	0.0037
298.15	0.0025	0.0256	0.0037
298.15	0.003	0.0283	0.0037
298.15	0.0035	0.0309	0.0036
298.15	0.004	0.0334	0.0036
298.15	0.0045	0.0359	0.0036
298.15	0.005	0.0382	0.0034
298.15	0.0055	0.04	0.0034
298.15	0.006	0.042	0.0033
298.15	0.0065	0.0435	0.0032
298.15	0.007	0.045	0.0033
298.15	0.0075	0.047	0.0034
298.15	0.008	0.049	0.0034
298.15	0.0085	0.051	0.0033
298.15	0.009	0.0525	0.0034
298.15	0.0095	0.055	0.0034
298.15	0.01	0.0565	0.0035
303.15	0.0005	0.015	0.0036
303.15	0.001	0.0178	0.0037
303.15	0.0015	0.0206	0.0037
303.15	0.002	0.0234	0.0037
303.15	0.0025	0.026	0.0037
303.15	0.003	0.0287	0.0037
303.15	0.0035	0.0313	0.0037
303.15	0.004	0.0339	0.0036
303.15	0.0045	0.0363	0.0036
303.15	0.005	0.039	0.0035
303.15	0.0055	0.041	0.0034
303.15	0.006	0.043	0.0034
303.15	0.0065	0.045	0.0033
303.15	0.007	0.0465	0.0033
303.15	0.0075	0.0485	0.0033
303.15	0.008	0.05	0.0033
303.15	0.0085	0.052	0.0034
303.15	0.009	0.054	0.0034
303.15	0.0095	0.056	0.0034
303.15	0.01	0.058	0.0038
308.15	0.0005	0.016	0.0037
308.15	0.001	0.0189	0.0038
308.15	0.0015	0.0218	0.0037
308.15	0.002	0.0244	0.0037
308.15	0.0025	0.0272	0.0037
308.15	0.003	0.03	0.0038
308.15	0.0035	0.033	0.0038
308.15	0.004	0.036	0.0037
308.15	0.0045	0.0385	0.0036
308.15	0.005	0.041	0.0036
308.15	0.0055	0.0435	0.0036
308.15	0.006	0.0459	0.0034
308.15	0.0065	0.0476	0.0033
308.15	0.007	0.0494	0.0034
308.15	0.0075	0.0515	0.0034
308.15	0.008	0.0535	0.0034
308.15	0.0085	0.0555	0.0034
308.15	0.009	0.0575	0.0035
308.15	0.0095	0.06	0.0035
308.15	0.01	0.0621	0.0033
313.15	0.0005	0.0174	0.0038
313.15	0.001	0.02	0.0037
313.15	0.0015	0.023	0.0038
313.15	0.002	0.026	0.0038
313.15	0.0025	0.0287	0.0037
313.15	0.003	0.0314	0.0038
313.15	0.0035	0.0345	0.0038
313.15	0.004	0.0372	0.0037
313.15	0.0045	0.0398	0.0038
313.15	0.005	0.043	0.0039
313.15	0.0055	0.046	0.0036
313.15	0.006	0.0481	0.0034
313.15	0.0065	0.05	0.0034
313.15	0.007	0.052	0.0034
313.15	0.0075	0.0539	0.0035
313.15	0.008	0.0563	0.0035
313.15	0.0085	0.0586	0.0034
313.15	0.009	0.0605	0.0034
313.15	0.0095	0.0627	0.0035
313.15	0.01	0.0649	0.003
318.15	0.0005	0.018	0.0038
318.15	0.001	0.021	0.0038
318.15	0.0015	0.0237	0.0036
318.15	0.002	0.026	0.0037
318.15	0.0025	0.029	0.0038
318.15	0.003	0.032	0.0036
318.15	0.0035	0.034	0.0036
318.15	0.004	0.037	0.0037
318.15	0.0045	0.0395	0.0037
318.15	0.005	0.0425	0.0037
318.15	0.0055	0.045	0.0036
318.15	0.006	0.0475	0.0034
318.15	0.0065	0.0491	0.0032
318.15	0.007	0.0506	0.0033
318.15	0.0075	0.0525	0.0033
318.15	0.008	0.0542	0.0033
318.15	0.0085	0.0559	0.0034
318.15	0.009	0.0582	0.0034
318.15	0.0095	0.06	0.0034
318.15	0.01	0.062	0.0034

System: 2-aminoacetic acid + sodium deoxycholate + water; phases: Liquid
Fixed: Pressure, kPa = 100
Fixed: Solvent: Molality, mol/kg of 2-aminoacetic acid = 0.1
Property: Electrical conductivity, S/m (Liquid); method: Alternating current cell with electrodes
Temperature, K	Molality, mol/kg of sodium deoxycholate	Electrical conductivity, S/m	uncertainty
293.15	0.0005	0.004	0.0038
293.15	0.001	0.0069	0.0038
293.15	0.0015	0.0098	0.0038
293.15	0.002	0.0127	0.0038
293.15	0.0025	0.0156	0.0037
293.15	0.003	0.0181	0.0037
293.15	0.0035	0.0211	0.0038
293.15	0.004	0.0239	0.0039
293.15	0.0045	0.0275	0.004
293.15	0.005	0.0305	0.0036
293.15	0.0055	0.0325	0.0034
293.15	0.006	0.0345	0.0034
293.15	0.0065	0.0365	0.0034
293.15	0.007	0.0385	0.0034
293.15	0.0075	0.0405	0.0033
293.15	0.008	0.0422	0.0033
293.15	0.0085	0.0441	0.0034
293.15	0.009	0.046	0.0033
293.15	0.0095	0.0478	0.0033
293.15	0.01	0.0495	0.0033
298.15	0.0005	0.0044	0.0041
298.15	0.001	0.0076	0.0039
298.15	0.0015	0.0106	0.0038
298.15	0.002	0.0136	0.0038
298.15	0.0025	0.0164	0.0037
298.15	0.003	0.019	0.0037
298.15	0.0035	0.022	0.0038
298.15	0.004	0.0248	0.0037
298.15	0.0045	0.0276	0.0037
298.15	0.005	0.03	0.0036
298.15	0.0055	0.0325	0.0035
298.15	0.006	0.0345	0.0034
298.15	0.0065	0.0365	0.0034
298.15	0.007	0.0385	0.0034
298.15	0.0075	0.0405	0.0034
298.15	0.008	0.0425	0.0034
298.15	0.0085	0.0445	0.0034
298.15	0.009	0.0465	0.0034
298.15	0.0095	0.0484	0.0033
298.15	0.01	0.05	0.0032
303.15	0.0005	0.004	0.0038
303.15	0.001	0.0072	0.0039
303.15	0.0015	0.0101	0.0038
303.15	0.002	0.0132	0.0038
303.15	0.0025	0.016	0.0037
303.15	0.003	0.0188	0.0038
303.15	0.0035	0.0218	0.0038
303.15	0.004	0.0246	0.0037
303.15	0.0045	0.0274	0.0036
303.15	0.005	0.0295	0.0034
303.15	0.0055	0.0313	0.0034
303.15	0.006	0.0335	0.0034
303.15	0.0065	0.0355	0.0035
303.15	0.007	0.038	0.0035
303.15	0.0075	0.04	0.0034
303.15	0.008	0.042	0.0034
303.15	0.0085	0.044	0.0033
303.15	0.009	0.0455	0.0033
303.15	0.0095	0.0475	0.0035
303.15	0.01	0.05	0.0041
308.15	0.0005	0.0042	0.004
308.15	0.001	0.0075	0.0039
308.15	0.0015	0.0104	0.0039
308.15	0.002	0.0136	0.0039
308.15	0.0025	0.0165	0.0038
308.15	0.003	0.0196	0.004
308.15	0.0035	0.023	0.0041
308.15	0.004	0.0265	0.004
308.15	0.0045	0.0295	0.0036
308.15	0.005	0.0313	0.0034
308.15	0.0055	0.0335	0.0034
308.15	0.006	0.0355	0.0034
308.15	0.0065	0.0375	0.0035
308.15	0.007	0.04	0.0035
308.15	0.0075	0.042	0.0035
308.15	0.008	0.0445	0.0035
308.15	0.0085	0.0465	0.0034
308.15	0.009	0.0485	0.0034
308.15	0.0095	0.0505	0.0035
308.15	0.01	0.053	0.0032
313.15	0.0005	0.0046	0.0039
313.15	0.001	0.0077	0.0039
313.15	0.0015	0.0108	0.0039
313.15	0.002	0.0139	0.0039
313.15	0.0025	0.017	0.0039
313.15	0.003	0.0201	0.0038
313.15	0.0035	0.0229	0.0037
313.15	0.004	0.0255	0.0037
313.15	0.0045	0.0285	0.0039
313.15	0.005	0.0316	0.0036
313.15	0.0055	0.0335	0.0034
313.15	0.006	0.0355	0.0035
313.15	0.0065	0.038	0.0035
313.15	0.007	0.04	0.0034
313.15	0.0075	0.042	0.0034
313.15	0.008	0.044	0.0034
313.15	0.0085	0.046	0.0034
313.15	0.009	0.048	0.0034
313.15	0.0095	0.05	0.0035
313.15	0.01	0.0525	0.0047
318.15	0.0005	0.005	0.004
318.15	0.001	0.0084	0.004
318.15	0.0015	0.0115	0.0039
318.15	0.002	0.0148	0.0039
318.15	0.0025	0.0178	0.0039
318.15	0.003	0.0209	0.0039
318.15	0.0035	0.0239	0.0039
318.15	0.004	0.027	0.0039
318.15	0.0045	0.03	0.004
318.15	0.005	0.0335	0.004
318.15	0.0055	0.0365	0.0038
318.15	0.006	0.0392	0.0036
318.15	0.0065	0.0413	0.0035
318.15	0.007	0.0435	0.0036
318.15	0.0075	0.0461	0.0036
318.15	0.008	0.0485	0.0035
318.15	0.0085	0.0505	0.0035
318.15	0.009	0.053	0.0036
318.15	0.0095	0.0555	0.0036
318.15	0.01	0.058	0.0036

System: L-methionine + sodium deoxycholate + water; phases: Liquid
Fixed: Pressure, kPa = 100
Fixed: Solvent: Molality, mol/kg of L-methionine = 0.1
Property: Electrical conductivity, S/m (Liquid); method: Alternating current cell with electrodes
Temperature, K	Molality, mol/kg of sodium deoxycholate	Electrical conductivity, S/m	uncertainty
293.15	0.0005	0.007	0.0038
293.15	0.001	0.01	0.0037
293.15	0.0015	0.0125	0.0037
293.15	0.002	0.0155	0.0037
293.15	0.0025	0.018	0.0037
293.15	0.003	0.021	0.0038
293.15	0.0035	0.024	0.0037
293.15	0.004	0.0265	0.0036
293.15	0.0045	0.029	0.0035
293.15	0.005	0.031	0.0034
293.15	0.0055	0.0331	0.0034
293.15	0.006	0.035	0.0034
293.15	0.0065	0.0369	0.0034
293.15	0.007	0.039	0.0034
293.15	0.0075	0.0409	0.0034
293.15	0.008	0.0431	0.0034
293.15	0.0085	0.045	0.0033
293.15	0.009	0.0465	0.0033
293.15	0.0095	0.0484	0.0033
293.15	0.01	0.05	0.0033
298.15	0.0005	0.007	0.0038
298.15	0.001	0.01	0.0038
298.15	0.0015	0.0129	0.0037
298.15	0.002	0.0155	0.0037
298.15	0.0025	0.0185	0.0038
298.15	0.003	0.0215	0.0038
298.15	0.0035	0.0245	0.0038
298.15	0.004	0.0275	0.0036
298.15	0.0045	0.0295	0.0034
298.15	0.005	0.0316	0.0033
298.15	0.0055	0.033	0.0033
298.15	0.006	0.035	0.0034
298.15	0.0065	0.037	0.0034
298.15	0.007	0.0389	0.0033
298.15	0.0075	0.0407	0.0033
298.15	0.008	0.0425	0.0034
298.15	0.0085	0.0445	0.0033
298.15	0.009	0.046	0.0033
298.15	0.0095	0.0478	0.0033
298.15	0.01	0.0495	0.0036
303.15	0.0005	0.0075	0.004
303.15	0.001	0.0105	0.0038
303.15	0.0015	0.0135	0.004
303.15	0.002	0.017	0.004
303.15	0.0025	0.02	0.0038
303.15	0.003	0.023	0.0038
303.15	0.0035	0.026	0.0036
303.15	0.004	0.028	0.0034
303.15	0.0045	0.03	0.0034
303.15	0.005	0.032	0.0034
303.15	0.0055	0.0342	0.0034
303.15	0.006	0.0361	0.0034
303.15	0.0065	0.038	0.0033
303.15	0.007	0.0397	0.0034
303.15	0.0075	0.0418	0.0033
303.15	0.008	0.0434	0.0033
303.15	0.0085	0.0454	0.0034
303.15	0.009	0.0475	0.0033
303.15	0.0095	0.049	0.0034
303.15	0.01	0.0515	0.0034
308.15	0.0005	0.007	0.0037
308.15	0.001	0.01	0.0039
308.15	0.0015	0.01308	0.0038
308.15	0.002	0.01582	0.00382
308.15	0.0025	0.019	0.0038
308.15	0.003	0.0217	0.0037
308.15	0.0035	0.0245	0.0038
308.15	0.004	0.0275	0.0036
308.15	0.0045	0.0295	0.0033
308.15	0.005	0.031	0.0033
308.15	0.0055	0.033	0.0034
308.15	0.006	0.035	0.0035
308.15	0.0065	0.0375	0.0035
308.15	0.007	0.0395	0.0034
308.15	0.0075	0.0415	0.0034
308.15	0.008	0.0435	0.0034
308.15	0.0085	0.0455	0.0034
308.15	0.009	0.0475	0.0035
308.15	0.0095	0.05	0.0035
308.15	0.01	0.052	0.0035
313.15	0.0005	0.0075	0.0039
313.15	0.001	0.0105	0.0038
313.15	0.0015	0.0135	0.0038
313.15	0.002	0.0165	0.004
313.15	0.0025	0.02	0.004
313.15	0.003	0.023	0.0038
313.15	0.0035	0.026	0.0038
313.15	0.004	0.029	0.0038
313.15	0.0045	0.032	0.0036
313.15	0.005	0.034	0.0033
313.15	0.0055	0.0355	0.0033
313.15	0.006	0.0373	0.0033
313.15	0.0065	0.039	0.0033
313.15	0.007	0.041	0.0034
313.15	0.0075	0.043	0.0034
313.15	0.008	0.0451	0.0034
313.15	0.0085	0.0472	0.0035
313.15	0.009	0.0496	0.0035
313.15	0.0095	0.0515	0.0033
313.15	0.01	0.0533	0.0033
318.15	0.0005	0.0078	0.0039
318.15	0.001	0.011	0.0039
318.15	0.0015	0.014	0.0038
318.15	0.002	0.0169	0.0037
318.15	0.0025	0.0194	0.0037
318.15	0.003	0.0225	0.004
318.15	0.0035	0.026	0.0041
318.15	0.004	0.0295	0.004
318.15	0.0045	0.0325	0.0037
318.15	0.005	0.035	0.0035
318.15	0.0055	0.0369	0.0033
318.15	0.006	0.0387	0.0033
318.15	0.0065	0.0405	0.0034
318.15	0.007	0.0425	0.0034
318.15	0.0075	0.0445	0.0033
318.15	0.008	0.0462	0.0034
318.15	0.0085	0.0485	0.0035
318.15	0.009	0.0506	0.0034
318.15	0.0095	0.0525	0.0034
318.15	0.01	0.0545	0.0034

System: L-leucine + sodium deoxycholate + water; phases: Liquid
Fixed: Pressure, kPa = 100
Fixed: Solvent: Molality, mol/kg of L-leucine = 0.1
Property: Electrical conductivity, S/m (Liquid); method: Alternating current cell with electrodes
Temperature, K	Molality, mol/kg of sodium deoxycholate	Electrical conductivity, S/m	uncertainty
293.15	0.0005	0.006	0.0038
293.15	0.001	0.009	0.0038
293.15	0.0015	0.0119	0.0038
293.15	0.002	0.0148	0.0037
293.15	0.0025	0.0173	0.0037
293.15	0.003	0.0203	0.0039
293.15	0.0035	0.0235	0.0039
293.15	0.004	0.0265	0.0036
293.15	0.0045	0.0283	0.0034
293.15	0.005	0.0303	0.0034
293.15	0.0055	0.0325	0.0035
293.15	0.006	0.0347	0.0035
293.15	0.0065	0.037	0.0034
293.15	0.007	0.0388	0.0033
293.15	0.0075	0.0405	0.0033
293.15	0.008	0.0425	0.0034
293.15	0.0085	0.0445	0.0033
293.15	0.009	0.0462	0.0033
293.15	0.0095	0.0478	0.0033
293.15	0.01	0.0495	0.0033
298.15	0.0005	0.0057	0.0037
298.15	0.001	0.0087	0.0038
298.15	0.0015	0.0114	0.0038
298.15	0.002	0.0145	0.0039
298.15	0.0025	0.0175	0.0038
298.15	0.003	0.0205	0.0037
298.15	0.0035	0.023	0.0036
298.15	0.004	0.0256	0.0036
298.15	0.0045	0.028	0.0035
298.15	0.005	0.0299	0.0033
298.15	0.0055	0.0315	0.0033
298.15	0.006	0.0335	0.0034
298.15	0.0065	0.0355	0.0034
298.15	0.007	0.0373	0.0033
298.15	0.0075	0.039	0.0033
298.15	0.008	0.041	0.0034
298.15	0.0085	0.043	0.0034
298.15	0.009	0.045	0.0034
298.15	0.0095	0.0469	0.0033
298.15	0.01	0.0485	0.0036
303.15	0.0005	0.006	0.0038
303.15	0.001	0.009	0.0039
303.15	0.0015	0.0122	0.0039
303.15	0.002	0.0151	0.0038
303.15	0.0025	0.0179	0.0038
303.15	0.003	0.021	0.0037
303.15	0.0035	0.0233	0.0035
303.15	0.004	0.0253	0.0034
303.15	0.0045	0.0275	0.0034
303.15	0.005	0.0295	0.0034
303.15	0.0055	0.0315	0.0034
303.15	0.006	0.0335	0.0035
303.15	0.0065	0.036	0.0035
303.15	0.007	0.038	0.0034
303.15	0.0075	0.04	0.0034
303.15	0.008	0.042	0.0034
303.15	0.0085	0.044	0.0034
303.15	0.009	0.046	0.0034
303.15	0.0095	0.048	0.0034
303.15	0.01	0.05	0.0034
308.15	0.0005	0.0065	0.004
308.15	0.001	0.0095	0.0038
308.15	0.0015	0.0125	0.0038
308.15	0.002	0.0155	0.0038
308.15	0.0025	0.0185	0.0038
308.15	0.003	0.0212	0.0037
308.15	0.0035	0.0239	0.0036
308.15	0.004	0.026	0.0034
308.15	0.0045	0.028	0.0034
308.15	0.005	0.03	0.0034
308.15	0.0055	0.032	0.0035
308.15	0.006	0.0343	0.0035
308.15	0.0065	0.0365	0.0034
308.15	0.007	0.0385	0.0034
308.15	0.0075	0.0405	0.0034
308.15	0.008	0.0425	0.0035
308.15	0.0085	0.045	0.0035
308.15	0.009	0.047	0.0034
308.15	0.0095	0.049	0.0035
308.15	0.01	0.0515	0.0035
313.15	0.0005	0.006	0.0038
313.15	0.001	0.0095	0.004
313.15	0.0015	0.0125	0.0039
313.15	0.002	0.0157	0.0039
313.15	0.0025	0.0187	0.0038
313.15	0.003	0.0215	0.0038
313.15	0.0035	0.0245	0.0038
313.15	0.004	0.0275	0.0036
313.15	0.0045	0.0295	0.0034
313.15	0.005	0.0315	0.0034
313.15	0.0055	0.0335	0.0034
313.15	0.006	0.0355	0.0034
313.15	0.0065	0.0375	0.0034
313.15	0.007	0.0395	0.0034
313.15	0.0075	0.0415	0.0034
313.15	0.008	0.0435	0.0035
313.15	0.0085	0.046	0.0035
313.15	0.009	0.048	0.0034
313.15	0.0095	0.05	0.0034
313.15	0.01	0.052	0.0041
318.15	0.0005	0.007	0.0044
318.15	0.001	0.011	0.0041
318.15	0.0015	0.014	0.004
318.15	0.002	0.0175	0.004
318.15	0.0025	0.0207	0.0039
318.15	0.003	0.0239	0.004
318.15	0.0035	0.0273	0.004
318.15	0.004	0.0306	0.0039
318.15	0.0045	0.0335	0.0037
318.15	0.005	0.036	0.0035
318.15	0.0055	0.038	0.0034
318.15	0.006	0.04	0.0034
318.15	0.0065	0.042	0.0035
318.15	0.007	0.0445	0.0035
318.15	0.0075	0.0465	0.0034
318.15	0.008	0.0485	0.0034
318.15	0.0085	0.0505	0.0035
318.15	0.009	0.0529	0.0035
318.15	0.0095	0.0548	0.0035
318.15	0.01	0.0572	0.0036

System: sodium cholate + water; phases: Liquid
Fixed: Pressure, kPa = 100
Property: Electrical conductivity, S/m (Liquid); method: Alternating current cell with electrodes
Temperature, K	Molality, mol/kg of sodium cholate	Electrical conductivity, S/m	uncertainty
293.15	0.001	0.0066	0.0039
293.15	0.002	0.0129	0.0039
293.15	0.003	0.019	0.0039
293.15	0.004	0.0254	0.0038
293.15	0.005	0.031	0.0039
293.15	0.006	0.0378	0.0039
293.15	0.007	0.0434	0.0039
293.15	0.008	0.0503	0.0039
293.15	0.009	0.0558	0.0039
293.15	0.01	0.0628	0.004
293.15	0.011	0.0689	0.0039
293.15	0.012	0.0754	0.0041
293.15	0.013	0.0827	0.0039
293.15	0.014	0.0881	0.0036
293.15	0.015	0.0929	0.0037
293.15	0.016	0.0985	0.0036
293.15	0.017	0.103	0.0034
293.15	0.018	0.107	0.0034
293.15	0.019	0.111	0.0034
293.15	0.02	0.115	0.0034
298.15	0.001	0.007	0.0043
298.15	0.002	0.014	0.004
298.15	0.003	0.0204	0.0039
298.15	0.004	0.0267	0.0039
298.15	0.005	0.0326	0.0038
298.15	0.006	0.0386	0.0038
298.15	0.007	0.0442	0.0037
298.15	0.008	0.0498	0.0038
298.15	0.009	0.0562	0.004
298.15	0.01	0.063	0.0039
298.15	0.011	0.0687	0.0039
298.15	0.012	0.0753	0.0041
298.15	0.013	0.0825	0.0039
298.15	0.014	0.088	0.0036
298.15	0.015	0.0928	0.0035
298.15	0.016	0.097	0.0034
298.15	0.017	0.101	0.0034
298.15	0.018	0.105	0.0034
298.15	0.019	0.109	0.0033
298.15	0.02	0.112	0.0038
303.15	0.001	0.005	0.0036
303.15	0.002	0.0115	0.004
303.15	0.003	0.018	0.0039
303.15	0.004	0.0242	0.0039
303.15	0.005	0.0308	0.004
303.15	0.006	0.0373	0.004
303.15	0.007	0.0439	0.004
303.15	0.008	0.0503	0.004
303.15	0.009	0.057	0.004
303.15	0.01	0.0635	0.004
303.15	0.011	0.07	0.0039
303.15	0.012	0.076	0.0038
303.15	0.013	0.082	0.0038
303.15	0.014	0.0873	0.0037
303.15	0.015	0.093	0.0037
303.15	0.016	0.0981	0.0036
303.15	0.017	0.103	0.0036
303.15	0.018	0.108	0.0036
303.15	0.019	0.113	0.0036
303.15	0.02	0.118	0.0035
308.15	0.001	0.007	0.0042
308.15	0.002	0.014	0.004
308.15	0.003	0.02	0.0039
308.15	0.004	0.0263	0.004
308.15	0.005	0.0332	0.004
308.15	0.006	0.0397	0.0039
308.15	0.007	0.0454	0.0039
308.15	0.008	0.0524	0.004
308.15	0.009	0.0584	0.004
308.15	0.01	0.0653	0.0043
308.15	0.011	0.0735	0.0042
308.15	0.012	0.0798	0.0039
308.15	0.013	0.0861	0.0038
308.15	0.014	0.0911	0.0037
308.15	0.015	0.0967	0.0037
308.15	0.016	0.102	0.0037
308.15	0.017	0.1078	0.0037
308.15	0.018	0.113	0.0036
308.15	0.019	0.118	0.0036
308.15	0.02	0.123	0.0035
313.15	0.001	0.0075	0.0037
313.15	0.002	0.014	0.0039
313.15	0.003	0.02	0.0039
313.15	0.004	0.0265	0.004
313.15	0.005	0.0332	0.004
313.15	0.006	0.0395	0.004
313.15	0.007	0.0466	0.0041
313.15	0.008	0.0533	0.004
313.15	0.009	0.06	0.004
313.15	0.01	0.0668	0.0042
313.15	0.011	0.0745	0.0042
313.15	0.012	0.0815	0.0041
313.15	0.013	0.0885	0.0039
313.15	0.014	0.0939	0.0037
313.15	0.015	0.0995	0.0036
313.15	0.016	0.104	0.0036
313.15	0.017	0.1095	0.0037
313.15	0.018	0.115	0.0037
313.15	0.019	0.1205	0.0037
313.15	0.02	0.126	0.004
318.15	0.001	0.0115	0.0038
318.15	0.002	0.0175	0.0038
318.15	0.003	0.0235	0.004
318.15	0.004	0.0305	0.004
318.15	0.005	0.0369	0.0039
318.15	0.006	0.043	0.0039
318.15	0.007	0.0497	0.004
318.15	0.008	0.0565	0.0041
318.15	0.009	0.0633	0.0041
318.15	0.01	0.0705	0.0042
318.15	0.011	0.0779	0.0042
318.15	0.012	0.0855	0.0043
318.15	0.013	0.093	0.004
318.15	0.014	0.0985	0.0038
318.15	0.015	0.1045	0.0038
318.15	0.016	0.1105	0.0039
318.15	0.017	0.1168	0.0038
318.15	0.018	0.122	0.0036
318.15	0.019	0.127	0.0036
318.15	0.02	0.132	0.0036

System: sodium deoxycholate + water; phases: Liquid
Fixed: Pressure, kPa = 100
Property: Electrical conductivity, S/m (Liquid); method: Alternating current cell with electrodes
Temperature, K	Molality, mol/kg of sodium deoxycholate	Electrical conductivity, S/m	uncertainty
293.15	0.0005	0.003	0.0041
293.15	0.001	0.0065	0.004
293.15	0.0015	0.0095	0.0038
293.15	0.002	0.0125	0.0038
293.15	0.0025	0.0155	0.0038
293.15	0.003	0.0185	0.0037
293.15	0.0035	0.021	0.0038
293.15	0.004	0.0242	0.0038
293.15	0.0045	0.027	0.0038
293.15	0.005	0.03	0.0038
293.15	0.0055	0.033	0.0037
293.15	0.006	0.0355	0.0036
293.15	0.0065	0.038	0.0035
293.15	0.007	0.0399	0.0034
293.15	0.0075	0.042	0.0034
293.15	0.008	0.044	0.0034
293.15	0.0085	0.046	0.0034
293.15	0.009	0.048	0.0034
293.15	0.0095	0.05	0.0034
293.15	0.01	0.0518	0.0033
298.15	0.0005	0.0035	0.0038
298.15	0.001	0.0065	0.0038
298.15	0.0015	0.0095	0.0038
298.15	0.002	0.0125	0.0038
298.15	0.0025	0.0155	0.0038
298.15	0.003	0.0182	0.0038
298.15	0.0035	0.0213	0.0039
298.15	0.004	0.0243	0.0039
298.15	0.0045	0.0275	0.0039
298.15	0.005	0.0305	0.0038
298.15	0.0055	0.0335	0.0037
298.15	0.006	0.036	0.0036
298.15	0.0065	0.0385	0.0035
298.15	0.007	0.0405	0.0034
298.15	0.0075	0.0425	0.0034
298.15	0.008	0.0445	0.0034
298.15	0.0085	0.0465	0.0034
298.15	0.009	0.0485	0.0035
298.15	0.0095	0.051	0.0035
298.15	0.01	0.053	0.0034
303.15	0.0005	0.004	0.004
303.15	0.001	0.007	0.0038
303.15	0.0015	0.01	0.0038
303.15	0.002	0.013	0.0038
303.15	0.0025	0.016	0.0039
303.15	0.003	0.0191	0.0038
303.15	0.0035	0.0218	0.0038
303.15	0.004	0.0248	0.0037
303.15	0.0045	0.0274	0.0038
303.15	0.005	0.0305	0.0039
303.15	0.0055	0.0335	0.0037
303.15	0.006	0.0358	0.0035
303.15	0.0065	0.038	0.0035
303.15	0.007	0.0405	0.0036
303.15	0.0075	0.043	0.0036
303.15	0.008	0.0455	0.0036
303.15	0.0085	0.048	0.0035
303.15	0.009	0.0499	0.0034
303.15	0.0095	0.052	0.0034
303.15	0.01	0.054	0.0034
308.15	0.0005	0.0035	0.0038
308.15	0.001	0.0065	0.0038
308.15	0.0015	0.0095	0.0038
308.15	0.002	0.0124	0.0038
308.15	0.0025	0.0153	0.0039
308.15	0.003	0.0185	0.004
308.15	0.0035	0.022	0.004
308.15	0.004	0.025	0.0038
308.15	0.0045	0.028	0.0038
308.15	0.005	0.031	0.0037
308.15	0.0055	0.0335	0.0037
308.15	0.006	0.0365	0.0036
308.15	0.0065	0.0385	0.0035
308.15	0.007	0.041	0.0036
308.15	0.0075	0.0435	0.0035
308.15	0.008	0.0455	0.0035
308.15	0.0085	0.048	0.0035
308.15	0.009	0.05	0.0035
308.15	0.0095	0.0525	0.0036
308.15	0.01	0.055	0.0033
313.15	0.0005	0.0035	0.0038
313.15	0.001	0.0065	0.004
313.15	0.0015	0.01	0.0039
313.15	0.002	0.0128	0.0038
313.15	0.0025	0.016	0.0039
313.15	0.003	0.019	0.0038
313.15	0.0035	0.022	0.0037
313.15	0.004	0.0245	0.0038
313.15	0.0045	0.028	0.0038
313.15	0.005	0.0305	0.0037
313.15	0.0055	0.0335	0.0038
313.15	0.006	0.0365	0.0036
313.15	0.0065	0.0385	0.0034
313.15	0.007	0.0405	0.0034
313.15	0.0075	0.0425	0.0035
313.15	0.008	0.045	0.0036
313.15	0.0085	0.0475	0.0036
313.15	0.009	0.0499	0.0035
313.15	0.0095	0.0519	0.0034
313.15	0.01	0.0539	0.0041
318.15	0.0005	0.004	0.0038
318.15	0.001	0.007	0.0038
318.15	0.0015	0.01	0.0038
318.15	0.002	0.013	0.0038
318.15	0.0025	0.016	0.0038
318.15	0.003	0.019	0.0038
318.15	0.0035	0.022	0.0038
318.15	0.004	0.025	0.0038
318.15	0.0045	0.028	0.0038
318.15	0.005	0.031	0.0038
318.15	0.0055	0.034	0.0038
318.15	0.006	0.037	0.0038
318.15	0.0065	0.04	0.0037
318.15	0.007	0.0425	0.0036
318.15	0.0075	0.045	0.0036
318.15	0.008	0.0475	0.0036
318.15	0.0085	0.05	0.0036
318.15	0.009	0.0525	0.0036
318.15	0.0095	0.055	0.0036
318.15	0.01	0.0575	0.0036
