Measured thermophysical data. Thermochemistry of 1,1,3,3-tetramethylguanidine and 1,1,3,3-tetramethylguanidinium nitrate
Source: J. Chem. Thermodyn., 2014, 10.1016/j.jct.2014.01.007
Compound 1: carbon dioxide, CO2, InChI=1S/CO2/c2-1-3
Compound 2: nitrogen, N2, InChI=1S/N2/c1-2
Compound 3: water, H2O, InChI=1S/H2O/h1H2
Compound 4: oxygen, O2, InChI=1S/O2/c1-2
Compound 5: 1,1,3,3-tetramethylguanidine, C5H13N3, InChI=1S/C5H13N3/c1-7(2)5(6)8(3)4/h6H,1-4H3, purity 99%
Compound 6: tetramethylguanidinium nitrate, C5H14N4O3, InChI=1S/C5H13N3.NO3/c1-7(2)5(6)8(3)4;2-1(3)4/h6H,1-4H3;/q;-1/p+1
Compound 7: nitric acid, HNO3, InChI=1S/HNO3/c2-1(3)4/h(H,2,3,4), purity 95%

System: 1,1,3,3-tetramethylguanidine; phases: Liquid, Gas
Property: Molar enthalpy of vaporization or sublimation, kJ/mol (Liquid); method: Static calorimetry
Temperature, K	Molar enthalpy of vaporization or sublimation, kJ/mol	uncertainty
298.15	49.946480031	1.4500776746

System: 1,1,3,3-tetramethylguanidine; phases: Liquid
Fixed: Pressure, kPa = 101.325
Property: Mass density, kg/m3 (Liquid); method: Vibrating tube method
Temperature, K	Mass density, kg/m3	uncertainty
288.15	921.517	0.117
293.146	917.012	0.118
298.145	912.5	0.119
303.146	907.982	0.12
308.146	903.458	0.121

System: tetramethylguanidinium nitrate; phases: Crystal 1
Property: Mass density, kg/m3 (Crystal 1); method: X-ray diffraction
Temperature, K	Pressure, kPa	Mass density, kg/m3	uncertainty
251	101.325	1284	7

System: tetramethylguanidinium nitrate; phases: Crystal 2
Property: Mass density, kg/m3 (Crystal 2); method: X-ray diffraction
Temperature, K	Pressure, kPa	Mass density, kg/m3	uncertainty
167	101.325	1295	7

System: tetramethylguanidinium nitrate; phases: Crystal 1, Liquid, Air at 1 atmosphere
Property: Molar enthalpy of transition or fusion, kJ/mol (Crystal 1); method: DSC
Molar enthalpy of transition or fusion, kJ/mol	uncertainty
19.8360907624	0.5149685798

System: tetramethylguanidinium nitrate; phases: Crystal 1, Liquid, Air at 1 atmosphere
Property: Triple point temperature, K (Crystal 1); method: DTA
Triple point temperature, K	uncertainty
365.9	0.5

System: tetramethylguanidinium nitrate; phases: Crystal 2, Crystal 1, Air at 1 atmosphere
Property: Molar enthalpy of transition or fusion, kJ/mol (Crystal 2); method: DSC
Molar enthalpy of transition or fusion, kJ/mol	uncertainty
0.6646480286	0.1354242632

System: tetramethylguanidinium nitrate; phases: Crystal 2, Crystal 1, Air at 1 atmosphere
Property: Triple point temperature, K (Crystal 2); method: DTA
Triple point temperature, K	uncertainty
221.4	1.7

System: nitric acid + water + tetramethylguanidinium nitrate; phases: Liquid
Property: Molar enthalpy of solution, kJ/mol (Liquid); method: Calvet calorimetry
Mole fraction of tetramethylguanidinium nitrate	Pressure, kPa	Temperature, K	Solvent: Amount concentration (molarity), mol/dm3 of nitric acid	Molar enthalpy of solution, kJ/mol	uncertainty
0.000104	101	298.15	0.1	15.66	0.5

System: 1,1,3,3-tetramethylguanidine + nitric acid + water; phases: Liquid
Property: Molar enthalpy of solution, kJ/mol (Liquid); method: Calvet calorimetry
Mole fraction of 1,1,3,3-tetramethylguanidine	Pressure, kPa	Temperature, K	Solvent: Amount concentration (molarity), mol/dm3 of nitric acid	Molar enthalpy of solution, kJ/mol	uncertainty
9.3e-05	101	298.15	0.1	-96.76	1.34

Reaction: -1 tetramethylguanidinium nitrate + 5 carbon dioxide + 2 nitrogen + 7 water + -7 oxygen
Property: Specific internal energy of reaction at constant volume, J/g
-20520.7
