Measured thermophysical data. Selection of ionic liquids as entrainers for separation of (water + ethanol)
Source: J. Chem. Thermodyn., 2008, 10.1016/j.jct.2008.03.016
Compound 1: water, H2O, InChI=1S/H2O/h1H2
Compound 2: ethanol, C2H6O, InChI=1S/C2H6O/c1-2-3/h3H,2H2,1H3
Compound 3: 1-butyl-3-methylimidazolium tetrafluoroborate, C8H15BF4N2, InChI=1S/C8H15N2.BF4/c1-3-4-5-10-7-6-9(2)8-10;2-1(3,4)5/h6-8H,3-5H2,1-2H3;/q+1;-1
Compound 4: 1-ethyl-3-methylimidazolium tetrafluoroborate, C6H11BF4N2, InChI=1S/C6H11N2.BF4/c1-3-8-5-4-7(2)6-8;2-1(3,4)5/h4-6H,3H2,1-2H3;/q+1;-1
Compound 5: 1-butyl-3-methylimidazolium dicyanamide, C10H15N5, InChI=1S/C8H15N2.C2N3/c1-3-4-5-10-7-6-9(2)8-10;3-1-5-2-4/h6-8H,3-5H2,1-2H3;/q+1;-1
Compound 6: 1-ethyl-3-methylimidazolium dicyanamide, C8H11N5, InChI=1S/C6H11N2.C2N3/c1-3-8-5-4-7(2)6-8;3-1-5-2-4/h4-6H,3H2,1-2H3;/q+1;-1
Compound 7: 1-butyl-3-methylimidazolium chloride, C8H15ClN2, InChI=1S/C8H15N2.ClH/c1-3-4-5-10-7-6-9(2)8-10;/h6-8H,3-5H2,1-2H3;1H/q+1;/p-1
Compound 8: 1-ethyl-3-methylimidazolium chloride, C6H11ClN2, InChI=1S/C6H11N2.ClH/c1-3-8-5-4-7(2)6-8;/h4-6H,3H2,1-2H3;1H/q+1;/p-1
Compound 9: 1-butyl-3-methylimidazolium acetate, C10H18N2O2, InChI=1S/C8H15N2.C2H4O2/c1-3-4-5-10-7-6-9(2)8-10;1-2(3)4/h6-8H,3-5H2,1-2H3;1H3,(H,3,4)/q+1;/p-1
Compound 10: 1-ethyl-3-methylimidazolium acetate, C8H14N2O2, InChI=1S/C6H11N2.C2H4O2/c1-3-8-5-4-7(2)6-8;1-2(3)4/h4-6H,3H2,1-2H3;1H3,(H,3,4)/q+1;/p-1

System: ethanol + water + 1-butyl-3-methylimidazolium tetrafluoroborate; phases: Liquid, Gas
Fixed: Pressure, kPa = 100
Property: Boiling temperature at pressure P, K (Liquid); method: EBULLIO:UFactor:8
Solvent: Mole fraction of ethanol	Mass fraction of 1-butyl-3-methylimidazolium tetrafluoroborate	Boiling temperature at pressure P, K	uncertainty
0.9499	0.1	351.45	0.69
0.95	0.2	351.91	0.69
0.95	0.3001	352.35	0.69
0.95	0.3999	352.87	0.69
0.9501	0.4999	353.49	0.69
0.9501	0.6	354.65	0.69
0.9501	0.7	356.15	0.69
0.9501	0.8	360.01	0.69
0.9502	0.9084	372.15	0.69

System: ethanol + water + 1-butyl-3-methylimidazolium tetrafluoroborate; phases: Gas, Liquid
Fixed: Pressure, kPa = 100
Property: Mole fraction of ethanol (Gas); method: Titration method
Solvent: Mole fraction of ethanol	Mass fraction of 1-butyl-3-methylimidazolium tetrafluoroborate	Mole fraction of ethanol	uncertainty
0.9499	0.1	0.9518	0.002
0.95	0.2	0.9552	0.002
0.95	0.3001	0.9596	0.002
0.95	0.3999	0.9629	0.002
0.9501	0.4999	0.9663	0.002
0.9501	0.6	0.9701	0.002
0.9501	0.7	0.9745	0.002
0.9501	0.8	0.978	0.002
0.9502	0.9084	0.9818	0.002

System: ethanol + water + 1-ethyl-3-methylimidazolium tetrafluoroborate; phases: Liquid, Gas
Fixed: Pressure, kPa = 100
Property: Boiling temperature at pressure P, K (Liquid); method: EBULLIO:UFactor:8
Solvent: Mole fraction of ethanol	Mass fraction of 1-ethyl-3-methylimidazolium tetrafluoroborate	Boiling temperature at pressure P, K	uncertainty
0.9499	0.9001	365.61	0.69
0.95	0.0999	351.47	0.69
0.95	0.2001	351.79	0.69
0.9501	0.3	352.13	0.69
0.9501	0.4	352.5	0.69
0.9501	0.5	352.6	0.69
0.9501	0.5999	353	0.69
0.9501	0.7	354	0.69
0.9501	0.8001	356.84	0.69

System: ethanol + water + 1-ethyl-3-methylimidazolium tetrafluoroborate; phases: Gas, Liquid
Fixed: Pressure, kPa = 100
Property: Mole fraction of ethanol (Gas); method: Titration method
Solvent: Mole fraction of ethanol	Mass fraction of 1-ethyl-3-methylimidazolium tetrafluoroborate	Mole fraction of ethanol	uncertainty
0.9499	0.9001	0.9883	0.002
0.95	0.0999	0.9539	0.002
0.95	0.2001	0.9585	0.002
0.9501	0.3	0.963	0.002
0.9501	0.4	0.968	0.002
0.9501	0.5	0.972	0.002
0.9501	0.5999	0.9765	0.002
0.9501	0.7	0.9808	0.002
0.9501	0.8001	0.9848	0.002

System: ethanol + water + 1-butyl-3-methylimidazolium dicyanamide; phases: Liquid, Gas
Fixed: Pressure, kPa = 100
Property: Boiling temperature at pressure P, K (Liquid); method: EBULLIO:UFactor:8
Solvent: Mole fraction of ethanol	Mass fraction of 1-butyl-3-methylimidazolium dicyanamide	Boiling temperature at pressure P, K	uncertainty
0.9499	0.1	351.7	0.69
0.9499	0.2	352.4	0.69
0.9499	0.3001	353.41	0.69
0.95	0.3999	354.82	0.69
0.95	0.5	356.85	0.69
0.95	0.5999	360	0.69
0.95	0.7	365.25	0.69
0.9501	0.7996	373.95	0.69

System: ethanol + water + 1-butyl-3-methylimidazolium dicyanamide; phases: Gas, Liquid
Fixed: Pressure, kPa = 100
Property: Mole fraction of ethanol (Gas); method: Titration method
Solvent: Mole fraction of ethanol	Mass fraction of 1-butyl-3-methylimidazolium dicyanamide	Mole fraction of ethanol	uncertainty
0.9499	0.1	0.955	0.002
0.9499	0.2	0.9598	0.002
0.9499	0.3001	0.9633	0.002
0.95	0.3999	0.9671	0.002
0.95	0.5	0.9709	0.002
0.95	0.5999	0.9748	0.002
0.95	0.7	0.9776	0.002
0.9501	0.7996	0.9802	0.002

System: ethanol + water + 1-ethyl-3-methylimidazolium dicyanamide; phases: Liquid, Gas
Fixed: Pressure, kPa = 100
Property: Boiling temperature at pressure P, K (Liquid); method: EBULLIO:UFactor:8
Solvent: Mole fraction of ethanol	Mass fraction of 1-ethyl-3-methylimidazolium dicyanamide	Boiling temperature at pressure P, K	uncertainty
0.95	0.1	351.64	0.69
0.95	0.1999	352.58	0.69
0.95	0.7998	374.41	0.69
0.9501	0.3	353.83	0.69
0.9501	0.3999	355.44	0.69
0.9501	0.5	357.65	0.69
0.9501	0.6	361.09	0.69
0.9501	0.7001	365.92	0.69

System: ethanol + water + 1-ethyl-3-methylimidazolium dicyanamide; phases: Gas, Liquid
Fixed: Pressure, kPa = 100
Property: Mole fraction of ethanol (Gas); method: Titration method
Solvent: Mole fraction of ethanol	Mass fraction of 1-ethyl-3-methylimidazolium dicyanamide	Mole fraction of ethanol	uncertainty
0.95	0.1	0.9535	0.002
0.95	0.1999	0.9576	0.002
0.95	0.7998	0.9857	0.002
0.9501	0.3	0.9628	0.002
0.9501	0.3999	0.9694	0.002
0.9501	0.5	0.9729	0.002
0.9501	0.6	0.9778	0.002
0.9501	0.7001	0.982	0.002

System: ethanol + water + 1-butyl-3-methylimidazolium chloride; phases: Liquid, Gas
Fixed: Solvent: Mole fraction of ethanol = 0.95
Fixed: Pressure, kPa = 100
Property: Boiling temperature at pressure P, K (Liquid); method: EBULLIO:UFactor:8
Mass fraction of 1-butyl-3-methylimidazolium chloride	Boiling temperature at pressure P, K	uncertainty
0.1	351.89	0.69
0.2	353.21	0.69
0.3009	355.37	0.69
0.3999	358.9	0.69
0.4999	364.43	0.69
0.5881	371.16	0.69

System: ethanol + water + 1-butyl-3-methylimidazolium chloride; phases: Gas, Liquid
Fixed: Solvent: Mole fraction of ethanol = 0.95
Fixed: Pressure, kPa = 100
Property: Mole fraction of ethanol (Gas); method: Titration method
Mass fraction of 1-butyl-3-methylimidazolium chloride	Mole fraction of ethanol	uncertainty
0.1	0.9538	0.002
0.2	0.9595	0.002
0.3009	0.964	0.002
0.3999	0.9683	0.002
0.4999	0.9728	0.002
0.5881	0.9769	0.002

System: ethanol + water + 1-ethyl-3-methylimidazolium chloride; phases: Liquid, Gas
Fixed: Pressure, kPa = 100
Property: Boiling temperature at pressure P, K (Liquid); method: EBULLIO:UFactor:8
Solvent: Mole fraction of ethanol	Mass fraction of 1-ethyl-3-methylimidazolium chloride	Boiling temperature at pressure P, K	uncertainty
0.95	0.5001	366.38	0.69
0.95	0.5906	373.52	0.69
0.9501	0.1	352.06	0.69
0.9501	0.2001	353.68	0.69
0.9501	0.3	356.26	0.69
0.9501	0.3997	360.25	0.69

System: ethanol + water + 1-ethyl-3-methylimidazolium chloride; phases: Gas, Liquid
Fixed: Pressure, kPa = 100
Property: Mole fraction of ethanol (Gas); method: Titration method
Solvent: Mole fraction of ethanol	Mass fraction of 1-ethyl-3-methylimidazolium chloride	Mole fraction of ethanol	uncertainty
0.95	0.5001	0.9803	0.002
0.95	0.5906	0.9848	0.002
0.9501	0.1	0.9561	0.002
0.9501	0.2001	0.9634	0.002
0.9501	0.3	0.9696	0.002
0.9501	0.3997	0.9748	0.002

System: ethanol + water + 1-butyl-3-methylimidazolium acetate; phases: Liquid, Gas
Fixed: Pressure, kPa = 100
Property: Boiling temperature at pressure P, K (Liquid); method: EBULLIO:UFactor:8
Solvent: Mole fraction of ethanol	Mass fraction of 1-butyl-3-methylimidazolium acetate	Boiling temperature at pressure P, K	uncertainty
0.9499	0.0999	351.87	0.69
0.95	0.2	353.72	0.69
0.95	0.3	356.73	0.69
0.95	0.4	360.87	0.69
0.95	0.5	367.48	0.69
0.9501	0.5998	377.15	0.69

System: ethanol + water + 1-butyl-3-methylimidazolium acetate; phases: Gas, Liquid
Fixed: Pressure, kPa = 100
Property: Mole fraction of ethanol (Gas); method: Titration method
Solvent: Mole fraction of ethanol	Mass fraction of 1-butyl-3-methylimidazolium acetate	Mole fraction of ethanol	uncertainty
0.9499	0.0999	0.955	0.002
0.95	0.2	0.9609	0.002
0.95	0.3	0.9652	0.002
0.95	0.4	0.9691	0.002
0.95	0.5	0.9718	0.002
0.9501	0.5998	0.974	0.002

System: ethanol + water + 1-ethyl-3-methylimidazolium acetate; phases: Liquid, Gas
Fixed: Solvent: Mole fraction of ethanol = 0.95
Fixed: Pressure, kPa = 100
Property: Boiling temperature at pressure P, K (Liquid); method: EBULLIO:UFactor:8
Mass fraction of 1-ethyl-3-methylimidazolium acetate	Boiling temperature at pressure P, K	uncertainty
0.0999	351.99	0.69
0.2	353.76	0.69
0.3	356.85	0.69
0.4001	361.94	0.69
0.5002	369.43	0.69
0.6003	380.12	0.69

System: ethanol + water + 1-ethyl-3-methylimidazolium acetate; phases: Gas, Liquid
Fixed: Solvent: Mole fraction of ethanol = 0.95
Fixed: Pressure, kPa = 100
Property: Mole fraction of ethanol (Gas); method: Titration method
Mass fraction of 1-ethyl-3-methylimidazolium acetate	Mole fraction of ethanol	uncertainty
0.0999	0.9567	0.002
0.2	0.9636	0.002
0.3	0.9687	0.002
0.4001	0.9729	0.002
0.5002	0.9771	0.002
0.6003	0.9809	0.002
