Measured thermophysical data. Thermodynamic investigation of the ternary mixed electrolyte (NaCl + Na2HCit + H2O) system using potentiometric measurements at T = (298.2 and 308.2) K
Source: J. Chem. Thermodyn., 2014, 10.1016/j.jct.2014.06.007
Compound 1: disodium hydrogen citrate, C6H6Na2O7, InChI=1S/C6H8O7.2Na/c7-3(8)1-6(13,5(11)12)2-4(9)10;;/h13H,1-2H2,(H,7,8)(H,9,10)(H,11,12);;/q;2*+1/p-2, purity 99%
Compound 2: sodium chloride, ClNa, InChI=1S/ClH.Na/h1H;/q;+1/p-1, purity 99.5%
Compound 3: water, H2O, InChI=1S/H2O/h1H2

System: disodium hydrogen citrate + sodium chloride + water; phases: Liquid
Fixed: Pressure, kPa = 100
Property: Mean ionic activity coefficient of sodium chloride (Liquid); method: Calculated from EMF cell potential
Temperature, K	Molality, mol/kg of sodium chloride	Molality, mol/kg of disodium hydrogen citrate	Mean ionic activity coefficient of sodium chloride	uncertainty
298.2	0.001	0	0.9651	0.0255
298.2	0.01	0	0.9023	0.0265
298.2	0.05	0	0.8204	0.0277
298.2	0.1	0	0.7768	0.0283
298.2	0.25	0	0.7182	0.0292
298.2	0.5	0	0.6796	0.0298
298.2	0.75	0	0.6628	0.0301
298.2	1	0	0.6555	0.0302
298.2	1.25	0	0.6537	0.0302
298.2	1.5	0	0.6556	0.0302
298.2	1.75	0	0.6603	0.0301
298.2	2	0	0.6673	0.03
298.2	2.25	0	0.6763	0.0299
298.2	2.5	0	0.687	0.0297
298.2	2.75	0	0.6993	0.0295
298.2	0.007	0.0009	0.9301	0.0349
298.2	0.0356	0.0047	0.777	0.0228
298.2	0.0715	0.0095	0.7319	0.0225
298.2	0.1782	0.0238	0.7279	0.0225
298.2	0.3569	0.0476	0.6906	0.023
298.2	0.536	0.0715	0.6726	0.0232
298.2	0.7146	0.0953	0.6594	0.0233
298.2	0.893	0.1191	0.6509	0.0234
298.2	1.0712	0.1428	0.6537	0.0234
298.2	1.2499	0.1667	0.636	0.0236
298.2	1.4286	0.1905	0.6304	0.0237
298.2	1.6073	0.2143	0.6237	0.0237
298.2	1.7856	0.2381	0.6235	0.0237
298.2	1.9642	0.2619	0.6209	0.0238
298.2	2.1428	0.2857	0.6235	0.0237
298.2	2.5	0.3333	0.6451	0.0235
298.2	2.8571	0.381	0.6523	0.0234
298.2	0.0046	0.0018	0.9999	0.0483
298.2	0.0228	0.0091	0.7836	0.0219
298.2	0.0452	0.0181	0.7357	0.0224
298.2	0.1139	0.0456	0.6935	0.0229
298.2	0.2275	0.091	0.6455	0.0235
298.2	0.341	0.1364	0.6224	0.0238
298.2	0.4547	0.1819	0.6062	0.0239
298.2	0.5681	0.2273	0.5965	0.0241
298.2	0.6818	0.2727	0.5916	0.0241
298.2	0.7954	0.3182	0.5891	0.0241
298.2	0.9092	0.3637	0.5915	0.0241
298.2	1.0279	0.4112	0.5943	0.0241
298.2	1.1363	0.4545	0.601	0.024
298.2	1.2499	0.5	0.6258	0.0237
298.2	1.3636	0.5454	0.6182	0.0238
298.2	1.5909	0.6364	0.6193	0.0238
298.2	1.8182	0.7273	0.6257	0.0237
298.2	0.0003	0.0033	1.0139	0.0237
298.2	0.0019	0.0193	0.7577	0.0237
298.2	0.0032	0.0321	0.7337	0.0237
298.2	0.0081	0.0807	0.6732	0.0274
298.2	0.0161	0.1612	0.6287	0.0237
298.2	0.0242	0.2419	0.61	0.0239
298.2	0.0323	0.3227	0.596	0.0241
298.2	0.0403	0.4033	0.5789	0.0243
298.2	0.0484	0.4839	0.5845	0.0242
298.2	0.0565	0.5645	0.5702	0.0244
298.2	0.0645	0.6451	0.5573	0.0245
298.2	0.0726	0.7259	0.5486	0.0246
298.2	0.0806	0.8065	0.5401	0.0247
298.2	0.0889	0.889	0.5382	0.0247
298.2	0.0968	0.9678	0.5408	0.0247
298.2	0.1129	1.1291	0.5231	0.0252
298.2	0.129	1.2903	0.4986	0.0252
298.2	0.0075	0.0008	0.924	0.0321
298.2	0.038	0.0038	0.7959	0.0217
298.2	0.0772	0.0077	0.7549	0.0222
298.2	0.1922	0.0193	0.7079	0.0228
298.2	0.3842	0.0385	0.6789	0.0231
298.2	0.5766	0.0578	0.6574	0.0233
298.2	0.7689	0.0771	0.6491	0.0234
298.2	0.9611	0.0963	0.653	0.0234
298.2	1.1532	0.1156	0.6443	0.0235
298.2	1.3455	0.1348	0.642	0.0235
298.2	1.5378	0.1541	0.6414	0.0235
298.2	1.7299	0.1734	0.6355	0.0236
298.2	1.9221	0.1926	0.6337	0.0236
298.2	2.1143	0.2119	0.6319	0.0236
298.2	2.3065	0.2311	0.6443	0.0235
298.2	0.0062	0.0013	0.9629	0.0343
298.2	0.0312	0.0063	0.788	0.0218
298.2	0.0625	0.0125	0.7434	0.0223
298.2	0.1562	0.0313	0.711	0.0227
298.2	0.3125	0.0625	0.6562	0.0234
298.2	0.4687	0.0938	0.6513	0.0234
298.2	0.625	0.125	0.6315	0.0236
298.2	0.7812	0.1563	0.6213	0.0238
298.2	0.9375	0.1875	0.612	0.0239
298.2	1.0937	0.2188	0.6126	0.0239
298.2	1.25	0.25	0.6101	0.0239
298.2	1.4062	0.2813	0.6123	0.0239
298.2	1.5625	0.3125	0.6372	0.0236
298.2	1.7187	0.3438	0.6399	0.0235
298.2	1.875	0.375	0.6454	0.0235
298.2	0.0025	0.0025	1.0741	0.0907
298.2	0.0126	0.0126	0.747	0.0246
298.2	0.025	0.025	0.7233	0.0226
298.2	0.0626	0.0626	0.6687	0.0232
298.2	0.125	0.125	0.6301	0.0237
298.2	0.1876	0.1876	0.6101	0.0277
298.2	0.25	0.25	0.5998	0.0241
298.2	0.3125	0.3125	0.5797	0.0242
298.2	0.3749	0.3749	0.567	0.0244
298.2	0.4376	0.4376	0.5572	0.0245
298.2	0.5	0.5	0.5524	0.0246
298.2	0.5625	0.5625	0.5739	0.0291
298.2	0.625	0.625	0.5766	0.0243
298.2	0.6875	0.6875	0.6038	0.024
298.2	0.75	0.75	0.5915	0.0241
298.2	0.875	0.875	0.5876	0.0242
298.2	0.9999	0.9999	0.5862	0.0242
308.2	0.01	0	0.9645	0.0255
308.2	0.05	0	0.9009	0.0265
308.2	0.1	0	0.8186	0.0277
308.2	0.25	0	0.7753	0.0284
308.2	0.5	0	0.7178	0.0292
308.2	0.75	0	0.6807	0.0298
308.2	1	0	0.6654	0.03
308.2	1.25	0	0.6592	0.0301
308.2	1.5	0	0.6585	0.0301
308.2	1.75	0	0.6614	0.0301
308.2	2	0	0.667	0.03
308.2	2.25	0	0.6748	0.0299
308.2	2.5	0	0.6846	0.0297
308.2	2.75	0	0.6959	0.0296
308.2	3	0	0.7088	0.0294
308.2	3.5	0	0.7231	0.0292
308.2	4	0	0.7557	0.0287
308.2	0.007	0.0009	0.9576	0.0377
308.2	0.0356	0.0047	0.7605	0.028
308.2	0.0715	0.0095	0.7086	0.0228
308.2	0.1782	0.0238	0.7112	0.0227
308.2	0.3569	0.0476	0.6932	0.0229
308.2	0.536	0.0715	0.6935	0.0229
308.2	0.7146	0.0953	0.6909	0.023
308.2	0.893	0.1191	0.6736	0.024
308.2	1.0712	0.1428	0.6748	0.0231
308.2	1.2499	0.1667	0.6678	0.0232
308.2	1.4286	0.1905	0.6679	0.0232
308.2	1.6073	0.2143	0.6666	0.0232
308.2	1.7856	0.2381	0.6538	0.0234
308.2	1.9642	0.2619	0.6489	0.0234
308.2	2.146	0.2861	0.6576	0.0233
308.2	2.502	0.3336	0.6422	0.0239
308.2	2.8583	0.3811	0.6947	0.0229
308.2	0.0046	0.0018	0.93	0.0514
308.2	0.0228	0.0091	0.7698	0.022
308.2	0.0672	0.0269	0.696	0.0229
308.2	0.1138	0.0455	0.7809	0.0219
308.2	0.2271	0.0908	0.6984	0.0229
308.2	0.3407	0.1363	0.669	0.0232
308.2	0.4546	0.1818	0.6537	0.0234
308.2	0.5683	0.2273	0.6441	0.0235
308.2	0.6818	0.2727	0.6412	0.0235
308.2	0.7955	0.3182	0.6373	0.0236
308.2	0.9091	0.3637	0.6367	0.0236
308.2	1.0256	0.4102	0.6357	0.0236
308.2	1.1388	0.4555	0.6373	0.0236
308.2	1.2521	0.5008	0.639	0.0236
308.2	1.3653	0.5461	0.6348	0.0236
308.2	1.592	0.6368	0.6412	0.0235
308.2	1.8189	0.7276	0.6346	0.0236
308.2	0.0003	0.0033	1.079	0.0236
308.2	0.0016	0.016	0.7478	0.0236
308.2	0.0032	0.0322	0.7105	0.0236
308.2	0.0081	0.0808	0.6791	0.0292
308.2	0.0161	0.1611	0.6411	0.0296
308.2	0.0242	0.2418	0.6543	0.0234
308.2	0.0323	0.3227	0.6486	0.0234
308.2	0.0403	0.4031	0.6306	0.0301
308.2	0.0484	0.4839	0.6474	0.0235
308.2	0.0565	0.5645	0.6213	0.0244
308.2	0.0645	0.6451	0.6175	0.0246
308.2	0.0726	0.7258	0.6055	0.0243
308.2	0.0806	0.8064	0.6037	0.024
308.2	0.0887	0.8871	0.6055	0.026
308.2	0.0968	0.9677	0.611	0.0252
308.2	0.1129	1.129	0.6012	0.024
308.2	0.129	1.2903	0.6165	0.0238
308.2	0.0077	0.0008	0.9014	0.0322
308.2	0.0381	0.0038	0.8142	0.0215
308.2	0.1135	0.0114	0.7216	0.0226
308.2	0.1923	0.0192	0.6954	0.0229
308.2	0.3842	0.0384	0.6925	0.0229
308.2	0.5767	0.0577	0.6966	0.0229
308.2	0.7689	0.0769	0.6898	0.023
308.2	0.9616	0.0962	0.6496	0.028
308.2	1.154	0.1154	0.6651	0.0258
308.2	1.3462	0.1346	0.6669	0.0232
308.2	1.5383	0.1538	0.6572	0.036
308.2	1.7309	0.1731	0.6562	0.0335
308.2	1.9229	0.1923	0.6636	0.0266
308.2	2.1154	0.2115	0.6732	0.0265
308.2	2.3077	0.2308	0.6811	0.0355
308.2	2.6924	0.2692	0.6752	0.0327
308.2	3.0769	0.3077	0.7052	0.0336
308.2	0.0061	0.0012	1.0188	0.0396
308.2	0.0304	0.0061	0.7769	0.022
308.2	0.0603	0.0121	0.7334	0.0225
308.2	0.1501	0.03	0.682	0.0231
308.2	0.2996	0.0599	0.6616	0.0233
308.2	0.4491	0.0898	0.6533	0.0234
308.2	0.5979	0.1196	0.6483	0.0235
308.2	0.7471	0.1494	0.6433	0.0235
308.2	0.8953	0.1791	0.6434	0.0235
308.2	1.044	0.2088	0.6405	0.0266
308.2	1.1921	0.2384	0.641	0.0235
308.2	1.3397	0.268	0.6466	0.0235
308.2	1.4872	0.2974	0.6603	0.0233
308.2	1.6347	0.3269	0.6649	0.0233
308.2	1.7817	0.3563	0.6752	0.0231
308.2	2.075	0.415	0.6907	0.023
308.2	2.3674	0.4735	0.707	0.0228
308.2	0.0026	0.0027	0.9907	0.0781
308.2	0.0125	0.0125	0.761	0.0247
308.2	0.025	0.0252	0.7635	0.0248
308.2	0.0623	0.0627	0.7018	0.0228
308.2	0.1246	0.1252	0.6777	0.0231
308.2	0.1867	0.1877	0.6556	0.0234
308.2	0.2501	0.2513	0.6264	0.0237
308.2	0.3113	0.3129	0.6315	0.0236
308.2	0.3736	0.3755	0.6201	0.0238
308.2	0.4389	0.4411	0.6209	0.0238
308.2	0.4981	0.5006	0.625	0.0237
308.2	0.5604	0.5633	0.6345	0.0236
308.2	0.6226	0.6258	0.6285	0.0237
308.2	0.6849	0.6884	0.6264	0.0237
308.2	0.7471	0.7509	0.6234	0.0237
308.2	0.8717	0.8761	0.6298	0.0237
308.2	0.9962	1.0013	0.6406	0.0235

System: sodium chloride + water; phases: Liquid
Fixed: Pressure, kPa = 100
Property: Mean ionic activity coefficient of sodium chloride (Liquid); method: Calculated from EMF cell potential
Temperature, K	Molality, mol/kg of sodium chloride	Mean ionic activity coefficient of sodium chloride	uncertainty
298.2	0.001	0.9651	0.0255
298.2	0.01	0.9023	0.0265
298.2	0.05	0.8204	0.0277
298.2	0.1	0.7768	0.0283
298.2	0.25	0.7182	0.0292
298.2	0.5	0.6796	0.0298
298.2	0.75	0.6628	0.0301
298.2	1	0.6555	0.0302
298.2	1.25	0.6537	0.0302
298.2	1.5	0.6556	0.0302
298.2	1.75	0.6603	0.0301
298.2	2	0.6673	0.03
298.2	2.25	0.6763	0.0299
298.2	2.5	0.687	0.0297
298.2	2.75	0.6993	0.0295
308.2	0.01	0.9645	0.0255
308.2	0.05	0.9009	0.0265
308.2	0.1	0.8186	0.0277
308.2	0.25	0.7753	0.0284
308.2	0.5	0.7178	0.0292
308.2	0.75	0.6807	0.0298
308.2	1	0.6654	0.03
308.2	1.25	0.6592	0.0301
308.2	1.5	0.6585	0.0301
308.2	1.75	0.6614	0.0301
308.2	2	0.667	0.03
308.2	2.25	0.6748	0.0299
308.2	2.5	0.6846	0.0297
308.2	2.75	0.6959	0.0296
308.2	3	0.7088	0.0294
308.2	3.5	0.7231	0.0292
308.2	4	0.7557	0.0287

System: disodium hydrogen citrate + water; phases: Liquid
Fixed: Pressure, kPa = 100
Property: Mean ionic activity coefficient of disodium hydrogen citrate (Liquid); method: Calculated from EMF cell potential
Temperature, K	Molality, mol/kg of disodium hydrogen citrate	Mean ionic activity coefficient of disodium hydrogen citrate	uncertainty
298.2	0.0003	0.8052	0.0302
298.2	0.0033	0.6413	0.0325
298.2	0.0167	0.5527	0.0319
298.2	0.0333	0.4281	0.0337
298.2	0.0833	0.3356	0.0351
298.2	0.1667	0.2848	0.0359
298.2	0.25	0.2511	0.0364
298.2	0.3333	0.2265	0.0367
298.2	0.4167	0.2076	0.037
298.2	0.5	0.1925	0.0372
298.2	0.5833	0.1801	0.0374
298.2	0.6667	0.1698	0.0376
298.2	0.75	0.1611	0.0377
298.2	0.8333	0.1537	0.0378
298.2	0.9167	0.1473	0.0379
298.2	1.1667	0.137	0.038
298.2	1.3333	0.1292	0.0381
308.2	0.0033	0.8155	0.0281
308.2	0.0167	0.6816	0.03
308.2	0.0333	0.6164	0.031
308.2	0.0833	0.5298	0.0323
308.2	0.1667	0.4635	0.0333
308.2	0.25	0.4226	0.0338
308.2	0.3333	0.392	0.0343
308.2	0.4167	0.3674	0.0346
308.2	0.5	0.347	0.0349
308.2	0.5833	0.3295	0.0352
308.2	0.6667	0.3144	0.0354
308.2	0.75	0.3013	0.0356
308.2	0.8333	0.2897	0.0358
308.2	0.9167	0.2795	0.0359
308.2	1	0.2704	0.036
308.2	1.1667	0.2552	0.0363
308.2	1.3333	0.2429	0.0364
