Measured thermophysical data. Thermodynamic properties of enantiotropic polymorphs of glycolide
Source: J. Chem. Thermodyn., 2017, 10.1016/j.jct.2017.03.011
Compound 1: 1,4-dioxane-2,5-dione, C4H4O4, InChI=1S/C4H4O4/c5-3-1-7-4(6)2-8-3/h1-2H2
Compound 2: ethyl acetate, C4H8O2, InChI=1S/C4H8O2/c1-3-6-4(2)5/h3H2,1-2H3, purity 99.5%
Compound 3: propan-1-ol, C3H8O, InChI=1S/C3H8O/c1-2-3-4/h4H,2-3H2,1H3, purity 99.8%
Compound 4: propan-2-ol, C3H8O, InChI=1S/C3H8O/c1-3(2)4/h3-4H,1-2H3, purity 99.7%
Compound 5: ethanol, C2H6O, InChI=1S/C2H6O/c1-2-3/h3H,2H2,1H3, purity 99.7%
Compound 6: butan-1-ol, C4H10O, InChI=1S/C4H10O/c1-2-3-4-5/h5H,2-4H2,1H3, purity 99.5%

System: 1,4-dioxane-2,5-dione; phases: Crystal 2, Crystal 1, Air at 1 atmosphere
Property: Triple point temperature, K (Crystal 2); method: DSC
Triple point temperature, K	uncertainty
316.55	2.12

System: 1,4-dioxane-2,5-dione; phases: Crystal 1, Liquid, Air at 1 atmosphere
Property: Normal melting temperature, K (Crystal 1); method: DTA
Normal melting temperature, K	uncertainty
356.15	2.03

System: 1,4-dioxane-2,5-dione; phases: Crystal 2, Crystal 1, Air at 1 atmosphere
Property: Molar enthalpy of transition or fusion, kJ/mol (Crystal 2); method: DSC
Molar enthalpy of transition or fusion, kJ/mol	uncertainty
1.74	0.2

System: 1,4-dioxane-2,5-dione; phases: Crystal 1, Liquid, Air at 1 atmosphere
Property: Molar enthalpy of transition or fusion, kJ/mol (Crystal 1); method: DSC
Molar enthalpy of transition or fusion, kJ/mol	uncertainty
13.72	1.41

System: ethyl acetate + 1,4-dioxane-2,5-dione; phases: Liquid, Crystal 2
Fixed: Pressure, kPa = 100
Property: Mole fraction of 1,4-dioxane-2,5-dione (Liquid); method: Gravimetric method
Temperature, K	Mole fraction of 1,4-dioxane-2,5-dione	uncertainty
278.15	0.0522	0.0052
283.15	0.0595	0.006
288.15	0.0678	0.0068
293.15	0.0775	0.0078
298.15	0.0905	0.0091
303.15	0.104	0.01
306.15	0.112	0.011
308.15	0.119	0.012

System: ethyl acetate + 1,4-dioxane-2,5-dione; phases: Liquid, Crystal 1
Fixed: Pressure, kPa = 100
Property: Mole fraction of 1,4-dioxane-2,5-dione (Liquid); method: gravimetric method
Temperature, K	Mole fraction of 1,4-dioxane-2,5-dione	uncertainty
303.15	0.104	0.01
306.15	0.113	0.011
308.15	0.118	0.012
310.15	0.123	0.012
313.15	0.13	0.013
318.15	0.145	0.015
323.15	0.161	0.016
328.15	0.179	0.018

System: propan-1-ol + 1,4-dioxane-2,5-dione; phases: Liquid, Crystal 2
Fixed: Pressure, kPa = 100
Property: Mole fraction of 1,4-dioxane-2,5-dione (Liquid); method: Gravimetric method
Temperature, K	Mole fraction of 1,4-dioxane-2,5-dione	uncertainty
278.15	0.0011	0.00011
283.15	0.00141	0.00014
288.15	0.0019	0.00019
293.15	0.00267	0.00027
298.15	0.00363	0.00036
303.15	0.005	0.0005
306.15	0.00594	0.0006
308.15	0.0066	0.00066

System: propan-1-ol + 1,4-dioxane-2,5-dione; phases: Liquid, Crystal 1
Fixed: Pressure, kPa = 100
Property: Mole fraction of 1,4-dioxane-2,5-dione (Liquid); method: gravimetric method
Temperature, K	Mole fraction of 1,4-dioxane-2,5-dione	uncertainty
303.15	0.00525	0.00053
306.15	0.006	0.0006
308.15	0.00654	0.00065
310.15	0.00723	0.00072
313.15	0.00834	0.00084
318.15	0.0102	0.001
323.15	0.0124	0.0012
328.15	0.0149	0.0015

System: propan-2-ol + 1,4-dioxane-2,5-dione; phases: Liquid, Crystal 2
Fixed: Pressure, kPa = 100
Property: Mole fraction of 1,4-dioxane-2,5-dione (Liquid); method: Gravimetric method
Temperature, K	Mole fraction of 1,4-dioxane-2,5-dione	uncertainty
278.15	0.00165	0.00017
283.15	0.00225	0.00023
288.15	0.00273	0.00027
293.15	0.00346	0.00035
298.15	0.0047	0.00047
303.15	0.00587	0.00059
306.15	0.00677	0.00068
308.15	0.00746	0.00075

System: propan-2-ol + 1,4-dioxane-2,5-dione; phases: Liquid, Crystal 1
Fixed: Pressure, kPa = 100
Property: Mole fraction of 1,4-dioxane-2,5-dione (Liquid); method: gravimetric method
Temperature, K	Mole fraction of 1,4-dioxane-2,5-dione	uncertainty
303.15	0.00602	0.0006
306.15	0.00682	0.00068
308.15	0.00738	0.00074
310.15	0.00783	0.00078
313.15	0.00884	0.00088
318.15	0.0105	0.0011
323.15	0.0124	0.0012
328.15	0.0151	0.0015

System: ethanol + 1,4-dioxane-2,5-dione; phases: Liquid, Crystal 2
Fixed: Pressure, kPa = 100
Property: Mole fraction of 1,4-dioxane-2,5-dione (Liquid); method: Gravimetric method
Temperature, K	Mole fraction of 1,4-dioxane-2,5-dione	uncertainty
278.15	0.00259	0.00026
283.15	0.00323	0.00032
288.15	0.00412	0.00041
293.15	0.00545	0.00055
298.15	0.00698	0.0007
303.15	0.00915	0.00092
306.15	0.011	0.0011
308.15	0.0122	0.0012

System: ethanol + 1,4-dioxane-2,5-dione; phases: Liquid, Crystal 1
Fixed: Pressure, kPa = 100
Property: Mole fraction of 1,4-dioxane-2,5-dione (Liquid); method: gravimetric method
Temperature, K	Mole fraction of 1,4-dioxane-2,5-dione	uncertainty
303.15	0.00966	0.00097
306.15	0.0111	0.0011
308.15	0.0121	0.0012
310.15	0.0129	0.0013
313.15	0.0142	0.0014
318.15	0.0166	0.0017
323.15	0.0194	0.0019
328.15	0.0225	0.0023

System: butan-1-ol + 1,4-dioxane-2,5-dione; phases: Liquid, Crystal 2
Fixed: Pressure, kPa = 100
Property: Mole fraction of 1,4-dioxane-2,5-dione (Liquid); method: Gravimetric method
Temperature, K	Mole fraction of 1,4-dioxane-2,5-dione	uncertainty
278.15	0.00135	0.00014
283.15	0.00172	0.00017
288.15	0.00224	0.00022
293.15	0.00294	0.00029
298.15	0.00364	0.00036
303.15	0.0045	0.00045
306.15	0.0052	0.00052
308.15	0.00562	0.00056

System: butan-1-ol + 1,4-dioxane-2,5-dione; phases: Liquid, Crystal 1
Fixed: Pressure, kPa = 100
Property: Mole fraction of 1,4-dioxane-2,5-dione (Liquid); method: gravimetric method
Temperature, K	Mole fraction of 1,4-dioxane-2,5-dione	uncertainty
303.15	0.00483	0.00048
306.15	0.00527	0.00053
308.15	0.00557	0.00056
310.15	0.006	0.0006
313.15	0.00686	0.00069
318.15	0.00835	0.00084
323.15	0.00994	0.00099
328.15	0.0119	0.0012
