Measured thermophysical data. Calorimetric and computational study of 7-hydroxycoumarin
Source: J. Chem. Thermodyn., 2011, 10.1016/j.jct.2011.04.015
Compound 1: carbon dioxide, CO2, InChI=1S/CO2/c2-1-3
Compound 2: water, H2O, InChI=1S/H2O/h1H2
Compound 3: oxygen, O2, InChI=1S/O2/c1-2
Compound 4: 7-hydroxy-2H-chromen-2-one, C9H6O3, InChI=1S/C9H6O3/c10-7-3-1-6-2-4-9(11)12-8(6)5-7/h1-5,10H

System: 7-hydroxy-2H-chromen-2-one; phases: Crystal, Liquid, Air at 1 atmosphere
Property: Molar enthalpy of transition or fusion, kJ/mol (Crystal); method: DSC
Molar enthalpy of transition or fusion, kJ/mol	uncertainty
31.25	0.7

System: 7-hydroxy-2H-chromen-2-one; phases: Crystal, Liquid, Air at 1 atmosphere
Property: Triple point temperature, K (Crystal); method: DTA
Triple point temperature, K	uncertainty
503.74	0.39

System: 7-hydroxy-2H-chromen-2-one; phases: Crystal, Gas
Property: Molar enthalpy of vaporization or sublimation, kJ/mol (Crystal); method: Static calorimetry
Temperature, K	Molar enthalpy of vaporization or sublimation, kJ/mol	uncertainty
298.15	133.6	3

Reaction: -1 7-hydroxy-2H-chromen-2-one + 9 carbon dioxide + 3 water + -9 oxygen
Property: Molar enthalpy of reaction, kJ/mol
-3928
