Measured thermophysical data. Thermodynamic properties of deuterium oxide in the temperature range from 6 to 350 K
Source: J. Chem. Thermodyn., 2006, 10.1016/j.jct.2005.09.005
Compound 1: water-d2, D2O, InChI=1S/H2O/h1H2/i/hD2

System: water-d2; phases: Crystal, Liquid, Air at 1 atmosphere
Property: Molar enthalpy of transition or fusion, kJ/mol (Crystal); method: Adiabatic calorimetry
Molar enthalpy of transition or fusion, kJ/mol	uncertainty
6.132	0.094

System: water-d2; phases: Crystal, Liquid, Air at 1 atmosphere
Property: Normal melting temperature, K (Crystal); method: Adiabatic calorimetry
Normal melting temperature, K	uncertainty
276.83	0.05

System: water-d2; phases: Crystal
Fixed: Pressure, kPa = 101.325
Property: Molar heat capacity at constant pressure, J/K/mol (Crystal); method: Vacuum adiabatic calorimetry
Temperature, K	Molar heat capacity at constant pressure, J/K/mol	uncertainty
6.58	0.0659	0.0106
7.08	0.141	0.012
7.56	0.12	0.011
8.12	0.158	0.012
8.61	0.19	0.012
9.07	0.222	0.012
9.51	0.261	0.012
9.94	0.305	0.012
10.37	0.358	0.013
10.8	0.407	0.013
11.22	0.462	0.014
11.65	0.523	0.014
12.68	0.659	0.015
13.4	0.774	0.016
14.11	0.8996	0.017
14.93	1.051	0.017
15.65	1.193	0.018
16.38	1.337	0.019
17.11	1.492	0.02
17.84	1.652	0.021
18.58	1.814	0.021
19.33	1.982	0.022
20.08	2.152	0.022
21.87	2.524	0.023
24.35	3.102	0.025
26.84	3.651	0.025
29.35	4.206	0.025
31.87	4.729	0.05
34.41	5.231	0.051
36.93	5.723	0.052
39.46	6.213	0.052
41.98	6.674	0.053
44.5	7.12	0.054
47.01	7.558	0.055
49.52	8.018	0.057
52.01	8.514	0.06
54.5	9.012	0.06
56.99	9.486	0.06
59.48	9.885	0.06
62.01	10.32	0.06
64.5	10.83	0.06
66.98	11.22	0.07
69.45	11.66	0.07
71.93	12.02	0.07
74.43	12.44	0.07
76.9	12.74	0.07
79.38	13.19	0.07
81.85	13.77	0.07
82.58	13.86	0.07
84.31	14.14	0.07
84.89	14.3	0.07
87.37	14.74	0.07
89.84	15.12	0.07
92.31	15.57	0.216
94.78	15.98	0.216
97.24	16.41	0.216
99.71	16.82	0.216
102.17	17.25	0.216
104.63	17.71	0.216
107.09	18.15	0.216
109.53	18.67	0.216
111.98	19.03	0.216
114.42	19.58	0.216
116.87	19.92	0.216
119.31	20.41	0.224
121.79	20.81	0.224
124.23	21.21	0.224
126.67	21.62	0.224
129.11	22.03	0.224
131.54	22.45	0.224
133.98	22.91	0.224
136.41	23.27	0.224
138.85	23.7	0.224
141.28	24.08	0.224
143.71	24.5	0.224
146.14	24.9	0.224
148.57	25.31	0.224
151	25.71	0.224
153.43	26.1	0.224
155.87	26.52	0.224
158.32	26.94	0.224
160.81	27.33	0.224
163.26	27.73	0.224
165.71	28.13	0.224
168.15	28.55	0.224
170.6	28.97	0.233
173.05	29.33	0.233
175.5	29.73	0.233
177.94	30.14	0.233
180.39	30.54	0.233
182.83	30.96	0.233
185.28	31.33	0.233
187.72	31.71	0.233
190.17	32.11	0.233
192.61	32.48	0.233
195.05	32.9	0.233
197.5	33.29	0.233
199.99	33.7	0.233
202.44	34.08	0.233
204.88	34.48	0.233
207.33	34.88	0.233
210.91	35.46	0.233
213.05	35.74	0.233
215.49	36.17	0.233
217.93	36.56	0.233
220.38	36.96	0.241
222.82	37.34	0.241
225.26	37.72	0.241
227.71	38.06	0.241
230.15	38.5	0.241
232.58	38.89	0.241
235.03	39.22	0.241
237.47	39.55	0.241
239.91	39.99	0.241
242.35	40.38	0.241
244.78	40.92	0.241
247.23	41.27	0.241
249.73	41.6	0.241
252.17	41.99	0.241
254.61	42.32	0.241
257.04	42.71	0.241
257.41	42.2	0.241
259.48	43.1	0.241
261.91	43.48	0.241
262.39	43.37	0.241
264.34	43.87	0.241
266.76	44.33	0.241
269.18	44.87	0.241
271.59	45.53	0.249
273.99	47.53	0.249

System: water-d2; phases: Liquid
Fixed: Pressure, kPa = 101.325
Property: Molar heat capacity at constant pressure, J/K/mol (Liquid); method: Vacuum adiabatic calorimetry
Temperature, K	Molar heat capacity at constant pressure, J/K/mol	uncertainty
274.34	85.72	0.25
278.53	85.14	0.25
282.13	84.72	0.25
285.21	84.64	0.25
286.94	84.47	0.25
289.3	84.14	0.25
291.67	83.97	0.25
294.02	83.81	0.25
296.38	83.72	0.25
298.72	83.56	0.25
301.66	83.39	0.25
305.18	83.14	0.25
308.67	83.08	0.283
312.17	82.92	0.283
315.64	82.85	0.283
319.1	82.78	0.283
322.54	82.69	0.283
325.97	82.58	0.283
329.39	82.62	0.283
332.72	82.55	0.283
336.11	82.57	0.283
339.47	82.65	0.283
342.82	82.74	0.283
346.15	82.71	0.283

System: water-d2; phases: Crystal
Fixed: Pressure, kPa = 101.325
Property: Molar heat capacity at constant pressure, J/K/mol (Crystal); method: Vacuum adiabatic calorimetry
Temperature, K	Molar heat capacity at constant pressure, J/K/mol	uncertainty
5	0.0363	0.0104
10	0.315	0.012
15	1.07	0.02
20	2.125	0.022
25	3.246	0.025
30	4.322	0.049
40	6.304	0.052
50	8.154	0.057
60	9.968	0.06
70	11.72	0.07
80	13.39	0.07
90	15.16	0.216
100	16.89	0.216
110	18.7	0.216
120	20.48	0.224
130	22.2	0.224
140	23.89	0.224
150	25.54	0.224
160	27.2	0.224
170	28.83	0.233
180	30.47	0.233
190	32.09	0.233
200	33.7	0.233
210	35.29	0.233
220	36.86	0.233
230	38.45	0.241
240	40.05	0.241
250	41.64	0.241
260	43.16	0.241
270	44.55	0.241
276.82	45.8	0.249

System: water-d2; phases: Liquid
Fixed: Pressure, kPa = 101.325
Property: Molar heat capacity at constant pressure, J/K/mol (Liquid); method: Vacuum adiabatic calorimetry
Temperature, K	Molar heat capacity at constant pressure, J/K/mol	uncertainty
276.82	85.38	0.25
280	84.97	0.25
290	84.05	0.25
298.15	83.47	0.25
300	83.39	0.25
310	82.96	0.283
320	82.7	0.283
330	82.52	0.283
340	82.67	0.283
350	82.8	0.283

System: water-d2; phases: Crystal
Fixed: Pressure, kPa = 101.325
Property: Molar enthalpy, kJ/mol (Crystal); method: Small (less than 1 g) adiabatic calorimetry
Temperature, K	Molar enthalpy, kJ/mol	uncertainty
5	4.71e-05	0.0001008
10	0.000747	0.000212
15	0.004	0.000357
20	0.0119	0.00054
25	0.0253	0.00076
30	0.0443	0.00323
40	0.09761	0.0045
50	0.1699	0.0058
60	0.2606	0.0073
70	0.3691	0.00881
80	0.4947	0.0105
90	0.6373	0.0205
100	0.7974	0.0232
110	0.9752	0.026
120	1.171	0.029
130	1.384	0.032
140	1.615	0.034
150	1.862	0.037
160	2.126	0.041
170	2.406	0.043
180	2.703	0.047
190	3.015	0.05
200	3.345	0.053
210	3.689	0.057
220	4.05	0.06
230	4.426	0.064
240	4.82	0.067
250	5.228	0.071
260	5.652	0.075
270	6.09	0.078
276.82	6.398	0.081

System: water-d2; phases: Liquid
Fixed: Pressure, kPa = 101.325
Property: Molar enthalpy, kJ/mol (Liquid); method: Small (less than 1 g) adiabatic calorimetry
Temperature, K	Molar enthalpy, kJ/mol	uncertainty
276.82	12.53	0.108
280	12.8	0.108
290	13.64	0.116
298.15	14.33	0.116
300	14.48	0.116
310	15.31	0.125
320	16.15	0.125
330	16.97	0.133
340	17.79	0.141
350	18.62	0.141

System: water-d2; phases: Crystal
Fixed: Pressure, kPa = 101.325
Property: Molar entropy, J/K/mol (Crystal); method: Vacuum adiabatic calorimetry
Temperature, K	Molar entropy, J/K/mol	uncertainty
5	0.0121	0.0151
10	0.0981	0.016
15	0.353	0.018
20	0.799	0.022
25	1.394	0.025
30	2.083	0.067
40	3.602	0.071
50	5.21	0.076
60	6.857	0.081
70	8.53	0.083
80	10.2	0.091
90	11.88	0.316
100	13.56	0.324
110	15.26	0.324
120	16.96	0.324
130	18.66	0.324
140	20.38	0.333
150	22.08	0.333
160	23.78	0.333
170	25.48	0.341
180	27.17	0.341
190	28.87	0.341
200	30.55	0.349
210	32.23	0.349
220	33.91	0.349
230	35.58	0.358
240	37.26	0.358
250	38.93	0.358
260	40.59	0.358
270	42.24	0.366
276.82	43.37	0.366

System: water-d2; phases: Liquid
Fixed: Pressure, kPa = 101.325
Property: Molar entropy, J/K/mol (Liquid); method: Vacuum adiabatic calorimetry
Temperature, K	Molar entropy, J/K/mol	uncertainty
276.82	65.52	0.399
280	66.49	0.399
290	69.46	0.407
298.15	71.77	0.407
300	72.3	0.407
310	75.03	0.416
320	77.65	0.416
330	80.19	0.424
340	82.66	0.424
350	85.05	0.42
