Measured thermophysical data. Speed of sound measurement and prediction of ethyl hexanoate and ethyl octanoate at temperatures from (293.15 to 473.15) K and pressures from (0.1 to 10) MPa
Source: J. Chem. Thermodyn., 2016, 10.1016/j.jct.2015.12.028
Compound 1: ethyl hexanoate, C8H16O2, InChI=1S/C8H16O2/c1-3-5-6-7-8(9)10-4-2/h3-7H2,1-2H3, purity 99%
Compound 2: ethyl octanoate, C10H20O2, InChI=1S/C10H20O2/c1-3-5-6-7-8-9-10(11)12-4-2/h3-9H2,1-2H3, purity 99%

System: ethyl hexanoate; phases: Liquid, Gas
Property: Speed of sound, m/s (Liquid); method: light scattering
Temperature, K	Speed of sound, m/s	uncertainty
294.37	1220.1	12.2
301.55	1191	12
313.34	1152.7	11.6
324.26	1115.1	11.2
333.16	1077.6	10.8
343.2	1046.1	10.5
353.08	1010	10.1
363.12	975	9.8
373.14	942	9.5
383.76	905.4	9.1
393.3	870.1	8.8
402.64	834.9	8.4
413.59	800.8	8.1
423.96	764	7.7
433.99	730.3	7.4
443.55	697.6	7
452.9	661	6.7
463.1	628.8	6.4
473.82	592.4	6

System: ethyl hexanoate; phases: Liquid
Property: Speed of sound, m/s (Liquid); method: light scattering
Temperature, K	Pressure, kPa	Speed of sound, m/s	uncertainty
294.64	100	1224.24	12.29
294.64	1100	1230.08	12.34
294.84	2620	1238.95	12.43
293.44	4180	1247.71	12.52
293.41	5690	1254.99	12.6
291.92	7170	1273.2	12.78
292.04	8640	1284	12.89
292.14	10010	1290.26	12.95
302.55	100	1189.8	11.94
301.55	1070	1195.54	12
301.5	2670	1205.7	12.1
301.56	4130	1214.42	12.19
301.6	5650	1225.69	12.31
301.58	7090	1236.88	12.42
301.63	8670	1245.88	12.51
301.73	10030	1258.61	12.64
313.3	100	1155.33	11.6
313.3	1020	1160.75	11.65
313.28	2510	1175.21	11.8
313.24	4030	1185.05	11.89
313.26	5550	1196.24	12.01
313.25	7000	1205.4	12.1
313.24	8510	1215.6	12.2
313.14	9980	1220.48	12.25
323.36	100	1120.82	11.26
323.36	1020	1128.54	11.33
323.31	2480	1142.41	11.47
323.31	4010	1149.94	11.55
323.35	5480	1161.95	11.67
323.33	6950	1169.95	11.75
323.28	8470	1179.08	11.84
323.18	10000	1187.72	11.92
332.99	100	1086.28	10.91
332.99	1060	1090.06	10.95
333.01	2560	1105.94	11.11
333.07	4030	1115.94	11.21
333.04	5580	1125.14	11.3
332.97	6950	1135.61	11.41
332.94	8560	1145.71	11.51
332.97	10050	1156.37	11.62
342.67	100	1051.71	10.57
342.67	1000	1054.83	10.6
342.65	2510	1072.23	10.77
342.69	3940	1082.19	10.87
342.71	5500	1094.46	11
342.74	7030	1099.06	11.04
342.72	8500	1109.7	11.16
342.82	9990	1124.79	11.31
352.33	100	1017.1	10.22
352.33	1100	1023.03	10.28
352.33	2540	1038.43	10.44
352.35	4000	1050.42	10.56
352.41	5530	1061.02	10.66
352.42	7020	1068.21	10.74
352.43	8490	1080.41	10.86
352.73	10060	1093.62	11
362.56	100	982.46	9.88
362.56	1000	987.04	9.92
362.64	2530	1000.91	10.06
362.56	4010	1015.09	10.2
362.62	5540	1025.99	10.32
362.6	7060	1033.44	10.39
362.58	8530	1045.65	10.52
362.68	10100	1061.18	10.68
372.54	100	947.78	9.53
372.54	1040	952.55	9.58
372.53	2500	968.37	9.74
372.59	4050	985.39	9.91
372.57	5560	998.43	10.05
372.55	7020	1007.68	10.13
372.56	8530	1016.32	10.22
372.86	9900	1029.51	10.36
382.74	100	913.07	9.19
382.74	1000	922.72	9.29
382.76	2560	934.6	9.4
382.75	4010	952.21	9.58
382.74	5540	962.72	9.69
382.73	7020	971.25	9.77
382.71	8540	980	9.87
382.91	9900	997.44	10.06
392.47	100	878.33	8.84
392.47	1030	884.09	8.9
392.51	2490	902.62	9.09
392.47	4000	919.08	9.25
392.4	5520	933.47	9.4
392.41	7010	940.67	9.47
392.42	8480	949.6	9.57
392.92	9950	966.97	9.75
402.03	100	843.55	8.5
402.03	1040	854.91	8.61
402.06	2470	868.02	8.74
402.06	4030	883.34	8.9
402.1	5510	899.47	9.07
402	6970	908.77	9.15
402.08	8510	919.03	9.26
402.68	10070	936.79	9.45
412.72	100	808.74	8.15
412.72	1040	815.66	8.22
412.8	2570	833.03	8.4
412.91	4020	848.61	8.55
412.88	5600	865.88	8.73
412.88	7020	871.35	8.78
412.89	8470	886.33	8.94
412.99	10030	903.23	9.11
424.14	100	773.9	7.81
424.14	1010	774.99	7.82
424.11	2540	796.64	8.04
424.11	4010	811.39	8.18
424.04	5530	826.28	8.34
424.01	6980	840.66	8.48
423.99	8470	850.59	8.58
423.69	9950	868.97	8.78
433.17	100	739.02	7.46
433.17	1030	746.97	7.54
433.17	2510	762.64	7.7
432.92	3990	780.75	7.88
432.78	5380	798.35	8.07
432.77	7030	813.37	8.21
432.74	8510	826.01	8.34
432.84	9890	842.12	8.51
442.9	930	715.97	7.24
442.9	2480	729.4	7.37
442.88	4100	748.87	7.56
442.85	5610	765.41	7.74
442.91	6990	777.33	7.86
442.92	8480	791.24	8
452.92	1040	677.79	6.86
452.91	2540	695.59	7.04
452.65	4080	717.86	7.26
452.58	5540	735.89	7.45
452.61	7110	747.91	7.57
452.63	8380	764.36	7.74
452.93	10000	781.61	7.91
462.97	960	644.49	6.53
462.73	2510	660.98	6.7
462.71	4130	682.75	6.91
462.72	5530	700.28	7.11
462.7	7080	715.1	7.25
462.71	8400	730.25	7.41
462.91	10060	751.22	7.62
472.41	950	612.74	6.22
472.29	2600	630.72	6.4
472.03	3960	653.08	6.62
471.94	5520	670.94	6.81
471.93	7050	686.17	6.97
471.95	8260	703.27	7.14
472.05	10050	723.5	7.34

System: ethyl octanoate; phases: Liquid, Gas
Property: Speed of sound, m/s (Liquid); method: light scattering
Temperature, K	Speed of sound, m/s	uncertainty
293.73	1275.7	12.8
302.98	1243	12.5
313.53	1206.1	12.1
323.27	1173.1	11.8
332.65	1138.5	11.4
343.2	1103.8	11.1
352.53	1069.9	10.7
363.28	1035.2	10.4
372.96	1001.9	10.1
383	969.3	9.7
392.03	936.3	9.4
403.14	901.4	9.1
413.12	869.5	8.8
423.11	835.7	8.4
433.2	801.1	8.1
443.05	770.7	7.8
453.11	738.5	7.5
463.17	705.5	7.1
472.16	675	6.8

System: ethyl octanoate; phases: Liquid
Property: Speed of sound, m/s (Liquid); method: light scattering
Temperature, K	Pressure, kPa	Speed of sound, m/s	uncertainty
293.25	100	1280.99	12.85
293.65	1000	1284.01	12.88
293.67	2510	1290.62	12.95
293.69	4020	1296.76	13.01
293.72	5520	1300.99	13.05
293.75	6980	1307.11	13.11
293.77	8490	1313.52	13.18
293.77	10010	1325.77	13.3
303.05	100	1245.89	12.5
303.15	1030	1249.13	12.53
303.15	2510	1257.84	12.62
303.14	3980	1263.65	12.68
303.15	5520	1273.69	12.78
303.13	7040	1280.68	12.85
303.08	8480	1288.64	12.93
303.18	10000	1295.53	13
313.07	100	1210.99	12.15
313.15	1000	1214.25	12.19
313.4	2510	1223.21	12.27
313.4	4060	1230.58	12.35
313.39	5500	1240.28	12.45
313.41	6980	1249.59	12.54
313.38	8530	1257.4	12.62
313.28	9990	1263.19	12.67
322.88	100	1176.27	11.81
323.33	1200	1185.67	11.9
323.35	2490	1190.82	11.95
323.35	3970	1197.85	12.02
323.35	5510	1205.33	12.1
323.35	7060	1215.02	12.2
323.19	8540	1227.26	12.32
323.29	10100	1231.24	12.35
333	100	1141.75	11.46
332.68	980	1149.1	11.54
332.67	2480	1158.27	11.63
332.67	4030	1167.47	11.72
332.65	5510	1175.23	11.8
332.64	7040	1183.54	11.88
332.49	8520	1194.32	11.99
332.39	9980	1202.27	12.07
343.12	100	1107.42	11.12
342.6	890	1113.2	11.18
342.64	2530	1124.09	11.29
342.61	4000	1133.91	11.39
342.71	5490	1142.7	11.48
342.77	6990	1152.8	11.58
342.74	8510	1163.81	11.69
342.94	9970	1168.81	11.73
352.36	100	1073.29	10.78
353.56	1030	1080.3	10.85
353.54	2480	1088	10.93
353.6	4000	1096.35	11.01
353.58	5480	1103.17	11.08
353.54	6990	1116.05	11.22
353.54	8520	1129.3	11.34
353.44	10120	1135.62	11.4
363.19	100	1039.34	10.45
363.19	1070	1047.25	10.52
363.21	2520	1053.84	10.59
363.21	4080	1062.02	10.67
363.21	5520	1071.27	10.77
363.19	7030	1083.09	10.89
363.16	8500	1095.18	11.01
363.26	10030	1104.69	11.1
372.79	100	1005.59	10.11
372.79	1040	1013.25	10.18
372.7	2510	1022.94	10.28
372.73	3980	1033.26	10.38
372.82	5530	1046.71	10.52
372.82	6960	1055.23	10.61
372.75	8570	1067.6	10.73
372.95	10040	1074.24	10.79
382.95	100	972.04	9.78
382.95	1050	980.18	9.86
382.9	2540	988.47	9.94
382.82	4060	998.99	10.04
382.8	5550	1012.8	10.19
382.73	7000	1020.42	10.26
383.03	8530	1028.07	10.34
383.13	9970	1042.39	10.49
392.32	100	938.67	9.44
392.32	1010	945.16	9.51
392.33	2550	958.2	9.64
392.33	4070	971.34	9.77
392.29	5490	982.56	9.89
392.15	7010	991.89	9.98
391.81	8490	1002.42	10.08
391.91	9990	1015.01	10.21
402.91	100	905.5	9.12
402.91	1000	915.87	9.22
402.91	2490	928.04	9.34
402.89	4000	940.63	9.46
402.93	5470	948.7	9.55
402.9	7020	959.16	9.65
402.91	8480	970.85	9.77
402.92	10030	980.74	9.87
413.21	100	872.52	8.79
413.21	1080	878.09	8.84
413.22	2570	890.98	8.97
413.21	4060	901.97	9.08
413.17	5530	910.63	9.17
412.87	7050	922.57	9.3
412.66	8500	941.83	9.49
412.76	10040	953.27	9.59
423.32	100	839.73	8.46
423.32	1150	848.64	8.55
423.31	2520	857.92	8.64
423.53	4090	870.32	8.76
423.3	5530	882.56	8.89
423.29	7010	892.99	9
423.24	8520	908.5	9.16
423.44	10060	919.28	9.26
433.44	100	807.14	8.14
433.44	1010	813.1	8.2
433.41	2490	823.86	8.3
433.84	4510	835.67	8.42
432.95	5520	847.49	8.55
433.09	7010	859.4	8.67
432.96	8480	875.16	8.83
433.06	10010	888.66	8.96
443.55	100	774.74	7.82
443.55	990	780.57	7.87
443.51	2510	790.8	7.98
443.16	3990	805.02	8.12
443.15	5510	817.42	8.25
442.9	7010	829.81	8.37
442.69	8510	841.83	8.5
442.99	10020	857.21	8.66
453.66	100	742.53	7.5
453.66	1010	749.03	7.56
453.61	2490	762.74	7.7
453.47	4510	776.37	7.83
453.15	5520	789.35	7.97
452.7	7010	798.22	8.06
452.41	8480	813.49	8.22
453.41	10010	826.34	8.35
463.78	100	710.51	7.18
463.78	1010	715.5	7.23
463.71	2490	730.68	7.38
463.79	4510	744.72	7.52
463.15	5520	760.28	7.69
462.5	7010	772.63	7.81
463.14	8480	783.19	7.91
463.24	10010	795.41	8.04
473.09	100	678.69	6.86
472.09	1040	688.23	6.96
472.11	2530	704.34	7.12
472.15	4000	718.2	7.26
472.14	5460	730.7	7.4
472.09	6960	745.31	7.54
472.07	8500	760.99	7.7
472.17	10000	773.29	7.81
