Measured thermophysical data. The potential of head-space gas chromatography for VLE measurements
Source: J. Chem. Thermodyn., 2012, 10.1016/j.jct.2012.01.020
Compound 1: acetonitrile, C2H3N, InChI=1S/C2H3N/c1-2-3/h1H3
Compound 2: toluene, C7H8, InChI=1S/C7H8/c1-7-5-3-2-4-6-7/h2-6H,1H3
Compound 3: ethyl acetate, C4H8O2, InChI=1S/C4H8O2/c1-3-6-4(2)5/h3H2,1-2H3
Compound 4: 2,2,4-trimethylpentane, C8H18, InChI=1S/C8H18/c1-7(2)6-8(3,4)5/h7H,6H2,1-5H3
Compound 5: water, H2O, InChI=1S/H2O/h1H2, purity 99.9%
Compound 6: tetrahydrofuran, C4H8O, InChI=1S/C4H8O/c1-2-4-5-3-1/h1-4H2

System: acetonitrile + toluene; phases: Liquid, Gas
Property: Vapor or sublimation pressure, kPa (Liquid); method: Closed cell (Static) method
Mole fraction of acetonitrile	Temperature, K	Vapor or sublimation pressure, kPa	uncertainty
0.099	343.15	39.4178	3.9439
0.1	308.15	10.6771	1.0687
0.102	323.15	19.0089	1.9022
0.197	323.15	21.4202	2.1435
0.197	343.15	51.0101	5.1036
0.198	308.15	10.9255	1.0936
0.299	323.15	25.583	2.5599
0.301	308.15	11.6704	1.1681
0.301	343.15	56.2158	5.6244
0.398	323.15	25.346	2.5362
0.399	308.15	15.652	1.5664
0.4	343.15	62.0037	6.2034
0.5	308.15	14.8158	1.4827
0.5	323.15	28.2538	2.8271
0.5	343.15	65.5255	6.5557
0.599	308.15	17.646	1.7659
0.599	323.15	32.0017	3.202
0.6	343.15	71.1577	7.1192
0.699	308.15	17.1245	1.7137
0.699	323.15	32.8619	3.2881
0.699	343.15	74.3597	7.4395
0.799	308.15	17.9967	1.8009
0.8	323.15	31.6692	3.1688
0.8	343.15	76.3271	7.6363
0.899	308.15	18.7041	1.8717
0.899	343.15	75.0354	7.5071
0.9	323.15	35.168	3.5188

System: acetonitrile + toluene; phases: Gas, Liquid
Property: Mole fraction of acetonitrile (Gas); method: Chromatography
Mole fraction of acetonitrile	Temperature, K	Mole fraction of acetonitrile	uncertainty
0.1	308.15	0.429	0.005
0.198	308.15	0.575	0.005
0.301	308.15	0.644	0.004
0.399	308.15	0.691	0.004
0.5	308.15	0.744	0.003
0.599	308.15	0.783	0.003
0.699	308.15	0.819	0.002
0.799	308.15	0.86	0.002
0.899	308.15	0.911	0.001
0.4	343.15	0.697	0.004
0.5	343.15	0.738	0.003
0.699	343.15	0.809	0.002
0.099	343.15	0.405	0.005
0.197	343.15	0.558	0.005
0.8	343.15	0.852	0.002
0.301	343.15	0.637	0.004
0.899	343.15	0.905	0.001
0.6	343.15	0.775	0.003

System: ethyl acetate + 2,2,4-trimethylpentane; phases: Liquid, Gas
Property: Vapor or sublimation pressure, kPa (Liquid); method: Closed cell (Static) method
Mole fraction of ethyl acetate	Temperature, K	Vapor or sublimation pressure, kPa	uncertainty
0.098	323.15	24.7872	2.4804
0.098	343.15	50.5747	5.0602
0.1	308.15	13.4908	1.3502
0.199	323.15	29.0783	2.9097
0.2	308.15	15.3481	1.5361
0.2	343.15	62.1449	6.2178
0.299	308.15	16.5579	1.6571
0.299	323.15	30.5292	3.0549
0.3	343.15	64.6965	6.4731
0.399	308.15	18.2737	1.8288
0.4	323.15	35.8513	3.5873
0.4	343.15	67.7748	6.781
0.499	323.15	36.1024	3.6124
0.499	343.15	74.9825	7.5021
0.5	308.15	18.97	1.8984
0.599	323.15	38.8019	3.8825
0.599	343.15	78.089	7.8129
0.6	308.15	20.7577	2.0773
0.699	308.15	19.4099	1.9425
0.7	323.15	38.4829	3.8506
0.701	343.15	75.8916	7.5931
0.8	308.15	21.116	2.1132
0.8	323.15	41.768	4.1792
0.801	343.15	80.3501	8.0391
0.9	308.15	21.3633	2.1379
0.9	343.15	84.4082	8.4451
0.901	323.15	40.5916	4.0616

System: ethyl acetate + 2,2,4-trimethylpentane; phases: Gas, Liquid
Property: Mole fraction of ethyl acetate (Gas); method: Chromatography
Mole fraction of ethyl acetate	Temperature, K	Mole fraction of ethyl acetate	uncertainty
0.098	323.15	0.288	0.004
0.098	343.15	0.274	0.003
0.1	308.15	0.309	0.004
0.199	323.15	0.443	0.006
0.2	308.15	0.456	0.006
0.2	343.15	0.444	0.006
0.299	308.15	0.548	0.006
0.299	323.15	0.538	0.006
0.3	343.15	0.533	0.006
0.399	308.15	0.613	0.005
0.4	323.15	0.616	0.005
0.4	343.15	0.602	0.005
0.499	323.15	0.668	0.005
0.499	343.15	0.672	0.005
0.5	308.15	0.665	0.005
0.599	323.15	0.718	0.004
0.599	343.15	0.725	0.004
0.6	308.15	0.708	0.004
0.699	308.15	0.752	0.004
0.7	323.15	0.764	0.003
0.701	343.15	0.771	0.003
0.8	308.15	0.808	0.003
0.8	323.15	0.818	0.003
0.801	343.15	0.827	0.003
0.9	308.15	0.883	0.002
0.9	343.15	0.897	0.002
0.901	323.15	0.89	0.002

System: ethyl acetate + water; phases: Gas, Liquid
Property: Mole fraction of ethyl acetate (Gas); method: Chromatography
Temperature, K	Mole fraction of ethyl acetate	Mole fraction of ethyl acetate	uncertainty
308.15	0.000868	0.039	0.001
308.15	0.00257	0.132	0.002
308.15	0.00494	0.251	0.003
308.15	0.00743	0.305	0.004
308.15	0.0151	0.694	0.004
308.15	0.871	0.771	0.003
308.15	0.931	0.887	0.002
308.15	0.98	0.961	0.001
323.15	0.00114	0.046	0.001
323.15	0.00258	0.109	0.001
323.15	0.00523	0.238	0.003
323.15	0.00742	0.315	0.004
323.15	0.0151	0.778	0.003
323.15	0.873	0.878	0.002
323.15	0.93	0.928	0.001
323.15	0.98	0.982	0.001
343.15	0.000896	0.034	0.001
343.15	0.00251	0.094	0.001
343.15	0.00469	0.2	0.002
343.15	0.0072	0.246	0.003
343.15	0.0149	0.829	0.002
343.15	0.869	0.923	0.001
343.15	0.929	0.948	0.001
343.15	0.981	0.986	0.001

System: acetonitrile + toluene + tetrahydrofuran; phases: Liquid, Gas
Fixed: Temperature, K = 323.15
Property: Mole fraction of toluene (Liquid); method: Chromatography
Property: Mole fraction of toluene (Gas); method: Chromatography
Property: Mole fraction of acetonitrile (Gas); method: Chromatography
Pressure, kPa	Mole fraction of acetonitrile	Mole fraction of toluene	uncertainty	Mole fraction of toluene	uncertainty	Mole fraction of acetonitrile	uncertainty
58.3344	0.042	0		0		0.037	
56.9352	0.151	0		0		0.131	
47.4732	0	0.148	0.002	0.036	0.001	0	
48.2853	0.099	0.1	0.001	0.022	0.001	0.102	
56.8546	0.347	0		0		0.24	
35.8443	0	0.351	0.004	0.119	0.002	0	
35.8545	0.097	0.301	0.003	0.091	0.001	0.135	
42.6839	0.198	0.2	0.002	0.061	0.001	0.222	
47.6884	0.297	0.101	0.001	0.03	0.001	0.275	
31.2373	0.596	0.303	0.003	0.157	0.002	0.686	
36.1803	0.59	0.206	0.002	0.106	0.001	0.592	
43.4625	0.593	0.101	0.001	0.048	0.001	0.516	
45.4304	0.647	0		0		0.484	
36.2678	0.801	0.099	0.001	0.075	0.001	0.74	
16.8107	0	0.801	0.002	0.507	0.006	0	
29.9512	0.8	0.2	0.002	0.156	0.002	0.844	
28.9156	0.9	0.1	0.001	0.1	0.001	0.9	
