Measured thermophysical data. CO2 absorption with aqueous tertiary amine solutions: Equilibrium solubility and thermodynamic modeling
Source: J. Chem. Thermodyn., 2018, 10.1016/j.jct.2018.03.020
Compound 1: water, H2O, InChI=1S/H2O/h1H2, purity 99.8%
Compound 2: carbon dioxide, CO2, InChI=1S/CO2/c2-1-3, purity 99%
Compound 3: N-methyldiethanolamine, C5H13NO2, InChI=1S/C5H13NO2/c1-6(2-4-7)3-5-8/h7-8H,2-5H2,1H3, purity 98%
Compound 4: triethanolamine, C6H15NO3, InChI=1S/C6H15NO3/c8-4-1-7(2-5-9)3-6-10/h8-10H,1-6H2, purity 99%
Compound 5: 2-(N,N-dimethylamino)ethanol, C4H11NO, InChI=1S/C4H11NO/c1-5(2)3-4-6/h6H,3-4H2,1-2H3, purity 99%
Compound 6: 3-dimethylamino-1-propanol, C5H13NO, InChI=1S/C5H13NO/c1-6(2)4-3-5-7/h7H,3-5H2,1-2H3, purity 99%
Compound 7: (diethylamino)ethanol, C6H15NO, InChI=1S/C6H15NO/c1-3-7(4-2)5-6-8/h8H,3-6H2,1-2H3, purity 99%

System: water + carbon dioxide + N-methyldiethanolamine; phases: Liquid, Gas
Fixed: Solvent: Molality, mol/kg of N-methyldiethanolamine = 2.58
Property: Mass fraction of carbon dioxide (Liquid); method: Phase equilibration
Pressure, kPa of carbon dioxide	Temperature, K	Mass fraction of carbon dioxide	uncertainty
8.1	298.15	0.0428	0.0009
8.1	303.15	0.0389	0.0009
8.1	308.15	0.034	0.0009
8.1	313.15	0.0305	0.0009
15	298.15	0.0487	0.001
15	303.15	0.0435	0.001
15	308.15	0.0404	0.001
15	313.15	0.0366	0.0009
20.3	298.15	0.0549	0.001
20.3	303.15	0.0504	0.001
20.3	308.15	0.0462	0.0009
20.3	313.15	0.0409	0.001
30.4	298.15	0.0593	0.0009
30.4	303.15	0.0544	0.0009
30.4	308.15	0.0507	0.0009
30.4	313.15	0.0478	0.0009
60.8	298.15	0.0637	0.0009
60.8	303.15	0.059	0.0009
60.8	308.15	0.0579	0.001
60.8	313.15	0.0545	0.001

System: water + carbon dioxide + triethanolamine; phases: Liquid, Gas
Fixed: Solvent: Molality, mol/kg of triethanolamine = 2.7
Property: Mass fraction of carbon dioxide (Liquid); method: Phase equilibration
Pressure, kPa of carbon dioxide	Temperature, K	Mass fraction of carbon dioxide	uncertainty
8.1	298.15	0.0215	0.0008
8.1	303.15	0.0193	0.0008
8.1	308.15	0.0173	0.0008
8.1	313.15	0.0153	0.0008
15	298.15	0.0277	0.0009
15	303.15	0.0248	0.0009
15	308.15	0.0204	0.0009
15	313.15	0.0173	0.0008
20.3	298.15	0.0312	0.0009
20.3	303.15	0.0271	0.0009
20.3	308.15	0.024	0.0009
20.3	313.15	0.0205	0.0009
30.4	298.15	0.0336	0.0009
30.4	303.15	0.0309	0.0009
30.4	308.15	0.0283	0.0009
30.4	313.15	0.024	0.0009
60.8	298.15	0.0441	0.0011
60.8	303.15	0.0408	0.001
60.8	308.15	0.0354	0.001
60.8	313.15	0.0325	0.001

System: water + carbon dioxide + 2-(N,N-dimethylamino)ethanol; phases: Liquid, Gas
Fixed: Solvent: Molality, mol/kg of 2-(N,N-dimethylamino)ethanol = 2.48
Property: Mass fraction of carbon dioxide (Liquid); method: Phase equilibration
Pressure, kPa of carbon dioxide	Temperature, K	Mass fraction of carbon dioxide	uncertainty
8.1	298.15	0.0582	0.0009
8.1	303.15	0.056	0.0009
8.1	308.15	0.0525	0.0009
8.1	313.15	0.0479	0.0009
15	298.15	0.0643	0.0009
15	303.15	0.0629	0.0009
15	308.15	0.0604	0.0009
15	313.15	0.0558	0.001
20.3	298.15	0.0654	0.0009
20.3	303.15	0.0642	0.0009
20.3	308.15	0.0607	0.0009
20.3	313.15	0.0577	0.0009
30.4	298.15	0.0675	0.0009
30.4	303.15	0.0659	0.0009
30.4	308.15	0.0629	0.0009
30.4	313.15	0.0608	0.0009
60.8	298.15	0.0708	0.0009
60.8	303.15	0.0692	0.0009
60.8	308.15	0.068	0.0009
60.8	313.15	0.0673	0.001

System: water + carbon dioxide + 3-dimethylamino-1-propanol; phases: Liquid, Gas
Fixed: Solvent: Molality, mol/kg of 3-dimethylamino-1-propanol = 2.58
Property: Mass fraction of carbon dioxide (Liquid); method: Phase equilibration
Pressure, kPa of carbon dioxide	Temperature, K	Mass fraction of carbon dioxide	uncertainty
8.1	298.15	0.0616	0.0009
8.1	303.15	0.0602	0.0009
8.1	308.15	0.0568	0.0009
8.1	313.15	0.0543	0.0009
15	298.15	0.0692	0.0009
15	303.15	0.0664	0.0009
15	308.15	0.0634	0.0009
15	313.15	0.0614	0.0009
20.3	298.15	0.0697	0.0009
20.3	303.15	0.0673	0.0009
20.3	308.15	0.0646	0.0009
20.3	313.15	0.0627	0.0009
30.4	298.15	0.0711	0.0009
30.4	303.15	0.0688	0.0009
30.4	308.15	0.0675	0.0009
30.4	313.15	0.0663	0.0009
60.8	298.15	0.0736	0.0009
60.8	303.15	0.0716	0.0009
60.8	308.15	0.0715	0.0009
60.8	313.15	0.0704	0.0009

System: water + carbon dioxide + (diethylamino)ethanol; phases: Liquid, Gas
Fixed: Solvent: Molality, mol/kg of (diethylamino)ethanol = 2.64
Property: Mass fraction of carbon dioxide (Liquid); method: Phase equilibration
Pressure, kPa of carbon dioxide	Temperature, K	Mass fraction of carbon dioxide	uncertainty
8.1	298.15	0.0645	0.0009
8.1	303.15	0.0622	0.0009
8.1	308.15	0.0598	0.0009
8.1	313.15	0.0563	0.0009
15	298.15	0.0692	0.0009
15	303.15	0.068	0.0009
15	308.15	0.065	0.0009
15	313.15	0.061	0.0009
20.3	298.15	0.0695	0.0009
20.3	303.15	0.0687	0.0009
20.3	308.15	0.0681	0.0009
20.3	313.15	0.0652	0.0009
30.4	298.15	0.0713	0.0009
30.4	303.15	0.0701	0.0009
30.4	308.15	0.0693	0.0009
30.4	313.15	0.0681	0.0009
60.8	298.15	0.0737	0.0009
60.8	303.15	0.0732	0.0009
60.8	308.15	0.0711	0.0009
60.8	313.15	0.0704	0.0009
