Measured thermophysical data. Liquid-liquid equilibrium study for the system (water + phosphoric acid + propylene carbonate) at different temperatures
Source: J. Chem. Thermodyn., 2017, 10.1016/j.jct.2016.09.008
Compound 1: 4-methyl-1,3-dioxolan-2-one, C4H6O3, InChI=1S/C4H6O3/c1-3-2-6-4(5)7-3/h3H,2H2,1H3, purity 99%
Compound 2: phosphoric acid, H3O4P, InChI=1S/H3O4P/c1-5(2,3)4/h(H3,1,2,3,4), purity 99.9%
Compound 3: water, H2O, InChI=1S/H2O/h1H2

System: 4-methyl-1,3-dioxolan-2-one; phases: Liquid
Property: Refractive index (Na D-line) (Liquid); method: Standard Abbe refractometry
Temperature, K	Pressure, kPa	Refractive index (Na D-line)	uncertainty
298.15	101.325	1.419	0.0005

System: 4-methyl-1,3-dioxolan-2-one; phases: Liquid
Property: Mass density, kg/m3 (Liquid); method: Vibrating tube method
Temperature, K	Pressure, kPa	Mass density, kg/m3	uncertainty
298.15	101.325	1198.3	2.4

System: water; phases: Liquid
Property: Refractive index (Na D-line) (Liquid); method: Standard Abbe refractometry
Temperature, K	Pressure, kPa	Refractive index (Na D-line)	uncertainty
298.15	101.325	1.3326	0.0005

System: water; phases: Liquid
Property: Mass density, kg/m3 (Liquid); method: Vibrating tube method
Temperature, K	Pressure, kPa	Mass density, kg/m3	uncertainty
298.15	101.325	997.07	2.41

System: 4-methyl-1,3-dioxolan-2-one + phosphoric acid + water; phases: Liquid mixture 1, Liquid mixture 2
Fixed: Pressure, kPa = 101.1
Property: Mass fraction of phosphoric acid (Liquid mixture 1); method: Titration method
Temperature, K	Mass fraction of water	Mass fraction of phosphoric acid	uncertainty
298.2	0.8236	0	
298.2	0.7722	0.0464	0.0069
298.2	0.7384	0.0741	0.0071
298.2	0.6336	0.1703	0.0083
298.2	0.5625	0.2162	0.0091
298.2	0.4823	0.2478	0.0098
298.2	0.3967	0.2575	0.01
298.2	0.3211	0.2521	0.0099
298.2	0.2658	0.2268	0.0093
298.2	0.2028	0.1918	0.0087
298.2	0.1435	0.1467	0.008
298.2	0.0991	0.0938	0.0073
298.2	0.082	0.0449	0.0069
298.2	0.0767	0	
308.2	0.773	0	
308.2	0.7483	0.0333	0.0069
308.2	0.7152	0.0666	0.0071
308.2	0.6078	0.163	0.0082
308.2	0.5339	0.2129	0.0091
308.2	0.4615	0.2365	0.0095
308.2	0.3823	0.2408	0.0096
308.2	0.3324	0.2339	0.0095
308.2	0.2768	0.212	0.0091
308.2	0.2216	0.1737	0.0084
308.2	0.1688	0.1349	0.0078
308.2	0.1192	0.0787	0.0072
308.2	0.0976	0.0388	0.0069
308.2	0.0917	0	
318.2	0.7501	0	
318.2	0.7103	0.0533	0.007
318.2	0.6862	0.0803	0.0072
318.2	0.5832	0.1623	0.0082
318.2	0.516	0.1978	0.0088
318.2	0.4427	0.2235	0.0093
318.2	0.382	0.2274	0.0094
318.2	0.3231	0.2038	0.0089
318.2	0.2815	0.1781	0.0085
318.2	0.2425	0.1495	0.008
318.2	0.1965	0.1232	0.0076
318.2	0.1338	0.0753	0.0071
318.2	0.1118	0.0391	0.0069
318.2	0.1001	0	

System: 4-methyl-1,3-dioxolan-2-one + phosphoric acid + water; phases: Liquid
Fixed: Pressure, kPa = 101.1
Property: Mass density, kg/m3 (Liquid); method: Vibrating tube method
Temperature, K	Mass fraction of water	Mass fraction of phosphoric acid	Mass density, kg/m3	uncertainty
298.2	0.711	0.1	1122.2	2.6
298.2	0.678	0.13	1143.1	2.6
298.2	0.654	0.151	1157.4	2.6
298.2	0.589	0.198	1191.6	2.6
298.2	0.522	0.234	1216.1	2.6
298.2	0.448	0.252	1229	2.6
308.2	0.703	0.076	1081.5	2.6
308.2	0.648	0.128	1113.9	2.6
308.2	0.609	0.161	1136.4	2.6
308.2	0.526	0.214	1179.3	2.6
308.2	0.464	0.235	1206	2.6
308.2	0.416	0.24	1223.3	2.6
318.2	0.632	0.125	1129.4	2.6
318.2	0.607	0.143	1142.1	2.6
318.2	0.583	0.162	1162	2.6
318.2	0.546	0.183	1174.3	2.6
318.2	0.514	0.198	1197.1	2.6
318.2	0.455	0.219	1219.5	2.6
298.2	0.08	0.031	1196	2.6
298.2	0.081	0.036	1198.2	2.6
298.2	0.081	0.04	1200.2	2.6
298.2	0.085	0.052	1205.1	2.6
298.2	0.088	0.064	1210.4	2.6
298.2	0.089	0.071	1213.6	2.6
308.2	0.094	0.022	1188.3	2.6
308.2	0.096	0.033	1193.2	2.6
308.2	0.095	0.036	1194.9	2.6
308.2	0.101	0.045	1197.8	2.6
308.2	0.105	0.052	1200.3	2.6
308.2	0.109	0.063	1204.8	2.6
318.2	0.108	0.028	1187.9	2.6
318.2	0.109	0.031	1189.1	2.6
318.2	0.11	0.033	1189.9	2.6
318.2	0.113	0.037	1191.1	2.6
318.2	0.116	0.041	1192.3	2.6
318.2	0.116	0.048	1195.7	2.6

System: 4-methyl-1,3-dioxolan-2-one + phosphoric acid + water; phases: Liquid mixture 2, Liquid mixture 1
Fixed: Pressure, kPa = 101.1
Property: Mass fraction of phosphoric acid (Liquid mixture 2); method: Titration method
Property: Mass fraction of phosphoric acid (Liquid mixture 1); method: Titration method
Property: Mass fraction of water (Liquid mixture 1); method: Titration method
Temperature, K	Mass fraction of water	Mass fraction of phosphoric acid	uncertainty	Mass fraction of phosphoric acid	uncertainty	Mass fraction of water	uncertainty
298.2	0.08	0.031	0.006	0.1	0.007	0.711	
298.2	0.081	0.036	0.006	0.13	0.007	0.678	
298.2	0.081	0.04	0.006	0.151	0.007	0.654	
298.2	0.085	0.052	0.006	0.198	0.008	0.589	
298.2	0.088	0.064	0.006	0.234	0.009	0.522	
298.2	0.089	0.071	0.006	0.252	0.009	0.448	
308.2	0.094	0.022	0.006	0.076	0.006	0.703	
308.2	0.096	0.033	0.006	0.128	0.007	0.648	
308.2	0.095	0.036	0.006	0.161	0.008	0.609	
308.2	0.101	0.045	0.006	0.214	0.009	0.526	
308.2	0.105	0.052	0.006	0.235	0.009	0.464	
308.2	0.109	0.063	0.006	0.24	0.009	0.416	
318.2	0.108	0.028	0.006	0.125	0.007	0.632	
318.2	0.109	0.031	0.006	0.143	0.007	0.607	
318.2	0.11	0.033	0.006	0.162	0.008	0.583	
318.2	0.113	0.037	0.006	0.183	0.008	0.546	
318.2	0.116	0.041	0.006	0.198	0.008	0.514	
318.2	0.116	0.048	0.006	0.219	0.009	0.455	

System: 4-methyl-1,3-dioxolan-2-one + water; phases: Liquid mixture 1, Liquid mixture 2
Fixed: Pressure, kPa = 101.1
Property: Mass fraction of water (Liquid mixture 1); method: Titration method
Temperature, K	Mass fraction of water	uncertainty
298.2	0.8236	0.0072
298.2	0.0767	0.0069
308.2	0.773	0.0075
308.2	0.0917	0.0069
318.2	0.7501	0.0077
318.2	0.1001	0.0069

System: phosphoric acid + water; phases: Liquid
Property: Mass density, kg/m3 (Liquid); method: Vibrating tube method
Mass fraction of phosphoric acid	Pressure, kPa	Temperature, K	Mass density, kg/m3	uncertainty
0.85	101.1	298.15	1682.8	2.5

System: phosphoric acid + water; phases: Liquid
Property: Refractive index (Na D-line) (Liquid); method: Standard Abbe refractometry
Mass fraction of phosphoric acid	Pressure, kPa	Temperature, K	Refractive index (Na D-line)	uncertainty
0.85	101.1	298.15	1.432	0.0005
