Measured thermophysical data. Hydrogen solubility in furfural and 2-propanol: Experiments and modeling
Source: J. Chem. Thermodyn., 2017, 10.1016/j.jct.2017.04.004
Compound 1: 2-furaldehyde, C5H4O2, InChI=1S/C5H4O2/c6-4-5-2-1-3-7-5/h1-4H, purity 99%
Compound 2: propan-2-ol, C3H8O, InChI=1S/C3H8O/c1-3(2)4/h3-4H,1-2H3, purity 99.5%
Compound 3: hydrogen, H2, InChI=1S/H2/h1H, purity 99.999%

System: propan-2-ol + hydrogen; phases: Liquid, Gas
Property: Mole fraction of hydrogen (Liquid); method: Volumetric Method
Temperature, K	Pressure, kPa	Mole fraction of hydrogen	uncertainty
323.4	12470	0.0347	0.0028
323.4	12450	0.035	0.0026
323.4	9960	0.0288	0.0024
323.5	6970	0.0199	0.002
323.4	5300	0.0139	0.0018
323.5	5300	0.0139	0.002
399.1	12470	0.0501	0.0044
399.1	9960	0.0395	0.0044
399.1	6970	0.0305	0.0028
475.9	12440	0.0637	0.0042
476.1	6970	0.0365	0.004

System: 2-furaldehyde + hydrogen; phases: Liquid, Gas
Property: Mole fraction of hydrogen (Liquid); method: Volumetric Method
Temperature, K	Pressure, kPa	Mole fraction of hydrogen	uncertainty
323.1	12450	0.0138	0.0018

System: 2-furaldehyde + hydrogen; phases: Liquid, Gas
Fixed: Temperature, K = 399.2
Property: Mole fraction of hydrogen (Liquid); method: Volumetric Method
Pressure, kPa	Mole fraction of hydrogen	uncertainty
12440	0.029	0.0024
9950	0.0229	0.0022
6970	0.0154	0.002

System: 2-furaldehyde + hydrogen; phases: Liquid, Gas
Fixed: Temperature, K = 476.1
Property: Mole fraction of hydrogen (Liquid); method: Volumetric Method
Pressure, kPa	Mole fraction of hydrogen	uncertainty
12450	0.0381	0.0028
9950	0.0305	0.0026
6960	0.0229	0.0022
