Measured thermophysical data. Effect of organic solvents on lowering the viscosity of 1-hexyl-3- methylimidazolium chloride
Source: J. Chem. Thermodyn., 2017, 10.1016/j.jct.2017.07.016
Compound 1: 1-hexyl-3-methylimidazolium chloride, C10H19ClN2, InChI=1S/C10H19N2.ClH/c1-3-4-5-6-7-12-9-8-11(2)10-12;/h8-10H,3-7H2,1-2H3;1H/q+1;/p-1, purity 98%
Compound 2: N,N-dimethylethanamide, C4H9NO, InChI=1S/C4H9NO/c1-4(6)5(2)3/h1-3H3, purity 98%
Compound 3: dimethylformamide, C3H7NO, InChI=1S/C3H7NO/c1-4(2)3-5/h3H,1-2H3, purity 99%
Compound 4: dimethyl sulfoxide, C2H6OS, InChI=1S/C2H6OS/c1-4(2)3/h1-2H3, purity 99%
Compound 5: pyridine, C5H5N, InChI=1S/C5H5N/c1-2-4-6-5-3-1/h1-5H, purity 99.8%

System: 1-hexyl-3-methylimidazolium chloride; phases: Liquid
Fixed: Pressure, kPa = 96.7
Property: Mass density, kg/m3 (Liquid); method: Vibrating tube method
Temperature, K	Mass density, kg/m3	uncertainty
303.15	1036.07	2.23
308.15	1033.22	2.23
313.15	1030.38	2.22
318.15	1027.56	2.21
323.15	1024.75	2.2
328.15	1021.92	2.2
333.15	1019.13	2.19
338.15	1016.38	2.18
343.15	1013.65	2.18
348.15	1010.91	2.17
353.15	1008.18	2.16

System: 1-hexyl-3-methylimidazolium chloride; phases: Liquid
Fixed: Pressure, kPa = 96.7
Property: Viscosity, Pa*s (Liquid); method: Capillary tube (Ostwald; Ubbelohde) method
Temperature, K	Viscosity, Pa*s	uncertainty
303.15	5.718469	0.957345
308.15	3.430803	0.563214
313.15	2.146104	0.346494
318.15	1.390389	0.221341
323.15	0.928105	0.146005
328.15	0.63879	0.09951
333.15	0.45359	0.070099
338.15	0.327519	0.050282
343.15	0.24304	0.037119
348.15	0.183446	0.027902
353.15	0.140064	0.021234

System: N,N-dimethylethanamide; phases: Liquid
Fixed: Pressure, kPa = 96.7
Property: Mass density, kg/m3 (Liquid); method: Vibrating tube method
Temperature, K	Mass density, kg/m3	uncertainty
303.15	931.85	1.99
308.15	927.26	1.98
313.15	922.66	1.97
318.15	918.06	1.96
323.15	913.44	1.95
328.15	908.81	1.94
333.15	904.16	1.93
338.15	899.53	1.92
343.15	894.87	1.91
348.15	890.19	1.9
353.15	885.51	1.89

System: N,N-dimethylethanamide; phases: Liquid
Fixed: Pressure, kPa = 96.7
Property: Viscosity, Pa*s (Liquid); method: Capillary tube (Ostwald; Ubbelohde) method
Temperature, K	Viscosity, Pa*s	uncertainty
303.15	0.000891	0.000134
308.15	0.000834	0.000125
313.15	0.000785	0.000118
318.15	0.000739	0.000111
323.15	0.000698	0.000105
328.15	0.000661	9.9e-05
333.15	0.000627	9.4e-05
338.15	0.000598	9e-05
343.15	0.000567	8.5e-05
348.15	0.000541	8.1e-05
353.15	0.000516	7.8e-05

System: dimethylformamide; phases: Liquid
Fixed: Pressure, kPa = 96.7
Property: Mass density, kg/m3 (Liquid); method: Vibrating tube method
Temperature, K	Mass density, kg/m3	uncertainty
303.15	939.18	1.89
308.15	934.41	1.88
313.15	929.64	1.87
318.15	924.86	1.86
323.15	920.07	1.85
328.15	915.26	1.84
333.15	910.44	1.83
338.15	905.6	1.82
343.15	900.74	1.81
348.15	895.87	1.8
353.15	890.98	1.79

System: dimethylformamide; phases: Liquid
Fixed: Pressure, kPa = 96.7
Property: Viscosity, Pa*s (Liquid); method: Capillary tube (Ostwald; Ubbelohde) method
Temperature, K	Viscosity, Pa*s	uncertainty
303.15	0.000766	0.000115
308.15	0.000723	0.000109
313.15	0.000685	0.000103
318.15	0.000651	9.8e-05
323.15	0.000619	9.3e-05
328.15	0.000589	8.8e-05
333.15	0.000562	8.4e-05
338.15	0.000537	8.1e-05
343.15	0.000514	7.7e-05
348.15	0.000493	7.4e-05
353.15	0.000473	7.1e-05

System: dimethyl sulfoxide; phases: Liquid
Fixed: Pressure, kPa = 96.7
Property: Mass density, kg/m3 (Liquid); method: Vibrating tube method
Temperature, K	Mass density, kg/m3	uncertainty
303.15	1090.29	2.2
308.15	1085.28	2.19
313.15	1080.3	2.18
318.15	1075.31	2.17
323.15	1070.32	2.16
328.15	1065.33	2.15
333.15	1060.34	2.14
338.15	1055.34	2.13
343.15	1050.35	2.12
348.15	1045.34	2.1
353.15	1040.33	2.09

System: dimethyl sulfoxide; phases: Liquid
Fixed: Pressure, kPa = 96.7
Property: Viscosity, Pa*s (Liquid); method: Capillary tube (Ostwald; Ubbelohde) method
Temperature, K	Viscosity, Pa*s	uncertainty
303.15	0.0018	0.00027
308.15	0.001665	0.00025
313.15	0.001529	0.00023
318.15	0.001407	0.000211
323.15	0.001304	0.000196
328.15	0.001211	0.000182
333.15	0.001127	0.000169
338.15	0.001056	0.000159
343.15	0.000989	0.000149
348.15	0.000931	0.00014
353.15	0.000878	0.000132

System: pyridine; phases: Liquid
Fixed: Pressure, kPa = 96.7
Property: Mass density, kg/m3 (Liquid); method: Vibrating tube method
Temperature, K	Mass density, kg/m3	uncertainty
303.15	973.09	1.95
308.15	968.06	1.94
313.15	963.02	1.93
318.15	957.97	1.92
323.15	952.9	1.91
328.15	947.82	1.9
333.15	942.72	1.89
338.15	937.6	1.88
343.15	932.46	1.87
348.15	927.3	1.86
353.15	922.12	1.85

System: pyridine; phases: Liquid
Fixed: Pressure, kPa = 96.7
Property: Viscosity, Pa*s (Liquid); method: Capillary tube (Ostwald; Ubbelohde) method
Temperature, K	Viscosity, Pa*s	uncertainty
303.15	0.000843	0.000127
308.15	0.000789	0.000118
313.15	0.000741	0.000111
318.15	0.000697	0.000105
323.15	0.000658	9.9e-05
328.15	0.000622	9.3e-05
333.15	0.00059	8.9e-05
338.15	0.00056	8.4e-05
343.15	0.000533	8e-05
348.15	0.000507	7.6e-05
353.15	0.000485	7.3e-05

System: N,N-dimethylethanamide + 1-hexyl-3-methylimidazolium chloride; phases: Liquid
Fixed: Pressure, kPa = 96.7
Property: Mass density, kg/m3 (Liquid); method: Vibrating tube method
Temperature, K	Mole fraction of 1-hexyl-3-methylimidazolium chloride	Mass density, kg/m3	uncertainty
303.15	1	1036.07	2.23
308.15	1	1033.22	2.23
313.15	1	1030.38	2.22
318.15	1	1027.56	2.21
323.15	1	1024.75	2.2
328.15	1	1021.92	2.2
333.15	1	1019.13	2.19
338.15	1	1016.38	2.18
343.15	1	1013.65	2.18
348.15	1	1010.91	2.17
353.15	1	1008.18	2.16
303.15	0.887	1032.11	2.23
308.15	0.887	1029.11	2.22
313.15	0.887	1026.14	2.21
318.15	0.887	1023.19	2.21
323.15	0.887	1020.2	2.2
328.15	0.887	1017.33	2.19
333.15	0.887	1014.53	2.19
338.15	0.887	1011.76	2.18
343.15	0.887	1009.01	2.17
348.15	0.887	1006.28	2.17
353.15	0.887	1003.57	2.16
303.15	0.794	1027.67	2.22
308.15	0.794	1024.64	2.21
313.15	0.794	1021.62	2.21
318.15	0.794	1018.61	2.2
323.15	0.794	1015.58	2.19
328.15	0.794	1012.63	2.18
333.15	0.794	1009.73	2.18
338.15	0.794	1006.85	2.17
343.15	0.794	1003.99	2.16
348.15	0.794	1001.15	2.16
353.15	0.794	998.33	2.15
303.15	0.63	1018.78	2.2
308.15	0.63	1015.69	2.2
313.15	0.63	1012.58	2.19
318.15	0.63	1009.45	2.18
323.15	0.63	1006.33	2.17
328.15	0.63	1003.22	2.17
333.15	0.63	1000.11	2.16
338.15	0.63	997.03	2.15
343.15	0.63	993.95	2.15
348.15	0.63	990.89	2.14
353.15	0.63	987.84	2.13
303.15	0.503	1009.66	2.19
308.15	0.503	1006.34	2.18
313.15	0.503	1003.03	2.17
318.15	0.503	999.74	2.17
323.15	0.503	996.46	2.16
328.15	0.503	993.19	2.15
333.15	0.503	989.93	2.15
338.15	0.503	986.68	2.14
343.15	0.503	983.44	2.13
348.15	0.503	980.22	2.13
353.15	0.503	977	2.12
303.15	0.392	999.94	2.18
308.15	0.392	996.46	2.17
313.15	0.392	992.99	2.16
318.15	0.392	989.54	2.16
323.15	0.392	986.09	2.15
328.15	0.392	982.65	2.14
333.15	0.392	979.22	2.14
338.15	0.392	975.8	2.13
343.15	0.392	972.39	2.13
348.15	0.392	968.98	2.12
353.15	0.392	965.58	2.11
303.15	0.301	989.75	2.19
308.15	0.301	986.11	2.19
313.15	0.301	982.47	2.18
318.15	0.301	978.83	2.18
323.15	0.301	975.21	2.17
328.15	0.301	971.59	2.16
333.15	0.301	967.98	2.16
338.15	0.301	964.37	2.15
343.15	0.301	960.77	2.15
348.15	0.301	957.18	2.14
353.15	0.301	953.59	2.13
303.15	0.155	967.16	2.21
308.15	0.155	962.92	2.2
313.15	0.155	958.82	2.2
318.15	0.155	954.87	2.19
323.15	0.155	951	2.19
328.15	0.155	947.22	2.19
333.15	0.155	943.5	2.19
338.15	0.155	939.77	2.18
343.15	0.155	935.94	2.18
348.15	0.155	932.05	2.18
353.15	0.155	928.09	2.18
303.15	0	931.85	1.99
308.15	0	927.26	1.98
313.15	0	922.66	1.97
318.15	0	918.06	1.96
323.15	0	913.44	1.95
328.15	0	908.81	1.94
333.15	0	904.16	1.93
338.15	0	899.53	1.92
343.15	0	894.87	1.91
348.15	0	890.19	1.9
353.15	0	885.51	1.89

System: N,N-dimethylethanamide + 1-hexyl-3-methylimidazolium chloride; phases: Liquid
Fixed: Pressure, kPa = 96.7
Property: Viscosity, Pa*s (Liquid); method: Capillary tube (Ostwald; Ubbelohde) method
Mole fraction of 1-hexyl-3-methylimidazolium chloride	Temperature, K	Viscosity, Pa*s	uncertainty
1	303.15	5.718469	0.955208
1	308.15	3.430803	0.561907
1	313.15	2.146104	0.345662
1	318.15	1.390389	0.220794
1	323.15	0.928105	0.145636
1	328.15	0.63879	0.099253
1	333.15	0.45359	0.069915
1	338.15	0.327519	0.050149
1	343.15	0.24304	0.037019
1	348.15	0.183446	0.027826
1	353.15	0.140064	0.021176
0.887	303.15	2.891284	0.479763
0.887	308.15	1.853051	0.301909
0.887	313.15	1.212928	0.194619
0.887	318.15	0.814854	0.12909
0.887	323.15	0.563405	0.088305
0.887	328.15	0.400323	0.062194
0.887	333.15	0.29117	0.044919
0.887	338.15	0.216485	0.033201
0.887	343.15	0.163622	0.02498
0.887	348.15	0.125959	0.019161
0.887	353.15	0.098541	0.01495
0.794	303.15	0.917882	0.148834
0.794	308.15	0.624843	0.099624
0.794	313.15	0.440381	0.069386
0.794	318.15	0.313648	0.048949
0.794	323.15	0.229387	0.035522
0.794	328.15	0.171627	0.026414
0.794	333.15	0.130322	0.01996
0.794	338.15	0.101084	0.015425
0.794	343.15	0.079827	0.012146
0.794	348.15	0.063753	0.009681
0.794	353.15	0.051398	0.0078
0.63	303.15	0.29588	0.046671
0.63	308.15	0.212959	0.0333
0.63	313.15	0.158136	0.024546
0.63	318.15	0.11942	0.018419
0.63	323.15	0.091952	0.014115
0.63	328.15	0.071922	0.011002
0.63	333.15	0.057413	0.008758
0.63	338.15	0.046278	0.007049
0.63	343.15	0.037903	0.005766
0.63	348.15	0.031376	0.004767
0.63	353.15	0.026457	0.004014
0.503	303.15	0.092111	0.014567
0.503	308.15	0.070173	0.011018
0.503	313.15	0.055606	0.008671
0.503	318.15	0.044255	0.006871
0.503	323.15	0.035839	0.005542
0.503	328.15	0.029415	0.004533
0.503	333.15	0.024445	0.003757
0.503	338.15	0.020815	0.003189
0.503	343.15	0.017416	0.002665
0.503	348.15	0.014931	0.00228
0.503	353.15	0.012864	0.001962
0.392	303.15	0.035443	0.005551
0.392	308.15	0.028601	0.004455
0.392	313.15	0.023517	0.003651
0.392	318.15	0.019541	0.003022
0.392	323.15	0.016462	0.002538
0.392	328.15	0.013998	0.002153
0.392	333.15	0.012024	0.001845
0.392	338.15	0.010412	0.001596
0.392	343.15	0.00914	0.001397
0.392	348.15	0.008018	0.001224
0.392	353.15	0.007115	0.001085
0.301	303.15	0.014877	0.002296
0.301	308.15	0.012567	0.001931
0.301	313.15	0.010745	0.001648
0.301	318.15	0.009242	0.001415
0.301	323.15	0.008018	0.001226
0.301	328.15	0.007038	0.001075
0.301	333.15	0.006213	0.000948
0.301	338.15	0.005522	0.000842
0.301	343.15	0.004918	0.000749
0.301	348.15	0.004443	0.000676
0.301	353.15	0.004015	0.000611
0.155	303.15	0.003756	0.000595
0.155	308.15	0.003352	0.000527
0.155	313.15	0.003026	0.000474
0.155	318.15	0.002739	0.000427
0.155	323.15	0.002493	0.000387
0.155	328.15	0.00228	0.000353
0.155	333.15	0.002091	0.000323
0.155	338.15	0.001931	0.000298
0.155	343.15	0.001786	0.000275
0.155	348.15	0.001658	0.000255
0.155	353.15	0.001542	0.000237
0	303.15	0.000891	0.000134
0	308.15	0.000834	0.000125
0	313.15	0.000785	0.000118
0	318.15	0.000739	0.000111
0	323.15	0.000698	0.000105
0	328.15	0.000661	9.9e-05
0	333.15	0.000627	9.4e-05
0	338.15	0.000598	9e-05
0	343.15	0.000567	8.5e-05
0	348.15	0.000541	8.1e-05
0	353.15	0.000516	7.8e-05

System: dimethylformamide + 1-hexyl-3-methylimidazolium chloride; phases: Liquid
Fixed: Pressure, kPa = 96.7
Property: Mass density, kg/m3 (Liquid); method: Vibrating tube method
Mole fraction of 1-hexyl-3-methylimidazolium chloride	Temperature, K	Mass density, kg/m3	uncertainty
1	303.15	1036.07	2.23
1	308.15	1033.22	2.23
1	313.15	1030.38	2.22
1	318.15	1027.56	2.21
1	323.15	1024.75	2.2
1	328.15	1021.92	2.2
1	333.15	1019.13	2.19
1	338.15	1016.38	2.18
1	343.15	1013.65	2.18
1	348.15	1010.91	2.17
1	353.15	1008.18	2.16
0.871	303.15	1032.74	2.19
0.871	308.15	1029.81	2.19
0.871	313.15	1026.9	2.18
0.871	318.15	1023.98	2.17
0.871	323.15	1021.09	2.16
0.871	328.15	1018.25	2.16
0.871	333.15	1015.42	2.15
0.871	338.15	1012.58	2.14
0.871	343.15	1009.75	2.14
0.871	348.15	1006.93	2.13
0.871	353.15	1004.11	2.12
0.764	303.15	1029.04	2.16
0.764	308.15	1026.03	2.16
0.764	313.15	1023.06	2.15
0.764	318.15	1020.1	2.14
0.764	323.15	1017.14	2.14
0.764	328.15	1014.17	2.13
0.764	333.15	1011.21	2.12
0.764	338.15	1008.27	2.12
0.764	343.15	1005.34	2.11
0.764	348.15	1002.41	2.1
0.764	353.15	999.51	2.1
0.591	303.15	1021.21	2.12
0.591	308.15	1018.02	2.11
0.591	313.15	1014.86	2.1
0.591	318.15	1011.71	2.1
0.591	323.15	1008.57	2.09
0.591	328.15	1005.44	2.08
0.591	333.15	1002.31	2.08
0.591	338.15	999.19	2.07
0.591	343.15	996.09	2.07
0.591	348.15	992.99	2.06
0.591	353.15	989.9	2.05
0.457	303.15	1013.06	2.09
0.457	308.15	1009.56	2.08
0.457	313.15	1006.09	2.08
0.457	318.15	1002.63	2.07
0.457	323.15	999.19	2.06
0.457	328.15	995.78	2.06
0.457	333.15	992.43	2.05
0.457	338.15	989.15	2.05
0.457	343.15	985.94	2.04
0.457	348.15	982.8	2.04
0.457	353.15	979.67	2.03
0.352	303.15	1004.26	2.08
0.352	308.15	1000.71	2.07
0.352	313.15	997.11	2.06
0.352	318.15	993.45	2.06
0.352	323.15	989.87	2.05
0.352	328.15	986.25	2.04
0.352	333.15	982.75	2.04
0.352	338.15	979.34	2.03
0.352	343.15	975.92	2.03
0.352	348.15	972.5	2.02
0.352	353.15	969.09	2.02
0.265	303.15	995.06	2.09
0.265	308.15	991.32	2.09
0.265	313.15	987.59	2.08
0.265	318.15	983.87	2.08
0.265	323.15	980.14	2.08
0.265	328.15	976.43	2.07
0.265	333.15	972.72	2.07
0.265	338.15	969.01	2.07
0.265	343.15	965.31	2.06
0.265	348.15	961.62	2.06
0.265	353.15	957.92	2.06
0.134	303.15	974.15	2.14
0.134	308.15	970.01	2.14
0.134	313.15	965.87	2.14
0.134	318.15	961.73	2.14
0.134	323.15	957.59	2.14
0.134	328.15	953.45	2.13
0.134	333.15	949.31	2.13
0.134	338.15	945.16	2.13
0.134	343.15	941	2.14
0.134	348.15	936.86	2.14
0.134	353.15	932.7	2.14
0	303.15	939.18	1.89
0	308.15	934.41	1.88
0	313.15	929.64	1.87
0	318.15	924.86	1.86
0	323.15	920.07	1.85
0	328.15	915.26	1.84
0	333.15	910.44	1.83
0	338.15	905.6	1.82
0	343.15	900.74	1.81
0	348.15	895.87	1.8
0	353.15	890.98	1.79

System: dimethylformamide + 1-hexyl-3-methylimidazolium chloride; phases: Liquid
Fixed: Pressure, kPa = 96.7
Property: Viscosity, Pa*s (Liquid); method: Capillary tube (Ostwald; Ubbelohde) method
Mole fraction of 1-hexyl-3-methylimidazolium chloride	Temperature, K	Viscosity, Pa*s	uncertainty
1	303.15	5.718469	0.955208
1	308.15	3.430803	0.561907
1	313.15	2.146104	0.345662
1	318.15	1.390389	0.220794
1	323.15	0.928105	0.145636
1	328.15	0.63879	0.099253
1	333.15	0.45359	0.069915
1	338.15	0.327519	0.050149
1	343.15	0.24304	0.037019
1	348.15	0.183446	0.027826
1	353.15	0.140064	0.021176
0.871	303.15	2.341702	0.387931
0.871	308.15	1.478283	0.240534
0.871	313.15	1.002908	0.160678
0.871	318.15	0.685169	0.108397
0.871	323.15	0.479122	0.075009
0.871	328.15	0.344767	0.053512
0.871	333.15	0.253045	0.039009
0.871	338.15	0.190236	0.02916
0.871	343.15	0.143978	0.021975
0.871	348.15	0.11206	0.017045
0.871	353.15	0.088512	0.013427
0.764	303.15	0.666708	0.107763
0.764	308.15	0.46632	0.073999
0.764	313.15	0.333825	0.052453
0.764	318.15	0.241581	0.037631
0.764	323.15	0.178788	0.027652
0.764	328.15	0.135888	0.020899
0.764	333.15	0.104753	0.016039
0.764	338.15	0.082299	0.01256
0.764	343.15	0.065577	0.009981
0.764	348.15	0.05281	0.008025
0.764	353.15	0.043417	0.006596
0.591	303.15	0.158503	0.025363
0.591	308.15	0.12091	0.019133
0.591	313.15	0.092582	0.014521
0.591	318.15	0.072084	0.011219
0.591	323.15	0.057172	0.008846
0.591	328.15	0.045816	0.007064
0.591	333.15	0.037405	0.005747
0.591	338.15	0.030936	0.00474
0.591	343.15	0.02586	0.003953
0.591	348.15	0.021851	0.003333
0.591	353.15	0.018585	0.00283
0.457	303.15	0.047109	0.007461
0.457	308.15	0.037995	0.005985
0.457	313.15	0.030888	0.004833
0.457	318.15	0.025383	0.003951
0.457	323.15	0.021152	0.003278
0.457	328.15	0.017815	0.00275
0.457	333.15	0.015172	0.002335
0.457	338.15	0.013044	0.002002
0.457	343.15	0.011297	0.00173
0.457	348.15	0.009895	0.001513
0.457	353.15	0.008708	0.001328
0.352	303.15	0.020205	0.00314
0.352	308.15	0.016688	0.002588
0.352	313.15	0.014237	0.002199
0.352	318.15	0.012126	0.001868
0.352	323.15	0.010449	0.001605
0.352	328.15	0.009067	0.00139
0.352	333.15	0.007933	0.001214
0.352	338.15	0.007016	0.001072
0.352	343.15	0.006246	0.000953
0.352	348.15	0.005564	0.000848
0.352	353.15	0.005007	0.000762
0.265	303.15	0.008757	0.001352
0.265	308.15	0.007582	0.001166
0.265	313.15	0.006651	0.001021
0.265	318.15	0.005854	0.000897
0.265	323.15	0.005212	0.000797
0.265	328.15	0.004647	0.00071
0.265	333.15	0.004175	0.000637
0.265	338.15	0.003776	0.000576
0.265	343.15	0.003431	0.000523
0.265	348.15	0.003135	0.000477
0.265	353.15	0.002875	0.000437
0.134	303.15	0.002479	0.000391
0.134	308.15	0.002265	0.000355
0.134	313.15	0.002075	0.000324
0.134	318.15	0.001962	0.000305
0.134	323.15	0.001797	0.000279
0.134	328.15	0.001656	0.000256
0.134	333.15	0.001544	0.000238
0.134	338.15	0.001426	0.00022
0.134	343.15	0.001328	0.000204
0.134	348.15	0.001244	0.000191
0.134	353.15	0.001171	0.00018
0	303.15	0.000766	0.000115
0	308.15	0.000723	0.000109
0	313.15	0.000685	0.000103
0	318.15	0.000651	9.8e-05
0	323.15	0.000619	9.3e-05
0	328.15	0.000589	8.8e-05
0	333.15	0.000562	8.4e-05
0	338.15	0.000537	8.1e-05
0	343.15	0.000514	7.7e-05
0	348.15	0.000493	7.4e-05
0	353.15	0.000473	7.1e-05

System: dimethyl sulfoxide + 1-hexyl-3-methylimidazolium chloride; phases: Liquid
Fixed: Pressure, kPa = 96.7
Property: Mass density, kg/m3 (Liquid); method: Vibrating tube method
Mole fraction of 1-hexyl-3-methylimidazolium chloride	Temperature, K	Mass density, kg/m3	uncertainty
1	303.15	1036.07	2.23
1	308.15	1033.22	2.23
1	313.15	1030.38	2.22
1	318.15	1027.56	2.21
1	323.15	1024.75	2.2
1	328.15	1021.92	2.2
1	333.15	1019.13	2.19
1	338.15	1016.38	2.18
1	343.15	1013.65	2.18
1	348.15	1010.91	2.17
1	353.15	1008.18	2.16
0.878	303.15	1039.66	2.21
0.878	308.15	1036.71	2.2
0.878	313.15	1033.77	2.2
0.878	318.15	1030.8	2.19
0.878	323.15	1027.89	2.18
0.878	328.15	1025.02	2.17
0.878	333.15	1022.16	2.17
0.878	338.15	1019.29	2.16
0.878	343.15	1016.44	2.15
0.878	348.15	1013.59	2.15
0.878	353.15	1010.75	2.14
0.773	303.15	1043.22	2.2
0.773	308.15	1040.19	2.19
0.773	313.15	1037.17	2.18
0.773	318.15	1034.12	2.18
0.773	323.15	1031.12	2.17
0.773	328.15	1028.15	2.16
0.773	333.15	1025.19	2.15
0.773	338.15	1022.24	2.15
0.773	343.15	1019.29	2.14
0.773	348.15	1016.35	2.13
0.773	353.15	1013.43	2.12
0.606	303.15	1050.34	2.18
0.606	308.15	1047.15	2.18
0.606	313.15	1043.96	2.17
0.606	318.15	1040.76	2.16
0.606	323.15	1037.58	2.15
0.606	328.15	1034.41	2.15
0.606	333.15	1031.26	2.14
0.606	338.15	1028.12	2.13
0.606	343.15	1025	2.12
0.606	348.15	1021.88	2.12
0.606	353.15	1018.78	2.11
0.472	303.15	1057.13	2.18
0.472	308.15	1053.74	2.17
0.472	313.15	1050.36	2.16
0.472	318.15	1046.99	2.16
0.472	323.15	1043.65	2.15
0.472	328.15	1040.31	2.14
0.472	333.15	1036.99	2.13
0.472	338.15	1033.67	2.13
0.472	343.15	1030.39	2.12
0.472	348.15	1027.11	2.11
0.472	353.15	1023.84	2.1
0.366	303.15	1063.06	2.18
0.366	308.15	1059.5	2.17
0.366	313.15	1055.94	2.17
0.366	318.15	1052.4	2.16
0.366	323.15	1048.87	2.15
0.366	328.15	1045.35	2.14
0.366	333.15	1041.84	2.13
0.366	338.15	1038.35	2.12
0.366	343.15	1034.87	2.12
0.366	348.15	1031.39	2.11
0.366	353.15	1027.93	2.1
0.278	303.15	1068.64	2.19
0.278	308.15	1064.88	2.18
0.278	313.15	1061.15	2.17
0.278	318.15	1057.41	2.16
0.278	323.15	1053.68	2.15
0.278	328.15	1049.95	2.14
0.278	333.15	1046.23	2.13
0.278	338.15	1042.51	2.13
0.278	343.15	1038.81	2.12
0.278	348.15	1035.11	2.11
0.278	353.15	1031.43	2.1
0.141	303.15	1078.5	2.2
0.141	308.15	1074.26	2.19
0.141	313.15	1070.08	2.18
0.141	318.15	1065.87	2.17
0.141	323.15	1061.67	2.16
0.141	328.15	1057.48	2.15
0.141	333.15	1053.31	2.14
0.141	338.15	1049.14	2.13
0.141	343.15	1045.01	2.12
0.141	348.15	1040.88	2.11
0.141	353.15	1036.68	2.1
0	303.15	1090.29	2.2
0	308.15	1085.28	2.19
0	313.15	1080.3	2.18
0	318.15	1075.31	2.17
0	323.15	1070.32	2.16
0	328.15	1065.33	2.15
0	333.15	1060.34	2.14
0	338.15	1055.34	2.13
0	343.15	1050.35	2.12
0	348.15	1045.34	2.1
0	353.15	1040.33	2.09

System: dimethyl sulfoxide + 1-hexyl-3-methylimidazolium chloride; phases: Liquid
Fixed: Pressure, kPa = 96.7
Property: Viscosity, Pa*s (Liquid); method: Capillary tube (Ostwald; Ubbelohde) method
Mole fraction of 1-hexyl-3-methylimidazolium chloride	Temperature, K	Viscosity, Pa*s	uncertainty
1	303.15	5.718469	0.955208
1	308.15	3.430803	0.561907
1	313.15	2.146104	0.345662
1	318.15	1.390389	0.220794
1	323.15	0.928105	0.145636
1	328.15	0.63879	0.099253
1	333.15	0.45359	0.069915
1	338.15	0.327519	0.050149
1	343.15	0.24304	0.037019
1	348.15	0.183446	0.027826
1	353.15	0.140064	0.021176
0.878	303.15	2.111052	0.350832
0.878	308.15	1.348945	0.220042
0.878	313.15	0.895041	0.14375
0.878	318.15	0.60751	0.096331
0.878	323.15	0.425835	0.0668
0.878	328.15	0.306132	0.047604
0.878	333.15	0.22729	0.035096
0.878	338.15	0.169959	0.026095
0.878	343.15	0.129413	0.019785
0.878	348.15	0.100298	0.015281
0.878	353.15	0.081752	0.012416
0.773	303.15	0.806638	0.128438
0.773	308.15	0.554648	0.087137
0.773	313.15	0.384992	0.059907
0.773	318.15	0.274475	0.042372
0.773	323.15	0.201062	0.030847
0.773	328.15	0.150512	0.022979
0.773	333.15	0.114897	0.01748
0.773	338.15	0.089023	0.013505
0.773	343.15	0.070282	0.01064
0.773	348.15	0.056523	0.008546
0.773	353.15	0.045708	0.006914
0.606	303.15	0.343905	0.053436
0.606	308.15	0.242911	0.037475
0.606	313.15	0.176385	0.027042
0.606	318.15	0.130642	0.019935
0.606	323.15	0.098697	0.015008
0.606	328.15	0.076268	0.011569
0.606	333.15	0.06005	0.009093
0.606	338.15	0.048071	0.007273
0.606	343.15	0.039061	0.005907
0.606	348.15	0.032053	0.004844
0.606	353.15	0.026696	0.004032
0.472	303.15	0.134284	0.020855
0.472	308.15	0.10012	0.015458
0.472	313.15	0.076289	0.011723
0.472	318.15	0.058571	0.008972
0.472	323.15	0.046321	0.007079
0.472	328.15	0.037115	0.005661
0.472	333.15	0.0303	0.004614
0.472	338.15	0.025519	0.003879
0.472	343.15	0.020881	0.003172
0.472	348.15	0.01765	0.002678
0.472	353.15	0.015072	0.002285
0.366	303.15	0.054367	0.008487
0.366	308.15	0.041742	0.006498
0.366	313.15	0.033334	0.005167
0.366	318.15	0.026722	0.004126
0.366	323.15	0.021901	0.003372
0.366	328.15	0.018219	0.002797
0.366	333.15	0.015337	0.00235
0.366	338.15	0.013138	0.00201
0.366	343.15	0.011281	0.001722
0.366	348.15	0.009738	0.001484
0.366	353.15	0.008538	0.001299
0.278	303.15	0.023073	0.003561
0.278	308.15	0.01867	0.002868
0.278	313.15	0.015459	0.00237
0.278	318.15	0.012946	0.00198
0.278	323.15	0.010994	0.001679
0.278	328.15	0.009439	0.001439
0.278	333.15	0.00818	0.001246
0.278	338.15	0.007175	0.001092
0.278	343.15	0.006291	0.000956
0.278	348.15	0.005597	0.00085
0.278	353.15	0.004998	0.000759
0.141	303.15	0.006523	0.001026
0.141	308.15	0.005691	0.000889
0.141	313.15	0.004951	0.00077
0.141	318.15	0.004385	0.000679
0.141	323.15	0.003892	0.000601
0.141	328.15	0.003493	0.000538
0.141	333.15	0.003154	0.000484
0.141	338.15	0.00285	0.000437
0.141	343.15	0.002594	0.000397
0.141	348.15	0.002378	0.000363
0.141	353.15	0.002184	0.000333
0	303.15	0.0018	0.00027
0	308.15	0.001665	0.00025
0	313.15	0.001529	0.00023
0	318.15	0.001407	0.000211
0	323.15	0.001304	0.000196
0	328.15	0.001211	0.000182
0	333.15	0.001127	0.000169
0	338.15	0.001056	0.000159
0	343.15	0.000989	0.000149
0	348.15	0.000931	0.00014
0	353.15	0.000878	0.000132

System: pyridine + 1-hexyl-3-methylimidazolium chloride; phases: Liquid
Fixed: Pressure, kPa = 96.7
Property: Mass density, kg/m3 (Liquid); method: Vibrating tube method
Mole fraction of 1-hexyl-3-methylimidazolium chloride	Temperature, K	Mass density, kg/m3	uncertainty
1	303.15	1036.07	2.23
1	308.15	1033.22	2.23
1	313.15	1030.38	2.22
1	318.15	1027.56	2.21
1	323.15	1024.75	2.2
1	328.15	1021.92	2.2
1	333.15	1019.13	2.19
1	338.15	1016.38	2.18
1	343.15	1013.65	2.18
1	348.15	1010.91	2.17
1	353.15	1008.18	2.16
0.877	303.15	1034.58	2.17
0.877	308.15	1031.66	2.17
0.877	313.15	1028.74	2.16
0.877	318.15	1025.86	2.15
0.877	323.15	1022.99	2.15
0.877	328.15	1020.12	2.14
0.877	333.15	1017.26	2.13
0.877	338.15	1014.43	2.13
0.877	343.15	1011.6	2.12
0.877	348.15	1008.78	2.11
0.877	353.15	1005.97	2.11
0.778	303.15	1033.09	2.14
0.778	308.15	1030.09	2.13
0.778	313.15	1027.11	2.12
0.778	318.15	1024.17	2.12
0.778	323.15	1021.24	2.11
0.778	328.15	1018.31	2.1
0.778	333.15	1015.38	2.1
0.778	338.15	1012.47	2.09
0.778	343.15	1009.55	2.09
0.778	348.15	1006.66	2.08
0.778	353.15	1003.77	2.07
0.608	303.15	1029.07	2.09
0.608	308.15	1025.91	2.09
0.608	313.15	1022.78	2.08
0.608	318.15	1019.67	2.07
0.608	323.15	1016.57	2.07
0.608	328.15	1013.48	2.06
0.608	333.15	1010.39	2.05
0.608	338.15	1007.32	2.05
0.608	343.15	1004.24	2.04
0.608	348.15	1001.17	2.04
0.608	353.15	998.08	2.03
0.477	303.15	1025.04	2.07
0.477	308.15	1021.74	2.07
0.477	313.15	1018.45	2.06
0.477	318.15	1015.17	2.05
0.477	323.15	1011.9	2.05
0.477	328.15	1008.64	2.04
0.477	333.15	1005.4	2.03
0.477	338.15	1002.17	2.03
0.477	343.15	998.94	2.02
0.477	348.15	995.69	2.02
0.477	353.15	992.4	2.01
0.369	303.15	1019.3	2.06
0.369	308.15	1015.8	2.05
0.369	313.15	1012.3	2.05
0.369	318.15	1008.82	2.04
0.369	323.15	1005.33	2.04
0.369	328.15	1001.86	2.03
0.369	333.15	998.39	2.02
0.369	338.15	994.92	2.02
0.369	343.15	991.46	2.01
0.369	348.15	988.01	2.01
0.369	353.15	984.56	2
0.281	303.15	1013.46	2.06
0.281	308.15	1009.71	2.06
0.281	313.15	1006	2.05
0.281	318.15	1002.31	2.05
0.281	323.15	998.61	2.04
0.281	328.15	994.88	2.04
0.281	333.15	991.21	2.03
0.281	338.15	987.55	2.03
0.281	343.15	983.89	2.02
0.281	348.15	980.23	2.02
0.281	353.15	976.57	2.01
0.145	303.15	1000.09	2.08
0.145	308.15	995.92	2.08
0.145	313.15	991.76	2.08
0.145	318.15	987.59	2.08
0.145	323.15	983.43	2.07
0.145	328.15	979.27	2.07
0.145	333.15	975.09	2.07
0.145	338.15	970.94	2.07
0.145	343.15	966.81	2.07
0.145	348.15	962.62	2.07
0.145	353.15	958.42	2.07
0	303.15	973.09	1.95
0	308.15	968.06	1.94
0	313.15	963.02	1.93
0	318.15	957.97	1.92
0	323.15	952.9	1.91
0	328.15	947.82	1.9
0	333.15	942.72	1.89
0	338.15	937.6	1.88
0	343.15	932.46	1.87
0	348.15	927.3	1.86
0	353.15	922.12	1.85

System: pyridine + 1-hexyl-3-methylimidazolium chloride; phases: Liquid
Fixed: Pressure, kPa = 96.7
Property: Viscosity, Pa*s (Liquid); method: Capillary tube (Ostwald; Ubbelohde) method
Mole fraction of 1-hexyl-3-methylimidazolium chloride	Temperature, K	Viscosity, Pa*s	uncertainty
1	303.15	5.718469	0.955208
1	308.15	3.430803	0.561907
1	313.15	2.146104	0.345662
1	318.15	1.390389	0.220794
1	323.15	0.928105	0.145636
1	328.15	0.63879	0.099253
1	333.15	0.45359	0.069915
1	338.15	0.327519	0.050149
1	343.15	0.24304	0.037019
1	348.15	0.183446	0.027826
1	353.15	0.140064	0.021176
0.877	303.15	1.617542	0.272212
0.877	308.15	1.125974	0.184813
0.877	313.15	0.773427	0.124638
0.877	318.15	0.528894	0.084059
0.877	323.15	0.376531	0.059141
0.877	328.15	0.273628	0.04258
0.877	333.15	0.203814	0.031483
0.877	338.15	0.154829	0.02377
0.877	343.15	0.120813	0.018459
0.877	348.15	0.094011	0.014315
0.877	353.15	0.075174	0.011409
0.778	303.15	1.015333	0.160837
0.778	308.15	0.686418	0.107633
0.778	313.15	0.476574	0.074054
0.778	318.15	0.341186	0.052602
0.778	323.15	0.249817	0.03828
0.778	328.15	0.185546	0.028291
0.778	333.15	0.141508	0.021495
0.778	338.15	0.109397	0.01657
0.778	343.15	0.086534	0.013081
0.778	348.15	0.068869	0.010395
0.778	353.15	0.056474	0.008516
0.608	303.15	0.266735	0.042545
0.608	308.15	0.192887	0.030448
0.608	313.15	0.144197	0.022539
0.608	318.15	0.109943	0.017059
0.608	323.15	0.085194	0.013144
0.608	328.15	0.067455	0.010356
0.608	333.15	0.053695	0.00822
0.608	338.15	0.043749	0.006682
0.608	343.15	0.035945	0.00548
0.608	348.15	0.030105	0.00458
0.608	353.15	0.025286	0.003842
0.477	303.15	0.08947	0.014054
0.477	308.15	0.06874	0.010723
0.477	313.15	0.053905	0.008367
0.477	318.15	0.04307	0.006661
0.477	323.15	0.035052	0.005401
0.477	328.15	0.028969	0.004451
0.477	333.15	0.024128	0.003697
0.477	338.15	0.020387	0.003117
0.477	343.15	0.017355	0.002649
0.477	348.15	0.014964	0.002281
0.477	353.15	0.013003	0.001978
0.369	303.15	0.02709	0.004367
0.369	308.15	0.022934	0.00365
0.369	313.15	0.019125	0.003018
0.369	318.15	0.016075	0.002521
0.369	323.15	0.013712	0.002139
0.369	328.15	0.011783	0.001831
0.369	333.15	0.010231	0.001583
0.369	338.15	0.008972	0.001384
0.369	343.15	0.007907	0.001216
0.369	348.15	0.006978	0.001071
0.369	353.15	0.006279	0.000962
0.281	303.15	0.012902	0.00198
0.281	308.15	0.011033	0.00169
0.281	313.15	0.009532	0.001458
0.281	318.15	0.008293	0.001266
0.281	323.15	0.007283	0.001111
0.281	328.15	0.006442	0.000981
0.281	333.15	0.005738	0.000873
0.281	338.15	0.005141	0.000782
0.281	343.15	0.004636	0.000704
0.281	348.15	0.004198	0.000637
0.281	353.15	0.003822	0.00058
0.145	303.15	0.003442	0.000544
0.145	308.15	0.003081	0.000484
0.145	313.15	0.002785	0.000436
0.145	318.15	0.002533	0.000395
0.145	323.15	0.002307	0.000359
0.145	328.15	0.002128	0.00033
0.145	333.15	0.001956	0.000302
0.145	338.15	0.001793	0.000277
0.145	343.15	0.001686	0.00026
0.145	348.15	0.00157	0.000241
0.145	353.15	0.001451	0.000223
0	303.15	0.000843	0.000127
0	308.15	0.000789	0.000118
0	313.15	0.000741	0.000111
0	318.15	0.000697	0.000105
0	323.15	0.000658	9.9e-05
0	328.15	0.000622	9.3e-05
0	333.15	0.00059	8.9e-05
0	338.15	0.00056	8.4e-05
0	343.15	0.000533	8e-05
0	348.15	0.000507	7.6e-05
0	353.15	0.000485	7.3e-05
