Measured thermophysical data. Effects of clustering structure on volumetric properties of amino acids in (DMSO + water) mixtures
Source: J. Chem. Thermodyn., 2012, 10.1016/j.jct.2012.01.015
Compound 1: 2-aminoacetic acid, C2H5NO2, InChI=1S/C2H5NO2/c3-1-2(4)5/h1,3H2,(H,4,5), purity 99%
Compound 2: (S)-2-aminopropanoic acid, C3H7NO2, InChI=1S/C3H7NO2/c1-2(4)3(5)6/h2H,4H2,1H3,(H,5,6)/t2-/m0/s1, purity 99%
Compound 3: L-serine, C3H7NO3, InChI=1S/C3H7NO3/c4-2(1-5)3(6)7/h2,5H,1,4H2,(H,6,7)/t2-/m0/s1, purity 99%
Compound 4: dimethyl sulfoxide, C2H6OS, InChI=1S/C2H6OS/c1-4(2)3/h1-2H3, purity 99.5%
Compound 5: water, H2O, InChI=1S/H2O/h1H2, purity 99.8%

System: 2-aminoacetic acid + dimethyl sulfoxide + water; phases: Liquid
Fixed: Pressure, kPa = 101
Fixed: Temperature, K = 298.15
Property: Mass density, kg/m3 (Liquid); method: Vibrating tube method
Solvent: Molality, mol/kg of dimethyl sulfoxide	Molality, mol/kg of 2-aminoacetic acid	Mass density, kg/m3	uncertainty
0	0	997.3	0.11
0	0.094	1000.29	0.11
0	0.1537	1002.16	0.11
0	0.1935	1003.4	0.11
0	0.2535	1005.26	0.11
0	0.2914	1006.42	0.11
0	0.3528	1008.29	0.11
0	0.3974	1009.64	0.11
0.505	0	1001.93	0.11
0.505	0.1123	1005.48	0.11
0.505	0.21	1008.52	0.11
0.505	0.3187	1011.85	0.11
0.505	0.4068	1014.49	0.11
0.505	0.5035	1017.37	0.11
1.0035	0	1006.34	0.11
1.0035	0.1115	1009.84	0.11
1.0035	0.1968	1012.48	0.11
1.0035	0.2991	1015.6	0.11
1.0035	0.4088	1018.88	0.12
1.0035	0.5136	1022	0.12
1.4901	0	1010.48	0.11
1.4901	0.1125	1013.99	0.11
1.4901	0.2078	1016.92	0.11
1.4901	0.3079	1019.95	0.12
1.4901	0.4213	1023.33	0.12
1.4901	0.5067	1025.83	0.12
2.0024	0	1014.66	0.11
2.0024	0.102	1017.83	0.11
2.0024	0.2039	1020.95	0.12
2.0024	0.3052	1024.01	0.12
2.0024	0.3991	1026.77	0.12
2.0024	0.5073	1029.95	0.12
2.5055	0	1018.61	0.12
2.5055	0.0999	1021.71	0.12
2.5055	0.2029	1024.83	0.12
2.5055	0.3026	1027.81	0.12
2.5055	0.3816	1030.13	0.12
2.5055	0.5215	1034.2	0.12
2.9959	0	1022.27	0.12
2.9959	0.1037	1025.46	0.12
2.9959	0.2017	1028.43	0.12
2.9959	0.297	1031.24	0.12
2.9959	0.3877	1033.89	0.12
2.9959	0.4952	1036.99	0.12
3.4955	0	1025.86	0.12
3.4955	0.1101	1029.21	0.12
3.4955	0.1982	1031.84	0.12
3.4955	0.2964	1034.75	0.12
3.4955	0.4071	1037.94	0.12
3.4955	0.503	1040.66	0.13
4.008	0	1029.34	0.12
4.008	0.1125	1032.75	0.12
4.008	0.2064	1035.54	0.12
4.008	0.2963	1038.18	0.12
4.008	0.4104	1041.48	0.13
4.008	0.4938	1043.82	0.13
4.5127	0	1032.61	0.12
4.5127	0.1107	1035.94	0.12
4.5127	0.2055	1038.74	0.13
4.5127	0.2946	1041.35	0.13
4.5127	0.4024	1044.43	0.13
4.5127	0.5131	1047.51	0.13
5.0427	0	1035.88	0.12
5.0427	0.1001	1038.88	0.13
5.0427	0.1947	1041.66	0.13
5.0427	0.3056	1044.87	0.13
5.0427	0.4251	1048.3	0.13
5.0427	0.5038	1050.45	0.13

System: (S)-2-aminopropanoic acid + dimethyl sulfoxide + water; phases: Liquid
Fixed: Pressure, kPa = 101
Fixed: Temperature, K = 298.15
Property: Mass density, kg/m3 (Liquid); method: Vibrating tube method
Solvent: Molality, mol/kg of dimethyl sulfoxide	Molality, mol/kg of (S)-2-aminopropanoic acid	Mass density, kg/m3	uncertainty
0	0	997.3	0.11
0	0.1041	1000.27	0.11
0	0.1944	1002.81	0.11
0	0.3044	1005.84	0.11
0	0.4008	1008.45	0.11
0	0.5011	1011.13	0.11
0.4956	0	1003.44	0.11
0.4956	0.1081	1006.51	0.11
0.4956	0.2014	1009.12	0.11
0.4956	0.3071	1012.01	0.11
0.4956	0.3909	1014.28	0.11
0.4956	0.5155	1017.58	0.11
1.0216	0	1006.49	0.11
1.0216	0.1181	1009.83	0.11
1.0216	0.1918	1011.88	0.11
1.0216	0.3008	1014.87	0.11
1.0216	0.392	1017.33	0.11
1.0216	0.5054	1020.34	0.12
1.5027	0	1010.89	0.11
1.5027	0.1041	1014.03	0.11
1.5027	0.1944	1016.36	0.11
1.5027	0.3044	1019.6	0.12
1.5027	0.4008	1021.74	0.12
1.5027	0.5011	1024.98	0.12
2.009	0	1014.72	0.11
2.009	0.1081	1017.54	0.11
2.009	0.2014	1020.21	0.12
2.009	0.3071	1022.99	0.12
2.009	0.3909	1025.78	0.12
2.009	0.5155	1028.57	0.12
2.4964	0	1018.53	0.12
2.4964	0.1015	1021.37	0.12
2.4964	0.1867	1023.72	0.12
2.4964	0.245	1025.3	0.12
2.4964	0.3039	1026.87	0.12
2.4964	0.3903	1029.17	0.12
3.007	0	1022.35	0.12
3.007	0.1029	1025.22	0.12
3.007	0.1469	1026.42	0.12
3.007	0.2094	1028.13	0.12
3.007	0.2312	1028.71	0.12
3.007	0.2944	1030.4	0.12
3.5024	0	1025.9	0.12
3.5024	0.1022	1028.74	0.12
3.5024	0.2109	1031.67	0.12
3.5024	0.3111	1034.33	0.12
3.5024	0.3951	1036.53	0.12
3.5024	0.5122	1039.48	0.13
4.001	0	1029.3	0.12
4.001	0.1048	1032.19	0.12
4.001	0.1986	1034.72	0.12
4.001	0.2951	1037.26	0.12
4.001	0.3905	1039.7	0.13
4.001	0.4941	1042.35	0.13
4.4962	0	1032.53	0.12
4.4962	0.1063	1035.43	0.12
4.4962	0.1462	1036.51	0.12
4.4962	0.1935	1037.77	0.12
4.4962	0.2449	1039.12	0.13
4.4962	0.2912	1040.32	0.13
4.4962	0.3969	1043.03	0.13
4.9881	0	1035.58	0.12
4.9881	0.095	1038.16	0.12
4.9881	0.1503	1039.64	0.13
4.9881	0.1947	1040.82	0.13
4.9881	0.2511	1042.29	0.13
4.9881	0.3044	1043.68	0.13
4.9881	0.3975	1046.06	0.13

System: L-serine + dimethyl sulfoxide + water; phases: Liquid
Fixed: Pressure, kPa = 101
Fixed: Temperature, K = 298.15
Property: Mass density, kg/m3 (Liquid); method: Vibrating tube method
Solvent: Molality, mol/kg of dimethyl sulfoxide	Molality, mol/kg of L-serine	Mass density, kg/m3	uncertainty
0	0	997.3	0.11
0	0.1067	1002.02	0.11
0	0.2035	1006.22	0.11
0	0.3054	1010.56	0.11
0	0.4096	1014.92	0.11
0	0.5052	1018.83	0.12
0.5016	0	1002.92	0.11
0.5016	0.0955	1005.6	0.11
0.5016	0.2072	1008.67	0.11
0.5016	0.2811	1010.66	0.11
0.5016	0.4048	1013.95	0.11
0.5016	0.5004	1016.4	0.12
0.9884	0	1006.21	0.11
0.9884	0.1068	1010.89	0.11
0.9884	0.1978	1014.82	0.11
0.9884	0.2952	1018.93	0.12
0.9884	0.3944	1023.06	0.12
0.9884	0.5089	1027.71	0.12
1.5053	0	1010.61	0.11
1.5053	0.1091	1013.61	0.11
1.5053	0.2147	1016.44	0.11
1.5053	0.2859	1018.32	0.12
1.5053	0.4112	1021.55	0.12
1.5053	0.4957	1023.66	0.12
2.0033	0	1014.69	0.11
2.0033	0.1081	1019.37	0.12
2.0033	0.1965	1023.13	0.12
2.0033	0.2953	1027.25	0.12
2.0033	0.3978	1031.47	0.12
2.0033	0.4931	1035.33	0.12
2.4996	0	1018.56	0.12
2.4996	0.0949	1022.66	0.12
2.4996	0.1944	1026.89	0.12
2.4996	0.2937	1031.01	0.12
2.4996	0.4019	1035.44	0.12
2.4996	0.4904	1038.96	0.13
2.9891	0	1022.23	0.12
2.9891	0.1023	1026.62	0.12
2.9891	0.1948	1030.51	0.12
2.9891	0.2911	1034.49	0.12
2.9891	0.4109	1039.34	0.13
2.9891	0.4905	1042.52	0.13
3.4998	0	1025.89	0.12
3.4998	0.0919	1029.81	0.12
3.4998	0.2122	1034.83	0.12
3.4998	0.2994	1038.42	0.13
3.4998	0.3983	1042.39	0.13
3.4998	0.4964	1046.28	0.13
4.0247	0	1029.47	0.12
4.0247	0.0951	1033.51	0.12
4.0247	0.1933	1037.61	0.13
4.0247	0.2921	1041.65	0.13
4.0247	0.3939	1045.71	0.13
4.0247	0.4907	1049.53	0.13
4.4893	0	1032.47	0.12
4.4893	0.1085	1037.03	0.12
4.4893	0.2104	1041.25	0.13
4.4893	0.2891	1044.43	0.13
4.4893	0.3928	1048.57	0.13
4.4893	0.4862	1052.2	0.13
5.0727	0	1036.04	0.12
5.0727	0.1107	1040.67	0.13
5.0727	0.1889	1043.89	0.13
5.0727	0.3063	1048.6	0.13
5.0727	0.3847	1051.7	0.13
5.0727	0.5152	1056.76	0.13
