Measured thermophysical data. Excess properties and vapour pressure of (3-diethylaminopropylamine + n-alkanes)
Source: J. Chem. Thermodyn., 2008, 10.1016/j.jct.2008.01.012
Compound 1: N,N-diethylpropane-1,3-diamine, C7H18N2, InChI=1S/C7H18N2/c1-3-9(4-2)7-5-6-8/h3-8H2,1-2H3, purity 99%
Compound 2: heptane, C7H16, InChI=1S/C7H16/c1-3-5-7-6-4-2/h3-7H2,1-2H3, purity 99%
Compound 3: hexane, C6H14, InChI=1S/C6H14/c1-3-5-6-4-2/h3-6H2,1-2H3, purity 99%
Compound 4: dodecane, C12H26, InChI=1S/C12H26/c1-3-5-7-9-11-12-10-8-6-4-2/h3-12H2,1-2H3, purity 99%

System: N,N-diethylpropane-1,3-diamine; phases: Liquid, Gas
Property: Vapor or sublimation pressure, kPa (Liquid); method: Diaphragm manometer
Temperature, K	Vapor or sublimation pressure, kPa	uncertainty
303.15	0.31	0.014
313.15	0.586	0.026
323.15	1.053	0.046
333.15	1.809	0.079
343.15	2.987	0.131

System: heptane; phases: Liquid, Gas
Property: Vapor or sublimation pressure, kPa (Liquid); method: Diaphragm manometer
Temperature, K	Vapor or sublimation pressure, kPa	uncertainty
303.15	7.786	0.341
313.15	12.324	0.54
323.15	18.854	0.825
333.15	27.984	1.225
343.15	40.428	1.769

System: N,N-diethylpropane-1,3-diamine + heptane; phases: Liquid
Fixed: Pressure, kPa = 101
Fixed: Temperature, K = 303.15
Property: Excess molar enthalpy (molar enthalpy of mixing), kJ/mol (Liquid); method: Calvet calorimetry
Mole fraction of N,N-diethylpropane-1,3-diamine	Excess molar enthalpy (molar enthalpy of mixing), kJ/mol	uncertainty
0.0503	0.27	0.011
0.1038	0.508	0.021
0.1491	0.671	0.027
0.2452	0.906	0.037
0.3961	1.066	0.043
0.4516	1.08	0.044
0.5013	1.068	0.044
0.5973	0.982	0.04
0.7014	0.832	0.034
0.7987	0.623	0.025
0.8974	0.349	0.014

System: N,N-diethylpropane-1,3-diamine + heptane; phases: Liquid, Gas
Property: Vapor or sublimation pressure, kPa (Liquid); method: Null diaphragm
Temperature, K	Mole fraction of N,N-diethylpropane-1,3-diamine	Vapor or sublimation pressure, kPa	uncertainty
303.15	0.114	7.248	0.297
303.15	0.2073	6.76	0.278
303.15	0.3428	6.052	0.249
303.15	0.4414	5.525	0.228
303.15	0.5664	4.807	0.2
303.15	0.6702	4.123	0.173
303.15	0.7847	3.173	0.136
303.15	0.8676	2.336	0.103
313.15	0.114	11.46	0.466
313.15	0.2073	10.687	0.435
313.15	0.3428	9.532	0.388
313.15	0.4414	8.674	0.354
313.15	0.5664	7.493	0.307
313.15	0.6702	6.424	0.264
313.15	0.7847	4.926	0.204
313.15	0.8676	3.612	0.153
323.15	0.114	17.508	0.708
323.15	0.2073	16.336	0.661
323.15	0.3428	14.542	0.589
323.15	0.4414	13.197	0.535
323.15	0.5664	11.346	0.461
323.15	0.6702	9.714	0.396
323.15	0.7847	7.437	0.304
323.15	0.8676	5.484	0.227
333.15	0.114	25.94	1.047
333.15	0.2073	24.227	0.979
333.15	0.3428	21.556	0.871
333.15	0.4414	19.52	0.789
333.15	0.5664	16.733	0.677
333.15	0.6702	14.297	0.579
333.15	0.7847	10.947	0.445
333.15	0.8676	8.184	0.334
343.15	0.114	37.393	1.508
343.15	0.2073	34.972	1.41
343.15	0.3428	31.139	1.256
343.15	0.4414	28.149	1.136
343.15	0.5664	24.096	0.973
343.15	0.6702	20.535	0.83
343.15	0.7847	15.744	0.637
343.15	0.8676	12.019	0.488

System: N,N-diethylpropane-1,3-diamine + hexane; phases: Liquid
Fixed: Pressure, kPa = 101
Fixed: Temperature, K = 303.15
Property: Excess molar enthalpy (molar enthalpy of mixing), kJ/mol (Liquid); method: Calvet calorimetry
Mole fraction of N,N-diethylpropane-1,3-diamine	Excess molar enthalpy (molar enthalpy of mixing), kJ/mol	uncertainty
0.0798	0.446	0.018
0.1311	0.637	0.026
0.212	0.846	0.034
0.2521	0.9	0.037
0.3083	0.97	0.04
0.3089	0.972	0.04
0.3472	0.999	0.041
0.3858	1.005	0.041
0.4188	1.009	0.041
0.4682	1.01	0.041
0.4835	1.007	0.041
0.5079	1.001	0.041
0.5984	0.96	0.039
0.7107	0.81	0.033
0.802	0.61	0.025
0.8762	0.409	0.017

System: N,N-diethylpropane-1,3-diamine + dodecane; phases: Liquid
Fixed: Pressure, kPa = 101
Fixed: Temperature, K = 303.15
Property: Excess molar enthalpy (molar enthalpy of mixing), kJ/mol (Liquid); method: Calvet calorimetry
Mole fraction of N,N-diethylpropane-1,3-diamine	Excess molar enthalpy (molar enthalpy of mixing), kJ/mol	uncertainty
0.0601	0.383	0.016
0.1207	0.673	0.027
0.2122	1.011	0.041
0.3099	1.245	0.051
0.4093	1.361	0.055
0.4522	1.371	0.056
0.5054	1.368	0.056
0.6037	1.305	0.053
0.71	1.118	0.046
0.8047	0.866	0.035
0.9021	0.497	0.02
0.9498	0.271	0.011
