Measured thermophysical data. Excess heat capacity of the (Li1-xCax)F1+x liquid solution determined by differential scanning calorimetry and drop calorimetry
Source: J. Chem. Thermodyn., 2015, 10.1016/j.jct.2014.10.007
Compound 1: lithium fluoride, FLi, InChI=1S/FH.Li/h1H;/q;+1/p-1, purity 99.99%
Compound 2: calcium fluoride, CaF2, InChI=1S/Ca.2FH/h;2*1H/q+2;;/p-2, purity 99.99%

System: lithium fluoride + calcium fluoride; phases: Crystal, Crystal, Liquid, Gas
Property: Eutectic temperature, K (Crystal); method: DTA
Eutectic temperature, K	uncertainty
1032	5

System: lithium fluoride + calcium fluoride; phases: Liquid, Crystal
Property: Solid-liquid equilibrium temperature, K (Liquid); method: DTA
Mole fraction of calcium fluoride	Pressure, kPa	Solid-liquid equilibrium temperature, K	uncertainty
0.125	1	1063.2	5

System: lithium fluoride + calcium fluoride; phases: Liquid, Crystal
Fixed: Pressure, kPa = 1
Property: Solid-liquid equilibrium temperature, K (Liquid); method: DTA
Mole fraction of calcium fluoride	Solid-liquid equilibrium temperature, K	uncertainty
0.25	1074.6	5.4
0.375	1207.4	5.4
0.501	1312	5.3

System: lithium fluoride + calcium fluoride; phases: Liquid
Fixed: Pressure, kPa = 1
Property: Molar heat capacity at constant pressure, J/K/mol (Liquid); method: Small sample (50 mg) DSC
Temperature, K	Mole fraction of calcium fluoride	Molar heat capacity at constant pressure, J/K/mol	uncertainty
1255.2	0.125	70.22	7.21
1275.1	0.125	82.4	8.34
1305.1	0.125	80.92	8.18
1325.3	0.125	79.47	8.03
1345.4	0.125	83.81	8.47
1355.4	0.125	82.43	8.35
1375.7	0.125	75.1	7.59
1396	0.125	81.03	8.2
1416	0.125	75.28	7.62
1436.2	0.125	76.95	7.78
1456.6	0.125	77.21	7.81
1476.8	0.125	83.38	8.45
1497.1	0.125	90.8	9.2
1517.3	0.125	97.18	9.84
1255	0.25	98.98	10.03
1274.7	0.25	102.2	10.33
1294.9	0.25	103.71	10.48
1314.9	0.25	96.32	9.74
1335.2	0.25	98.52	9.95
1355.6	0.25	98.96	10
1375.7	0.25	95.16	9.62
1396.1	0.25	106.8	10.79
1416.1	0.25	101.47	10.25
1436.4	0.25	102.59	10.37
1456.8	0.25	102.41	10.35
1477	0.25	101.6	10.26
1497.2	0.25	101.05	10.21
1517.6	0.25	104.18	10.53
1334.9	0.5	133.92	13.55
1354.9	0.5	125.69	12.7
1375.4	0.5	130.29	13.16
1395.9	0.5	132.9	13.43
1415.9	0.5	130.4	13.17
1436.2	0.5	135.89	13.73
1456.5	0.5	134.58	13.61
1476.7	0.5	147.97	14.96
1497.1	0.5	143.74	14.52
1517.4	0.5	142.13	14.36
1334.9	0.5	120.41	12.17
1354.9	0.5	133.39	13.48
1375.4	0.5	135.8	13.72
1395.9	0.5	134.28	13.57
1415.9	0.5	137.28	13.87
1436.2	0.5	130.39	13.17
1456.5	0.5	132.82	13.43
1476.7	0.5	127.49	12.89
1497.1	0.5	127.89	12.92
1517.4	0.5	123.38	12.62
1255.2	0.375	113.91	11.52
1275	0.375	118.44	11.97
1294.9	0.375	121.83	12.31
1315.2	0.375	118.21	11.95
1335.2	0.375	115.41	11.66
1355.5	0.375	116.94	11.81
1375.5	0.375	117.98	11.92
1396.2	0.375	111.04	11.22
1416.1	0.375	112.61	11.38
1436.3	0.375	112.16	11.34
1456.5	0.375	120.54	12.18
1476.9	0.375	111.58	11.28
1497.1	0.375	123.99	12.53
1517.5	0.375	109.29	11.05

System: lithium fluoride + calcium fluoride; phases: Liquid
Fixed: Pressure, kPa = 1
Fixed: Mole fraction of calcium fluoride = 0.5
Property: Molar enthalpy, kJ/mol (Liquid); method: Drop calorimetry
Temperature, K	Molar enthalpy, kJ/mol	uncertainty
1389.6	107.2165	19.0166
1414.8	107.0179	8.315
1440.2	113.4527	40.6533
1465.1	119.1965	38.7472
1490.6	114.5034	19.3785
1515.9	121.1669	27.7861
1541.3	122.7816	20.835
1566.7	131.0174	27.5068
