Measured thermophysical data. The thermochemistry of coronene revisited
Source: J. Chem. Thermodyn., 2009, 10.1016/j.jct.2009.03.010
Compound 1: carbon dioxide, CO2, InChI=1S/CO2/c2-1-3
Compound 2: water, H2O, InChI=1S/H2O/h1H2
Compound 3: oxygen, O2, InChI=1S/O2/c1-2
Compound 4: coronene, C24H12, InChI=1S/C24H12/c1-2-14-5-6-16-9-11-18-12-10-17-8-7-15-4-3-13(1)19-20(14)22(16)24(18)23(17)21(15)19/h1-12H, purity 99%

System: coronene; phases: Crystal, Liquid, Air at 1 atmosphere
Property: Molar enthalpy of transition or fusion, kJ/mol (Crystal); method: DSC
Molar enthalpy of transition or fusion, kJ/mol	uncertainty
21.2	1.5

System: coronene; phases: Crystal, Liquid, Air at 1 atmosphere
Property: Normal melting temperature, K (Crystal); method: DTA
Normal melting temperature, K	uncertainty
709	1.6

System: coronene; phases: Crystal, Gas
Property: Molar enthalpy of vaporization or sublimation, kJ/mol (Crystal); method: Derived by Second law
Temperature, K	Molar enthalpy of vaporization or sublimation, kJ/mol	uncertainty
478.2	126.6	3.8

System: coronene; phases: Crystal
Property: Molar heat capacity at constant pressure, J/K/mol (Crystal); method: DSC
Temperature, K	Pressure, kPa	Molar heat capacity at constant pressure, J/K/mol	uncertainty
298.15	101.325	317.4631379976	13.8191992008

System: coronene; phases: Crystal
Fixed: Pressure, kPa = 101.325
Property: Molar heat capacity at constant pressure, J/K/mol (Crystal); method: Small sample (50 mg) DSC
Temperature, K	Molar heat capacity at constant pressure, J/K/mol	uncertainty
295	312.967	6.259
298.15	317.172	6.343
300	318.974	6.38
310	333.991	6.68
320	344.504	6.89
330	355.316	7.106
340	366.429	7.329
350	373.938	7.479
360	383.85	7.677
370	394.663	7.893
380	405.175	8.104
410	417.189	8.344
420	422.295	8.446
430	435.51	8.71
440	439.115	8.782
450	447.825	8.957
460	453.832	9.077
470	463.443	9.269
478	470.652	9.413

Reaction: -1 coronene + 24 carbon dioxide + 6 water + -27 oxygen
Property: Specific internal energy of reaction at constant volume, J/g
-37637.5

Reaction: -1 coronene + 24 carbon dioxide + 6 water + -27 oxygen
Property: Specific internal energy of reaction at constant volume, J/g
-37631
