Measured thermophysical data. Activity coefficients at infinite dilution of organic solutes in the ionic liquid 1-ethyl-3-methylimidazolium trifluoromethanesulfonate using gas liquid chromatography at T = (313.15, 323.15, and 333.15) K
Source: J. Chem. Thermodyn., 2010, 10.1016/j.jct.2009.07.010
Compound 1: 1-ethyl-3-methylimidazolium trifluoromethanesulfonate, C7H11F3N2O3S, InChI=1S/C6H11N2.CHF3O3S/c1-3-8-5-4-7(2)6-8;2-1(3,4)8(5,6)7/h4-6H,3H2,1-2H3;(H,5,6,7)/q+1;/p-1, purity 98%
Compound 2: pentane, C5H12, InChI=1S/C5H12/c1-3-5-4-2/h3-5H2,1-2H3, purity 98%
Compound 3: hexane, C6H14, InChI=1S/C6H14/c1-3-5-6-4-2/h3-6H2,1-2H3, purity 98%
Compound 4: heptane, C7H16, InChI=1S/C7H16/c1-3-5-7-6-4-2/h3-7H2,1-2H3, purity 98%
Compound 5: octane, C8H18, InChI=1S/C8H18/c1-3-5-7-8-6-4-2/h3-8H2,1-2H3, purity 98%
Compound 6: hex-1-ene, C6H12, InChI=1S/C6H12/c1-3-5-6-4-2/h3H,1,4-6H2,2H3, purity 98%
Compound 7: 1-heptene, C7H14, InChI=1S/C7H14/c1-3-5-7-6-4-2/h3H,1,4-7H2,2H3, purity 98%
Compound 8: oct-1-ene, C8H16, InChI=1S/C8H16/c1-3-5-7-8-6-4-2/h3H,1,4-8H2,2H3, purity 98%
Compound 9: 1-nonene, C9H18, InChI=1S/C9H18/c1-3-5-7-9-8-6-4-2/h3H,1,4-9H2,2H3, purity 98%
Compound 10: 1-decene, C10H20, InChI=1S/C10H20/c1-3-5-7-9-10-8-6-4-2/h3H,1,4-10H2,2H3, purity 98%
Compound 11: 1-undecene, C11H22, InChI=1S/C11H22/c1-3-5-7-9-11-10-8-6-4-2/h3H,1,4-11H2,2H3, purity 98%
Compound 12: 1-pentyne, C5H8, InChI=1S/C5H8/c1-3-5-4-2/h1H,4-5H2,2H3, purity 98%
Compound 13: 1-hexyne, C6H10, InChI=1S/C6H10/c1-3-5-6-4-2/h1H,4-6H2,2H3, purity 98%
Compound 14: 1-heptyne, C7H12, InChI=1S/C7H12/c1-3-5-7-6-4-2/h1H,4-7H2,2H3, purity 98%
Compound 15: 1-octyne, C8H14, InChI=1S/C8H14/c1-3-5-7-8-6-4-2/h1H,4-8H2,2H3, purity 98%
Compound 16: 1-nonyne, C9H16, InChI=1S/C9H16/c1-3-5-7-9-8-6-4-2/h1H,4-9H2,2H3, purity 98%
Compound 17: cyclopentane, C5H10, InChI=1S/C5H10/c1-2-4-5-3-1/h1-5H2, purity 98%
Compound 18: cyclohexane, C6H12, InChI=1S/C6H12/c1-2-4-6-5-3-1/h1-6H2, purity 98%
Compound 19: cycloheptane, C7H14, InChI=1S/C7H14/c1-2-4-6-7-5-3-1/h1-7H2, purity 98%
Compound 20: cyclooctane, C8H16, InChI=1S/C8H16/c1-2-4-6-8-7-5-3-1/h1-8H2, purity 98%
Compound 21: methanol, CH4O, InChI=1S/CH4O/c1-2/h2H,1H3, purity 98%
Compound 22: ethanol, C2H6O, InChI=1S/C2H6O/c1-2-3/h3H,2H2,1H3, purity 98%
Compound 23: benzene, C6H6, InChI=1S/C6H6/c1-2-4-6-5-3-1/h1-6H, purity 98%
Compound 24: toluene, C7H8, InChI=1S/C7H8/c1-7-5-3-2-4-6-7/h2-6H,1H3, purity 98%
Compound 25: ethylbenzene, C8H10, InChI=1S/C8H10/c1-2-8-6-4-3-5-7-8/h3-7H,2H2,1H3, purity 98%

System: 1-ethyl-3-methylimidazolium trifluoromethanesulfonate; phases: Liquid
Property: Mass density, kg/m3 (Liquid); method: Vibrating tube method
Temperature, K	Pressure, kPa	Mass density, kg/m3	uncertainty
298.15	101.325	1387.07	2.24

System: oct-1-ene + 1-ethyl-3-methylimidazolium trifluoromethanesulfonate; phases: Liquid, Gas
Fixed: Mole fraction of oct-1-ene = 0
Property: (Relative) activity of oct-1-ene (Liquid); method: Chromatography
Temperature, K	(Relative) activity of oct-1-ene	uncertainty
313.15	75.7	6.6
323.15	71	6.1
333.15	67.3	5.8

System: oct-1-ene + 1-ethyl-3-methylimidazolium trifluoromethanesulfonate; phases: Liquid, Gas
Fixed: Mole fraction of oct-1-ene = 0
Property: (Relative) activity of oct-1-ene (Liquid); method: Chromatography
Temperature, K	(Relative) activity of oct-1-ene	uncertainty
313.15	74.9	6.5
323.15	68.5	5.9
333.15	64.2	5.6

System: 1-nonene + 1-ethyl-3-methylimidazolium trifluoromethanesulfonate; phases: Liquid, Gas
Fixed: Mole fraction of 1-nonene = 0
Property: (Relative) activity of 1-nonene (Liquid); method: Chromatography
Temperature, K	(Relative) activity of 1-nonene	uncertainty
313.15	122	11
323.15	113	10
333.15	106	9

System: 1-nonene + 1-ethyl-3-methylimidazolium trifluoromethanesulfonate; phases: Liquid, Gas
Fixed: Mole fraction of 1-nonene = 0
Property: (Relative) activity of 1-nonene (Liquid); method: Chromatography
Temperature, K	(Relative) activity of 1-nonene	uncertainty
313.15	127	11
323.15	117	10
333.15	106	9

System: 1-decene + 1-ethyl-3-methylimidazolium trifluoromethanesulfonate; phases: Liquid, Gas
Fixed: Mole fraction of 1-decene = 0
Property: (Relative) activity of 1-decene (Liquid); method: Chromatography
Temperature, K	(Relative) activity of 1-decene	uncertainty
313.15	172	15
323.15	162	14
333.15	155	13

System: 1-decene + 1-ethyl-3-methylimidazolium trifluoromethanesulfonate; phases: Liquid, Gas
Fixed: Mole fraction of 1-decene = 0
Property: (Relative) activity of 1-decene (Liquid); method: Chromatography
Temperature, K	(Relative) activity of 1-decene	uncertainty
313.15	179	16
323.15	167	14
333.15	160	14

System: 1-undecene + 1-ethyl-3-methylimidazolium trifluoromethanesulfonate; phases: Liquid, Gas
Fixed: Mole fraction of 1-undecene = 0
Property: (Relative) activity of 1-undecene (Liquid); method: Chromatography
Temperature, K	(Relative) activity of 1-undecene	uncertainty
313.15	316	27
323.15	283	25
333.15	257	22

System: 1-undecene + 1-ethyl-3-methylimidazolium trifluoromethanesulfonate; phases: Liquid, Gas
Fixed: Mole fraction of 1-undecene = 0
Property: (Relative) activity of 1-undecene (Liquid); method: Chromatography
Temperature, K	(Relative) activity of 1-undecene	uncertainty
313.15	320	28
323.15	288	25
333.15	261	23

System: 1-pentyne + 1-ethyl-3-methylimidazolium trifluoromethanesulfonate; phases: Liquid, Gas
Fixed: Mole fraction of 1-pentyne = 0
Property: (Relative) activity of 1-pentyne (Liquid); method: Chromatography
Temperature, K	(Relative) activity of 1-pentyne	uncertainty
313.15	3.95	0.34
323.15	4.02	0.35
333.15	4.08	0.35

System: 1-pentyne + 1-ethyl-3-methylimidazolium trifluoromethanesulfonate; phases: Liquid, Gas
Fixed: Mole fraction of 1-pentyne = 0
Property: (Relative) activity of 1-pentyne (Liquid); method: Chromatography
Temperature, K	(Relative) activity of 1-pentyne	uncertainty
313.15	4.01	0.35
323.15	4	0.35
333.15	3.98	0.34

System: 1-hexyne + 1-ethyl-3-methylimidazolium trifluoromethanesulfonate; phases: Liquid, Gas
Fixed: Mole fraction of 1-hexyne = 0
Property: (Relative) activity of 1-hexyne (Liquid); method: Chromatography
Temperature, K	(Relative) activity of 1-hexyne	uncertainty
313.15	6.35	0.55
323.15	6.43	0.55
333.15	6.47	0.56

System: 1-hexyne + 1-ethyl-3-methylimidazolium trifluoromethanesulfonate; phases: Liquid, Gas
Fixed: Mole fraction of 1-hexyne = 0
Property: (Relative) activity of 1-hexyne (Liquid); method: Chromatography
Temperature, K	(Relative) activity of 1-hexyne	uncertainty
313.15	6.36	0.55
323.15	6.51	0.56
333.15	6.76	0.58

System: 1-heptyne + 1-ethyl-3-methylimidazolium trifluoromethanesulfonate; phases: Liquid, Gas
Fixed: Mole fraction of 1-heptyne = 0
Property: (Relative) activity of 1-heptyne (Liquid); method: Chromatography
Temperature, K	(Relative) activity of 1-heptyne	uncertainty
313.15	9.83	0.85
323.15	9.79	0.85
333.15	9.78	0.84

System: 1-heptyne + 1-ethyl-3-methylimidazolium trifluoromethanesulfonate; phases: Liquid, Gas
Fixed: Mole fraction of 1-heptyne = 0
Property: (Relative) activity of 1-heptyne (Liquid); method: Chromatography
Temperature, K	(Relative) activity of 1-heptyne	uncertainty
313.15	9.59	0.83
323.15	9.75	0.84
333.15	9.87	0.85

System: 1-octyne + 1-ethyl-3-methylimidazolium trifluoromethanesulfonate; phases: Liquid, Gas
Fixed: Mole fraction of 1-octyne = 0
Property: (Relative) activity of 1-octyne (Liquid); method: Chromatography
Temperature, K	(Relative) activity of 1-octyne	uncertainty
313.15	16.3	1.4
323.15	16.2	1.4
333.15	16.1	1.4

System: 1-octyne + 1-ethyl-3-methylimidazolium trifluoromethanesulfonate; phases: Liquid, Gas
Fixed: Mole fraction of 1-octyne = 0
Property: (Relative) activity of 1-octyne (Liquid); method: Chromatography
Temperature, K	(Relative) activity of 1-octyne	uncertainty
313.15	15.6	1.3
323.15	16.6	1.4
333.15	17	1.5

System: 1-nonyne + 1-ethyl-3-methylimidazolium trifluoromethanesulfonate; phases: Liquid, Gas
Fixed: Mole fraction of 1-nonyne = 0
Property: (Relative) activity of 1-nonyne (Liquid); method: Chromatography
Temperature, K	(Relative) activity of 1-nonyne	uncertainty
313.15	23.8	2.1
323.15	24	2.1
333.15	24.1	2.1

System: 1-nonyne + 1-ethyl-3-methylimidazolium trifluoromethanesulfonate; phases: Liquid, Gas
Fixed: Mole fraction of 1-nonyne = 0
Property: (Relative) activity of 1-nonyne (Liquid); method: Chromatography
Temperature, K	(Relative) activity of 1-nonyne	uncertainty
313.15	24	2.1
323.15	24.1	2.1
333.15	24.4	2.1

System: pentane + 1-ethyl-3-methylimidazolium trifluoromethanesulfonate; phases: Liquid, Gas
Fixed: Mole fraction of pentane = 0
Property: (Relative) activity of pentane (Liquid); method: Chromatography
Temperature, K	(Relative) activity of pentane	uncertainty
313.15	40.7	3.5
323.15	38.6	3.3
333.15	36.57	3.16

System: pentane + 1-ethyl-3-methylimidazolium trifluoromethanesulfonate; phases: Liquid, Gas
Fixed: Mole fraction of pentane = 0
Property: (Relative) activity of pentane (Liquid); method: Chromatography
Temperature, K	(Relative) activity of pentane	uncertainty
313.15	42.5	3.7
323.15	39.5	3.4
333.15	36.9	3.2

System: hexane + 1-ethyl-3-methylimidazolium trifluoromethanesulfonate; phases: Liquid, Gas
Fixed: Mole fraction of hexane = 0
Property: (Relative) activity of hexane (Liquid); method: Chromatography
Temperature, K	(Relative) activity of hexane	uncertainty
313.15	67	5.8
323.15	63.1	5.5
333.15	60.16	5.21

System: hexane + 1-ethyl-3-methylimidazolium trifluoromethanesulfonate; phases: Liquid, Gas
Fixed: Mole fraction of hexane = 0
Property: (Relative) activity of hexane (Liquid); method: Chromatography
Temperature, K	(Relative) activity of hexane	uncertainty
313.15	67.1	5.8
323.15	65.8	5.7
333.15	61.3	5.3

System: heptane + 1-ethyl-3-methylimidazolium trifluoromethanesulfonate; phases: Liquid, Gas
Fixed: Mole fraction of heptane = 0
Property: (Relative) activity of heptane (Liquid); method: Chromatography
Temperature, K	(Relative) activity of heptane	uncertainty
313.15	107	9
323.15	99.5	8.6
333.15	93.32	8.08

System: heptane + 1-ethyl-3-methylimidazolium trifluoromethanesulfonate; phases: Liquid, Gas
Fixed: Mole fraction of heptane = 0
Property: (Relative) activity of heptane (Liquid); method: Chromatography
Temperature, K	(Relative) activity of heptane	uncertainty
313.15	102	9
323.15	94.9	8.2
333.15	90.2	7.8

System: octane + 1-ethyl-3-methylimidazolium trifluoromethanesulfonate; phases: Liquid, Gas
Fixed: Mole fraction of octane = 0
Property: (Relative) activity of octane (Liquid); method: Chromatography
Temperature, K	(Relative) activity of octane	uncertainty
313.15	170	15
323.15	154	13
333.15	143	12

System: octane + 1-ethyl-3-methylimidazolium trifluoromethanesulfonate; phases: Liquid, Gas
Fixed: Mole fraction of octane = 0
Property: (Relative) activity of octane (Liquid); method: Chromatography
Temperature, K	(Relative) activity of octane	uncertainty
313.15	163	14
323.15	159	14
333.15	145	13

System: hex-1-ene + 1-ethyl-3-methylimidazolium trifluoromethanesulfonate; phases: Liquid, Gas
Fixed: Mole fraction of hex-1-ene = 0
Property: (Relative) activity of hex-1-ene (Liquid); method: Chromatography
Temperature, K	(Relative) activity of hex-1-ene	uncertainty
313.15	28.6	2.5
323.15	27.7	2.4
333.15	26.7	2.3

System: hex-1-ene + 1-ethyl-3-methylimidazolium trifluoromethanesulfonate; phases: Liquid, Gas
Fixed: Mole fraction of hex-1-ene = 0
Property: (Relative) activity of hex-1-ene (Liquid); method: Chromatography
Temperature, K	(Relative) activity of hex-1-ene	uncertainty
313.15	29.5	2.6
323.15	27.8	2.4
333.15	27.8	2.4

System: 1-heptene + 1-ethyl-3-methylimidazolium trifluoromethanesulfonate; phases: Liquid, Gas
Fixed: Mole fraction of 1-heptene = 0
Property: (Relative) activity of 1-heptene (Liquid); method: Chromatography
Temperature, K	(Relative) activity of 1-heptene	uncertainty
313.15	47	4.1
323.15	44.8	3.9
333.15	42.9	3.7

System: 1-heptene + 1-ethyl-3-methylimidazolium trifluoromethanesulfonate; phases: Liquid, Gas
Fixed: Mole fraction of 1-heptene = 0
Property: (Relative) activity of 1-heptene (Liquid); method: Chromatography
Temperature, K	(Relative) activity of 1-heptene	uncertainty
313.15	45.6	3.9
323.15	43.1	3.7
333.15	43.6	3.8

System: cyclohexane + 1-ethyl-3-methylimidazolium trifluoromethanesulfonate; phases: Liquid, Gas
Fixed: Mole fraction of cyclohexane = 0
Property: (Relative) activity of cyclohexane (Liquid); method: Chromatography
Temperature, K	(Relative) activity of cyclohexane	uncertainty
313.15	33.3	2.9
323.15	31.2	2.7
333.15	29.3	2.5

System: cyclohexane + 1-ethyl-3-methylimidazolium trifluoromethanesulfonate; phases: Liquid, Gas
Fixed: Mole fraction of cyclohexane = 0
Property: (Relative) activity of cyclohexane (Liquid); method: Chromatography
Temperature, K	(Relative) activity of cyclohexane	uncertainty
313.15	34.1	2.9
323.15	32.1	2.8
333.15	30.3	2.6

System: cycloheptane + 1-ethyl-3-methylimidazolium trifluoromethanesulfonate; phases: Liquid, Gas
Fixed: Mole fraction of cycloheptane = 0
Property: (Relative) activity of cycloheptane (Liquid); method: Chromatography
Temperature, K	(Relative) activity of cycloheptane	uncertainty
313.15	46.9	4.1
323.15	43.3	3.7
333.15	40.2	3.5

System: cycloheptane + 1-ethyl-3-methylimidazolium trifluoromethanesulfonate; phases: Liquid, Gas
Fixed: Mole fraction of cycloheptane = 0
Property: (Relative) activity of cycloheptane (Liquid); method: Chromatography
Temperature, K	(Relative) activity of cycloheptane	uncertainty
313.15	45.4	3.9
323.15	44	3.8
333.15	38.5	3.3

System: cyclooctane + 1-ethyl-3-methylimidazolium trifluoromethanesulfonate; phases: Liquid, Gas
Fixed: Mole fraction of cyclooctane = 0
Property: (Relative) activity of cyclooctane (Liquid); method: Chromatography
Temperature, K	(Relative) activity of cyclooctane	uncertainty
313.15	67.2	5.8
323.15	61.2	5.3
333.15	56.2	4.9

System: cyclooctane + 1-ethyl-3-methylimidazolium trifluoromethanesulfonate; phases: Liquid, Gas
Fixed: Mole fraction of cyclooctane = 0
Property: (Relative) activity of cyclooctane (Liquid); method: Chromatography
Temperature, K	(Relative) activity of cyclooctane	uncertainty
313.15	69.7	6
323.15	62.5	5.4
333.15	55.7	4.8

System: methanol + 1-ethyl-3-methylimidazolium trifluoromethanesulfonate; phases: Liquid, Gas
Fixed: Mole fraction of methanol = 0
Property: (Relative) activity of methanol (Liquid); method: Chromatography
Temperature, K	(Relative) activity of methanol	uncertainty
313.15	0.73	0.06
323.15	0.7	0.06
333.15	0.67	0.06

System: methanol + 1-ethyl-3-methylimidazolium trifluoromethanesulfonate; phases: Liquid, Gas
Fixed: Mole fraction of methanol = 0
Property: (Relative) activity of methanol (Liquid); method: Chromatography
Temperature, K	(Relative) activity of methanol	uncertainty
313.15	0.72	0.06
323.15	0.69	0.06
333.15	0.68	0.06

System: ethanol + 1-ethyl-3-methylimidazolium trifluoromethanesulfonate; phases: Liquid, Gas
Fixed: Mole fraction of ethanol = 0
Property: (Relative) activity of ethanol (Liquid); method: Chromatography
Temperature, K	(Relative) activity of ethanol	uncertainty
313.15	1.19	0.1
323.15	1.12	0.09
333.15	1.06	0.09

System: ethanol + 1-ethyl-3-methylimidazolium trifluoromethanesulfonate; phases: Liquid, Gas
Fixed: Mole fraction of ethanol = 0
Property: (Relative) activity of ethanol (Liquid); method: Chromatography
Temperature, K	(Relative) activity of ethanol	uncertainty
313.15	1.15	0.1
323.15	1.09	0.09
333.15	1.07	0.09

System: benzene + 1-ethyl-3-methylimidazolium trifluoromethanesulfonate; phases: Liquid, Gas
Fixed: Mole fraction of benzene = 0
Property: (Relative) activity of benzene (Liquid); method: Chromatography
Temperature, K	(Relative) activity of benzene	uncertainty
313.15	2.23	0.19
323.15	2.25	0.19
333.15	2.26	0.19

System: benzene + 1-ethyl-3-methylimidazolium trifluoromethanesulfonate; phases: Liquid, Gas
Fixed: Mole fraction of benzene = 0
Property: (Relative) activity of benzene (Liquid); method: Chromatography
Temperature, K	(Relative) activity of benzene	uncertainty
313.15	2.21	0.19
323.15	2.23	0.19
333.15	2.28	0.2

System: cyclopentane + 1-ethyl-3-methylimidazolium trifluoromethanesulfonate; phases: Liquid, Gas
Fixed: Mole fraction of cyclopentane = 0
Property: (Relative) activity of cyclopentane (Liquid); method: Chromatography
Temperature, K	(Relative) activity of cyclopentane	uncertainty
313.15	20.9	1.8
323.15	20	1.7
333.15	19	2

System: cyclopentane + 1-ethyl-3-methylimidazolium trifluoromethanesulfonate; phases: Liquid, Gas
Fixed: Mole fraction of cyclopentane = 0
Property: (Relative) activity of cyclopentane (Liquid); method: Chromatography
Temperature, K	(Relative) activity of cyclopentane	uncertainty
313.15	21.2	1.8
323.15	20.9	1.8
333.15	19.5	1.7

System: toluene + 1-ethyl-3-methylimidazolium trifluoromethanesulfonate; phases: Liquid, Gas
Fixed: Mole fraction of toluene = 0
Property: (Relative) activity of toluene (Liquid); method: Chromatography
Temperature, K	(Relative) activity of toluene	uncertainty
313.15	3.62	0.31
323.15	3.65	0.31
333.15	3.67	0.32

System: toluene + 1-ethyl-3-methylimidazolium trifluoromethanesulfonate; phases: Liquid, Gas
Fixed: Mole fraction of toluene = 0
Property: (Relative) activity of toluene (Liquid); method: Chromatography
Temperature, K	(Relative) activity of toluene	uncertainty
313.15	3.51	0.3
323.15	3.53	0.3
333.15	3.64	0.31

System: ethylbenzene + 1-ethyl-3-methylimidazolium trifluoromethanesulfonate; phases: Liquid, Gas
Fixed: Mole fraction of ethylbenzene = 0
Property: (Relative) activity of ethylbenzene (Liquid); method: Chromatography
Temperature, K	(Relative) activity of ethylbenzene	uncertainty
313.15	6.37	0.55
323.15	6.32	0.55
333.15	6.28	0.54

System: ethylbenzene + 1-ethyl-3-methylimidazolium trifluoromethanesulfonate; phases: Liquid, Gas
Fixed: Mole fraction of ethylbenzene = 0
Property: (Relative) activity of ethylbenzene (Liquid); method: Chromatography
Temperature, K	(Relative) activity of ethylbenzene	uncertainty
313.15	6.03	0.52
323.15	6.22	0.54
333.15	6.46	0.56
