Measured thermophysical data. Equilibrium solubility determination, modelling and preferential solvation of bioactive iminodibenzyl in aqueous co-solvent mixtures at various temperatures
Source: J. Chem. Thermodyn., 2019, 10.1016/j.jct.2018.12.045
Compound 1: iminodibenzyl, C14H13N, InChI=1S/C14H13N/c1-3-7-13-11(5-1)9-10-12-6-2-4-8-14(12)15-13/h1-8,15H,9-10H2, purity 99.5%
Compound 2: ethanol, C2H6O, InChI=1S/C2H6O/c1-2-3/h3H,2H2,1H3, purity 99.7%
Compound 3: 1,2-ethanediol, C2H6O2, InChI=1S/C2H6O2/c3-1-2-4/h3-4H,1-2H2, purity 99.6%
Compound 4: dimethyl sulfoxide, C2H6OS, InChI=1S/C2H6OS/c1-4(2)3/h1-2H3, purity 99.5%
Compound 5: propan-2-ol, C3H8O, InChI=1S/C3H8O/c1-3(2)4/h3-4H,1-2H3, purity 99.6%
Compound 6: water, H2O, InChI=1S/H2O/h1H2

System: iminodibenzyl + ethanol + water; phases: Liquid, Crystal
Fixed: Pressure, kPa = 101.2
Property: Mole fraction of iminodibenzyl (Liquid); method: Chromatography
Temperature, K	Solvent: Mass fraction of ethanol	Mole fraction of iminodibenzyl	uncertainty
283.15	0	8.4e-07	1.11e-07
288.15	0	1.266e-06	1.67e-07
293.15	0	1.834e-06	2.42e-07
298.15	0	2.73e-06	3.6e-07
303.15	0	3.774e-06	4.98e-07
308.15	0	5.41e-06	7.14e-07
313.15	0	7.418e-06	9.79e-07
318.15	0	1.019e-05	1.35e-06
323.15	0	1.391e-05	1.84e-06
328.15	0	1.87e-05	2.47e-06
283.15	0.1003	2.173e-05	2.87e-06
288.15	0.1003	3.094e-05	4.09e-06
293.15	0.1003	4.256e-05	5.62e-06
298.15	0.1003	5.987e-05	7.91e-06
303.15	0.1003	7.901e-05	1.043e-05
308.15	0.1003	0.0001075	1.42e-05
313.15	0.1003	0.0001408	1.86e-05
318.15	0.1003	0.0001848	2.44e-05
323.15	0.1003	0.000241	3.18e-05
328.15	0.1003	0.0003105	4.11e-05
283.15	0.2001	0.0001201	1.59e-05
288.15	0.2001	0.0001659	2.19e-05
293.15	0.2001	0.0002224	2.94e-05
298.15	0.2001	0.0003031	4e-05
303.15	0.2001	0.0003912	5.17e-05
308.15	0.2001	0.0005167	6.82e-05
313.15	0.2001	0.0006615	8.73e-05
318.15	0.2001	0.0008483	0.000112
323.15	0.2001	0.00108	0.000143
328.15	0.2001	0.001361	0.00018
283.15	0.3013	0.0002426	3.2e-05
288.15	0.3013	0.000331	4.37e-05
293.15	0.3013	0.0004398	5.81e-05
298.15	0.3013	0.0005904	7.8e-05
303.15	0.3013	0.0007571	0.0001
308.15	0.3013	0.000986	0.0001302
313.15	0.3013	0.001252	0.000165
318.15	0.3013	0.001591	0.00021
323.15	0.3013	0.002005	0.000265
328.15	0.3013	0.002505	0.000331
283.15	0.4002	0.0002934	3.87e-05
288.15	0.4002	0.0003988	5.27e-05
293.15	0.4002	0.0005296	6.99e-05
298.15	0.4002	0.0007062	9.32e-05
303.15	0.4002	0.0009068	0.0001197
308.15	0.4002	0.001174	0.000155
313.15	0.4002	0.001489	0.000197
318.15	0.4002	0.001889	0.000249
323.15	0.4002	0.002372	0.000313
328.15	0.4002	0.00296	0.000391
283.15	0.5003	0.000305	4.03e-05
288.15	0.5003	0.000414	5.47e-05
293.15	0.5003	0.000551	7.28e-05
298.15	0.5003	0.0007315	9.66e-05
303.15	0.5003	0.0009429	0.0001245
308.15	0.5003	0.001216	0.000161
313.15	0.5003	0.001545	0.000204
318.15	0.5003	0.001961	0.000259
323.15	0.5003	0.002459	0.000325
328.15	0.5003	0.003069	0.000405
283.15	0.5999	0.0003371	4.45e-05
288.15	0.5999	0.0004567	6.03e-05
293.15	0.5999	0.0006084	8.03e-05
298.15	0.5999	0.0008034	0.0001061
303.15	0.5999	0.001039	0.000137
308.15	0.5999	0.001333	0.000176
313.15	0.5999	0.001695	0.000224
318.15	0.5999	0.002149	0.000284
323.15	0.5999	0.00269	0.000355
328.15	0.5999	0.003356	0.000443
283.15	0.7011	0.0004347	5.74e-05
288.15	0.7011	0.000586	7.74e-05
293.15	0.7011	0.000751	9.92e-05
298.15	0.7011	0.0009913	0.0001309
303.15	0.7011	0.001263	0.000167
308.15	0.7011	0.001625	0.000215
313.15	0.7011	0.002078	0.000274
318.15	0.7011	0.002644	0.000349
323.15	0.7011	0.003309	0.000437
328.15	0.7011	0.004102	0.000542
283.15	0.8003	0.0005699	7.52e-05
288.15	0.8003	0.0007643	0.0001009
293.15	0.8003	0.001015	0.000134
298.15	0.8003	0.001319	0.000174
303.15	0.8003	0.001706	0.000225
308.15	0.8003	0.002158	0.000285
313.15	0.8003	0.002734	0.000361
318.15	0.8003	0.003448	0.000455
323.15	0.8003	0.004278	0.000565
328.15	0.8003	0.005309	0.000701
283.15	0.899	0.0007645	0.000101
288.15	0.899	0.00102	0.000135
293.15	0.899	0.001351	0.000178
298.15	0.899	0.001741	0.00023
303.15	0.899	0.002252	0.000297
308.15	0.899	0.002826	0.000373
313.15	0.899	0.003573	0.000472
318.15	0.899	0.00449	0.000593
323.15	0.899	0.005544	0.000732
328.15	0.899	0.006859	0.000906
283.15	1	0.000769	0.0001015
288.15	1	0.001025	0.000135
293.15	1	0.001362	0.00018
298.15	1	0.001748	0.000231
303.15	1	0.002271	0.0003
308.15	1	0.00284	0.000375
313.15	1	0.003598	0.000475
318.15	1	0.004526	0.000598
323.15	1	0.005584	0.000737
328.15	1	0.006914	0.000913

System: iminodibenzyl + 1,2-ethanediol + water; phases: Liquid, Crystal
Fixed: Pressure, kPa = 101.2
Property: Mole fraction of iminodibenzyl (Liquid); method: Chromatography
Temperature, K	Solvent: Mass fraction of 1,2-ethanediol	Mole fraction of iminodibenzyl	uncertainty
283.15	0	8.4e-07	1.11e-07
288.15	0	1.266e-06	1.67e-07
293.15	0	1.834e-06	2.42e-07
298.15	0	2.73e-06	3.6e-07
303.15	0	3.774e-06	4.98e-07
308.15	0	5.41e-06	7.14e-07
313.15	0	7.418e-06	9.79e-07
318.15	0	1.019e-05	1.35e-06
323.15	0	1.391e-05	1.84e-06
328.15	0	1.87e-05	2.47e-06
283.15	0.1	1.162e-05	1.53e-06
288.15	0.1	1.654e-05	2.18e-06
293.15	0.1	2.265e-05	2.99e-06
298.15	0.1	3.177e-05	4.19e-06
303.15	0.1	3.703e-05	4.89e-06
308.15	0.1	5.212e-05	6.88e-06
313.15	0.1	6.475e-05	8.55e-06
318.15	0.1	8.756e-05	1.156e-05
323.15	0.1	0.0001167	1.54e-05
328.15	0.1	0.0001521	2.01e-05
283.15	0.2002	4.572e-05	6.04e-06
288.15	0.2002	6.289e-05	8.3e-06
293.15	0.2002	7.844e-05	1.036e-05
298.15	0.2002	0.0001076	1.42e-05
303.15	0.2002	0.0001335	1.76e-05
308.15	0.2002	0.0001778	2.35e-05
313.15	0.2002	0.0002227	2.94e-05
318.15	0.2002	0.0002855	3.77e-05
323.15	0.2002	0.0003595	4.75e-05
328.15	0.2002	0.0004381	5.78e-05
283.15	0.3	8.32e-05	1.1e-05
288.15	0.3	0.000112	1.48e-05
293.15	0.3	0.0001448	1.91e-05
298.15	0.3	0.0001904	2.51e-05
303.15	0.3	0.0002375	3.14e-05
308.15	0.3	0.0003033	4e-05
313.15	0.3	0.0003764	4.97e-05
318.15	0.3	0.0004666	6.16e-05
323.15	0.3	0.0005771	7.62e-05
328.15	0.3	0.0007046	9.3e-05
283.15	0.3988	0.000103	1.36e-05
288.15	0.3988	0.0001366	1.8e-05
293.15	0.3988	0.0001739	2.3e-05
298.15	0.3988	0.0002243	2.96e-05
303.15	0.3988	0.0002759	3.64e-05
308.15	0.3988	0.0003508	4.63e-05
313.15	0.3988	0.000428	5.65e-05
318.15	0.3988	0.0005217	6.89e-05
323.15	0.3988	0.0006347	8.38e-05
328.15	0.3988	0.0007677	0.0001014
283.15	0.5012	0.0001286	1.7e-05
288.15	0.5012	0.0001686	2.23e-05
293.15	0.5012	0.0002069	2.73e-05
298.15	0.5012	0.0002571	3.39e-05
303.15	0.5012	0.0003178	4.2e-05
308.15	0.5012	0.0003809	5.03e-05
313.15	0.5012	0.0004599	6.07e-05
318.15	0.5012	0.000548	7.23e-05
323.15	0.5012	0.0006536	8.63e-05
328.15	0.5012	0.0008028	0.000106
283.15	0.6001	0.0001563	2.06e-05
288.15	0.6001	0.0001974	2.61e-05
293.15	0.6001	0.0002381	3.14e-05
298.15	0.6001	0.0002862	3.78e-05
303.15	0.6001	0.0003458	4.57e-05
308.15	0.6001	0.0004122	5.44e-05
313.15	0.6001	0.0004904	6.47e-05
318.15	0.6001	0.0005789	7.64e-05
323.15	0.6001	0.0006799	8.98e-05
328.15	0.6001	0.0008315	0.0001098
283.15	0.699	0.000196	2.59e-05
288.15	0.699	0.0002399	3.17e-05
293.15	0.699	0.0002827	3.73e-05
298.15	0.699	0.0003378	4.46e-05
303.15	0.699	0.0004097	5.41e-05
308.15	0.699	0.0004792	6.33e-05
313.15	0.699	0.0005754	7.6e-05
318.15	0.699	0.0006592	8.7e-05
323.15	0.699	0.0007385	9.75e-05
328.15	0.699	0.0008638	0.000114
283.15	0.801	0.0002448	3.23e-05
288.15	0.801	0.0003006	3.97e-05
293.15	0.801	0.0003546	4.68e-05
298.15	0.801	0.0004213	5.56e-05
303.15	0.801	0.000496	6.55e-05
308.15	0.801	0.0005827	7.69e-05
313.15	0.801	0.0006606	8.72e-05
318.15	0.801	0.0007578	0.0001
323.15	0.801	0.000861	0.0001137
328.15	0.801	0.0009824	0.0001297
283.15	0.9003	0.0002981	3.94e-05
288.15	0.9003	0.0003567	4.71e-05
293.15	0.9003	0.0004269	5.64e-05
298.15	0.9003	0.0005052	6.67e-05
303.15	0.9003	0.0005918	7.81e-05
308.15	0.9003	0.0006726	8.88e-05
313.15	0.9003	0.0007592	0.0001002
318.15	0.9003	0.0008424	0.0001112
323.15	0.9003	0.0009379	0.0001238
328.15	0.9003	0.001055	0.000139
283.15	1	0.0003512	4.64e-05
288.15	1	0.0004268	5.63e-05
293.15	1	0.0004943	6.53e-05
298.15	1	0.0005661	7.47e-05
303.15	1	0.0006421	8.48e-05
308.15	1	0.0007215	9.53e-05
313.15	1	0.0008124	0.0001073
318.15	1	0.0009047	0.0001194
323.15	1	0.00101	0.000133
328.15	1	0.001115	0.000147

System: iminodibenzyl + dimethyl sulfoxide + water; phases: Liquid, Crystal
Fixed: Pressure, kPa = 101.2
Property: Mole fraction of iminodibenzyl (Liquid); method: Chromatography
Temperature, K	Solvent: Mass fraction of dimethyl sulfoxide	Mole fraction of iminodibenzyl	uncertainty
293.15	0	1.834e-06	2.42e-07
298.15	0	2.73e-06	3.6e-07
303.15	0	3.774e-06	4.98e-07
308.15	0	5.41e-06	7.14e-07
313.15	0	7.418e-06	9.79e-07
318.15	0	1.019e-05	1.35e-06
323.15	0	1.391e-05	1.84e-06
328.15	0	1.87e-05	2.47e-06
293.15	0.1002	0.0002374	3.19e-05
298.15	0.1002	0.0003238	4.28e-05
303.15	0.1002	0.0004137	5.46e-05
308.15	0.1002	0.0005469	7.22e-05
313.15	0.1002	0.0006948	9.17e-05
318.15	0.1002	0.0008849	0.0001168
323.15	0.1002	0.001122	0.000148
328.15	0.1002	0.001406	0.000188
293.15	0.2001	0.002862	0.000378
298.15	0.2001	0.003722	0.000491
303.15	0.2001	0.004569	0.000603
308.15	0.2001	0.005781	0.000763
313.15	0.2001	0.007055	0.000931
318.15	0.2001	0.008627	0.001139
323.15	0.2001	0.01052	0.00139
328.15	0.2001	0.01269	0.00168
293.15	0.2998	0.007959	0.001051
298.15	0.2998	0.01012	0.00134
303.15	0.2998	0.01222	0.00161
308.15	0.2998	0.01514	0.002
313.15	0.2998	0.01815	0.0024
318.15	0.2998	0.02177	0.00287
323.15	0.2998	0.02605	0.00344
328.15	0.2998	0.0309	0.00408
293.15	0.39	0.008403	0.001109
298.15	0.39	0.01056	0.00139
303.15	0.39	0.0128	0.00169
308.15	0.39	0.01574	0.00208
313.15	0.39	0.01878	0.00248
318.15	0.39	0.02254	0.00298
323.15	0.39	0.02671	0.00353
328.15	0.39	0.03171	0.00419
293.15	0.501	0.008558	0.00113
298.15	0.501	0.01093	0.00144
303.15	0.501	0.01317	0.00174
308.15	0.501	0.01618	0.00214
313.15	0.501	0.01927	0.00254
318.15	0.501	0.02318	0.00306
323.15	0.501	0.02735	0.00361
328.15	0.501	0.03221	0.00425
293.15	0.5994	0.00896	0.001183
298.15	0.5994	0.01143	0.00151
303.15	0.5994	0.01371	0.00181
308.15	0.5994	0.01662	0.00219
313.15	0.5994	0.01972	0.0026
318.15	0.5994	0.02358	0.00311
323.15	0.5994	0.02786	0.00368
328.15	0.5994	0.03263	0.00431
293.15	0.6985	0.009836	0.001299
298.15	0.6985	0.01207	0.00159
303.15	0.6985	0.01447	0.00191
308.15	0.6985	0.0175	0.00231
313.15	0.6985	0.02079	0.00274
318.15	0.6985	0.02454	0.00324
323.15	0.6985	0.02887	0.00381
328.15	0.6985	0.03368	0.00445
293.15	0.7986	0.01398	0.00185
298.15	0.7986	0.01715	0.00226
303.15	0.7986	0.02064	0.00273
308.15	0.7986	0.02491	0.00329
313.15	0.7986	0.02918	0.00385
318.15	0.7986	0.03409	0.0045
323.15	0.7986	0.03914	0.00517
328.15	0.7986	0.0452	0.00597
293.15	0.8958	0.01872	0.00247
298.15	0.8958	0.02261	0.00299
303.15	0.8958	0.02752	0.00363
308.15	0.8958	0.0325	0.00429
313.15	0.8958	0.03796	0.00501
318.15	0.8958	0.04405	0.00582
323.15	0.8958	0.05029	0.00664
328.15	0.8958	0.05777	0.00763
293.15	1	0.01988	0.00262
298.15	1	0.02389	0.00315
303.15	1	0.02846	0.00376
308.15	1	0.03364	0.00444
313.15	1	0.0391	0.00516
318.15	1	0.04498	0.00594
323.15	1	0.05158	0.00681
328.15	1	0.05915	0.00781

System: iminodibenzyl + propan-2-ol + water; phases: Liquid, Crystal
Fixed: Pressure, kPa = 101.2
Property: Mole fraction of iminodibenzyl (Liquid); method: Chromatography
Temperature, K	Solvent: Mass fraction of propan-2-ol	Mole fraction of iminodibenzyl	uncertainty
283.15	0	8.4e-07	1.11e-07
288.15	0	1.266e-06	1.67e-07
293.15	0	1.834e-06	2.42e-07
298.15	0	2.73e-06	3.6e-07
303.15	0	3.774e-06	4.98e-07
308.15	0	5.41e-06	7.14e-07
313.15	0	7.418e-06	9.79e-07
318.15	0	1.019e-05	1.35e-06
323.15	0	1.391e-05	1.84e-06
328.15	0	1.87e-05	2.47e-06
283.15	0.0986	1.747e-05	2.31e-06
288.15	0.0986	2.489e-05	3.29e-06
293.15	0.0986	3.436e-05	4.54e-06
298.15	0.0986	4.841e-05	6.39e-06
303.15	0.0986	5.997e-05	7.92e-06
308.15	0.0986	8.344e-05	1.102e-05
313.15	0.0986	0.0001106	1.46e-05
318.15	0.0986	0.0001467	1.94e-05
323.15	0.0986	0.0001931	2.55e-05
328.15	0.0986	0.0002505	3.31e-05
283.15	0.1999	7.831e-05	1.034e-05
288.15	0.1999	0.0001084	1.43e-05
293.15	0.1999	0.0001462	1.93e-05
298.15	0.1999	0.0001999	2.64e-05
303.15	0.1999	0.0002586	3.41e-05
308.15	0.1999	0.0003441	4.54e-05
313.15	0.1999	0.0004423	5.84e-05
318.15	0.1999	0.0005684	7.5e-05
323.15	0.1999	0.0007278	9.61e-05
328.15	0.1999	0.0009206	0.0001215
283.15	0.2989	0.0001408	1.86e-05
288.15	0.2989	0.0001921	2.54e-05
293.15	0.2989	0.0002575	3.4e-05
298.15	0.2989	0.0003464	4.57e-05
303.15	0.2989	0.0004452	5.88e-05
308.15	0.2989	0.0005856	7.73e-05
313.15	0.2989	0.0007469	9.86e-05
318.15	0.2989	0.0009508	0.0001255
323.15	0.2989	0.001207	0.000159
328.15	0.2989	0.001514	0.0002
283.15	0.4002	0.000153	2.02e-05
288.15	0.4002	0.0001998	2.64e-05
293.15	0.4002	0.0002729	3.6e-05
298.15	0.4002	0.0003678	4.86e-05
303.15	0.4002	0.0004935	6.52e-05
308.15	0.4002	0.0006491	8.57e-05
313.15	0.4002	0.0008063	0.0001065
318.15	0.4002	0.001006	0.000133
323.15	0.4002	0.001266	0.000167
328.15	0.4002	0.001583	0.000209
283.15	0.4989	0.0001786	2.36e-05
288.15	0.4989	0.0002301	3.04e-05
293.15	0.4989	0.0003038	4.01e-05
298.15	0.4989	0.0003998	5.28e-05
303.15	0.4989	0.000525	6.93e-05
308.15	0.4989	0.0006901	9.11e-05
313.15	0.4989	0.0008574	0.0001132
318.15	0.4989	0.001088	0.000144
323.15	0.4989	0.001355	0.000179
328.15	0.4989	0.001689	0.000223
283.15	0.5998	0.0001809	2.39e-05
288.15	0.5998	0.0002433	3.21e-05
293.15	0.5998	0.0003272	4.32e-05
298.15	0.5998	0.0004307	5.69e-05
303.15	0.5998	0.0005554	7.33e-05
308.15	0.5998	0.0007216	9.53e-05
313.15	0.5998	0.0009197	0.0001214
318.15	0.5998	0.001163	0.000154
323.15	0.5998	0.001467	0.000194
328.15	0.5998	0.001833	0.000242
283.15	0.6988	0.0002394	3.16e-05
288.15	0.6988	0.0003193	4.22e-05
293.15	0.6988	0.0004286	5.66e-05
298.15	0.6988	0.0005582	7.37e-05
303.15	0.6988	0.0007185	9.49e-05
308.15	0.6988	0.0009268	0.0001224
313.15	0.6988	0.001178	0.000156
318.15	0.6988	0.001481	0.000196
323.15	0.6988	0.00186	0.000246
328.15	0.6988	0.002315	0.000306
283.15	0.8006	0.0003523	4.65e-05
288.15	0.8006	0.0004653	6.14e-05
293.15	0.8006	0.0006221	8.21e-05
298.15	0.8006	0.0008005	0.0001057
303.15	0.8006	0.001027	0.000136
308.15	0.8006	0.001313	0.000173
313.15	0.8006	0.001629	0.000215
318.15	0.8006	0.002027	0.000268
323.15	0.8006	0.00251	0.000331
328.15	0.8006	0.003127	0.000413
283.15	0.9011	0.0004321	5.71e-05
288.15	0.9011	0.0005483	7.24e-05
293.15	0.9011	0.0007428	9.81e-05
298.15	0.9011	0.0009378	0.0001238
303.15	0.9011	0.001204	0.000159
308.15	0.9011	0.001539	0.000203
313.15	0.9011	0.001958	0.000259
318.15	0.9011	0.002456	0.000324
323.15	0.9011	0.00308	0.000407
328.15	0.9011	0.003817	0.000504
283.15	1	0.000448	5.92e-05
288.15	1	0.0005852	7.73e-05
293.15	1	0.0007833	0.0001034
298.15	1	0.0009921	0.000131
303.15	1	0.001274	0.000168
308.15	1	0.001614	0.000213
313.15	1	0.002037	0.000269
318.15	1	0.002531	0.000334
323.15	1	0.003143	0.000415
328.15	1	0.003878	0.000512

System: iminodibenzyl + water; phases: Liquid, Crystal
Fixed: Pressure, kPa = 101.2
Property: Mole fraction of iminodibenzyl (Liquid); method: Chromatography
Temperature, K	Mole fraction of iminodibenzyl	uncertainty
283.15	8.4e-07	1.11e-07
288.15	1.266e-06	1.67e-07
293.15	1.834e-06	2.42e-07
298.15	2.73e-06	3.6e-07
303.15	3.774e-06	4.98e-07
308.15	5.41e-06	7.14e-07
313.15	7.418e-06	9.79e-07
318.15	1.019e-05	1.35e-06
323.15	1.391e-05	1.84e-06
328.15	1.87e-05	2.47e-06

System: iminodibenzyl + ethanol; phases: Liquid, Crystal
Fixed: Pressure, kPa = 101.2
Property: Mole fraction of iminodibenzyl (Liquid); method: Chromatography
Temperature, K	Mole fraction of iminodibenzyl	uncertainty
283.15	0.000769	0.0001015
288.15	0.001025	0.000135
293.15	0.001362	0.00018
298.15	0.001748	0.000231
303.15	0.002271	0.0003
308.15	0.00284	0.000375
313.15	0.003598	0.000475
318.15	0.004526	0.000598
323.15	0.005584	0.000737
328.15	0.006914	0.000913

System: iminodibenzyl + 1,2-ethanediol; phases: Liquid, Crystal
Fixed: Pressure, kPa = 101.2
Property: Mole fraction of iminodibenzyl (Liquid); method: Chromatography
Temperature, K	Mole fraction of iminodibenzyl	uncertainty
283.15	0.0003512	4.64e-05
288.15	0.0004268	5.63e-05
293.15	0.0004943	6.53e-05
298.15	0.0005661	7.47e-05
303.15	0.0006421	8.48e-05
308.15	0.0007215	9.53e-05
313.15	0.0008124	0.0001073
318.15	0.0009047	0.0001194
323.15	0.00101	0.000133
328.15	0.001115	0.000147

System: iminodibenzyl + dimethyl sulfoxide; phases: Liquid, Crystal
Fixed: Pressure, kPa = 101.2
Property: Mole fraction of iminodibenzyl (Liquid); method: Chromatography
Temperature, K	Mole fraction of iminodibenzyl	uncertainty
293.15	0.01988	0.00262
298.15	0.02389	0.00315
303.15	0.02846	0.00376
308.15	0.03364	0.00444
313.15	0.0391	0.00516
318.15	0.04498	0.00594
323.15	0.05158	0.00681
328.15	0.05915	0.00781

System: iminodibenzyl + propan-2-ol; phases: Liquid, Crystal
Fixed: Pressure, kPa = 101.2
Property: Mole fraction of iminodibenzyl (Liquid); method: Chromatography
Temperature, K	Mole fraction of iminodibenzyl	uncertainty
283.15	0.000448	5.92e-05
288.15	0.0005852	7.73e-05
293.15	0.0007833	0.0001034
298.15	0.0009921	0.000131
303.15	0.001274	0.000168
308.15	0.001614	0.000213
313.15	0.002037	0.000269
318.15	0.002531	0.000334
323.15	0.003143	0.000415
328.15	0.003878	0.000512
