Measured thermophysical data. Experimental determination and correlation of lamotrigine solubility in aqueous mixtures of 1-octyl-3-methylimidazolium bromide ionic liquid at various temperatures
Source: J. Chem. Thermodyn., 2019, 10.1016/j.jct.2019.03.024
Compound 1: lamotrigine, C9H7Cl2N5, InChI=1S/C9H7Cl2N5/c10-5-3-1-2-4(6(5)11)7-8(12)14-9(13)16-15-7/h1-3H,(H4,12,13,14,16), purity 99%
Compound 2: 1-methyl-3-octylimidazolium bromide, C12H23BrN2, InChI=1S/C12H23N2.BrH/c1-3-4-5-6-7-8-9-14-11-10-13(2)12-14;/h10-12H,3-9H2,1-2H3;1H/q+1;/p-1
Compound 3: water, H2O, InChI=1S/H2O/h1H2

System: 1-methyl-3-octylimidazolium bromide; phases: Liquid
Property: Mass density, kg/m3 (Liquid); method: Vibrating tube method
Pressure, kPa	Temperature, K	Mass density, kg/m3	uncertainty
86.5	298.15	1172.98	2.28

System: 1-methyl-3-octylimidazolium bromide; phases: Liquid
Property: Speed of sound, m/s (Liquid); method: Single path-length method
Pressure, kPa	Temperature, K	Frequency, MHz	Speed of sound, m/s	uncertainty
86.5	298.15	3	1561.75	2.24

System: 1-methyl-3-octylimidazolium bromide; phases: Liquid
Property: Refractive index (Na D-line) (Liquid); method: Standard Abbe refractometry
Pressure, kPa	Temperature, K	Refractive index (Na D-line)	uncertainty
86.5	298.15	1.5217	0.02

System: water + 1-methyl-3-octylimidazolium bromide + lamotrigine; phases: Liquid, Crystal
Fixed: Pressure, kPa = 86.5
Property: Mole fraction of lamotrigine (Liquid); method: UV spectroscopy
Temperature, K	Solvent: Mass fraction of 1-methyl-3-octylimidazolium bromide	Mole fraction of lamotrigine	uncertainty
293.2	0.1	8.7e-05	8.7e-05
298.2	0.1	0.00011	0.00011
303.2	0.1	0.00015	0.00015
308.2	0.1	0.00017	0.00017
313.2	0.1	0.0002	0.0002
293.2	0.2	0.00017	0.00017
298.2	0.2	0.00022	0.00022
303.2	0.2	0.00037	0.00037
308.2	0.2	0.00044	0.00044
313.2	0.2	0.00059	0.00059
293.2	0.3	0.00032	0.00032
298.2	0.3	0.00044	0.00044
303.2	0.3	0.00066	0.00066
308.2	0.3	0.00077	0.00077
313.2	0.3	0.001	0.001
293.2	0.4	0.00068	0.00068
298.2	0.4	0.00085	0.00085
303.2	0.4	0.001	0.001
308.2	0.4	0.0013	0.0013
313.2	0.4	0.0017	0.0017
293.2	0.5	0.0012	0.0012
298.2	0.5	0.0016	0.0016
303.2	0.5	0.0017	0.0017
308.2	0.5	0.002	0.002
313.2	0.5	0.0023	0.0023
293.2	0.6	0.0021	0.0021
298.2	0.6	0.0025	0.0025
303.2	0.6	0.003	0.003
308.2	0.6	0.0035	0.0035
313.2	0.6	0.004	0.004
293.2	0.7	0.0034	0.0034
298.2	0.7	0.0041	0.0041
303.2	0.7	0.0046	0.0046
308.2	0.7	0.0051	0.0051
313.2	0.7	0.0058	0.0058
293.2	0.8	0.0057	0.0057
298.2	0.8	0.0065	0.0065
303.2	0.8	0.0073	0.0073
308.2	0.8	0.008	0.008
313.2	0.8	0.009	0.009
293.2	0.9	0.0014	0.0014
298.2	0.9	0.0022	0.0022
303.2	0.9	0.0026	0.0026
308.2	0.9	0.0037	0.0037
313.2	0.9	0.0046	0.0046
