Measured thermophysical data. Volumetric behaviour of binary and ternary liquid systems composed of ethanol, isooctane, and toluene at temperatures from (298.15 to 328.15) K. Experimental data and correlation
Source: J. Chem. Thermodyn., 2011, 10.1016/j.jct.2011.06.021
Compound 1: ethanol, C2H6O, InChI=1S/C2H6O/c1-2-3/h3H,2H2,1H3, purity 99.8%
Compound 2: 2,2,4-trimethylpentane, C8H18, InChI=1S/C8H18/c1-7(2)6-8(3,4)5/h7H,6H2,1-5H3, purity 99.5%
Compound 3: toluene, C7H8, InChI=1S/C7H8/c1-7-5-3-2-4-6-7/h2-6H,1H3, purity 99.5%

System: ethanol + 2,2,4-trimethylpentane; phases: Liquid
Fixed: Pressure, kPa = 101
Property: Speed of sound, m/s (Liquid); method: Sing-around technique in a fixed-path interferometer
Temperature, K	Mole fraction of ethanol	Speed of sound, m/s	uncertainty
298.15	0	1082.7	1.1
298.15	0.05994	1078.3	1.1
298.15	0.09355	1077.4	1.1
298.15	0.16772	1076.3	1.1
298.15	0.21229	1075.8	1.1
298.15	0.26404	1075.8	1.1
298.15	0.34257	1076.5	1.1
298.15	0.41089	1077.5	1.1
298.15	0.45525	1078.6	1.1
298.15	0.50626	1080.1	1.1
298.15	0.58234	1083.1	1.1
298.15	0.62402	1085.2	1.1
298.15	0.68769	1089.3	1.1
298.15	0.73883	1093.5	1.1
298.15	0.80237	1100.2	1.1
298.15	0.86695	1109.9	1.1
298.15	0.93602	1123.9	1.2
298.15	1	1143.2	1.2
308.15	0	1041.1	1.1
308.15	0.05994	1036.5	1.1
308.15	0.09355	1035.5	1.1
308.15	0.16772	1034.3	1.1
308.15	0.21229	1033.9	1.1
308.15	0.26404	1034	1.1
308.15	0.34257	1034.8	1.1
308.15	0.41089	1036.2	1.1
308.15	0.45525	1037.5	1.1
308.15	0.50626	1039.3	1.1
308.15	0.58234	1042.9	1.1
308.15	0.62402	1045.4	1.1
308.15	0.68769	1050.1	1.1
308.15	0.73883	1054.9	1.1
308.15	0.80237	1062.6	1.1
308.15	0.86695	1073.3	1.1
308.15	0.93602	1088.7	1.1
308.15	1	1109.5	1.1
318.15	0	1000	1.1
318.15	0.05994	995.1	1.1
318.15	0.09355	994	1.1
318.15	0.16772	992.7	1.1
318.15	0.21229	992.4	1.1
318.15	0.26404	992.5	1.1
318.15	0.34257	993.6	1.1
318.15	0.41089	995.2	1.1
318.15	0.45525	996.7	1.1
318.15	0.50626	998.8	1.1
318.15	0.58234	1002.9	1.1
318.15	0.62402	1005.8	1.1
318.15	0.68769	1011.2	1.1
318.15	0.73883	1016.5	1.1
318.15	0.80237	1025.2	1.1
318.15	0.86695	1037	1.1
318.15	0.93602	1053.8	1.1
318.15	1	1076	1.1
328.15	0	959.4	1.1
328.15	0.05994	954.2	1.1
328.15	0.09355	952.9	1.1
328.15	0.16772	951.5	1.1
328.15	0.21229	951.2	1.1
328.15	0.26404	951.4	1.1
328.15	0.34257	952.5	1.1
328.15	0.41089	954	1.1
328.15	0.45525	956	1.1
328.15	0.50626	958.4	1.1
328.15	0.58234	963	1.1
328.15	0.62402	966.2	1.1
328.15	0.68769	972.4	1.1
328.15	0.73883	978.3	1.1
328.15	0.80237	987.9	1.1
328.15	0.86695	1000.7	1.1
328.15	0.93602	1018.9	1.1
328.15	1	1042.7	1.1

System: ethanol + 2,2,4-trimethylpentane; phases: Liquid
Fixed: Pressure, kPa = 101
Property: Mass density, kg/m3 (Liquid); method: Vibrating tube method
Temperature, K	Mole fraction of ethanol	Mass density, kg/m3	uncertainty
298.15	0	687.68	0.16
298.15	0.05994	689.06	0.16
298.15	0.09355	690.1	0.16
298.15	0.16772	692.68	0.16
298.15	0.21229	694.49	0.15
298.15	0.26404	696.79	0.15
298.15	0.34257	700.71	0.15
298.15	0.41089	704.63	0.15
298.15	0.45525	707.46	0.15
298.15	0.50626	711.05	0.15
298.15	0.58234	717.18	0.15
298.15	0.62402	720.98	0.15
298.15	0.68769	727.57	0.14
298.15	0.73883	733.65	0.14
298.15	0.80237	742.52	0.14
298.15	0.86695	753.52	0.14
298.15	0.93602	767.9	0.13
298.15	1	785.07	0.12
308.15	0	679.45	0.16
308.15	0.05994	680.66	0.16
308.15	0.09355	681.65	0.16
308.15	0.16772	684.16	0.16
308.15	0.21229	685.94	0.16
308.15	0.26404	688.2	0.16
308.15	0.34257	692.08	0.16
308.15	0.41089	695.98	0.15
308.15	0.45525	698.8	0.15
308.15	0.50626	702.37	0.15
308.15	0.58234	708.49	0.15
308.15	0.62402	712.29	0.15
308.15	0.68769	718.88	0.15
308.15	0.73883	724.97	0.14
308.15	0.80237	733.85	0.14
308.15	0.86695	744.87	0.14
308.15	0.93602	759.28	0.13
308.15	1	776.46	0.12
318.15	0	671.31	0.16
318.15	0.05994	672.3	0.16
318.15	0.09355	673.24	0.16
318.15	0.16772	675.66	0.16
318.15	0.21229	677.39	0.16
318.15	0.26404	679.61	0.16
318.15	0.34257	683.43	0.16
318.15	0.41089	687.3	0.16
318.15	0.45525	690.1	0.16
318.15	0.50626	693.66	0.16
318.15	0.58234	699.76	0.15
318.15	0.62402	703.56	0.15
318.15	0.68769	710.16	0.15
318.15	0.73883	716.25	0.15
318.15	0.80237	725.15	0.14
318.15	0.86695	736.19	0.14
318.15	0.93602	750.63	0.14
318.15	1	767.83	0.13
328.15	0	663.2	0.17
328.15	0.05994	663.93	0.17
328.15	0.09355	664.79	0.17
328.15	0.16772	667.1	0.17
328.15	0.21229	668.78	0.16
328.15	0.26404	670.94	0.16
328.15	0.34257	674.71	0.16
328.15	0.41089	678.52	0.16
328.15	0.45525	681.27	0.16
328.15	0.50626	684.83	0.16
328.15	0.58234	690.91	0.16
328.15	0.62402	694.71	0.16
328.15	0.68769	701.3	0.15
328.15	0.73883	707.4	0.15
328.15	0.80237	716.32	0.15
328.15	0.86695	727.39	0.14
328.15	0.93602	741.86	0.14
328.15	1	759.11	0.13

System: ethanol + toluene; phases: Liquid
Fixed: Pressure, kPa = 101
Property: Speed of sound, m/s (Liquid); method: Sing-around technique in a fixed-path interferometer
Temperature, K	Mole fraction of ethanol	Speed of sound, m/s	uncertainty
298.15	0	1305.31	1.18
298.15	0.05676	1293.6	1.2
298.15	0.0772	1289.7	1.2
298.15	0.12507	1281.4	1.2
298.15	0.19257	1272.2	1.2
298.15	0.26193	1263.5	1.2
298.15	0.34543	1253.7	1.2
298.15	0.40241	1246.9	1.2
298.15	0.49683	1235.2	1.2
298.15	0.54397	1229.2	1.2
298.15	0.6062	1220.7	1.2
298.15	0.6675	1211.7	1.2
298.15	0.71754	1203.9	1.2
298.15	0.75799	1197.1	1.2
298.15	0.80071	1189.4	1.2
298.15	0.86606	1176.3	1.2
298.15	0.93971	1159.3	1.2
298.15	1	1143.2	1.2
308.15	0	1262.5	1.2
308.15	0.05676	1252.1	1.2
308.15	0.0772	1248.3	1.2
308.15	0.12507	1240	1.2
308.15	0.19257	1230.9	1.2
308.15	0.26193	1222.3	1.2
308.15	0.34543	1212.9	1.2
308.15	0.40241	1206.4	1.2
308.15	0.49683	1196.3	1.2
308.15	0.54397	1189.6	1.2
308.15	0.6062	1181.6	1.2
308.15	0.6675	1173.2	1.2
308.15	0.71754	1165.9	1.2
308.15	0.75799	1159.5	1.2
308.15	0.80071	1152.4	1.2
308.15	0.86606	1140.2	1.2
308.15	0.93971	1124.4	1.2
308.15	1	1109.5	1.1
318.15	0	1220.3	1.2
318.15	0.05676	1211.1	1.2
318.15	0.0772	1207.5	1.2
318.15	0.12507	1199.2	1.2
318.15	0.19257	1190.1	1.2
318.15	0.34543	1172.6	1.2
318.15	0.40241	1166.3	1.2
318.15	0.49683	1155.7	1.2
318.15	0.54397	1151.7	1.2
318.15	0.6062	1142.8	1.2
318.15	0.6675	1135	1.2
318.15	0.71754	1128.2	1.2
318.15	0.75799	1122.3	1.1
318.15	0.80071	1115.7	1.1
318.15	0.86606	1104.4	1.1
318.15	0.93971	1089.8	1.1
318.15	1	1076	1.1
328.15	0	1178.6	1.2
328.15	0.05676	1170.2	1.2
328.15	0.0772	1166.9	1.2
328.15	0.12507	1158.9	1.2
328.15	0.19257	1149.9	1.2
328.15	0.26193	1141.5	1.2
328.15	0.34543	1132.7	1.2
328.15	0.40241	1126.6	1.2
328.15	0.49683	1116.6	1.1
328.15	0.54397	1111.5	1.1
328.15	0.6062	1104.2	1.1
328.15	0.6675	1097	1.1
328.15	0.71754	1090.6	1.1
328.15	0.75799	1085.1	1.1
328.15	0.80071	1079.1	1.1
328.15	0.86606	1068.7	1.1
328.15	0.93971	1055.3	1.1
328.15	1	1042.7	1.1

System: ethanol + toluene; phases: Liquid
Fixed: Pressure, kPa = 101
Property: Mass density, kg/m3 (Liquid); method: Vibrating tube method
Temperature, K	Mole fraction of ethanol	Mass density, kg/m3	uncertainty
298.15	0	862.19	0.1
298.15	0.05676	859.39	0.1
298.15	0.0772	858.41	0.1
298.15	0.12507	856.11	0.1
298.15	0.19257	852.85	0.1
298.15	0.26193	849.37	0.1
298.15	0.34543	844.93	0.1
298.15	0.40241	841.67	0.1
298.15	0.49683	835.76	0.1
298.15	0.54397	832.52	0.1
298.15	0.6062	827.91	0.11
298.15	0.6675	822.93	0.11
298.15	0.71754	818.55	0.11
298.15	0.75799	814.72	0.11
298.15	0.80071	810.39	0.11
298.15	0.86606	803.13	0.12
298.15	0.93971	793.79	0.12
298.15	1	785.07	0.12
308.15	0	852.88	0.1
308.15	0.05676	849.97	0.1
308.15	0.0772	848.95	0.1
308.15	0.12507	846.61	0.1
308.15	0.19257	843.31	0.1
308.15	0.26193	839.82	0.1
308.15	0.34543	835.39	0.1
308.15	0.40241	832.15	0.1
308.15	0.49683	826.27	0.11
308.15	0.54397	823.08	0.11
308.15	0.6062	818.53	0.11
308.15	0.6675	813.61	0.11
308.15	0.71754	809.3	0.11
308.15	0.75799	805.54	0.11
308.15	0.80071	801.29	0.12
308.15	0.86606	794.16	0.12
308.15	0.93971	785	0.12
308.15	1	776.46	0.12
318.15	0	843.603	0.1
318.15	0.05676	840.55	0.1
318.15	0.0772	839.49	0.1
318.15	0.12507	837.08	0.1
318.15	0.19257	833.74	0.1
318.15	0.26193	830.23	0.11
318.15	0.34543	825.8	0.11
318.15	0.40241	822.57	0.11
318.15	0.49683	816.74	0.11
318.15	0.54397	813.57	0.11
318.15	0.6062	809.09	0.11
318.15	0.6675	804.23	0.12
318.15	0.71754	799.99	0.12
318.15	0.75799	796.29	0.12
318.15	0.80071	792.12	0.12
318.15	0.86606	785.14	0.12
318.15	0.93971	776.18	0.13
318.15	1	767.83	0.13
328.15	0	834.31	0.1
328.15	0.05676	831.1	0.1
328.15	0.0772	830.01	0.11
328.15	0.12507	827.51	0.11
328.15	0.19257	824.1	0.11
328.15	0.26193	820.55	0.11
328.15	0.34543	816.1	0.11
328.15	0.40241	812.87	0.11
328.15	0.49683	807.06	0.11
328.15	0.54397	803.92	0.12
328.15	0.6062	799.51	0.12
328.15	0.6675	794.72	0.12
328.15	0.71754	790.53	0.12
328.15	0.75799	786.89	0.12
328.15	0.80071	782.82	0.12
328.15	0.86606	775.99	0.13
328.15	0.93971	767.26	0.13
328.15	1	759.11	0.13

System: ethanol + toluene + 2,2,4-trimethylpentane; phases: Liquid
Fixed: Pressure, kPa = 101
Property: Speed of sound, m/s (Liquid); method: Sing-around technique in a fixed-path interferometer
Temperature, K	Mole fraction of ethanol	Mole fraction of 2,2,4-trimethylpentane	Speed of sound, m/s	uncertainty
298.15	0	0.21081	1234.2	1.2
298.15	0	0.40079	1184.7	1.2
298.15	0	0.60444	1142.6	1.2
298.15	0	0.79651	1110.5	1.1
298.15	0.04568	0.57683	1136.8	1.2
298.15	0.05554	0.75228	1105.3	1.1
298.15	0.10088	0.36036	1173.6	1.2
298.15	0.10186	0.54288	1133.8	1.2
298.15	0.10515	0.18865	1219.3	1.2
298.15	0.10667	0.71155	1103.4	1.1
298.15	0.19658	0.16937	1211.3	1.2
298.15	0.20262	0.63512	1101.2	1.1
298.15	0.20466	0.48074	1130.2	1.2
298.15	0.22228	0.3117	1166.8	1.2
298.15	0.29562	0.14849	1204.1	1.2
298.15	0.29825	0.55895	1100.6	1.2
298.15	0.29972	0.42328	1128.2	1.2
298.15	0.30273	0.27946	1163.5	1.2
298.15	0.39528	0.24236	1160.3	1.2
298.15	0.39538	0.12746	1197.4	1.2
298.15	0.40296	0.47555	1100.8	1.2
298.15	0.40369	0.36044	1127	1.2
298.15	0.49772	0.20131	1157.1	1.2
298.15	0.4982	0.30331	1126.6	1.2
298.15	0.50087	0.10522	1190.5	1.2
298.15	0.50576	0.39367	1102.3	1.2
298.15	0.59236	0.16338	1154.4	1.2
298.15	0.5968	0.085	1183.8	1.2
298.15	0.60007	0.24174	1127	1.2
298.15	0.60442	0.31509	1104.7	1.2
298.15	0.66461	0.13442	1152.5	1.2
298.15	0.69564	0.24243	1108.4	1.2
298.15	0.70144	0.18046	1128.3	1.2
298.15	0.70452	0.06229	1175.6	1.2
298.15	0.73518	0.10614	1150.5	1.2
298.15	0.79281	0.04368	1167.9	1.2
298.15	0.79541	0.16296	1114.7	1.2
298.15	0.79637	0.08161	1148.8	1.2
298.15	0.8022	0.11956	1130.7	1.2
298.15	0.86868	0.05263	1146.8	1.2
298.15	0.89264	0.08551	1124.5	1.2
298.15	0.89472	0.02219	1157.1	1.2
298.15	0.91091	0.05385	1135.8	1.2
298.15	0.93376	0.02655	1145	1.2
298.15	0.93638	0.01341	1152.1	1.2
298.15	0.94808	0.04136	1132.8	1.2
298.15	0.96764	0.00682	1147.9	1.2
298.15	0.96895	0.01877	1139.8	1.2
308.15	0	0.21081	1192	1.2
308.15	0	0.40079	1143	1.2
308.15	0	0.60444	1100.9	1.1
308.15	0	0.79651	1069	1.1
308.15	0.04568	0.57683	1095.3	1.1
308.15	0.05554	0.75228	1063.7	1.1
308.15	0.10088	0.36036	1132	1.2
308.15	0.10186	0.54288	1092.2	1.1
308.15	0.10515	0.18865	1177.9	1.2
308.15	0.10667	0.71155	1061.6	1.1
308.15	0.19658	0.16937	1169.9	1.2
308.15	0.20262	0.63512	1059.5	1.1
308.15	0.20466	0.48074	1088.6	1.1
308.15	0.22228	0.3117	1125.3	1.2
308.15	0.29562	0.14849	1162.9	1.2
308.15	0.29825	0.55895	1059	1.1
308.15	0.29972	0.42328	1086.8	1.1
308.15	0.30273	0.27946	1122.2	1.2
308.15	0.39528	0.24236	1119.5	1.2
308.15	0.39538	0.12746	1156.7	1.2
308.15	0.40296	0.47555	1059.7	1.1
308.15	0.40369	0.36044	1086	1.1
308.15	0.49772	0.20131	1116.8	1.2
308.15	0.4982	0.30331	1086.2	1.1
308.15	0.50087	0.10522	1150.4	1.2
308.15	0.50576	0.39367	1061.7	1.1
308.15	0.59236	0.16338	1114.8	1.2
308.15	0.5968	0.085	1144.4	1.2
308.15	0.60007	0.24174	1087.2	1.1
308.15	0.60442	0.31509	1064.9	1.1
308.15	0.66461	0.13442	1113.5	1.2
308.15	0.69564	0.24243	1069.4	1.1
308.15	0.70144	0.18046	1089.5	1.1
308.15	0.70452	0.06229	1137.2	1.2
308.15	0.73518	0.10614	1112.4	1.1
308.15	0.79281	0.04368	1130.6	1.2
308.15	0.79541	0.16296	1077.1	1.1
308.15	0.79637	0.08161	1111.5	1.1
308.15	0.8022	0.11956	1093.3	1.1
308.15	0.86868	0.05263	1110.7	1.1
308.15	0.89264	0.08551	1088.5	1.1
308.15	0.89472	0.02219	1121.5	1.1
308.15	0.91091	0.05385	1100.2	1.1
308.15	0.93376	0.02655	1110	1.1
308.15	0.93638	0.01341	1117.1	1.1
308.15	0.94808	0.04136	1097.9	1.1
308.15	0.96764	0.00682	1113.6	1.1
308.15	0.96895	0.01877	1105.4	1.1
318.15	0	0.21081	1150.3	1.2
318.15	0	0.40079	1101.5	1.1
318.15	0	0.60444	1059.7	1.1
318.15	0	0.79651	1027.8	1.1
318.15	0.04568	0.57683	1054.4	1.1
318.15	0.05554	0.75228	1022.6	1.1
318.15	0.10088	0.36036	1091.2	1.1
318.15	0.10186	0.54288	1051.2	1.1
318.15	0.10515	0.18865	1137.2	1.2
318.15	0.10667	0.71155	1020.3	1.1
318.15	0.19658	0.16937	1129.1	1.2
318.15	0.20262	0.63512	1018.2	1.1
318.15	0.20466	0.48074	1047.5	1.1
318.15	0.22228	0.3117	1084.4	1.1
318.15	0.29562	0.14849	1122.3	1.2
318.15	0.29825	0.55895	1017.8	1.1
318.15	0.29972	0.42328	1045.9	1.1
318.15	0.30273	0.27946	1081.4	1.1
318.15	0.39528	0.24236	1079	1.1
318.15	0.39538	0.12746	1116.4	1.1
318.15	0.40296	0.47555	1018.9	1.1
318.15	0.40369	0.36044	1045.4	1.1
318.15	0.49772	0.20131	1076.9	1.1
318.15	0.4982	0.30331	1046	1.1
318.15	0.50087	0.10522	1110.7	1.1
318.15	0.50576	0.39367	1021.5	1.1
318.15	0.59236	0.16338	1075.6	1.1
318.15	0.5968	0.085	1105.4	1.1
318.15	0.60007	0.24174	1047.8	1.1
318.15	0.60442	0.31509	1025.3	1.1
318.15	0.66461	0.13442	1074.9	1.1
318.15	0.69564	0.24243	1030.8	1.1
318.15	0.70144	0.18046	1051.1	1.1
318.15	0.70452	0.06229	1099.2	1.1
318.15	0.73518	0.10614	1074.5	1.1
318.15	0.79281	0.04368	1093.7	1.1
318.15	0.79541	0.16296	1039.8	1.1
318.15	0.79637	0.08161	1074.4	1.1
318.15	0.8022	0.11956	1056.2	1.1
318.15	0.86868	0.05263	1074.6	1.1
318.15	0.89264	0.08551	1052.8	1.1
318.15	0.89472	0.02219	1086	1.1
318.15	0.91091	0.05385	1064.9	1.1
318.15	0.93376	0.02655	1075.2	1.1
318.15	0.93638	0.01341	1082.4	1.1
318.15	0.94808	0.04136	1063.3	1.1
318.15	0.96764	0.00682	1079.5	1.1
318.15	0.96895	0.01877	1071.3	1.1
328.15	0	0.21081	1109.1	1.1
328.15	0	0.40079	1060.7	1.1
328.15	0	0.60444	1019	1.1
328.15	0	0.79651	987.3	1.1
328.15	0.04568	0.57683	1014.3	1.1
328.15	0.05554	0.75228	982	1.1
328.15	0.10088	0.36036	1050.8	1.1
328.15	0.10186	0.54288	1010.5	1.1
328.15	0.10515	0.18865	1096.8	1.1
328.15	0.10667	0.71155	979.4	1.1
328.15	0.19658	0.16937	1088.8	1.1
328.15	0.20262	0.63512	977.2	1.1
328.15	0.20466	0.48074	1007.1	1.1
328.15	0.22228	0.3117	1044.2	1.1
328.15	0.29562	0.14849	1082.1	1.1
328.15	0.29825	0.55895	977	1.1
328.15	0.29972	0.42328	1005.2	1.1
328.15	0.30273	0.27946	1041.2	1.1
328.15	0.39528	0.24236	1038.9	1.1
328.15	0.39538	0.12746	1076.5	1.1
328.15	0.40296	0.47555	978.3	1.1
328.15	0.40369	0.36044	1005.1	1.1
328.15	0.49772	0.20131	1037.2	1.1
328.15	0.4982	0.30331	1006.1	1.1
328.15	0.50087	0.10522	1071.2	1.1
328.15	0.50576	0.39367	981.5	1.1
328.15	0.59236	0.16338	1036.5	1.1
328.15	0.5968	0.085	1066.6	1.1
328.15	0.60007	0.24174	1008.6	1.1
328.15	0.60442	0.31509	986.2	1.1
328.15	0.66461	0.13442	1036.5	1.1
328.15	0.69564	0.24243	992.2	1.1
328.15	0.70144	0.18046	1012.9	1.1
328.15	0.70452	0.06229	1061.4	1.1
328.15	0.73518	0.10614	1036.8	1.1
328.15	0.79281	0.04368	1056.8	1.1
328.15	0.79541	0.16296	1002.4	1.1
328.15	0.79637	0.08161	1037.5	1.1
328.15	0.8022	0.11956	1019.1	1.1
328.15	0.86868	0.05263	1038.7	1.1
328.15	0.89264	0.08551	1017.1	1.1
328.15	0.89472	0.02219	1050.6	1.1
328.15	0.91091	0.05385	1029.7	1.1
328.15	0.93376	0.02655	1040.5	1.1
328.15	0.93638	0.01341	1047.8	1.1
328.15	0.94808	0.04136	1028.8	1.1
328.15	0.96764	0.00682	1045.5	1.1
328.15	0.96895	0.01877	1037.3	1.1

System: ethanol + toluene + 2,2,4-trimethylpentane; phases: Liquid
Fixed: Pressure, kPa = 101
Property: Mass density, kg/m3 (Liquid); method: Vibrating tube method
Temperature, K	Mole fraction of ethanol	Mole fraction of 2,2,4-trimethylpentane	Mass density, kg/m3	uncertainty
298.15	0	0.21081	810.64	0.11
298.15	0	0.40079	772.76	0.13
298.15	0	0.60444	738.86	0.14
298.15	0	0.79651	711.95	0.15
298.15	0.04568	0.57683	739.23	0.14
298.15	0.05554	0.75228	712.84	0.15
298.15	0.10088	0.36036	772.57	0.13
298.15	0.10186	0.54288	739.99	0.14
298.15	0.10515	0.18865	808.65	0.11
298.15	0.10667	0.71155	714.1	0.15
298.15	0.19658	0.16937	807.18	0.11
298.15	0.20262	0.63512	716.88	0.15
298.15	0.20466	0.48074	742	0.14
298.15	0.22228	0.3117	773.09	0.13
298.15	0.29562	0.14849	805.56	0.12
298.15	0.29825	0.55895	720.37	0.15
298.15	0.29972	0.42328	744.28	0.14
298.15	0.30273	0.27946	773.62	0.13
298.15	0.39528	0.24236	774.43	0.13
298.15	0.39538	0.12746	803.84	0.12
298.15	0.40296	0.47555	724.95	0.15
298.15	0.40369	0.36044	747.34	0.14
298.15	0.49772	0.20131	775.49	0.13
298.15	0.4982	0.30331	750.67	0.14
298.15	0.50087	0.10522	801.84	0.12
298.15	0.50576	0.39367	730.38	0.14
298.15	0.59236	0.16338	776.71	0.13
298.15	0.5968	0.085	799.76	0.12
298.15	0.60007	0.24174	754.96	0.13
298.15	0.60442	0.31509	736.68	0.14
298.15	0.66461	0.13442	777.8	0.13
298.15	0.69564	0.24243	743.79	0.14
298.15	0.70144	0.18046	760.19	0.13
298.15	0.70452	0.06229	796.99	0.12
298.15	0.73518	0.10614	778.98	0.12
298.15	0.79281	0.04368	794.29	0.12
298.15	0.79541	0.16296	753.68	0.13
298.15	0.79637	0.08161	780.14	0.12
298.15	0.8022	0.11956	766.59	0.13
298.15	0.86868	0.05263	781.66	0.12
298.15	0.89264	0.08551	766.14	0.13
298.15	0.89472	0.02219	790.33	0.12
298.15	0.91091	0.05385	775.46	0.13
298.15	0.93376	0.02655	783.26	0.12
298.15	0.93638	0.01341	788.43	0.12
298.15	0.94808	0.04136	775.07	0.13
298.15	0.96764	0.00682	786.84	0.12
298.15	0.96895	0.01877	781.16	0.12
308.15	0	0.21081	801.66	0.12
308.15	0	0.40079	764.01	0.13
308.15	0	0.60444	730.32	0.14
308.15	0	0.79651	703.58	0.15
308.15	0.04568	0.57683	730.54	0.14
308.15	0.05554	0.75228	704.3	0.15
308.15	0.10088	0.36036	763.62	0.13
308.15	0.10186	0.54288	731.23	0.15
308.15	0.10515	0.18865	799.47	0.12
308.15	0.10667	0.71155	705.5	0.15
308.15	0.19658	0.16937	797.94	0.12
308.15	0.20262	0.63512	708.2	0.15
308.15	0.20466	0.48074	733.15	0.14
308.15	0.22228	0.3117	764.05	0.13
308.15	0.29562	0.14849	796.26	0.12
308.15	0.29825	0.55895	711.63	0.15
308.15	0.29972	0.42328	735.39	0.14
308.15	0.30273	0.27946	764.54	0.13
308.15	0.39528	0.24236	765.33	0.13
308.15	0.39538	0.12746	794.56	0.12
308.15	0.40296	0.47555	716.17	0.15
308.15	0.40369	0.36044	738.42	0.14
308.15	0.49772	0.20131	766.4	0.13
308.15	0.4982	0.30331	741.74	0.14
308.15	0.50087	0.10522	792.58	0.12
308.15	0.50576	0.39367	721.58	0.15
308.15	0.59236	0.16338	767.65	0.13
308.15	0.5968	0.085	790.56	0.12
308.15	0.60007	0.24174	746.04	0.14
308.15	0.60442	0.31509	727.88	0.14
308.15	0.66461	0.13442	768.78	0.13
308.15	0.69564	0.24243	735	0.14
308.15	0.70144	0.18046	751.3	0.14
308.15	0.70452	0.06229	787.88	0.12
308.15	0.73518	0.10614	770.01	0.13
308.15	0.79281	0.04368	785.29	0.12
308.15	0.79541	0.16296	744.94	0.14
308.15	0.79637	0.08161	771.23	0.13
308.15	0.8022	0.11956	757.77	0.13
308.15	0.86868	0.05263	772.84	0.13
308.15	0.89264	0.08551	757.46	0.13
308.15	0.89472	0.02219	781.5	0.12
308.15	0.91091	0.05385	766.75	0.13
308.15	0.93376	0.02655	774.55	0.13
308.15	0.93638	0.01341	779.67	0.12
308.15	0.94808	0.04136	766.42	0.13
308.15	0.96764	0.00682	778.15	0.13
308.15	0.96895	0.01877	772.51	0.13
318.15	0	0.21081	792.72	0.12
318.15	0	0.40079	755.31	0.14
318.15	0	0.60444	721.84	0.15
318.15	0	0.79651	695.27	0.15
318.15	0.04568	0.57683	721.88	0.15
318.15	0.05554	0.75228	695.8	0.16
318.15	0.10088	0.36036	754.67	0.14
318.15	0.10186	0.54288	722.49	0.15
318.15	0.10515	0.18865	790.29	0.12
318.15	0.10667	0.71155	696.91	0.16
318.15	0.19658	0.16937	788.67	0.12
318.15	0.20262	0.63512	699.5	0.15
318.15	0.20466	0.48074	724.3	0.15
318.15	0.22228	0.3117	754.99	0.13
318.15	0.29562	0.14849	786.95	0.12
318.15	0.29825	0.55895	702.87	0.15
318.15	0.29972	0.42328	726.47	0.15
318.15	0.30273	0.27946	755.43	0.13
318.15	0.39528	0.24236	756.19	0.13
318.15	0.39538	0.12746	785.22	0.12
318.15	0.40296	0.47555	707.35	0.15
318.15	0.40369	0.36044	729.45	0.14
318.15	0.49772	0.20131	757.26	0.13
318.15	0.4982	0.30331	732.75	0.14
318.15	0.50087	0.10522	783.27	0.12
318.15	0.50576	0.39367	712.73	0.15
318.15	0.59236	0.16338	758.53	0.13
318.15	0.5968	0.085	781.29	0.12
318.15	0.60007	0.24174	737.04	0.14
318.15	0.60442	0.31509	719.02	0.15
318.15	0.66461	0.13442	759.7	0.13
318.15	0.69564	0.24243	726.17	0.14
318.15	0.70144	0.18046	742.36	0.14
318.15	0.70452	0.06229	778.7	0.12
318.15	0.73518	0.10614	760.98	0.13
318.15	0.79281	0.04368	776.22	0.13
318.15	0.79541	0.16296	736.15	0.14
318.15	0.79637	0.08161	762.26	0.13
318.15	0.8022	0.11956	748.9	0.14
318.15	0.86868	0.05263	763.97	0.13
318.15	0.89264	0.08551	748.74	0.14
318.15	0.89472	0.02219	772.61	0.13
318.15	0.91091	0.05385	757.99	0.13
318.15	0.93376	0.02655	765.78	0.13
318.15	0.93638	0.01341	770.87	0.13
318.15	0.94808	0.04136	757.74	0.13
318.15	0.96764	0.00682	769.43	0.13
318.15	0.96895	0.01877	763.84	0.13
328.15	0	0.21081	783.76	0.12
328.15	0	0.40079	746.62	0.14
328.15	0	0.60444	713.36	0.15
328.15	0	0.79651	686.98	0.16
328.15	0.04568	0.57683	713.2	0.15
328.15	0.05554	0.75228	687.27	0.16
328.15	0.10088	0.36036	745.67	0.14
328.15	0.10186	0.54288	713.69	0.15
328.15	0.10515	0.18865	781.05	0.12
328.15	0.10667	0.71155	688.27	0.16
328.15	0.19658	0.16937	779.33	0.12
328.15	0.20262	0.63512	690.73	0.16
328.15	0.20466	0.48074	715.35	0.15
328.15	0.22228	0.3117	745.84	0.14
328.15	0.29562	0.14849	777.52	0.13
328.15	0.29825	0.55895	694.01	0.16
328.15	0.29972	0.42328	717.44	0.15
328.15	0.30273	0.27946	746.2	0.14
328.15	0.39528	0.24236	746.93	0.14
328.15	0.39538	0.12746	775.73	0.13
328.15	0.40296	0.47555	698.4	0.16
328.15	0.40369	0.36044	720.36	0.15
328.15	0.49772	0.20131	747.97	0.14
328.15	0.4982	0.30331	723.63	0.15
328.15	0.50087	0.10522	773.81	0.13
328.15	0.50576	0.39367	703.73	0.15
328.15	0.59236	0.16338	749.26	0.14
328.15	0.5968	0.085	771.87	0.13
328.15	0.60007	0.24174	727.93	0.14
328.15	0.60442	0.31509	710.02	0.15
328.15	0.66461	0.13442	750.46	0.13
328.15	0.69564	0.24243	717.18	0.15
328.15	0.70144	0.18046	733.27	0.14
328.15	0.70452	0.06229	769.36	0.13
328.15	0.73518	0.10614	751.8	0.13
328.15	0.79281	0.04368	767	0.13
328.15	0.79541	0.16296	727.2	0.14
328.15	0.79637	0.08161	753.14	0.13
328.15	0.8022	0.11956	739.89	0.14
328.15	0.86868	0.05263	754.96	0.13
328.15	0.89264	0.08551	739.87	0.14
328.15	0.89472	0.02219	763.57	0.13
328.15	0.91091	0.05385	749.11	0.14
328.15	0.93376	0.02655	756.88	0.13
328.15	0.93638	0.01341	761.95	0.13
328.15	0.94808	0.04136	748.93	0.14
328.15	0.96764	0.00682	760.59	0.13
328.15	0.96895	0.01877	755.04	0.13
