Measured thermophysical data. Standard molar enthalpies of formation of crystalline stereoisomers of aldono-1,4-lactones
Source: J. Chem. Thermodyn., 2004, 10.1016/j.jct.2004.07.007
Compound 1: carbon dioxide, CO2, InChI=1S/CO2/c2-1-3
Compound 2: water, H2O, InChI=1S/H2O/h1H2
Compound 3: oxygen, O2, InChI=1S/O2/c1-2
Compound 4: L-gulono-1,4-lactone, C6H10O6, InChI=1S/C6H10O6/c7-1-2(8)5-3(9)4(10)6(11)12-5/h2-5,7-10H,1H2/t2-,3+,4-,5+/m0/s1, purity 99.5%
Compound 5: L-mannono-1,4-lactone, C6H10O6, InChI=1S/C6H10O6/c7-1-2(8)5-3(9)4(10)6(11)12-5/h2-5,7-10H,1H2/t2-,3-,4+,5-/m0/s1, purity 99.5%
Compound 6: D-gulonic acid .gamma.-lactone, C6H10O6, InChI=1S/C6H10O6/c7-1-2(8)5-3(9)4(10)6(11)12-5/h2-5,7-10H,1H2/t2-,3+,4-,5+/m1/s1, purity 99.5%
Compound 7: D-galactono-1,4-lactone, C6H10O6, InChI=1S/C6H10O6/c7-1-2(8)5-3(9)4(10)6(11)12-5/h2-5,7-10H,1H2/t2-,3-,4-,5+/m1/s1, purity 99.5%
Compound 8: L-galactono-1,4-lactone, C6H10O6, InChI=1S/C6H10O6/c7-1-2(8)5-3(9)4(10)6(11)12-5/h2-5,7-10H,1H2/t2-,3-,4-,5+/m0/s1, purity 99.5%

System: L-gulono-1,4-lactone; phases: Crystal, Liquid, Air at 1 atmosphere
Property: Molar enthalpy of transition or fusion, kJ/mol (Crystal); method: DSC
Molar enthalpy of transition or fusion, kJ/mol	uncertainty
41.5	1.08

System: L-gulono-1,4-lactone; phases: Crystal, Liquid, Air at 1 atmosphere
Property: Triple point temperature, K (Crystal); method: DTA
Triple point temperature, K	uncertainty
458.96	0.39

System: L-mannono-1,4-lactone; phases: Crystal, Liquid, Air at 1 atmosphere
Property: Molar enthalpy of transition or fusion, kJ/mol (Crystal); method: DSC
Molar enthalpy of transition or fusion, kJ/mol	uncertainty
36.13	0.81

System: L-mannono-1,4-lactone; phases: Crystal, Liquid, Air at 1 atmosphere
Property: Triple point temperature, K (Crystal); method: DTA
Triple point temperature, K	uncertainty
426.52	0.39

System: D-gulonic acid .gamma.-lactone; phases: Crystal, Liquid, Air at 1 atmosphere
Property: Molar enthalpy of transition or fusion, kJ/mol (Crystal); method: DSC
Molar enthalpy of transition or fusion, kJ/mol	uncertainty
40.13	1.43

System: D-gulonic acid .gamma.-lactone; phases: Crystal, Liquid, Air at 1 atmosphere
Property: Triple point temperature, K (Crystal); method: DTA
Triple point temperature, K	uncertainty
459.3	0.58

System: D-galactono-1,4-lactone; phases: Crystal, Liquid, Air at 1 atmosphere
Property: Molar enthalpy of transition or fusion, kJ/mol (Crystal); method: DSC
Molar enthalpy of transition or fusion, kJ/mol	uncertainty
35.77	0.95

System: D-galactono-1,4-lactone; phases: Crystal, Liquid, Air at 1 atmosphere
Property: Triple point temperature, K (Crystal); method: DTA
Triple point temperature, K	uncertainty
410.32	0.39

System: L-galactono-1,4-lactone; phases: Crystal, Liquid, Air at 1 atmosphere
Property: Molar enthalpy of transition or fusion, kJ/mol (Crystal); method: DSC
Molar enthalpy of transition or fusion, kJ/mol	uncertainty
35.98	0.77

System: L-galactono-1,4-lactone; phases: Crystal, Liquid, Air at 1 atmosphere
Property: Triple point temperature, K (Crystal); method: DTA
Triple point temperature, K	uncertainty
409.82	0.39

Reaction: -1 L-galactono-1,4-lactone + 6 carbon dioxide + 5 water + -5.5 oxygen
Property: Molar internal energy of reaction at constant volume, kJ/mol
-2559.66

Reaction: -1 D-gulonic acid .gamma.-lactone + 6 carbon dioxide + 5 water + -5.5 oxygen
Property: Molar internal energy of reaction at constant volume, kJ/mol
-2561.32

Reaction: -1 L-gulono-1,4-lactone + 6 carbon dioxide + 5 water + -5.5 oxygen
Property: Molar internal energy of reaction at constant volume, kJ/mol
-2560.91

Reaction: -1 L-mannono-1,4-lactone + 6 carbon dioxide + 5 water + -5.5 oxygen
Property: Molar internal energy of reaction at constant volume, kJ/mol
-2563.43

Reaction: -1 D-galactono-1,4-lactone + 6 carbon dioxide + 5 water + -5.5 oxygen
Property: Molar internal energy of reaction at constant volume, kJ/mol
-2559.09
