Measured thermophysical data. Thermodynamic models for determination of the solubility of omeprazole in pure and mixture organic solvents from T = (278.15 to 333.15) K
Source: J. Chem. Thermodyn., 2016, 10.1016/j.jct.2015.11.005
Compound 1: water, H2O, InChI=1S/H2O/h1H2
Compound 2: Omeprazole, C17H19N3O3S, InChI=1S/C17H19N3O3S/c1-10-8-18-15(11(2)16(10)23-4)9-24(21)17-19-13-6-5-12(22-3)7-14(13)20-17/h5-8H,9H2,1-4H3,(H,19,20), purity 98%
Compound 3: methanol, CH4O, InChI=1S/CH4O/c1-2/h2H,1H3, purity 99.5%
Compound 4: ethanol, C2H6O, InChI=1S/C2H6O/c1-2-3/h3H,2H2,1H3, purity 99.7%
Compound 5: butan-1-ol, C4H10O, InChI=1S/C4H10O/c1-2-3-4-5/h5H,2-4H2,1H3, purity 99%
Compound 6: acetonitrile, C2H3N, InChI=1S/C2H3N/c1-2-3/h1H3, purity 99.9%
Compound 7: acetone, C3H6O, InChI=1S/C3H6O/c1-3(2)4/h1-2H3, purity 99.5%
Compound 8: ethyl acetate, C4H8O2, InChI=1S/C4H8O2/c1-3-6-4(2)5/h3H2,1-2H3, purity 99.7%
Compound 9: tetrahydrofuran, C4H8O, InChI=1S/C4H8O/c1-2-4-5-3-1/h1-4H2, purity 99%

System: Omeprazole; phases: Crystal, Liquid, Air at 1 atmosphere
Property: Normal melting temperature, K (Crystal); method: VISOBS
Normal melting temperature, K	uncertainty
429.15	2.14

System: water + Omeprazole; phases: Liquid, Crystal
Fixed: Pressure, kPa = 100
Property: Mole fraction of Omeprazole (Liquid); method: gravimetric
Temperature, K	Mole fraction of Omeprazole	uncertainty
278.15	4.07e-05	1.6e-06
283.15	5e-05	2e-06
288.15	6.15e-05	2.5e-06
293.15	7.64e-05	3.1e-06
298.15	9.36e-05	3.8e-06
303.15	0.0001145	4.6e-06
308.15	0.0001377	5.5e-06
313.15	0.0001652	6.6e-06
318.15	0.0001959	7.9e-06
323.15	0.0002297	9.2e-06
328.15	0.0002631	1.06e-05
333.15	0.0002994	1.2e-05

System: methanol + Omeprazole; phases: Liquid, Crystal
Fixed: Pressure, kPa = 100
Property: Mole fraction of Omeprazole (Liquid); method: gravimetric
Temperature, K	Mole fraction of Omeprazole	uncertainty
278.15	0.002058	8.3e-05
283.15	0.002639	0.000107
288.15	0.00348	0.00014
293.15	0.00435	0.000176
298.15	0.005691	0.000229
303.15	0.006863	0.000276
308.15	0.008573	0.000345
313.15	0.01055	0.00042
318.15	0.01289	0.00052
323.15	0.01562	0.00063
328.15	0.01861	0.00075
333.15	0.02165	0.00087

System: ethanol + Omeprazole; phases: Liquid, Crystal
Fixed: Pressure, kPa = 100
Property: Mole fraction of Omeprazole (Liquid); method: gravimetric
Temperature, K	Mole fraction of Omeprazole	uncertainty
278.15	0.001574	6.3e-05
283.15	0.001875	7.5e-05
288.15	0.002243	9e-05
293.15	0.002612	0.000105
298.15	0.003465	0.00014
303.15	0.00413	0.000166
308.15	0.005085	0.000205
313.15	0.006047	0.000243
318.15	0.007019	0.000282
323.15	0.008316	0.000334
328.15	0.009818	0.000394
333.15	0.01126	0.00045

System: butan-1-ol + Omeprazole; phases: Liquid, Crystal
Fixed: Pressure, kPa = 100
Property: Mole fraction of Omeprazole (Liquid); method: gravimetric
Temperature, K	Mole fraction of Omeprazole	uncertainty
278.15	0.001282	5.2e-05
283.15	0.001532	6.2e-05
288.15	0.001962	7.9e-05
293.15	0.002404	9.7e-05
298.15	0.003026	0.000122
303.15	0.003702	0.000149
308.15	0.00455	0.000183
313.15	0.005401	0.000217
318.15	0.006504	0.000262
323.15	0.007788	0.000313
328.15	0.008842	0.000355
333.15	0.01035	0.00042

System: acetonitrile + Omeprazole; phases: Liquid, Crystal
Fixed: Pressure, kPa = 100
Property: Mole fraction of Omeprazole (Liquid); method: gravimetric
Temperature, K	Mole fraction of Omeprazole	uncertainty
278.15	0.001177	4.7e-05
283.15	0.001425	5.7e-05
288.15	0.001821	7.3e-05
293.15	0.002221	8.9e-05
298.15	0.002732	0.00011
303.15	0.003538	0.000143
308.15	0.004286	0.000172
313.15	0.005126	0.000206
318.15	0.006075	0.000244
323.15	0.007113	0.000286
328.15	0.008431	0.000339
333.15	0.009775	0.000392

System: acetone + Omeprazole; phases: Liquid, Crystal
Fixed: Pressure, kPa = 100
Property: Mole fraction of Omeprazole (Liquid); method: gravimetric
Temperature, K	Mole fraction of Omeprazole	uncertainty
278.15	0.001463	5.9e-05
283.15	0.001731	7e-05
288.15	0.002155	8.7e-05
293.15	0.002648	0.000107
298.15	0.003126	0.000126
303.15	0.003773	0.000152
308.15	0.004638	0.000187
313.15	0.005415	0.000218
318.15	0.006372	0.000256
323.15	0.007388	0.000297
328.15	0.008496	0.000341
333.15	0.009815	0.000394

System: ethyl acetate + Omeprazole; phases: Liquid, Crystal
Fixed: Pressure, kPa = 100
Property: Mole fraction of Omeprazole (Liquid); method: gravimetric
Temperature, K	Mole fraction of Omeprazole	uncertainty
278.15	0.0009807	3.94e-05
283.15	0.001124	4.5e-05
288.15	0.001338	5.4e-05
293.15	0.001565	6.3e-05
298.15	0.001854	7.5e-05
303.15	0.002199	8.8e-05
308.15	0.002535	0.000102
313.15	0.002927	0.000118
318.15	0.003426	0.000138
323.15	0.004049	0.000163
328.15	0.004696	0.000188
333.15	0.005226	0.00021

System: tetrahydrofuran + Omeprazole; phases: Liquid, Crystal
Fixed: Pressure, kPa = 100
Property: Mole fraction of Omeprazole (Liquid); method: gravimetric
Temperature, K	Mole fraction of Omeprazole	uncertainty
278.15	0.004577	0.000187
283.15	0.006437	0.000261
288.15	0.008434	0.000341
293.15	0.01131	0.00046
298.15	0.01462	0.00059
303.15	0.01963	0.00079
308.15	0.02588	0.00104
313.15	0.03273	0.00132
318.15	0.04245	0.00171
323.15	0.05451	0.0022
328.15	0.06634	0.00267
333.15	0.07886	0.00317

System: tetrahydrofuran + ethyl acetate + Omeprazole; phases: Liquid, Crystal
Fixed: Pressure, kPa = 100
Property: Mole fraction of Omeprazole (Liquid); method: gravimetric
Temperature, K	Solvent: Mole fraction of tetrahydrofuran	Mole fraction of Omeprazole	uncertainty
278.15	0	0.000981	3.9e-05
278.15	0.1748	0.001348	5.6e-05
278.15	0.3397	0.001652	7.7e-05
278.15	0.4955	0.002227	0.000117
278.15	0.6429	0.002767	0.000145
278.15	0.7826	0.003242	0.000185
278.15	0.9153	0.003882	0.000271
278.15	1	0.004577	0.000187
283.15	0	0.001124	4.5e-05
283.15	0.1748	0.001714	7.4e-05
283.15	0.3397	0.002358	0.000113
283.15	0.4955	0.003108	0.000162
283.15	0.6429	0.003905	0.000217
283.15	0.7826	0.004756	0.000263
283.15	0.9153	0.005453	0.000355
283.15	1	0.006437	0.000261
288.15	0	0.001338	5.4e-05
288.15	0.1748	0.00226	9.9e-05
288.15	0.3397	0.003254	0.00016
288.15	0.4955	0.004389	0.000229
288.15	0.6429	0.005454	0.000296
288.15	0.7826	0.006589	0.000368
288.15	0.9153	0.007654	0.000441
288.15	1	0.008434	0.000341
293.15	0	0.001565	6.3e-05
293.15	0.1748	0.002832	0.000126
293.15	0.3397	0.004197	0.00021
293.15	0.4955	0.005756	0.000305
293.15	0.6429	0.007218	0.000398
293.15	0.7826	0.008778	0.000497
293.15	0.9153	0.01024	0.0006
293.15	1	0.01131	0.00046
298.15	0	0.001854	7.5e-05
298.15	0.1748	0.003514	0.000158
298.15	0.3397	0.005301	0.000269
298.15	0.4955	0.007344	0.000394
298.15	0.6429	0.009259	0.000516
298.15	0.7826	0.0113	0.00065
298.15	0.9153	0.01322	0.00079
298.15	1	0.01462	0.00059
303.15	0	0.002199	8.8e-05
303.15	0.1748	0.004465	0.000204
303.15	0.3397	0.006905	0.000356
303.15	0.4955	0.009694	0.000528
303.15	0.6429	0.01231	0.00069
303.15	0.7826	0.0151	0.00087
303.15	0.9153	0.01771	0.00105
303.15	1	0.01963	0.00079
308.15	0	0.002535	0.000102
308.15	0.1748	0.00557	0.000259
308.15	0.3397	0.008838	0.000463
308.15	0.4955	0.01257	0.00069
308.15	0.6429	0.01607	0.00092
308.15	0.7826	0.01981	0.00115
308.15	0.9153	0.02331	0.00139
308.15	1	0.02588	0.00104
313.15	0	0.002927	0.000118
313.15	0.1748	0.006801	0.00032
313.15	0.3397	0.01097	0.00058
313.15	0.4955	0.01574	0.00088
313.15	0.6429	0.02021	0.00116
313.15	0.7826	0.02498	0.00147
313.15	0.9153	0.02945	0.00178
313.15	1	0.03273	0.00132
318.15	0	0.003426	0.000138
318.15	0.1748	0.008499	0.000405
318.15	0.3397	0.01396	0.00075
318.15	0.4955	0.02021	0.00114
318.15	0.6429	0.02606	0.00151
318.15	0.7826	0.0323	0.00191
318.15	0.9153	0.03816	0.00231
318.15	1	0.04245	0.00171
323.15	0	0.004049	0.000163
323.15	0.1748	0.01061	0.00051
323.15	0.3397	0.01767	0.00096
323.15	0.4955	0.02575	0.00146
323.15	0.6429	0.03332	0.00194
323.15	0.7826	0.04139	0.00245
323.15	0.9153	0.04896	0.00295
323.15	1	0.05451	0.0022
328.15	0	0.004696	0.000188
328.15	0.1748	0.01271	0.00061
328.15	0.3397	0.02134	0.00116
328.15	0.4955	0.0312	0.00177
328.15	0.6429	0.04045	0.00236
328.15	0.7826	0.05032	0.00299
328.15	0.9153	0.05956	0.0036
328.15	1	0.06634	0.00267
333.15	0	0.005226	0.00021
333.15	0.1748	0.0148	0.00072
333.15	0.3397	0.02511	0.00138
333.15	0.4955	0.03689	0.0021
333.15	0.6429	0.04793	0.00281
333.15	0.7826	0.05972	0.00356
333.15	0.9153	0.07076	0.00429
333.15	1	0.07886	0.00317
