Measured thermophysical data. Solubility, acid-base properties and thermodynamics of interaction between three NTA-phosphonate derivatives and the main cationic components (H+, Na+, Mg2+ and Ca2+) of natural fluids
Source: J. Chem. Thermodyn., 2018, 10.1016/j.jct.2018.03.032
Compound 1: water, H2O, InChI=1S/H2O/h1H2, purity 99.9%
Compound 2: N-(carboxymethyl)-N-(phosphonomethyl)glycine, C5H10NO7P, InChI=1S/C5H10NO7P/c7-4(8)1-6(2-5(9)10)3-14(11,12)13/h1-3H2,(H,7,8)(H,9,10)(H2,11,12,13), purity 95%
Compound 3: sodium chloride, ClNa, InChI=1S/ClH.Na/h1H;/q;+1/p-1, purity 99%
Compound 4: tetramethylammonium chloride, C4H12ClN, InChI=1S/C4H12N.ClH/c1-5(2,3)4;/h1-4H3;1H/q+1;/p-1, purity 99%
Compound 5: tetraethylammonium iodide, C8H20IN, InChI=1S/C8H20N.HI/c1-5-9(6-2,7-3)8-4;/h5-8H2,1-4H3;1H/q+1;/p-1, purity 98%

System: N-(carboxymethyl)-N-(phosphonomethyl)glycine + sodium chloride + water; phases: Liquid, Crystal
Fixed: Pressure, kPa = 100
Fixed: Temperature, K = 298.15
Property: Molality, mol/kg of N-(carboxymethyl)-N-(phosphonomethyl)glycine (Liquid); method: potentiometric titration
Molality, mol/kg of sodium chloride	Molality, mol/kg of N-(carboxymethyl)-N-(phosphonomethyl)glycine	uncertainty
0.027	0.0361	0.0006
0.168	0.0372	0.0006
0.348	0.0379	0.0006
0.666	0.0376	0.0006
0.991	0.0388	0.0006
1.663	0.0357	0.0006
0	0.037	0.0006

System: N-(carboxymethyl)-N-(phosphonomethyl)glycine + tetramethylammonium chloride + water; phases: Liquid, Crystal
Fixed: Pressure, kPa = 100
Fixed: Temperature, K = 298.15
Property: Molality, mol/kg of N-(carboxymethyl)-N-(phosphonomethyl)glycine (Liquid); method: potentiometric titration
Molality, mol/kg of tetramethylammonium chloride	Molality, mol/kg of N-(carboxymethyl)-N-(phosphonomethyl)glycine	uncertainty
0.027	0.036	0.0006
0.119	0.0363	0.0006
0.341	0.0359	0.0006
0.563	0.035	0.0006
0.96	0.0328	0.0006
1.173	0.0312	0.0006
0	0.037	0.0006

System: N-(carboxymethyl)-N-(phosphonomethyl)glycine + tetraethylammonium iodide + water; phases: Liquid, Crystal
Fixed: Pressure, kPa = 100
Fixed: Temperature, K = 298.15
Property: Molality, mol/kg of N-(carboxymethyl)-N-(phosphonomethyl)glycine (Liquid); method: potentiometric titration
Molality, mol/kg of tetraethylammonium iodide	Molality, mol/kg of N-(carboxymethyl)-N-(phosphonomethyl)glycine	uncertainty
0.027	0.0359	0.0006
0.102	0.0364	0.0006
0.244	0.0355	0.0006
0.656	0.0329	0.0006
0.918	0.0313	0.0006
1.023	0.0315	0.0006
0	0.037	0.0006

System: N-(carboxymethyl)-N-(phosphonomethyl)glycine + water; phases: Liquid, Crystal
Property: Molality, mol/kg of N-(carboxymethyl)-N-(phosphonomethyl)glycine (Liquid); method: potentiometric titration
Pressure, kPa	Temperature, K	Molality, mol/kg of N-(carboxymethyl)-N-(phosphonomethyl)glycine	uncertainty
100	298.15	0.037	0.0006
