Measured thermophysical data. Sublimation enthalpy of tetrakis(1,1,1,5,5,5-hexafluoro-2,4-pentanedionato)lanthanide(III)-potassium complexes, KLn(C5HF6O2)4: Effect of lanthanide contraction
Source: J. Chem. Thermodyn., 2019, 10.1016/j.jct.2018.10.033
Compound 1: potassium tetrakis(1,1,1,5,5,5-hexafluoro-2,4-pentanedionato)lanthanate(III), C20H4F24KLaO8, InChI=1S/4C5HF6O2.K.La/c4*6-4(7,8)2(12)1-3(13)5(9,10)11;;/h4*1H;;/q4*-1;+1;+3
Compound 2: potassium tetrakis(1,1,1,5,5,5-hexafluoro-2,4-pentanedionato)gadolinate(III), C20H4F24GdKO8, InChI=1S/4C5HF6O2.Gd.K/c4*6-4(7,8)2(12)1-3(13)5(9,10)11;;/h4*1H;;/q4*-1;+3;+1
Compound 3: potassium tetrakis(1,1,1,5,5,5-hexafluoro-2,4-pentanedionato)lutetate(III), C20H4F24KLuO8, InChI=1S/4C5HF6O2.K.Lu/c4*6-4(7,8)2(12)1-3(13)5(9,10)11;;/h4*1H;;/q4*-1;+1;+3

System: potassium tetrakis(1,1,1,5,5,5-hexafluoro-2,4-pentanedionato)lanthanate(III); phases: Crystal, Gas
Property: Molar enthalpy of vaporization or sublimation, kJ/mol (Crystal); method: Derived by Second law
Temperature, K	Molar enthalpy of vaporization or sublimation, kJ/mol	uncertainty
443	170.6	2.8

System: potassium tetrakis(1,1,1,5,5,5-hexafluoro-2,4-pentanedionato)gadolinate(III); phases: Crystal, Gas
Property: Molar enthalpy of vaporization or sublimation, kJ/mol (Crystal); method: Derived by Second law
Temperature, K	Molar enthalpy of vaporization or sublimation, kJ/mol	uncertainty
427	166.4	4.1

System: potassium tetrakis(1,1,1,5,5,5-hexafluoro-2,4-pentanedionato)lutetate(III); phases: Crystal, Gas
Property: Molar enthalpy of vaporization or sublimation, kJ/mol (Crystal); method: Derived by Second law
Temperature, K	Molar enthalpy of vaporization or sublimation, kJ/mol	uncertainty
420	161.8	3
