Measured thermophysical data. Partial molar columes and heat capacities of the N-acetyl amide derivatives of the amino acids asparagine, glutamine, tyrosine, and lysine monohydrochloride in aqueous solution at temperatures from T=288.15 K to T=328.15K
Source: J. Chem. Thermodyn., 2006, 10.1016/j.jct.2006.03.015
Compound 1: (S)-2-acetamidopentanediamide, C7H13N3O3, InChI=1S/C7H13N3O3/c1-4(11)10-5(7(9)13)2-3-6(8)12/h5H,2-3H2,1H3,(H2,8,12)(H2,9,13)(H,10,11)/t5-/m0/s1
Compound 2: (S)-2-acetamido-6-aminohexanamide hydrochloride, C8H18ClN3O2, InChI=1S/C8H17N3O2.ClH/c1-6(12)11-7(8(10)13)4-2-3-5-9;/h7H,2-5,9H2,1H3,(H2,10,13)(H,11,12);1H/t7-;/m0./s1
Compound 3: N-Acetyl-L-tyrosinamide, C11H14N2O3, InChI=1S/C11H14N2O3/c1-7(14)13-11(16)10(12)6-8-2-4-9(15)5-3-8/h2-5,10,15H,6,12H2,1H3,(H,13,14,16)/t10-/m0/s1
Compound 4: water, H2O, InChI=1S/H2O/h1H2
Compound 5: (S)-2-acetamidosuccinamide, C6H11N3O3, InChI=1S/C6H11N3O3/c1-3(10)9-4(6(8)12)2-5(7)11/h4H,2H2,1H3,(H2,7,11)(H2,8,12)(H,9,10)/t4-/m0/s1

System: (S)-2-acetamidopentanediamide; phases: Crystal, Liquid, Air at 1 atmosphere
Property: Normal melting temperature, K (Crystal); method: VISOBS
Normal melting temperature, K	uncertainty
465.5	1.1

System: (S)-2-acetamido-6-aminohexanamide hydrochloride; phases: Crystal, Liquid, Air at 1 atmosphere
Property: Normal melting temperature, K (Crystal); method: VISOBS
Normal melting temperature, K	uncertainty
417.5	1.1

System: N-Acetyl-L-tyrosinamide; phases: Crystal, Liquid, Air at 1 atmosphere
Property: Normal melting temperature, K (Crystal); method: VISOBS
Normal melting temperature, K	uncertainty
498	2

System: (S)-2-acetamidosuccinamide; phases: Crystal, Liquid, Air at 1 atmosphere
Property: Normal melting temperature, K (Crystal); method: VISOBS
Normal melting temperature, K	uncertainty
517	3

System: water + (S)-2-acetamidosuccinamide; phases: Liquid
Fixed: Pressure, kPa = 101
Property: Apparent molar heat capacity, J/K/mol (Liquid); method: Flow calorimetry
Temperature, K	Molality, mol/kg of (S)-2-acetamidosuccinamide	Apparent molar heat capacity, J/K/mol	uncertainty
288.15	0.0291	307.3	27.2
288.15	0.03172	310	25
288.15	0.0368	307.6	22.9
288.15	0.03929	308.2	20.3
288.15	0.04222	309.5	18.9
288.15	0.04651	305.7	17.2
288.15	0.05278	306.6	16.8
288.15	0.05772	302.8	14
288.15	0.06036	303.7	13.4
288.15	0.06513	306.5	13.7
288.15	0.07059	308	12.5
298.15	0.02807	333.1	28.2
298.15	0.03296	329.6	24.3
298.15	0.0381	333.3	20.9
298.15	0.04348	330.6	18.4
298.15	0.04618	330.2	17.5
298.15	0.05136	330.7	15.7
298.15	0.05666	333.4	19.1
298.15	0.06197	330.9	13.8
298.15	0.06198	333	13.7
298.15	0.06667	332.5	12.2
298.15	0.07247	331	11.3
313.15	0.03215	353.5	26.9
313.15	0.03777	356	23
313.15	0.04273	355.6	20.4
313.15	0.04501	361.1	19.4
313.15	0.0481	358.6	18.2
313.15	0.05166	353.7	17
313.15	0.05423	357.7	17.6
313.15	0.06055	358.6	14.6
313.15	0.06612	356.4	14.3
313.15	0.07077	355.6	14.1
313.15	0.07187	357.7	13.4
328.15	0.03205	378.3	29.7
328.15	0.03805	377.4	25.1
328.15	0.0428	373.4	22.4
328.15	0.04683	379.4	20.6
328.15	0.05183	377.2	21.6
328.15	0.05694	380.7	21.2
328.15	0.06115	377.1	16.7
328.15	0.06488	376.5	15.3
328.15	0.06958	380.2	17.1

System: water + (S)-2-acetamidosuccinamide; phases: Liquid
Fixed: Pressure, kPa = 101
Property: Mass density, kg/m3 (Liquid); method: VIBTUB:UFactor:8
Temperature, K	Molality, mol/kg of (S)-2-acetamidosuccinamide	Mass density, kg/m3	uncertainty
288.15	0.0291	1000.528	0.258
288.15	0.03172	1000.649	0.258
288.15	0.0368	1000.896	0.259
288.15	0.03929	1001.026	0.26
288.15	0.04222	1001.168	0.26
288.15	0.04651	1001.375	0.261
288.15	0.05278	1001.677	0.263
288.15	0.05772	1001.919	0.263
288.15	0.06036	1002.043	0.264
288.15	0.06513	1002.276	0.265
288.15	0.07059	1002.538	0.266
298.15	0.02807	998.384	0.262
298.15	0.03296	998.617	0.261
298.15	0.0381	998.865	0.26
298.15	0.04348	999.124	0.26
298.15	0.04618	999.246	0.26
298.15	0.05136	999.495	0.259
298.15	0.05666	999.741	0.259
298.15	0.06198	999.991	0.258
298.15	0.06667	1000.219	0.259
298.15	0.07247	1000.487	0.26
313.15	0.03215	993.709	0.276
313.15	0.03777	993.972	0.276
313.15	0.04273	994.186	0.275
313.15	0.04501	994.291	0.275
313.15	0.0481	994.444	0.275
313.15	0.05166	994.598	0.275
313.15	0.05423	994.726	0.274
313.15	0.06055	995.006	0.274
313.15	0.06612	995.264	0.273
313.15	0.07077	995.471	0.273
313.15	0.07187	995.524	0.273
328.15	0.03205	987.15	0.297
328.15	0.03805	987.418	0.296
328.15	0.0428	987.633	0.296
328.15	0.04683	987.812	0.296
328.15	0.05183	988.042	0.295
328.15	0.05694	988.263	0.295
328.15	0.06115	988.455	0.294
328.15	0.06488	988.623	0.294
328.15	0.06958	988.834	0.294

System: water + (S)-2-acetamidopentanediamide; phases: Liquid
Fixed: Pressure, kPa = 101
Property: Apparent molar heat capacity, J/K/mol (Liquid); method: Flow calorimetry
Temperature, K	Molality, mol/kg of (S)-2-acetamidopentanediamide	Apparent molar heat capacity, J/K/mol	uncertainty
288.15	0.03981	353.8	20.1
288.15	0.04349	350.3	18.4
288.15	0.0507	353.7	15.9
288.15	0.05943	355.1	13.7
288.15	0.06967	356.4	11.7
288.15	0.07857	350.8	10.7
288.15	0.08453	356.6	11.7
288.15	0.09265	354.1	9.5
288.15	0.10081	353.9	8.3
298.15	0.04537	377.9	17.7
298.15	0.05783	383.7	15.5
298.15	0.06765	378	13.1
298.15	0.08263	379.9	11.4
298.15	0.09722	382.3	11.4
298.15	0.10547	382.8	8.9
298.15	0.12174	379.5	10.7
298.15	0.13295	381.1	7.3
298.15	0.14551	382.4	6.7
313.15	0.03917	407.2	22.3
313.15	0.04565	409.1	19.3
313.15	0.05555	410.8	17.1
313.15	0.06371	410.7	15.3
313.15	0.07398	410.7	12.6
313.15	0.08191	408.9	12.7
313.15	0.08959	408.6	11
313.15	0.1002	409	9.2
328.15	0.03787	430.2	25.4
328.15	0.04577	430	23.3
328.15	0.05585	431.2	18.5
328.15	0.0626	431.6	15.7
328.15	0.07189	432.4	14
328.15	0.08069	430.4	12.9
328.15	0.0903	429.9	14.1

System: water + (S)-2-acetamidopentanediamide; phases: Liquid
Fixed: Pressure, kPa = 101
Property: Mass density, kg/m3 (Liquid); method: VIBTUB:UFactor:8
Temperature, K	Molality, mol/kg of (S)-2-acetamidopentanediamide	Mass density, kg/m3	uncertainty
288.15	0.03981	1000.955	0.26
288.15	0.04349	1001.128	0.261
288.15	0.0507	1001.461	0.262
288.15	0.05943	1001.856	0.264
288.15	0.06967	1002.329	0.266
288.15	0.07857	1002.755	0.267
288.15	0.08453	1003.029	0.269
288.15	0.09265	1003.385	0.27
288.15	0.10081	1003.777	0.272
298.15	0.04537	999.104	0.26
298.15	0.05783	999.659	0.259
298.15	0.06765	1000.096	0.259
298.15	0.08263	1000.771	0.262
298.15	0.09722	1001.409	0.265
298.15	0.10547	1001.793	0.266
298.15	0.12174	1002.512	0.27
298.15	0.13295	1003.013	0.272
298.15	0.14551	1003.563	0.275
313.15	0.04565	994.219	0.276
313.15	0.05555	994.65	0.275
313.15	0.06371	995.007	0.274
313.15	0.07398	995.463	0.273
313.15	0.08191	995.809	0.273
313.15	0.08959	996.143	0.272
313.15	0.1002	996.596	0.271
328.15	0.03787	987.321	0.297
328.15	0.04577	987.659	0.296
328.15	0.05585	988.092	0.295
328.15	0.0626	988.383	0.295
328.15	0.07189	988.783	0.294
328.15	0.08069	989.147	0.293
328.15	0.0903	989.565	0.293
328.15	0.10559	990.212	0.292

System: water + (S)-2-acetamido-6-aminohexanamide hydrochloride; phases: Liquid
Fixed: Pressure, kPa = 101
Property: Apparent molar heat capacity, J/K/mol (Liquid); method: Flow calorimetry
Temperature, K	Molality, mol/kg of (S)-2-acetamido-6-aminohexanamide hydrochloride	Apparent molar heat capacity, J/K/mol	uncertainty
288.15	0.02301	333.4	35.4
288.15	0.02858	336.3	27.7
288.15	0.0372	339.9	22.3
288.15	0.04378	339.8	19.3
288.15	0.05396	339.8	15.9
288.15	0.06411	343.1	13.3
288.15	0.07273	342	12.3
288.15	0.08089	341.3	11.1
288.15	0.08886	340.4	10
288.15	0.0972	343.1	9.4
298.15	0.02795	377.8	28.4
298.15	0.03712	377.9	21.9
298.15	0.04507	379.4	17.9
298.15	0.05411	379.1	15.8
298.15	0.06514	378.6	12.6
298.15	0.07363	379	11.4
298.15	0.08347	378.8	10.1
298.15	0.08995	379	9.3
313.15	0.02397	404.5	36
313.15	0.03035	411.1	28.6
313.15	0.03705	406.4	24.1
313.15	0.04583	409.4	19.2
313.15	0.05469	404	16.7
313.15	0.06361	405.8	14.8
313.15	0.06804	408	13.5
313.15	0.07802	406.1	12.1
328.15	0.02685	429	35.4
328.15	0.03581	428	26.8
328.15	0.04352	428.9	22.2
328.15	0.05273	429.2	18.5
328.15	0.06308	431.9	15.6
328.15	0.07041	431.9	14.1
328.15	0.08088	432.4	12.4
328.15	0.0877	433.2	11.6

System: water + (S)-2-acetamido-6-aminohexanamide hydrochloride; phases: Liquid
Fixed: Pressure, kPa = 101
Property: Mass density, kg/m3 (Liquid); method: VIBTUB:UFactor:8
Temperature, K	Molality, mol/kg of (S)-2-acetamido-6-aminohexanamide hydrochloride	Mass density, kg/m3	uncertainty
288.15	0.02301	1000.282	0.257
288.15	0.02858	1000.567	0.258
288.15	0.0372	1001.007	0.26
288.15	0.04378	1001.341	0.262
288.15	0.05396	1001.855	0.264
288.15	0.06411	1002.371	0.266
288.15	0.07273	1002.8	0.268
288.15	0.08089	1003.207	0.27
288.15	0.08886	1003.603	0.272
288.15	0.0972	1004.018	0.274
298.15	0.02795	998.439	0.262
298.15	0.03712	998.893	0.261
298.15	0.04507	999.283	0.26
298.15	0.05411	999.729	0.259
298.15	0.06514	1000.268	0.26
298.15	0.07363	1000.678	0.262
298.15	0.08347	1001.158	0.264
298.15	0.08995	1001.472	0.266
313.15	0.02397	993.394	0.277
313.15	0.03035	993.703	0.277
313.15	0.03705	994.027	0.276
313.15	0.04583	994.449	0.275
313.15	0.05213	994.754	0.275
313.15	0.05752	995.015	0.274
313.15	0.06361	995.306	0.274
313.15	0.06804	995.516	0.274
313.15	0.07802	995.99	0.273
328.15	0.02685	986.984	0.298
328.15	0.03581	987.412	0.297
328.15	0.04352	987.778	0.296
328.15	0.05273	988.207	0.295
328.15	0.06308	988.699	0.295
328.15	0.07041	989.042	0.294
328.15	0.08088	989.527	0.293
328.15	0.0877	989.846	0.293

System: N-Acetyl-L-tyrosinamide + water; phases: Liquid
Fixed: Pressure, kPa = 101
Property: Apparent molar heat capacity, J/K/mol (Liquid); method: Flow calorimetry
Temperature, K	Molality, mol/kg of N-Acetyl-L-tyrosinamide	Apparent molar heat capacity, J/K/mol	uncertainty
288.15	0.01175	508.1	66.8
288.15	0.012	504.2	65.4
288.15	0.01302	504.9	60.4
288.15	0.01344	509	58.5
288.15	0.01395	505.4	56.4
288.15	0.01495	502.3	52.7
288.15	0.01591	501.9	49.5
288.15	0.01705	500.4	46.3
288.15	0.0179	501.6	44.1
288.15	0.01902	503.4	41.6
288.15	0.01984	502.6	39.9
298.15	0.01196	517	65.6
298.15	0.013	517.7	60.5
298.15	0.01383	515.6	56.9
298.15	0.01493	517	52.8
298.15	0.01592	516.9	49.5
298.15	0.01809	519.4	43.7
298.15	0.02018	511.5	39.3
313.15	0.01197	542.3	71.5
313.15	0.01299	543.8	66
313.15	0.01401	543	61.2
313.15	0.01501	545.3	57.2
313.15	0.01596	546.3	53.9
313.15	0.01693	541.4	50.9
313.15	0.01787	543.5	48.2
313.15	0.01892	542.6	45.6
328.15	0.01201	553.5	78.3
328.15	0.01295	552.2	72.7
328.15	0.01394	549.9	67.6
328.15	0.0149	556.4	63.3
328.15	0.0159	554.4	59.4
328.15	0.01694	552	55.8
328.15	0.01796	555.6	52.7
328.15	0.0189	555.1	50.2

System: N-Acetyl-L-tyrosinamide + water; phases: Liquid
Fixed: Pressure, kPa = 101
Property: Mass density, kg/m3 (Liquid); method: VIBTUB:UFactor:8
Temperature, K	Molality, mol/kg of N-Acetyl-L-tyrosinamide	Mass density, kg/m3	uncertainty
288.15	0.01175	999.692	0.257
288.15	0.012	999.707	0.257
288.15	0.01302	999.758	0.257
288.15	0.01344	999.773	0.257
288.15	0.01395	999.805	0.256
288.15	0.01495	999.855	0.256
288.15	0.01591	999.904	0.256
288.15	0.01705	999.955	0.256
288.15	0.0179	1000	0.256
288.15	0.01902	1000.052	0.256
288.15	0.01984	1000.096	0.256
298.15	0.01196	997.637	0.263
298.15	0.013	997.684	0.263
298.15	0.01383	997.725	0.263
298.15	0.01493	997.781	0.263
298.15	0.01497	997.785	0.263
298.15	0.01592	997.83	0.263
298.15	0.017	997.885	0.263
298.15	0.01809	997.94	0.263
298.15	0.01905	997.984	0.263
298.15	0.02018	998.035	0.262
313.15	0.01197	992.782	0.279
313.15	0.01299	992.827	0.278
313.15	0.01401	992.874	0.278
313.15	0.01501	992.925	0.278
313.15	0.01596	992.967	0.278
313.15	0.01693	993.013	0.278
313.15	0.01787	993.057	0.278
313.15	0.01892	993.101	0.278
328.15	0.01201	986.242	0.299
328.15	0.01295	986.289	0.299
328.15	0.01394	986.33	0.299
328.15	0.0149	986.378	0.299
328.15	0.0159	986.421	0.299
328.15	0.01694	986.462	0.299
328.15	0.01796	986.514	0.299
328.15	0.0189	986.548	0.299
