Measured thermophysical data. Measurements of (p,q,T) properties for isobutane in the temperature range from 280 K to 440 K at pressures up to 200 MPa
Source: J. Chem. Thermodyn., 2006, 10.1016/j.jct.2005.05.019
Compound 1: 2-methylpropane, C4H10, InChI=1S/C4H10/c1-4(2)3/h4H,1-3H3

System: 2-methylpropane; phases: Liquid, Gas
Property: Vapor or sublimation pressure, kPa (Liquid); method: Closed cell (Static) method
Temperature, K	Vapor or sublimation pressure, kPa	uncertainty
280	199.8	0.7
300	369.8	0.8

System: 2-methylpropane; phases: Liquid
Property: Mass density, kg/m3 (Liquid); method: Bellows volumetry
Temperature, K	Pressure, kPa	Mass density, kg/m3	uncertainty
280	1000	574.99	0.63
280	2000	576.63	0.63
280	3000	578.23	0.64
280	5000	581.15	0.64
280	10000	587.88	0.65
280	20000	600.12	0.66
280	30000	610.42	0.67
280	40000	619.36	0.68
280	50000	627.41	0.69
280	60000	634.74	0.7
280	70000	641.52	0.71
280	80000	647.64	0.71
280	90000	653.57	0.72
280	100000	659	1
280	120000	669.09	1.01
280	140000	678.21	1.03
280	160000	686.38	1.04
280	180000	694.06	1.05
280	200000	701.06	1.06
300	1000	550.5	0.61
300	3000	554.67	0.61
300	5000	558.59	0.61
300	10000	567.19	0.62
300	20000	581.58	0.64
300	30000	593.56	0.65
300	40000	603.71	0.66
300	50000	612.8	0.67
300	60000	620.94	0.68
300	70000	628.12	0.69
300	80000	634.84	0.7
300	90000	641.05	0.71
300	100000	646.84	1.04
300	120000	657.68	1.06
300	140000	667.21	1.08
300	160000	676.01	1.09
300	180000	684	1.1
300	200000	691.43	1.12
320	1000	523.69	0.58
320	2000	526.51	0.58
320	3000	529.22	0.58
320	5000	534.28	0.59
320	10000	545.21	0.6
320	20000	562.64	0.62
320	30000	576.49	0.63
320	40000	587.85	0.65
320	50000	597.69	0.66
320	60000	606.61	0.67
320	70000	614.55	0.68
320	80000	621.94	0.68
320	90000	628.85	0.69
320	100000	635.06	1.09
320	120000	646.41	1.11
320	140000	656.55	1.13
320	160000	665.84	1.14
320	180000	674.38	1.16
320	200000	682.01	1.17
340	2000	496.95	0.55
340	3000	500.67	0.55
340	5000	507.71	0.56
340	10000	521.75	0.57
340	20000	542.79	0.6
340	30000	558.72	0.61
340	40000	571.75	0.63
340	50000	582.77	0.64
340	60000	592.49	0.65
340	70000	601.18	0.66
340	80000	609.11	0.67
340	90000	616.5	0.68
340	100000	622.79	1.13
340	120000	634.99	1.15
340	140000	645.72	1.17
340	160000	655.32	1.19
340	180000	664.26	1.21
340	200000	672.25	1.22
360	2000	461.05	0.51
360	3000	467.32	0.51
360	5000	477.66	0.53
360	10000	496.94	0.55
360	20000	522.77	0.58
360	30000	541.32	0.6
360	40000	555.78	0.61
360	50000	568.17	0.62
360	60000	578.92	0.64
360	70000	588.19	0.65
360	80000	596.75	0.66
360	90000	604.39	0.66
360	100000	611.7	1.17
360	120000	624.5	1.2
360	140000	635.8	1.22
360	160000	645.85	1.24
360	180000	655.11	1.25
360	200000	663.39	1.27
380	3000	422.97	0.47
380	5000	441.54	0.49
380	10000	469.14	0.52
380	20000	501.58	0.55
380	30000	522.99	0.58
380	40000	539.38	0.59
380	50000	552.92	0.61
380	60000	564.45	0.62
380	70000	574.7	0.63
380	80000	583.67	0.64
380	90000	592.06	0.65
380	100000	599.29	1.21
380	120000	612.95	1.24
380	140000	624.62	1.26
380	160000	635.26	1.28
380	180000	644.86	1.3
380	200000	653.7	1.32
380	3000	422.93	0.47
380	5000	441.32	0.49
380	10000	468.99	0.52
380	20000	501.27	0.55
380	30000	522.56	0.57
380	50000	552.44	0.61
380	100000	599.44	1.21
380	200000	653.25	1.32
400	4000	374.9	0.41
400	5000	394.02	0.43
400	10000	438.72	0.48
400	20000	479.65	0.53
400	30000	504.24	0.55
400	40000	522.85	0.58
400	50000	537.71	0.59
400	60000	550.04	0.61
400	70000	561.13	0.62
400	80000	570.85	0.63
400	90000	579.4	0.64
400	100000	587.43	1.24
400	120000	601.69	1.27
400	140000	614.21	1.3
400	160000	625.04	1.32
400	180000	635.05	1.34
400	200000	644.07	1.36
420	10000	404.86	0.45
420	20000	457.86	0.5
420	30000	486.44	0.54
420	40000	507.08	0.56
420	50000	523.34	0.58
420	60000	537.02	0.59
420	70000	548.69	0.6
420	80000	559.13	0.62
420	90000	568.43	0.63
420	100000	576.8	1.28
420	120000	591.55	1.31
420	140000	604.56	1.34
420	160000	616.21	1.37
420	180000	626.52	1.39
420	200000	635.99	1.41
440	10000	366.35	0.4
440	20000	435.91	0.48
440	30000	469.37	0.52
440	40000	492.27	0.54
440	50000	510.21	0.56
440	60000	524.88	0.58
440	70000	537.25	0.59
440	80000	548.44	0.6
440	90000	558.09	0.61
440	100000	567	1.31
440	120000	582.66	1.35
440	140000	595.99	1.38
440	160000	608.09	1.41
440	180000	618.72	1.43
440	200000	628.4	1.46
