Measured thermophysical data. Investigation on molecular interaction of amino acids in aqueous disodium hydrogen phosphate solutions with reference to volumetric and compressibility measurements
Source: J. Chem. Thermodyn., 2014, 10.1016/j.jct.2013.11.015
Compound 1: 2-aminoacetic acid, C2H5NO2, InChI=1S/C2H5NO2/c3-1-2(4)5/h1,3H2,(H,4,5), purity 99%
Compound 2: disodium hydrogen phosphate, HNa2O4P, InChI=1S/2Na.H3O4P/c;;1-5(2,3)4/h;;(H3,1,2,3,4)/q2*+1;/p-2, purity 98%
Compound 3: (S)-2-aminopropanoic acid, C3H7NO2, InChI=1S/C3H7NO2/c1-2(4)3(5)6/h2H,4H2,1H3,(H,5,6)/t2-/m0/s1, purity 99%
Compound 4: L-valine, C5H11NO2, InChI=1S/C5H11NO2/c1-3(2)4(6)5(7)8/h3-4H,6H2,1-2H3,(H,7,8)/t4-/m0/s1, purity 99%
Compound 5: water, H2O, InChI=1S/H2O/h1H2

System: water; phases: Liquid
Fixed: Pressure, kPa = 101
Property: Mass density, kg/m3 (Liquid); method: Vibrating tube method
Temperature, K	Mass density, kg/m3	uncertainty
288.15	999.11	0.256
293.15	998.211	0.256
298.15	997.047	0.256
303.15	995.656	0.256
308.15	994.039	0.256

System: water; phases: Liquid
Fixed: Pressure, kPa = 101
Property: Speed of sound, m/s (Liquid); method: Sing-around technique in a fixed-path interferometer
Temperature, K	Speed of sound, m/s	uncertainty
288.15	1463.12	1.64
293.15	1481.14	1.64
298.15	1495.85	1.63
303.15	1508.84	1.63
308.15	1519.14	1.63

System: 2-aminoacetic acid + disodium hydrogen phosphate + water; phases: Liquid
Fixed: Pressure, kPa = 101
Property: Mass density, kg/m3 (Liquid); method: Vibrating tube method
Solvent: Molality, mol/kg of disodium hydrogen phosphate	Temperature, K	Molality, mol/kg of 2-aminoacetic acid	Mass density, kg/m3	uncertainty
0	288.15	0	999.11	0.256
0	288.15	0.02249	999.86	0.256
0	288.15	0.04798	1000.707	0.257
0	288.15	0.11242	1002.839	0.259
0	288.15	0.20215	1005.783	0.261
0	288.15	0.30145	1009.013	0.264
0	288.15	0.41338	1012.613	0.267
0	288.15	0.49167	1015.105	0.269
0	288.15	0.59779	1018.458	0.272
0	288.15	0.69326	1021.45	0.274
0	288.15	0.79965	1024.739	0.277
0.2	288.15	0	1026.936	0.279
0.2	288.15	0.01377	1027.343	0.28
0.2	288.15	0.04788	1028.346	0.28
0.2	288.15	0.0994	1029.853	0.282
0.2	288.15	0.19597	1032.65	0.284
0.2	288.15	0.29465	1035.473	0.287
0.2	288.15	0.40523	1038.598	0.289
0.2	288.15	0.50857	1041.479	0.292
0.2	288.15	0.61162	1044.314	0.294
0.2	288.15	0.70182	1046.761	0.296
0.2	288.15	0.81152	1049.701	0.299
0.4	288.15	0	1055.081	0.303
0.4	288.15	0.01064	1055.377	0.304
0.4	288.15	0.05406	1056.579	0.304
0.4	288.15	0.10064	1057.862	0.306
0.4	288.15	0.20156	1060.615	0.308
0.4	288.15	0.29886	1063.235	0.31
0.4	288.15	0.40222	1065.983	0.313
0.4	288.15	0.49539	1068.425	0.315
0.4	288.15	0.59913	1071.116	0.317
0.4	288.15	0.6983	1073.66	0.319
0.4	288.15	0.80114	1076.253	0.322
0.6	288.15	0	1076.596	0.322
0.6	288.15	0.00906	1076.825	0.322
0.6	288.15	0.04869	1077.824	0.323
0.6	288.15	0.09919	1079.09	0.324
0.6	288.15	0.19552	1081.479	0.326
0.6	288.15	0.30186	1084.08	0.329
0.6	288.15	0.39903	1086.425	0.331
0.6	288.15	0.50149	1088.862	0.333
0.6	288.15	0.60971	1091.401	0.335
0.6	288.15	0.68953	1093.237	0.337
0.6	288.15	0.77237	1095.128	0.339
0	293.15	0	998.211	0.256
0	293.15	0.02249	998.956	0.256
0	293.15	0.04798	999.797	0.256
0	293.15	0.11242	1001.915	0.258
0	293.15	0.20215	1004.841	0.26
0	293.15	0.30145	1008.049	0.263
0	293.15	0.41338	1011.628	0.266
0	293.15	0.49167	1014.101	0.268
0	293.15	0.59779	1017.431	0.271
0	293.15	0.69326	1020.391	0.274
0	293.15	0.79965	1023.659	0.276
0.2	293.15	0	1025.741	0.278
0.2	293.15	0.01377	1026.14	0.279
0.2	293.15	0.04788	1027.123	0.279
0.2	293.15	0.0994	1028.6	0.281
0.2	293.15	0.19597	1031.343	0.283
0.2	293.15	0.29465	1034.11	0.285
0.2	293.15	0.40523	1037.169	0.288
0.2	293.15	0.50857	1039.994	0.29
0.2	293.15	0.61162	1042.771	0.293
0.2	293.15	0.70182	1045.171	0.295
0.2	293.15	0.81152	1048.053	0.297
0.4	293.15	0	1053.625	0.302
0.4	293.15	0.01064	1053.915	0.302
0.4	293.15	0.05406	1055.093	0.303
0.4	293.15	0.10064	1056.348	0.305
0.4	293.15	0.20156	1059.045	0.307
0.4	293.15	0.29886	1061.608	0.309
0.4	293.15	0.40222	1064.298	0.312
0.4	293.15	0.49539	1066.691	0.314
0.4	293.15	0.59913	1069.322	0.316
0.4	293.15	0.6983	1071.808	0.318
0.4	293.15	0.80114	1074.356	0.32
0.6	293.15	0	1075.016	0.321
0.6	293.15	0.00906	1075.241	0.321
0.6	293.15	0.04869	1076.22	0.322
0.6	293.15	0.09919	1077.46	0.323
0.6	293.15	0.19552	1079.802	0.325
0.6	293.15	0.30186	1082.35	0.327
0.6	293.15	0.39903	1084.646	0.329
0.6	293.15	0.50149	1087.032	0.331
0.6	293.15	0.60971	1089.516	0.334
0.6	293.15	0.68953	1091.32	0.335
0.6	293.15	0.77237	1093.164	0.337
0	298.15	0	997.047	0.256
0	298.15	0.02249	997.788	0.256
0	298.15	0.04798	998.626	0.256
0	298.15	0.11242	1000.733	0.257
0	298.15	0.20215	1003.643	0.259
0	298.15	0.30145	1006.833	0.262
0	298.15	0.41338	1010.388	0.265
0	298.15	0.49167	1012.85	0.267
0	298.15	0.59779	1016.161	0.27
0	298.15	0.69326	1019.102	0.273
0	298.15	0.79965	1022.353	0.275
0.2	298.15	0	1024.323	0.277
0.2	298.15	0.01377	1024.713	0.277
0.2	298.15	0.04788	1025.674	0.278
0.2	298.15	0.0994	1027.119	0.279
0.2	298.15	0.19597	1029.8	0.282
0.2	298.15	0.29465	1032.504	0.284
0.2	298.15	0.40523	1035.498	0.287
0.2	298.15	0.50857	1038.255	0.289
0.2	298.15	0.61162	1040.965	0.291
0.2	298.15	0.70182	1043.301	0.293
0.2	298.15	0.81152	1046.118	0.296
0.4	298.15	0	1051.974	0.301
0.4	298.15	0.01064	1052.258	0.301
0.4	298.15	0.05406	1053.415	0.302
0.4	298.15	0.10064	1054.648	0.303
0.4	298.15	0.20156	1057.294	0.306
0.4	298.15	0.29886	1059.812	0.308
0.4	298.15	0.40222	1062.455	0.31
0.4	298.15	0.49539	1064.804	0.312
0.4	298.15	0.59913	1067.39	0.314
0.4	298.15	0.6983	1069.821	0.316
0.4	298.15	0.80114	1072.315	0.319
0.6	298.15	0	1073.224	0.319
0.6	298.15	0.00906	1073.445	0.32
0.6	298.15	0.04869	1074.408	0.32
0.6	298.15	0.09919	1075.627	0.321
0.6	298.15	0.19552	1077.928	0.324
0.6	298.15	0.30186	1080.431	0.326
0.6	298.15	0.39903	1082.687	0.328
0.6	298.15	0.50149	1085.029	0.33
0.6	298.15	0.60971	1087.466	0.332
0.6	298.15	0.68953	1089.238	0.334
0.6	298.15	0.77237	1091.066	0.335
0	303.15	0	995.656	0.256
0	303.15	0.02249	996.393	0.256
0	303.15	0.04798	997.226	0.256
0	303.15	0.11242	999.321	0.256
0	303.15	0.20215	1002.216	0.258
0	303.15	0.30145	1005.388	0.261
0	303.15	0.41338	1008.928	0.264
0	303.15	0.49167	1011.377	0.266
0	303.15	0.59779	1014.67	0.269
0	303.15	0.69326	1017.602	0.271
0	303.15	0.79965	1020.838	0.274
0.2	303.15	0	1022.7	0.276
0.2	303.15	0.01377	1023.082	0.276
0.2	303.15	0.04788	1024.023	0.277
0.2	303.15	0.0994	1025.437	0.278
0.2	303.15	0.19597	1028.061	0.28
0.2	303.15	0.29465	1030.706	0.283
0.2	303.15	0.40523	1033.636	0.285
0.2	303.15	0.50857	1036.33	0.288
0.2	303.15	0.61162	1038.984	0.29
0.2	303.15	0.70182	1041.273	0.292
0.2	303.15	0.81152	1044.018	0.294
0.4	303.15	0	1050.149	0.299
0.4	303.15	0.01064	1050.429	0.3
0.4	303.15	0.05406	1051.568	0.301
0.4	303.15	0.10064	1052.782	0.302
0.4	303.15	0.20156	1055.388	0.304
0.4	303.15	0.29886	1057.869	0.306
0.4	303.15	0.40222	1060.472	0.308
0.4	303.15	0.49539	1062.781	0.31
0.4	303.15	0.59913	1065.327	0.313
0.4	303.15	0.6983	1067.724	0.315
0.4	303.15	0.80114	1070.177	0.317
0.6	303.15	0	1071.254	0.318
0.6	303.15	0.00906	1071.47	0.318
0.6	303.15	0.04869	1072.411	0.319
0.6	303.15	0.09919	1073.602	0.32
0.6	303.15	0.19552	1075.849	0.322
0.6	303.15	0.30186	1078.296	0.324
0.6	303.15	0.39903	1080.495	0.326
0.6	303.15	0.50149	1082.785	0.328
0.6	303.15	0.60971	1085.171	0.33
0.6	303.15	0.68953	1086.892	0.332
0.6	303.15	0.77237	1088.659	0.333
0	308.15	0	994.039	0.256
0	308.15	0.02249	994.771	0.256
0	308.15	0.04798	995.599	0.256
0	308.15	0.11242	997.681	0.256
0	308.15	0.20215	1000.558	0.257
0	308.15	0.30145	1003.71	0.26
0	308.15	0.41338	1007.23	0.263
0	308.15	0.49167	1009.663	0.265
0	308.15	0.59779	1012.938	0.268
0	308.15	0.69326	1015.847	0.27
0	308.15	0.79965	1019.06	0.273
0.2	308.15	0	1020.892	0.274
0.2	308.15	0.01377	1021.266	0.275
0.2	308.15	0.04788	1022.188	0.275
0.2	308.15	0.0994	1023.573	0.277
0.2	308.15	0.19597	1026.142	0.279
0.2	308.15	0.29465	1028.734	0.281
0.2	308.15	0.40523	1031.597	0.283
0.2	308.15	0.50857	1034.237	0.286
0.2	308.15	0.61162	1036.831	0.288
0.2	308.15	0.70182	1039.066	0.29
0.2	308.15	0.81152	1041.755	0.292
0.4	308.15	0	1048.169	0.3
0.4	308.15	0.01064	1048.444	0.3
0.4	308.15	0.05406	1049.56	0.3
0.4	308.15	0.10064	1050.749	0.301
0.4	308.15	0.20156	1053.303	0.303
0.4	308.15	0.29886	1055.729	0.305
0.4	308.15	0.40222	1058.274	0.308
0.4	308.15	0.49539	1060.536	0.31
0.4	308.15	0.59913	1063.02	0.312
0.4	308.15	0.6983	1065.367	0.314
0.4	308.15	0.80114	1067.772	0.317
0.6	308.15	0	1069.136	0.316
0.6	308.15	0.00906	1069.348	0.316
0.6	308.15	0.04869	1070.272	0.317
0.6	308.15	0.09919	1071.442	0.318
0.6	308.15	0.19552	1073.65	0.32
0.6	308.15	0.30186	1076.053	0.322
0.6	308.15	0.39903	1078.214	0.324
0.6	308.15	0.50149	1080.46	0.326
0.6	308.15	0.60971	1082.802	0.328
0.6	308.15	0.68953	1084.492	0.33
0.6	308.15	0.77237	1086.237	0.331

System: 2-aminoacetic acid + disodium hydrogen phosphate + water; phases: Liquid
Fixed: Pressure, kPa = 101
Property: Speed of sound, m/s (Liquid); method: Sing-around technique in a fixed-path interferometer
Solvent: Molality, mol/kg of disodium hydrogen phosphate	Temperature, K	Molality, mol/kg of 2-aminoacetic acid	Speed of sound, m/s	uncertainty
0	288.15	0	1463.12	1.64
0	288.15	0.02249	1467.75	1.64
0	288.15	0.04798	1469.06	1.63
0	288.15	0.11242	1473.13	1.64
0	288.15	0.20215	1477.62	1.63
0	288.15	0.30145	1483.26	1.64
0	288.15	0.41338	1489.23	1.64
0	288.15	0.49167	1493.24	1.64
0	288.15	0.59779	1499.25	1.64
0	288.15	0.69326	1503.67	1.64
0	288.15	0.79965	1509.45	1.64
0.2	288.15	0	1502.93	1.64
0.2	288.15	0.01377	1503.44	1.64
0.2	288.15	0.04788	1505.27	1.64
0.2	288.15	0.0994	1507.48	1.63
0.2	288.15	0.19597	1512.61	1.64
0.2	288.15	0.29465	1516.87	1.63
0.2	288.15	0.40523	1522.69	1.64
0.2	288.15	0.50857	1527.22	1.63
0.2	288.15	0.61162	1533	1.64
0.2	288.15	0.70182	1536.57	1.63
0.2	288.15	0.81152	1542.13	1.64
0.4	288.15	0	1539.85	1.65
0.4	288.15	0.01064	1540.36	1.65
0.4	288.15	0.05406	1542.25	1.64
0.4	288.15	0.10064	1544.88	1.65
0.4	288.15	0.20156	1548.54	1.64
0.4	288.15	0.29886	1553.84	1.65
0.4	288.15	0.40222	1557.78	1.64
0.4	288.15	0.49539	1562.09	1.64
0.4	288.15	0.59913	1567	1.64
0.4	288.15	0.6983	1572.69	1.65
0.4	288.15	0.80114	1576.56	1.65
0.6	288.15	0	1568.74	1.64
0.6	288.15	0.00906	1569.1	1.64
0.6	288.15	0.04869	1570.55	1.64
0.6	288.15	0.09919	1572.87	1.64
0.6	288.15	0.19552	1576.71	1.64
0.6	288.15	0.30186	1582.07	1.64
0.6	288.15	0.39903	1586.13	1.64
0.6	288.15	0.50149	1590.82	1.64
0.6	288.15	0.60971	1595.78	1.64
0.6	288.15	0.68953	1599.45	1.64
0.6	288.15	0.77237	1603.31	1.64
0	293.15	0	1481.14	1.64
0	293.15	0.02249	1483.55	1.63
0	293.15	0.04798	1484.8	1.63
0	293.15	0.11242	1489.13	1.64
0	293.15	0.20215	1493.18	1.63
0	293.15	0.30145	1498.92	1.64
0	293.15	0.41338	1504.33	1.64
0	293.15	0.49167	1508.54	1.64
0	293.15	0.59779	1514.39	1.64
0	293.15	0.69326	1518.5	1.64
0	293.15	0.79965	1524.22	1.64
0.2	293.15	0	1517.67	1.64
0.2	293.15	0.01377	1518.5	1.64
0.2	293.15	0.04788	1520.29	1.64
0.2	293.15	0.0994	1521.89	1.64
0.2	293.15	0.19597	1527.36	1.64
0.2	293.15	0.29465	1531.09	1.64
0.2	293.15	0.40523	1537.11	1.64
0.2	293.15	0.50857	1541.08	1.64
0.2	293.15	0.61162	1547.04	1.64
0.2	293.15	0.70182	1549.92	1.64
0.2	293.15	0.81152	1556.82	1.64
0.4	293.15	0	1553.82	1.64
0.4	293.15	0.01064	1554.34	1.64
0.4	293.15	0.05406	1556.13	1.64
0.4	293.15	0.10064	1558.68	1.64
0.4	293.15	0.20156	1561.71	1.64
0.4	293.15	0.29886	1567.32	1.64
0.4	293.15	0.40222	1570.61	1.64
0.4	293.15	0.49539	1575.2	1.64
0.4	293.15	0.59913	1579.93	1.64
0.4	293.15	0.6983	1585.46	1.64
0.4	293.15	0.80114	1589.1	1.64
0.6	293.15	0	1581.52	1.64
0.6	293.15	0.00906	1582.26	1.64
0.6	293.15	0.04869	1583.16	1.64
0.6	293.15	0.09919	1585.84	1.64
0.6	293.15	0.19552	1589.5	1.64
0.6	293.15	0.30186	1594.61	1.64
0.6	293.15	0.39903	1598.5	1.64
0.6	293.15	0.50149	1603.02	1.64
0.6	293.15	0.60971	1607.79	1.64
0.6	293.15	0.68953	1611.3	1.64
0.6	293.15	0.77237	1615.03	1.64
0	298.15	0	1495.85	1.63
0	298.15	0.02249	1497.71	1.63
0	298.15	0.04798	1498.93	1.63
0	298.15	0.11242	1503.18	1.63
0	298.15	0.20215	1507.1	1.63
0	298.15	0.30145	1512.65	1.63
0	298.15	0.41338	1517.9	1.63
0	298.15	0.49167	1521.94	1.63
0	298.15	0.59779	1527.66	1.63
0	298.15	0.69326	1531.61	1.63
0	298.15	0.79965	1537.23	1.63
0.2	298.15	0	1530.83	1.63
0.2	298.15	0.01377	1531.61	1.63
0.2	298.15	0.04788	1533.33	1.63
0.2	298.15	0.0994	1534.88	1.63
0.2	298.15	0.19597	1540.24	1.63
0.2	298.15	0.29465	1543.74	1.63
0.2	298.15	0.40523	1549.66	1.63
0.2	298.15	0.50857	1553.41	1.63
0.2	298.15	0.61162	1559.22	1.63
0.2	298.15	0.70182	1561.95	1.63
0.2	298.15	0.81152	1568.74	1.63
0.4	298.15	0	1565.97	1.63
0.4	298.15	0.01064	1566.46	1.63
0.4	298.15	0.05406	1568.16	1.63
0.4	298.15	0.10064	1570.66	1.63
0.4	298.15	0.20156	1573.48	1.63
0.4	298.15	0.29886	1578.96	1.64
0.4	298.15	0.40222	1582.03	1.64
0.4	298.15	0.49539	1586.51	1.64
0.4	298.15	0.59913	1591.06	1.64
0.4	298.15	0.6983	1596.47	1.64
0.4	298.15	0.80114	1599.89	1.64
0.6	298.15	0	1592.82	1.64
0.6	298.15	0.00906	1593.55	1.64
0.6	298.15	0.04869	1594.33	1.64
0.6	298.15	0.09919	1596.95	1.64
0.6	298.15	0.19552	1600.99	1.64
0.6	298.15	0.30186	1605.37	1.64
0.6	298.15	0.39903	1609.12	1.64
0.6	298.15	0.50149	1613.45	1.64
0.6	298.15	0.60971	1618.03	1.64
0.6	298.15	0.68953	1621.39	1.64
0.6	298.15	0.77237	1625.03	1.64
0	303.15	0	1508.84	1.63
0	303.15	0.02249	1510.07	1.63
0	303.15	0.04798	1511.25	1.63
0	303.15	0.11242	1515.36	1.63
0	303.15	0.20215	1519.19	1.63
0	303.15	0.30145	1524.52	1.63
0	303.15	0.41338	1529.64	1.63
0	303.15	0.49167	1533.57	1.63
0	303.15	0.59779	1539.16	1.63
0	303.15	0.69326	1542.92	1.63
0	303.15	0.79965	1548.46	1.63
0.2	303.15	0	1542.15	1.63
0.2	303.15	0.01377	1542.95	1.63
0.2	303.15	0.04788	1544.39	1.63
0.2	303.15	0.0994	1546.11	1.63
0.2	303.15	0.19597	1551.3	1.63
0.2	303.15	0.29465	1554.66	1.63
0.2	303.15	0.40523	1560.47	1.63
0.2	303.15	0.50857	1564.04	1.63
0.2	303.15	0.61162	1569.73	1.63
0.2	303.15	0.70182	1572.33	1.63
0.2	303.15	0.81152	1579.01	1.63
0.4	303.15	0	1576.35	1.63
0.4	303.15	0.01064	1576.81	1.63
0.4	303.15	0.05406	1578.4	1.63
0.4	303.15	0.10064	1580.87	1.63
0.4	303.15	0.20156	1583.57	1.63
0.4	303.15	0.29886	1588.94	1.63
0.4	303.15	0.40222	1591.8	1.63
0.4	303.15	0.49539	1596.1	1.63
0.4	303.15	0.59913	1600.49	1.63
0.4	303.15	0.6983	1605.86	1.63
0.4	303.15	0.80114	1609.04	1.63
0.6	303.15	0	1602.49	1.63
0.6	303.15	0.00906	1603.12	1.63
0.6	303.15	0.04869	1603.88	1.63
0.6	303.15	0.09919	1606.38	1.63
0.6	303.15	0.19552	1609.71	1.63
0.6	303.15	0.30186	1614.43	1.63
0.6	303.15	0.39903	1618.05	1.63
0.6	303.15	0.50149	1622.2	1.64
0.6	303.15	0.60971	1626.6	1.64
0.6	303.15	0.68953	1629.86	1.64
0.6	303.15	0.77237	1633.42	1.64
0	308.15	0	1519.14	1.63
0	308.15	0.02249	1520.69	1.63
0	308.15	0.04798	1521.84	1.63
0	308.15	0.11242	1525.69	1.63
0	308.15	0.20215	1529.59	1.63
0	308.15	0.30145	1534.61	1.63
0	308.15	0.41338	1539.75	1.63
0	308.15	0.49167	1543.41	1.63
0	308.15	0.59779	1548.85	1.63
0	308.15	0.69326	1552.74	1.63
0	308.15	0.79965	1557.88	1.63
0.2	308.15	0	1551.96	1.63
0.2	308.15	0.01377	1552.52	1.63
0.2	308.15	0.04788	1554.03	1.63
0.2	308.15	0.0994	1555.69	1.63
0.2	308.15	0.19597	1560.56	1.63
0.2	308.15	0.29465	1563.95	1.63
0.2	308.15	0.40523	1569.59	1.63
0.2	308.15	0.50857	1573.09	1.63
0.2	308.15	0.61162	1578.51	1.63
0.2	308.15	0.70182	1581.14	1.63
0.2	308.15	0.81152	1587.58	1.63
0.4	308.15	0	1585.05	1.63
0.4	308.15	0.01064	1585.34	1.63
0.4	308.15	0.05406	1586.87	1.63
0.4	308.15	0.10064	1589.35	1.63
0.4	308.15	0.20156	1592.05	1.63
0.4	308.15	0.29886	1597.18	1.63
0.4	308.15	0.40222	1599.99	1.63
0.4	308.15	0.49539	1603.99	1.63
0.4	308.15	0.59913	1608.25	1.63
0.4	308.15	0.6983	1613.68	1.63
0.4	308.15	0.80114	1616.51	1.63
0.6	308.15	0	1610.59	1.63
0.6	308.15	0.00906	1610.97	1.63
0.6	308.15	0.04869	1611.86	1.63
0.6	308.15	0.09919	1614.11	1.63
0.6	308.15	0.19552	1617.18	1.63
0.6	308.15	0.30186	1621.75	1.63
0.6	308.15	0.39903	1625.31	1.63
0.6	308.15	0.50149	1629.23	1.63
0.6	308.15	0.60971	1633.49	1.64
0.6	308.15	0.68953	1636.66	1.64
0.6	308.15	0.77237	1640.27	1.64

System: (S)-2-aminopropanoic acid + disodium hydrogen phosphate + water; phases: Liquid
Fixed: Pressure, kPa = 101
Property: Mass density, kg/m3 (Liquid); method: Vibrating tube method
Solvent: Molality, mol/kg of disodium hydrogen phosphate	Temperature, K	Molality, mol/kg of (S)-2-aminopropanoic acid	Mass density, kg/m3	uncertainty
0	288.15	0	999.11	0.256
0	288.15	0.01	999.428	0.256
0	288.15	0.05495	1000.854	0.257
0	288.15	0.10427	1002.409	0.258
0	288.15	0.19999	1005.398	0.261
0	288.15	0.28925	1008.15	0.263
0	288.15	0.40032	1011.532	0.266
0	288.15	0.50136	1014.566	0.269
0	288.15	0.59556	1017.355	0.271
0	288.15	0.69452	1020.248	0.273
0	288.15	0.79468	1023.139	0.276
0.2	288.15	0	1026.936	0.279
0.2	288.15	0.01379	1027.334	0.28
0.2	288.15	0.05421	1028.496	0.281
0.2	288.15	0.09721	1029.725	0.282
0.2	288.15	0.20597	1032.798	0.284
0.2	288.15	0.30026	1035.421	0.287
0.2	288.15	0.40213	1038.212	0.289
0.2	288.15	0.51585	1041.306	0.292
0.2	288.15	0.59761	1043.478	0.294
0.2	288.15	0.69922	1046.147	0.296
0.2	288.15	0.79952	1048.737	0.298
0.4	288.15	0	1055.081	0.303
0.4	288.15	0.01274	1055.422	0.303
0.4	288.15	0.05138	1056.451	0.304
0.4	288.15	0.10094	1057.762	0.305
0.4	288.15	0.20073	1060.37	0.308
0.4	288.15	0.29378	1062.767	0.31
0.4	288.15	0.39925	1065.439	0.312
0.4	288.15	0.50883	1068.169	0.315
0.4	288.15	0.59563	1070.291	0.316
0.4	288.15	0.69738	1072.753	0.319
0.4	288.15	0.78197	1074.758	0.32
0.6	288.15	0	1076.596	0.322
0.6	288.15	0.01093	1076.867	0.322
0.6	288.15	0.05177	1077.873	0.323
0.6	288.15	0.10093	1079.074	0.324
0.6	288.15	0.19822	1081.425	0.326
0.6	288.15	0.29638	1083.757	0.329
0.6	288.15	0.39755	1086.118	0.331
0.6	288.15	0.49303	1088.311	0.333
0.6	288.15	0.59884	1090.702	0.335
0.6	288.15	0.69718	1092.883	0.337
0.6	288.15	0.79656	1095.056	0.339
0	293.15	0	998.211	0.256
0	293.15	0.01	998.527	0.256
0	293.15	0.05495	999.944	0.256
0	293.15	0.10427	1001.49	0.258
0	293.15	0.19999	1004.46	0.26
0	293.15	0.28925	1007.196	0.262
0	293.15	0.40032	1010.558	0.265
0	293.15	0.50136	1013.571	0.268
0	293.15	0.59556	1016.345	0.27
0	293.15	0.69452	1019.222	0.273
0	293.15	0.79468	1022.097	0.275
0.2	293.15	0	1025.741	0.278
0.2	293.15	0.01379	1026.131	0.279
0.2	293.15	0.05421	1027.271	0.28
0.2	293.15	0.09721	1028.477	0.281
0.2	293.15	0.20597	1031.492	0.283
0.2	293.15	0.30026	1034.065	0.285
0.2	293.15	0.40213	1036.803	0.288
0.2	293.15	0.51585	1039.816	0.29
0.2	293.15	0.59761	1041.941	0.292
0.2	293.15	0.69922	1044.548	0.294
0.2	293.15	0.79952	1047.09	0.297
0.4	293.15	0	1053.625	0.302
0.4	293.15	0.01274	1053.959	0.302
0.4	293.15	0.05138	1054.969	0.303
0.4	293.15	0.10094	1056.256	0.305
0.4	293.15	0.20073	1058.815	0.307
0.4	293.15	0.29378	1061.164	0.309
0.4	293.15	0.39925	1063.786	0.311
0.4	293.15	0.50883	1066.462	0.313
0.4	293.15	0.59563	1068.548	0.315
0.4	293.15	0.69738	1070.955	0.317
0.4	293.15	0.78197	1072.921	0.319
0.6	293.15	0	1075.016	0.321
0.6	293.15	0.01093	1075.28	0.321
0.6	293.15	0.05177	1076.261	0.322
0.6	293.15	0.10093	1077.432	0.323
0.6	293.15	0.19822	1079.72	0.325
0.6	293.15	0.29638	1081.991	0.327
0.6	293.15	0.39755	1084.292	0.329
0.6	293.15	0.49303	1086.424	0.331
0.6	293.15	0.59884	1088.751	0.333
0.6	293.15	0.69718	1090.873	0.335
0.6	293.15	0.79656	1092.986	0.337
0	298.15	0	997.047	0.256
0	298.15	0.01	997.361	0.256
0	298.15	0.05495	998.77	0.256
0	298.15	0.10427	1000.306	0.257
0	298.15	0.19999	1003.258	0.259
0	298.15	0.28925	1005.975	0.261
0	298.15	0.40032	1009.312	0.264
0	298.15	0.50136	1012.305	0.267
0	298.15	0.59556	1015.06	0.269
0	298.15	0.69452	1017.919	0.272
0	298.15	0.79468	1020.772	0.274
0.2	298.15	0	1024.323	0.277
0.2	298.15	0.01379	1024.705	0.277
0.2	298.15	0.05421	1025.821	0.278
0.2	298.15	0.09721	1026.999	0.279
0.2	298.15	0.20597	1029.947	0.282
0.2	298.15	0.30026	1032.461	0.284
0.2	298.15	0.40213	1035.138	0.286
0.2	298.15	0.51585	1038.082	0.289
0.2	298.15	0.59761	1040.158	0.291
0.2	298.15	0.69922	1042.712	0.293
0.2	298.15	0.79952	1045.187	0.295
0.4	298.15	0	1051.974	0.301
0.4	298.15	0.01274	1052.301	0.301
0.4	298.15	0.05138	1053.287	0.302
0.4	298.15	0.10094	1054.543	0.303
0.4	298.15	0.20073	1057.043	0.305
0.4	298.15	0.29378	1059.338	0.307
0.4	298.15	0.39925	1061.896	0.31
0.4	298.15	0.50883	1064.507	0.312
0.4	298.15	0.59563	1066.536	0.314
0.4	298.15	0.69738	1068.887	0.316
0.4	298.15	0.78197	1070.805	0.317
0.6	298.15	0	1073.224	0.319
0.6	298.15	0.01093	1073.482	0.32
0.6	298.15	0.05177	1074.442	0.32
0.6	298.15	0.10093	1075.589	0.321
0.6	298.15	0.19822	1077.83	0.323
0.6	298.15	0.29638	1080.055	0.325
0.6	298.15	0.39755	1082.308	0.327
0.6	298.15	0.49303	1084.399	0.329
0.6	298.15	0.59884	1086.677	0.331
0.6	298.15	0.69718	1088.756	0.333
0.6	298.15	0.79656	1090.822	0.335
0	303.15	0	995.656	0.256
0	303.15	0.01	995.969	0.256
0	303.15	0.05495	997.368	0.256
0	303.15	0.10427	998.894	0.256
0	303.15	0.19999	1001.824	0.258
0	303.15	0.28925	1004.524	0.26
0	303.15	0.40032	1007.84	0.263
0	303.15	0.50136	1010.815	0.266
0	303.15	0.59556	1013.551	0.268
0	303.15	0.69452	1016.389	0.27
0	303.15	0.79468	1019.221	0.273
0.2	303.15	0	1022.7	0.276
0.2	303.15	0.01379	1023.075	0.276
0.2	303.15	0.05421	1024.169	0.277
0.2	303.15	0.09721	1025.325	0.278
0.2	303.15	0.20597	1028.215	0.281
0.2	303.15	0.30026	1030.681	0.283
0.2	303.15	0.40213	1033.306	0.285
0.2	303.15	0.51585	1036.201	0.287
0.2	303.15	0.59761	1038.242	0.289
0.2	303.15	0.69922	1040.741	0.291
0.2	303.15	0.79952	1043.17	0.294
0.4	303.15	0	1050.149	0.299
0.4	303.15	0.01274	1050.467	0.3
0.4	303.15	0.05138	1051.429	0.301
0.4	303.15	0.10094	1052.653	0.302
0.4	303.15	0.20073	1055.089	0.304
0.4	303.15	0.29378	1057.324	0.306
0.4	303.15	0.39925	1059.82	0.308
0.4	303.15	0.50883	1062.368	0.31
0.4	303.15	0.59563	1064.344	0.312
0.4	303.15	0.69738	1066.632	0.314
0.4	303.15	0.78197	1068.495	0.316
0.6	303.15	0	1071.254	0.318
0.6	303.15	0.01093	1071.507	0.318
0.6	303.15	0.05177	1072.449	0.319
0.6	303.15	0.10093	1073.574	0.32
0.6	303.15	0.19822	1075.772	0.322
0.6	303.15	0.29638	1077.951	0.324
0.6	303.15	0.39755	1080.157	0.326
0.6	303.15	0.49303	1082.207	0.327
0.6	303.15	0.59884	1084.442	0.329
0.6	303.15	0.69718	1086.472	0.331
0.6	303.15	0.79656	1088.487	0.333
0	308.15	0	994.039	0.256
0	308.15	0.01	994.35	0.256
0	308.15	0.05495	995.742	0.256
0	308.15	0.10427	997.259	0.256
0	308.15	0.19999	1000.174	0.257
0	308.15	0.28925	1002.86	0.259
0	308.15	0.40032	1006.158	0.262
0	308.15	0.50136	1009.114	0.264
0	308.15	0.59556	1011.836	0.267
0	308.15	0.69452	1014.655	0.269
0	308.15	0.79468	1017.474	0.271
0.2	308.15	0	1020.892	0.274
0.2	308.15	0.01379	1021.259	0.275
0.2	308.15	0.05421	1022.332	0.275
0.2	308.15	0.09721	1023.464	0.276
0.2	308.15	0.20597	1026.296	0.279
0.2	308.15	0.30026	1028.715	0.281
0.2	308.15	0.40213	1031.284	0.283
0.2	308.15	0.51585	1034.106	0.286
0.2	308.15	0.59761	1036.095	0.287
0.2	308.15	0.69922	1038.546	0.289
0.2	308.15	0.79952	1040.923	0.291
0.4	308.15	0	1048.169	0.3
0.4	308.15	0.01274	1048.48	0.299
0.4	308.15	0.05138	1049.418	0.3
0.4	308.15	0.10094	1050.613	0.301
0.4	308.15	0.20073	1052.991	0.303
0.4	308.15	0.29378	1055.17	0.305
0.4	308.15	0.39925	1057.602	0.307
0.4	308.15	0.50883	1060.084	0.309
0.4	308.15	0.59563	1062.011	0.311
0.4	308.15	0.69738	1064.242	0.313
0.4	308.15	0.78197	1066.058	0.315
0.6	308.15	0	1069.136	0.316
0.6	308.15	0.01093	1069.383	0.316
0.6	308.15	0.05177	1070.304	0.317
0.6	308.15	0.10093	1071.403	0.318
0.6	308.15	0.19822	1073.554	0.32
0.6	308.15	0.29638	1075.686	0.322
0.6	308.15	0.39755	1077.845	0.324
0.6	308.15	0.49303	1079.849	0.325
0.6	308.15	0.59884	1082.032	0.327
0.6	308.15	0.69718	1084.025	0.329
0.6	308.15	0.79656	1086	0.331

System: (S)-2-aminopropanoic acid + disodium hydrogen phosphate + water; phases: Liquid
Fixed: Pressure, kPa = 101
Property: Speed of sound, m/s (Liquid); method: Sing-around technique in a fixed-path interferometer
Solvent: Molality, mol/kg of disodium hydrogen phosphate	Temperature, K	Molality, mol/kg of (S)-2-aminopropanoic acid	Speed of sound, m/s	uncertainty
0	288.15	0	1463.12	1.64
0	288.15	0.01	1467.29	1.64
0	288.15	0.05495	1470.36	1.64
0	288.15	0.10427	1473.79	1.64
0	288.15	0.19999	1480.51	1.64
0	288.15	0.28925	1486.57	1.64
0	288.15	0.40032	1494.03	1.64
0	288.15	0.50136	1500.79	1.64
0	288.15	0.59556	1506.91	1.63
0	288.15	0.69452	1514	1.64
0	288.15	0.79468	1519.71	1.64
0.2	288.15	0	1502.93	1.64
0.2	288.15	0.01379	1503.63	1.63
0.2	288.15	0.05421	1506.18	1.64
0.2	288.15	0.09721	1509.31	1.64
0.2	288.15	0.20597	1516.12	1.64
0.2	288.15	0.30026	1521.98	1.63
0.2	288.15	0.40213	1528.58	1.64
0.2	288.15	0.51585	1536.13	1.64
0.2	288.15	0.59761	1541.76	1.64
0.2	288.15	0.69922	1549.41	1.64
0.2	288.15	0.79952	1554.53	1.64
0.4	288.15	0	1539.85	1.65
0.4	288.15	0.01274	1541.16	1.65
0.4	288.15	0.05138	1544.19	1.65
0.4	288.15	0.10094	1545.98	1.64
0.4	288.15	0.20073	1553.1	1.65
0.4	288.15	0.29378	1558.24	1.64
0.4	288.15	0.39925	1566.1	1.65
0.4	288.15	0.50883	1571.88	1.64
0.4	288.15	0.59563	1577.04	1.64
0.4	288.15	0.69738	1582.96	1.64
0.4	288.15	0.78197	1588.04	1.65
0.6	288.15	0	1568.74	1.64
0.6	288.15	0.01093	1570	1.64
0.6	288.15	0.05177	1572.12	1.64
0.6	288.15	0.10093	1575.31	1.64
0.6	288.15	0.19822	1581.4	1.64
0.6	288.15	0.29638	1588.26	1.64
0.6	288.15	0.39755	1594.38	1.64
0.6	288.15	0.49303	1601.03	1.64
0.6	288.15	0.59884	1606.17	1.64
0.6	288.15	0.69718	1612.56	1.64
0.6	288.15	0.79656	1616.35	1.64
0	293.15	0	1481.14	1.64
0	293.15	0.01	1483.24	1.63
0	293.15	0.05495	1486.39	1.64
0	293.15	0.10427	1489.4	1.63
0	293.15	0.19999	1496.21	1.64
0	293.15	0.28925	1501.9	1.63
0	293.15	0.40032	1509.19	1.64
0	293.15	0.50136	1515.65	1.64
0	293.15	0.59556	1521.25	1.63
0	293.15	0.69452	1528.19	1.64
0	293.15	0.79468	1533.85	1.64
0.2	293.15	0	1517.67	1.64
0.2	293.15	0.01379	1518.16	1.64
0.2	293.15	0.05421	1521.12	1.64
0.2	293.15	0.09721	1523.63	1.64
0.2	293.15	0.20597	1530.66	1.64
0.2	293.15	0.30026	1535.76	1.64
0.2	293.15	0.40213	1542.66	1.64
0.2	293.15	0.51585	1549.9	1.64
0.2	293.15	0.59761	1555.29	1.64
0.2	293.15	0.69922	1562.7	1.64
0.2	293.15	0.79952	1567.61	1.64
0.4	293.15	0	1553.82	1.64
0.4	293.15	0.01274	1555.1	1.64
0.4	293.15	0.05138	1557.99	1.64
0.4	293.15	0.10094	1559.7	1.64
0.4	293.15	0.20073	1566.55	1.64
0.4	293.15	0.29378	1571.49	1.64
0.4	293.15	0.39925	1579.08	1.64
0.4	293.15	0.50883	1584.54	1.64
0.4	293.15	0.59563	1589.48	1.64
0.4	293.15	0.69738	1594.7	1.64
0.4	293.15	0.78197	1600.02	1.64
0.6	293.15	0	1581.52	1.64
0.6	293.15	0.01093	1583.03	1.64
0.6	293.15	0.05177	1585.09	1.64
0.6	293.15	0.10093	1588.1	1.64
0.6	293.15	0.19822	1593.97	1.64
0.6	293.15	0.29638	1600.57	1.64
0.6	293.15	0.39755	1606.38	1.64
0.6	293.15	0.49303	1612.84	1.64
0.6	293.15	0.59884	1617.68	1.64
0.6	293.15	0.69718	1623.48	1.64
0.6	293.15	0.79656	1627.42	1.64
0	298.15	0	1495.85	1.63
0	298.15	0.01	1497.39	1.63
0	298.15	0.05495	1500.56	1.63
0	298.15	0.10427	1503.38	1.63
0	298.15	0.19999	1510.06	1.63
0	298.15	0.28925	1515.39	1.63
0	298.15	0.40032	1522.45	1.63
0	298.15	0.50136	1528.69	1.63
0	298.15	0.59556	1534.06	1.63
0	298.15	0.69452	1540.78	1.63
0	298.15	0.79468	1546.25	1.63
0.2	298.15	0	1530.83	1.63
0.2	298.15	0.01379	1531.26	1.63
0.2	298.15	0.05421	1534.13	1.63
0.2	298.15	0.09721	1536.51	1.63
0.2	298.15	0.20597	1543.31	1.63
0.2	298.15	0.30026	1548.18	1.63
0.2	298.15	0.40213	1554.87	1.63
0.2	298.15	0.51585	1561.8	1.63
0.2	298.15	0.59761	1567.02	1.63
0.2	298.15	0.69922	1574.25	1.63
0.2	298.15	0.79952	1578.93	1.63
0.4	298.15	0	1565.97	1.63
0.4	298.15	0.01274	1567.17	1.63
0.4	298.15	0.05138	1569.94	1.63
0.4	298.15	0.10094	1571.57	1.63
0.4	298.15	0.20073	1578.14	1.63
0.4	298.15	0.29378	1582.9	1.64
0.4	298.15	0.39925	1590.3	1.64
0.4	298.15	0.50883	1595.39	1.64
0.4	298.15	0.59563	1600.14	1.64
0.4	298.15	0.69738	1605.1	1.64
0.4	298.15	0.78197	1610.29	1.64
0.6	298.15	0	1592.82	1.64
0.6	298.15	0.01093	1594.28	1.64
0.6	298.15	0.05177	1596.22	1.64
0.6	298.15	0.10093	1599.12	1.64
0.6	298.15	0.19822	1604.75	1.64
0.6	298.15	0.29638	1611.08	1.64
0.6	298.15	0.39755	1616.66	1.64
0.6	298.15	0.49303	1622.87	1.64
0.6	298.15	0.59884	1627.45	1.64
0.6	298.15	0.69718	1633.02	1.64
0.6	298.15	0.79656	1636.81	1.64
0	303.15	0	1508.84	1.63
0	303.15	0.01	1509.72	1.63
0	303.15	0.05495	1512.78	1.63
0	303.15	0.10427	1515.53	1.63
0	303.15	0.19999	1521.97	1.63
0	303.15	0.28925	1527.11	1.63
0	303.15	0.40032	1533.98	1.63
0	303.15	0.50136	1539.98	1.63
0	303.15	0.59556	1545.18	1.63
0	303.15	0.69452	1551.68	1.63
0	303.15	0.79468	1556.88	1.63
0.2	303.15	0	1542.15	1.63
0.2	303.15	0.01379	1542.64	1.63
0.2	303.15	0.05421	1545.35	1.63
0.2	303.15	0.09721	1547.68	1.63
0.2	303.15	0.20597	1554.16	1.63
0.2	303.15	0.30026	1558.88	1.63
0.2	303.15	0.40213	1565.33	1.63
0.2	303.15	0.51585	1572	1.63
0.2	303.15	0.59761	1577.01	1.63
0.2	303.15	0.69922	1584.08	1.63
0.2	303.15	0.79952	1588.56	1.63
0.4	303.15	0	1576.35	1.63
0.4	303.15	0.01274	1577.46	1.63
0.4	303.15	0.05138	1580.1	1.63
0.4	303.15	0.10094	1581.67	1.63
0.4	303.15	0.20073	1587.99	1.63
0.4	303.15	0.29378	1592.56	1.63
0.4	303.15	0.39925	1599.85	1.63
0.4	303.15	0.50883	1604.57	1.63
0.4	303.15	0.59563	1609.14	1.63
0.4	303.15	0.69738	1613.94	1.63
0.4	303.15	0.78197	1618.91	1.63
0.6	303.15	0	1602.49	1.63
0.6	303.15	0.01093	1603.82	1.63
0.6	303.15	0.05177	1605.63	1.63
0.6	303.15	0.10093	1608.44	1.63
0.6	303.15	0.19822	1613.83	1.63
0.6	303.15	0.29638	1619.89	1.63
0.6	303.15	0.39755	1625.25	1.64
0.6	303.15	0.49303	1631.37	1.64
0.6	303.15	0.59884	1635.6	1.64
0.6	303.15	0.69718	1640.95	1.64
0.6	303.15	0.79656	1644.59	1.64
0	308.15	0	1519.14	1.63
0	308.15	0.01	1520.35	1.63
0	308.15	0.05495	1523.13	1.63
0	308.15	0.10427	1525.98	1.63
0	308.15	0.19999	1531.99	1.63
0	308.15	0.28925	1537.18	1.63
0	308.15	0.40032	1543.67	1.63
0	308.15	0.50136	1549.5	1.63
0	308.15	0.59556	1554.68	1.63
0	308.15	0.69452	1560.99	1.63
0	308.15	0.79468	1565.84	1.63
0.2	308.15	0	1551.96	1.63
0.2	308.15	0.01379	1552.35	1.63
0.2	308.15	0.05421	1554.77	1.63
0.2	308.15	0.09721	1557.18	1.63
0.2	308.15	0.20597	1563.25	1.63
0.2	308.15	0.30026	1567.98	1.63
0.2	308.15	0.40213	1574.15	1.63
0.2	308.15	0.51585	1580.4	1.63
0.2	308.15	0.59761	1585.25	1.63
0.2	308.15	0.69922	1590.99	1.63
0.2	308.15	0.79952	1596.48	1.63
0.4	308.15	0	1585.05	1.63
0.4	308.15	0.01274	1585.98	1.63
0.4	308.15	0.05138	1588.48	1.63
0.4	308.15	0.10094	1590	1.63
0.4	308.15	0.20073	1596.07	1.63
0.4	308.15	0.29378	1600.5	1.63
0.4	308.15	0.39925	1607.79	1.63
0.4	308.15	0.50883	1612.07	1.63
0.4	308.15	0.59563	1616.47	1.63
0.4	308.15	0.69738	1621.23	1.63
0.4	308.15	0.78197	1625.86	1.63
0.6	308.15	0	1610.59	1.63
0.6	308.15	0.01093	1611.65	1.63
0.6	308.15	0.05177	1613.33	1.63
0.6	308.15	0.10093	1616.07	1.63
0.6	308.15	0.19822	1621.16	1.63
0.6	308.15	0.29638	1627.01	1.63
0.6	308.15	0.39755	1632.27	1.64
0.6	308.15	0.49303	1638.46	1.63
0.6	308.15	0.59884	1642.07	1.64
0.6	308.15	0.69718	1647.25	1.64
0.6	308.15	0.79656	1650.78	1.64

System: L-valine + disodium hydrogen phosphate + water; phases: Liquid
Fixed: Pressure, kPa = 101
Property: Mass density, kg/m3 (Liquid); method: Vibrating tube method
Solvent: Molality, mol/kg of disodium hydrogen phosphate	Temperature, K	Molality, mol/kg of L-valine	Mass density, kg/m3	uncertainty
0	288.15	0	999.11	0.256
0	288.15	0.01042	999.409	0.256
0	288.15	0.01984	999.678	0.256
0	288.15	0.05003	1000.538	0.257
0	288.15	0.09952	1001.936	0.258
0	288.15	0.15024	1003.352	0.259
0	288.15	0.19938	1004.711	0.26
0	288.15	0.24957	1006.083	0.261
0	288.15	0.30345	1007.54	0.263
0	288.15	0.35682	1008.966	0.264
0	288.15	0.39612	1010.004	0.265
0.2	288.15	0	1026.936	0.279
0.2	288.15	0.01058	1027.195	0.279
0.2	288.15	0.05034	1028.165	0.28
0.2	288.15	0.09359	1029.209	0.281
0.2	288.15	0.15326	1030.633	0.282
0.2	288.15	0.20146	1031.768	0.283
0.2	288.15	0.25881	1033.103	0.285
0.2	288.15	0.30187	1034.091	0.285
0.2	288.15	0.35039	1035.193	0.286
0.2	288.15	0.40119	1036.335	0.287
0.2	288.15	0.45359	1037.501	0.288
0.4	288.15	0	1055.081	0.304
0.4	288.15	0.00419	1055.165	0.303
0.4	288.15	0.00972	1055.276	0.304
0.4	288.15	0.05089	1056.095	0.304
0.4	288.15	0.10059	1057.072	0.305
0.4	288.15	0.1546	1058.12	0.306
0.4	288.15	0.19972	1058.984	0.307
0.4	288.15	0.24802	1059.897	0.307
0.4	288.15	0.297	1060.811	0.308
0.4	288.15	0.34671	1061.725	0.309
0.4	288.15	0.39737	1062.645	0.31
0.6	288.15	0	1076.596	0.322
0.6	288.15	0.00305	1076.644	0.322
0.6	288.15	0.01233	1076.791	0.322
0.6	288.15	0.05217	1077.417	0.323
0.6	288.15	0.09718	1078.117	0.324
0.6	288.15	0.14957	1078.919	0.324
0.6	288.15	0.19787	1079.649	0.325
0.6	288.15	0.24521	1080.352	0.326
0.6	288.15	0.30201	1081.184	0.326
0.6	288.15	0.34518	1081.808	0.327
0.6	288.15	0.39773	1082.556	0.327
0	293.15	0	998.211	0.256
0	293.15	0.01042	998.508	0.256
0	293.15	0.01984	998.776	0.256
0	293.15	0.05003	999.631	0.256
0	293.15	0.09952	1001.023	0.257
0	293.15	0.15024	1002.432	0.258
0	293.15	0.19938	1003.784	0.26
0	293.15	0.24957	1005.148	0.261
0	293.15	0.30345	1006.599	0.262
0	293.15	0.35682	1008.019	0.263
0	293.15	0.39612	1009.052	0.264
0.2	293.15	0	1025.741	0.278
0.2	293.15	0.01058	1025.992	0.278
0.2	293.15	0.05034	1026.93	0.279
0.2	293.15	0.09359	1027.94	0.28
0.2	293.15	0.15326	1029.32	0.281
0.2	293.15	0.20146	1030.419	0.282
0.2	293.15	0.25881	1031.711	0.283
0.2	293.15	0.30187	1032.668	0.284
0.2	293.15	0.35039	1033.734	0.285
0.2	293.15	0.40119	1034.837	0.286
0.2	293.15	0.45359	1035.962	0.287
0.4	293.15	0	1053.625	0.303
0.4	293.15	0.00419	1053.707	0.302
0.4	293.15	0.00972	1053.814	0.303
0.4	293.15	0.05089	1054.61	0.303
0.4	293.15	0.10059	1055.56	0.304
0.4	293.15	0.1546	1056.578	0.305
0.4	293.15	0.19972	1057.415	0.306
0.4	293.15	0.24802	1058.301	0.306
0.4	293.15	0.297	1059.189	0.307
0.4	293.15	0.34671	1060.078	0.308
0.4	293.15	0.39737	1060.971	0.309
0.6	293.15	0	1075.016	0.321
0.6	293.15	0.00305	1075.062	0.321
0.6	293.15	0.01233	1075.204	0.321
0.6	293.15	0.05217	1075.806	0.322
0.6	293.15	0.09718	1076.479	0.322
0.6	293.15	0.14957	1077.251	0.323
0.6	293.15	0.19787	1077.951	0.323
0.6	293.15	0.24521	1078.628	0.324
0.6	293.15	0.30201	1079.431	0.325
0.6	293.15	0.34518	1080.028	0.325
0.6	293.15	0.39773	1080.75	0.326
0	298.15	0	997.047	0.256
0	298.15	0.01042	997.342	0.256
0	298.15	0.01984	997.609	0.256
0	298.15	0.05003	998.459	0.256
0	298.15	0.09952	999.842	0.256
0	298.15	0.15024	1001.243	0.257
0	298.15	0.19938	1002.586	0.259
0	298.15	0.24957	1003.942	0.26
0	298.15	0.30345	1005.383	0.261
0	298.15	0.35682	1006.794	0.262
0	298.15	0.39612	1007.819	0.263
0.2	298.15	0	1024.323	0.277
0.2	298.15	0.01058	1024.566	0.277
0.2	298.15	0.05034	1025.475	0.278
0.2	298.15	0.09359	1026.454	0.279
0.2	298.15	0.15326	1027.79	0.28
0.2	298.15	0.20146	1028.853	0.281
0.2	298.15	0.25881	1030.103	0.282
0.2	298.15	0.30187	1031.028	0.283
0.2	298.15	0.35039	1032.059	0.284
0.2	298.15	0.40119	1033.127	0.285
0.2	298.15	0.45359	1034.215	0.286
0.4	298.15	0	1051.974	0.301
0.4	298.15	0.00419	1052.053	0.301
0.4	298.15	0.00972	1052.158	0.301
0.4	298.15	0.05089	1052.931	0.302
0.4	298.15	0.10059	1053.851	0.303
0.4	298.15	0.1546	1054.838	0.303
0.4	298.15	0.19972	1055.65	0.304
0.4	298.15	0.24802	1056.509	0.305
0.4	298.15	0.297	1057.368	0.306
0.4	298.15	0.34671	1058.228	0.306
0.4	298.15	0.39737	1059.093	0.307
0.6	298.15	0	1073.224	0.319
0.6	298.15	0.00305	1073.269	0.319
0.6	298.15	0.01233	1073.404	0.32
0.6	298.15	0.05217	1073.981	0.32
0.6	298.15	0.09718	1074.626	0.321
0.6	298.15	0.14957	1075.366	0.321
0.6	298.15	0.19787	1076.036	0.322
0.6	298.15	0.24521	1076.682	0.322
0.6	298.15	0.30201	1077.452	0.323
0.6	298.15	0.34518	1078.022	0.324
0.6	298.15	0.39773	1078.71	0.324
0	303.15	0	995.656	0.256
0	303.15	0.01042	995.95	0.256
0	303.15	0.01984	996.215	0.256
0	303.15	0.05003	997.061	0.256
0	303.15	0.09952	998.437	0.256
0	303.15	0.15024	999.831	0.257
0	303.15	0.19938	1001.167	0.257
0	303.15	0.24957	1002.516	0.259
0	303.15	0.30345	1003.949	0.26
0	303.15	0.35682	1005.352	0.261
0	303.15	0.39612	1006.373	0.262
0.2	303.15	0	1022.7	0.276
0.2	303.15	0.01058	1022.938	0.276
0.2	303.15	0.05034	1023.828	0.277
0.2	303.15	0.09359	1024.787	0.278
0.2	303.15	0.15326	1026.095	0.279
0.2	303.15	0.20146	1027.134	0.28
0.2	303.15	0.25881	1028.36	0.281
0.2	303.15	0.30187	1029.264	0.281
0.2	303.15	0.35039	1030.271	0.282
0.2	303.15	0.40119	1031.317	0.283
0.2	303.15	0.45359	1032.383	0.284
0.4	303.15	0	1050.149	0.3
0.4	303.15	0.00419	1050.226	0.3
0.4	303.15	0.00972	1050.327	0.3
0.4	303.15	0.05089	1051.078	0.3
0.4	303.15	0.10059	1051.971	0.301
0.4	303.15	0.1546	1052.929	0.302
0.4	303.15	0.19972	1053.718	0.303
0.4	303.15	0.24802	1054.551	0.303
0.4	303.15	0.297	1055.388	0.304
0.4	303.15	0.34671	1056.224	0.305
0.4	303.15	0.39737	1057.065	0.305
0.6	303.15	0	1071.254	0.318
0.6	303.15	0.00305	1071.297	0.318
0.6	303.15	0.01233	1071.427	0.318
0.6	303.15	0.05217	1071.98	0.318
0.6	303.15	0.09718	1072.599	0.319
0.6	303.15	0.14957	1073.308	0.32
0.6	303.15	0.19787	1073.951	0.32
0.6	303.15	0.24521	1074.573	0.321
0.6	303.15	0.30201	1075.307	0.321
0.6	303.15	0.34518	1075.856	0.322
0.6	303.15	0.39773	1076.518	0.322
0	308.15	0	994.039	0.256
0	308.15	0.01042	994.331	0.256
0	308.15	0.01984	994.595	0.256
0	308.15	0.05003	995.436	0.256
0	308.15	0.09952	996.803	0.256
0	308.15	0.15024	998.19	0.256
0	308.15	0.19938	999.518	0.257
0	308.15	0.24957	1000.86	0.257
0	308.15	0.30345	1002.285	0.259
0	308.15	0.35682	1003.681	0.26
0	308.15	0.39612	1004.696	0.261
0.2	308.15	0	1020.892	0.274
0.2	308.15	0.01058	1021.123	0.274
0.2	308.15	0.05034	1021.987	0.275
0.2	308.15	0.09359	1022.918	0.276
0.2	308.15	0.15326	1024.188	0.277
0.2	308.15	0.20146	1025.201	0.278
0.2	308.15	0.25881	1026.388	0.279
0.2	308.15	0.30187	1027.266	0.28
0.2	308.15	0.35039	1028.248	0.281
0.2	308.15	0.40119	1029.263	0.281
0.2	308.15	0.45359	1030.297	0.282
0.4	308.15	0	1048.169	0.3
0.4	308.15	0.00419	1048.243	0.299
0.4	308.15	0.00972	1048.34	0.3
0.4	308.15	0.05089	1049.059	0.299
0.4	308.15	0.10059	1049.918	0.3
0.4	308.15	0.1546	1050.839	0.301
0.4	308.15	0.19972	1051.596	0.302
0.4	308.15	0.24802	1052.396	0.302
0.4	308.15	0.297	1053.196	0.303
0.4	308.15	0.34671	1053.999	0.304
0.4	308.15	0.39737	1054.791	0.305
0.6	308.15	0	1069.136	0.316
0.6	308.15	0.00305	1069.177	0.316
0.6	308.15	0.01233	1069.303	0.316
0.6	308.15	0.05217	1069.84	0.317
0.6	308.15	0.09718	1070.439	0.317
0.6	308.15	0.14957	1071.126	0.318
0.6	308.15	0.19787	1071.75	0.318
0.6	308.15	0.24521	1072.35	0.319
0.6	308.15	0.30201	1073.064	0.319
0.6	308.15	0.34518	1073.594	0.32
0.6	308.15	0.39773	1074.231	0.32

System: L-valine + disodium hydrogen phosphate + water; phases: Liquid
Fixed: Pressure, kPa = 101
Property: Speed of sound, m/s (Liquid); method: Sing-around technique in a fixed-path interferometer
Solvent: Molality, mol/kg of disodium hydrogen phosphate	Temperature, K	Molality, mol/kg of L-valine	Speed of sound, m/s	uncertainty
0	288.15	0	1463.12	1.64
0	288.15	0.01042	1468.91	1.64
0	288.15	0.01984	1469.27	1.63
0	288.15	0.05003	1471.73	1.63
0	288.15	0.09952	1477.73	1.64
0	288.15	0.15024	1482.52	1.64
0	288.15	0.19938	1487.78	1.63
0	288.15	0.24957	1494.42	1.64
0	288.15	0.30345	1498.19	1.63
0	288.15	0.35682	1503.62	1.64
0	288.15	0.39612	1507.57	1.64
0.2	288.15	0	1502.93	1.64
0.2	288.15	0.01058	1503.99	1.64
0.2	288.15	0.05034	1508	1.64
0.2	288.15	0.09359	1512.65	1.64
0.2	288.15	0.15326	1518.63	1.64
0.2	288.15	0.20146	1523.08	1.63
0.2	288.15	0.25881	1529.75	1.64
0.2	288.15	0.30187	1533.19	1.63
0.2	288.15	0.35039	1539.12	1.64
0.2	288.15	0.40119	1543.88	1.64
0.2	288.15	0.45359	1549.22	1.64
0.4	288.15	0	1539.85	1.65
0.4	288.15	0.00419	1540.6	1.64
0.4	288.15	0.00972	1541.26	1.65
0.4	288.15	0.05089	1545.16	1.64
0.4	288.15	0.10059	1550.22	1.64
0.4	288.15	0.1546	1555.46	1.64
0.4	288.15	0.19972	1559.69	1.64
0.4	288.15	0.24802	1564.42	1.64
0.4	288.15	0.297	1569.74	1.65
0.4	288.15	0.34671	1573.95	1.64
0.4	288.15	0.39737	1578.97	1.65
0.6	288.15	0	1568.74	1.64
0.6	288.15	0.00305	1568.94	1.64
0.6	288.15	0.01233	1570.4	1.64
0.6	288.15	0.05217	1574.31	1.64
0.6	288.15	0.09718	1578.58	1.64
0.6	288.15	0.14957	1583.86	1.64
0.6	288.15	0.19787	1589.35	1.64
0.6	288.15	0.24521	1594.65	1.64
0.6	288.15	0.30201	1597.82	1.64
0.6	288.15	0.34518	1602.12	1.64
0.6	288.15	0.39773	1605.35	1.65
0	293.15	0	1481.14	1.64
0	293.15	0.01042	1485.08	1.64
0	293.15	0.01984	1485.06	1.63
0	293.15	0.05003	1487.69	1.63
0	293.15	0.09952	1493.11	1.63
0	293.15	0.15024	1497.96	1.63
0	293.15	0.19938	1502.57	1.63
0	293.15	0.24957	1509.38	1.63
0	293.15	0.30345	1512.57	1.63
0	293.15	0.35682	1518.06	1.63
0	293.15	0.39612	1521.82	1.63
0.2	293.15	0	1517.67	1.64
0.2	293.15	0.01058	1519	1.64
0.2	293.15	0.05034	1522.81	1.64
0.2	293.15	0.09359	1527.24	1.64
0.2	293.15	0.15326	1532.94	1.64
0.2	293.15	0.20146	1536.77	1.64
0.2	293.15	0.25881	1543.53	1.64
0.2	293.15	0.30187	1546.76	1.64
0.2	293.15	0.35039	1552.38	1.64
0.2	293.15	0.40119	1556.92	1.64
0.2	293.15	0.45359	1561.98	1.64
0.4	293.15	0	1553.82	1.64
0.4	293.15	0.00419	1554.2	1.64
0.4	293.15	0.00972	1555.21	1.64
0.4	293.15	0.05089	1558.87	1.64
0.4	293.15	0.10059	1563.7	1.64
0.4	293.15	0.1546	1568.67	1.64
0.4	293.15	0.19972	1572.67	1.64
0.4	293.15	0.24802	1577.14	1.64
0.4	293.15	0.297	1582.18	1.64
0.4	293.15	0.34671	1586.16	1.64
0.4	293.15	0.39737	1590.95	1.64
0.6	293.15	0	1581.52	1.64
0.6	293.15	0.00305	1582.51	1.64
0.6	293.15	0.01233	1583.17	1.64
0.6	293.15	0.05217	1586.72	1.64
0.6	293.15	0.09718	1591.25	1.64
0.6	293.15	0.14957	1595.74	1.64
0.6	293.15	0.19787	1601.41	1.64
0.6	293.15	0.24521	1605.43	1.64
0.6	293.15	0.30201	1609.09	1.64
0.6	293.15	0.34518	1613.8	1.64
0.6	293.15	0.39773	1618.84	1.64
0	298.15	0	1495.85	1.63
0	298.15	0.01042	1499.28	1.63
0	298.15	0.01984	1499.2	1.63
0	298.15	0.05003	1501.68	1.63
0	298.15	0.09952	1506.88	1.63
0	298.15	0.15024	1511.48	1.63
0	298.15	0.19938	1515.83	1.63
0	298.15	0.24957	1522.42	1.63
0	298.15	0.30345	1525.37	1.63
0	298.15	0.35682	1530.73	1.63
0	298.15	0.39612	1534.19	1.63
0.2	298.15	0	1530.83	1.63
0.2	298.15	0.01058	1532.13	1.63
0.2	298.15	0.05034	1535.71	1.63
0.2	298.15	0.09359	1540	1.63
0.2	298.15	0.15326	1545.38	1.63
0.2	298.15	0.20146	1548.96	1.63
0.2	298.15	0.25881	1555.4	1.63
0.2	298.15	0.30187	1558.47	1.63
0.2	298.15	0.35039	1563.85	1.63
0.2	298.15	0.40119	1568.17	1.63
0.2	298.15	0.45359	1572.96	1.63
0.4	298.15	0	1565.97	1.63
0.4	298.15	0.00419	1566.29	1.63
0.4	298.15	0.00972	1567.27	1.63
0.4	298.15	0.05089	1570.72	1.63
0.4	298.15	0.10059	1575.32	1.63
0.4	298.15	0.1546	1580.03	1.63
0.4	298.15	0.19972	1583.82	1.63
0.4	298.15	0.24802	1588.18	1.63
0.4	298.15	0.297	1592.82	1.63
0.4	298.15	0.34671	1596.59	1.63
0.4	298.15	0.39737	1601.15	1.64
0.6	298.15	0	1592.82	1.64
0.6	298.15	0.00305	1593.8	1.64
0.6	298.15	0.01233	1594.42	1.64
0.6	298.15	0.05217	1597.72	1.64
0.6	298.15	0.09718	1602.04	1.64
0.6	298.15	0.14957	1606.27	1.64
0.6	298.15	0.19787	1612.77	1.64
0.6	298.15	0.24521	1615.55	1.64
0.6	298.15	0.30201	1618.93	1.64
0.6	298.15	0.34518	1623.38	1.64
0.6	298.15	0.39773	1628.17	1.64
0	303.15	0	1508.84	1.63
0	303.15	0.01042	1511.61	1.63
0	303.15	0.01984	1511.54	1.63
0	303.15	0.05003	1513.79	1.63
0	303.15	0.09952	1518.85	1.63
0	303.15	0.15024	1523.14	1.63
0	303.15	0.19938	1527.39	1.63
0	303.15	0.24957	1533.68	1.63
0	303.15	0.30345	1536.45	1.63
0	303.15	0.35682	1541.58	1.63
0	303.15	0.39612	1544.84	1.63
0.2	303.15	0	1542.15	1.63
0.2	303.15	0.01058	1543.43	1.63
0.2	303.15	0.05034	1546.81	1.63
0.2	303.15	0.09359	1550.96	1.63
0.2	303.15	0.15326	1556.02	1.63
0.2	303.15	0.20146	1559.45	1.63
0.2	303.15	0.25881	1565.56	1.63
0.2	303.15	0.30187	1568.46	1.63
0.2	303.15	0.35039	1573.59	1.63
0.2	303.15	0.40119	1577.72	1.63
0.2	303.15	0.45359	1582.25	1.63
0.4	303.15	0	1576.35	1.63
0.4	303.15	0.00419	1576.67	1.63
0.4	303.15	0.00972	1577.57	1.63
0.4	303.15	0.05089	1580.8	1.63
0.4	303.15	0.10059	1585.21	1.63
0.4	303.15	0.1546	1589.65	1.63
0.4	303.15	0.19972	1593.25	1.63
0.4	303.15	0.24802	1597.42	1.63
0.4	303.15	0.297	1601.77	1.63
0.4	303.15	0.34671	1605.35	1.63
0.4	303.15	0.39737	1609.69	1.63
0.6	303.15	0	1602.49	1.63
0.6	303.15	0.00305	1603.37	1.63
0.6	303.15	0.01233	1603.95	1.63
0.6	303.15	0.05217	1607.08	1.63
0.6	303.15	0.09718	1611.16	1.63
0.6	303.15	0.14957	1615.18	1.63
0.6	303.15	0.19787	1620.39	1.63
0.6	303.15	0.24521	1623.98	1.63
0.6	303.15	0.30201	1627.07	1.63
0.6	303.15	0.34518	1631.33	1.64
0.6	303.15	0.39773	1635.86	1.64
0	308.15	0	1519.14	1.63
0	308.15	0.01042	1522.16	1.62
0	308.15	0.01984	1522.11	1.63
0	308.15	0.05003	1524.06	1.63
0	308.15	0.09952	1529.1	1.63
0	308.15	0.15024	1532.93	1.63
0	308.15	0.19938	1537.2	1.63
0	308.15	0.24957	1543.17	1.62
0	308.15	0.30345	1545.92	1.63
0	308.15	0.35682	1550.53	1.63
0	308.15	0.39612	1553.73	1.63
0.2	308.15	0	1551.96	1.63
0.2	308.15	0.01058	1552.83	1.63
0.2	308.15	0.05034	1556.05	1.63
0.2	308.15	0.09359	1559.95	1.63
0.2	308.15	0.15326	1564.92	1.63
0.2	308.15	0.20146	1568.35	1.63
0.2	308.15	0.25881	1574.05	1.63
0.2	308.15	0.30187	1576.72	1.63
0.2	308.15	0.35039	1581.66	1.63
0.2	308.15	0.40119	1585.55	1.63
0.2	308.15	0.45359	1589.83	1.63
0.4	308.15	0	1585.05	1.63
0.4	308.15	0.00419	1585.47	1.63
0.4	308.15	0.00972	1586.13	1.63
0.4	308.15	0.05089	1589.11	1.63
0.4	308.15	0.10059	1593.36	1.63
0.4	308.15	0.1546	1597.54	1.63
0.4	308.15	0.19972	1600.94	1.63
0.4	308.15	0.24802	1604.85	1.63
0.4	308.15	0.297	1609.01	1.63
0.4	308.15	0.34671	1612.42	1.63
0.4	308.15	0.39737	1616.52	1.63
0.6	308.15	0	1610.59	1.63
0.6	308.15	0.00305	1611.19	1.63
0.6	308.15	0.01233	1611.76	1.63
0.6	308.15	0.05217	1614.89	1.63
0.6	308.15	0.09718	1618.58	1.63
0.6	308.15	0.14957	1622.53	1.64
0.6	308.15	0.19787	1627.38	1.63
0.6	308.15	0.24521	1630.76	1.63
0.6	308.15	0.30201	1633.57	1.64
0.6	308.15	0.34518	1637.67	1.63
0.6	308.15	0.39773	1641.95	1.64

System: 2-aminoacetic acid + water; phases: Liquid
Fixed: Pressure, kPa = 101
Property: Mass density, kg/m3 (Liquid); method: Vibrating tube method
Temperature, K	Molality, mol/kg of 2-aminoacetic acid	Mass density, kg/m3	uncertainty
288.15	0.02249	999.86	0.256
288.15	0.04798	1000.707	0.257
288.15	0.11242	1002.839	0.259
288.15	0.20215	1005.783	0.261
288.15	0.30145	1009.013	0.264
288.15	0.41338	1012.613	0.267
288.15	0.49167	1015.105	0.269
288.15	0.59779	1018.458	0.272
288.15	0.69326	1021.45	0.274
288.15	0.79965	1024.739	0.277
293.15	0.02249	998.956	0.256
293.15	0.04798	999.797	0.256
293.15	0.11242	1001.915	0.258
293.15	0.20215	1004.841	0.26
293.15	0.30145	1008.049	0.263
293.15	0.41338	1011.628	0.266
293.15	0.49167	1014.101	0.268
293.15	0.59779	1017.431	0.271
293.15	0.69326	1020.391	0.274
293.15	0.79965	1023.659	0.276
298.15	0.02249	997.788	0.256
298.15	0.04798	998.626	0.256
298.15	0.11242	1000.733	0.257
298.15	0.20215	1003.643	0.259
298.15	0.30145	1006.833	0.262
298.15	0.41338	1010.388	0.265
298.15	0.49167	1012.85	0.267
298.15	0.59779	1016.161	0.27
298.15	0.69326	1019.102	0.273
298.15	0.79965	1022.353	0.275
303.15	0.02249	996.393	0.256
303.15	0.04798	997.226	0.256
303.15	0.11242	999.321	0.256
303.15	0.20215	1002.216	0.258
303.15	0.30145	1005.388	0.261
303.15	0.41338	1008.928	0.264
303.15	0.49167	1011.377	0.266
303.15	0.59779	1014.67	0.269
303.15	0.69326	1017.602	0.271
303.15	0.79965	1020.838	0.274
308.15	0.02249	994.771	0.256
308.15	0.04798	995.599	0.256
308.15	0.11242	997.681	0.256
308.15	0.20215	1000.558	0.257
308.15	0.30145	1003.71	0.26
308.15	0.41338	1007.23	0.263
308.15	0.49167	1009.663	0.265
308.15	0.59779	1012.938	0.268
308.15	0.69326	1015.847	0.27
308.15	0.79965	1019.06	0.273

System: 2-aminoacetic acid + water; phases: Liquid
Fixed: Pressure, kPa = 101
Property: Speed of sound, m/s (Liquid); method: Sing-around technique in a fixed-path interferometer
Temperature, K	Molality, mol/kg of 2-aminoacetic acid	Speed of sound, m/s	uncertainty
288.15	0.02249	1467.75	1.64
288.15	0.04798	1469.06	1.63
288.15	0.11242	1473.13	1.64
288.15	0.20215	1477.62	1.63
288.15	0.30145	1483.26	1.64
288.15	0.41338	1489.23	1.64
288.15	0.49167	1493.24	1.64
288.15	0.59779	1499.25	1.64
288.15	0.69326	1503.67	1.64
288.15	0.79965	1509.45	1.64
293.15	0.02249	1483.55	1.63
293.15	0.04798	1484.8	1.63
293.15	0.11242	1489.13	1.64
293.15	0.20215	1493.18	1.63
293.15	0.30145	1498.92	1.64
293.15	0.41338	1504.33	1.64
293.15	0.49167	1508.54	1.64
293.15	0.59779	1514.39	1.64
293.15	0.69326	1518.5	1.64
293.15	0.79965	1524.22	1.64
298.15	0.02249	1497.71	1.63
298.15	0.04798	1498.93	1.63
298.15	0.11242	1503.18	1.63
298.15	0.20215	1507.1	1.63
298.15	0.30145	1512.65	1.63
298.15	0.41338	1517.9	1.63
298.15	0.49167	1521.94	1.63
298.15	0.59779	1527.66	1.63
298.15	0.69326	1531.61	1.63
298.15	0.79965	1537.23	1.63
303.15	0.02249	1510.07	1.63
303.15	0.04798	1511.25	1.63
303.15	0.11242	1515.36	1.63
303.15	0.20215	1519.19	1.63
303.15	0.30145	1524.52	1.63
303.15	0.41338	1529.64	1.63
303.15	0.49167	1533.57	1.63
303.15	0.59779	1539.16	1.63
303.15	0.69326	1542.92	1.63
303.15	0.79965	1548.46	1.63
308.15	0.02249	1520.69	1.63
308.15	0.04798	1521.84	1.63
308.15	0.11242	1525.69	1.63
308.15	0.20215	1529.59	1.63
308.15	0.30145	1534.61	1.63
308.15	0.41338	1539.75	1.63
308.15	0.49167	1543.41	1.63
308.15	0.59779	1548.85	1.63
308.15	0.69326	1552.74	1.63
308.15	0.79965	1557.88	1.63

System: disodium hydrogen phosphate + water; phases: Liquid
Fixed: Pressure, kPa = 101
Property: Mass density, kg/m3 (Liquid); method: Vibrating tube method
Molality, mol/kg of disodium hydrogen phosphate	Temperature, K	Mass density, kg/m3	uncertainty
0.2	288.15	1026.936	0.279
0.4	288.15	1055.081	0.303
0.6	288.15	1076.596	0.322
0.2	293.15	1025.741	0.278
0.4	293.15	1053.625	0.302
0.6	293.15	1075.016	0.321
0.2	298.15	1024.323	0.277
0.4	298.15	1051.974	0.301
0.6	298.15	1073.224	0.319
0.2	303.15	1022.7	0.276
0.4	303.15	1050.149	0.299
0.6	303.15	1071.254	0.318
0.2	308.15	1020.892	0.274
0.4	308.15	1048.169	0.3
0.6	308.15	1069.136	0.316

System: disodium hydrogen phosphate + water; phases: Liquid
Fixed: Pressure, kPa = 101
Property: Speed of sound, m/s (Liquid); method: Sing-around technique in a fixed-path interferometer
Molality, mol/kg of disodium hydrogen phosphate	Temperature, K	Speed of sound, m/s	uncertainty
0.2	288.15	1502.93	1.64
0.4	288.15	1539.85	1.65
0.6	288.15	1568.74	1.64
0.2	293.15	1517.67	1.64
0.4	293.15	1553.82	1.64
0.6	293.15	1581.52	1.64
0.2	298.15	1530.83	1.63
0.4	298.15	1565.97	1.63
0.6	298.15	1592.82	1.64
0.2	303.15	1542.15	1.63
0.4	303.15	1576.35	1.63
0.6	303.15	1602.49	1.63
0.2	308.15	1551.96	1.63
0.4	308.15	1585.05	1.63
0.6	308.15	1610.59	1.63

System: (S)-2-aminopropanoic acid + water; phases: Liquid
Fixed: Pressure, kPa = 101
Property: Mass density, kg/m3 (Liquid); method: Vibrating tube method
Temperature, K	Molality, mol/kg of (S)-2-aminopropanoic acid	Mass density, kg/m3	uncertainty
288.15	0.01	999.428	0.256
288.15	0.05495	1000.854	0.257
288.15	0.10427	1002.409	0.258
288.15	0.19999	1005.398	0.261
288.15	0.28925	1008.15	0.263
288.15	0.40032	1011.532	0.266
288.15	0.50136	1014.566	0.269
288.15	0.59556	1017.355	0.271
288.15	0.69452	1020.248	0.273
288.15	0.79468	1023.139	0.276
293.15	0.01	998.527	0.256
293.15	0.05495	999.944	0.256
293.15	0.10427	1001.49	0.258
293.15	0.19999	1004.46	0.26
293.15	0.28925	1007.196	0.262
293.15	0.40032	1010.558	0.265
293.15	0.50136	1013.571	0.268
293.15	0.59556	1016.345	0.27
293.15	0.69452	1019.222	0.273
293.15	0.79468	1022.097	0.275
298.15	0.01	997.361	0.256
298.15	0.05495	998.77	0.256
298.15	0.10427	1000.306	0.257
298.15	0.19999	1003.258	0.259
298.15	0.28925	1005.975	0.261
298.15	0.40032	1009.312	0.264
298.15	0.50136	1012.305	0.267
298.15	0.59556	1015.06	0.269
298.15	0.69452	1017.919	0.272
298.15	0.79468	1020.772	0.274
303.15	0.01	995.969	0.256
303.15	0.05495	997.368	0.256
303.15	0.10427	998.894	0.256
303.15	0.19999	1001.824	0.258
303.15	0.28925	1004.524	0.26
303.15	0.40032	1007.84	0.263
303.15	0.50136	1010.815	0.266
303.15	0.59556	1013.551	0.268
303.15	0.69452	1016.389	0.27
303.15	0.79468	1019.221	0.273
308.15	0.01	994.35	0.256
308.15	0.05495	995.742	0.256
308.15	0.10427	997.259	0.256
308.15	0.19999	1000.174	0.257
308.15	0.28925	1002.86	0.259
308.15	0.40032	1006.158	0.262
308.15	0.50136	1009.114	0.264
308.15	0.59556	1011.836	0.267
308.15	0.69452	1014.655	0.269
308.15	0.79468	1017.474	0.271

System: (S)-2-aminopropanoic acid + water; phases: Liquid
Fixed: Pressure, kPa = 101
Property: Speed of sound, m/s (Liquid); method: Sing-around technique in a fixed-path interferometer
Temperature, K	Molality, mol/kg of (S)-2-aminopropanoic acid	Speed of sound, m/s	uncertainty
288.15	0.01	1467.29	1.64
288.15	0.05495	1470.36	1.64
288.15	0.10427	1473.79	1.64
288.15	0.19999	1480.51	1.64
288.15	0.28925	1486.57	1.64
288.15	0.40032	1494.03	1.64
288.15	0.50136	1500.79	1.64
288.15	0.59556	1506.91	1.63
288.15	0.69452	1514	1.64
288.15	0.79468	1519.71	1.64
293.15	0.01	1483.24	1.63
293.15	0.05495	1486.39	1.64
293.15	0.10427	1489.4	1.63
293.15	0.19999	1496.21	1.64
293.15	0.28925	1501.9	1.63
293.15	0.40032	1509.19	1.64
293.15	0.50136	1515.65	1.64
293.15	0.59556	1521.25	1.63
293.15	0.69452	1528.19	1.64
293.15	0.79468	1533.85	1.64
298.15	0.01	1497.39	1.63
298.15	0.05495	1500.56	1.63
298.15	0.10427	1503.38	1.63
298.15	0.19999	1510.06	1.63
298.15	0.28925	1515.39	1.63
298.15	0.40032	1522.45	1.63
298.15	0.50136	1528.69	1.63
298.15	0.59556	1534.06	1.63
298.15	0.69452	1540.78	1.63
298.15	0.79468	1546.25	1.63
303.15	0.01	1509.72	1.63
303.15	0.05495	1512.78	1.63
303.15	0.10427	1515.53	1.63
303.15	0.19999	1521.97	1.63
303.15	0.28925	1527.11	1.63
303.15	0.40032	1533.98	1.63
303.15	0.50136	1539.98	1.63
303.15	0.59556	1545.18	1.63
303.15	0.69452	1551.68	1.63
303.15	0.79468	1556.88	1.63
308.15	0.01	1520.35	1.63
308.15	0.05495	1523.13	1.63
308.15	0.10427	1525.98	1.63
308.15	0.19999	1531.99	1.63
308.15	0.28925	1537.18	1.63
308.15	0.40032	1543.67	1.63
308.15	0.50136	1549.5	1.63
308.15	0.59556	1554.68	1.63
308.15	0.69452	1560.99	1.63
308.15	0.79468	1565.84	1.63

System: L-valine + water; phases: Liquid
Fixed: Pressure, kPa = 101
Property: Mass density, kg/m3 (Liquid); method: Vibrating tube method
Temperature, K	Molality, mol/kg of L-valine	Mass density, kg/m3	uncertainty
288.15	0.01042	999.409	0.256
288.15	0.01984	999.678	0.256
288.15	0.05003	1000.538	0.257
288.15	0.09952	1001.936	0.258
288.15	0.15024	1003.352	0.259
288.15	0.19938	1004.711	0.26
288.15	0.24957	1006.083	0.261
288.15	0.30345	1007.54	0.263
288.15	0.35682	1008.966	0.264
288.15	0.39612	1010.004	0.265
293.15	0.01042	998.508	0.256
293.15	0.01984	998.776	0.256
293.15	0.05003	999.631	0.256
293.15	0.09952	1001.023	0.257
293.15	0.15024	1002.432	0.258
293.15	0.19938	1003.784	0.26
293.15	0.24957	1005.148	0.261
293.15	0.30345	1006.599	0.262
293.15	0.35682	1008.019	0.263
293.15	0.39612	1009.052	0.264
298.15	0.01042	997.342	0.256
298.15	0.01984	997.609	0.256
298.15	0.05003	998.459	0.256
298.15	0.09952	999.842	0.256
298.15	0.15024	1001.243	0.257
298.15	0.19938	1002.586	0.259
298.15	0.24957	1003.942	0.26
298.15	0.30345	1005.383	0.261
298.15	0.35682	1006.794	0.262
298.15	0.39612	1007.819	0.263
303.15	0.01042	995.95	0.256
303.15	0.01984	996.215	0.256
303.15	0.05003	997.061	0.256
303.15	0.09952	998.437	0.256
303.15	0.15024	999.831	0.257
303.15	0.19938	1001.167	0.257
303.15	0.24957	1002.516	0.259
303.15	0.30345	1003.949	0.26
303.15	0.35682	1005.352	0.261
303.15	0.39612	1006.373	0.262
308.15	0.01042	994.331	0.256
308.15	0.01984	994.595	0.256
308.15	0.05003	995.436	0.256
308.15	0.09952	996.803	0.256
308.15	0.15024	998.19	0.256
308.15	0.19938	999.518	0.257
308.15	0.24957	1000.86	0.257
308.15	0.30345	1002.285	0.259
308.15	0.35682	1003.681	0.26
308.15	0.39612	1004.696	0.261

System: L-valine + water; phases: Liquid
Fixed: Pressure, kPa = 101
Property: Speed of sound, m/s (Liquid); method: Sing-around technique in a fixed-path interferometer
Temperature, K	Molality, mol/kg of L-valine	Speed of sound, m/s	uncertainty
288.15	0.01042	1468.91	1.64
288.15	0.01984	1469.27	1.63
288.15	0.05003	1471.73	1.63
288.15	0.09952	1477.73	1.64
288.15	0.15024	1482.52	1.64
288.15	0.19938	1487.78	1.63
288.15	0.24957	1494.42	1.64
288.15	0.30345	1498.19	1.63
288.15	0.35682	1503.62	1.64
288.15	0.39612	1507.57	1.64
293.15	0.01042	1485.08	1.64
293.15	0.01984	1485.06	1.63
293.15	0.05003	1487.69	1.63
293.15	0.09952	1493.11	1.63
293.15	0.15024	1497.96	1.63
293.15	0.19938	1502.57	1.63
293.15	0.24957	1509.38	1.63
293.15	0.30345	1512.57	1.63
293.15	0.35682	1518.06	1.63
293.15	0.39612	1521.82	1.63
298.15	0.01042	1499.28	1.63
298.15	0.01984	1499.2	1.63
298.15	0.05003	1501.68	1.63
298.15	0.09952	1506.88	1.63
298.15	0.15024	1511.48	1.63
298.15	0.19938	1515.83	1.63
298.15	0.24957	1522.42	1.63
298.15	0.30345	1525.37	1.63
298.15	0.35682	1530.73	1.63
298.15	0.39612	1534.19	1.63
303.15	0.01042	1511.61	1.63
303.15	0.01984	1511.54	1.63
303.15	0.05003	1513.79	1.63
303.15	0.09952	1518.85	1.63
303.15	0.15024	1523.14	1.63
303.15	0.19938	1527.39	1.63
303.15	0.24957	1533.68	1.63
303.15	0.30345	1536.45	1.63
303.15	0.35682	1541.58	1.63
303.15	0.39612	1544.84	1.63
308.15	0.01042	1522.16	1.62
308.15	0.01984	1522.11	1.63
308.15	0.05003	1524.06	1.63
308.15	0.09952	1529.1	1.63
308.15	0.15024	1532.93	1.63
308.15	0.19938	1537.2	1.63
308.15	0.24957	1543.17	1.62
308.15	0.30345	1545.92	1.63
308.15	0.35682	1550.53	1.63
308.15	0.39612	1553.73	1.63
