Measured thermophysical data. Equilibrium solubility of sodium 2-naphthalenesulfonate in binary (sodium chloride + water), (sodium sulfate + water), and (ethanol + water) solvent mixtures at temperatures from (278.15 to 323.15) K
Source: J. Chem. Thermodyn., 2015, 10.1016/j.jct.2014.11.011
Compound 1: sodium 2-naphthalenesulfonate, C10H7NaO3S, InChI=1S/C10H8O3S.Na/c11-14(12,13)10-6-5-8-3-1-2-4-9(8)7-10;/h1-7H,(H,11,12,13);/q;+1/p-1, purity 99.5%
Compound 2: sodium sulfate, Na2O4S, InChI=1S/2Na.H2O4S/c;;1-5(2,3)4/h;;(H2,1,2,3,4)/q2*+1;/p-2, purity 99.8%
Compound 3: sodium chloride, ClNa, InChI=1S/ClH.Na/h1H;/q;+1/p-1, purity 99.6%
Compound 4: ethanol, C2H6O, InChI=1S/C2H6O/c1-2-3/h3H,2H2,1H3, purity 99.9%
Compound 5: water, H2O, InChI=1S/H2O/h1H2

System: sodium 2-naphthalenesulfonate + water + sodium sulfate; phases: Liquid, Crystal
Fixed: Pressure, kPa = 100
Property: Mole fraction of sodium 2-naphthalenesulfonate (Liquid); method: Chromatography
Temperature, K	Solvent: Mass fraction of sodium sulfate	Mole fraction of sodium 2-naphthalenesulfonate	uncertainty
278.15	0	0.00215	9e-05
283.15	0	0.00228	9e-05
288.15	0	0.00262	0.00011
293.15	0	0.00299	0.00012
298.15	0	0.00336	0.00013
303.15	0	0.00379	0.00015
308.15	0	0.00452	0.00018
313.15	0	0.00519	0.00021
318.15	0	0.00632	0.00025
323.15	0	0.00781	0.00031
278.15	0.05	0.00153	7e-05
283.15	0.05	0.00167	7e-05
288.15	0.05	0.0019	8e-05
293.15	0.05	0.00213	9e-05
298.15	0.05	0.00247	0.0001
303.15	0.05	0.00279	0.00012
308.15	0.05	0.00315	0.00013
313.15	0.05	0.00365	0.00015
318.15	0.05	0.00422	0.00018
323.15	0.05	0.00503	0.00022
278.15	0.1	0.0011	5e-05
283.15	0.1	0.00121	6e-05
288.15	0.1	0.00137	7e-05
293.15	0.1	0.00153	7e-05
298.15	0.1	0.00186	9e-05
303.15	0.1	0.00213	0.0001
308.15	0.1	0.00247	0.00011
313.15	0.1	0.00289	0.00013
318.15	0.1	0.00323	0.00015
323.15	0.1	0.00378	0.00017
278.15	0.15	0.0008	5e-05
283.15	0.15	0.00086	5e-05
288.15	0.15	0.00096	6e-05
293.15	0.15	0.00113	7e-05
298.15	0.15	0.00135	8e-05
303.15	0.15	0.00154	9e-05
308.15	0.15	0.00181	0.00011
313.15	0.15	0.00211	0.00012
318.15	0.15	0.00245	0.00014
323.15	0.15	0.00287	0.00016
278.15	0.2	0.00054	5e-05
283.15	0.2	0.00058	5e-05
288.15	0.2	0.00066	5e-05
293.15	0.2	0.00075	7e-05
298.15	0.2	0.00087	8e-05
303.15	0.2	0.00101	9e-05
308.15	0.2	0.0012	0.00011
313.15	0.2	0.0014	0.00012
318.15	0.2	0.00169	0.00014
323.15	0.2	0.00198	0.00016

System: sodium 2-naphthalenesulfonate + sodium chloride + water; phases: Liquid, Crystal
Fixed: Pressure, kPa = 100
Property: Mole fraction of sodium 2-naphthalenesulfonate (Liquid); method: Chromatography
Temperature, K	Solvent: Mass fraction of sodium chloride	Mole fraction of sodium 2-naphthalenesulfonate	uncertainty
278.15	0.05	0.00132	6e-05
283.15	0.05	0.00144	6e-05
288.15	0.05	0.00169	7e-05
293.15	0.05	0.00192	8e-05
298.15	0.05	0.00217	0.0001
303.15	0.05	0.00251	0.00011
308.15	0.05	0.003	0.00013
313.15	0.05	0.00353	0.00015
318.15	0.05	0.00404	0.00018
323.15	0.05	0.00487	0.00022
278.15	0.1	0.00081	5e-05
283.15	0.1	0.0009	5e-05
288.15	0.1	0.00109	6e-05
293.15	0.1	0.00122	6e-05
298.15	0.1	0.00143	7e-05
303.15	0.1	0.00167	8e-05
308.15	0.1	0.002	0.0001
313.15	0.1	0.00238	0.00012
318.15	0.1	0.00283	0.00014
323.15	0.1	0.00348	0.00017
278.15	0.15	0.00049	3e-05
283.15	0.15	0.0006	4e-05
288.15	0.15	0.00071	4e-05
293.15	0.15	0.00088	5e-05
298.15	0.15	0.00109	6e-05
303.15	0.15	0.00126	6e-05
308.15	0.15	0.00148	8e-05
313.15	0.15	0.00181	9e-05
318.15	0.15	0.00221	0.00011
323.15	0.15	0.00255	0.00014
278.15	0.2	0.00036	3e-05
283.15	0.2	0.00042	3e-05
288.15	0.2	0.00052	4e-05
293.15	0.2	0.00063	4e-05
298.15	0.2	0.00081	5e-05
303.15	0.2	0.00101	6e-05
308.15	0.2	0.00116	7e-05
313.15	0.2	0.00142	9e-05
318.15	0.2	0.00165	0.00011
323.15	0.2	0.002	0.00012
278.15	0	0.00215	9e-05
283.15	0	0.00228	9e-05
288.15	0	0.00262	0.00011
293.15	0	0.00299	0.00012
298.15	0	0.00336	0.00013
303.15	0	0.00379	0.00015
308.15	0	0.00452	0.00018
313.15	0	0.00519	0.00021
318.15	0	0.00632	0.00025
323.15	0	0.00781	0.00031

System: ethanol + sodium 2-naphthalenesulfonate + water; phases: Liquid, Crystal
Fixed: Pressure, kPa = 100
Property: Mole fraction of sodium 2-naphthalenesulfonate (Liquid); method: Chromatography
Temperature, K	Solvent: Mass fraction of ethanol	Mole fraction of sodium 2-naphthalenesulfonate	uncertainty
278.15	0.08	0.00129	6e-05
283.15	0.08	0.00143	6e-05
288.15	0.08	0.00168	7e-05
293.15	0.08	0.00196	8e-05
298.15	0.08	0.00238	0.0001
303.15	0.08	0.00272	0.00012
308.15	0.08	0.00328	0.00014
313.15	0.08	0.00386	0.00016
318.15	0.08	0.00467	0.0002
323.15	0.08	0.00564	0.00024
278.15	0.17	0.00099	4e-05
283.15	0.17	0.00105	5e-05
288.15	0.17	0.00123	5e-05
293.15	0.17	0.0014	6e-05
298.15	0.17	0.00163	7e-05
303.15	0.17	0.0019	8e-05
308.15	0.17	0.00233	0.0001
313.15	0.17	0.00274	0.00012
318.15	0.17	0.00319	0.00014
323.15	0.17	0.00402	0.00017
278.15	0.35	0.00069	3e-05
283.15	0.35	0.00078	4e-05
288.15	0.35	0.00093	4e-05
293.15	0.35	0.00106	5e-05
298.15	0.35	0.00125	6e-05
303.15	0.35	0.00148	7e-05
308.15	0.35	0.00175	8e-05
313.15	0.35	0.0021	9e-05
318.15	0.35	0.0025	0.00011
323.15	0.35	0.00301	0.00014
278.15	0.54	0.00053	3e-05
283.15	0.54	0.0006	3e-05
288.15	0.54	0.00072	4e-05
293.15	0.54	0.00084	4e-05
298.15	0.54	0.00098	5e-05
303.15	0.54	0.0012	6e-05
308.15	0.54	0.00142	7e-05
313.15	0.54	0.00172	9e-05
318.15	0.54	0.00201	0.0001
323.15	0.54	0.00236	0.00012
278.15	0.7	0.00037	3e-05
283.15	0.7	0.00042	3e-05
288.15	0.7	0.0005	4e-05
293.15	0.7	0.00062	5e-05
298.15	0.7	0.00073	5e-05
303.15	0.7	0.00088	7e-05
308.15	0.7	0.00104	8e-05
313.15	0.7	0.00122	9e-05
318.15	0.7	0.00153	0.0001
323.15	0.7	0.00188	0.00011
278.15	0	0.00215	9e-05
283.15	0	0.00228	9e-05
288.15	0	0.00262	0.00011
293.15	0	0.00299	0.00012
298.15	0	0.00336	0.00013
303.15	0	0.00379	0.00015
308.15	0	0.00452	0.00018
313.15	0	0.00519	0.00021
318.15	0	0.00632	0.00025
323.15	0	0.00781	0.00031

System: sodium 2-naphthalenesulfonate + water; phases: Liquid, Crystal
Fixed: Pressure, kPa = 100
Property: Mole fraction of sodium 2-naphthalenesulfonate (Liquid); method: Chromatography
Temperature, K	Mole fraction of sodium 2-naphthalenesulfonate	uncertainty
278.15	0.00215	9e-05
283.15	0.00228	9e-05
288.15	0.00262	0.00011
293.15	0.00299	0.00012
298.15	0.00336	0.00013
303.15	0.00379	0.00015
308.15	0.00452	0.00018
313.15	0.00519	0.00021
318.15	0.00632	0.00025
323.15	0.00781	0.00031
