Measured thermophysical data. Tuning physical properties and mesomorphic structures in aqueous 1-ethyl-3-methylimidazolium octylsulfate rigid-gel with univalent salt doping
Source: J. Chem. Thermodyn., 2017, 10.1016/j.jct.2017.05.012
Compound 1: water, H2O, InChI=1S/H2O/h1H2, purity 99.8%
Compound 2: 1-ethyl-3-methylimidazolium octyl sulfate, C14H28N2O4S, InChI=1S/C8H18O4S.C6H11N2/c1-2-3-4-5-6-7-8-12-13(9,10)11;1-3-8-5-4-7(2)6-8/h2-8H2,1H3,(H,9,10,11);4-6H,3H2,1-2H3/q;+1/p-1, purity 98%
Compound 3: lithium sulfate, Li2O4S, InChI=1S/2Li.H2O4S/c;;1-5(2,3)4/h;;(H2,1,2,3,4)/q2*+1;/p-2, purity 98%
Compound 4: sodium sulfate, Na2O4S, InChI=1S/2Na.H2O4S/c;;1-5(2,3)4/h;;(H2,1,2,3,4)/q2*+1;/p-2, purity 99%
Compound 5: potassium sulfate, K2O4S, InChI=1S/2K.H2O4S/c;;1-5(2,3)4/h;;(H2,1,2,3,4)/q2*+1;/p-2, purity 99%

System: water + 1-ethyl-3-methylimidazolium octyl sulfate; phases: Liquid
Fixed: Pressure, kPa = 101
Property: Mass density, kg/m3 (Liquid); method: Vibrating tube method
Temperature, K	Mass fraction of 1-ethyl-3-methylimidazolium octyl sulfate	Mass density, kg/m3	uncertainty
338.15	0.792	1046.8	1.2
328.15	0.792	1054	1.2
318.15	0.792	1061.1	1.2
308.15	0.792	1068.1	1.2
303.15	0.792	1071.5	1.2
300.15	0.792	1073.5	1.2
299.15	0.792	1074.2	1.2
298.15	0.792	1074.9	1.2
296.15	0.792	1076.2	1.2
295.15	0.792	1076.7	1.2
294.15	0.792	1077.4	1.2
293.85	0.792	1077.6	1.2
293.65	0.792	1077.8	1.2
293.45	0.792	1078	1.2
293.25	0.792	1078.2	1.2
293.15	0.792	1078.3	1.2
292.95	0.792	1078.5	1.2
292.65	0.792	1078.7	1.2
292.15	0.792	1079.1	1.2
343.15	0.832	1047.8	1.2
333.15	0.832	1054.9	1.2
323.15	0.832	1061.9	1.2
313.15	0.832	1068.7	1.2
308.15	0.832	1072.2	1.2
303.15	0.832	1075.7	1.2
298.15	0.832	1079.1	1.2
297.15	0.832	1079.7	1.2
296.15	0.832	1080.5	1.2
295.65	0.832	1080.7	1.2
295.15	0.832	1080.9	1.2
294.65	0.832	1081.2	1.2
294.15	0.832	1081.7	1.2
293.65	0.832	1082.1	1.2
343.15	0.8063	1045.3	1.2
333.15	0.8063	1052.4	1.2
323.15	0.8063	1059.5	1.2
313.15	0.8063	1066.5	1.2
308.15	0.8063	1069.9	1.2
303.15	0.8063	1073.4	1.2
298.15	0.8063	1076.8	1.2
297.15	0.8063	1077.5	1.2
296.15	0.8063	1078	1.2
295.65	0.8063	1078.3	1.2
295.15	0.8063	1078.7	1.2
294.65	0.8063	1079.2	1.2
294.15	0.8063	1079.6	1.2
293.65	0.8063	1080	1.2
343.15	0.7742	1041.6	1.1
333.15	0.7742	1048.8	1.1
323.15	0.7742	1055.9	1.2
313.15	0.7742	1062.9	1.2
308.15	0.7742	1066.3	1.2
303.15	0.7742	1069.7	1.2
298.15	0.7742	1073.1	1.2
297.15	0.7742	1073.8	1.2
296.15	0.7742	1074.5	1.2
295.15	0.7742	1074.9	1.2
294.15	0.7742	1075.5	1.2
293.15	0.7742	1076.4	1.2
292.65	0.7742	1076.9	1.2
292.15	0.7742	1077.2	1.2

System: water + 1-ethyl-3-methylimidazolium octyl sulfate; phases: Liquid
Fixed: Pressure, kPa = 101
Property: Viscosity, Pa*s (Liquid); method: Concentric cylinders viscometry
Temperature, K	Mass fraction of 1-ethyl-3-methylimidazolium octyl sulfate	Viscosity, Pa*s	uncertainty
338.15	0.792	0.01157	0.00025
328.15	0.792	0.01651	0.00037
318.15	0.792	0.02455	0.00055
308.15	0.792	0.03833	0.00085
303.15	0.792	0.04894	0.00108
300.15	0.792	0.05711	0.00126
299.15	0.792	0.06021	0.00133
298.15	0.792	0.06352	0.00141
296.15	0.792	0.07391	0.00167
343.15	0.832	0.01131	0.00025
333.15	0.832	0.0157	0.00035
323.15	0.832	0.0228	0.00051
313.15	0.832	0.03466	0.00077
308.15	0.832	0.0437	0.00097
303.15	0.832	0.05588	0.00124
298.15	0.832	0.07261	0.00163
297.15	0.832	0.07671	0.00173
343.15	0.8063	0.01028	0.00023
333.15	0.8063	0.01442	0.00032
323.15	0.8063	0.02103	0.00046
313.15	0.8063	0.03207	0.00071
308.15	0.8063	0.0404	0.00089
303.15	0.8063	0.05167	0.00113
298.15	0.8063	0.0672	0.00149
343.15	0.7742	0.009257	0.000203
333.15	0.7742	0.01291	0.00028
323.15	0.7742	0.0188	0.00041
313.15	0.7742	0.02864	0.00062
308.15	0.7742	0.03602	0.00079
303.15	0.7742	0.04598	0.00101
298.15	0.7742	0.05964	0.00131
297.15	0.7742	0.06292	0.00138

System: water + 1-ethyl-3-methylimidazolium octyl sulfate; phases: Liquid
Fixed: Pressure, kPa = 101
Fixed: Frequency, MHz = 0.0005
Property: Electrical conductivity, S/m (Liquid); method: Alternating current cell with electrodes
Temperature, K	Mass fraction of 1-ethyl-3-methylimidazolium octyl sulfate	Electrical conductivity, S/m	uncertainty
363.15	0.792	4.35	0.26
358.15	0.792	3.99	0.24
353.15	0.792	3.77	0.23
343.15	0.792	3.28	0.2
333.15	0.792	2.77	0.17
323.15	0.792	2.2	0.13
313.15	0.792	1.733	0.105
303.15	0.792	1.325	0.08
298.15	0.792	1.137	0.069
295.55	0.792	1.051	0.064
293.15	0.792	0.971	0.059
291.15	0.792	0.91	0.055
288.15	0.792	0.819	0.05
283.15	0.792	0.677	0.041
343.15	0.832	2.9	0.17
333.15	0.832	2.4	0.14
323.15	0.832	1.885	0.114
313.15	0.832	1.471	0.089
303.15	0.832	1.111	0.067
298.15	0.832	0.949	0.057
293.15	0.832	0.801	0.048
288.15	0.832	0.678	0.041
283.15	0.832	0.552	0.034
278.15	0.832	0.447	0.027
273.15	0.832	0.355	0.022
268.15	0.832	0.277	0.017
343.15	0.8063	3.17	0.19
333.15	0.8063	2.66	0.16
323.15	0.8063	2.09	0.13
313.15	0.8063	1.649	0.099
303.15	0.8063	1.252	0.076
298.15	0.8063	1.072	0.065
294.15	0.8063	0.951	0.058
293.15	0.8063	0.921	0.056
292.15	0.8063	0.89	0.05
288.15	0.8063	0.772	0.047
283.15	0.8063	0.642	0.039
278.15	0.8063	0.522	0.032
273.15	0.8063	0.417	0.025
268.15	0.8063	0.331	0.02
263.15	0.8063	0.26	0.016
343.15	0.7742	3.76	0.23
333.15	0.7742	3.13	0.19
323.15	0.7742	2.55	0.15
313.15	0.7742	1.977	0.12
303.15	0.7742	1.525	0.092
298.15	0.7742	1.312	0.08
293.15	0.7742	1.128	0.068
291.15	0.7742	1.053	0.064
290.15	0.7742	1.018	0.062
288.15	0.7742	0.956	0.058
283.15	0.7742	0.799	0.049
278.15	0.7742	0.653	0.04
273.15	0.7742	0.529	0.032
268.15	0.7742	0.406	0.025

System: water + 1-ethyl-3-methylimidazolium octyl sulfate; phases: Glass
Fixed: Pressure, kPa = 101
Property: Viscosity, Pa*s (Glass); method: Concentric cylinders viscometry
Temperature, K	Mass fraction of 1-ethyl-3-methylimidazolium octyl sulfate	Viscosity, Pa*s	uncertainty
295.15	0.792	0.1315	0.0272
294.15	0.792	0.2776	0.0607
293.85	0.792	0.353	0.1212
293.65	0.792	0.4514	0.1342
293.45	0.792	0.5357	0.1459
293.25	0.792	0.6111	0.1248
293.15	0.792	0.6577	0.1346
292.95	0.792	0.7525	0.1555
292.65	0.792	1.015	0.214
292.15	0.792	1.84	0.38
296.15	0.832	0.1037	0.0211
295.65	0.832	0.1465	0.03
295.15	0.832	0.2365	0.0489
294.65	0.832	0.4158	0.0869
294.15	0.832	0.7845	0.1667
293.65	0.832	1.635	0.342
297.15	0.8063	0.08081	0.01659
296.15	0.8063	0.1562	0.0316
295.65	0.8063	0.2533	0.052
295.15	0.8063	0.4013	0.0826
294.65	0.8063	0.66	0.1374
294.15	0.8063	1.15	0.24
293.65	0.8063	2.176	0.448
296.15	0.7742	0.07411	0.01519
295.15	0.7742	0.1371	0.0278
294.15	0.7742	0.2705	0.0557
293.15	0.7742	0.6904	0.1418
292.65	0.7742	1.118	0.233
292.15	0.7742	1.901	0.395

System: water + lithium sulfate + 1-ethyl-3-methylimidazolium octyl sulfate; phases: Liquid, Crystal of intercomponent compound 1
Property: Mass fraction of lithium sulfate (Liquid); method: Chromatography
Mass fraction of 1-ethyl-3-methylimidazolium octyl sulfate	Pressure, kPa	Temperature, K	Mass fraction of lithium sulfate	uncertainty
0.7792	101	294.15	0.0052	0.0008

System: water + lithium sulfate + 1-ethyl-3-methylimidazolium octyl sulfate; phases: Liquid
Fixed: Mass fraction of 1-ethyl-3-methylimidazolium octyl sulfate = 0.7792
Fixed: Mass fraction of lithium sulfate = 0.0052
Fixed: Pressure, kPa = 101
Fixed: Frequency, MHz = 0.0005
Property: Electrical conductivity, S/m (Liquid); method: Alternating current cell with electrodes
Temperature, K	Electrical conductivity, S/m	uncertainty
363.15	3.68	0.22
358.15	3.41	0.2
348.15	2.87	0.17
343.15	2.62	0.16
333.15	2.1	0.13
323.15	1.684	0.101
313.15	1.307	0.079
303.15	0.975	0.059
298.15	0.83	0.05
293.15	0.698	0.042
291.15	0.649	0.039
289.15	0.605	0.037
288.15	0.582	0.035
287.15	0.561	0.034
285.15	0.518	0.031
283.15	0.479	0.029

System: water + lithium sulfate + 1-ethyl-3-methylimidazolium octyl sulfate; phases: Liquid
Fixed: Mass fraction of 1-ethyl-3-methylimidazolium octyl sulfate = 0.7792
Fixed: Mass fraction of lithium sulfate = 0.0052
Fixed: Pressure, kPa = 101
Property: Viscosity, Pa*s (Liquid); method: Concentric cylinders viscometry
Temperature, K	Viscosity, Pa*s	uncertainty
338.15	0.01404	0.00031
328.15	0.01997	0.00044
318.15	0.02959	0.00065
308.15	0.04612	0.00101
303.15	0.05886	0.00128
298.15	0.07639	0.0017
296.15	0.08522	0.00193
293.15	0.101	0.0024

System: water + lithium sulfate + 1-ethyl-3-methylimidazolium octyl sulfate; phases: Liquid
Fixed: Mass fraction of 1-ethyl-3-methylimidazolium octyl sulfate = 0.7792
Fixed: Mass fraction of lithium sulfate = 0.0052
Fixed: Pressure, kPa = 101
Property: Mass density, kg/m3 (Liquid); method: Vibrating tube method
Temperature, K	Mass density, kg/m3	uncertainty
338.15	1054.2	1.2
328.15	1061.3	1.2
318.15	1068.3	1.2
308.15	1075.2	1.2
303.15	1078.7	1.2
298.15	1082.1	1.2
296.15	1083.4	1.2
293.15	1085.5	1.2
291.15	1086.9	1.2
290.15	1087.6	1.2
289.65	1088	1.2
289.65	1088.1	1.2
289.45	1088.2	1.2
289.25	1088.3	1.2
289.15	1088.4	1.2
288.95	1088.5	1.2

System: water + lithium sulfate + 1-ethyl-3-methylimidazolium octyl sulfate; phases: Glass
Fixed: Mass fraction of 1-ethyl-3-methylimidazolium octyl sulfate = 0.7792
Fixed: Mass fraction of lithium sulfate = 0.0052
Fixed: Pressure, kPa = 101
Property: Viscosity, Pa*s (Glass); method: Concentric cylinders viscometry
Temperature, K	Viscosity, Pa*s	uncertainty
291.15	0.2257	0.0466
290.15	0.4908	0.1
289.65	0.7202	0.147
289.65	0.6632	0.1353
289.45	0.7695	0.1571
289.25	0.8927	0.1826
289.15	0.9165	0.1867
288.95	0.981	0.2

System: water + sodium sulfate + 1-ethyl-3-methylimidazolium octyl sulfate; phases: Liquid, Crystal
Property: Mass fraction of sodium sulfate (Liquid); method: Chromatography
Mass fraction of 1-ethyl-3-methylimidazolium octyl sulfate	Pressure, kPa	Temperature, K	Mass fraction of sodium sulfate	uncertainty
0.8384	101	294.15	0.0006	0.0006

System: water + sodium sulfate + 1-ethyl-3-methylimidazolium octyl sulfate; phases: Liquid
Fixed: Mass fraction of 1-ethyl-3-methylimidazolium octyl sulfate = 0.8384
Fixed: Mass fraction of sodium sulfate = 0.0006
Fixed: Pressure, kPa = 101
Fixed: Frequency, MHz = 0.0005
Property: Electrical conductivity, S/m (Liquid); method: Alternating current cell with electrodes
Temperature, K	Electrical conductivity, S/m	uncertainty
363.15	3.72	0.22
358.15	3.41	0.21
353.15	3.13	0.19
343.15	2.63	0.16
333.15	2.11	0.13
323.15	1.681	0.101
313.15	1.35	0.081
303.15	0.977	0.059
298.15	0.829	0.05
293.15	0.699	0.042
291.15	0.655	0.04
288.15	0.59	0.036
285.15	0.523	0.032
283.15	0.483	0.029

System: water + sodium sulfate + 1-ethyl-3-methylimidazolium octyl sulfate; phases: Liquid
Fixed: Mass fraction of 1-ethyl-3-methylimidazolium octyl sulfate = 0.8384
Fixed: Mass fraction of sodium sulfate = 0.0006
Fixed: Pressure, kPa = 101
Property: Viscosity, Pa*s (Liquid); method: Concentric cylinders viscometry
Temperature, K	Viscosity, Pa*s	uncertainty
338.15	0.01372	0.0003
328.15	0.01955	0.00043
318.15	0.02906	0.00064
308.15	0.04541	0.001
303.15	0.05804	0.00127
298.15	0.07543	0.00169
295.65	0.08659	0.00198

System: water + sodium sulfate + 1-ethyl-3-methylimidazolium octyl sulfate; phases: Liquid
Fixed: Mass fraction of 1-ethyl-3-methylimidazolium octyl sulfate = 0.8384
Fixed: Mass fraction of sodium sulfate = 0.0006
Fixed: Pressure, kPa = 101
Property: Mass density, kg/m3 (Liquid); method: Vibrating tube method
Temperature, K	Mass density, kg/m3	uncertainty
338.15	1052.4	1.2
328.15	1059.5	1.2
318.15	1066.5	1.2
308.15	1073.5	1.2
303.15	1076.9	1.2
298.15	1080.4	1.2
295.65	1082.1	1.2
294.15	1083.4	1.2
293.15	1084	1.2
292.95	1084.1	1.2
292.75	1084.2	1.2
292.55	1084.3	1.2
292.35	1084.4	1.2
292.15	1084.5	1.2

System: water + sodium sulfate + 1-ethyl-3-methylimidazolium octyl sulfate; phases: Glass
Fixed: Mass fraction of 1-ethyl-3-methylimidazolium octyl sulfate = 0.8384
Fixed: Mass fraction of sodium sulfate = 0.0006
Fixed: Pressure, kPa = 101
Property: Viscosity, Pa*s (Glass); method: Concentric cylinders viscometry
Temperature, K	Viscosity, Pa*s	uncertainty
294.15	0.2079	0.0442
293.15	0.5713	0.1171
292.95	0.6621	0.1354
292.75	0.7518	0.1546
292.55	0.9147	0.1904
292.35	1.158	0.241
292.15	1.407	0.292

System: water + potassium sulfate + 1-ethyl-3-methylimidazolium octyl sulfate; phases: Liquid, Crystal
Property: Mass fraction of potassium sulfate (Liquid); method: Chromatography
Mass fraction of 1-ethyl-3-methylimidazolium octyl sulfate	Pressure, kPa	Temperature, K	Mass fraction of potassium sulfate	uncertainty
0.8164	101	294.15	0.0006	0.0006

System: water + potassium sulfate + 1-ethyl-3-methylimidazolium octyl sulfate; phases: Liquid
Fixed: Mass fraction of 1-ethyl-3-methylimidazolium octyl sulfate = 0.8164
Fixed: Mass fraction of potassium sulfate = 0.0006
Fixed: Pressure, kPa = 101
Fixed: Frequency, MHz = 0.0005
Property: Electrical conductivity, S/m (Liquid); method: Alternating current cell with electrodes
Temperature, K	Electrical conductivity, S/m	uncertainty
363.15	4.13	0.25
358.15	3.81	0.23
353.15	3.49	0.21
343.15	2.94	0.18
333.15	2.43	0.15
323.15	1.911	0.115
313.15	1.493	0.09
303.15	1.127	0.068
298.15	0.965	0.058
293.15	0.818	0.049
291.15	0.763	0.046
288.15	0.685	0.041
285.15	0.611	0.037
283.15	0.565	0.034

System: water + potassium sulfate + 1-ethyl-3-methylimidazolium octyl sulfate; phases: Liquid
Fixed: Mass fraction of 1-ethyl-3-methylimidazolium octyl sulfate = 0.8164
Fixed: Mass fraction of potassium sulfate = 0.0006
Fixed: Pressure, kPa = 101
Property: Viscosity, Pa*s (Liquid); method: Concentric cylinders viscometry
Temperature, K	Viscosity, Pa*s	uncertainty
338.15	0.01269	0.00028
328.15	0.01812	0.0004
318.15	0.02698	0.00059
308.15	0.04226	0.00093
303.15	0.05407	0.00118
298.15	0.07038	0.00156

System: water + potassium sulfate + 1-ethyl-3-methylimidazolium octyl sulfate; phases: Liquid
Fixed: Mass fraction of 1-ethyl-3-methylimidazolium octyl sulfate = 0.8164
Fixed: Mass fraction of potassium sulfate = 0.0006
Fixed: Pressure, kPa = 101
Property: Mass density, kg/m3 (Liquid); method: Vibrating tube method
Temperature, K	Mass density, kg/m3	uncertainty
338.15	1050.9	1.2
328.15	1058	1.2
318.15	1065	1.2
308.15	1072	1.2
303.15	1075.5	1.2
298.15	1078.9	1.2
297.15	1079.5	1.2
296.15	1079.7	1.2
295.65	1080	1.2
295.15	1080.6	1.2
294.95	1080.8	1.2
294.75	1081.1	1.2
294.55	1081.3	1.2
294.35	1081.5	1.2
294.15	1081.7	1.2

System: water + potassium sulfate + 1-ethyl-3-methylimidazolium octyl sulfate; phases: Glass
Fixed: Mass fraction of 1-ethyl-3-methylimidazolium octyl sulfate = 0.8164
Fixed: Mass fraction of potassium sulfate = 0.0006
Fixed: Pressure, kPa = 101
Property: Viscosity, Pa*s (Glass); method: Concentric cylinders viscometry
Temperature, K	Viscosity, Pa*s	uncertainty
297.15	0.08303	0.017
296.15	0.1718	0.0349
295.65	0.2945	0.0606
295.15	0.488	0.1001
294.95	0.5979	0.1237
294.75	0.7395	0.1535
294.55	0.9235	0.1927
294.35	1.172	0.246
294.15	1.528	0.321
