Measured thermophysical data. A thermodynamic study of the ketoreductase-catalyzed reduction of 2-alkanones in non-aqueous solvents
Source: J. Chem. Thermodyn., 2005, 10.1016/j.jct.2004.08.002
Compound 1: propan-2-ol, C3H8O, InChI=1S/C3H8O/c1-3(2)4/h3-4H,1-2H3, purity 99.8%
Compound 2: acetone, C3H6O, InChI=1S/C3H6O/c1-3(2)4/h1-2H3, purity 99%
Compound 3: butan-2-ol, C4H10O, InChI=1S/C4H10O/c1-3-4(2)5/h4-5H,3H2,1-2H3, purity 99%
Compound 4: butanone, C4H8O, InChI=1S/C4H8O/c1-3-4(2)5/h3H2,1-2H3, purity 99%
Compound 5: pentan-2-one, C5H10O, InChI=1S/C5H10O/c1-3-4-5(2)6/h3-4H2,1-2H3, purity 99.5%
Compound 6: pentan-2-ol, C5H12O, InChI=1S/C5H12O/c1-3-4-5(2)6/h5-6H,3-4H2,1-2H3, purity 99%
Compound 7: 2-hexanone, C6H12O, InChI=1S/C6H12O/c1-3-4-5-6(2)7/h3-5H2,1-2H3, purity 98%
Compound 8: 2-hexanol, C6H14O, InChI=1S/C6H14O/c1-3-4-5-6(2)7/h6-7H,3-5H2,1-2H3, purity 99%
Compound 9: 2-heptanone, C7H14O, InChI=1S/C7H14O/c1-3-4-5-6-7(2)8/h3-6H2,1-2H3, purity 99%
Compound 10: 2-heptanol, C7H16O, InChI=1S/C7H16O/c1-3-4-5-6-7(2)8/h7-8H,3-6H2,1-2H3, purity 99%
Compound 11: 2-octanone, C8H16O, InChI=1S/C8H16O/c1-3-4-5-6-7-8(2)9/h3-7H2,1-2H3, purity 98%
Compound 12: 2-octanol, C8H18O, InChI=1S/C8H18O/c1-3-4-5-6-7-8(2)9/h8-9H,3-7H2,1-2H3, purity 99%

Reaction: -1 propan-2-ol + 1 acetone + 1 butan-2-ol + -1 butanone
Property: Equilibrium constant in terms of mole fraction
0.843
0.847
0.843
0.844
0.848
0.84
0.848
0.857
0.817
0.811
0.814
0.826
0.849
0.85
0.806
0.809

Reaction: -1 propan-2-ol + 1 acetone + -1 pentan-2-one + 1 pentan-2-ol
Property: Equilibrium constant in terms of mole fraction
0.626
0.629
0.624
0.644

Reaction: -1 propan-2-ol + 1 acetone + -1 2-hexanone + 1 2-hexanol
Property: Equilibrium constant in terms of mole fraction
0.456
0.461

Reaction: -1 propan-2-ol + 1 acetone + -1 2-heptanone + 1 2-heptanol
Property: Equilibrium constant in terms of mole fraction
0.336
0.34

Reaction: -1 propan-2-ol + 1 acetone + -1 2-octanone + 1 2-octanol
Property: Equilibrium constant in terms of mole fraction
0.31
0.315
0.311
0.311
0.313
0.314
