Measured thermophysical data. Cosolvent effect on solubility of aripiprazole in mixed solvents and apparent thermodynamic analysis of dissolution process
Source: J. Chem. Thermodyn., 2019, 10.1016/j.jct.2019.03.021
Compound 1: Aripiprazole, C23H27Cl2N3O2, InChI=1S/C23H27Cl2N3O2/c24-19-4-3-5-21(23(19)25)28-13-11-27(12-14-28)10-1-2-15-30-18-8-6-17-7-9-22(29)26-20(17)16-18/h3-6,8,16H,1-2,7,9-15H2,(H,26,29)
Compound 2: acetone, C3H6O, InChI=1S/C3H6O/c1-3(2)4/h1-2H3, purity 99.5%
Compound 3: propan-1-ol, C3H8O, InChI=1S/C3H8O/c1-2-3-4/h4H,2-3H2,1H3, purity 99.6%
Compound 4: propan-2-ol, C3H8O, InChI=1S/C3H8O/c1-3(2)4/h3-4H,1-2H3, purity 99.5%

System: Aripiprazole + acetone + propan-1-ol; phases: Liquid, Crystal
Fixed: Pressure, kPa = 101
Property: Mole fraction of Aripiprazole (Liquid); method: Chromatography
Solvent: Mass fraction of acetone	Temperature, K	Mole fraction of Aripiprazole	uncertainty
0	278.15	1.463e-05	3.72e-06
0	283.15	1.925e-05	4.89e-06
0	288.15	2.567e-05	6.52e-06
0	293.15	3.276e-05	8.32e-06
0	298.15	4.124e-05	1.048e-05
0	303.15	5.371e-05	1.364e-05
0	308.15	6.725e-05	1.708e-05
0	313.15	8.322e-05	2.114e-05
0	318.15	0.0001033	2.62e-05
0.1	278.15	2.533e-05	6.43e-06
0.1	283.15	3.29e-05	8.36e-06
0.1	288.15	4.248e-05	1.079e-05
0.1	293.15	5.415e-05	1.375e-05
0.1	298.15	6.73e-05	1.71e-05
0.1	303.15	8.35e-05	2.121e-05
0.1	308.15	0.0001018	2.59e-05
0.1	313.15	0.0001235	3.14e-05
0.1	318.15	0.0001487	3.78e-05
0.2	278.15	3.541e-05	8.99e-06
0.2	283.15	4.534e-05	1.152e-05
0.2	288.15	5.772e-05	1.466e-05
0.2	293.15	7.079e-05	1.798e-05
0.2	298.15	8.86e-05	2.251e-05
0.2	303.15	0.000107	2.72e-05
0.2	308.15	0.0001288	3.27e-05
0.2	313.15	0.0001553	3.94e-05
0.2	318.15	0.0001855	4.71e-05
0.3	278.15	5.132e-05	1.304e-05
0.3	283.15	6.327e-05	1.607e-05
0.3	288.15	7.797e-05	1.981e-05
0.3	293.15	9.498e-05	2.413e-05
0.3	298.15	0.0001183	3.01e-05
0.3	303.15	0.0001446	3.67e-05
0.3	308.15	0.0001764	4.48e-05
0.3	313.15	0.0002079	5.28e-05
0.3	318.15	0.0002422	6.15e-05
0.4	278.15	6.241e-05	1.585e-05
0.4	283.15	7.802e-05	1.982e-05
0.4	288.15	9.572e-05	2.431e-05
0.4	293.15	0.0001166	2.96e-05
0.4	298.15	0.0001414	3.59e-05
0.4	303.15	0.0001706	4.33e-05
0.4	308.15	0.0002058	5.23e-05
0.4	313.15	0.0002421	6.15e-05
0.4	318.15	0.0002814	7.15e-05
0.5	278.15	7.142e-05	1.814e-05
0.5	283.15	9.163e-05	2.328e-05
0.5	288.15	0.0001141	2.9e-05
0.5	293.15	0.0001393	3.54e-05
0.5	298.15	0.0001669	4.24e-05
0.5	303.15	0.0002023	5.14e-05
0.5	308.15	0.0002391	6.07e-05
0.5	313.15	0.0002775	7.05e-05
0.5	318.15	0.0003254	8.27e-05
0.6	278.15	7.943e-05	2.018e-05
0.6	283.15	0.0001007	2.56e-05
0.6	288.15	0.000123	3.12e-05
0.6	293.15	0.0001492	3.79e-05
0.6	298.15	0.0001777	4.51e-05
0.6	303.15	0.0002121	5.39e-05
0.6	308.15	0.0002492	6.33e-05
0.6	313.15	0.0002904	7.38e-05
0.6	318.15	0.0003424	8.7e-05
0.7	278.15	6.713e-05	1.705e-05
0.7	283.15	8.324e-05	2.114e-05
0.7	288.15	0.0001038	2.64e-05
0.7	293.15	0.0001254	3.19e-05
0.7	298.15	0.0001532	3.89e-05
0.7	303.15	0.0001836	4.66e-05
0.7	308.15	0.0002175	5.52e-05
0.7	313.15	0.0002554	6.49e-05
0.7	318.15	0.000299	7.59e-05
0.8	278.15	4.908e-05	1.247e-05
0.8	283.15	6.011e-05	1.527e-05
0.8	288.15	7.401e-05	1.88e-05
0.8	293.15	9.078e-05	2.306e-05
0.8	298.15	0.0001103	2.8e-05
0.8	303.15	0.0001339	3.4e-05
0.8	308.15	0.00016	4.06e-05
0.8	313.15	0.0001888	4.8e-05
0.8	318.15	0.0002216	5.63e-05
0.9	278.15	2.991e-05	7.6e-06
0.9	283.15	3.978e-05	1.01e-05
0.9	288.15	5.128e-05	1.303e-05
0.9	293.15	6.46e-05	1.641e-05
0.9	298.15	7.986e-05	2.029e-05
0.9	303.15	9.773e-05	2.482e-05
0.9	308.15	0.0001193	3.03e-05
0.9	313.15	0.0001436	3.65e-05
0.9	318.15	0.0001742	4.42e-05
1	278.15	1.968e-05	5e-06
1	283.15	2.725e-05	6.92e-06
1	288.15	3.596e-05	9.13e-06
1	293.15	4.706e-05	1.195e-05
1	298.15	5.943e-05	1.51e-05
1	303.15	7.317e-05	1.859e-05
1	308.15	8.925e-05	2.267e-05
1	313.15	0.0001098	2.79e-05
1	318.15	0.0001346	3.42e-05

System: Aripiprazole + acetone + propan-2-ol; phases: Liquid, Crystal
Fixed: Pressure, kPa = 101
Property: Mole fraction of Aripiprazole (Liquid); method: Chromatography
Solvent: Mass fraction of acetone	Temperature, K	Mole fraction of Aripiprazole	uncertainty
0	278.15	6.319e-06	1.605e-06
0	283.15	9.103e-06	2.312e-06
0	288.15	1.225e-05	3.11e-06
0	293.15	1.684e-05	4.28e-06
0	298.15	2.252e-05	5.72e-06
0	303.15	2.942e-05	7.47e-06
0	308.15	3.887e-05	9.87e-06
0	313.15	5.049e-05	1.283e-05
0	318.15	6.377e-05	1.62e-05
0.1	278.15	9.62e-06	2.44e-06
0.1	283.15	1.31e-05	3.33e-06
0.1	288.15	1.727e-05	4.39e-06
0.1	293.15	2.356e-05	5.98e-06
0.1	298.15	3.072e-05	7.8e-06
0.1	303.15	3.959e-05	1.006e-05
0.1	308.15	5.046e-05	1.282e-05
0.1	313.15	6.361e-05	1.616e-05
0.1	318.15	7.682e-05	1.951e-05
0.2	278.15	1.509e-05	3.83e-06
0.2	283.15	1.97e-05	5e-06
0.2	288.15	2.461e-05	6.25e-06
0.2	293.15	3.128e-05	7.95e-06
0.2	298.15	3.886e-05	9.87e-06
0.2	303.15	4.772e-05	1.212e-05
0.2	308.15	5.91e-05	1.501e-05
0.2	313.15	7.491e-05	1.903e-05
0.2	318.15	9.04e-05	2.296e-05
0.3	278.15	1.687e-05	4.29e-06
0.3	283.15	2.279e-05	5.79e-06
0.3	288.15	3.036e-05	7.71e-06
0.3	293.15	3.987e-05	1.013e-05
0.3	298.15	5.141e-05	1.306e-05
0.3	303.15	6.567e-05	1.668e-05
0.3	308.15	8.468e-05	2.151e-05
0.3	313.15	0.0001034	2.63e-05
0.3	318.15	0.0001265	3.21e-05
0.4	278.15	2.589e-05	6.58e-06
0.4	283.15	3.592e-05	9.13e-06
0.4	288.15	4.864e-05	1.236e-05
0.4	293.15	6.346e-05	1.612e-05
0.4	298.15	8.022e-05	2.038e-05
0.4	303.15	9.858e-05	2.504e-05
0.4	308.15	0.0001214	3.08e-05
0.4	313.15	0.0001481	3.76e-05
0.4	318.15	0.0001801	4.57e-05
0.5	278.15	3.874e-05	9.84e-06
0.5	283.15	5.03e-05	1.278e-05
0.5	288.15	6.511e-05	1.654e-05
0.5	293.15	8.138e-05	2.067e-05
0.5	298.15	0.0001006	2.56e-05
0.5	303.15	0.0001245	3.16e-05
0.5	308.15	0.0001487	3.78e-05
0.5	313.15	0.000176	4.47e-05
0.5	318.15	0.0002065	5.25e-05
0.6	278.15	4.823e-05	1.225e-05
0.6	283.15	6.247e-05	1.587e-05
0.6	288.15	7.818e-05	1.986e-05
0.6	293.15	9.459e-05	2.403e-05
0.6	298.15	0.0001152	2.93e-05
0.6	303.15	0.0001372	3.49e-05
0.6	308.15	0.0001641	4.17e-05
0.6	313.15	0.0001931	4.9e-05
0.6	318.15	0.0002267	5.76e-05
0.7	278.15	4.469e-05	1.135e-05
0.7	283.15	5.67e-05	1.44e-05
0.7	288.15	7.151e-05	1.816e-05
0.7	293.15	8.797e-05	2.235e-05
0.7	298.15	0.0001081	2.75e-05
0.7	303.15	0.00013	3.3e-05
0.7	308.15	0.0001548	3.93e-05
0.7	313.15	0.0001851	4.7e-05
0.7	318.15	0.0002179	5.53e-05
0.8	278.15	3.432e-05	8.72e-06
0.8	283.15	4.414e-05	1.121e-05
0.8	288.15	5.633e-05	1.431e-05
0.8	293.15	7.026e-05	1.785e-05
0.8	298.15	8.808e-05	2.237e-05
0.8	303.15	0.0001078	2.74e-05
0.8	308.15	0.0001311	3.33e-05
0.8	313.15	0.0001592	4.04e-05
0.8	318.15	0.00019	4.83e-05
0.9	278.15	2.428e-05	6.17e-06
0.9	283.15	3.234e-05	8.21e-06
0.9	288.15	4.245e-05	1.078e-05
0.9	293.15	5.35e-05	1.359e-05
0.9	298.15	6.7e-05	1.702e-05
0.9	303.15	8.284e-05	2.104e-05
0.9	308.15	0.0001027	2.61e-05
0.9	313.15	0.0001286	3.27e-05
0.9	318.15	0.0001545	3.92e-05
1	278.15	1.968e-05	5e-06
1	283.15	2.725e-05	6.92e-06
1	288.15	3.596e-05	9.13e-06
1	293.15	4.706e-05	1.195e-05
1	298.15	5.943e-05	1.51e-05
1	303.15	7.317e-05	1.859e-05
1	308.15	8.925e-05	2.267e-05
1	313.15	0.0001098	2.79e-05
1	318.15	0.0001346	3.42e-05

System: Aripiprazole + propan-1-ol; phases: Liquid, Crystal
Fixed: Pressure, kPa = 101
Property: Mole fraction of Aripiprazole (Liquid); method: Chromatography
Temperature, K	Mole fraction of Aripiprazole	uncertainty
278.15	1.463e-05	3.72e-06
283.15	1.925e-05	4.89e-06
288.15	2.567e-05	6.52e-06
293.15	3.276e-05	8.32e-06
298.15	4.124e-05	1.048e-05
303.15	5.371e-05	1.364e-05
308.15	6.725e-05	1.708e-05
313.15	8.322e-05	2.114e-05
318.15	0.0001033	2.62e-05

System: Aripiprazole + acetone; phases: Liquid, Crystal
Fixed: Pressure, kPa = 101
Property: Mole fraction of Aripiprazole (Liquid); method: Chromatography
Temperature, K	Mole fraction of Aripiprazole	uncertainty
278.15	1.968e-05	5e-06
283.15	2.725e-05	6.92e-06
288.15	3.596e-05	9.13e-06
293.15	4.706e-05	1.195e-05
298.15	5.943e-05	1.51e-05
303.15	7.317e-05	1.859e-05
308.15	8.925e-05	2.267e-05
313.15	0.0001098	2.79e-05
318.15	0.0001346	3.42e-05

System: Aripiprazole + propan-2-ol; phases: Liquid, Crystal
Fixed: Pressure, kPa = 101
Property: Mole fraction of Aripiprazole (Liquid); method: Chromatography
Temperature, K	Mole fraction of Aripiprazole	uncertainty
278.15	6.319e-06	1.605e-06
283.15	9.103e-06	2.312e-06
288.15	1.225e-05	3.11e-06
293.15	1.684e-05	4.28e-06
298.15	2.252e-05	5.72e-06
303.15	2.942e-05	7.47e-06
308.15	3.887e-05	9.87e-06
313.15	5.049e-05	1.283e-05
318.15	6.377e-05	1.62e-05
