Measured thermophysical data. Thermochemistry of 4-HOC6H4COR (R = H, CH3, C2H5, n-C3H7, n-C4H9, n-C5H11, and n-C6H13) compounds
Source: J. Chem. Thermodyn., 2017, 10.1016/j.jct.2016.09.026
Compound 1: 1-(4-hydroxyphenyl)-1-propanone, C9H10O2, InChI=1S/C9H10O2/c1-2-9(11)7-3-5-8(10)6-4-7/h3-6,10H,2H2,1H3, purity 99.5%
Compound 2: 1-(4-hydroxyphenyl)-1-butanone, C10H12O2, InChI=1S/C10H12O2/c1-2-3-10(12)8-4-6-9(11)7-5-8/h4-7,11H,2-3H2,1H3, purity 99.3%
Compound 3: 1-(4-hydroxyphenyl)-1-pentanone, C11H14O2, InChI=1S/C11H14O2/c1-2-3-4-11(13)9-5-7-10(12)8-6-9/h5-8,12H,2-4H2,1H3, purity 99.3%
Compound 4: 1-(4-hydroxyphenyl)-1-heptanone, C13H18O2, InChI=1S/C13H18O2/c1-2-3-4-5-6-13(15)11-7-9-12(14)10-8-11/h7-10,14H,2-6H2,1H3, purity 99.9%

System: 1-(4-hydroxyphenyl)-1-propanone; phases: Crystal, Liquid, Air at 1 atmosphere
Property: Normal melting temperature, K (Crystal); method: DTA
Normal melting temperature, K	uncertainty
421.6	0.5

System: 1-(4-hydroxyphenyl)-1-propanone; phases: Crystal, Liquid, Air at 1 atmosphere
Property: Molar enthalpy of transition or fusion, kJ/mol (Crystal); method: DSC
Molar enthalpy of transition or fusion, kJ/mol	uncertainty
31.64	0.74

System: 1-(4-hydroxyphenyl)-1-propanone; phases: Crystal
Property: Mass density, kg/m3 (Crystal); method: X-ray diffraction
Temperature, K	Pressure, kPa	Mass density, kg/m3	uncertainty
298	101.325	1273.1	27.7

System: 1-(4-hydroxyphenyl)-1-propanone; phases: Crystal, Gas
Property: Molar enthalpy of vaporization or sublimation, kJ/mol (Crystal); method: Static calorimetry
Temperature, K	Molar enthalpy of vaporization or sublimation, kJ/mol	uncertainty
381.12	112.44165513	0.848485925

System: 1-(4-hydroxyphenyl)-1-propanone; phases: Crystal
Fixed: Pressure, kPa = 101.325
Property: Molar heat capacity at constant pressure, J/K/mol (Crystal); method: Small sample (50 mg) DSC
Temperature, K	Molar heat capacity at constant pressure, J/K/mol	uncertainty
288.66	188.2	5.2
289.98	188.2	5.7
291.28	189.2	5.2
292.55	189.9	6
293.82	190.1	6.6
295.08	191.4	6.6
296.34	192.1	5.8
297.6	192.7	5.2
298.85	192.9	5.2
300.11	193.6	5.5
301.36	194.5	5.8
302.61	195.3	5.8
303.87	196.9	5.8
305.13	197.5	5.8
306.38	198.3	5
307.64	198.5	5.3
308.89	199.3	5
310.14	199.8	5.8
311.39	201	5.8
312.64	201.7	5.6
313.9	202.7	5.8
315.15	203.5	5.3
316.4	203.9	6.1
317.65	204.9	6.1
318.9	204.9	6.1
320.15	206.1	5.9
321.41	206.9	5.9
322.66	207.6	5.6
323.91	208.3	5.9
325.16	209.1	6.2
326.41	209.8	5.6
327.66	210.5	5.4
328.91	211.5	5.6
330.16	212	5.9
331.41	212.6	5.9
332.66	213.6	5.6
333.91	214.1	5.4
335.16	215	5.4
336.41	216.1	5.9
337.66	216.6	6.5
338.91	217.2	6.2
340.16	217.3	5.7
341.41	218.3	5.4
342.66	219.2	5.7
343.91	220.2	6.2
345.16	220.7	6
346.41	222	5.7
347.66	222.2	5.7
348.91	223.1	5.7
350.15	223.8	6.3
351.4	225	6.3
352.65	225.9	6.3
353.9	226.5	6.6
355.15	226.9	6.3
356.4	227.5	5.2
357.65	228.2	6
358.9	228.9	5.8
360.15	229.6	6.6
361.4	230.9	6.9
362.65	231.4	6.3
363.9	232.2	6.9
365.15	232.7	6.9
366.39	233.5	7.5
367.65	235.1	6.9
368.9	235.7	6.9
370.15	236.6	6.6
371.4	237.2	6.6
372.65	237.9	7.2
373.9	238.7	7.5
375.15	239.3	7.5
376.4	240.8	7.2
377.64	241.3	7.8
378.89	242.4	8.1
380.14	243.1	8.4
381.39	243.7	8.4
382.64	244.3	9.6
383.89	245.9	9.3

System: 1-(4-hydroxyphenyl)-1-butanone; phases: Crystal, Liquid, Air at 1 atmosphere
Property: Normal melting temperature, K (Crystal); method: DTA
Normal melting temperature, K	uncertainty
364.7	0.4

System: 1-(4-hydroxyphenyl)-1-butanone; phases: Crystal, Liquid, Air at 1 atmosphere
Property: Molar enthalpy of transition or fusion, kJ/mol (Crystal); method: DSC
Molar enthalpy of transition or fusion, kJ/mol	uncertainty
23.99	0.54

System: 1-(4-hydroxyphenyl)-1-butanone; phases: Crystal
Property: Mass density, kg/m3 (Crystal); method: X-ray diffraction
Temperature, K	Pressure, kPa	Mass density, kg/m3	uncertainty
298	101.325	1204.5	7.1

System: 1-(4-hydroxyphenyl)-1-butanone; phases: Crystal, Gas
Property: Molar enthalpy of vaporization or sublimation, kJ/mol (Crystal); method: Static calorimetry
Temperature, K	Molar enthalpy of vaporization or sublimation, kJ/mol	uncertainty
351.22	114.127960654	1.6600729188

System: 1-(4-hydroxyphenyl)-1-butanone; phases: Crystal
Fixed: Pressure, kPa = 101.325
Property: Molar heat capacity at constant pressure, J/K/mol (Crystal); method: Small sample (50 mg) DSC
Temperature, K	Molar heat capacity at constant pressure, J/K/mol	uncertainty
288.67	219.2	14
289.99	221.2	15
291.29	221.3	14.3
291.6	222	15
292.87	223.3	15
294.14	224.2	14
295.4	225.7	12.8
296.66	227.4	11.9
297.92	228.6	13.4
299.17	229.2	12.5
300.43	231	12.2
301.68	232.3	10.4
302.94	232.9	11.3
304.19	234.6	7.7
305.45	234.9	9.2
306.7	236.9	9.5
307.95	238.6	8.6
309.21	239.7	7.8
310.46	240.7	7.8
311.71	242	7.2
312.96	243.7	7.8
314.21	244.9	6.2
315.46	245.8	5.9
316.71	247	4.7
317.96	247.7	6.2
319.22	249.1	5
320.47	250.2	4
321.72	251.4	5.5
322.97	253	5.2
324.23	254.5	6
325.48	256.4	5
326.73	257.1	6.3
327.98	258.9	6.5
329.23	260.2	6.5
330.48	262.1	7.6
331.73	263.6	7.7
332.98	265.5	6.3
334.23	265.9	7.7
335.48	267.6	7.1
336.73	270.1	6.6
337.98	270.4	7.7
339.23	272	8
340.48	274.4	10
341.73	276	8.9
342.98	278.2	10.9
344.23	279.7	10.3
345.48	281.2	11.8
346.73	282.8	10.6
347.98	284.5	11.8
349.23	287	13.1
350.48	289	11.9

System: 1-(4-hydroxyphenyl)-1-pentanone; phases: Crystal, Liquid, Air at 1 atmosphere
Property: Normal melting temperature, K (Crystal); method: DTA
Normal melting temperature, K	uncertainty
334.2	0.8

System: 1-(4-hydroxyphenyl)-1-pentanone; phases: Crystal, Liquid, Air at 1 atmosphere
Property: Molar enthalpy of transition or fusion, kJ/mol (Crystal); method: DSC
Molar enthalpy of transition or fusion, kJ/mol	uncertainty
25.75	0.59

System: 1-(4-hydroxyphenyl)-1-pentanone; phases: Crystal
Property: Mass density, kg/m3 (Crystal); method: X-ray diffraction
Temperature, K	Pressure, kPa	Mass density, kg/m3	uncertainty
298	101.325	1204.5	8

System: 1-(4-hydroxyphenyl)-1-pentanone; phases: Liquid, Gas
Property: Molar enthalpy of vaporization or sublimation, kJ/mol (Liquid); method: Static calorimetry
Temperature, K	Molar enthalpy of vaporization or sublimation, kJ/mol	uncertainty
341.73	96.073620123	0.730733406

System: 1-(4-hydroxyphenyl)-1-pentanone; phases: Crystal
Fixed: Pressure, kPa = 101.325
Property: Molar heat capacity at constant pressure, J/K/mol (Crystal); method: Small sample (50 mg) DSC
Temperature, K	Molar heat capacity at constant pressure, J/K/mol	uncertainty
288.67	235	7.5
288.92	235.9	7.3
289.17	235.2	6.7
289.42	236.4	6.7
289.67	236	7.7
289.92	235.3	7.5
290.17	236.5	7.5
290.42	236.3	7.5
290.68	238	8.1
290.93	236.4	7.1
291.18	236.8	7.7
291.43	238	8.1
291.68	237.8	8.1
291.93	236.7	7.7
292.18	237.4	7.5
292.43	238.5	7.7
292.68	239	8.8
292.93	239.6	7.5
293.18	239.6	7.7
293.43	240	7.7
293.68	240.4	8.8
293.93	239.8	8.3
294.18	239.1	7.7
294.44	239.1	8.3
294.69	240.8	8.3
294.94	240.4	8.3
295.19	239.8	7.7
295.44	240.5	7.1
295.69	241.6	7.5
295.94	241.1	7.5
296.19	240.8	7.9
296.44	242.1	8.1
296.69	241.7	7.7
296.94	241.2	8.6
297.19	241.5	8.3
297.44	242.2	8.6
297.69	241.6	7.7
297.94	242.5	8.1
298.19	242.7	8.3
298.44	242.8	7.7
298.69	241.8	7.9
298.94	242.3	7.5
299.19	242.3	6.9
299.44	242.2	8.1
299.69	242.9	8.6
299.94	244.1	8.8
300.19	244.9	8.6
300.44	244.3	8.4
300.69	244.4	8.1
300.94	244.7	8.8
301.19	244.5	8.4
301.44	243.4	8.4
301.69	244.2	8.1
301.94	244.9	8.2
302.19	245.3	8.4
302.44	245.1	8.6
302.69	244.8	8.6
302.94	245.6	8.8
303.19	246.4	9
303.44	246.5	8.2
303.69	247	8.2
303.94	247.4	8.8
304.19	247.3	9.2
304.44	247.5	9
304.69	246.8	8.8
304.94	246.8	9
305.19	247.1	9.6
305.44	248.1	9.9
305.69	247.8	9.4
305.94	247.5	9.2
306.19	247.7	9.7
306.44	248.9	9.7
306.69	248.8	10.5
306.94	249.6	10.1
307.19	250.4	9.7
307.44	250.1	9.7
307.69	250.1	9.4
307.94	249.4	9.7
308.19	249.7	9.4
308.44	250.1	9.9
308.69	249.7	9.4
308.94	250.3	9.9
309.19	250.8	9.9
309.44	251.7	10.5
309.69	252.9	10.8
309.94	251.9	9.9
310.19	253.2	10.1
310.44	253.8	9.7
310.69	253.1	9
310.94	253.2	8.8
311.19	252.6	9.7
311.44	252.4	9.9
311.69	253.1	10.1
311.94	252.2	9.5
312.19	252.8	9
312.44	252.4	9.9
312.69	253.6	9.3
312.94	254	10.1
313.19	253.3	9.3
313.44	254.6	9.7
313.69	255.2	10.3
313.94	255	10.3
314.19	255.4	10.3
314.44	256.5	10.6
314.69	256.9	10.3
314.94	256.1	11
315.19	256	10.3
315.44	255.8	9.5
315.69	255.8	9.9
315.94	256	10.8
316.19	256.4	10.6
316.44	256.4	10.6
316.69	257.2	11
316.94	258	11
317.19	257.2	11
317.44	257.6	11.4
317.69	257.8	10.8
317.94	257.4	11.2
318.19	257	11
318.44	258.3	10.8
318.69	258.9	11
318.94	259.1	11.2
319.19	260.1	11.2
319.44	259.4	11.9
319.69	260.1	11.9
319.94	259.7	11.9
320.19	259.7	12.1
320.44	260.3	11.7
320.69	260.6	12.1
320.94	261.2	12.3
321.19	261.4	12.5
321.44	260.7	12.3
321.69	260.9	12.1
321.94	260.9	12.3
322.19	261.4	12.1
322.44	262.1	12.6
322.69	262.7	12.8
322.94	262.6	13.2
323.19	263.3	12.3
323.44	263.3	12.1
323.69	262.8	12.3
323.94	263	12.1
324.19	264.1	12.8
324.44	264.2	12.8
324.69	264.3	12.3
324.94	265.1	12.8
325.19	265.2	12.1
325.44	265.1	12.3
325.69	265.8	12.8
325.94	266.1	12.6
326.19	266.1	12.6
326.44	267.6	13
326.69	267.8	13.7
326.94	267.5	13.7
327.19	267.3	13.2
327.44	267.7	13
327.69	268.3	13.5
327.94	268.4	14.1
328.19	268.9	13.9
328.44	269.8	13.7
328.69	269.8	14.1
328.94	270.3	13.9
329.19	270.3	13.5
329.44	272	13.5
329.69	273.2	14.1
329.94	272.8	14.4
330.19	273.6	14.6
330.44	273.2	13.5
330.69	275.7	13.5
330.94	275.7	14.2
331.19	277.6	14.4
331.44	277.9	14.8
331.69	278.6	15.1
331.94	280.4	14.8
332.19	281.8	15.7
332.44	283.8	16.2
332.69	285.5	15.5
332.94	287.6	15.8
333.19	291.7	17.1
333.44	295.7	17.6

System: 1-(4-hydroxyphenyl)-1-pentanone; phases: Liquid
Fixed: Pressure, kPa = 101.325
Property: Molar heat capacity at constant pressure, J/K/mol (Liquid); method: Small sample (50 mg) DSC
Temperature, K	Molar heat capacity at constant pressure, J/K/mol	uncertainty
340.69	393.2	30.8
340.94	373.9	15.1
341.19	368.2	15.7
341.44	365.9	15
341.69	367	15.2
341.94	367.1	15.6
342.19	366.1	15.4
342.44	366.4	15.6
342.69	368.5	15.5
342.94	384.8	17.3
343.19	386	18.1
343.44	368.7	16.1
343.69	364.2	20.3
343.94	364.3	20.9
344.19	364.4	20.5
344.44	365	19.8
344.69	366.8	18.3
344.94	368.6	17.6
345.19	369.5	18.3
345.44	369.4	17
345.69	370.7	15.9
345.94	371	15.9
346.19	371	16.3
346.44	370.7	15.9
346.69	371	15.9
346.94	372.4	15.9
347.19	373.1	15.9
347.44	372.8	15.5
347.69	373.7	17
347.94	374	17
348.19	373.1	16.8
348.44	372.9	17
348.69	371.8	17.2
348.94	372	17
349.19	373	17.2
349.44	374.4	17
349.69	374.8	17.6
349.94	374	17.6
350.19	374.1	17.9
350.44	375.3	17.2
350.69	374.9	17.6
350.94	373.9	17.6
351.19	375	17.4
351.44	376.6	18.1
351.68	375.6	17.9
351.93	376.3	18.5

System: 1-(4-hydroxyphenyl)-1-heptanone; phases: Crystal, Liquid, Air at 1 atmosphere
Property: Normal melting temperature, K (Crystal); method: DTA
Normal melting temperature, K	uncertainty
365	0.4

System: 1-(4-hydroxyphenyl)-1-heptanone; phases: Crystal, Liquid, Air at 1 atmosphere
Property: Molar enthalpy of transition or fusion, kJ/mol (Crystal); method: DSC
Molar enthalpy of transition or fusion, kJ/mol	uncertainty
31.4	0.69

System: 1-(4-hydroxyphenyl)-1-heptanone; phases: Liquid, Gas
Property: Molar enthalpy of vaporization or sublimation, kJ/mol (Liquid); method: Static calorimetry
Temperature, K	Molar enthalpy of vaporization or sublimation, kJ/mol	uncertainty
381.12	101.2818198118	1.9534793654

System: 1-(4-hydroxyphenyl)-1-heptanone; phases: Crystal
Fixed: Pressure, kPa = 101.325
Property: Molar heat capacity at constant pressure, J/K/mol (Crystal); method: Small sample (50 mg) DSC
Temperature, K	Molar heat capacity at constant pressure, J/K/mol	uncertainty
288.67	291	15.2
289.17	292.2	21.4
289.67	289.9	17.4
290.17	290.9	20.5
290.68	292.7	18.3
291.18	295	16.8
291.68	296.8	18
292.18	295.6	16.8
292.69	295.3	15.5
293.19	296.8	14.6
293.69	295	11
294.19	297.4	12.2
294.69	297.4	17.1
295.19	296.8	18.6
295.69	301	12.2
296.19	302.3	18.6
296.7	300.1	12.2
297.2	300.6	11
297.7	300.7	12.8
298.2	300.2	10.4
298.7	303	12.8
299.2	302.5	16.2
299.7	304.8	15.3
300.2	307.5	10.2
300.7	306.2	10.2
301.2	305.9	14
301.7	306.8	9.1
302.2	306.5	14.7
302.7	307.3	7.7
303.2	308.7	11.7
303.7	307.9	12.9
304.2	309.2	13.8
304.7	311.7	9.4
305.2	310	6.3
305.7	309.6	5.1
306.2	311.9	15.9
306.7	312.9	7.5
307.2	311.4	13.2
307.7	311.2	8.8
308.2	310.6	8
308.7	313.4	8.3
309.2	314	4.9
309.7	314.4	10
310.2	315.8	6.8
310.7	314.9	8
311.2	316.7	8.3
311.7	318	6.1
312.2	317.3	8.9
312.7	318.1	7.5
313.2	319.2	6.1
313.7	320.9	8.3
314.2	320.5	5.5
314.7	319.8	5
315.2	319.7	6.6
315.7	323.3	6.4
316.2	322.8	6
316.7	323.2	8.1
317.2	324	8.1
317.7	323.8	7.3
318.2	325.7	7.4
318.7	324.1	7.6
319.2	327.1	9.2
319.7	327.1	12.1
320.2	324.7	10.6
320.7	327.1	6.4
321.2	328.9	6.9
321.7	328.9	6.4
322.2	330.3	9.5
322.7	329.6	12.4
323.2	331.2	10.3
323.7	332	8.4
324.2	330.5	6
324.7	331.9	6.1
325.2	333.5	7.4
325.7	333.6	7.2
326.2	334.4	11.2
326.7	335	10.9
327.2	335.2	6.1
327.7	334.1	10.4
328.2	335	8.7
328.7	337.4	10.1
329.2	336.3	7.4
329.7	338.1	6.8
330.2	338.7	10.1
330.7	337.8	8
331.2	338.5	7.7
331.7	339.5	8.5
332.2	340.3	10.1
332.7	342.3	9.3
333.2	341.3	11.6
333.7	342.1	6.6
334.2	343.3	11.6
334.7	343.6	12.2
335.2	343.9	11.9
335.7	346.5	9.1
336.2	344.9	12.2
336.7	346.6	10.4
337.2	346.4	10.4
337.7	346.9	13
338.2	349.4	8.6
338.7	347.8	9.4
339.19	348.2	13.9
339.69	348.7	17.9
340.2	350.4	9.4
340.7	352.5	11.1
341.2	350.7	9.4
341.7	350.7	14
342.2	351.4	14.6
342.7	351.7	14.9
343.19	353.4	11.3
343.69	353.1	9.1
344.19	353.4	14.9
344.69	356.8	11.7
345.19	357	10.8
345.69	355.2	12.8
346.19	357.3	12.5
346.69	357.3	13.4
347.19	358.3	11.1
347.69	359.2	11.7
348.19	360.3	12
348.69	361.6	16.1
349.19	362.4	15.8
349.69	360.9	14
350.19	361.8	17.3
350.69	363.3	14
351.19	364.3	13.4
351.69	363.9	11.7
352.19	363.4	13.1
352.69	366	8.7
353.19	365.4	14
353.69	368.2	10.9
354.19	369.3	14.1
354.69	370	13.8
355.19	372.4	12.9
355.69	375.2	11.5
356.19	373.6	11.8
356.69	374.5	17.1
357.19	374.8	16.5
357.69	380	12.4
358.19	380.1	11
358.69	381.4	11.5
359.19	382.3	10.4
359.69	387	9.4
360.19	391.3	10.2
360.69	393.9	11.3
361.19	397.9	17.2
361.69	403.5	17.8
362.19	413.1	16.4
362.69	424.4	17.3
363.19	446.7	13.7

System: 1-(4-hydroxyphenyl)-1-heptanone; phases: Liquid
Fixed: Pressure, kPa = 101.325
Property: Molar heat capacity at constant pressure, J/K/mol (Liquid); method: Small sample (50 mg) DSC
Temperature, K	Molar heat capacity at constant pressure, J/K/mol	uncertainty
370.2	458.6	18.1
370.7	460.1	17.8
371.19	461.4	16.3
371.69	461.5	21.7
372.19	463.4	21.1
372.69	462.1	22
373.19	464.1	20.2
373.69	465.7	26.6
374.19	465.5	26.9
374.69	467.4	19.3
375.19	464.3	18.1
375.69	466.6	24.8
376.19	466.5	23.2
376.69	466.6	16.9
377.19	467.5	18.1
377.69	468.1	14.9
378.19	470.5	17.2
378.69	469.8	22.3
379.19	468.2	20.8
379.69	471.2	23.2
380.19	470	18.7
380.69	474	24.2
381.19	473.3	28.5
381.69	474	27.9
382.19	470.5	23.2
382.69	473.3	23.9
383.19	472.6	20.8
383.69	473.7	21.4
384.19	474.9	23
384.69	477.4	22.7
385.19	480	31.9
385.69	481.1	24.2
386.19	482.1	25.7
386.69	479	27.9
