Measured thermophysical data. Thermodynamic study of MgO-Sb2O3 system and the stability functions of magnesium antimonite
Source: J. Chem. Thermodyn., 2014, 10.1016/j.jct.2013.12.032
Compound 1: magnesium oxide, MgO, InChI=1S/Mg.O/q+2;-2
Compound 2: antimony, Sb, InChI=1S/Sb
Compound 3: oxygen, O2, InChI=1S/O2/c1-2
Compound 4: magnesium, Mg, InChI=1S/Mg
Compound 5: magnesium antimonite, MgO4Sb2, InChI=1S/Mg.4O.2Sb/q+2;;;;;2*-1, purity 95%

Reaction: -1 magnesium oxide + -2 antimony + 1 magnesium antimonite + -1.5 oxygen
Property: Molar Gibbs energy of reaction, kJ/mol
-495.3
-492.7
-490
-487.4
-484.7
-482.1
-479.5
-476.8
-474.2
-471.5
-468.9
-466.2
-463.6
-460.9
-458.3
-455.6
-453
-450.4
-447.7
-445.1
-442.4
-439.8
-437.1
-434.5
-431.8
-431.3

Reaction: -1 magnesium + -2 antimony + 1 magnesium antimonite + -2 oxygen
Property: Molar Gibbs energy of reaction, kJ/mol
-997.4
-993.4
-989.3
-985.3
-981.2
-977.2
-973.1
-969.1
-965
-961
-956.9
-952.8
-948.8
-944.7
-940.7
-936.6
-932.6
-928.5
-926.5
