Measured thermophysical data. A volumetric approach: Interactions of some local anesthetical drugs with alpha-cyclodextrin in aqueous solutions at 298.15 K
Source: J. Chem. Thermodyn., 2017, 10.1016/j.jct.2016.12.023
Compound 1: .alpha.-cyclodextrin, C36H60O30, InChI=1S/C36H60O30/c37-1-7-25-13(43)19(49)31(55-7)62-26-8(2-38)57-33(21(51)15(26)45)64-28-10(4-40)59-35(23(53)17(28)47)66-30-12(6-42)60-36(24(54)18(30)48)65-29-11(5-41)58-34(22(52)16(29)46)63-27-9(3-39)56-32(61-25)20(50)14(27)44/h7-54H,1-6H2/t7-,8-,9-,10-,11-,12-,13-,14-,15-,16-,17-,18-,19-,20-,21-,22-,23-,24-,25-,26-,27-,28-,29-,30-,31-,32-,33-,34-,35-,36-/m1/s1, purity 98%
Compound 2: 2-diethylaminoethyl p-aminobenzoate hydrochloride, C13H21ClN2O2, InChI=1S/C13H20N2O2.ClH/c1-3-15(4-2)9-10-17-13(16)11-5-7-12(14)8-6-11;/h5-8H,3-4,9-10,14H2,1-2H3;1H, purity 97%
Compound 3: lidocaine hydrochloride, C14H23ClN2O, InChI=1S/C14H22N2O.ClH/c1-5-16(6-2)10-13(17)15-14-11(3)8-7-9-12(14)4;/h7-9H,5-6,10H2,1-4H3,(H,15,17);1H, purity 97%
Compound 4: 2-(dimethylamino)ethyl 4-(butylamino)benzoate hydrochloride (1:1), C15H25ClN2O2, InChI=1S/C15H24N2O2.ClH/c1-4-5-10-16-14-8-6-13(7-9-14)15(18)19-12-11-17(2)3;/h6-9,16H,4-5,10-12H2,1-3H3;1H, purity 99%
Compound 5: water, H2O, InChI=1S/H2O/h1H2

System: 2-diethylaminoethyl p-aminobenzoate hydrochloride + water + .alpha.-cyclodextrin; phases: Liquid
Fixed: Molality, mol/kg of .alpha.-cyclodextrin = 0.09944
Fixed: Pressure, kPa = 101.325
Fixed: Temperature, K = 298.15
Property: Mass density, kg/m3 (Liquid); method: Vibrating tube method
Molality, mol/kg of 2-diethylaminoethyl p-aminobenzoate hydrochloride	Mass density, kg/m3	uncertainty
0	1031.7	2.1
0.00377	1029.8	2
0.00496	1030.3	2
0.00887	1030	2
0.0115	1030.2	2
0.01263	1030.1	2
0.02741	1030.5	2
0.05496	1032	2
0.08209	1033.4	2
0.10884	1034.1	2
0.13439	1035.6	2
0.16827	1036.1	2
0.20747	1038.6	2.2

System: lidocaine hydrochloride + water + .alpha.-cyclodextrin; phases: Liquid
Fixed: Molality, mol/kg of .alpha.-cyclodextrin = 0.09915
Fixed: Pressure, kPa = 101.325
Fixed: Temperature, K = 298.15
Property: Mass density, kg/m3 (Liquid); method: Vibrating tube method
Molality, mol/kg of lidocaine hydrochloride	Mass density, kg/m3	uncertainty
0	1031.6	2
0.00571	1029.8	2
0.00803	1030.2	2
0.00885	1030.4	2
0.01246	1030.6	2
0.0273	1031	2
0.04356	1031.4	2
0.05409	1031.4	2
0.06464	1031.9	2
0.08151	1032.2	2
0.11041	1032.6	2
0.12984	1033.3	2
0.15278	1034	2

System: 2-(dimethylamino)ethyl 4-(butylamino)benzoate hydrochloride (1:1) + water + .alpha.-cyclodextrin; phases: Liquid
Fixed: Molality, mol/kg of .alpha.-cyclodextrin = 0.09733
Fixed: Pressure, kPa = 101.325
Fixed: Temperature, K = 298.15
Property: Mass density, kg/m3 (Liquid); method: Vibrating tube method
Molality, mol/kg of 2-(dimethylamino)ethyl 4-(butylamino)benzoate hydrochloride (1:1)	Mass density, kg/m3	uncertainty
0	1031	2
0.00281	1030.3	2
0.0052	1030.2	2
0.00891	1030.1	2
0.01154	1030.3	2
0.01237	1029.9	2
0.03012	1030.8	2
0.05715	1031.8	2
0.08546	1032.4	2
0.11592	1033	2
0.13935	1033.6	2
0.17722	1035	2
0.21768	1036.7	2.1

System: water + .alpha.-cyclodextrin; phases: Liquid
Fixed: Pressure, kPa = 101.325
Fixed: Temperature, K = 298.15
Property: Mass density, kg/m3 (Liquid); method: Vibrating tube method
Molality, mol/kg of .alpha.-cyclodextrin	Mass density, kg/m3	uncertainty
0	997	2
0.00975	1000.6	2
0.01763	1003.4	2
0.02931	1007.6	2.1
0.03389	1009.2	2.1
0.04348	1012.5	2.2
0.05233	1015.6	2.3
0.06207	1018.9	2.4
0.07117	1022	2.5
0.0783	1024.4	2.5
0.09004	1028.3	2.7
0.09764	1030.7	2
0.10013	1031.6	2
0.09944	1031.7	2
0.09915	1031.6	2
0.09733	1031	2
