Measured thermophysical data. Phenyl substituted ureas: Evaluation of thermochemical data with complementary experimental and computational methods
Source: J. Chem. Thermodyn., 2019, 10.1016/j.jct.2019.01.022
Compound 1: carbon dioxide, CO2, InChI=1S/CO2/c2-1-3
Compound 2: nitrogen, N2, InChI=1S/N2/c1-2
Compound 3: water, H2O, InChI=1S/H2O/h1H2
Compound 4: oxygen, O2, InChI=1S/O2/c1-2
Compound 5: N-phenylurea, C7H8N2O, InChI=1S/C7H8N2O/c8-7(10)9-6-4-2-1-3-5-6/h1-5H,(H3,8,9,10)
Compound 6: 1-isopropyl-3-phenylurea, C10H14N2O, InChI=1S/C10H14N2O/c1-8(2)11-10(13)12-9-6-4-3-5-7-9/h3-8H,1-2H3,(H2,11,12,13)
Compound 7: 1-tert-butyl-3-phenylurea, C11H16N2O, InChI=1S/C11H16N2O/c1-11(2,3)13-10(14)12-9-7-5-4-6-8-9/h4-8H,1-3H3,(H2,12,13,14)

System: N-phenylurea; phases: Crystal, Gas
Property: Vapor or sublimation pressure, kPa (Crystal); method: Transpiration method
Temperature, K	Vapor or sublimation pressure, kPa	uncertainty
386	0.00061	5e-05
391.7	0.00103	7e-05
396.2	0.00154	0.0001
399.5	0.00209	0.00015
402.4	0.00275	0.00018
406.2	0.00394	0.00025
408.3	0.0047	0.0003
411.5	0.00607	0.00043
413.6	0.00714	0.00048

System: 1-isopropyl-3-phenylurea; phases: Crystal
Property: Mass density, kg/m3 (Crystal); method: Pycnometric method
Temperature, K	Pressure, kPa	Mass density, kg/m3	uncertainty
293	101.325	1050	20

System: 1-isopropyl-3-phenylurea; phases: Crystal, Liquid, Air at 1 atmosphere
Property: Normal melting temperature, K (Crystal); method: DTA
Normal melting temperature, K	uncertainty
429.3	2

System: 1-isopropyl-3-phenylurea; phases: Crystal, Liquid, Air at 1 atmosphere
Property: Molar enthalpy of transition or fusion, kJ/mol (Crystal); method: DSC
Molar enthalpy of transition or fusion, kJ/mol	uncertainty
22.4	2.3

System: 1-isopropyl-3-phenylurea; phases: Crystal, Gas
Property: Vapor or sublimation pressure, kPa (Crystal); method: Transpiration method
Temperature, K	Vapor or sublimation pressure, kPa	uncertainty
393.3	0.00201	0.00015
396.2	0.00261	0.00017
400.3	0.00373	0.00025
403.2	0.00478	0.00031
406.5	0.00631	0.00044
409.6	0.00835	0.00056
411.7	0.00986	0.00066
413.7	0.01159	0.00077
416.5	0.01436	0.00094
419.6	0.01814	0.00119
421.5	0.02123	0.00139
423.8	0.02493	0.0016

System: 1-tert-butyl-3-phenylurea; phases: Crystal 2
Property: Mass density, kg/m3 (Crystal 2); method: Pycnometric method
Temperature, K	Pressure, kPa	Mass density, kg/m3	uncertainty
293	101.325	1062	20

System: 1-tert-butyl-3-phenylurea; phases: Crystal 1, Liquid, Air at 1 atmosphere
Property: Normal melting temperature, K (Crystal 1); method: DTA
Normal melting temperature, K	uncertainty
441	2

System: 1-tert-butyl-3-phenylurea; phases: Crystal 2, Crystal 1, Air at 1 atmosphere
Property: Triple point temperature, K (Crystal 2); method: DSC
Triple point temperature, K	uncertainty
432	2.1

System: 1-tert-butyl-3-phenylurea; phases: Crystal 1, Liquid, Air at 1 atmosphere
Property: Molar enthalpy of transition or fusion, kJ/mol (Crystal 1); method: DSC
Molar enthalpy of transition or fusion, kJ/mol	uncertainty
24.7	2.5

System: 1-tert-butyl-3-phenylurea; phases: Crystal 2, Crystal 1, Air at 1 atmosphere
Property: Molar enthalpy of transition or fusion, kJ/mol (Crystal 2); method: DSC
Molar enthalpy of transition or fusion, kJ/mol	uncertainty
7.8	0.8

System: 1-tert-butyl-3-phenylurea; phases: Crystal 2, Gas
Property: Vapor or sublimation pressure, kPa (Crystal 2); method: Transpiration method
Temperature, K	Vapor or sublimation pressure, kPa	uncertainty
385.9	0.00162	0.00012
390	0.00233	0.00015
392.4	0.00294	0.0002
396.3	0.00405	0.00027
400.2	0.00579	0.00041
403.3	0.00737	0.00051
406.2	0.00973	0.00067
410.5	0.01397	0.00092
416.2	0.02115	0.00137
420.6	0.03129	0.00201
424	0.03902	0.00249
426.6	0.0483	0.0031
428.8	0.05831	0.00372
430.5	0.066	0.00417

Reaction: -1 1-isopropyl-3-phenylurea + 10 carbon dioxide + 1 nitrogen + 7 water + -13 oxygen
Property: Specific internal energy of reaction at constant volume, J/g
-31675.8

Reaction: -1 1-tert-butyl-3-phenylurea + 11 carbon dioxide + 1 nitrogen + 8 water + -14.5 oxygen
Property: Specific internal energy of reaction at constant volume, J/g
-32694.4
