Measured thermophysical data. Liquid window of some biologically-active ionic liquids
Source: J. Chem. Thermodyn., 2018, 10.1016/j.jct.2018.06.014
Compound 1: 1,3-dimethylimidazolium dimethylphosphate, C7H15N2O4P, InChI=1S/C5H9N2.C2H7O4P/c1-6-3-4-7(2)5-6;1-5-7(3,4)6-2/h3-5H,1-2H3;1-2H3,(H,3,4)/q+1;/p-1, purity 98%
Compound 2: 1-butyl-3-methylimidazolium trifluoromethanesulfonate, C9H15F3N2O3S, InChI=1S/C8H15N2.CHF3O3S/c1-3-4-5-10-7-6-9(2)8-10;2-1(3,4)8(5,6)7/h6-8H,3-5H2,1-2H3;(H,5,6,7)/q+1;/p-1, purity 99%
Compound 3: diethylmethylammonium trifluoromethanesulfonate, C6H14F3NO3S, InChI=1S/C5H13N.CHF3O3S/c1-4-6(3)5-2;2-1(3,4)8(5,6)7/h4-5H2,1-3H3;(H,5,6,7), purity 98%
Compound 4: diethylmethylammonium methanesulfonate, C6H17NO3S, InChI=1S/C5H13N.CH4O3S/c1-4-6(3)5-2;1-5(2,3)4/h4-5H2,1-3H3;1H3,(H,2,3,4), purity 98%
Compound 5: 1-butyl-1-methylpiperidinium trifluoromethanesulfonate, C11H22F3NO3S, InChI=1S/C10H22N.CHF3O3S/c1-3-4-8-11(2)9-6-5-7-10-11;2-1(3,4)8(5,6)7/h3-10H2,1-2H3;(H,5,6,7)/q+1;/p-1, purity 99%
Compound 6: 1-butyl-1-methylpiperidinium bis(trifluoromethanesulfonyl)imide, C12H22F6N2O4S2, InChI=1S/C10H22N.C2F6NO4S2/c1-3-4-8-11(2)9-6-5-7-10-11;3-1(4,5)14(10,11)9-15(12,13)2(6,7)8/h3-10H2,1-2H3;/q+1;-1, purity 99%

System: 1,3-dimethylimidazolium dimethylphosphate; phases: Glass, Liquid, Air at 1 atmosphere
Property: Triple point temperature, K (Glass); method: DSC
Triple point temperature, K	uncertainty
210.15	2

System: 1-butyl-3-methylimidazolium trifluoromethanesulfonate; phases: Crystal 1, Liquid, Air at 1 atmosphere
Property: Normal melting temperature, K (Crystal 1); method: DTA
Normal melting temperature, K	uncertainty
291.15	2

System: 1-butyl-3-methylimidazolium trifluoromethanesulfonate; phases: Crystal 1, Liquid, Air at 1 atmosphere
Property: Molar enthalpy of transition or fusion, kJ/mol (Crystal 1); method: DSC
Molar enthalpy of transition or fusion, kJ/mol	uncertainty
26	3

System: diethylmethylammonium trifluoromethanesulfonate; phases: Crystal 1, Liquid, Air at 1 atmosphere
Property: Normal melting temperature, K (Crystal 1); method: DTA
Normal melting temperature, K	uncertainty
268.15	2

System: diethylmethylammonium trifluoromethanesulfonate; phases: Crystal 1, Liquid, Air at 1 atmosphere
Property: Molar enthalpy of transition or fusion, kJ/mol (Crystal 1); method: DSC
Molar enthalpy of transition or fusion, kJ/mol	uncertainty
17	2

System: diethylmethylammonium methanesulfonate; phases: Crystal 1, Liquid, Air at 1 atmosphere
Property: Normal melting temperature, K (Crystal 1); method: DTA
Normal melting temperature, K	uncertainty
312.15	2

System: diethylmethylammonium methanesulfonate; phases: Crystal 1, Liquid, Air at 1 atmosphere
Property: Molar enthalpy of transition or fusion, kJ/mol (Crystal 1); method: DSC
Molar enthalpy of transition or fusion, kJ/mol	uncertainty
14	2

System: 1-butyl-1-methylpiperidinium trifluoromethanesulfonate; phases: Crystal 1, Liquid, Air at 1 atmosphere
Property: Normal melting temperature, K (Crystal 1); method: DTA
Normal melting temperature, K	uncertainty
309.15	2

System: 1-butyl-1-methylpiperidinium trifluoromethanesulfonate; phases: Crystal 1, Liquid, Air at 1 atmosphere
Property: Molar enthalpy of transition or fusion, kJ/mol (Crystal 1); method: DSC
Molar enthalpy of transition or fusion, kJ/mol	uncertainty
23	2

System: 1-butyl-1-methylpiperidinium bis(trifluoromethanesulfonyl)imide; phases: Glass, Liquid, Air at 1 atmosphere
Property: Triple point temperature, K (Glass); method: DSC
Triple point temperature, K	uncertainty
201.15	2
