Measured thermophysical data. Interactions of glycine, L-alanine and L-valine with aqueous solutions of trisodium citrate at different temperatures: A volumetric and acoustic approach
Source: J. Chem. Thermodyn., 2013, 10.1016/j.jct.2013.08.010
Compound 1: 2-aminoacetic acid, C2H5NO2, InChI=1S/C2H5NO2/c3-1-2(4)5/h1,3H2,(H,4,5), purity 99%
Compound 2: trisodium citrate, C6H5Na3O7, InChI=1S/C6H8O7.3Na/c7-3(8)1-6(13,5(11)12)2-4(9)10;;;/h13H,1-2H2,(H,7,8)(H,9,10)(H,11,12);;;/q;3*+1/p-3, purity 99%
Compound 3: (S)-2-aminopropanoic acid, C3H7NO2, InChI=1S/C3H7NO2/c1-2(4)3(5)6/h2H,4H2,1H3,(H,5,6)/t2-/m0/s1, purity 99%
Compound 4: L-valine, C5H11NO2, InChI=1S/C5H11NO2/c1-3(2)4(6)5(7)8/h3-4H,6H2,1-2H3,(H,7,8)/t4-/m0/s1, purity 99%
Compound 5: water, H2O, InChI=1S/H2O/h1H2

System: water; phases: Liquid
Fixed: Pressure, kPa = 101
Property: Mass density, kg/m3 (Liquid); method: Vibrating tube method
Temperature, K	Mass density, kg/m3	uncertainty
288.15	999.11	0.16
298.15	997.047	0.161
308.15	994.031	0.162
318.15	990.141	0.162

System: water; phases: Liquid
Fixed: Pressure, kPa = 101
Property: Speed of sound, m/s (Liquid); method: Sing-around technique in a fixed-path interferometer
Temperature, K	Speed of sound, m/s	uncertainty
288.15	1463.12	2.25
298.15	1495.85	2.25
308.15	1519.14	2.24
318.15	1536.14	2.24

System: 2-aminoacetic acid + trisodium citrate + water; phases: Liquid
Fixed: Pressure, kPa = 101
Property: Mass density, kg/m3 (Liquid); method: Vibrating tube method
Solvent: Molality, mol/kg of trisodium citrate	Temperature, K	Molality, mol/kg of 2-aminoacetic acid	Mass density, kg/m3	uncertainty
0	288.15	0	999.11	0.16
0	288.15	0.01207	999.51	0.16
0	288.15	0.0523	1000.839	0.161
0	288.15	0.10374	1002.524	0.161
0	288.15	0.20373	1005.768	0.163
0	288.15	0.30678	1009.069	0.164
0	288.15	0.41239	1012.405	0.166
0	288.15	0.50277	1015.216	0.167
0	288.15	0.60576	1018.378	0.168
0	288.15	0.68289	1020.713	0.169
0	288.15	0.82001	1024.828	0.171
0	298.15	0	997.047	0.161
0	298.15	0.01207	997.439	0.161
0	298.15	0.0523	998.74	0.161
0	298.15	0.10374	1000.392	0.161
0	298.15	0.20373	1003.567	0.162
0	298.15	0.30678	1006.797	0.163
0	298.15	0.41239	1010.064	0.165
0	298.15	0.50277	1012.817	0.166
0	298.15	0.60576	1015.899	0.167
0	298.15	0.68289	1018.189	0.169
0	298.15	0.82001	1022.229	0.17
0	308.15	0	994.031	0.162
0	308.15	0.01207	994.412	0.162
0	308.15	0.0523	995.676	0.161
0	308.15	0.10374	997.281	0.161
0	308.15	0.20373	1000.371	0.161
0	308.15	0.30678	1003.509	0.162
0	308.15	0.41239	1006.68	0.164
0	308.15	0.50277	1009.36	0.165
0	308.15	0.60576	1012.35	0.166
0	308.15	0.68289	1014.549	0.167
0	308.15	0.82001	1018.454	0.169
0	318.15	0	990.141	0.162
0	318.15	0.01207	990.513	0.162
0	318.15	0.0523	991.747	0.162
0	318.15	0.10374	993.309	0.162
0	318.15	0.20373	996.317	0.162
0	318.15	0.30678	999.376	0.161
0	318.15	0.41239	1002.459	0.162
0	318.15	0.50277	1005.058	0.163
0	318.15	0.60576	1007.968	0.165
0	318.15	0.68289	1010.101	0.166
0	318.15	0.82001	1013.891	0.167
0.2	288.15	0	1034.671	0.176
0.2	288.15	0.01954	1035.276	0.176
0.2	288.15	0.05491	1036.368	0.177
0.2	288.15	0.09665	1037.652	0.177
0.2	288.15	0.20869	1041.073	0.179
0.2	288.15	0.3083	1044.085	0.18
0.2	288.15	0.40064	1046.851	0.182
0.2	288.15	0.50838	1050.049	0.183
0.2	288.15	0.59657	1052.651	0.184
0.2	288.15	0.69776	1055.601	0.186
0.2	288.15	0.80295	1058.639	0.187
0.2	298.15	0	1031.983	0.175
0.2	298.15	0.01954	1032.568	0.175
0.2	298.15	0.05491	1033.623	0.175
0.2	298.15	0.09665	1034.864	0.176
0.2	298.15	0.20869	1038.171	0.178
0.2	298.15	0.3083	1041.08	0.179
0.2	298.15	0.40064	1043.754	0.18
0.2	298.15	0.50838	1046.843	0.182
0.2	298.15	0.59657	1049.347	0.183
0.2	298.15	0.69776	1052.195	0.184
0.2	298.15	0.80295	1055.128	0.186
0.2	308.15	0	1028.502	0.173
0.2	308.15	0.01954	1029.071	0.174
0.2	308.15	0.05491	1030.099	0.174
0.2	308.15	0.09665	1031.306	0.175
0.2	308.15	0.20869	1034.524	0.176
0.2	308.15	0.3083	1037.355	0.178
0.2	308.15	0.40064	1039.956	0.179
0.2	308.15	0.50838	1042.962	0.18
0.2	308.15	0.59657	1045.4	0.181
0.2	308.15	0.69776	1048.171	0.183
0.2	308.15	0.80295	1051.025	0.184
0.2	318.15	0	1024.357	0.172
0.2	318.15	0.01954	1024.907	0.172
0.2	318.15	0.05491	1025.9	0.173
0.2	318.15	0.09665	1027.066	0.173
0.2	318.15	0.20869	1030.175	0.175
0.2	318.15	0.3083	1032.905	0.176
0.2	318.15	0.40064	1035.416	0.177
0.2	318.15	0.50838	1038.316	0.178
0.2	318.15	0.59657	1040.665	0.18
0.2	318.15	0.69776	1043.339	0.181
0.2	318.15	0.80295	1046.091	0.182
0.4	288.15	0	1071.212	0.193
0.4	288.15	0.01087	1071.509	0.193
0.4	288.15	0.04829	1072.53	0.194
0.4	288.15	0.1058	1074.09	0.194
0.4	288.15	0.19845	1076.585	0.196
0.4	288.15	0.29836	1079.248	0.197
0.4	288.15	0.41666	1082.367	0.198
0.4	288.15	0.49305	1084.36	0.199
0.4	288.15	0.60292	1087.202	0.201
0.4	288.15	0.71664	1090.11	0.202
0.4	288.15	0.79774	1092.162	0.203
0.4	298.15	0	1067.934	0.192
0.4	298.15	0.01087	1068.216	0.192
0.4	298.15	0.04829	1069.183	0.192
0.4	298.15	0.1058	1070.662	0.193
0.4	298.15	0.19845	1073.027	0.194
0.4	298.15	0.29836	1075.55	0.195
0.4	298.15	0.41666	1078.503	0.197
0.4	298.15	0.49305	1080.391	0.198
0.4	298.15	0.60292	1083.08	0.199
0.4	298.15	0.71664	1085.833	0.201
0.4	298.15	0.79774	1087.773	0.202
0.4	308.15	0	1064.126	0.19
0.4	308.15	0.01087	1064.399	0.19
0.4	308.15	0.04829	1065.337	0.191
0.4	308.15	0.1058	1066.77	0.192
0.4	308.15	0.19845	1069.06	0.193
0.4	308.15	0.29836	1071.504	0.194
0.4	308.15	0.41666	1074.367	0.195
0.4	308.15	0.49305	1076.194	0.196
0.4	308.15	0.60292	1078.8	0.197
0.4	308.15	0.71664	1081.463	0.199
0.4	308.15	0.79774	1083.341	0.2
0.4	318.15	0	1059.23	0.189
0.4	318.15	0.01087	1059.493	0.189
0.4	318.15	0.04829	1060.394	0.189
0.4	318.15	0.1058	1061.772	0.19
0.4	318.15	0.19845	1063.974	0.191
0.4	318.15	0.29836	1066.325	0.192
0.4	318.15	0.41666	1069.075	0.193
0.4	318.15	0.49305	1070.83	0.194
0.4	318.15	0.60292	1073.333	0.196
0.4	318.15	0.71664	1075.892	0.197
0.4	318.15	0.79774	1077.699	0.198
0.6	288.15	0	1104.432	0.21
0.6	288.15	0.01403	1104.754	0.21
0.6	288.15	0.05256	1105.636	0.21
0.6	288.15	0.09928	1106.701	0.211
0.6	288.15	0.20412	1109.068	0.212
0.6	288.15	0.3023	1111.259	0.213
0.6	288.15	0.39812	1113.375	0.214
0.6	288.15	0.49961	1115.591	0.215
0.6	288.15	0.58908	1117.523	0.216
0.6	288.15	0.69413	1119.769	0.218
0.6	288.15	0.78825	1121.756	0.219
0.6	288.15	0.86392	1123.341	0.219
0.6	298.15	0	1100.684	0.208
0.6	298.15	0.01403	1100.985	0.208
0.6	298.15	0.05256	1101.81	0.208
0.6	298.15	0.09928	1102.805	0.209
0.6	298.15	0.20412	1105.018	0.21
0.6	298.15	0.3023	1107.063	0.211
0.6	298.15	0.39812	1109.039	0.212
0.6	298.15	0.49961	1111.107	0.213
0.6	298.15	0.58908	1112.909	0.214
0.6	298.15	0.69413	1115.004	0.215
0.6	298.15	0.78825	1116.859	0.216
0.6	298.15	0.86392	1118.336	0.217
0.6	308.15	0	1096.959	0.206
0.6	308.15	0.01403	1097.25	0.206
0.6	308.15	0.05256	1098.045	0.207
0.6	308.15	0.09928	1099.003	0.207
0.6	308.15	0.20412	1101.136	0.208
0.6	308.15	0.3023	1103.11	0.209
0.6	308.15	0.39812	1105.015	0.21
0.6	308.15	0.49961	1107.009	0.211
0.6	308.15	0.58908	1108.747	0.212
0.6	308.15	0.69413	1110.763	0.213
0.6	308.15	0.78825	1112.552	0.214
0.6	308.15	0.86392	1113.974	0.215
0.6	318.15	0	1092.257	0.204
0.6	318.15	0.01403	1092.535	0.204
0.6	318.15	0.05256	1093.295	0.205
0.6	318.15	0.09928	1094.211	0.205
0.6	318.15	0.20412	1096.249	0.206
0.6	318.15	0.3023	1098.135	0.207
0.6	318.15	0.39812	1099.954	0.208
0.6	318.15	0.49961	1101.858	0.209
0.6	318.15	0.58908	1103.519	0.21
0.6	318.15	0.69413	1105.445	0.211
0.6	318.15	0.78825	1107.149	0.212
0.6	318.15	0.86392	1108.507	0.212
0.8	288.15	0	1137.969	0.227
0.8	288.15	0.01133	1138.172	0.227
0.8	288.15	0.05094	1138.88	0.227
0.8	288.15	0.10775	1139.888	0.228
0.8	288.15	0.2044	1141.587	0.229
0.8	288.15	0.30559	1143.345	0.229
0.8	288.15	0.40682	1145.081	0.23
0.8	288.15	0.46139	1146.005	0.231
0.8	288.15	0.59657	1148.276	0.232
0.8	288.15	0.69469	1149.897	0.233
0.8	288.15	0.79205	1151.489	0.234
0.8	298.15	0	1133.93	0.225
0.8	298.15	0.01133	1134.119	0.225
0.8	298.15	0.05094	1134.776	0.225
0.8	298.15	0.10775	1135.713	0.226
0.8	298.15	0.2044	1137.295	0.226
0.8	298.15	0.30559	1138.927	0.227
0.8	298.15	0.40682	1140.539	0.228
0.8	298.15	0.46139	1141.398	0.229
0.8	298.15	0.59657	1143.504	0.23
0.8	298.15	0.69469	1145.012	0.231
0.8	298.15	0.79205	1146.478	0.231
0.8	308.15	0	1129.427	0.223
0.8	308.15	0.01133	1129.605	0.223
0.8	308.15	0.05094	1130.227	0.223
0.8	308.15	0.10775	1131.112	0.223
0.8	308.15	0.2044	1132.603	0.224
0.8	308.15	0.30559	1134.145	0.225
0.8	308.15	0.40682	1135.667	0.226
0.8	308.15	0.46139	1136.476	0.226
0.8	308.15	0.59657	1138.465	0.227
0.8	308.15	0.69469	1139.887	0.228
0.8	308.15	0.79205	1141.28	0.229
0.8	318.15	0	1124.504	0.22
0.8	318.15	0.01133	1124.672	0.22
0.8	318.15	0.05094	1125.257	0.221
0.8	318.15	0.10775	1126.09	0.221
0.8	318.15	0.2044	1127.494	0.222
0.8	318.15	0.30559	1128.946	0.223
0.8	318.15	0.40682	1130.378	0.223
0.8	318.15	0.46139	1131.142	0.224
0.8	318.15	0.59657	1133.013	0.225
0.8	318.15	0.69469	1134.352	0.226
0.8	318.15	0.79205	1135.661	0.226

System: 2-aminoacetic acid + trisodium citrate + water; phases: Liquid
Fixed: Pressure, kPa = 101
Property: Speed of sound, m/s (Liquid); method: Sing-around technique in a fixed-path interferometer
Solvent: Molality, mol/kg of trisodium citrate	Temperature, K	Molality, mol/kg of 2-aminoacetic acid	Speed of sound, m/s	uncertainty
0	288.15	0	1463.12	2.25
0	288.15	0.01207	1467.22	2.25
0	288.15	0.0523	1470.11	2.25
0	288.15	0.10374	1472.31	2.25
0	288.15	0.20373	1477.81	2.25
0	288.15	0.30678	1483.4	2.25
0	288.15	0.41239	1488.71	2.25
0	288.15	0.50277	1494.55	2.25
0	288.15	0.60576	1499.19	2.25
0	288.15	0.68289	1503.36	2.25
0	288.15	0.82001	1510.15	2.25
0	298.15	0	1495.85	2.25
0	298.15	0.01207	1497.66	2.25
0	298.15	0.0523	1500.06	2.25
0	298.15	0.10374	1502.3	2.25
0	298.15	0.20373	1507.23	2.25
0	298.15	0.30678	1512.44	2.25
0	298.15	0.41239	1517.75	2.25
0	298.15	0.50277	1522.96	2.25
0	298.15	0.60576	1527.31	2.25
0	298.15	0.68289	1531.34	2.25
0	298.15	0.82001	1537.66	2.25
0	308.15	0	1519.14	2.24
0	308.15	0.01207	1519.97	2.24
0	308.15	0.0523	1522.89	2.24
0	308.15	0.10374	1524.73	2.24
0	308.15	0.20373	1529.67	2.25
0	308.15	0.30678	1534.58	2.25
0	308.15	0.41239	1539.71	2.25
0	308.15	0.50277	1543.76	2.25
0	308.15	0.60576	1548.68	2.25
0	308.15	0.68289	1552.54	2.25
0	308.15	0.82001	1558.57	2.25
0	318.15	0	1536.14	2.24
0	318.15	0.01207	1537.18	2.24
0	318.15	0.0523	1538.94	2.24
0	318.15	0.10374	1541.13	2.24
0	318.15	0.20373	1545.8	2.24
0	318.15	0.30678	1551.38	2.25
0	318.15	0.41239	1555.38	2.25
0	318.15	0.50277	1560.21	2.25
0	318.15	0.60576	1564.06	2.25
0	318.15	0.68289	1567.69	2.25
0	318.15	0.82001	1573.49	2.25
0.2	288.15	0	1508.03	2.25
0.2	288.15	0.01954	1508.83	2.25
0.2	288.15	0.05491	1510.24	2.25
0.2	288.15	0.09665	1512.54	2.25
0.2	288.15	0.20869	1517.81	2.25
0.2	288.15	0.3083	1523.16	2.25
0.2	288.15	0.40064	1528.75	2.25
0.2	288.15	0.50838	1534.77	2.25
0.2	288.15	0.59657	1539.04	2.25
0.2	288.15	0.69776	1544.17	2.25
0.2	288.15	0.80295	1550.31	2.25
0.2	298.15	0	1535.97	2.25
0.2	298.15	0.01954	1536.83	2.25
0.2	298.15	0.05491	1537.66	2.25
0.2	298.15	0.09665	1540.12	2.25
0.2	298.15	0.20869	1545.11	2.25
0.2	298.15	0.3083	1550.32	2.25
0.2	298.15	0.40064	1556.24	2.25
0.2	298.15	0.50838	1561	2.25
0.2	298.15	0.59657	1564.81	2.25
0.2	298.15	0.69776	1569.74	2.25
0.2	298.15	0.80295	1575.57	2.25
0.2	308.15	0	1556.87	2.25
0.2	308.15	0.01954	1556.66	2.25
0.2	308.15	0.05491	1558.37	2.25
0.2	308.15	0.09665	1560.44	2.25
0.2	308.15	0.20869	1565.62	2.25
0.2	308.15	0.3083	1570.26	2.25
0.2	308.15	0.40064	1576.23	2.25
0.2	308.15	0.50838	1581.17	2.25
0.2	308.15	0.59657	1583.9	2.25
0.2	308.15	0.69776	1588.27	2.25
0.2	308.15	0.80295	1594.33	2.25
0.2	318.15	0	1571.85	2.25
0.2	318.15	0.01954	1571.45	2.25
0.2	318.15	0.05491	1573.05	2.25
0.2	318.15	0.09665	1575.47	2.25
0.2	318.15	0.20869	1581.53	2.25
0.2	318.15	0.3083	1584.3	2.25
0.2	318.15	0.40064	1589.72	2.25
0.2	318.15	0.50838	1594.72	2.25
0.2	318.15	0.59657	1597.54	2.25
0.2	318.15	0.69776	1601.77	2.25
0.2	318.15	0.80295	1607.72	2.25
0.4	288.15	0	1552.22	2.26
0.4	288.15	0.01087	1550.87	2.25
0.4	288.15	0.04829	1553.37	2.25
0.4	288.15	0.1058	1556.8	2.25
0.4	288.15	0.19845	1561.38	2.25
0.4	288.15	0.29836	1568.16	2.26
0.4	288.15	0.41666	1572.98	2.25
0.4	288.15	0.49305	1577.33	2.25
0.4	288.15	0.60292	1583.97	2.26
0.4	288.15	0.71664	1588.9	2.25
0.4	288.15	0.79774	1593.65	2.26
0.4	298.15	0	1577.49	2.25
0.4	298.15	0.01087	1576.22	2.25
0.4	298.15	0.04829	1578.35	2.25
0.4	298.15	0.1058	1581.6	2.25
0.4	298.15	0.19845	1585.83	2.25
0.4	298.15	0.29836	1592.3	2.25
0.4	298.15	0.41666	1596.8	2.25
0.4	298.15	0.49305	1599.8	2.25
0.4	298.15	0.60292	1607.08	2.25
0.4	298.15	0.71664	1611.66	2.25
0.4	298.15	0.79774	1615.55	2.25
0.4	308.15	0	1595.8	2.25
0.4	308.15	0.01087	1594.89	2.25
0.4	308.15	0.04829	1596.81	2.25
0.4	308.15	0.1058	1599.44	2.25
0.4	308.15	0.19845	1603.86	2.25
0.4	308.15	0.29836	1609.91	2.25
0.4	308.15	0.41666	1614.27	2.25
0.4	308.15	0.49305	1617.18	2.25
0.4	308.15	0.60292	1623.85	2.25
0.4	308.15	0.71664	1628.63	2.25
0.4	308.15	0.79774	1632.7	2.25
0.4	318.15	0	1608.34	2.25
0.4	318.15	0.01087	1607.95	2.25
0.4	318.15	0.04829	1609.43	2.25
0.4	318.15	0.1058	1612.69	2.25
0.4	318.15	0.19845	1615.41	2.25
0.4	318.15	0.29836	1621.59	2.25
0.4	318.15	0.41666	1626.19	2.25
0.4	318.15	0.49305	1629.14	2.25
0.4	318.15	0.60292	1634.7	2.25
0.4	318.15	0.71664	1640.2	2.25
0.4	318.15	0.79774	1643.15	2.25
0.6	288.15	0	1591.48	2.25
0.6	288.15	0.01403	1593.21	2.26
0.6	288.15	0.05256	1595.07	2.26
0.6	288.15	0.09928	1597.01	2.25
0.6	288.15	0.20412	1604.61	2.26
0.6	288.15	0.3023	1608.98	2.26
0.6	288.15	0.39812	1613.46	2.26
0.6	288.15	0.49961	1620.39	2.26
0.6	288.15	0.58908	1623.72	2.26
0.6	288.15	0.69413	1629.82	2.26
0.6	288.15	0.78825	1634.86	2.26
0.6	288.15	0.86392	1639	2.26
0.6	298.15	0	1614.01	2.25
0.6	298.15	0.01403	1615.66	2.25
0.6	298.15	0.05256	1617.36	2.25
0.6	298.15	0.09928	1619.1	2.25
0.6	298.15	0.20412	1626.36	2.26
0.6	298.15	0.3023	1630.37	2.26
0.6	298.15	0.39812	1634.43	2.26
0.6	298.15	0.49961	1641.09	2.26
0.6	298.15	0.58908	1644.08	2.26
0.6	298.15	0.69413	1649.77	2.26
0.6	298.15	0.78825	1654.5	2.26
0.6	298.15	0.86392	1658.57	2.26
0.6	308.15	0	1630.31	2.25
0.6	308.15	0.01403	1631.79	2.25
0.6	308.15	0.05256	1633.34	2.25
0.6	308.15	0.09928	1635.09	2.25
0.6	308.15	0.20412	1641.96	2.25
0.6	308.15	0.3023	1645.68	2.25
0.6	308.15	0.39812	1649.45	2.25
0.6	308.15	0.49961	1655.9	2.25
0.6	308.15	0.58908	1658.72	2.25
0.6	308.15	0.69413	1663.95	2.25
0.6	308.15	0.78825	1668.45	2.26
0.6	308.15	0.86392	1672.36	2.26
0.6	318.15	0	1641.22	2.25
0.6	318.15	0.01403	1642.33	2.25
0.6	318.15	0.05256	1644.03	2.25
0.6	318.15	0.09928	1645.72	2.25
0.6	318.15	0.20412	1652.09	2.25
0.6	318.15	0.3023	1655.62	2.25
0.6	318.15	0.39812	1659.16	2.25
0.6	318.15	0.49961	1665.16	2.25
0.6	318.15	0.58908	1668.28	2.25
0.6	318.15	0.69413	1672.87	2.25
0.6	318.15	0.78825	1677.39	2.25
0.6	318.15	0.86392	1680.85	2.26
0.8	288.15	0	1633.98	2.26
0.8	288.15	0.01133	1634.68	2.26
0.8	288.15	0.05094	1636.72	2.26
0.8	288.15	0.10775	1640.54	2.26
0.8	288.15	0.2044	1644.9	2.26
0.8	288.15	0.30559	1650.92	2.26
0.8	288.15	0.40682	1657.64	2.26
0.8	288.15	0.46139	1661.06	2.26
0.8	288.15	0.59657	1665.67	2.26
0.8	288.15	0.69469	1671.94	2.26
0.8	288.15	0.79205	1676.08	2.26
0.8	298.15	0	1653.81	2.26
0.8	298.15	0.01133	1654.08	2.26
0.8	298.15	0.05094	1655.99	2.26
0.8	298.15	0.10775	1660.04	2.26
0.8	298.15	0.2044	1663.52	2.26
0.8	298.15	0.30559	1669.44	2.26
0.8	298.15	0.40682	1675.4	2.26
0.8	298.15	0.46139	1678.95	2.26
0.8	298.15	0.59657	1683.09	2.26
0.8	298.15	0.69469	1688.95	2.26
0.8	298.15	0.79205	1692.67	2.26
0.8	308.15	0	1667.33	2.25
0.8	308.15	0.01133	1669.15	2.26
0.8	308.15	0.05094	1669.62	2.26
0.8	308.15	0.10775	1673.51	2.26
0.8	308.15	0.2044	1676.72	2.26
0.8	308.15	0.30559	1682.32	2.26
0.8	308.15	0.40682	1687.87	2.26
0.8	308.15	0.46139	1691.28	2.26
0.8	308.15	0.59657	1695.25	2.26
0.8	308.15	0.69469	1700.69	2.26
0.8	308.15	0.79205	1704.24	2.26
0.8	318.15	0	1676.17	2.25
0.8	318.15	0.01133	1677.59	2.25
0.8	318.15	0.05094	1678.29	2.26
0.8	318.15	0.10775	1681.56	2.26
0.8	318.15	0.2044	1685.06	2.26
0.8	318.15	0.30559	1690.11	2.26
0.8	318.15	0.40682	1695.71	2.26
0.8	318.15	0.46139	1698.67	2.26
0.8	318.15	0.59657	1702.76	2.26
0.8	318.15	0.69469	1707.63	2.26
0.8	318.15	0.79205	1711.3	2.26

System: (S)-2-aminopropanoic acid + trisodium citrate + water; phases: Liquid
Fixed: Pressure, kPa = 101
Property: Mass density, kg/m3 (Liquid); method: Vibrating tube method
Solvent: Molality, mol/kg of trisodium citrate	Temperature, K	Molality, mol/kg of (S)-2-aminopropanoic acid	Mass density, kg/m3	uncertainty
0	288.15	0	999.11	0.16
0	288.15	0.00939	999.393	0.16
0	288.15	0.04689	1000.517	0.161
0	288.15	0.09896	1002.065	0.161
0	288.15	0.20034	1005.041	0.163
0	288.15	0.29792	1007.858	0.164
0	288.15	0.39972	1010.744	0.165
0	288.15	0.49412	1013.376	0.166
0	288.15	0.60987	1016.547	0.168
0	288.15	0.69727	1018.884	0.169
0	288.15	0.79784	1021.546	0.17
0	298.15	0	997.047	0.161
0	298.15	0.00939	997.32	0.161
0	298.15	0.04689	998.405	0.161
0	298.15	0.09896	999.9	0.16
0	298.15	0.20034	1002.776	0.162
0	298.15	0.29792	1005.498	0.163
0	298.15	0.39972	1008.281	0.164
0	298.15	0.49412	1010.812	0.165
0	298.15	0.60987	1013.869	0.167
0	298.15	0.69727	1016.121	0.168
0	298.15	0.79784	1018.676	0.169
0	308.15	0	994.031	0.162
0	308.15	0.00939	994.294	0.162
0	308.15	0.04689	995.339	0.161
0	308.15	0.09896	996.777	0.161
0	308.15	0.20034	999.545	0.161
0	308.15	0.29792	1002.158	0.162
0	308.15	0.39972	1004.847	0.163
0	308.15	0.49412	1007.281	0.164
0	308.15	0.60987	1010.221	0.165
0	308.15	0.69727	1012.385	0.166
0	308.15	0.79784	1014.851	0.168
0	318.15	0	990.141	0.162
0	318.15	0.00939	990.395	0.162
0	318.15	0.04689	991.404	0.162
0	318.15	0.09896	992.791	0.162
0	318.15	0.20034	995.459	0.162
0	318.15	0.29792	997.981	0.161
0	318.15	0.39972	1000.564	0.162
0	318.15	0.49412	1002.913	0.163
0	318.15	0.60987	1005.745	0.164
0	318.15	0.69727	1007.836	0.165
0	318.15	0.79784	1010.192	0.166
0.2	288.15	0	1034.671	0.176
0.2	288.15	0.01095	1034.959	0.176
0.2	288.15	0.04907	1035.959	0.176
0.2	288.15	0.10134	1037.321	0.177
0.2	288.15	0.20243	1039.93	0.178
0.2	288.15	0.29922	1042.395	0.179
0.2	288.15	0.39624	1044.836	0.181
0.2	288.15	0.48854	1047.129	0.182
0.2	288.15	0.59241	1049.679	0.183
0.2	288.15	0.70653	1052.439	0.184
0.2	288.15	0.79536	1054.559	0.185
0.2	298.15	0	1031.983	0.175
0.2	298.15	0.01095	1032.265	0.175
0.2	298.15	0.04907	1033.242	0.175
0.2	298.15	0.10134	1034.574	0.176
0.2	298.15	0.20243	1037.124	0.177
0.2	298.15	0.29922	1039.533	0.178
0.2	298.15	0.39624	1041.918	0.179
0.2	298.15	0.48854	1044.16	0.18
0.2	298.15	0.59241	1046.65	0.182
0.2	298.15	0.70653	1049.35	0.183
0.2	298.15	0.79536	1051.422	0.184
0.2	308.15	0	1028.502	0.173
0.2	308.15	0.01095	1028.776	0.174
0.2	308.15	0.04907	1029.728	0.174
0.2	308.15	0.10134	1031.024	0.175
0.2	308.15	0.20243	1033.507	0.176
0.2	308.15	0.29922	1035.852	0.177
0.2	308.15	0.39624	1038.173	0.178
0.2	308.15	0.48854	1040.354	0.179
0.2	308.15	0.59241	1042.777	0.18
0.2	308.15	0.70653	1045.403	0.181
0.2	308.15	0.79536	1047.419	0.182
0.2	318.15	0	1024.357	0.172
0.2	318.15	0.01095	1024.621	0.172
0.2	318.15	0.04907	1025.539	0.172
0.2	318.15	0.10134	1026.789	0.173
0.2	318.15	0.20243	1029.182	0.174
0.2	318.15	0.29922	1031.442	0.175
0.2	318.15	0.39624	1033.679	0.176
0.2	318.15	0.48854	1035.78	0.177
0.2	318.15	0.59241	1038.115	0.178
0.2	318.15	0.70653	1040.642	0.18
0.2	318.15	0.79536	1042.582	0.181
0.4	288.15	0	1071.212	0.193
0.4	288.15	0.01027	1071.461	0.193
0.4	288.15	0.05007	1072.422	0.193
0.4	288.15	0.10029	1073.626	0.194
0.4	288.15	0.20084	1076.012	0.195
0.4	288.15	0.30259	1078.393	0.196
0.4	288.15	0.39825	1080.599	0.197
0.4	288.15	0.51024	1083.149	0.199
0.4	288.15	0.59764	1085.109	0.2
0.4	288.15	0.70069	1087.391	0.201
0.4	288.15	0.80668	1089.704	0.202
0.4	298.15	0	1067.934	0.192
0.4	298.15	0.01027	1068.171	0.192
0.4	298.15	0.05007	1069.086	0.192
0.4	298.15	0.10029	1070.233	0.193
0.4	298.15	0.20084	1072.505	0.194
0.4	298.15	0.30259	1074.772	0.195
0.4	298.15	0.39825	1076.874	0.196
0.4	298.15	0.51024	1079.3	0.197
0.4	298.15	0.59764	1081.167	0.198
0.4	298.15	0.70069	1083.339	0.199
0.4	298.15	0.80668	1085.544	0.2
0.4	308.15	0	1064.126	0.19
0.4	308.15	0.01027	1064.44	0.19
0.4	308.15	0.05007	1065.305	0.191
0.4	308.15	0.10029	1066.389	0.191
0.4	308.15	0.20084	1068.536	0.192
0.4	308.15	0.30259	1070.678	0.193
0.4	308.15	0.39825	1072.665	0.194
0.4	308.15	0.51024	1074.956	0.196
0.4	308.15	0.59764	1076.719	0.197
0.4	308.15	0.70069	1078.773	0.198
0.4	308.15	0.80668	1080.878	0.199
0.4	318.15	0	1059.23	0.189
0.4	318.15	0.01027	1059.443	0.189
0.4	318.15	0.05007	1060.265	0.189
0.4	318.15	0.10029	1061.295	0.19
0.4	318.15	0.20084	1063.334	0.191
0.4	318.15	0.30259	1065.368	0.192
0.4	318.15	0.39825	1067.252	0.193
0.4	318.15	0.51024	1069.426	0.194
0.4	318.15	0.59764	1071.1	0.195
0.4	318.15	0.70069	1073.046	0.196
0.4	318.15	0.80668	1075.019	0.197
0.6	288.15	0	1104.432	0.21
0.6	288.15	0.01	1104.621	0.21
0.6	288.15	0.05102	1105.392	0.21
0.6	288.15	0.09796	1106.268	0.21
0.6	288.15	0.20125	1108.174	0.211
0.6	288.15	0.29538	1109.885	0.212
0.6	288.15	0.40326	1111.816	0.213
0.6	288.15	0.48309	1113.225	0.214
0.6	288.15	0.59335	1115.147	0.215
0.6	288.15	0.70955	1117.136	0.216
0.6	288.15	0.79773	1118.621	0.217
0.6	298.15	0	1100.684	0.208
0.6	298.15	0.01	1100.863	0.208
0.6	298.15	0.05102	1101.594	0.208
0.6	298.15	0.09796	1102.425	0.209
0.6	298.15	0.20125	1104.233	0.209
0.6	298.15	0.29538	1105.856	0.21
0.6	298.15	0.40326	1107.688	0.211
0.6	298.15	0.48309	1109.024	0.212
0.6	298.15	0.59335	1110.844	0.213
0.6	298.15	0.70955	1112.733	0.214
0.6	298.15	0.79773	1114.141	0.215
0.6	308.15	0	1096.959	0.206
0.6	308.15	0.01	1097.128	0.206
0.6	308.15	0.05102	1097.818	0.206
0.6	308.15	0.09796	1098.602	0.207
0.6	308.15	0.20125	1100.307	0.208
0.6	308.15	0.29538	1101.838	0.209
0.6	308.15	0.40326	1103.566	0.209
0.6	308.15	0.48309	1104.825	0.21
0.6	308.15	0.59335	1106.542	0.211
0.6	308.15	0.70955	1108.321	0.212
0.6	308.15	0.79773	1109.65	0.213
0.6	318.15	0	1092.257	0.204
0.6	318.15	0.01	1092.417	0.204
0.6	318.15	0.05102	1093.07	0.205
0.6	318.15	0.09796	1093.812	0.205
0.6	318.15	0.20125	1095.426	0.206
0.6	318.15	0.29538	1096.874	0.207
0.6	318.15	0.40326	1098.508	0.207
0.6	318.15	0.48309	1099.699	0.208
0.6	318.15	0.59335	1101.323	0.209
0.6	318.15	0.70955	1103.005	0.21
0.6	318.15	0.79773	1104.258	0.21
0.8	288.15	0	1137.969	0.227
0.8	288.15	0.01206	1138.128	0.227
0.8	288.15	0.05011	1138.627	0.227
0.8	288.15	0.1074	1139.372	0.227
0.8	288.15	0.20719	1140.653	0.228
0.8	288.15	0.29908	1141.814	0.229
0.8	288.15	0.40011	1143.071	0.229
0.8	288.15	0.50861	1144.399	0.23
0.8	288.15	0.59248	1145.407	0.231
0.8	288.15	0.69231	1146.589	0.231
0.8	288.15	0.8388	1148.294	0.232
0.8	298.15	0	1133.93	0.225
0.8	298.15	0.01206	1134.075	0.225
0.8	298.15	0.05011	1134.53	0.225
0.8	298.15	0.1074	1135.209	0.225
0.8	298.15	0.20719	1136.376	0.226
0.8	298.15	0.29908	1137.433	0.227
0.8	298.15	0.40011	1138.578	0.227
0.8	298.15	0.50861	1139.785	0.228
0.8	298.15	0.59248	1140.709	0.228
0.8	298.15	0.69231	1141.789	0.229
0.8	298.15	0.8388	1143.341	0.23
0.8	308.15	0	1129.427	0.223
0.8	308.15	0.01206	1129.559	0.223
0.8	308.15	0.05011	1129.973	0.223
0.8	308.15	0.1074	1130.591	0.223
0.8	308.15	0.20719	1131.653	0.224
0.8	308.15	0.29908	1132.615	0.224
0.8	308.15	0.40011	1133.657	0.225
0.8	308.15	0.50861	1134.754	0.225
0.8	308.15	0.59248	1135.589	0.226
0.8	308.15	0.69231	1136.568	0.226
0.8	308.15	0.8388	1137.976	0.227
0.8	318.15	0	1124.504	0.22
0.8	318.15	0.01206	1124.626	0.22
0.8	318.15	0.05011	1125.009	0.221
0.8	318.15	0.1074	1125.581	0.221
0.8	318.15	0.20719	1126.564	0.221
0.8	318.15	0.29908	1127.454	0.222
0.8	318.15	0.40011	1128.416	0.222
0.8	318.15	0.50861	1129.432	0.223
0.8	318.15	0.59248	1130.202	0.223
0.8	318.15	0.69231	1131.106	0.224
0.8	318.15	0.8388	1132.411	0.225

System: (S)-2-aminopropanoic acid + trisodium citrate + water; phases: Liquid
Fixed: Pressure, kPa = 101
Property: Speed of sound, m/s (Liquid); method: Sing-around technique in a fixed-path interferometer
Solvent: Molality, mol/kg of trisodium citrate	Temperature, K	Molality, mol/kg of (S)-2-aminopropanoic acid	Speed of sound, m/s	uncertainty
0	288.15	0	1463.12	2.25
0	288.15	0.00939	1467.58	2.25
0	288.15	0.04689	1469.87	2.25
0	288.15	0.09896	1472.83	2.25
0	288.15	0.20034	1480.3	2.25
0	288.15	0.29792	1487.26	2.25
0	288.15	0.39972	1494.31	2.25
0	288.15	0.49412	1500.32	2.25
0	288.15	0.60987	1509.48	2.25
0	288.15	0.69727	1513.29	2.25
0	288.15	0.79784	1519.96	2.25
0	298.15	0	1495.85	2.25
0	298.15	0.00939	1497.91	2.25
0	298.15	0.04689	1499.77	2.25
0	298.15	0.09896	1502.78	2.25
0	298.15	0.20034	1509.6	2.25
0	298.15	0.29792	1515.94	2.25
0	298.15	0.39972	1522.71	2.25
0	298.15	0.49412	1527.97	2.25
0	298.15	0.60987	1536.72	2.25
0	298.15	0.69727	1540.38	2.25
0	298.15	0.79784	1546.17	2.25
0	308.15	0	1519.14	2.24
0	308.15	0.00939	1520.75	2.24
0	308.15	0.04689	1522.65	2.24
0	308.15	0.09896	1525.49	2.24
0	308.15	0.20034	1531.82	2.25
0	308.15	0.29792	1537.92	2.25
0	308.15	0.39972	1544.05	2.25
0	308.15	0.49412	1549	2.25
0	308.15	0.60987	1556.78	2.25
0	308.15	0.69727	1560.74	2.25
0	308.15	0.79784	1566.04	2.25
0	318.15	0	1536.14	2.24
0	318.15	0.00939	1536.95	2.24
0	318.15	0.04689	1539.23	2.24
0	318.15	0.09896	1542.03	2.24
0	318.15	0.20034	1547.94	2.24
0	318.15	0.29792	1553.19	2.24
0	318.15	0.39972	1558.73	2.24
0	318.15	0.49412	1564.07	2.25
0	318.15	0.60987	1571.44	2.25
0	318.15	0.69727	1574.73	2.25
0	318.15	0.79784	1580.92	2.25
0.2	288.15	0	1508.03	2.25
0.2	288.15	0.01095	1510.85	2.25
0.2	288.15	0.04907	1513.53	2.25
0.2	288.15	0.10134	1516.92	2.25
0.2	288.15	0.20243	1522.86	2.25
0.2	288.15	0.29922	1530.42	2.25
0.2	288.15	0.39624	1536.54	2.25
0.2	288.15	0.48854	1543.42	2.25
0.2	288.15	0.59241	1550.35	2.25
0.2	288.15	0.70653	1557.11	2.25
0.2	288.15	0.79536	1563.3	2.25
0.2	298.15	0	1535.97	2.25
0.2	298.15	0.01095	1538.32	2.25
0.2	298.15	0.04907	1541.07	2.25
0.2	298.15	0.10134	1544.11	2.25
0.2	298.15	0.20243	1549.96	2.25
0.2	298.15	0.29922	1556.62	2.25
0.2	298.15	0.39624	1562.49	2.25
0.2	298.15	0.48854	1568.61	2.25
0.2	298.15	0.59241	1575.17	2.25
0.2	298.15	0.70653	1581.42	2.25
0.2	298.15	0.79536	1586.95	2.25
0.2	308.15	0	1556.87	2.25
0.2	308.15	0.01095	1559.2	2.25
0.2	308.15	0.04907	1561.37	2.25
0.2	308.15	0.10134	1564.32	2.25
0.2	308.15	0.20243	1569.73	2.25
0.2	308.15	0.29922	1576.17	2.25
0.2	308.15	0.39624	1581.73	2.25
0.2	308.15	0.48854	1587.46	2.25
0.2	308.15	0.59241	1593.31	2.25
0.2	308.15	0.70653	1599.26	2.25
0.2	308.15	0.79536	1604.43	2.25
0.2	318.15	0	1571.85	2.25
0.2	318.15	0.01095	1573.8	2.25
0.2	318.15	0.04907	1576.3	2.25
0.2	318.15	0.10134	1579.32	2.25
0.2	318.15	0.20243	1584.88	2.25
0.2	318.15	0.29922	1590.64	2.25
0.2	318.15	0.39624	1595.45	2.25
0.2	318.15	0.48854	1600.19	2.25
0.2	318.15	0.59241	1606.42	2.25
0.2	318.15	0.70653	1611.56	2.25
0.2	318.15	0.79536	1616.44	2.25
0.4	288.15	0	1552.22	2.26
0.4	288.15	0.01027	1551.17	2.25
0.4	288.15	0.05007	1555.14	2.25
0.4	288.15	0.10029	1557.84	2.25
0.4	288.15	0.20084	1565.96	2.26
0.4	288.15	0.30259	1571.51	2.25
0.4	288.15	0.39825	1579.47	2.26
0.4	288.15	0.51024	1580.3	2.26
0.4	288.15	0.59764	1591.08	2.26
0.4	288.15	0.70069	1598.5	2.26
0.4	288.15	0.80668	1604.94	2.26
0.4	298.15	0	1577.49	2.25
0.4	298.15	0.01027	1576.43	2.25
0.4	298.15	0.05007	1580.09	2.25
0.4	298.15	0.10029	1582.59	2.26
0.4	298.15	0.20084	1590.39	2.26
0.4	298.15	0.30259	1595.39	2.25
0.4	298.15	0.39825	1602.06	2.25
0.4	298.15	0.51024	1608.87	2.26
0.4	298.15	0.59764	1613.21	2.25
0.4	298.15	0.70069	1620.13	2.25
0.4	298.15	0.80668	1626.15	2.25
0.4	308.15	0	1595.8	2.25
0.4	308.15	0.01027	1598.19	2.25
0.4	308.15	0.05007	1600.79	2.25
0.4	308.15	0.10029	1608.05	2.25
0.4	308.15	0.20084	1612.77	2.25
0.4	308.15	0.30259	1612.77	2.25
0.4	308.15	0.39825	1618.79	2.25
0.4	308.15	0.51024	1625.8	2.25
0.4	308.15	0.59764	1629.19	2.25
0.4	308.15	0.70069	1635.63	2.25
0.4	308.15	0.80668	1641.46	2.25
0.4	318.15	0	1608.34	2.25
0.4	318.15	0.01027	1610.65	2.25
0.4	318.15	0.05007	1613.29	2.25
0.4	318.15	0.10029	1619.46	2.25
0.4	318.15	0.20084	1624.53	2.25
0.4	318.15	0.30259	1624.53	2.25
0.4	318.15	0.39825	1630.7	2.25
0.4	318.15	0.51024	1636.6	2.25
0.4	318.15	0.59764	1640.02	2.25
0.4	318.15	0.70069	1645.57	2.25
0.4	318.15	0.80668	1651.48	2.25
0.6	288.15	0	1591.48	2.25
0.6	288.15	0.01	1592.67	2.25
0.6	288.15	0.05102	1596.47	2.26
0.6	288.15	0.09796	1598.48	2.25
0.6	288.15	0.20125	1607.36	2.26
0.6	288.15	0.29538	1613.65	2.26
0.6	288.15	0.40326	1618.74	2.25
0.6	288.15	0.48309	1624.72	2.26
0.6	288.15	0.59335	1631.82	2.26
0.6	288.15	0.70955	1636.45	2.25
0.6	288.15	0.79773	1645.46	2.26
0.6	298.15	0	1614.01	2.25
0.6	298.15	0.01	1615.18	2.25
0.6	298.15	0.05102	1618.78	2.25
0.6	298.15	0.09796	1620.42	2.25
0.6	298.15	0.20125	1628.97	2.26
0.6	298.15	0.29538	1634.51	2.26
0.6	298.15	0.40326	1639.27	2.26
0.6	298.15	0.48309	1644.8	2.26
0.6	298.15	0.59335	1651.49	2.26
0.6	298.15	0.70955	1655.6	2.26
0.6	298.15	0.79773	1663.94	2.26
0.6	308.15	0	1630.31	2.25
0.6	308.15	0.01	1631.42	2.25
0.6	308.15	0.05102	1634.72	2.25
0.6	308.15	0.09796	1636.3	2.25
0.6	308.15	0.20125	1644.48	2.25
0.6	308.15	0.29538	1648.98	2.25
0.6	308.15	0.40326	1653.91	2.25
0.6	308.15	0.48309	1658.96	2.25
0.6	308.15	0.59335	1665.4	2.25
0.6	308.15	0.70955	1668.98	2.25
0.6	308.15	0.79773	1676.79	2.26
0.6	318.15	0	1641.22	2.25
0.6	318.15	0.01	1641.98	2.25
0.6	318.15	0.05102	1645.01	2.25
0.6	318.15	0.09796	1646.84	2.25
0.6	318.15	0.20125	1654.54	2.25
0.6	318.15	0.29538	1658.96	2.25
0.6	318.15	0.40326	1663.37	2.25
0.6	318.15	0.48309	1667.77	2.25
0.6	318.15	0.59335	1674.26	2.25
0.6	318.15	0.70955	1677.11	2.26
0.6	318.15	0.79773	1684.66	2.26
0.8	288.15	0	1633.98	2.26
0.8	288.15	0.01206	1635.75	2.26
0.8	288.15	0.05011	1638.18	2.26
0.8	288.15	0.1074	1642.27	2.26
0.8	288.15	0.20719	1648.03	2.26
0.8	288.15	0.29908	1654.8	2.26
0.8	288.15	0.40011	1660.59	2.26
0.8	288.15	0.50861	1667.92	2.26
0.8	288.15	0.59248	1673.23	2.26
0.8	288.15	0.69231	1679.78	2.26
0.8	288.15	0.8388	1689.09	2.26
0.8	298.15	0	1653.81	2.26
0.8	298.15	0.01206	1655.28	2.26
0.8	298.15	0.05011	1657.45	2.26
0.8	298.15	0.1074	1661.47	2.26
0.8	298.15	0.20719	1666.47	2.26
0.8	298.15	0.29908	1672.92	2.26
0.8	298.15	0.40011	1678.2	2.26
0.8	298.15	0.50861	1685.01	2.26
0.8	298.15	0.59248	1689.95	2.26
0.8	298.15	0.69231	1695.96	2.26
0.8	298.15	0.8388	1704.6	2.26
0.8	308.15	0	1667.33	2.25
0.8	308.15	0.01206	1668.93	2.26
0.8	308.15	0.05011	1671.12	2.26
0.8	308.15	0.1074	1674.8	2.26
0.8	308.15	0.20719	1679.41	2.26
0.8	308.15	0.29908	1685.47	2.26
0.8	308.15	0.40011	1690.42	2.26
0.8	308.15	0.50861	1696.76	2.26
0.8	308.15	0.59248	1701.21	2.26
0.8	308.15	0.69231	1707.06	2.26
0.8	308.15	0.8388	1715	2.26
0.8	318.15	0	1676.17	2.25
0.8	318.15	0.01206	1677.42	2.25
0.8	318.15	0.05011	1679.8	2.26
0.8	318.15	0.1074	1682.79	2.26
0.8	318.15	0.20719	1687.52	2.26
0.8	318.15	0.29908	1692.87	2.26
0.8	318.15	0.40011	1697.83	2.26
0.8	318.15	0.50861	1703.87	2.26
0.8	318.15	0.59248	1707.67	2.26
0.8	318.15	0.69231	1713.57	2.26
0.8	318.15	0.8388	1720.7	2.26

System: trisodium citrate + L-valine + water; phases: Liquid
Fixed: Pressure, kPa = 101
Property: Mass density, kg/m3 (Liquid); method: Vibrating tube method
Solvent: Molality, mol/kg of trisodium citrate	Temperature, K	Molality, mol/kg of L-valine	Mass density, kg/m3	uncertainty
0	288.15	0	999.11	0.16
0	288.15	0.00555	999.264	0.16
0	288.15	0.02398	999.773	0.16
0	288.15	0.03504	1000.078	0.16
0	288.15	0.05824	1000.713	0.161
0	288.15	0.07873	1001.269	0.161
0	288.15	0.09938	1001.827	0.161
0	288.15	0.20678	1004.692	0.162
0	288.15	0.29923	1007.101	0.163
0	288.15	0.40172	1009.702	0.165
0	298.15	0	997.047	0.161
0	298.15	0.00555	997.195	0.161
0	298.15	0.02398	997.685	0.161
0	298.15	0.03504	997.977	0.161
0	298.15	0.05824	998.588	0.161
0	298.15	0.07873	999.124	0.161
0	298.15	0.09938	999.658	0.161
0	298.15	0.20678	1002.414	0.162
0	298.15	0.29923	1004.729	0.163
0	298.15	0.40172	1007.239	0.164
0	308.15	0	994.031	0.162
0	308.15	0.00555	994.174	0.162
0	308.15	0.02398	994.647	0.162
0	308.15	0.03504	994.929	0.161
0	308.15	0.05824	995.518	0.161
0	308.15	0.07873	996.034	0.161
0	308.15	0.09938	996.551	0.161
0	308.15	0.20678	999.213	0.161
0	308.15	0.29923	1001.445	0.162
0	308.15	0.40172	1003.867	0.163
0	318.15	0	990.141	0.162
0	318.15	0.00555	990.28	0.162
0	318.15	0.02398	990.74	0.162
0	318.15	0.03504	991.014	0.162
0	318.15	0.05824	991.588	0.162
0	318.15	0.07873	992.09	0.162
0	318.15	0.09938	992.593	0.162
0	318.15	0.20678	995.181	0.162
0	318.15	0.29923	997.351	0.162
0	318.15	0.40172	999.709	0.161
0.2	288.15	0	1034.671	0.176
0.2	288.15	0.00219	1034.724	0.176
0.2	288.15	0.00492	1034.79	0.176
0.2	288.15	0.00982	1034.909	0.176
0.2	288.15	0.03003	1035.398	0.176
0.2	288.15	0.05839	1036.08	0.177
0.2	288.15	0.07898	1036.571	0.177
0.2	288.15	0.09797	1037.024	0.177
0.2	288.15	0.1996	1039.418	0.178
0.2	288.15	0.29588	1041.645	0.179
0.2	288.15	0.39873	1043.978	0.18
0.2	298.15	0	1031.983	0.175
0.2	298.15	0.00219	1032.034	0.175
0.2	298.15	0.00492	1032.098	0.175
0.2	298.15	0.00982	1032.211	0.175
0.2	298.15	0.03003	1032.68	0.175
0.2	298.15	0.05839	1033.334	0.175
0.2	298.15	0.07898	1033.806	0.176
0.2	298.15	0.09797	1034.24	0.176
0.2	298.15	0.1996	1036.537	0.177
0.2	298.15	0.29588	1038.672	0.178
0.2	298.15	0.39873	1040.911	0.179
0.2	308.15	0	1028.502	0.173
0.2	308.15	0.00219	1028.551	0.174
0.2	308.15	0.00492	1028.612	0.174
0.2	308.15	0.00982	1028.721	0.174
0.2	308.15	0.03003	1029.172	0.174
0.2	308.15	0.05839	1029.8	0.174
0.2	308.15	0.07898	1030.254	0.174
0.2	308.15	0.09797	1030.67	0.175
0.2	308.15	0.1996	1032.876	0.176
0.2	308.15	0.29588	1034.927	0.177
0.2	308.15	0.39873	1037.076	0.178
0.2	318.15	0	1024.357	0.172
0.2	318.15	0.00219	1024.404	0.172
0.2	318.15	0.00492	1024.463	0.172
0.2	318.15	0.00982	1024.567	0.172
0.2	318.15	0.03003	1024.999	0.172
0.2	318.15	0.05839	1025.602	0.172
0.2	318.15	0.07898	1026.037	0.173
0.2	318.15	0.09797	1026.437	0.173
0.2	318.15	0.1996	1028.553	0.174
0.2	318.15	0.29588	1030.519	0.175
0.2	318.15	0.39873	1032.58	0.176
0.4	288.15	0	1071.212	0.193
0.4	288.15	0.0031	1071.269	0.193
0.4	288.15	0.00676	1071.336	0.193
0.4	288.15	0.00993	1071.394	0.193
0.4	288.15	0.03119	1071.782	0.193
0.4	288.15	0.06018	1072.308	0.193
0.4	288.15	0.07509	1072.577	0.194
0.4	288.15	0.09961	1073.018	0.194
0.4	288.15	0.20333	1074.859	0.195
0.4	288.15	0.28514	1076.283	0.196
0.4	288.15	0.31777	1076.844	0.196
0.4	288.15	0.35139	1077.417	0.196
0.4	298.15	0	1067.934	0.192
0.4	298.15	0.0031	1067.988	0.192
0.4	298.15	0.00676	1068.051	0.192
0.4	298.15	0.00993	1068.106	0.192
0.4	298.15	0.03119	1068.474	0.192
0.4	298.15	0.06018	1068.972	0.192
0.4	298.15	0.07509	1069.226	0.192
0.4	298.15	0.09961	1069.644	0.192
0.4	298.15	0.20333	1071.386	0.193
0.4	298.15	0.28514	1072.734	0.194
0.4	298.15	0.31777	1073.265	0.194
0.4	298.15	0.35139	1073.807	0.195
0.4	308.15	0	1064.126	0.191
0.4	308.15	0.0031	1064.176	0.19
0.4	308.15	0.00676	1064.235	0.19
0.4	308.15	0.00993	1064.286	0.191
0.4	308.15	0.03119	1064.628	0.19
0.4	308.15	0.06018	1065.091	0.191
0.4	308.15	0.07509	1065.328	0.191
0.4	308.15	0.09961	1065.716	0.191
0.4	308.15	0.20333	1067.337	0.192
0.4	308.15	0.28514	1068.59	0.192
0.4	308.15	0.31777	1069.082	0.193
0.4	308.15	0.35139	1069.586	0.193
0.4	318.15	0	1059.23	0.189
0.4	318.15	0.0031	1059.277	0.188
0.4	318.15	0.00676	1059.332	0.189
0.4	318.15	0.00993	1059.38	0.189
0.4	318.15	0.03119	1059.7	0.189
0.4	318.15	0.06018	1060.135	0.189
0.4	318.15	0.07509	1060.357	0.189
0.4	318.15	0.09961	1060.72	0.189
0.4	318.15	0.20333	1062.238	0.19
0.4	318.15	0.28514	1063.412	0.19
0.4	318.15	0.31777	1063.869	0.191
0.4	318.15	0.35139	1064.341	0.191
0.6	288.15	0	1104.432	0.21
0.6	288.15	0.00236	1104.46	0.21
0.6	288.15	0.00543	1104.497	0.21
0.6	288.15	0.01005	1104.552	0.21
0.6	288.15	0.03017	1104.792	0.21
0.6	288.15	0.05981	1105.144	0.21
0.6	288.15	0.07695	1105.345	0.21
0.6	288.15	0.10096	1105.627	0.21
0.6	288.15	0.20016	1106.775	0.211
0.6	288.15	0.2516	1107.36	0.211
0.6	288.15	0.30713	1107.984	0.211
0.6	298.15	0	1100.684	0.208
0.6	298.15	0.00236	1100.71	0.208
0.6	298.15	0.00543	1100.744	0.208
0.6	298.15	0.01005	1100.796	0.208
0.6	298.15	0.03017	1101.019	0.208
0.6	298.15	0.05981	1101.345	0.208
0.6	298.15	0.07695	1101.532	0.208
0.6	298.15	0.10096	1101.794	0.208
0.6	298.15	0.20016	1102.859	0.209
0.6	298.15	0.2516	1103.401	0.209
0.6	298.15	0.30713	1103.979	0.209
0.6	308.15	0	1096.959	0.206
0.6	308.15	0.00236	1096.982	0.206
0.6	308.15	0.00543	1097.013	0.206
0.6	308.15	0.01005	1097.058	0.206
0.6	308.15	0.03017	1097.256	0.206
0.6	308.15	0.05981	1097.546	0.206
0.6	308.15	0.07695	1097.712	0.206
0.6	308.15	0.10096	1097.944	0.207
0.6	308.15	0.20016	1098.891	0.207
0.6	308.15	0.2516	1099.373	0.207
0.6	308.15	0.30713	1099.886	0.208
0.6	318.15	0	1092.257	0.204
0.6	318.15	0.00236	1092.277	0.204
0.6	318.15	0.00543	1092.304	0.204
0.6	318.15	0.01005	1092.344	0.204
0.6	318.15	0.03017	1092.518	0.204
0.6	318.15	0.05981	1092.772	0.204
0.6	318.15	0.07695	1092.918	0.204
0.6	318.15	0.10096	1093.12	0.205
0.6	318.15	0.20016	1093.947	0.205
0.6	318.15	0.2516	1094.369	0.205
0.6	318.15	0.30713	1094.818	0.205
0.8	288.15	0	1137.969	0.227
0.8	288.15	0.00285	1137.984	0.227
0.8	288.15	0.00523	1137.996	0.227
0.8	288.15	0.01375	1138.039	0.227
0.8	288.15	0.02871	1138.114	0.227
0.8	288.15	0.06205	1138.281	0.227
0.8	288.15	0.07723	1138.356	0.227
0.8	288.15	0.09908	1138.463	0.227
0.8	288.15	0.14972	1138.705	0.227
0.8	288.15	0.19869	1138.94	0.227
0.8	288.15	0.234	1139.106	0.227
0.8	298.15	0	1133.93	0.225
0.8	298.15	0.00285	1133.942	0.225
0.8	298.15	0.00523	1133.952	0.225
0.8	298.15	0.01375	1133.988	0.225
0.8	298.15	0.02871	1134.05	0.225
0.8	298.15	0.06205	1134.189	0.225
0.8	298.15	0.07723	1134.251	0.225
0.8	298.15	0.09908	1134.34	0.225
0.8	298.15	0.14972	1134.545	0.225
0.8	298.15	0.19869	1134.741	0.225
0.8	298.15	0.234	1134.88	0.225
0.8	308.15	0	1129.427	0.223
0.8	308.15	0.00285	1129.436	0.223
0.8	308.15	0.00523	1129.443	0.223
0.8	308.15	0.01375	1129.469	0.223
0.8	308.15	0.02871	1129.514	0.223
0.8	308.15	0.06205	1129.614	0.223
0.8	308.15	0.07723	1129.659	0.223
0.8	308.15	0.09908	1129.722	0.223
0.8	308.15	0.14972	1129.87	0.223
0.8	308.15	0.19869	1130.01	0.223
0.8	308.15	0.234	1130.108	0.223
0.8	318.15	0	1124.504	0.22
0.8	318.15	0.00285	1124.509	0.22
0.8	318.15	0.00523	1124.513	0.22
0.8	318.15	0.01375	1124.528	0.22
0.8	318.15	0.02871	1124.554	0.22
0.8	318.15	0.06205	1124.61	0.22
0.8	318.15	0.07723	1124.635	0.22
0.8	318.15	0.09908	1124.672	0.22
0.8	318.15	0.14972	1124.755	0.22
0.8	318.15	0.19869	1124.834	0.221
0.8	318.15	0.234	1124.889	0.221

System: trisodium citrate + L-valine + water; phases: Liquid
Fixed: Pressure, kPa = 101
Property: Speed of sound, m/s (Liquid); method: Sing-around technique in a fixed-path interferometer
Solvent: Molality, mol/kg of trisodium citrate	Temperature, K	Molality, mol/kg of L-valine	Speed of sound, m/s	uncertainty
0	288.15	0	1463.12	2.25
0	288.15	0.00555	1467.36	2.25
0	288.15	0.02398	1467.32	2.25
0	288.15	0.03504	1469.71	2.25
0	288.15	0.05824	1469.61	2.25
0	288.15	0.07873	1472.8	2.25
0	288.15	0.09938	1474.76	2.25
0	288.15	0.20678	1477	2.25
0	288.15	0.29923	1488.44	2.25
0	288.15	0.40172	1497.16	2.25
0	298.15	0	1495.85	2.25
0	298.15	0.00555	1497.46	2.25
0	298.15	0.02398	1497.38	2.25
0	298.15	0.03504	1499.59	2.25
0	298.15	0.05824	1499.73	2.25
0	298.15	0.07873	1502.41	2.25
0	298.15	0.09938	1504.39	2.25
0	298.15	0.20678	1506.17	2.25
0	298.15	0.29923	1516.64	2.25
0	298.15	0.40172	1524.76	2.25
0	308.15	0	1519.14	2.24
0	308.15	0.00555	1520.44	2.24
0	308.15	0.02398	1520.4	2.24
0	308.15	0.03504	1522.04	2.24
0	308.15	0.05824	1522.6	2.24
0	308.15	0.07873	1525.01	2.24
0	308.15	0.09938	1526.92	2.24
0	308.15	0.20678	1528.23	2.24
0	308.15	0.29923	1537.85	2.24
0	308.15	0.40172	1545.25	2.25
0	318.15	0	1536.14	2.24
0	318.15	0.00555	1537.11	2.24
0	318.15	0.02398	1537.41	2.24
0	318.15	0.03504	1538.69	2.24
0	318.15	0.05824	1538.99	2.24
0	318.15	0.07873	1541.24	2.24
0	318.15	0.09938	1542.71	2.24
0	318.15	0.20678	1544.38	2.25
0	318.15	0.29923	1552.47	2.24
0	318.15	0.40172	1560.36	2.25
0.2	288.15	0	1508.03	2.25
0.2	288.15	0.00219	1510.35	2.25
0.2	288.15	0.00492	1510.6	2.25
0.2	288.15	0.00982	1510.57	2.25
0.2	288.15	0.03003	1513.33	2.25
0.2	288.15	0.05839	1516.62	2.25
0.2	288.15	0.07898	1518.19	2.25
0.2	288.15	0.09797	1520.85	2.25
0.2	288.15	0.1996	1530.57	2.25
0.2	288.15	0.29588	1540.85	2.25
0.2	288.15	0.39873	1550.9	2.25
0.2	298.15	0	1535.97	2.25
0.2	298.15	0.00219	1538.02	2.25
0.2	298.15	0.00492	1538.43	2.25
0.2	298.15	0.00982	1538.39	2.25
0.2	298.15	0.03003	1540.93	2.25
0.2	298.15	0.05839	1544.07	2.25
0.2	298.15	0.07898	1545.11	2.25
0.2	298.15	0.09797	1547.82	2.25
0.2	298.15	0.1996	1556.36	2.25
0.2	298.15	0.29588	1565.7	2.25
0.2	298.15	0.39873	1574.79	2.25
0.2	308.15	0	1556.87	2.25
0.2	308.15	0.00219	1558.7	2.25
0.2	308.15	0.00492	1558.97	2.25
0.2	308.15	0.00982	1559.15	2.25
0.2	308.15	0.03003	1561.35	2.25
0.2	308.15	0.05839	1564.21	2.25
0.2	308.15	0.07898	1565.22	2.25
0.2	308.15	0.09797	1567.61	2.25
0.2	308.15	0.1996	1575.56	2.25
0.2	308.15	0.29588	1583.6	2.25
0.2	308.15	0.39873	1592.26	2.25
0.2	318.15	0	1571.85	2.25
0.2	318.15	0.00219	1574.17	2.25
0.2	318.15	0.00492	1574.58	2.25
0.2	318.15	0.00982	1573.83	2.25
0.2	318.15	0.03003	1575.56	2.25
0.2	318.15	0.05839	1578.23	2.25
0.2	318.15	0.07898	1579.44	2.25
0.2	318.15	0.09797	1581.54	2.25
0.2	318.15	0.1996	1588.61	2.25
0.2	318.15	0.29588	1596.56	2.25
0.2	318.15	0.39873	1604.03	2.25
0.4	288.15	0	1552.22	2.26
0.4	288.15	0.0031	1551.25	2.25
0.4	288.15	0.00676	1552.09	2.25
0.4	288.15	0.00993	1551.87	2.25
0.4	288.15	0.03119	1554.95	2.25
0.4	288.15	0.06018	1557.06	2.25
0.4	288.15	0.07509	1559.35	2.25
0.4	288.15	0.09961	1561.99	2.25
0.4	288.15	0.20333	1572.02	2.25
0.4	288.15	0.28514	1580.35	2.25
0.4	288.15	0.31777	1583.62	2.25
0.4	288.15	0.35139	1588.2	2.25
0.4	298.15	0	1577.49	2.25
0.4	298.15	0.0031	1576.48	2.25
0.4	298.15	0.00676	1577.35	2.25
0.4	298.15	0.00993	1576.84	2.25
0.4	298.15	0.03119	1579.92	2.25
0.4	298.15	0.06018	1581.61	2.25
0.4	298.15	0.07509	1583.9	2.25
0.4	298.15	0.09961	1586.41	2.25
0.4	298.15	0.20333	1595.05	2.25
0.4	298.15	0.28514	1602.73	2.25
0.4	298.15	0.31777	1605.66	2.25
0.4	298.15	0.35139	1610.03	2.25
0.4	308.15	0	1595.8	2.25
0.4	308.15	0.0031	1595.08	2.25
0.4	308.15	0.00676	1595.6	2.25
0.4	308.15	0.00993	1595.34	2.25
0.4	308.15	0.03119	1598.1	2.25
0.4	308.15	0.06018	1599.69	2.25
0.4	308.15	0.07509	1601.54	2.25
0.4	308.15	0.09961	1604.13	2.25
0.4	308.15	0.20333	1611.94	2.25
0.4	308.15	0.28514	1619.56	2.25
0.4	308.15	0.31777	1621.59	2.25
0.4	308.15	0.35139	1625.68	2.25
0.4	318.15	0	1608.34	2.25
0.4	318.15	0.0031	1607.9	2.25
0.4	318.15	0.00676	1608.87	2.25
0.4	318.15	0.00993	1608.07	2.25
0.4	318.15	0.03119	1610.24	2.25
0.4	318.15	0.06018	1612.07	2.25
0.4	318.15	0.07509	1613.58	2.25
0.4	318.15	0.09961	1615.87	2.25
0.4	318.15	0.20333	1623.26	2.25
0.4	318.15	0.28514	1629.88	2.25
0.4	318.15	0.31777	1632.03	2.25
0.4	318.15	0.35139	1635.83	2.25
0.6	288.15	0	1591.48	2.25
0.6	288.15	0.00236	1592.41	2.25
0.6	288.15	0.00543	1593.46	2.26
0.6	288.15	0.01005	1592.83	2.25
0.6	288.15	0.03017	1596.19	2.26
0.6	288.15	0.05981	1596.17	2.25
0.6	288.15	0.07695	1600.78	2.26
0.6	288.15	0.10096	1602.68	2.25
0.6	288.15	0.20016	1611.93	2.25
0.6	288.15	0.2516	1618.8	2.26
0.6	288.15	0.30713	1623.74	2.26
0.6	298.15	0	1614.01	2.25
0.6	298.15	0.00236	1614.82	2.25
0.6	298.15	0.00543	1616.05	2.25
0.6	298.15	0.01005	1615.34	2.25
0.6	298.15	0.03017	1618.36	2.25
0.6	298.15	0.05981	1618.02	2.25
0.6	298.15	0.07695	1622.67	2.25
0.6	298.15	0.10096	1624.12	2.25
0.6	298.15	0.20016	1632.62	2.26
0.6	298.15	0.2516	1638.93	2.26
0.6	298.15	0.30713	1643.31	2.26
0.6	308.15	0	1630.31	2.25
0.6	308.15	0.00236	1631.05	2.25
0.6	308.15	0.00543	1632.24	2.25
0.6	308.15	0.01005	1631.58	2.25
0.6	308.15	0.03017	1634.2	2.25
0.6	308.15	0.05981	1633.88	2.25
0.6	308.15	0.07695	1638.26	2.25
0.6	308.15	0.10096	1639.51	2.25
0.6	308.15	0.20016	1647.3	2.25
0.6	308.15	0.2516	1653.06	2.25
0.6	308.15	0.30713	1656.96	2.25
0.6	318.15	0	1641.22	2.25
0.6	318.15	0.00236	1641.94	2.25
0.6	318.15	0.00543	1642.65	2.25
0.6	318.15	0.01005	1642.45	2.25
0.6	318.15	0.03017	1644.21	2.25
0.6	318.15	0.05981	1644.45	2.25
0.6	318.15	0.07695	1648.24	2.25
0.6	318.15	0.10096	1649.59	2.25
0.6	318.15	0.20016	1656.72	2.25
0.6	318.15	0.2516	1661.79	2.25
0.6	318.15	0.30713	1665.11	2.25
0.8	288.15	0	1633.98	2.26
0.8	288.15	0.00285	1634.39	2.26
0.8	288.15	0.00523	1635.07	2.26
0.8	288.15	0.01375	1636.77	2.26
0.8	288.15	0.02871	1638.55	2.26
0.8	288.15	0.06205	1640.72	2.26
0.8	288.15	0.07723	1642.98	2.26
0.8	288.15	0.09908	1645.6	2.26
0.8	288.15	0.14972	1650.24	2.26
0.8	288.15	0.19869	1656.55	2.26
0.8	288.15	0.234	1658.56	2.26
0.8	298.15	0	1653.81	2.26
0.8	298.15	0.00285	1653.92	2.26
0.8	298.15	0.00523	1654.18	2.26
0.8	298.15	0.01375	1656.29	2.26
0.8	298.15	0.02871	1657.36	2.26
0.8	298.15	0.06205	1659.72	2.26
0.8	298.15	0.07723	1661.71	2.26
0.8	298.15	0.09908	1664.37	2.26
0.8	298.15	0.14972	1668.27	2.26
0.8	298.15	0.19869	1674.25	2.26
0.8	298.15	0.234	1675.93	2.26
0.8	308.15	0	1667.33	2.26
0.8	308.15	0.00285	1667.69	2.26
0.8	308.15	0.00523	1668.09	2.26
0.8	308.15	0.01375	1669.89	2.25
0.8	308.15	0.02871	1670.8	2.26
0.8	308.15	0.06205	1672.95	2.26
0.8	308.15	0.07723	1674.84	2.26
0.8	308.15	0.09908	1677.27	2.26
0.8	308.15	0.14972	1680.56	2.26
0.8	308.15	0.19869	1686.44	2.26
0.8	308.15	0.234	1687.83	2.26
0.8	318.15	0	1676.17	2.25
0.8	318.15	0.00285	1676.5	2.25
0.8	318.15	0.00523	1676.97	2.25
0.8	318.15	0.01375	1677.09	2.25
0.8	318.15	0.02871	1679.3	2.25
0.8	318.15	0.06205	1681.03	2.26
0.8	318.15	0.07723	1683.04	2.26
0.8	318.15	0.09908	1684.85	2.26
0.8	318.15	0.14972	1688.36	2.26
0.8	318.15	0.19869	1693.54	2.26
0.8	318.15	0.234	1694.87	2.26

System: 2-aminoacetic acid + water; phases: Liquid
Fixed: Pressure, kPa = 101
Property: Mass density, kg/m3 (Liquid); method: Vibrating tube method
Temperature, K	Molality, mol/kg of 2-aminoacetic acid	Mass density, kg/m3	uncertainty
288.15	0.01207	999.51	0.16
288.15	0.0523	1000.839	0.161
288.15	0.10374	1002.524	0.161
288.15	0.20373	1005.768	0.163
288.15	0.30678	1009.069	0.164
288.15	0.41239	1012.405	0.166
288.15	0.50277	1015.216	0.167
288.15	0.60576	1018.378	0.168
288.15	0.68289	1020.713	0.169
288.15	0.82001	1024.828	0.171
298.15	0.01207	997.439	0.161
298.15	0.0523	998.74	0.161
298.15	0.10374	1000.392	0.161
298.15	0.20373	1003.567	0.162
298.15	0.30678	1006.797	0.163
298.15	0.41239	1010.064	0.165
298.15	0.50277	1012.817	0.166
298.15	0.60576	1015.899	0.167
298.15	0.68289	1018.189	0.169
298.15	0.82001	1022.229	0.17
308.15	0.01207	994.412	0.162
308.15	0.0523	995.676	0.161
308.15	0.10374	997.281	0.161
308.15	0.20373	1000.371	0.161
308.15	0.30678	1003.509	0.162
308.15	0.41239	1006.68	0.164
308.15	0.50277	1009.36	0.165
308.15	0.60576	1012.35	0.166
308.15	0.68289	1014.549	0.167
308.15	0.82001	1018.454	0.169
318.15	0.01207	990.513	0.162
318.15	0.0523	991.747	0.162
318.15	0.10374	993.309	0.162
318.15	0.20373	996.317	0.162
318.15	0.30678	999.376	0.161
318.15	0.41239	1002.459	0.162
318.15	0.50277	1005.058	0.163
318.15	0.60576	1007.968	0.165
318.15	0.68289	1010.101	0.166
318.15	0.82001	1013.891	0.167

System: 2-aminoacetic acid + water; phases: Liquid
Fixed: Pressure, kPa = 101
Property: Speed of sound, m/s (Liquid); method: Sing-around technique in a fixed-path interferometer
Temperature, K	Molality, mol/kg of 2-aminoacetic acid	Speed of sound, m/s	uncertainty
288.15	0.01207	1467.22	2.25
288.15	0.0523	1470.11	2.25
288.15	0.10374	1472.31	2.25
288.15	0.20373	1477.81	2.25
288.15	0.30678	1483.4	2.25
288.15	0.41239	1488.71	2.25
288.15	0.50277	1494.55	2.25
288.15	0.60576	1499.19	2.25
288.15	0.68289	1503.36	2.25
288.15	0.82001	1510.15	2.25
298.15	0.01207	1497.66	2.25
298.15	0.0523	1500.06	2.25
298.15	0.10374	1502.3	2.25
298.15	0.20373	1507.23	2.25
298.15	0.30678	1512.44	2.25
298.15	0.41239	1517.75	2.25
298.15	0.50277	1522.96	2.25
298.15	0.60576	1527.31	2.25
298.15	0.68289	1531.34	2.25
298.15	0.82001	1537.66	2.25
308.15	0.01207	1519.97	2.24
308.15	0.0523	1522.89	2.24
308.15	0.10374	1524.73	2.24
308.15	0.20373	1529.67	2.25
308.15	0.30678	1534.58	2.25
308.15	0.41239	1539.71	2.25
308.15	0.50277	1543.76	2.25
308.15	0.60576	1548.68	2.25
308.15	0.68289	1552.54	2.25
308.15	0.82001	1558.57	2.25
318.15	0.01207	1537.18	2.24
318.15	0.0523	1538.94	2.24
318.15	0.10374	1541.13	2.24
318.15	0.20373	1545.8	2.24
318.15	0.30678	1551.38	2.25
318.15	0.41239	1555.38	2.25
318.15	0.50277	1560.21	2.25
318.15	0.60576	1564.06	2.25
318.15	0.68289	1567.69	2.25
318.15	0.82001	1573.49	2.25

System: trisodium citrate + water; phases: Liquid
Fixed: Pressure, kPa = 101
Property: Mass density, kg/m3 (Liquid); method: Vibrating tube method
Molality, mol/kg of trisodium citrate	Temperature, K	Mass density, kg/m3	uncertainty
0.2	288.15	1034.671	0.176
0.2	298.15	1031.983	0.175
0.2	308.15	1028.502	0.173
0.2	318.15	1024.357	0.172
0.4	288.15	1071.212	0.193
0.4	298.15	1067.934	0.192
0.4	308.15	1064.126	0.19
0.4	318.15	1059.23	0.189
0.6	288.15	1104.432	0.21
0.6	298.15	1100.684	0.208
0.6	308.15	1096.959	0.206
0.6	318.15	1092.257	0.204
0.8	288.15	1137.969	0.227
0.8	298.15	1133.93	0.225
0.8	308.15	1129.427	0.223
0.8	318.15	1124.504	0.22

System: trisodium citrate + water; phases: Liquid
Fixed: Pressure, kPa = 101
Property: Speed of sound, m/s (Liquid); method: Sing-around technique in a fixed-path interferometer
Molality, mol/kg of trisodium citrate	Temperature, K	Speed of sound, m/s	uncertainty
0.2	288.15	1508.03	2.25
0.2	298.15	1535.97	2.25
0.2	308.15	1556.87	2.25
0.2	318.15	1571.85	2.25
0.4	288.15	1552.22	2.26
0.4	298.15	1577.49	2.25
0.4	308.15	1595.8	2.25
0.4	318.15	1608.34	2.25
0.6	288.15	1591.48	2.25
0.6	298.15	1614.01	2.25
0.6	308.15	1630.31	2.25
0.6	318.15	1641.22	2.25
0.8	288.15	1633.98	2.26
0.8	298.15	1653.81	2.26
0.8	308.15	1667.33	2.25
0.8	318.15	1676.17	2.25

System: (S)-2-aminopropanoic acid + water; phases: Liquid
Fixed: Pressure, kPa = 101
Property: Mass density, kg/m3 (Liquid); method: Vibrating tube method
Temperature, K	Molality, mol/kg of (S)-2-aminopropanoic acid	Mass density, kg/m3	uncertainty
288.15	0.00939	999.393	0.16
288.15	0.04689	1000.517	0.161
288.15	0.09896	1002.065	0.161
288.15	0.20034	1005.041	0.163
288.15	0.29792	1007.858	0.164
288.15	0.39972	1010.744	0.165
288.15	0.49412	1013.376	0.166
288.15	0.60987	1016.547	0.168
288.15	0.69727	1018.884	0.169
288.15	0.79784	1021.546	0.17
298.15	0.00939	997.32	0.161
298.15	0.04689	998.405	0.161
298.15	0.09896	999.9	0.16
298.15	0.20034	1002.776	0.162
298.15	0.29792	1005.498	0.163
298.15	0.39972	1008.281	0.164
298.15	0.49412	1010.812	0.165
298.15	0.60987	1013.869	0.167
298.15	0.69727	1016.121	0.168
298.15	0.79784	1018.676	0.169
308.15	0.00939	994.294	0.162
308.15	0.04689	995.339	0.161
308.15	0.09896	996.777	0.161
308.15	0.20034	999.545	0.161
308.15	0.29792	1002.158	0.162
308.15	0.39972	1004.847	0.163
308.15	0.49412	1007.281	0.164
308.15	0.60987	1010.221	0.165
308.15	0.69727	1012.385	0.166
308.15	0.79784	1014.851	0.168
318.15	0.00939	990.395	0.162
318.15	0.04689	991.404	0.162
318.15	0.09896	992.791	0.162
318.15	0.20034	995.459	0.162
318.15	0.29792	997.981	0.161
318.15	0.39972	1000.564	0.162
318.15	0.49412	1002.913	0.163
318.15	0.60987	1005.745	0.164
318.15	0.69727	1007.836	0.165
318.15	0.79784	1010.192	0.166

System: (S)-2-aminopropanoic acid + water; phases: Liquid
Fixed: Pressure, kPa = 101
Property: Speed of sound, m/s (Liquid); method: Sing-around technique in a fixed-path interferometer
Temperature, K	Molality, mol/kg of (S)-2-aminopropanoic acid	Speed of sound, m/s	uncertainty
288.15	0.00939	1467.58	2.25
288.15	0.04689	1469.87	2.25
288.15	0.09896	1472.83	2.25
288.15	0.20034	1480.3	2.25
288.15	0.29792	1487.26	2.25
288.15	0.39972	1494.31	2.25
288.15	0.49412	1500.32	2.25
288.15	0.60987	1509.48	2.25
288.15	0.69727	1513.29	2.25
288.15	0.79784	1519.96	2.25
298.15	0.00939	1497.91	2.25
298.15	0.04689	1499.77	2.25
298.15	0.09896	1502.78	2.25
298.15	0.20034	1509.6	2.25
298.15	0.29792	1515.94	2.25
298.15	0.39972	1522.71	2.25
298.15	0.49412	1527.97	2.25
298.15	0.60987	1536.72	2.25
298.15	0.69727	1540.38	2.25
298.15	0.79784	1546.17	2.25
308.15	0.00939	1520.75	2.24
308.15	0.04689	1522.65	2.24
308.15	0.09896	1525.49	2.24
308.15	0.20034	1531.82	2.25
308.15	0.29792	1537.92	2.25
308.15	0.39972	1544.05	2.25
308.15	0.49412	1549	2.25
308.15	0.60987	1556.78	2.25
308.15	0.69727	1560.74	2.25
308.15	0.79784	1566.04	2.25
318.15	0.00939	1536.95	2.24
318.15	0.04689	1539.23	2.24
318.15	0.09896	1542.03	2.24
318.15	0.20034	1547.94	2.24
318.15	0.29792	1553.19	2.24
318.15	0.39972	1558.73	2.24
318.15	0.49412	1564.07	2.25
318.15	0.60987	1571.44	2.25
318.15	0.69727	1574.73	2.25
318.15	0.79784	1580.92	2.25

System: L-valine + water; phases: Liquid
Fixed: Pressure, kPa = 101
Property: Mass density, kg/m3 (Liquid); method: Vibrating tube method
Temperature, K	Molality, mol/kg of L-valine	Mass density, kg/m3	uncertainty
288.15	0.00555	999.264	0.16
288.15	0.02398	999.773	0.16
288.15	0.03504	1000.078	0.16
288.15	0.05824	1000.713	0.161
288.15	0.07873	1001.269	0.161
288.15	0.09938	1001.827	0.161
288.15	0.20678	1004.692	0.162
288.15	0.29923	1007.101	0.163
288.15	0.40172	1009.702	0.165
298.15	0.00555	997.195	0.161
298.15	0.02398	997.685	0.161
298.15	0.03504	997.977	0.161
298.15	0.05824	998.588	0.161
298.15	0.07873	999.124	0.161
298.15	0.09938	999.658	0.161
298.15	0.20678	1002.414	0.162
298.15	0.29923	1004.729	0.163
298.15	0.40172	1007.239	0.164
308.15	0.00555	994.174	0.162
308.15	0.02398	994.647	0.162
308.15	0.03504	994.929	0.161
308.15	0.05824	995.518	0.161
308.15	0.07873	996.034	0.161
308.15	0.09938	996.551	0.161
308.15	0.20678	999.213	0.161
308.15	0.29923	1001.445	0.162
308.15	0.40172	1003.867	0.163
318.15	0.00555	990.28	0.162
318.15	0.02398	990.74	0.162
318.15	0.03504	991.014	0.162
318.15	0.05824	991.588	0.162
318.15	0.07873	992.09	0.162
318.15	0.09938	992.593	0.162
318.15	0.20678	995.181	0.162
318.15	0.29923	997.351	0.162
318.15	0.40172	999.709	0.161

System: L-valine + water; phases: Liquid
Fixed: Pressure, kPa = 101
Property: Speed of sound, m/s (Liquid); method: Sing-around technique in a fixed-path interferometer
Temperature, K	Molality, mol/kg of L-valine	Speed of sound, m/s	uncertainty
288.15	0.00555	1467.36	2.25
288.15	0.02398	1467.32	2.25
288.15	0.03504	1469.71	2.25
288.15	0.05824	1469.61	2.25
288.15	0.07873	1472.8	2.25
288.15	0.09938	1474.76	2.25
288.15	0.20678	1477	2.25
288.15	0.29923	1488.44	2.25
288.15	0.40172	1497.16	2.25
298.15	0.00555	1497.46	2.25
298.15	0.02398	1497.38	2.25
298.15	0.03504	1499.59	2.25
298.15	0.05824	1499.73	2.25
298.15	0.07873	1502.41	2.25
298.15	0.09938	1504.39	2.25
298.15	0.20678	1506.17	2.25
298.15	0.29923	1516.64	2.25
298.15	0.40172	1524.76	2.25
308.15	0.00555	1520.44	2.24
308.15	0.02398	1520.4	2.24
308.15	0.03504	1522.04	2.24
308.15	0.05824	1522.6	2.24
308.15	0.07873	1525.01	2.24
308.15	0.09938	1526.92	2.24
308.15	0.20678	1528.23	2.24
308.15	0.29923	1537.85	2.24
308.15	0.40172	1545.25	2.25
318.15	0.00555	1537.11	2.24
318.15	0.02398	1537.41	2.24
318.15	0.03504	1538.69	2.24
318.15	0.05824	1538.99	2.24
318.15	0.07873	1541.24	2.24
318.15	0.09938	1542.71	2.24
318.15	0.20678	1544.38	2.25
318.15	0.29923	1552.47	2.24
318.15	0.40172	1560.36	2.25
