Measured thermophysical data. The high-temperature heat capacity of ThPd3 and UPd3
Source: J. Chem. Thermodyn., 2009, 10.1016/j.jct.2008.10.015
Compound 1: Uranium Palladium, Pd3U, InChI=1S/3Pd.U
Compound 2: Thorium Palladium, Pd3Th, InChI=1S/3Pd.Th

System: Uranium Palladium; phases: Crystal
Fixed: Pressure, kPa = 101.325
Property: Molar enthalpy, kJ/mol (Crystal); method: Drop calorimetry
Temperature, K	Molar enthalpy, kJ/mol	uncertainty
636.3	31.022	1.731
739.2	44.819	2.166
841.2	56.945	1.485
942.3	68.074	2.081
1191.9	97.123	6.539
1290.4	104.339	3.905

System: Uranium Palladium; phases: Crystal
Fixed: Pressure, kPa = 101.325
Property: Molar enthalpy, kJ/mol (Crystal); method: Drop calorimetry
Temperature, K	Molar enthalpy, kJ/mol	uncertainty
532.1	22.455	3.391
790.2	51.85	4.09
891.8	63.887	3.577
992.6	75.231	7.451

System: Uranium Palladium; phases: Crystal
Property: Molar enthalpy, kJ/mol (Crystal); method: Drop calorimetry
Temperature, K	Pressure, kPa	Molar enthalpy, kJ/mol	uncertainty
1092.7	101.325	84.297	4.908

System: Uranium Palladium; phases: Crystal
Property: Molar enthalpy, kJ/mol (Crystal); method: Drop calorimetry
Temperature, K	Pressure, kPa	Molar enthalpy, kJ/mol	uncertainty
480.6	101.325	18.945	0.51

System: Uranium Palladium; phases: Crystal
Fixed: Pressure, kPa = 101.325
Property: Molar enthalpy, kJ/mol (Crystal); method: Drop calorimetry
Temperature, K	Molar enthalpy, kJ/mol	uncertainty
584.6	28.695	3.375
687.9	39.226	3.335

System: Thorium Palladium; phases: Crystal
Fixed: Pressure, kPa = 101.325
Property: Molar enthalpy, kJ/mol (Crystal); method: Drop calorimetry
Temperature, K	Molar enthalpy, kJ/mol	uncertainty
480.6	16.848	4.761
532.7	19.743	5.505
584.6	27.205	3.075
636.3	32.736	1.414
687.9	35.726	2.732
739.2	43.524	2.808
790.2	50.646	5.717
841.1	53.263	4.578
891.8	60.687	3.305
942.3	65.683	3.598
992.6	69.495	1.682

System: Thorium Palladium; phases: Crystal
Fixed: Pressure, kPa = 101.325
Property: Molar enthalpy, kJ/mol (Crystal); method: Drop calorimetry
Temperature, K	Molar enthalpy, kJ/mol	uncertainty
1042.9	74.679	1.735
1092.8	82.743	7.916
1142.4	90.984	5.847
1191.9	96.762	6.93
1241.3	101.079	2.378
