Measured thermophysical data. The heat capacity of NdPO4
Source: J. Chem. Thermodyn., 2006, 10.1016/j.jct.2006.02.006
Compound 1: neodymium(III) orthophosphate, NdO4P, InChI=1S/Nd.H3O4P/c;1-5(2,3)4/h;(H3,1,2,3,4)/q+3;/p-3

System: neodymium(III) orthophosphate; phases: Crystal
Fixed: Pressure, kPa = 101.325
Property: Molar heat capacity at constant pressure, J/K/mol (Crystal); method: PPMS instrument (hybrid adiabatic relaxation)
Temperature, K	Molar heat capacity at constant pressure, J/K/mol	uncertainty
0.864	0.04067	0.00252
0.932	0.03541	0.0022
1.004	0.03119	0.00225
1.077	0.0271	0.0017
1.152	0.024	0.002
1.227	0.02158	0.00138
1.303	0.01906	0.00123
1.38	0.01715	0.00112
1.458	0.01539	0.00102
1.534	0.01397	0.00094
1.612	0.0128	0.0009
1.692	0.01177	0.00081
1.76	0.01064	0.00075
1.839	0.009789	0.000699
1.926	0.008967	0.000611
1.928	0.0889	0.0053
2.007	0.00898	0.00059
2.086	0.007691	0.000509
2.152	0.007275	0.000476
2.23	0.006828	0.000441
2.306	0.006428	0.000412
2.385	0.006044	0.000384
2.424	0.0586	0.0035
2.463	0.005699	0.00036
2.541	0.005389	0.000339
2.62	0.005113	0.00032
2.7	0.004861	0.000302
2.775	0.004634	0.000287
2.854	0.004422	0.000272
2.92	0.04237	0.00254
2.933	0.00421	0.00034
3.013	0.004035	0.000247
3.091	0.003893	0.000238
3.169	0.003763	0.00023
3.248	0.003631	0.000221
3.327	0.003526	0.000214
3.406	0.003421	0.000207
3.416	0.03565	0.00214
3.486	0.00333	0.00032
3.564	0.003259	0.000197
3.644	0.003192	0.000193
3.718	0.003135	0.000189
3.822	0.003077	0.000185
3.913	0.03082	0.00185
3.917	0.003075	0.000185
3.998	0.003049	0.000183
4.075	0.003014	0.000181
4.156	0.00299	0.00018
4.237	0.002969	0.000178
4.317	0.00295	0.00018
4.397	0.002943	0.000177
4.415	0.02874	0.00172
4.477	0.002931	0.000363
4.557	0.00294	0.00018
4.637	0.002952	0.000177
4.718	0.002975	0.000179
4.798	0.002994	0.00018
4.877	0.003034	0.000182
4.915	0.02941	0.00176
4.957	0.00307	0.00041
5.037	0.003108	0.000422
5.118	0.003163	0.00019
5.198	0.003217	0.000193
5.277	0.003256	0.000196
5.356	0.003314	0.000321
5.412	0.03251	0.00195
5.437	0.003385	0.000492
5.514	0.003459	0.000506
5.563	0.003511	0.000212
5.818	0.003796	0.000229
5.916	0.03845	0.00231
6.07	0.004122	0.000249
6.325	0.004551	0.000275
6.415	0.04623	0.00277
6.58	0.005027	0.000304
6.829	0.005547	0.000451
6.912	0.05629	0.00339
7.087	0.006165	0.000374
7.339	0.00684	0.00055
7.42	0.0691	0.0042
7.593	0.007604	0.000461
7.844	0.008481	0.000669
7.92	0.0857	0.0052
8.098	0.009437	0.000573
8.352	0.01053	0.00083
8.419	0.0106	0.0008
8.605	0.01176	0.00071
8.859	0.01318	0.00103
8.921	0.01319	0.00104
9.115	0.01474	0.00089
9.367	0.0164	0.001
9.423	0.0163	0.001
9.621	0.01825	0.00111
9.872	0.02032	0.00123
9.922	0.0202	0.0012
10.13	0.02259	0.00137
10.38	0.0251	0.0015
10.42	0.02486	0.00151
10.62	0.02768	0.00168
10.92	0.03053	0.00185
11.13	0.0339	0.0021
11.42	0.0371	0.0022
11.62	0.04089	0.00247
11.92	0.0448	0.0027
12.1	0.0491	0.003
12.42	0.05351	0.00323
12.59	0.05825	0.00352
12.92	0.0634	0.0038
13.08	0.06902	0.00417
13.42	0.0747	0.0045
13.57	0.08065	0.00487
13.92	0.0871	0.0053
14.06	0.09356	0.00564
14.42	0.101	0.006
14.55	0.1076	0.0065
14.92	0.116	0.007
15.42	0.132	0.008
15.92	0.149	0.009
16.42	0.168	0.01
16.91	0.188	0.011
17.42	0.209	0.013
17.91	0.231	0.014
18.43	0.255	0.015
18.91	0.278	0.017
19.43	0.304	0.018
19.91	0.329	0.02
20.42	0.356	0.021
20.91	0.383	0.023
21.42	0.411	0.025
21.91	0.439	0.026
22.42	0.47	0.03
22.91	0.498	0.03
23.42	0.529	0.032
23.9	0.559	0.034
24.42	0.592	0.036
24.9	0.622	0.037
25.42	0.656	0.039
25.9	0.687	0.041
26.41	0.723	0.043
26.9	0.755	0.045
27.41	0.788	0.047
27.9	0.823	0.049
28.39	0.859	0.052
28.89	0.894	0.054
29.39	0.928	0.056
29.89	0.959	0.058
30.39	0.993	0.06
30.89	1.032	0.062
31.39	1.064	0.064
31.89	1.099	0.066
32.39	1.137	0.068
32.89	1.173	0.07
33.39	1.205	0.072
33.89	1.241	0.074
34.38	1.277	0.077
34.88	1.313	0.079
35.39	1.349	0.081
35.89	1.384	0.083
36.39	1.415	0.085
36.89	1.452	0.087
37.39	1.491	0.089
37.89	1.526	0.092
38.39	1.561	0.094
38.89	1.598	0.096
39.38	1.633	0.098
39.88	1.667	0.1
40.38	1.704	0.102
40.88	1.741	0.104
41.38	1.778	0.107
41.88	1.815	0.109
42.38	1.852	0.111
42.88	1.888	0.113
43.38	1.926	0.116
43.88	1.963	0.118
44.38	2.001	0.12
44.88	2.037	0.122
45.38	2.074	0.124
45.88	2.113	0.127
46.38	2.15	0.13
46.88	2.188	0.131
47.38	2.224	0.133
47.87	2.262	0.136
48.37	2.3	0.1
48.87	2.337	0.14
49.37	2.375	0.143
49.87	2.413	0.145
50.37	2.45	0.15
50.87	2.487	0.149
51.35	2.524	0.151
51.57	2.54	0.15
52.61	2.616	0.157
53.65	2.694	0.162
54.69	2.77	0.17
55.73	2.848	0.171
56.77	2.926	0.176
57.81	3.004	0.18
58.85	3.082	0.185
59.89	3.16	0.19
60.93	3.237	0.194
61.97	3.315	0.199
63.01	3.391	0.203
64.04	3.469	0.208
65.08	3.546	0.213
66.12	3.624	0.217
67.16	3.701	0.222
68.2	3.778	0.227
69.23	3.853	0.231
70.27	3.93	0.24
71.31	4.005	0.24
72.34	4.076	0.245
73.38	4.15	0.25
74.42	4.226	0.254
75.46	4.294	0.258
76.5	4.369	0.262
77.54	4.443	0.267
78.58	4.514	0.271
79.62	4.585	0.275
80.65	4.657	0.279
81.69	4.726	0.284
82.73	4.791	0.287
83.76	4.862	0.292
84.8	4.93	0.3
85.84	4.998	0.3
86.88	5.065	0.304
87.92	5.134	0.308
88.95	5.205	0.312
89.99	5.274	0.316
91.04	5.343	0.321
92.07	5.408	0.324
93.1	5.475	0.329
94.14	5.541	0.332
95.18	5.606	0.336
96.22	5.676	0.341
97.25	5.742	0.345
98.29	5.806	0.348
99.39	5.872	0.352
100.5	5.939	0.356
101.61	6.009	0.361
102.72	6.075	0.365
103.84	6.139	0.368
104.95	6.206	0.372
106.08	6.27	0.38
107.09	6.33	0.38
112.24	6.614	0.397
117.4	6.886	0.413
122.56	7.147	0.429
127.71	7.405	0.444
132.86	7.647	0.459
138.01	7.88	0.47
143.16	8.106	0.486
148.31	8.32	0.5
153.45	8.52	0.51
158.6	8.724	0.523
163.75	8.919	0.535
168.9	9.09	0.55
174.05	9.264	0.556
179.2	9.445	0.567
184.34	9.601	0.576
189.49	9.763	0.586
194.64	9.937	0.596
199.77	10.11	0.61
204.91	10.253	0.615
210.05	10.396	0.624
215.2	10.562	0.634
220.35	10.725	0.644
225.49	10.905	0.654
230.63	11.051	0.663
235.78	11.187	0.671
240.94	11.326	0.68
246.09	11.439	0.686
251.23	11.528	0.692
256.37	11.6	0.7
261.51	11.693	0.702
266.64	11.819	0.709
271.78	11.929	0.716
276.91	12.047	0.723
282.03	12.188	0.731
287.17	12.338	0.74
292.3	12.519	0.751
297.42	12.631	0.758
302.55	12.679	0.761

System: neodymium(III) orthophosphate; phases: Crystal
Property: Molar enthalpy, kJ/mol (Crystal); method: Drop calorimetry
Temperature, K	Pressure, kPa	Molar enthalpy, kJ/mol	uncertainty
586.1	101.325	36.585	2.201

System: neodymium(III) orthophosphate; phases: Crystal
Property: Molar enthalpy, kJ/mol (Crystal); method: Drop calorimetry
Temperature, K	Pressure, kPa	Molar enthalpy, kJ/mol	uncertainty
687.2	101.325	50.339	4.724

System: neodymium(III) orthophosphate; phases: Crystal
Property: Molar enthalpy, kJ/mol (Crystal); method: Drop calorimetry
Temperature, K	Pressure, kPa	Molar enthalpy, kJ/mol	uncertainty
789.5	101.325	65.856	4.643

System: neodymium(III) orthophosphate; phases: Crystal
Property: Molar enthalpy, kJ/mol (Crystal); method: Drop calorimetry
Temperature, K	Pressure, kPa	Molar enthalpy, kJ/mol	uncertainty
888.2	101.325	80.66	7.833

System: neodymium(III) orthophosphate; phases: Crystal
Property: Molar enthalpy, kJ/mol (Crystal); method: Drop calorimetry
Temperature, K	Pressure, kPa	Molar enthalpy, kJ/mol	uncertainty
989.8	101.325	92.905	3.716

System: neodymium(III) orthophosphate; phases: Crystal
Property: Molar enthalpy, kJ/mol (Crystal); method: Drop calorimetry
Temperature, K	Pressure, kPa	Molar enthalpy, kJ/mol	uncertainty
1088.1	101.325	112.777	7.303

System: neodymium(III) orthophosphate; phases: Crystal
Property: Molar enthalpy, kJ/mol (Crystal); method: Drop calorimetry
Temperature, K	Pressure, kPa	Molar enthalpy, kJ/mol	uncertainty
1188	101.325	127.936	8.062

System: neodymium(III) orthophosphate; phases: Crystal
Property: Molar enthalpy, kJ/mol (Crystal); method: Drop calorimetry
Temperature, K	Pressure, kPa	Molar enthalpy, kJ/mol	uncertainty
1288.1	101.325	140.898	14.605

System: neodymium(III) orthophosphate; phases: Crystal
Property: Molar enthalpy, kJ/mol (Crystal); method: Drop calorimetry
Temperature, K	Pressure, kPa	Molar enthalpy, kJ/mol	uncertainty
1388.4	101.325	158.481	7.514

System: neodymium(III) orthophosphate; phases: Crystal
Property: Molar enthalpy, kJ/mol (Crystal); method: Drop calorimetry
Temperature, K	Pressure, kPa	Molar enthalpy, kJ/mol	uncertainty
1489.2	101.325	170.975	6.439

System: neodymium(III) orthophosphate; phases: Crystal
Property: Molar enthalpy, kJ/mol (Crystal); method: Drop calorimetry
Temperature, K	Pressure, kPa	Molar enthalpy, kJ/mol	uncertainty
1570.1	101.325	184.287	8.316

System: neodymium(III) orthophosphate; phases: Crystal
Property: Molar enthalpy, kJ/mol (Crystal); method: Drop calorimetry
Temperature, K	Pressure, kPa	Molar enthalpy, kJ/mol	uncertainty
482.7	101.325	22.54	2.74
