Measured thermophysical data. Calorimetric analysis of NaF and NaLaF4
Source: J. Chem. Thermodyn., 2006, 10.1016/j.jct.2006.03.002
Compound 1: sodium fluoride, FNa, InChI=1S/FH.Na/h1H;/q;+1/p-1
Compound 2: sodium tetrafluorolanthanate, F4LaNa, InChI=1S/4FH.La.Na/h4*1H;;/q;;;;+3;+1/p-4

System: sodium fluoride; phases: Crystal
Fixed: Pressure, kPa = 101.325
Property: Molar heat capacity at constant pressure, J/K/mol (Crystal); method: Small sample (50 mg) DSC
Temperature, K	Molar heat capacity at constant pressure, J/K/mol	uncertainty
630.6	58.08	1.42
645.6	58.11	1.42
675.7	59.55	1.46
690.6	59.36	1.45
720.6	58.15	1.42
735.5	59.11	1.45
750.6	58.85	1.44
765.6	59.28	1.45
795.6	58.36	1.43
825.5	58.26	1.43
840.4	58.49	1.43
855.6	59.14	1.45
870.6	58.37	1.43
885.5	59.37	1.45
900.5	59.7	1.46
915.5	60.11	1.47
945.5	59.64	1.46
960.6	60.43	1.48
975.4	59.89	1.47
990.5	61.01	1.49
907.5	59.76	1.46
922.3	60.21	1.47
937.4	60.58	1.48
952.5	59.98	1.47
967.5	60.92	1.49
982.6	60.11	1.47
997.5	60.91	1.49
1012.6	61.02	1.49
1027.6	60.56	1.48
1042.6	61.86	1.52
1057.7	61.63	1.51
1072.7	62.08	1.52
1087.8	62.41	1.53
1102.9	62.25	1.52

System: sodium tetrafluorolanthanate; phases: Crystal
Fixed: Pressure, kPa = 101.325
Property: Molar heat capacity at constant pressure, J/K/mol (Crystal); method: VADIAC:UFactor:4
Temperature, K	Molar heat capacity at constant pressure, J/K/mol	uncertainty
5	0.31	0.04
6.42	0.83	0.05
6.44	0.11	0.03
8.52	0.36	0.04
8.63	0.44	0.04
10.43	0.63	0.05
10.73	0.54	0.04
11.58	0.67	0.05
12.06	0.85	0.05
12.67	0.87	0.05
13.14	0.95	0.05
13.72	0.94	0.05
14.27	1.28	0.06
14.81	1.48	0.06
15.45	1.81	0.07
15.92	1.74	0.07
16.67	1.9	0.07
17.13	2.14	0.07
17.92	2.36	0.08
18.39	2.71	0.08
19.17	2.88	0.08
19.66	3.22	0.09
20.38	3.4	0.09
20.95	3.76	0.09
21.59	4.17	0.1
22.28	4.45	0.1
22.86	4.77	0.11
23.61	5.23	0.11
24.16	5.55	0.11
24.95	6.14	0.12
25.49	6.58	0.12
26.84	7.25	0.12
28.19	7.48	0.12
28.23	7.62	0.12
29.66	8.41	0.12
29.84	8.56	0.12
31.4	10.05	0.19
32.95	11.54	0.2
34.53	12.99	0.21
51.56	27.55	0.3
53.34	29.38	0.31
55.13	31.25	0.32
56.93	32.91	0.33
58.75	34.7	0.34
77.4	52.31	0.45
79.3	54.21	0.46
81.2	55.95	0.47
83.11	57.83	0.48
85.03	59.6	0.49
93.73	66.87	0.83
95.64	68.81	0.83
97.56	70.37	0.84
99.48	71.8	0.84
101.41	73.33	0.85
103.34	74.87	0.85
105.28	76.29	0.86
107.22	77.82	0.86
109.16	79.27	0.87
111.11	80.67	0.87
113.06	81.87	0.87
115.01	83.19	0.88
116.96	84.63	0.88
118.92	85.72	0.89
120.88	86.98	0.89
122.84	88.13	0.89
124.81	89.42	0.9
126.77	90.74	0.9
128.74	91.87	0.9
130.71	92.93	0.91
132.68	94.07	0.91
134.65	95.17	0.91
136.63	96.16	0.92
138.6	97.17	0.92
140.57	98.34	0.92
142.55	99.41	0.93
144.53	100.4	0.93
146.51	101.3	0.93
148.49	102.2	0.94
150.47	103.2	0.94
152.45	104.1	0.94
154.43	105	0.95
156.41	105.9	0.95
158.4	106.7	0.95
160.38	107.5	0.95
162.37	108.3	0.96
164.35	109.3	0.96
166.34	109.8	0.96
168.32	110.7	0.96
170.31	111.7	0.97
172.3	112.3	0.97
174.28	113.1	0.97
176.27	113.8	0.97
178.26	114.5	0.97
180.25	115.1	0.98
182.24	115.9	0.98
184.23	116.4	0.98
186.22	117.2	0.98
188.21	117.8	0.98
190.2	118.3	0.99
192.19	119	0.99
194.18	119.5	0.99
196.17	120.3	0.99
198.16	120.8	0.99
200.16	121.2	1
202.15	122.1	1
204.14	122.3	1
206.14	123	1
208.13	123.4	1
210.12	123.8	1
212.12	124.4	1.01
214.11	124.8	1.01
298.39	139.3	1.05
300.4	139.7	1.05
302.41	139.9	1.05
304.41	140.1	1.05
306.41	140.5	1.06
308.4	140.8	1.06
310.4	141	1.06
312.39	141.3	1.06
314.38	141.7	1.06
316.37	141.9	1.06
318.35	141.8	1.06
320.34	142	1.06
322.32	142.4	1.06
324.3	142.6	1.06
326.28	142.8	1.06
328.26	143.2	1.06
330.23	143.4	1.06
332.21	143.3	1.06
334.18	143.5	1.06
336.15	143.4	1.06
338.12	143.7	1.06
340.09	143.8	1.07
342.06	144	1.07
344.03	144.1	1.07
346	144.2	1.07
347.97	144.4	1.07
349.94	144.4	1.07
351.91	144.6	1.07
353.88	145.1	1.07
355.86	144.7	1.07
357.83	145	1.07
359.8	145.3	1.07
361.77	145.7	1.07
363.74	145.9	1.07
365.72	146.1	1.07
367.7	146.3	1.07
369.68	145.7	1.07
371.67	146.1	1.07
373.65	146.5	1.07
375.64	146.4	1.07
377.63	146.2	1.07
379.63	145.9	1.07
381.63	146.3	1.07
383.64	146.3	1.07
385.65	146.2	1.07
387.67	146.5	1.07
389.69	146.4	1.07
391.71	146.8	1.07
393.74	146.8	1.07

System: sodium tetrafluorolanthanate; phases: Crystal
Fixed: Pressure, kPa = 101.325
Property: Molar heat capacity at constant pressure, J/K/mol (Crystal); method: SMALLAD:UFactor:16
Temperature, K	Molar heat capacity at constant pressure, J/K/mol	uncertainty
630.5	169.4	10.9
645.7	178.6	11.3
660.5	169.7	10.9
675.7	173.4	11.1
690.6	167	10.8
705.5	169.1	10.9
720.5	172.6	11
735.6	170.7	10.9
750.4	169.2	10.9
765.5	173.7	11.1
780.6	180.1	11.4
795.6	177.3	11.3
810.5	178.3	11.3
825.5	182.4	11.5
840.5	182.8	11.5
855.5	180.6	11.4
870.5	192.4	12
885.5	181.7	11.5
900.4	184.1	11.6
915.4	185.9	11.7
930.5	190.6	11.9
945.5	190.1	11.9
960.5	190.9	11.9
975.5	189.3	11.9
990.5	198.8	12.3
1005.5	197.2	12.3
1020.4	211.5	13

System: sodium tetrafluorolanthanate; phases: Crystal
Fixed: Pressure, kPa = 101.325
Property: Molar heat capacity at constant pressure, J/K/mol (Crystal); method: VADIAC:UFactor:2
Temperature, K	Molar heat capacity at constant pressure, J/K/mol	uncertainty
10	0.655	0.03
15	1.58	0.04
20	3.29	0.06
25	6.18	0.08
30	8.72	0.12
35	13.4	0.1
40	16.7	0.2
45	21.3	0.2
50	26.1	0.2
55	31.1	0.2
60	35.9	0.2
65	40.5	0.2
70	45.3	0.3
75	50.1	0.3
80	54.9	0.3
85	59.6	0.3
90	64	0.5
95	68.3	0.5
100	72.3	0.5
105	76	0.6
110	79.7	0.6
120	86.4	0.6
130	92.5	0.6
140	97.9	0.6
150	102.9	0.6
160	107.3	0.6
170	111.5	0.6
180	115	0.6
190	118.3	0.6
200	121.3	0.6
210	123.8	0.6
220	126.1	0.7
230	128.5	0.7
240	130.8	0.7
250	132.9	0.7
260	133.4	0.7
270	135.3	0.7
280	136.9	0.7
290	138.6	0.7
298.15	139.1	0.7
300	139.7	0.7
310	140.2	0.7
320	141	0.7
330	141.9	0.7
340	142.7	0.7
350	143.2	0.7
360	143.8	0.7
370	144.3	0.7
380	144.6	0.7
390	145.1	0.7
400	146.8	0.7

System: sodium tetrafluorolanthanate; phases: Crystal
Fixed: Pressure, kPa = 101.325
Property: Molar entropy, J/K/mol (Crystal); method: VADIAC:UFactor:4
Temperature, K	Molar entropy, J/K/mol	uncertainty
10	0.141	0.067
15	0.479	0.079
20	1.14	0.1
25	2.16	0.12
30	3.5	0.28
35	5.2	0.3
40	7.19	0.33
45	9.41	0.35
50	11.9	0.4
55	14.6	0.4
60	17.5	0.5
65	20.6	0.5
70	23.8	0.5
75	27.1	0.6
80	30.4	0.6
85	33.9	0.6
90	37.4	1.4
95	41	1.4
100	44.6	1.5
105	48.2	1.5
110	51.9	1.5
120	59.1	1.6
130	66.3	1.6
140	73.3	1.6
150	80.3	1.7
160	87	1.7
170	93.6	1.8
180	100.1	1.8
190	106.4	1.8
200	112.5	1.9
210	118.5	1.9
220	124.3	1.9
230	130	2
240	135.5	2
250	140.9	2
260	146.1	2.1
270	151.2	2.1
280	156.1	2.1
290	160.9	2.2
298.15	164.8	2.2
300	165.7	2.2
310	170.2	2.2
320	174.7	2.2
330	179	2.3
340	183.3	2.3
350	187.4	2.3
360	191.5	2.3
370	195.4	2.4
380	199.3	2.4
390	203	2.4
400	206.8	2.4
