Measured thermophysical data. Relation between characteristic molecular volume and hydrophobicity of nonpolar molecules
Source: J. Chem. Thermodyn., 2010, 10.1016/j.jct.2010.04.011
Compound 1: dimethyl sulfoxide, C2H6OS, InChI=1S/C2H6OS/c1-4(2)3/h1-2H3
Compound 2: hexadecane, C16H34, InChI=1S/C16H34/c1-3-5-7-9-11-13-15-16-14-12-10-8-6-4-2/h3-16H2,1-2H3
Compound 3: 1,5-hexadiene, C6H10, InChI=1S/C6H10/c1-3-5-6-4-2/h3-4H,1-2,5-6H2
Compound 4: 1-heptyne, C7H12, InChI=1S/C7H12/c1-3-5-7-6-4-2/h1H,4-7H2,2H3
Compound 5: 1-hexyne, C6H10, InChI=1S/C6H10/c1-3-5-6-4-2/h1H,4-6H2,2H3
Compound 6: 1-octyne, C8H14, InChI=1S/C8H14/c1-3-5-7-8-6-4-2/h1H,4-8H2,2H3
Compound 7: 1-(1-methylethyl)-4-methylbenzene, C10H14, InChI=1S/C10H14/c1-8(2)10-6-4-9(3)5-7-10/h4-8H,1-3H3
Compound 8: 4-ethenylcyclohexene, C8H12, InChI=1S/C8H12/c1-2-8-6-4-3-5-7-8/h2-4,8H,1,5-7H2
Compound 9: bromotrichloromethane, CBrCl3, InChI=1S/CBrCl3/c2-1(3,4)5
Compound 10: 1,3,5-cycloheptatriene, C7H8, InChI=1S/C7H8/c1-2-4-6-7-5-3-1/h1-6H,7H2
Compound 11: cyclohexene, C6H10, InChI=1S/C6H10/c1-2-4-6-5-3-1/h1-2H,3-6H2
Compound 12: cyclooctane, C8H16, InChI=1S/C8H16/c1-2-4-6-8-7-5-3-1/h1-8H2
Compound 13: cyclopentene, C5H8, InChI=1S/C5H8/c1-2-4-5-3-1/h1-2H,3-5H2
Compound 14: methylcyclohexane, C7H14, InChI=1S/C7H14/c1-7-5-3-2-4-6-7/h7H,2-6H2,1H3
Compound 15: methylcyclopentane, C6H12, InChI=1S/C6H12/c1-6-4-2-3-5-6/h6H,2-5H2,1H3
Compound 16: tetrachloroethene, C2Cl4, InChI=1S/C2Cl4/c3-1(4)2(5)6

System: dimethyl sulfoxide + 1,5-hexadiene; phases: Liquid
Property: Activity coefficient of 1,5-hexadiene (Liquid); method: Chromatography
Temperature, K	Pressure, kPa	Mole fraction of 1,5-hexadiene	Activity coefficient of 1,5-hexadiene	uncertainty
298	101	0	11.6	2.4

System: hexadecane + 1,5-hexadiene; phases: Liquid
Property: Activity coefficient of 1,5-hexadiene (Liquid); method: Chromatography
Temperature, K	Pressure, kPa	Mole fraction of 1,5-hexadiene	Activity coefficient of 1,5-hexadiene	uncertainty
298	101	0	0.8	0.16

System: dimethyl sulfoxide + 1-heptyne; phases: Liquid
Property: Activity coefficient of 1-heptyne (Liquid); method: Chromatography
Temperature, K	Pressure, kPa	Mole fraction of 1-heptyne	Activity coefficient of 1-heptyne	uncertainty
298	101	0	6.9	1.4

System: dimethyl sulfoxide + 1-hexyne; phases: Liquid
Property: Activity coefficient of 1-hexyne (Liquid); method: Chromatography
Temperature, K	Pressure, kPa	Mole fraction of 1-hexyne	Activity coefficient of 1-hexyne	uncertainty
298	101	0	4.1	0.8

System: dimethyl sulfoxide + 1-octyne; phases: Liquid
Property: Activity coefficient of 1-octyne (Liquid); method: Chromatography
Temperature, K	Pressure, kPa	Mole fraction of 1-octyne	Activity coefficient of 1-octyne	uncertainty
298	101	0	10.2	2.1

System: dimethyl sulfoxide + 1-(1-methylethyl)-4-methylbenzene; phases: Liquid
Property: Activity coefficient of 1-(1-methylethyl)-4-methylbenzene (Liquid); method: Chromatography
Temperature, K	Pressure, kPa	Mole fraction of 1-(1-methylethyl)-4-methylbenzene	Activity coefficient of 1-(1-methylethyl)-4-methylbenzene	uncertainty
298	101	0	15.1	3.1

System: dimethyl sulfoxide + 4-ethenylcyclohexene; phases: Liquid
Property: Activity coefficient of 4-ethenylcyclohexene (Liquid); method: Chromatography
Temperature, K	Pressure, kPa	Mole fraction of 4-ethenylcyclohexene	Activity coefficient of 4-ethenylcyclohexene	uncertainty
298	101	0	20.7	4.2

System: 4-ethenylcyclohexene + hexadecane; phases: Gas, Liquid
Property: Activity coefficient of 4-ethenylcyclohexene (Gas); method: Chromatography
Temperature, K	Mole fraction of 4-ethenylcyclohexene	Activity coefficient of 4-ethenylcyclohexene	uncertainty
298	0	0.96	0.19

System: dimethyl sulfoxide + bromotrichloromethane; phases: Liquid
Property: Activity coefficient of bromotrichloromethane (Liquid); method: Chromatography
Temperature, K	Pressure, kPa	Mole fraction of bromotrichloromethane	Activity coefficient of bromotrichloromethane	uncertainty
298	101	0	2.1	0.4

System: dimethyl sulfoxide + 1,3,5-cycloheptatriene; phases: Liquid
Property: Activity coefficient of 1,3,5-cycloheptatriene (Liquid); method: Chromatography
Temperature, K	Pressure, kPa	Mole fraction of 1,3,5-cycloheptatriene	Activity coefficient of 1,3,5-cycloheptatriene	uncertainty
298	101	0	5.7	1.2

System: dimethyl sulfoxide + cyclohexene; phases: Liquid
Property: Activity coefficient of cyclohexene (Liquid); method: Chromatography
Temperature, K	Pressure, kPa	Mole fraction of cyclohexene	Activity coefficient of cyclohexene	uncertainty
298	101	0	14.9	3

System: dimethyl sulfoxide + cyclooctane; phases: Liquid
Property: Activity coefficient of cyclooctane (Liquid); method: Chromatography
Temperature, K	Pressure, kPa	Mole fraction of cyclooctane	Activity coefficient of cyclooctane	uncertainty
298	101	0	63.3	12.8

System: cyclooctane + hexadecane; phases: Gas, Liquid
Property: Activity coefficient of cyclooctane (Gas); method: Chromatography
Temperature, K	Mole fraction of cyclooctane	Activity coefficient of cyclooctane	uncertainty
298	0	0.96	0.19

System: dimethyl sulfoxide + cyclopentene; phases: Liquid
Property: Activity coefficient of cyclopentene (Liquid); method: Chromatography
Temperature, K	Pressure, kPa	Mole fraction of cyclopentene	Activity coefficient of cyclopentene	uncertainty
298	101	0	7	1.4

System: dimethyl sulfoxide + methylcyclohexane; phases: Liquid
Property: Activity coefficient of methylcyclohexane (Liquid); method: Chromatography
Temperature, K	Pressure, kPa	Mole fraction of methylcyclohexane	Activity coefficient of methylcyclohexane	uncertainty
298	101	0	49.2	10

System: dimethyl sulfoxide + methylcyclopentane; phases: Liquid
Property: Activity coefficient of methylcyclopentane (Liquid); method: Chromatography
Temperature, K	Pressure, kPa	Mole fraction of methylcyclopentane	Activity coefficient of methylcyclopentane	uncertainty
298	101	0	29.5	6

System: dimethyl sulfoxide + tetrachloroethene; phases: Liquid
Property: Activity coefficient of tetrachloroethene (Liquid); method: Chromatography
Temperature, K	Pressure, kPa	Mole fraction of tetrachloroethene	Activity coefficient of tetrachloroethene	uncertainty
298	101	0	10.5	2.1
