Measured thermophysical data. Ultrasonic studies on binary mixtures of some aromatic ketones with acetonitrile at T = 308.15 K
Source: J. Chem. Thermodyn., 2006, 10.1016/j.jct.2006.01.009
Compound 1: acetophenone, C8H8O, InChI=1S/C8H8O/c1-7(9)8-5-3-2-4-6-8/h2-6H,1H3
Compound 2: ethyl phenyl ketone, C9H10O, InChI=1S/C9H10O/c1-2-9(10)8-6-4-3-5-7-8/h3-7H,2H2,1H3
Compound 3: 4'-methylacetophenone, C9H10O, InChI=1S/C9H10O/c1-7-3-5-9(6-4-7)8(2)10/h3-6H,1-2H3
Compound 4: 4'-chloroacetophenone, C8H7ClO, InChI=1S/C8H7ClO/c1-6(10)7-2-4-8(9)5-3-7/h2-5H,1H3
Compound 5: acetonitrile, C2H3N, InChI=1S/C2H3N/c1-2-3/h1H3, purity 99.5%

System: acetophenone; phases: Liquid
Property: Speed of sound, m/s (Liquid); method: Linear variable-path acoustic interferometer
Temperature, K	Pressure, kPa	Speed of sound, m/s	uncertainty
308.15	101	1445	8.8

System: acetophenone; phases: Liquid
Property: Mass density, kg/m3 (Liquid); method: PYCNOM::UFactor:8
Temperature, K	Pressure, kPa	Mass density, kg/m3	uncertainty
308.15	101	1020	2.5

System: ethyl phenyl ketone; phases: Liquid
Property: Speed of sound, m/s (Liquid); method: Linear variable-path acoustic interferometer
Temperature, K	Pressure, kPa	Speed of sound, m/s	uncertainty
308.15	101	1432	8.8

System: ethyl phenyl ketone; phases: Liquid
Property: Mass density, kg/m3 (Liquid); method: PYCNOM::UFactor:8
Temperature, K	Pressure, kPa	Mass density, kg/m3	uncertainty
308.15	101	1000.6	2.5

System: 4'-methylacetophenone; phases: Liquid
Property: Speed of sound, m/s (Liquid); method: Linear variable-path acoustic interferometer
Temperature, K	Pressure, kPa	Speed of sound, m/s	uncertainty
308.15	101	1438	8.8

System: 4'-methylacetophenone; phases: Liquid
Property: Mass density, kg/m3 (Liquid); method: PYCNOM::UFactor:8
Temperature, K	Pressure, kPa	Mass density, kg/m3	uncertainty
308.15	101	996.3	2.5

System: 4'-chloroacetophenone; phases: Liquid
Property: Speed of sound, m/s (Liquid); method: Linear variable-path acoustic interferometer
Temperature, K	Pressure, kPa	Speed of sound, m/s	uncertainty
308.15	101	1390	8.5

System: 4'-chloroacetophenone; phases: Liquid
Property: Mass density, kg/m3 (Liquid); method: PYCNOM::UFactor:32
Temperature, K	Pressure, kPa	Mass density, kg/m3	uncertainty
308.15	101	1181.3	10.7

System: acetonitrile; phases: Liquid
Property: Speed of sound, m/s (Liquid); method: Linear variable-path acoustic interferometer
Temperature, K	Pressure, kPa	Speed of sound, m/s	uncertainty
308.15	101	1239	7.6

System: acetonitrile; phases: Liquid
Property: Mass density, kg/m3 (Liquid); method: PYCNOM:UFactor:8
Temperature, K	Pressure, kPa	Mass density, kg/m3	uncertainty
308.15	101	770.6	1.7

System: acetonitrile + acetophenone; phases: Liquid
Fixed: Temperature, K = 308.15
Fixed: Pressure, kPa = 101
Property: Speed of sound, m/s (Liquid); method: Linear variable-path acoustic interferometer
Mole fraction of acetophenone	Speed of sound, m/s	uncertainty
0	1239	7.6
0.048	1254	7.7
0.1023	1268	7.7
0.1626	1284	7.8
0.2321	1303	8
0.3113	1327	8.1
0.4024	1351	8.3
0.5125	1374	8.4
0.6426	1395	8.5
0.8018	1417	8.7
1	1445	8.8

System: acetonitrile + acetophenone; phases: Liquid
Fixed: Temperature, K = 308.15
Fixed: Pressure, kPa = 101
Property: Mass density, kg/m3 (Liquid); method: PYCNOM:UFactor:8
Mole fraction of acetophenone	Mass density, kg/m3	uncertainty
0	770.6	1.7
0.048	796.8	1.8
0.1023	823.3	1.9
0.1626	849.3	2
0.2321	874.7	2
0.3113	900	2.1
0.4024	924.7	2.2
0.5125	949.3	2.3
0.6426	972.2	2.3
0.8018	995.6	2.4
1	1020	2.5

System: acetonitrile + ethyl phenyl ketone; phases: Liquid
Fixed: Temperature, K = 308.15
Fixed: Pressure, kPa = 101
Property: Speed of sound, m/s (Liquid); method: Linear variable-path acoustic interferometer
Mole fraction of ethyl phenyl ketone	Speed of sound, m/s	uncertainty
0	1239	7.6
0.0418	1250	7.6
0.0922	1264	7.7
0.1459	1279	7.8
0.2084	1296	7.9
0.2864	1314	8
0.3757	1335	8.2
0.4796	1357	8.3
0.6093	1381	8.4
0.7791	1406	8.6
1	1432	8.8

System: acetonitrile + ethyl phenyl ketone; phases: Liquid
Fixed: Temperature, K = 308.15
Fixed: Pressure, kPa = 101
Property: Mass density, kg/m3 (Liquid); method: PYCNOM:UFactor:8
Mole fraction of ethyl phenyl ketone	Mass density, kg/m3	uncertainty
0	770.6	1.7
0.0418	793.4	1.8
0.0922	817.8	1.9
0.1459	841.2	1.9
0.2084	864.9	2
0.2864	889.8	2.1
0.3757	913.6	2.2
0.4796	936	2.2
0.6093	957.5	2.3
0.7791	978.6	2.4
1	1000.6	2.5

System: acetonitrile + 4'-methylacetophenone; phases: Liquid
Fixed: Temperature, K = 308.15
Fixed: Pressure, kPa = 101
Property: Speed of sound, m/s (Liquid); method: Linear variable-path acoustic interferometer
Mole fraction of 4'-methylacetophenone	Speed of sound, m/s	uncertainty
0	1239	7.6
0.0872	1272	7.8
0.1449	1288	7.9
0.2088	1305	8
0.2823	1323	8.1
0.3756	1344	8.2
0.4771	1365	8.3
0.6125	1389	8.5
0.7811	1413	8.6
1	1438	8.8

System: acetonitrile + 4'-methylacetophenone; phases: Liquid
Fixed: Temperature, K = 308.15
Fixed: Pressure, kPa = 101
Property: Mass density, kg/m3 (Liquid); method: PYCNOM:UFactor:8
Mole fraction of 4'-methylacetophenone	Mass density, kg/m3	uncertainty
0	770.6	1.7
0.0872	816	1.9
0.1449	841.6	1.9
0.2088	865.3	2
0.2823	888.1	2.1
0.3756	912.4	2.1
0.4771	934	2.2
0.6125	955.6	2.3
0.7811	976.1	2.4
1	996.3	2.5

System: acetonitrile + 4'-chloroacetophenone; phases: Liquid
Fixed: Temperature, K = 308.15
Fixed: Pressure, kPa = 101
Property: Speed of sound, m/s (Liquid); method: Linear variable-path acoustic interferometer
Mole fraction of 4'-chloroacetophenone	Speed of sound, m/s	uncertainty
0	1239	7.6
0.092	1256	7.7
0.1488	1266	7.7
0.2128	1278	7.8
0.2863	1292	7.9
0.3792	1310	8
0.4876	1330	8.1
0.6196	1350	8.3
0.7847	1372	8.4
1	1390	8.5

System: acetonitrile + 4'-chloroacetophenone; phases: Liquid
Fixed: Temperature, K = 308.15
Fixed: Pressure, kPa = 101
Property: Mass density, kg/m3 (Liquid); method: PYCNOM:UFactor:32
Mole fraction of 4'-chloroacetophenone	Mass density, kg/m3	uncertainty
0	770.6	6.4
0.092	857.2	7.2
0.1488	900.3	7.7
0.2128	941.5	8.1
0.2863	982.6	8.5
0.3792	1025.8	9
0.4876	1077.5	9.5
0.6196	1106.9	9.8
0.7847	1145	10.3
1	1181.3	10.7
