Measured thermophysical data. Densities and derived thermodynamic properties of the binary systems of 1,1-dimethylethyl methyl ether with allyl methacrylate, butyl methacrylate, methacrylic acid, and vinyl acetate at T = (298.15 and 308.15) K
Source: J. Chem. Thermodyn., 2005, 10.1016/j.jct.2004.11.012
Compound 1: 2-methoxy-2-methylpropane, C5H12O, InChI=1S/C5H12O/c1-5(2,3)6-4/h1-4H3, purity 99.97%
Compound 2: 2-propenyl 2-methylpropenoate, C7H10O2, InChI=1S/C7H10O2/c1-4-5-9-7(8)6(2)3/h4H,1-2,5H2,3H3, purity 99.8%
Compound 3: butyl 2-methyl-2-propenoate, C8H14O2, InChI=1S/C8H14O2/c1-4-5-6-10-8(9)7(2)3/h2,4-6H2,1,3H3, purity 99.5%
Compound 4: 2-methyl-2-propenoic acid, C4H6O2, InChI=1S/C4H6O2/c1-3(2)4(5)6/h1H2,2H3,(H,5,6), purity 99.9%
Compound 5: vinyl acetate, C4H6O2, InChI=1S/C4H6O2/c1-3-6-4(2)5/h3H,1H2,2H3, purity 99.9%

System: 2-methoxy-2-methylpropane; phases: Liquid
Fixed: Pressure, kPa = 101.325
Property: Mass density, kg/m3 (Liquid); method: VIBTUB:UFactor:2
Temperature, K	Mass density, kg/m3	uncertainty
298.15	735.356	0.273
308.15	724.85	0.282

System: 2-propenyl 2-methylpropenoate; phases: Liquid
Fixed: Pressure, kPa = 101.325
Property: Mass density, kg/m3 (Liquid); method: VIBTUB:UFactor:2
Temperature, K	Mass density, kg/m3	uncertainty
298.15	927.997	0.175
308.15	917.423	0.179

System: butyl 2-methyl-2-propenoate; phases: Liquid
Fixed: Pressure, kPa = 101.325
Property: Mass density, kg/m3 (Liquid); method: VIBTUB:UFactor:2
Temperature, K	Mass density, kg/m3	uncertainty
298.15	890.438	0.28
308.15	880.857	0.282

System: 2-methyl-2-propenoic acid; phases: Liquid
Fixed: Pressure, kPa = 101.325
Property: Mass density, kg/m3 (Liquid); method: VIBTUB:UFactor:2
Temperature, K	Mass density, kg/m3	uncertainty
298.15	1009.127	0.129
308.15	998.64	0.13

System: vinyl acetate; phases: Liquid
Fixed: Pressure, kPa = 101.325
Property: Mass density, kg/m3 (Liquid); method: VIBTUB:UFactor:2
Temperature, K	Mass density, kg/m3	uncertainty
298.15	925.775	0.156
308.15	913.134	0.163

System: butyl 2-methyl-2-propenoate + 2-methoxy-2-methylpropane; phases: Liquid
Fixed: Pressure, kPa = 101.3
Property: Excess molar volume, m3/mol (Liquid); method: Calculated with densities of this investigation
Temperature, K	Mole fraction of 2-methoxy-2-methylpropane	Excess molar volume, m3/mol	uncertainty
298.15	0	0	7.75e-09
298.15	0.0264	-4.496e-08	7.86e-09
298.15	0.0508	-7.605e-08	7.93e-09
298.15	0.1003	-1.5834e-07	8.12e-09
298.15	0.1506	-2.2517e-07	8.27e-09
298.15	0.2	-2.93e-07	8.43e-09
298.15	0.2499	-3.4991e-07	8.56e-09
298.15	0.3	-4.0467e-07	8.69e-09
298.15	0.35	-4.5368e-07	8.8e-09
298.15	0.4002	-4.8923e-07	8.88e-09
298.15	0.4504	-5.1626e-07	8.95e-09
298.15	0.5	-5.344e-07	8.99e-09
298.15	0.5501	-5.4214e-07	9.01e-09
298.15	0.6005	-5.3367e-07	8.99e-09
298.15	0.6492	-5.1277e-07	8.94e-09
298.15	0.6989	-4.8748e-07	8.88e-09
298.15	0.75	-4.422e-07	8.78e-09
298.15	0.7999	-3.8463e-07	8.64e-09
298.15	0.8501	-3.1865e-07	8.49e-09
298.15	0.9002	-2.3274e-07	8.3e-09
298.15	0.9501	-1.2722e-07	8.05e-09
298.15	0.9751	-5.95e-08	7.9e-09
298.15	1	0	7.75e-09
308.15	0	0	7.75e-09
308.15	0.025	-3.99e-08	7.85e-09
308.15	0.0499	-8.281e-08	7.95e-09
308.15	0.1002	-1.732e-07	8.15e-09
308.15	0.1502	-2.3833e-07	8.3e-09
308.15	0.2012	-3.0767e-07	8.46e-09
308.15	0.2499	-3.5522e-07	8.57e-09
308.15	0.301	-4.0856e-07	8.7e-09
308.15	0.35	-4.6005e-07	8.82e-09
308.15	0.4004	-4.9901e-07	8.91e-09
308.15	0.4498	-5.4167e-07	9.01e-09
308.15	0.5	-5.6166e-07	9.05e-09
308.15	0.551	-5.6954e-07	9.07e-09
308.15	0.6014	-5.6878e-07	9.07e-09
308.15	0.6501	-5.4986e-07	9.02e-09
308.15	0.7002	-5.1827e-07	8.95e-09
308.15	0.75	-4.8849e-07	8.88e-09
308.15	0.8	-4.1969e-07	8.73e-09
308.15	0.8501	-3.4294e-07	8.55e-09
308.15	0.8999	-2.5492e-07	8.35e-09
308.15	0.9499	-1.3802e-07	8.08e-09
308.15	0.9749	-7.76e-08	7.94e-09
308.15	1	0	7.75e-09

System: 2-methyl-2-propenoic acid + 2-methoxy-2-methylpropane; phases: Liquid
Fixed: Pressure, kPa = 101.3
Property: Excess molar volume, m3/mol (Liquid); method: Calculated with densities of this investigation
Temperature, K	Mole fraction of 2-methoxy-2-methylpropane	Excess molar volume, m3/mol	uncertainty
298.15	0	0	7.75e-09
298.15	0.0252	-1.0212e-07	8.03e-09
298.15	0.0499	-2.2017e-07	8.3e-09
298.15	0.0997	-4.3753e-07	8.8e-09
298.15	0.151	-6.5467e-07	9.3e-09
298.15	0.2004	-8.5198e-07	9.75e-09
298.15	0.2504	-1.0348e-06	1.017e-08
298.15	0.3004	-1.1958e-06	1.054e-08
298.15	0.3499	-1.3541e-06	1.091e-08
298.15	0.4007	-1.4863e-06	1.121e-08
298.15	0.4509	-1.5971e-06	1.146e-08
298.15	0.5001	-1.669e-06	1.163e-08
298.15	0.5502	-1.7208e-06	1.175e-08
298.15	0.6003	-1.7302e-06	1.177e-08
298.15	0.6503	-1.708e-06	1.172e-08
298.15	0.7001	-1.6173e-06	1.151e-08
298.15	0.7507	-1.4928e-06	1.123e-08
298.15	0.7999	-1.3455e-06	1.09e-08
298.15	0.8502	-1.0879e-06	1.033e-08
298.15	0.9	-8.0297e-07	9.69e-09
298.15	0.9499	-4.5176e-07	8.92e-09
298.15	0.9747	-2.3914e-07	8.49e-09
298.15	1	0	7.75e-09
308.15	0	0	7.75e-09
308.15	0.0251	-1.2845e-07	8.1e-09
308.15	0.0499	-2.5078e-07	8.38e-09
308.15	0.1014	-4.8608e-07	8.92e-09
308.15	0.1501	-6.9989e-07	9.41e-09
308.15	0.2006	-9.2381e-07	9.93e-09
308.15	0.2532	-1.1241e-06	1.038e-08
308.15	0.3001	-1.2955e-06	1.078e-08
308.15	0.3514	-1.4594e-06	1.115e-08
308.15	0.4005	-1.6032e-06	1.148e-08
308.15	0.4505	-1.7096e-06	1.172e-08
308.15	0.5003	-1.7849e-06	1.19e-08
308.15	0.5544	-1.8384e-06	1.202e-08
308.15	0.6	-1.8569e-06	1.206e-08
308.15	0.6504	-1.8177e-06	1.197e-08
308.15	0.7001	-1.7423e-06	1.18e-08
308.15	0.7501	-1.6011e-06	1.148e-08
308.15	0.7998	-1.4122e-06	1.106e-08
308.15	0.8501	-1.1658e-06	1.051e-08
308.15	0.9003	-8.4812e-07	9.81e-09
308.15	0.9499	-4.7108e-07	8.98e-09
308.15	0.9749	-2.4855e-07	8.53e-09
308.15	1	0	7.75e-09

System: vinyl acetate + 2-methoxy-2-methylpropane; phases: Liquid
Fixed: Pressure, kPa = 101.3
Property: Excess molar volume, m3/mol (Liquid); method: Calculated with densities of this investigation
Temperature, K	Mole fraction of 2-methoxy-2-methylpropane	Excess molar volume, m3/mol	uncertainty
298.15	0	0	7.75e-09
298.15	0.0249	2.04e-09	7.75e-09
298.15	0.0501	1.5e-09	7.75e-09
298.15	0.1	-5.1e-10	7.75e-09
298.15	0.1507	-9.7e-10	7.75e-09
298.15	0.2002	-2.2e-09	7.75e-09
298.15	0.2499	0	7.75e-09
298.15	0.301	8.7e-10	7.75e-09
298.15	0.3504	-1.026e-08	7.77e-09
298.15	0.3999	0	7.75e-09
298.15	0.45	-1.14e-09	7.75e-09
298.15	0.5013	7.23e-09	7.76e-09
298.15	0.5501	2.87e-09	7.75e-09
298.15	0.6	-3.2e-10	7.75e-09
298.15	0.6502	-1.08e-09	7.75e-09
298.15	0.7005	-9.61e-09	7.77e-09
298.15	0.7501	-6.97e-09	7.76e-09
298.15	0.8001	5.67e-09	7.76e-09
298.15	0.8498	1.28e-09	7.75e-09
298.15	0.9002	-4.16e-09	7.76e-09
298.15	0.9499	-6.33e-09	7.76e-09
298.15	0.975	-4.6e-09	7.76e-09
298.15	1	0	7.75e-09
308.15	0	0	7.75e-09
308.15	0.0252	8.6e-09	7.77e-09
308.15	0.0501	1.435e-08	7.78e-09
308.15	0.101	1.506e-08	7.78e-09
308.15	0.1504	1.28e-08	7.78e-09
308.15	0.2	1.054e-08	7.77e-09
308.15	0.2501	1.39e-09	7.75e-09
308.15	0.3004	1.235e-08	7.77e-09
308.15	0.3501	-1.65e-09	7.75e-09
308.15	0.4001	-5.51e-09	7.76e-09
308.15	0.4502	4.55e-09	7.76e-09
308.15	0.4999	1.46e-09	7.75e-09
308.15	0.5499	1.7e-09	7.75e-09
308.15	0.6004	2.51e-09	7.75e-09
308.15	0.6501	8.63e-09	7.77e-09
308.15	0.7	-4.28e-09	7.76e-09
308.15	0.7501	7.25e-09	7.76e-09
308.15	0.7999	2.77e-09	7.75e-09
308.15	0.85	2.33e-09	7.75e-09
308.15	0.9	-1.71e-09	7.75e-09
308.15	0.95	4.38e-09	7.76e-09
308.15	0.975	-1.16e-09	7.75e-09
308.15	1	0	7.75e-09

System: 2-propenyl 2-methylpropenoate + 2-methoxy-2-methylpropane; phases: Liquid
Fixed: Pressure, kPa = 101.3
Property: Excess molar volume, m3/mol (Liquid); method: Calculated with densities of this investigation
Temperature, K	Mole fraction of 2-methoxy-2-methylpropane	Excess molar volume, m3/mol	uncertainty
298.15	0	0	7.75e-09
298.15	0.0251	-3.254e-08	7.83e-09
298.15	0.0505	-6.79e-08	7.91e-09
298.15	0.1005	-1.3688e-07	8.07e-09
298.15	0.1516	-1.834e-07	8.17e-09
298.15	0.2001	-2.2861e-07	8.28e-09
298.15	0.2504	-2.7592e-07	8.39e-09
298.15	0.3003	-3.055e-07	8.46e-09
298.15	0.3498	-3.3018e-07	8.51e-09
298.15	0.3998	-3.6099e-07	8.59e-09
298.15	0.4504	-3.7497e-07	8.62e-09
298.15	0.5	-3.8999e-07	8.65e-09
298.15	0.5501	-3.9498e-07	8.66e-09
298.15	0.6002	-3.8995e-07	8.65e-09
298.15	0.6502	-3.806e-07	8.63e-09
298.15	0.7001	-3.5778e-07	8.58e-09
298.15	0.7503	-3.1949e-07	8.49e-09
298.15	0.8002	-2.8458e-07	8.41e-09
298.15	0.85	-2.3238e-07	8.29e-09
298.15	0.9	-1.7392e-07	8.15e-09
298.15	0.9501	-9.98e-08	7.98e-09
298.15	0.9749	-5.447e-08	7.88e-09
298.15	1	0	7.75e-09
308.15	0	0	7.75e-09
308.15	0.0276	-4.047e-08	7.85e-09
308.15	0.0514	-7.637e-08	7.93e-09
308.15	0.1001	-1.4268e-07	8.08e-09
308.15	0.1504	-2.0343e-07	8.22e-09
308.15	0.2003	-2.5762e-07	8.35e-09
308.15	0.2499	-3.0522e-07	8.46e-09
308.15	0.3004	-3.4376e-07	8.55e-09
308.15	0.35	-3.7871e-07	8.63e-09
308.15	0.4005	-4.0999e-07	8.7e-09
308.15	0.4503	-4.3706e-07	8.76e-09
308.15	0.5011	-4.5084e-07	8.79e-09
308.15	0.5499	-4.6256e-07	8.82e-09
308.15	0.6009	-4.558e-07	8.81e-09
308.15	0.6504	-4.3393e-07	8.75e-09
308.15	0.7004	-4.1275e-07	8.71e-09
308.15	0.7517	-3.8632e-07	8.65e-09
308.15	0.8	-3.3321e-07	8.52e-09
308.15	0.8499	-2.628e-07	8.36e-09
308.15	0.9001	-1.9975e-07	8.22e-09
308.15	0.9499	-1.1747e-07	8.03e-09
308.15	0.975	-5.208e-08	7.88e-09
308.15	1	0	7.75e-09
