Measured thermophysical data. Solubility modelling, solvent effect and preferential solvation of carbendazim in aqueous co-solvent mixtures of N,N-dimethylformamide, methanol, ethanol and n-propanol
Source: J. Chem. Thermodyn., 2019, 10.1016/j.jct.2018.08.001
Compound 1: methyl 2-benzimidazolecarbamate, C9H9N3O2, InChI=1S/C9H9N3O2/c1-14-9(13)12-8-10-6-4-2-3-5-7(6)11-8/h2-5H,1H3,(H2,10,11,12,13), purity 98.5%
Compound 2: dimethylformamide, C3H7NO, InChI=1S/C3H7NO/c1-4(2)3-5/h3H,1-2H3, purity 99.5%
Compound 3: methanol, CH4O, InChI=1S/CH4O/c1-2/h2H,1H3, purity 99.4%
Compound 4: ethanol, C2H6O, InChI=1S/C2H6O/c1-2-3/h3H,2H2,1H3, purity 99.4%
Compound 5: propan-1-ol, C3H8O, InChI=1S/C3H8O/c1-2-3-4/h4H,2-3H2,1H3, purity 99.5%
Compound 6: water, H2O, InChI=1S/H2O/h1H2

System: methyl 2-benzimidazolecarbamate + dimethylformamide + water; phases: Liquid, Crystal
Fixed: Pressure, kPa = 101.1
Property: Mole fraction of methyl 2-benzimidazolecarbamate (Liquid); method: Chromatography
Temperature, K	Solvent: Mass fraction of dimethylformamide	Mole fraction of methyl 2-benzimidazolecarbamate	uncertainty
278.15	0	3.298e-07	2.97e-08
283.15	0	4.004e-07	3.61e-08
288.15	0	4.908e-07	4.42e-08
293.15	0	5.997e-07	5.4e-08
298.15	0	7.351e-07	6.62e-08
303.15	0	8.595e-07	7.74e-08
308.15	0	1.022e-06	9.2e-08
313.15	0	1.206e-06	1.09e-07
318.15	0	1.426e-06	1.28e-07
278.15	0.1001	3.202e-06	2.89e-07
283.15	0.1001	3.776e-06	3.4e-07
288.15	0.1001	4.437e-06	4e-07
293.15	0.1001	5.232e-06	4.71e-07
298.15	0.1001	6.194e-06	5.58e-07
303.15	0.1001	7.031e-06	6.33e-07
308.15	0.1001	8.09e-06	7.28e-07
313.15	0.1001	9.252e-06	8.33e-07
318.15	0.1001	1.063e-05	9.6e-07
278.15	0.2003	1.437e-05	1.29e-06
283.15	0.2003	1.65e-05	1.49e-06
288.15	0.2003	1.888e-05	1.7e-06
293.15	0.2003	2.171e-05	1.95e-06
298.15	0.2003	2.518e-05	2.27e-06
303.15	0.2003	2.799e-05	2.52e-06
308.15	0.2003	3.158e-05	2.84e-06
313.15	0.2003	3.545e-05	3.19e-06
318.15	0.2003	3.981e-05	3.59e-06
278.15	0.2999	3.386e-05	3.05e-06
283.15	0.2999	4.173e-05	3.76e-06
288.15	0.2999	4.836e-05	4.35e-06
293.15	0.2999	5.486e-05	4.94e-06
298.15	0.2999	6.23e-05	5.61e-06
303.15	0.2999	6.86e-05	6.18e-06
308.15	0.2999	7.641e-05	6.88e-06
313.15	0.2999	8.478e-05	7.63e-06
318.15	0.2999	9.42e-05	8.48e-06
278.15	0.3998	7.317e-05	6.59e-06
283.15	0.3998	8.153e-05	7.34e-06
288.15	0.3998	9.152e-05	8.24e-06
293.15	0.3998	0.0001026	9.2e-06
298.15	0.3998	0.0001155	1.04e-05
303.15	0.3998	0.0001266	1.14e-05
308.15	0.3998	0.0001395	1.26e-05
313.15	0.3998	0.0001537	1.38e-05
318.15	0.3998	0.0001697	1.53e-05
278.15	0.5001	0.0001204	1.08e-05
283.15	0.5001	0.0001333	1.2e-05
288.15	0.5001	0.0001484	1.34e-05
293.15	0.5001	0.0001649	1.48e-05
298.15	0.5001	0.0001847	1.66e-05
303.15	0.5001	0.0002016	1.82e-05
308.15	0.5001	0.0002221	2e-05
313.15	0.5001	0.0002431	2.19e-05
318.15	0.5001	0.0002653	2.39e-05
278.15	0.6003	0.0001863	1.68e-05
283.15	0.6003	0.0002065	1.86e-05
288.15	0.6003	0.0002287	2.06e-05
293.15	0.6003	0.0002527	2.28e-05
298.15	0.6003	0.0002808	2.53e-05
303.15	0.6003	0.0003057	2.75e-05
308.15	0.6003	0.000334	3.01e-05
313.15	0.6003	0.0003644	3.28e-05
318.15	0.6003	0.0003969	3.57e-05
278.15	0.6992	0.0002867	2.58e-05
283.15	0.6992	0.0003162	2.85e-05
288.15	0.6992	0.0003476	3.13e-05
293.15	0.6992	0.0003823	3.44e-05
298.15	0.6992	0.0004227	3.81e-05
303.15	0.6992	0.000458	4.12e-05
308.15	0.6992	0.0004984	4.49e-05
313.15	0.6992	0.0005412	4.87e-05
318.15	0.6992	0.0005865	5.28e-05
278.15	0.8001	0.0004425	3.98e-05
283.15	0.8001	0.0004862	4.38e-05
288.15	0.8001	0.0005306	4.78e-05
293.15	0.8001	0.0005798	5.22e-05
298.15	0.8001	0.0006361	5.73e-05
303.15	0.8001	0.0006888	6.2e-05
308.15	0.8001	0.0007494	6.75e-05
313.15	0.8001	0.0008063	7.26e-05
318.15	0.8001	0.0008696	7.83e-05
278.15	0.9008	0.0006426	5.79e-05
283.15	0.9008	0.0007045	6.34e-05
288.15	0.9008	0.0007618	6.86e-05
293.15	0.9008	0.0008284	7.46e-05
298.15	0.9008	0.0009055	8.15e-05
303.15	0.9008	0.0009784	8.81e-05
308.15	0.9008	0.001055	9.5e-05
313.15	0.9008	0.001138	0.000102
318.15	0.9008	0.001223	0.00011
278.15	1	0.0007859	7.08e-05
283.15	1	0.0008615	7.76e-05
288.15	1	0.0009312	8.38e-05
293.15	1	0.00101	9.1e-05
298.15	1	0.0011	9.9e-05
303.15	1	0.001191	0.000107
308.15	1	0.001281	0.000115
313.15	1	0.001381	0.000124
318.15	1	0.00148	0.000133

System: methyl 2-benzimidazolecarbamate + methanol + water; phases: Liquid, Crystal
Fixed: Pressure, kPa = 101.1
Property: Mole fraction of methyl 2-benzimidazolecarbamate (Liquid); method: Chromatography
Temperature, K	Solvent: Mass fraction of methanol	Mole fraction of methyl 2-benzimidazolecarbamate	uncertainty
278.15	0	3.298e-07	2.97e-08
283.15	0	4.004e-07	3.61e-08
288.15	0	4.908e-07	4.42e-08
293.15	0	5.997e-07	5.4e-08
298.15	0	7.351e-07	6.62e-08
303.15	0	8.595e-07	7.74e-08
308.15	0	1.022e-06	9.2e-08
313.15	0	1.206e-06	1.09e-07
318.15	0	1.426e-06	1.28e-07
278.15	0.1001	1.829e-06	1.65e-07
283.15	0.1001	2.188e-06	1.97e-07
288.15	0.1001	2.643e-06	2.38e-07
293.15	0.1001	3.161e-06	2.85e-07
298.15	0.1001	3.796e-06	3.42e-07
303.15	0.1001	4.38e-06	3.94e-07
308.15	0.1001	5.122e-06	4.61e-07
313.15	0.1001	5.949e-06	5.36e-07
318.15	0.1001	6.921e-06	6.24e-07
278.15	0.2003	5.554e-06	5e-07
283.15	0.2003	6.576e-06	5.92e-07
288.15	0.2003	7.888e-06	7.1e-07
293.15	0.2003	9.372e-06	8.44e-07
298.15	0.2003	1.111e-05	1e-06
303.15	0.2003	1.277e-05	1.15e-06
308.15	0.2003	1.484e-05	1.34e-06
313.15	0.2003	1.713e-05	1.54e-06
318.15	0.2003	1.978e-05	1.78e-06
278.15	0.2999	1.073e-05	9.7e-07
283.15	0.2999	1.272e-05	1.15e-06
288.15	0.2999	1.534e-05	1.38e-06
293.15	0.2999	1.818e-05	1.64e-06
298.15	0.2999	2.147e-05	1.93e-06
303.15	0.2999	2.48e-05	2.23e-06
308.15	0.2999	2.879e-05	2.59e-06
313.15	0.2999	3.317e-05	2.99e-06
318.15	0.2999	3.829e-05	3.45e-06
278.15	0.3998	1.551e-05	1.4e-06
283.15	0.3998	1.846e-05	1.66e-06
288.15	0.3998	2.236e-05	2.01e-06
293.15	0.3998	2.663e-05	2.4e-06
298.15	0.3998	3.143e-05	2.83e-06
303.15	0.3998	3.655e-05	3.29e-06
308.15	0.3998	4.256e-05	3.83e-06
313.15	0.3998	4.934e-05	4.44e-06
318.15	0.3998	5.702e-05	5.13e-06
278.15	0.5001	1.856e-05	1.67e-06
283.15	0.5001	2.233e-05	2.01e-06
288.15	0.5001	2.731e-05	2.46e-06
293.15	0.5001	3.372e-05	3.04e-06
298.15	0.5001	3.879e-05	3.49e-06
303.15	0.5001	4.565e-05	4.11e-06
308.15	0.5001	5.343e-05	4.81e-06
313.15	0.5001	6.232e-05	5.61e-06
318.15	0.5001	7.241e-05	6.52e-06
278.15	0.6003	2.028e-05	1.83e-06
283.15	0.6003	2.456e-05	2.21e-06
288.15	0.6003	3.056e-05	2.75e-06
293.15	0.6003	3.698e-05	3.33e-06
298.15	0.6003	4.391e-05	3.95e-06
303.15	0.6003	5.232e-05	4.71e-06
308.15	0.6003	6.17e-05	5.56e-06
313.15	0.6003	7.25e-05	6.53e-06
318.15	0.6003	8.485e-05	7.64e-06
278.15	0.6992	2.178e-05	1.96e-06
283.15	0.6992	2.667e-05	2.4e-06
288.15	0.6992	3.332e-05	3e-06
293.15	0.6992	4.071e-05	3.67e-06
298.15	0.6992	4.847e-05	4.36e-06
303.15	0.6992	5.865e-05	5.28e-06
308.15	0.6992	6.97e-05	6.28e-06
313.15	0.6992	8.274e-05	7.45e-06
318.15	0.6992	9.74e-05	8.77e-06
278.15	0.8001	2.368e-05	2.13e-06
283.15	0.8001	2.95e-05	2.66e-06
288.15	0.8001	3.749e-05	3.38e-06
293.15	0.8001	4.588e-05	4.13e-06
298.15	0.8001	5.52e-05	4.97e-06
303.15	0.8001	6.721e-05	6.05e-06
308.15	0.8001	8.079e-05	7.27e-06
313.15	0.8001	9.63e-05	8.67e-06
318.15	0.8001	0.0001148	1.03e-05
278.15	0.9008	2.725e-05	2.45e-06
283.15	0.9008	3.411e-05	3.07e-06
288.15	0.9008	4.369e-05	3.93e-06
293.15	0.9008	5.395e-05	4.86e-06
298.15	0.9008	6.507e-05	5.86e-06
303.15	0.9008	8.034e-05	7.23e-06
308.15	0.9008	9.719e-05	8.75e-06
313.15	0.9008	0.0001167	1.05e-05
318.15	0.9008	0.0001397	1.26e-05
278.15	1	3.23e-05	2.91e-06
283.15	1	4.074e-05	3.67e-06
288.15	1	5.288e-05	4.76e-06
293.15	1	6.593e-05	5.94e-06
298.15	1	7.947e-05	7.16e-06
303.15	1	9.947e-05	8.96e-06
308.15	1	0.0001208	1.09e-05
313.15	1	0.0001466	1.32e-05
318.15	1	0.0001757	1.58e-05

System: methyl 2-benzimidazolecarbamate + ethanol + water; phases: Liquid, Crystal
Fixed: Pressure, kPa = 101.1
Property: Mole fraction of methyl 2-benzimidazolecarbamate (Liquid); method: Chromatography
Temperature, K	Solvent: Mass fraction of ethanol	Mole fraction of methyl 2-benzimidazolecarbamate	uncertainty
278.15	0	3.298e-07	2.97e-08
283.15	0	4.004e-07	3.61e-08
288.15	0	4.908e-07	4.42e-08
293.15	0	5.997e-07	5.4e-08
298.15	0	7.351e-07	6.62e-08
303.15	0	8.595e-07	7.74e-08
308.15	0	1.022e-06	9.2e-08
313.15	0	1.206e-06	1.09e-07
318.15	0	1.426e-06	1.28e-07
278.15	0.1001	1.119e-06	1.01e-07
283.15	0.1001	1.357e-06	1.22e-07
288.15	0.1001	1.652e-06	1.49e-07
293.15	0.1001	2.019e-06	1.82e-07
298.15	0.1001	2.472e-06	2.23e-07
303.15	0.1001	2.897e-06	2.61e-07
308.15	0.1001	3.442e-06	3.1e-07
313.15	0.1001	4.047e-06	3.64e-07
318.15	0.1001	4.767e-06	4.29e-07
278.15	0.2003	2.392e-06	2.15e-07
283.15	0.2003	2.925e-06	2.63e-07
288.15	0.2003	3.645e-06	3.28e-07
293.15	0.2003	4.417e-06	3.98e-07
298.15	0.2003	5.457e-06	4.91e-07
303.15	0.2003	6.431e-06	5.79e-07
308.15	0.2003	7.681e-06	6.92e-07
313.15	0.2003	9.118e-06	8.21e-07
318.15	0.2003	1.076e-05	9.7e-07
278.15	0.2999	3.748e-06	3.38e-07
283.15	0.2999	4.568e-06	4.11e-07
288.15	0.2999	5.781e-06	5.21e-07
293.15	0.2999	7.144e-06	6.43e-07
298.15	0.2999	8.875e-06	7.99e-07
303.15	0.2999	1.061e-05	9.6e-07
308.15	0.2999	1.275e-05	1.15e-06
313.15	0.2999	1.529e-05	1.38e-06
318.15	0.2999	1.824e-05	1.64e-06
278.15	0.3998	4.725e-06	4.25e-07
283.15	0.3998	5.872e-06	5.29e-07
288.15	0.3998	7.585e-06	6.83e-07
293.15	0.3998	9.481e-06	8.54e-07
298.15	0.3998	1.183e-05	1.07e-06
303.15	0.3998	1.441e-05	1.3e-06
308.15	0.3998	1.767e-05	1.59e-06
313.15	0.3998	2.139e-05	1.93e-06
318.15	0.3998	2.579e-05	2.32e-06
278.15	0.5001	5.304e-06	4.78e-07
283.15	0.5001	6.733e-06	6.06e-07
288.15	0.5001	8.803e-06	7.93e-07
293.15	0.5001	1.147e-05	1.03e-06
298.15	0.5001	1.426e-05	1.28e-06
303.15	0.5001	1.763e-05	1.59e-06
308.15	0.5001	2.189e-05	1.97e-06
313.15	0.5001	2.694e-05	2.43e-06
318.15	0.5001	3.298e-05	2.97e-06
278.15	0.6003	5.69e-06	5.12e-07
283.15	0.6003	7.277e-06	6.55e-07
288.15	0.6003	9.774e-06	8.8e-07
293.15	0.6003	1.261e-05	1.14e-06
298.15	0.6003	1.638e-05	1.47e-06
303.15	0.6003	2.056e-05	1.85e-06
308.15	0.6003	2.589e-05	2.33e-06
313.15	0.6003	3.246e-05	2.92e-06
318.15	0.6003	4.03e-05	3.63e-06
278.15	0.6992	6.06e-06	5.46e-07
283.15	0.6992	7.877e-06	7.09e-07
288.15	0.6992	1.068e-05	9.6e-07
293.15	0.6992	1.415e-05	1.27e-06
298.15	0.6992	1.867e-05	1.68e-06
303.15	0.6992	2.4e-05	2.16e-06
308.15	0.6992	3.068e-05	2.76e-06
313.15	0.6992	3.889e-05	3.5e-06
318.15	0.6992	4.895e-05	4.41e-06
278.15	0.8001	6.586e-06	5.93e-07
283.15	0.8001	8.774e-06	7.9e-07
288.15	0.8001	1.22e-05	1.1e-06
293.15	0.8001	1.624e-05	1.46e-06
298.15	0.8001	2.177e-05	1.96e-06
303.15	0.8001	2.858e-05	2.57e-06
308.15	0.8001	3.719e-05	3.35e-06
313.15	0.8001	4.789e-05	4.31e-06
318.15	0.8001	6.108e-05	5.5e-06
278.15	0.9008	7.31e-06	6.58e-07
283.15	0.9008	9.968e-06	8.98e-07
288.15	0.9008	1.419e-05	1.28e-06
293.15	0.9008	1.92e-05	1.73e-06
298.15	0.9008	2.617e-05	2.36e-06
303.15	0.9008	3.481e-05	3.13e-06
308.15	0.9008	4.603e-05	4.15e-06
313.15	0.9008	6.029e-05	5.43e-06
318.15	0.9008	7.786e-05	7.01e-06
278.15	1	8.289e-06	7.47e-07
283.15	1	1.141e-05	1.03e-06
288.15	1	1.658e-05	1.49e-06
293.15	1	2.281e-05	2.05e-06
298.15	1	3.163e-05	2.85e-06
303.15	1	4.281e-05	3.86e-06
308.15	1	5.742e-05	5.17e-06
313.15	1	7.63e-05	6.87e-06
318.15	1	9.976e-05	8.98e-06

System: methyl 2-benzimidazolecarbamate + propan-1-ol + water; phases: Liquid, Crystal
Fixed: Pressure, kPa = 101.1
Property: Mole fraction of methyl 2-benzimidazolecarbamate (Liquid); method: Chromatography
Temperature, K	Solvent: Mass fraction of propan-1-ol	Mole fraction of methyl 2-benzimidazolecarbamate	uncertainty
278.15	0	3.298e-07	2.97e-08
283.15	0	4.004e-07	3.61e-08
288.15	0	4.908e-07	4.42e-08
293.15	0	5.997e-07	5.4e-08
298.15	0	7.351e-07	6.62e-08
303.15	0	8.595e-07	7.74e-08
308.15	0	1.022e-06	9.2e-08
313.15	0	1.206e-06	1.09e-07
318.15	0	1.426e-06	1.28e-07
278.15	0.1001	7.695e-07	6.93e-08
283.15	0.1001	9.494e-07	8.55e-08
288.15	0.1001	1.19e-06	1.07e-07
293.15	0.1001	1.472e-06	1.33e-07
298.15	0.1001	1.818e-06	1.64e-07
303.15	0.1001	2.152e-06	1.94e-07
308.15	0.1001	2.587e-06	2.33e-07
313.15	0.1001	3.107e-06	2.8e-07
318.15	0.1001	3.703e-06	3.33e-07
278.15	0.2003	1.342e-06	1.21e-07
283.15	0.2003	1.682e-06	1.51e-07
288.15	0.2003	2.14e-06	1.93e-07
293.15	0.2003	2.695e-06	2.43e-07
298.15	0.2003	3.372e-06	3.04e-07
303.15	0.2003	4.076e-06	3.67e-07
308.15	0.2003	5.001e-06	4.5e-07
313.15	0.2003	6.051e-06	5.45e-07
318.15	0.2003	7.351e-06	6.62e-07
278.15	0.2999	1.873e-06	1.69e-07
283.15	0.2999	2.358e-06	2.12e-07
288.15	0.2999	3.123e-06	2.81e-07
293.15	0.2999	3.972e-06	3.58e-07
298.15	0.2999	5.112e-06	4.6e-07
303.15	0.2999	6.277e-06	5.65e-07
308.15	0.2999	7.871e-06	7.09e-07
313.15	0.2999	9.717e-06	8.75e-07
318.15	0.2999	1.197e-05	1.08e-06
278.15	0.3998	2.224e-06	2e-07
283.15	0.3998	2.924e-06	2.63e-07
288.15	0.3998	3.96e-06	3.57e-07
293.15	0.3998	5.16e-06	4.65e-07
298.15	0.3998	6.754e-06	6.08e-07
303.15	0.3998	8.543e-06	7.69e-07
308.15	0.3998	1.089e-05	9.8e-07
313.15	0.3998	1.375e-05	1.24e-06
318.15	0.3998	1.732e-05	1.56e-06
278.15	0.5001	2.468e-06	2.22e-07
283.15	0.5001	3.324e-06	2.99e-07
288.15	0.5001	4.609e-06	4.15e-07
293.15	0.5001	6.182e-06	5.57e-07
298.15	0.5001	8.261e-06	7.44e-07
303.15	0.5001	1.072e-05	9.7e-07
308.15	0.5001	1.402e-05	1.26e-06
313.15	0.5001	1.805e-05	1.63e-06
318.15	0.5001	2.322e-05	2.09e-06
278.15	0.6003	2.617e-06	2.36e-07
283.15	0.6003	3.552e-06	3.2e-07
288.15	0.6003	5.21e-06	4.69e-07
293.15	0.6003	7.168e-06	6.46e-07
298.15	0.6003	9.74e-06	8.77e-07
303.15	0.6003	1.295e-05	1.17e-06
308.15	0.6003	1.735e-05	1.56e-06
313.15	0.6003	2.288e-05	2.06e-06
318.15	0.6003	3.009e-05	2.71e-06
278.15	0.6992	2.754e-06	2.48e-07
283.15	0.6992	3.874e-06	3.49e-07
288.15	0.6992	5.779e-06	5.21e-07
293.15	0.6992	8.148e-06	7.34e-07
298.15	0.6992	1.134e-05	1.02e-06
303.15	0.6992	1.545e-05	1.39e-06
308.15	0.6992	2.124e-05	1.91e-06
313.15	0.6992	2.867e-05	2.58e-06
318.15	0.6992	3.849e-05	3.47e-06
278.15	0.8001	2.904e-06	2.62e-07
283.15	0.8001	4.2e-06	3.78e-07
288.15	0.8001	6.463e-06	5.82e-07
293.15	0.8001	9.352e-06	8.42e-07
298.15	0.8001	1.334e-05	1.2e-06
303.15	0.8001	1.865e-05	1.68e-06
308.15	0.8001	2.634e-05	2.37e-06
313.15	0.8001	3.629e-05	3.27e-06
318.15	0.8001	4.976e-05	4.48e-06
278.15	0.9008	3.142e-06	2.83e-07
283.15	0.9008	4.566e-06	4.11e-07
288.15	0.9008	7.318e-06	6.59e-07
293.15	0.9008	1.085e-05	9.8e-07
298.15	0.9008	1.574e-05	1.42e-06
303.15	0.9008	2.268e-05	2.04e-06
308.15	0.9008	3.272e-05	2.95e-06
313.15	0.9008	4.622e-05	4.16e-06
318.15	0.9008	6.476e-05	5.83e-06
278.15	1	3.276e-06	2.95e-07
283.15	1	4.969e-06	4.48e-07
288.15	1	8.176e-06	7.37e-07
293.15	1	1.245e-05	1.12e-06
298.15	1	1.848e-05	1.66e-06
303.15	1	2.727e-05	2.46e-06
308.15	1	4.037e-05	3.64e-06
313.15	1	5.825e-05	5.25e-06
318.15	1	8.337e-05	7.51e-06

System: methyl 2-benzimidazolecarbamate + water; phases: Liquid, Crystal
Fixed: Pressure, kPa = 101.1
Property: Mole fraction of methyl 2-benzimidazolecarbamate (Liquid); method: Chromatography
Temperature, K	Mole fraction of methyl 2-benzimidazolecarbamate	uncertainty
278.15	3.298e-07	2.97e-08
283.15	4.004e-07	3.61e-08
288.15	4.908e-07	4.42e-08
293.15	5.997e-07	5.4e-08
298.15	7.351e-07	6.62e-08
303.15	8.595e-07	7.74e-08
308.15	1.022e-06	9.2e-08
313.15	1.206e-06	1.09e-07
318.15	1.426e-06	1.28e-07

System: methyl 2-benzimidazolecarbamate + dimethylformamide; phases: Liquid, Crystal
Fixed: Pressure, kPa = 101.1
Property: Mole fraction of methyl 2-benzimidazolecarbamate (Liquid); method: Chromatography
Temperature, K	Mole fraction of methyl 2-benzimidazolecarbamate	uncertainty
278.15	0.0007859	7.08e-05
283.15	0.0008615	7.76e-05
288.15	0.0009312	8.38e-05
293.15	0.00101	9.1e-05
298.15	0.0011	9.9e-05
303.15	0.001191	0.000107
308.15	0.001281	0.000115
313.15	0.001381	0.000124
318.15	0.00148	0.000133

System: methyl 2-benzimidazolecarbamate + methanol; phases: Liquid, Crystal
Fixed: Pressure, kPa = 101.1
Property: Mole fraction of methyl 2-benzimidazolecarbamate (Liquid); method: Chromatography
Temperature, K	Mole fraction of methyl 2-benzimidazolecarbamate	uncertainty
278.15	3.23e-05	2.91e-06
283.15	4.074e-05	3.67e-06
288.15	5.288e-05	4.76e-06
293.15	6.593e-05	5.94e-06
298.15	7.947e-05	7.16e-06
303.15	9.947e-05	8.96e-06
308.15	0.0001208	1.09e-05
313.15	0.0001466	1.32e-05
318.15	0.0001757	1.58e-05

System: methyl 2-benzimidazolecarbamate + ethanol; phases: Liquid, Crystal
Fixed: Pressure, kPa = 101.1
Property: Mole fraction of methyl 2-benzimidazolecarbamate (Liquid); method: Chromatography
Temperature, K	Mole fraction of methyl 2-benzimidazolecarbamate	uncertainty
278.15	8.289e-06	7.47e-07
283.15	1.141e-05	1.03e-06
288.15	1.658e-05	1.49e-06
293.15	2.281e-05	2.05e-06
298.15	3.163e-05	2.85e-06
303.15	4.281e-05	3.86e-06
308.15	5.742e-05	5.17e-06
313.15	7.63e-05	6.87e-06
318.15	9.976e-05	8.98e-06

System: methyl 2-benzimidazolecarbamate + propan-1-ol; phases: Liquid, Crystal
Fixed: Pressure, kPa = 101.1
Property: Mole fraction of methyl 2-benzimidazolecarbamate (Liquid); method: Chromatography
Temperature, K	Mole fraction of methyl 2-benzimidazolecarbamate	uncertainty
278.15	3.276e-06	2.95e-07
283.15	4.969e-06	4.48e-07
288.15	8.176e-06	7.37e-07
293.15	1.245e-05	1.12e-06
298.15	1.848e-05	1.66e-06
303.15	2.727e-05	2.46e-06
308.15	4.037e-05	3.64e-06
313.15	5.825e-05	5.25e-06
318.15	8.337e-05	7.51e-06
