Measured thermophysical data. Heat capacities and thermodynamic functions of the ZIF organic linkers imidazole, 2-methylimidazole, and 2-ethylimidazole
Source: J. Chem. Thermodyn., 2019, 10.1016/j.jct.2018.12.024
Compound 1: 1H-imidazole, C3H4N2, InChI=1S/C3H4N2/c1-2-5-3-4-1/h1-3H,(H,4,5), purity 99%
Compound 2: 2-methylimidazole, C4H6N2, InChI=1S/C4H6N2/c1-4-5-2-3-6-4/h2-3H,1H3,(H,5,6), purity 99%
Compound 3: 2-ethylimidazole, C5H8N2, InChI=1S/C5H8N2/c1-2-5-6-3-4-7-5/h3-4H,2H2,1H3,(H,6,7), purity 99%

System: 1H-imidazole; phases: Crystal
Fixed: Pressure, kPa = 101.325
Property: Molar heat capacity at constant pressure, J/K/mol (Crystal); method: RELAXCAL
Temperature, K	Molar heat capacity at constant pressure, J/K/mol	uncertainty
1.8487	0.0035671	0.0003866
1.9089	0.0039733	0.00043
1.9828	0.0046065	0.0004962
2.062	0.0051281	0.0005523
2.1451	0.0061049	0.0006556
2.2338	0.0066913	0.0007163
2.3269	0.0077399	0.0008272
2.4377	0.0089488	0.0009553
2.5419	0.010588	0.001128
2.6274	0.011334	0.001207
2.7538	0.012549	0.001337
2.8793	0.014333	0.001525
3.0121	0.016486	0.001754
3.1455	0.018926	0.002013
3.2853	0.021417	0.002278
3.4311	0.02451	0.002606
3.5829	0.027647	0.002939
3.7427	0.032128	0.003414
3.9082	0.036638	0.003893
4.0839	0.041892	0.004451
4.2645	0.047712	0.005069
4.4526	0.054798	0.00582
4.6456	0.061659	0.006548
4.8564	0.070865	0.007525
5.0692	0.081182	0.00862
5.2938	0.092943	0.009868
5.5277	0.10643	0.0113
5.7721	0.12285	0.01304
6.0265	0.14054	0.01492
6.2923	0.16107	0.0171
6.581	0.18542	0.01968
6.8689	0.21393	0.02271
7.1698	0.24573	0.02608
7.4868	0.28388	0.03013
7.8184	0.32725	0.03473
8.166	0.37719	0.04003
8.5284	0.4346	0.04611
8.9075	0.50093	0.05315
9.3035	0.57591	0.0611
9.7164	0.66335	0.07038
10.175	0.77192	0.04126
10.664	0.89522	0.04784
11.146	1.0253	0.0548
11.639	1.1722	0.0626
12.15	1.3366	0.0714
12.689	1.5218	0.0813
13.25	1.7301	0.0924
13.834	1.9649	0.1049
14.447	2.2295	0.1191
15.086	2.5188	0.1345
15.59	2.7561	0.1472
17.034	3.5009	0.1869
18.621	4.4032	0.2351
20.323	5.4423	0.2906
22.246	6.7158	0.3586
24.322	8.1615	0.4357
26.562	9.8045	0.5234
29.035	11.599	0.619
31.74	13.601	0.726
34.7	15.783	0.843
37.93	18.117	0.967
41.464	20.498	1.094
45.325	22.977	1.227
49.545	25.372	1.355
54.152	27.86	1.487
59.186	30.347	1.62
64.677	32.582	1.739
70.691	34.672	1.851
77.272	36.887	1.969
84.428	39.119	2.088
92.281	41.036	2.191
100.87	42.432	2.265
110.96	44.282	2.364
121.01	46.089	2.46
131.13	47.65	2.544
141.2	49.119	2.622
151.26	50.757	2.71
161.4	52.365	2.796
171.53	54.194	2.893
181.59	56.266	3.004
191.67	58.379	3.117
201.76	60.467	3.228
211.85	62.609	3.342
221.93	65.017	3.471
232.01	67.598	3.609
242.09	70.271	3.751
252.18	73.06	3.9
262.27	75.437	4.027
272.36	78.249	4.177
282.4	80.295	4.287
292.36	81.872	4.371
302.82	84.903	4.533

System: 1H-imidazole; phases: Crystal
Fixed: Pressure, kPa = 101.325
Property: Molar heat capacity at constant pressure, J/K/mol (Crystal); method: RELAXCAL
Temperature, K	Molar heat capacity at constant pressure, J/K/mol	uncertainty
1	0.0005949	0.0001049
2	0.004785	0.000531
3	0.01631	0.00176
4	0.03923	0.00421
5	0.07819	0.00835
6	0.13873	0.01479
7	0.22752	0.02423
8	0.35234	0.03748
9	0.51803	0.05507
10	0.72812	0.0391
15	2.4757	0.1325
20	5.2418	0.2801
25	8.6523	0.4621
30	12.329	0.658
35	16.004	0.855
40	19.515	1.042
45	22.761	1.215
50	25.67	1.37
60	30.691	1.638
70	34.724	1.854
80	37.856	2.021
90	40.344	2.154
100	42.389	2.263
110	44.15	2.357
120	45.752	2.442
130	47.292	2.525
140	48.844	2.608
150	50.461	2.694
160	52.177	2.785
170	54.008	2.883
180	55.962	2.988
190	58.033	3.098
200	60.21	3.214
210	62.48	3.336
220	64.825	3.461
230	67.228	3.589
240	69.671	3.719
250	72.138	3.851
260	74.613	3.983
270	77.084	4.115
273.15	77.86	4.157
280	79.54	4.246
290	81.969	4.376
298.15	83.925	4.48
300	84.366	4.504

System: 1H-imidazole; phases: Crystal
Fixed: Pressure, kPa = 101.325
Property: Molar entropy, J/K/mol (Crystal); method: RELAXCAL
Temperature, K	Molar entropy, J/K/mol	uncertainty
1	0.0001982	4.21e-05
2	0.00159	0.000258
3	0.005398	0.000866
4	0.0129	0.00206
5	0.0255	0.00407
6	0.04473	0.00713
7	0.07237	0.01153
8	0.11047	0.0176
9	0.16111	0.02566
10	0.22616	0.01816
15	0.8131	0.0652
20	1.8838	0.1509
25	3.4116	0.2733
30	5.3125	0.4255
35	7.4902	0.5999
40	9.8589	0.7895
45	12.348	0.989
50	14.9	1.193
60	20.034	1.604
70	25.082	2.009
80	29.931	2.397
90	34.539	2.766
100	38.899	3.115
110	43.023	3.445
120	46.934	3.758
130	50.657	4.057
140	54.218	4.342
150	57.643	4.616
160	60.954	4.881
170	64.171	5.139
180	67.313	5.39
190	70.394	5.637
200	73.425	5.88
210	76.418	6.119
220	79.378	6.356
230	82.312	6.591
240	85.225	6.825
250	88.119	7.056
260	90.997	7.287
270	93.859	7.516
273.15	94.758	7.588
280	96.707	7.744
290	99.54	7.971
298.15	101.84	8.16
300	102.36	8.2

System: 1H-imidazole; phases: Crystal
Fixed: Pressure, kPa = 101.325
Property: Molar enthalpy, kJ/mol (Crystal); method: RELAXCAL
Temperature, K	Molar enthalpy, kJ/mol	uncertainty
1	1.486e-07	4.75e-08
2	2.387e-06	2.8e-07
3	1.216e-05	1.34e-06
4	3.879e-05	4.2e-06
5	9.595e-05	1.031e-05
6	0.0002024	2.17e-05
7	0.0003828	4.09e-05
8	0.0006695	7.14e-05
9	0.001101	0.000117
10	0.00172	9.3e-05
15	0.00925	0.000497
20	0.02819	0.00151
25	0.06274	0.00335
30	0.11515	0.00615
35	0.18602	0.00994
40	0.27491	0.01468
45	0.38073	0.02033
50	0.50196	0.0268
60	0.78434	0.04188
70	1.1123	0.0594
80	1.4758	0.0788
90	1.8673	0.0997
100	2.2812	0.1218
110	2.7141	0.1449
120	3.1637	0.1689
130	3.6289	0.1937
140	4.1096	0.2194
150	4.606	0.2459
160	5.1191	0.2733
170	5.65	0.3016
180	6.1997	0.331
190	6.7696	0.3614
200	7.3607	0.393
210	7.9741	0.4257
220	8.6106	0.4597
230	9.2708	0.4949
240	9.9553	0.5315
250	10.664	0.569
260	11.398	0.608
270	12.157	0.649
273.15	12.401	0.662
280	12.94	0.691
290	13.747	0.734
298.15	14.423	0.77
300	14.579	0.778

System: 2-methylimidazole; phases: Crystal
Fixed: Pressure, kPa = 101.325
Property: Molar heat capacity at constant pressure, J/K/mol (Crystal); method: RELAXCAL
Temperature, K	Molar heat capacity at constant pressure, J/K/mol	uncertainty
1.8226	0.012473	0.001347
1.901	0.014036	0.001516
1.9833	0.015928	0.001715
2.0686	0.018417	0.001976
2.157	0.020752	0.002222
2.2509	0.023559	0.002517
2.3484	0.026774	0.002859
2.4487	0.030504	0.003254
2.5534	0.034311	0.003655
2.6611	0.038523	0.004103
2.7733	0.042601	0.004536
2.8712	0.048541	0.005164
3.0055	0.053544	0.005697
3.1464	0.061795	0.006575
3.2861	0.071691	0.007625
3.4323	0.081044	0.008618
3.5836	0.093402	0.009928
3.7411	0.10737	0.01141
3.9091	0.12284	0.01305
4.0819	0.14122	0.01501
4.2629	0.16191	0.0172
4.4506	0.18518	0.01967
4.6479	0.2121	0.02253
4.8548	0.2425	0.02575
5.0679	0.27774	0.02949
5.2924	0.31831	0.0338
5.5266	0.36456	0.03871
5.7706	0.42036	0.04462
6.0255	0.48055	0.05101
6.2957	0.55274	0.05867
6.5772	0.63349	0.06723
6.8661	0.72386	0.07682
7.1679	0.82382	0.08743
7.4852	0.94112	0.09987
7.817	1.0714	0.1137
8.1644	1.2183	0.1293
8.5271	1.3825	0.1467
8.9055	1.5674	0.1663
9.3014	1.7719	0.188
9.7151	2.0012	0.2123
10.173	2.2823	0.1219
10.662	2.5883	0.1383
11.144	2.9037	0.1551
11.635	3.2397	0.173
12.145	3.6113	0.1929
12.684	4.0219	0.2148
13.246	4.4701	0.2387
13.831	4.9617	0.265
14.443	5.4934	0.2934
15.081	6.0615	0.3237
15.585	6.5163	0.348
17.031	7.8909	0.4213
18.616	9.4444	0.5043
20.314	11.192	0.598
22.246	13.085	0.699
24.318	15.204	0.812
26.554	17.465	0.932
29.026	19.745	1.054
31.734	22.152	1.183
34.692	24.686	1.318
37.925	27.262	1.455
41.457	29.748	1.588
45.312	32.296	1.724
49.533	34.611	1.848
54.141	37.006	1.976
59.178	39.472	2.107
64.673	41.598	2.221
70.687	43.65	2.33
77.268	45.988	2.455
84.432	48.518	2.59
92.288	50.821	2.713
100.86	52.469	2.801
110.94	54.8	2.926
120.99	57.301	3.059
131.1	59.348	3.168
141.18	61.209	3.268
151.24	63.484	3.389
161.38	65.506	3.497
171.49	67.784	3.619
181.57	70.376	3.757
191.66	72.903	3.892
201.76	75.416	4.026
211.85	77.877	4.157
221.94	80.52	4.299
232.03	83.083	4.435
242.11	85.916	4.587
252.19	89.003	4.751
262.3	91.729	4.897
272.43	95.146	5.079
282.52	98.262	5.246
292.64	101.56	5.42
302.8	106.19	5.67

System: 2-methylimidazole; phases: Crystal
Fixed: Pressure, kPa = 101.325
Property: Molar heat capacity at constant pressure, J/K/mol (Crystal); method: RELAXCAL
Temperature, K	Molar heat capacity at constant pressure, J/K/mol	uncertainty
1	0.002025	0.000357
2	0.01626	0.00181
3	0.05532	0.00598
4	0.1329	0.01425
5	0.26474	0.02828
6	0.46891	0.04998
7	0.76338	0.08125
8	1.1491	0.1222
9	1.6174	0.1719
10	2.1696	0.1164
15	5.9823	0.3198
20	10.852	0.58
25	15.909	0.85
30	20.641	1.102
35	24.904	1.33
40	28.731	1.534
45	32.116	1.715
50	34.954	1.866
60	39.758	2.123
70	43.63	2.329
80	46.886	2.503
90	49.738	2.655
100	52.317	2.793
110	54.71	2.921
120	56.976	3.042
130	59.158	3.158
140	61.293	3.272
150	63.411	3.385
160	65.541	3.499
170	67.708	3.615
180	69.934	3.733
190	72.239	3.857
200	74.637	3.985
210	77.14	4.118
220	79.753	4.258
230	82.482	4.403
240	85.326	4.555
250	88.281	4.713
260	91.344	4.876
270	94.506	5.045
273.15	95.521	5.099
280	97.76	5.219
290	101.1	5.4
298.15	103.87	5.55
300	104.5	5.58

System: 2-methylimidazole; phases: Crystal
Fixed: Pressure, kPa = 101.325
Property: Molar entropy, J/K/mol (Crystal); method: RELAXCAL
Temperature, K	Molar entropy, J/K/mol	uncertainty
1	0.0006747	0.0001432
2	0.00541	0.000879
3	0.01834	0.00294
4	0.04378	0.007
5	0.08643	0.01379
6	0.15151	0.02416
7	0.24465	0.03899
8	0.37093	0.05908
9	0.53247	0.08479
10	0.73074	0.05865
15	2.2791	0.1827
20	4.6532	0.3728
25	7.6207	0.6104
30	10.946	0.877
35	14.454	1.158
40	18.034	1.444
45	21.618	1.731
50	25.154	2.014
60	31.948	2.558
70	38.377	3.073
80	44.421	3.557
90	50.112	4.013
100	55.488	4.443
110	60.587	4.852
120	65.446	5.241
130	70.093	5.613
140	74.555	5.97
150	78.856	6.315
160	83.016	6.648
170	87.055	6.971
180	90.987	7.286
190	94.83	7.594
200	98.596	7.895
210	102.3	8.19
220	105.95	8.48
230	109.55	8.77
240	113.12	9.06
250	116.66	9.34
260	120.19	9.62
270	123.69	9.9
273.15	124.79	9.99
280	127.19	10.19
290	130.68	10.46
298.15	133.52	10.69
300	134.16	10.74

System: 2-methylimidazole; phases: Crystal
Fixed: Pressure, kPa = 101.325
Property: Molar enthalpy, kJ/mol (Crystal); method: RELAXCAL
Temperature, K	Molar enthalpy, kJ/mol	uncertainty
1	5.061e-07	1.614e-07
2	8.117e-06	9.53e-07
3	4.129e-05	4.55e-06
4	0.0001316	1.42e-05
5	0.0003251	3.49e-05
6	0.0006852	7.33e-05
7	0.001293	0.000138
8	0.002243	0.000239
9	0.003619	0.000385
10	0.005506	0.000296
15	0.02524	0.00135
20	0.06709	0.00359
25	0.13405	0.00716
30	0.22561	0.01205
35	0.33967	0.01814
40	0.47393	0.02531
45	0.62624	0.03344
50	0.79417	0.0424
60	1.1675	0.0623
70	1.5851	0.0846
80	2.0381	0.1088
90	2.5215	0.1346
100	3.032	0.1619
110	3.5672	0.1904
120	4.1257	0.2203
130	4.7065	0.2513
140	5.3087	0.2834
150	5.9323	0.3167
160	6.577	0.3511
170	7.2432	0.3867
180	7.9314	0.4234
190	8.6421	0.4614
200	9.3764	0.5006
210	10.135	0.541
220	10.92	0.583
230	11.731	0.626
240	12.57	0.671
250	13.438	0.717
260	14.336	0.765
270	15.265	0.815
273.15	15.564	0.831
280	16.226	0.866
290	17.22	0.919
298.15	18.055	0.964
300	18.248	0.974

System: 2-ethylimidazole; phases: Crystal 2, Crystal 1, Gas
Property: Triple point temperature, K (Crystal 2); method: relaxation calorimeter
Triple point temperature, K	uncertainty
282	1

System: 2-ethylimidazole; phases: Crystal 2, Crystal 1, Gas
Property: Molar enthalpy of transition or fusion, kJ/mol (Crystal 2); method: relaxation calorimeter
Molar enthalpy of transition or fusion, kJ/mol	uncertainty
0	1

System: 2-ethylimidazole; phases: Crystal 2
Property: Mass density, kg/m3 (Crystal 2); method: X-ray diffraction
Temperature, K	Pressure, kPa	Mass density, kg/m3	uncertainty
100	101.325	1179	2

System: 2-ethylimidazole; phases: Crystal 2
Fixed: Pressure, kPa = 101.325
Property: Molar heat capacity at constant pressure, J/K/mol (Crystal 2); method: RELAXCAL
Temperature, K	Molar heat capacity at constant pressure, J/K/mol	uncertainty
1.8317	0.0098628	0.0010636
1.9107	0.011156	0.001199
1.9969	0.012779	0.00137
2.0884	0.01443	0.001547
2.1818	0.016597	0.001777
2.2839	0.017968	0.001923
2.3798	0.021156	0.002258
2.5003	0.024853	0.00265
2.6029	0.028082	0.002993
2.7118	0.030968	0.003297
2.8358	0.033745	0.003593
2.9608	0.039042	0.004156
3.0875	0.046564	0.004955
3.2302	0.05364	0.005706
3.3666	0.062014	0.006593
3.5171	0.070795	0.007523
3.6734	0.077871	0.008279
3.833	0.091035	0.009673
4.0018	0.10678	0.01135
4.1783	0.11888	0.01263
4.3605	0.12979	0.01379
4.5564	0.15522	0.01648
4.755	0.16935	0.01799
4.9643	0.20555	0.02182
5.1836	0.22213	0.02359
5.4149	0.24248	0.02575
5.6539	0.30109	0.03196
5.9003	0.33098	0.03513
6.1652	0.39232	0.04164
6.4292	0.43981	0.04668
6.7159	0.50971	0.0541
7.0119	0.55991	0.05942
7.3235	0.66629	0.07071
7.6448	0.74174	0.07871
7.979	0.86638	0.09193
8.334	0.96772	0.10267
8.6987	1.1068	0.1174
9.0823	1.2324	0.1308
9.4794	1.4172	0.1504
9.8968	1.5901	0.1687
10.325	1.7964	0.096
10.755	2.0116	0.1075
11.227	2.2568	0.1206
11.723	2.5332	0.1353
12.243	2.8241	0.1508
12.786	3.1565	0.1686
13.351	3.5181	0.1879
13.937	3.9058	0.2086
14.555	4.3396	0.2317
15.196	4.7979	0.2562
15.702	5.1645	0.2758
17.157	6.3007	0.3364
18.742	7.5889	0.4052
20.476	9.0438	0.4829
22.383	10.734	0.573
24.456	12.678	0.677
26.72	14.677	0.784
29.2	17.01	0.908
31.902	19.497	1.041
34.857	22.164	1.183
38.082	24.975	1.333
41.613	27.997	1.495
45.471	31.181	1.665
49.687	34.278	1.83
54.29	37.469	2
59.33	41.057	2.192
64.829	44.606	2.381
70.84	48.158	2.571
77.409	51.777	2.764
84.587	55.677	2.972
92.431	59.557	3.179
101	62.741	3.349
111.14	67.422	3.599
121.2	71.804	3.833
131.27	75.264	4.018
141.4	78.91	4.213
151.45	82.645	4.412
161.59	86.899	4.639
171.64	91.105	4.864
181.73	95.905	5.12
191.82	100.57	5.37
201.98	105.56	5.64
212.07	111.24	5.94
222.1	117.69	6.28
232.18	124.55	6.65
237.31	128.32	6.85
242.31	132.81	7.09
247.3	138.21	7.38
252.41	144.09	7.69
257.45	150.37	8.03
262.41	157.55	8.41
263.56	158.72	8.47
264.5	160.34	8.56
265.51	162.41	8.67
266.52	164.87	8.8
267.53	167.93	8.97
268.53	170.79	9.12
269.54	173.84	9.28
270.55	177.06	9.45
271.56	180.33	9.63
272.57	183.06	9.77
273.61	186.03	9.93
274.59	188.4	10.06
275.6	190.73	10.18
276.61	192.41	10.27
277.62	194.12	10.36
278.55	195.12	10.42
279.56	196.15	10.47
280.56	197.01	10.52
281.57	197.34	10.54

System: 2-ethylimidazole; phases: Crystal 1
Fixed: Pressure, kPa = 101.325
Property: Molar heat capacity at constant pressure, J/K/mol (Crystal 1); method: RELAXCAL
Temperature, K	Molar heat capacity at constant pressure, J/K/mol	uncertainty
282.58	197.13	10.52
283.58	196.73	10.5
284.67	195.88	10.46
285.68	193.81	10.35
286.68	190.8	10.19
287.67	185.34	9.89
288.66	176.05	9.4
289.66	164.63	8.79
290.69	155.39	8.3
291.73	150.12	8.01
292.75	147.73	7.89
293.68	146.78	7.84
294.69	145.97	7.79
295.7	146.09	7.8
296.71	146.26	7.81
297.72	146.31	7.81
298.73	147.02	7.85
299.83	147.43	7.87
300.84	148.07	7.9
301.86	148.73	7.94
302.86	149.61	7.99

System: 2-ethylimidazole; phases: Crystal 2
Fixed: Pressure, kPa = 101.325
Property: Molar heat capacity at constant pressure, J/K/mol (Crystal 2); method: RELAXCAL
Temperature, K	Molar heat capacity at constant pressure, J/K/mol	uncertainty
1	0.001566	0.000276
2	0.01257	0.0014
3	0.04267	0.00461
4	0.10205	0.01094
5	0.20177	0.02155
6	0.35377	0.0377
7	0.56996	0.06066
8	0.85913	0.09135
9	1.2179	0.1294
10	1.6414	0.088
15	4.6493	0.2486
20	8.6822	0.4638
25	13.147	0.702
30	17.699	0.945
35	22.224	1.187
40	26.664	1.424
45	30.858	1.647
50	34.558	1.845
60	41.471	2.214
70	47.69	2.55
80	53.215	2.841
90	58.191	3.107
100	62.751	3.35
110	66.996	3.577
120	71.004	3.791
130	74.832	3.995
140	78.519	4.192
150	82.098	4.383
160	86.246	4.604
170	90.383	4.825
180	95.076	5.076
190	99.731	5.324
200	104.54	5.58
210	110	5.87
220	116.29	6.21
230	123.04	6.57
240	130.6	6.97
250	141.32	7.54
260	154.38	8.24
270	175.29	9.36
273.15	184.73	9.86
280	197.49	10.54

System: 2-ethylimidazole; phases: Crystal 2
Fixed: Pressure, kPa = 101.325
Property: Molar entropy, J/K/mol (Crystal 2); method: RELAXCAL
Temperature, K	Molar entropy, J/K/mol	uncertainty
1	0.0005217	0.0001107
2	0.004182	0.000679
3	0.01416	0.00227
4	0.03374	0.00539
5	0.06637	0.01059
6	0.11571	0.01845
7	0.18558	0.02957
8	0.27973	0.04456
9	0.40105	0.06386
10	0.5507	0.0442
15	1.7393	0.1394
20	3.6124	0.2894
25	6.0256	0.4826
30	8.8248	0.7068
35	11.894	0.953
40	15.152	1.213
45	18.539	1.485
50	21.987	1.761
60	28.903	2.315
70	35.772	2.865
80	42.508	3.404
90	49.068	3.929
100	55.438	4.439
110	61.62	4.934
120	67.623	5.415
130	73.459	5.882
140	79.14	6.337
150	84.68	6.781
160	90.109	7.216
170	95.461	7.644
180	100.76	8.07
190	106.02	8.49
200	111.26	8.91
210	116.49	9.33
220	121.74	9.75
230	127.07	10.18
240	132.46	10.61
250	137.99	11.05
260	143.77	11.51
270	149.9	12
273.15	151.99	12.17
280	156.75	12.55

System: 2-ethylimidazole; phases: Crystal 2
Fixed: Pressure, kPa = 101.325
Property: Molar enthalpy, kJ/mol (Crystal 2); method: RELAXCAL
Temperature, K	Molar enthalpy, kJ/mol	uncertainty
1	3.913e-07	1.248e-07
2	6.275e-06	7.36e-07
3	3.189e-05	3.51e-06
4	0.0001014	1.1e-05
5	0.0002494	2.68e-05
6	0.0005223	5.59e-05
7	0.0009784	0.0001044
8	0.001687	0.00018
9	0.00272	0.00029
10	0.004144	0.000223
15	0.01931	0.00104
20	0.05235	0.0028
25	0.10683	0.00571
30	0.18395	0.00983
35	0.28377	0.01516
40	0.40605	0.02168
45	0.55001	0.02937
50	0.71379	0.03811
60	1.0942	0.0584
70	1.5406	0.0823
80	2.0457	0.1092
90	2.6031	0.139
100	3.2081	0.1713
110	3.8571	0.2059
120	4.5472	0.2428
130	5.2766	0.2817
140	6.0434	0.3226
150	6.8466	0.3655
160	7.6881	0.4104
170	8.5711	0.4576
180	9.498	0.5071
190	10.472	0.559
200	11.493	0.614
210	12.565	0.671
220	13.696	0.731
230	14.893	0.795
240	16.159	0.863
250	17.517	0.935
260	18.99	1.014
270	20.614	1.1
273.15	21.182	1.131
280	22.497	1.201

System: 2-ethylimidazole; phases: Crystal 1
Fixed: Pressure, kPa = 101.325
Property: Molar heat capacity at constant pressure, J/K/mol (Crystal 1); method: RELAXCAL
Temperature, K	Molar heat capacity at constant pressure, J/K/mol	uncertainty
290	161.21	8.61
298.15	146.53	7.82
300	147.67	7.88

System: 2-ethylimidazole; phases: Crystal 1
Fixed: Pressure, kPa = 101.325
Property: Molar entropy, J/K/mol (Crystal 1); method: RELAXCAL
Temperature, K	Molar entropy, J/K/mol	uncertainty
290	163.44	13.09
298.15	167.57	13.42
300	168.48	13.49

System: 2-ethylimidazole; phases: Crystal 1
Fixed: Pressure, kPa = 101.325
Property: Molar enthalpy, kJ/mol (Crystal 1); method: RELAXCAL
Temperature, K	Molar enthalpy, kJ/mol	uncertainty
290	24.404	1.303
298.15	25.617	1.368
300	25.889	1.382
