Measured thermophysical data. Liquid liquid miscibility and volumetric properties of aqueous solutions of  ionic liquids as a function of temperature
Source: J. Chem. Thermodyn., 2009, 10.1016/j.jct.2009.05.009
Compound 1: water, H2O, InChI=1S/H2O/h1H2, purity 99.8%
Compound 2: 1-ethyl-3-methylimidazolium bis((trifluoromethyl)sulfonyl)imide, C8H11F6N3O4S2, InChI=1S/C6H11N2.C2F6NO4S2/c1-3-8-5-4-7(2)6-8;3-1(4,5)14(10,11)9-15(12,13)2(6,7)8/h4-6H,3H2,1-2H3;/q+1;-1
Compound 3: 1-butyl-3-methylimidazolium bis(trifluoromethylsulfonyl)imide, C10H15F6N3O4S2, InChI=1S/C8H15N2.C2F6NO4S2/c1-3-4-5-10-7-6-9(2)8-10;3-1(4,5)14(10,11)9-15(12,13)2(6,7)8/h6-8H,3-5H2,1-2H3;/q+1;-1
Compound 4: 1-butyl-1-methylpyrrolidinium bis[(trifluoromethyl)sulfonyl]imide, C11H20F6N2O4S2, InChI=1S/C9H20N.C2F6NO4S2/c1-3-4-7-10(2)8-5-6-9-10;3-1(4,5)14(10,11)9-15(12,13)2(6,7)8/h3-9H2,1-2H3;/q+1;-1
Compound 5: butyltrimethylammonium bis(trifluoromethylsulfonyl)imide, C9H18F6N2O4S2, InChI=1S/C7H18N.C2F6NO4S2/c1-5-6-7-8(2,3)4;3-1(4,5)14(10,11)9-15(12,13)2(6,7)8/h5-7H2,1-4H3;/q+1;-1
Compound 6: 1-butyl-3-methylimidazolium hexafluorophosphate, C8H15F6N2P, InChI=1S/C8H15N2.F6P/c1-3-4-5-10-7-6-9(2)8-10;1-7(2,3,4,5)6/h6-8H,3-5H2,1-2H3;/q+1;-1, purity 99.9%
Compound 7: 1-butyl-3-methylimidazolium tetrafluoroborate, C8H15BF4N2, InChI=1S/C8H15N2.BF4/c1-3-4-5-10-7-6-9(2)8-10;2-1(3,4)5/h6-8H,3-5H2,1-2H3;/q+1;-1, purity 98%
Compound 8: 1-ethyl-3-methylimidazolium ethyl sulfate, C8H16N2O4S, InChI=1S/C6H11N2.C2H6O4S/c1-3-8-5-4-7(2)6-8;1-2-6-7(3,4)5/h4-6H,3H2,1-2H3;2H2,1H3,(H,3,4,5)/q+1;/p-1

System: water + 1-ethyl-3-methylimidazolium bis((trifluoromethyl)sulfonyl)imide; phases: Liquid mixture 1, Liquid mixture 2
Fixed: Pressure, kPa = 101.3
Property: Liquid-liquid equilibrium temperature, K (Liquid mixture 1); method: VISOBS
Mole fraction of water	Liquid-liquid equilibrium temperature, K	uncertainty
0.275	285.15	2.21
0.297	292.62	2.38
0.3031	298.25	5.47
0.304	299.76	5.48
0.3137	303.22	2.13
0.3214	303.69	2.01
0.3572	315.62	2.23
0.3921	323.17	2.27
0.406	329.44	2.64
0.415	332.75	2.3
0.438	338.38	2.15
0.4855	345.75	2.2
0.516	353.18	2.52
0.5245	358.09	3.18
0.533	361.17	2.78
0.998	345.11	69.99
0.9985	325.22	48.91
0.9991	302.43	34.98
0.9992	298.15	31.37
0.9995	292.64	17.6

System: water + 1-ethyl-3-methylimidazolium bis((trifluoromethyl)sulfonyl)imide; phases: Liquid
Fixed: Pressure, kPa = 101.3
Property: Mass density, kg/m3 (Liquid); method: Vibrating tube method
Temperature, K	Mole fraction of water	Mass density, kg/m3	uncertainty
298.19	0	1519.3	2.8
298.19	0.0209	1518.3	2.8
298.19	0.0499	1516.9	2.7
298.19	0.0631	1516.2	2.7
298.19	0.1205	1513	2.6
298.19	0.1608	1510.7	2.5
298.19	0.2032	1508.1	2.5
298.19	0.3025	1501.3	2.3
323.17	0	1494.7	2.7
323.17	0.0353	1493.1	2.7
323.17	0.0581	1492	2.7
323.17	0.0834	1490.6	2.6
323.17	0.1164	1488.7	2.6
323.17	0.1611	1486.2	2.5
323.17	0.2221	1482.4	2.4

System: water + 1-butyl-3-methylimidazolium bis(trifluoromethylsulfonyl)imide; phases: Liquid mixture 1, Liquid mixture 2
Fixed: Pressure, kPa = 101.3
Property: Liquid-liquid equilibrium temperature, K (Liquid mixture 1); method: VISOBS
Mole fraction of water	Liquid-liquid equilibrium temperature, K	uncertainty
0.2431	290.13	2.81
0.2618	299.32	2.48
0.2891	307.12	2.45
0.3201	319.76	2.51
0.3571	332.89	2.4
0.3971	345.19	2.36
0.4123	350.14	2.33
0.4465	360.05	2.32
0.9983	357.32	2.01
0.9989	345.83	2.01
0.9994	320.64	2.01
0.9996	310.38	2.01
0.9998	290.27	2.01

System: water + 1-butyl-3-methylimidazolium bis(trifluoromethylsulfonyl)imide; phases: Liquid
Fixed: Pressure, kPa = 101.3
Property: Mass density, kg/m3 (Liquid); method: Vibrating tube method
Temperature, K	Mole fraction of water	Mass density, kg/m3	uncertainty
298.2	0	1437.1	2.6
298.2	0.0308	1435.7	2.6
298.2	0.0753	1434	2.5
298.2	0.1194	1432.2	2.5
298.2	0.1731	1430	2.4
298.2	0.2391	1426.7	2.3
323.21	0	1413.8	2.6
323.21	0.0482	1411.8	2.5
323.21	0.0816	1410.5	2.5
323.21	0.119	1408.8	2.4
323.21	0.1597	1407.1	2.4
323.21	0.2141	1404.5	2.3
323.21	0.2583	1402	2.3

System: water + 1-butyl-1-methylpyrrolidinium bis[(trifluoromethyl)sulfonyl]imide; phases: Liquid mixture 1, Liquid mixture 2
Fixed: Pressure, kPa = 101.3
Property: Liquid-liquid equilibrium temperature, K (Liquid mixture 1); method: VISOBS
Mole fraction of water	Liquid-liquid equilibrium temperature, K	uncertainty
0.18	278.46	2.26
0.226	290.35	2.31
0.243	297.17	2.41
0.265	303.45	2.38
0.2765	308.01	2.39
0.2921	312.37	2.54
0.305	319.21	2.7
0.325	327.37	2.45
0.345	333.21	2.24
0.3685	338.25	2.26
0.3902	345.11	2.49
0.3996	350.14	2.36
0.427	357.17	2.47
0.439	365.12	3.32
0.9994	358.06	2.01
0.9995	338.19	2.01
0.9997	318.24	2.01
0.9998	290.11	2.01

System: water + 1-butyl-1-methylpyrrolidinium bis[(trifluoromethyl)sulfonyl]imide; phases: Liquid
Fixed: Pressure, kPa = 101.3
Property: Mass density, kg/m3 (Liquid); method: Vibrating tube method
Temperature, K	Mole fraction of water	Mass density, kg/m3	uncertainty
298.21	0	1395.3	2.6
298.21	0.0435	1394	2.5
298.21	0.0654	1393.2	2.5
298.21	0.086	1392.3	2.5
298.21	0.0913	1392.1	2.5
298.21	0.1262	1390.7	2.4
298.21	0.1396	1390.1	2.4
298.21	0.1909	1388.1	2.3
298.21	0.2228	1387.1	2.3
323.21	0	1373.6	2.5
323.21	0.0298	1372.5	2.5
323.21	0.0673	1371.1	2.5
323.21	0.1012	1369.9	2.4
323.21	0.1406	1368.3	2.4
323.21	0.2033	1365.3	2.3

System: water + butyltrimethylammonium bis(trifluoromethylsulfonyl)imide; phases: Liquid mixture 1, Liquid mixture 2
Fixed: Pressure, kPa = 101.3
Property: Liquid-liquid equilibrium temperature, K (Liquid mixture 1); method: VISOBS
Mole fraction of water	Liquid-liquid equilibrium temperature, K	uncertainty
0.2043	289.15	2.38
0.2322	298.15	2.75
0.2564	313.78	2.62
0.2907	323.45	2.59
0.3192	339.75	2.83
0.3364	345.82	2.27
0.3876	358.34	2.2
0.4108	362.62	2.14
0.9996	353.15	2.01
0.9997	332.15	2.01
0.9998	318.15	2.01
0.9999	298.15	2.01

System: water + butyltrimethylammonium bis(trifluoromethylsulfonyl)imide; phases: Liquid
Fixed: Pressure, kPa = 101.3
Property: Mass density, kg/m3 (Liquid); method: Vibrating tube method
Temperature, K	Mole fraction of water	Mass density, kg/m3	uncertainty
293.15	0	1399.5	2.6
293.15	0.0387	1398.4	2.5
293.15	0.0765	1397	2.5
293.15	0.1132	1395.3	2.4
293.15	0.14	1394.1	2.4
293.15	0.189	1392.4	2.3
293.15	0.2108	1391.8	2.3
293.15	0.2322	1391.2	2.3
298.15	0	1395	2.6
298.15	0.0387	1393.9	2.5
298.15	0.0765	1392.5	2.5
298.15	0.1132	1390.8	2.4
298.15	0.14	1389.5	2.4
298.15	0.189	1387.8	2.3
298.15	0.2108	1387.2	2.3
298.15	0.2322	1386.6	2.3
303.15	0	1390.5	2.6
303.15	0.0387	1389.4	2.5
303.15	0.0765	1388	2.5
303.15	0.1132	1386.3	2.4
303.15	0.14	1385	2.4
303.15	0.189	1383.2	2.3
303.15	0.2108	1382.5	2.3
303.15	0.2322	1381.8	2.3
308.15	0	1386.1	2.5
308.15	0.0387	1384.9	2.5
308.15	0.0765	1383.5	2.5
308.15	0.1132	1381.9	2.4
308.15	0.14	1380.6	2.4
308.15	0.189	1378.7	2.3
308.15	0.2108	1377.8	2.3
308.15	0.2322	1377.1	2.3
313.15	0	1381.6	2.5
313.15	0.0387	1380.5	2.5
313.15	0.0765	1379	2.5
313.15	0.1132	1377.4	2.4
313.15	0.14	1376.1	2.4
313.15	0.189	1374.1	2.3
313.15	0.2108	1373.2	2.3
313.15	0.2322	1372.4	2.3
318.15	0	1377.1	2.5
318.15	0.0387	1376	2.5
318.15	0.0765	1374.6	2.5
318.15	0.1132	1372.9	2.4
318.15	0.14	1371.6	2.4
318.15	0.189	1369.6	2.3
318.15	0.2108	1368.7	2.3
318.15	0.2322	1367.8	2.3
323.15	0	1372.6	2.5
323.15	0.0387	1371.5	2.5
323.15	0.0765	1370	2.5
323.15	0.1132	1368.4	2.4
323.15	0.14	1367.1	2.4
323.15	0.189	1365.1	2.3
323.15	0.2108	1364.1	2.3
323.15	0.2322	1363.2	2.3
328.15	0	1368.2	2.5
328.15	0.0387	1367	2.5
328.15	0.0765	1365.5	2.4
328.15	0.1132	1363.9	2.4
328.15	0.14	1362.6	2.4
328.15	0.189	1360.5	2.3
328.15	0.2108	1359.5	2.3
328.15	0.2322	1358.5	2.3
333.15	0	1363.7	2.5
333.15	0.0387	1362.4	2.5
333.15	0.0765	1360.9	2.4
333.15	0.1132	1359.3	2.4
333.15	0.14	1358	2.4
333.15	0.189	1355.8	2.3
333.15	0.2108	1354.8	2.3
333.15	0.2322	1353.7	2.3
338.15	0	1359.2	2.5
338.15	0.0387	1357.9	2.5
338.15	0.0765	1356.3	2.4
338.15	0.1132	1354.7	2.4
338.15	0.14	1353.3	2.4
338.15	0.189	1351.1	2.3
338.15	0.2108	1350	2.3
338.15	0.2322	1348.7	2.3
343.15	0	1354.8	2.5
343.15	0.0387	1353.4	2.5
343.15	0.0765	1351.8	2.4
343.15	0.1132	1350.2	2.4
343.15	0.14	1348.7	2.4
343.15	0.189	1346.4	2.3
343.15	0.2108	1345.1	2.3
343.15	0.2322	1343.8	2.3

System: water + 1-butyl-3-methylimidazolium hexafluorophosphate; phases: Liquid mixture 1, Liquid mixture 2
Fixed: Pressure, kPa = 101.3
Property: Liquid-liquid equilibrium temperature, K (Liquid mixture 1); method: VISOBS
Mole fraction of water	Liquid-liquid equilibrium temperature, K	uncertainty
0.2832	295.76	2.12
0.297	298.15	2.24
0.3135	303.27	2.28
0.3401	309.97	2.16
0.3897	318.62	2.13
0.4231	324.82	2.12
0.4765	333.76	2.14
0.5084	340.76	2.1
0.5597	347	2.05
0.6563	356.41	2.01
0.9954	354.97	2.01
0.9966	343.75	2.01
0.9974	324.72	2.02
0.9979	314.24	2.02
0.9982	303.76	2.02
0.9984	298.15	2.02

System: water + 1-butyl-3-methylimidazolium hexafluorophosphate; phases: Liquid
Fixed: Pressure, kPa = 101.3
Property: Mass density, kg/m3 (Liquid); method: Vibrating tube method
Temperature, K	Mole fraction of water	Mass density, kg/m3	uncertainty
298.15	0	1368.3	2
298.15	0.0431	1366.5	2.1
298.15	0.0982	1363.5	2.1
298.15	0.1222	1362.1	2.1
298.15	0.1566	1360.1	2.1
298.15	0.1873	1358.5	2.1
298.15	0.2548	1355.5	2
298.15	0.2971	1354.1	2
323.15	0	1347.7	2
323.15	0.0431	1345.6	2.1
323.15	0.0982	1342.2	2.1
323.15	0.1222	1340.6	2.1
323.15	0.1566	1338.5	2.1
323.15	0.1873	1336.4	2.1
323.15	0.2548	1332.3	2.1
323.15	0.2971	1329.9	2.1

System: water + 1-butyl-3-methylimidazolium tetrafluoroborate; phases: Liquid
Fixed: Pressure, kPa = 101.3
Property: Mass density, kg/m3 (Liquid); method: Vibrating tube method
Temperature, K	Mole fraction of water	Mass density, kg/m3	uncertainty
298.15	0	1201.1	2.3
298.15	0.0895	1198.3	2.3
298.15	0.195	1194.4	2.2
298.15	0.308	1189.3	2.2
298.15	0.4996	1177.8	2.2
298.15	0.75	1147.9	2.7
298.15	0.899	1100.7	3.7
303.15	0	1197.4	2.3
303.15	0.0895	1194.6	2.3
303.15	0.195	1190.9	2.2
303.15	0.308	1185.8	2.2
303.15	0.4996	1173.9	2.3
303.15	0.75	1143.8	2.7
303.15	0.899	1097.2	3.7
333.15	0	1175.4	2.3
333.15	0.0895	1172.8	2.2
333.15	0.195	1169	2.2
333.15	0.308	1163.9	2.2
333.15	0.4996	1151.5	2.3
333.15	0.75	1121	2.7
333.15	0.899	1076.4	3.6

System: water + 1-ethyl-3-methylimidazolium ethyl sulfate; phases: Liquid
Fixed: Pressure, kPa = 101.3
Property: Mass density, kg/m3 (Liquid); method: Vibrating tube method
Temperature, K	Mole fraction of water	Mass density, kg/m3	uncertainty
293.15	0	1242.4	2.4
293.15	0.0514	1241.4	2.3
293.15	0.13	1239.8	2.2
293.15	0.1783	1238.8	2.2
293.15	0.2168	1237.8	2.2
293.15	0.2642	1236.4	2.2
293.15	0.3054	1235	2.2
293.15	0.3568	1233	2.1
293.15	0.4008	1231.2	2.1
293.15	0.4613	1228.1	2.1
293.15	0.5002	1225.9	2.1
293.15	0.5584	1221.8	2.2
293.15	0.6124	1217.1	2.3
293.15	0.6698	1210.7	2.4
293.15	0.7125	1204.3	2.7
293.15	0.7635	1194.2	3
293.15	0.8006	1184.2	3.9
293.15	0.8497	1165.4	5.1
293.15	0.8963	1139.3	11.7
293.15	1	998.2	2
298.15	0	1239.4	2.4
298.15	0.0514	1238.3	2.3
298.15	0.13	1236.8	2.2
298.15	0.1783	1235.7	2.2
298.15	0.2168	1234.7	2.2
298.15	0.2642	1233.3	2.2
298.15	0.3054	1232	2.1
298.15	0.3568	1230	2.1
298.15	0.4008	1228	2.1
298.15	0.4613	1225.2	2.1
298.15	0.5002	1222.9	2.2
298.15	0.5584	1218.8	2.2
298.15	0.6124	1213.9	2.3
298.15	0.6698	1207.4	2.4
298.15	0.7125	1200.8	2.7
298.15	0.7635	1190.4	3
298.15	0.8006	1180.5	3.9
298.15	0.8497	1162.1	5.1
298.15	0.8963	1135.6	11.9
298.15	1	997	2
303.15	0	1236.3	2.4
303.15	0.0514	1235.2	2.3
303.15	0.13	1233.6	2.2
303.15	0.1783	1232.6	2.2
303.15	0.2168	1231.5	2.2
303.15	0.2642	1230.2	2.2
303.15	0.3054	1228.8	2.1
303.15	0.3568	1226.9	2.1
303.15	0.4008	1225	2.1
303.15	0.4613	1222	2.1
303.15	0.5002	1219.7	2.2
303.15	0.5584	1215.6	2.2
303.15	0.6124	1210.8	2.3
303.15	0.6698	1204.1	2.4
303.15	0.7125	1197.6	2.7
303.15	0.7635	1187.1	3
303.15	0.8006	1177.2	3.9
303.15	0.8497	1158.8	5
303.15	0.8963	1132.8	11.7
303.15	1	995.6	2
308.15	0	1233.3	2.3
308.15	0.0514	1232.2	2.3
308.15	0.13	1230.6	2.2
308.15	0.1783	1229.5	2.2
308.15	0.2168	1228.5	2.2
308.15	0.2642	1227.1	2.2
308.15	0.3054	1225.8	2.1
308.15	0.3568	1223.9	2.1
308.15	0.4008	1221.9	2.1
308.15	0.4613	1218.9	2.1
308.15	0.5002	1216.6	2.2
308.15	0.5584	1212.4	2.2
308.15	0.6124	1207.6	2.3
308.15	0.6698	1200.9	2.4
308.15	0.7125	1194.3	2.7
308.15	0.7635	1184	3.1
308.15	0.8006	1173.6	3.9
308.15	0.8497	1155.5	5.1
308.15	0.8963	1129	11.6
308.15	1	994	2
313.15	0	1230.2	2.3
313.15	0.0514	1229.1	2.3
313.15	0.13	1227.4	2.2
313.15	0.1783	1226.3	2.2
313.15	0.2168	1225.4	2.2
313.15	0.2642	1223.9	2.2
313.15	0.3054	1222.6	2.1
313.15	0.3568	1220.7	2.1
313.15	0.4008	1218.7	2.1
313.15	0.4613	1215.6	2.1
313.15	0.5002	1213.4	2.2
313.15	0.5584	1209.2	2.2
313.15	0.6124	1204.4	2.3
313.15	0.6698	1197.6	2.4
313.15	0.7125	1190.9	2.7
313.15	0.7635	1180.6	3.1
313.15	0.8006	1170.3	3.9
313.15	0.8497	1152.3	5
313.15	0.8963	1126	11.5
313.15	1	992.2	2
318.15	0	1227.2	2.3
318.15	0.0514	1226.1	2.3
318.15	0.13	1224.4	2.2
318.15	0.1783	1223.3	2.2
318.15	0.2168	1222.3	2.2
318.15	0.2642	1220.8	2.2
318.15	0.3054	1219.5	2.1
318.15	0.3568	1217.6	2.1
318.15	0.4008	1215.6	2.1
318.15	0.4613	1212.4	2.1
318.15	0.5002	1210.1	2.2
318.15	0.5584	1206	2.2
318.15	0.6124	1201.1	2.3
318.15	0.6698	1194.3	2.4
318.15	0.7125	1187.6	2.7
318.15	0.7635	1177.2	3.1
318.15	0.8006	1167	3.9
318.15	0.8497	1148.9	5
318.15	0.8963	1123	11.4
318.15	1	990.1	2
323.15	0	1224.1	2.3
323.15	0.0514	1223	2.3
323.15	0.13	1221.3	2.2
323.15	0.1783	1220.1	2.2
323.15	0.2168	1219.1	2.2
323.15	0.2642	1217.6	2.2
323.15	0.3054	1216.3	2.1
323.15	0.3568	1214.4	2.1
323.15	0.4008	1212.4	2.1
323.15	0.4613	1209.3	2.1
323.15	0.5002	1206.9	2.2
323.15	0.5584	1202.8	2.2
323.15	0.6124	1197.8	2.3
323.15	0.6698	1191	2.4
323.15	0.7125	1184.3	2.7
323.15	0.7635	1173.7	3.1
323.15	0.8006	1163.5	3.9
323.15	0.8497	1145.2	5
323.15	0.8963	1119.6	11.3
323.15	1	988	2
328.15	0	1221.1	2.3
328.15	0.0514	1220	2.3
328.15	0.13	1218.2	2.2
328.15	0.1783	1216.9	2.2
328.15	0.2168	1216	2.2
328.15	0.2642	1214.6	2.2
328.15	0.3054	1213.2	2.1
328.15	0.3568	1211.2	2.1
328.15	0.4008	1209.3	2.1
328.15	0.4613	1206.1	2.1
328.15	0.5002	1203.8	2.2
328.15	0.5584	1199.6	2.2
328.15	0.6124	1194.6	2.3
328.15	0.6698	1187.7	2.4
328.15	0.7125	1181	2.8
328.15	0.7635	1170.2	3.1
328.15	0.8006	1160	3.9
328.15	0.8497	1141.6	5
328.15	0.8963	1116.4	11.2
328.15	1	985.7	2
333.15	0	1218.1	2.3
333.15	0.0514	1216.9	2.3
333.15	0.13	1215.2	2.2
333.15	0.1783	1213.9	2.2
333.15	0.2168	1212.9	2.2
333.15	0.2642	1211.5	2.2
333.15	0.3054	1210.1	2.1
333.15	0.3568	1208.2	2.1
333.15	0.4008	1206.2	2.1
333.15	0.4613	1203.1	2.1
333.15	0.5002	1200.7	2.2
333.15	0.5584	1196.4	2.2
333.15	0.6124	1191.4	2.3
333.15	0.6698	1184.3	2.4
333.15	0.7125	1177.5	2.8
333.15	0.7635	1166.8	3.1
333.15	0.8006	1156.6	3.9
333.15	0.8497	1138.3	5
333.15	0.8963	1112.9	11.1
333.15	1	983.2	2
338.15	0	1215.1	2.3
338.15	0.0514	1213.8	2.3
338.15	0.13	1212.1	2.2
338.15	0.1783	1210.9	2.2
338.15	0.2168	1209.9	2.2
338.15	0.2642	1208.4	2.2
338.15	0.3054	1207	2.1
338.15	0.3568	1205.1	2.1
338.15	0.4008	1203.1	2.1
338.15	0.4613	1200	2.1
338.15	0.5002	1197.6	2.2
338.15	0.5584	1193.2	2.2
338.15	0.6124	1188.1	2.3
338.15	0.6698	1180.9	2.5
338.15	0.7125	1173.9	2.7
338.15	0.7635	1163.5	3.1
338.15	0.8006	1153.2	3.9
338.15	0.8497	1134.9	5
338.15	0.8963	1109.3	11.1
338.15	1	980.5	2
343.15	0	1212	2.3
343.15	0.0514	1210.7	2.3
343.15	0.13	1208.9	2.2
343.15	0.1783	1207.8	2.2
343.15	0.2168	1206.7	2.2
343.15	0.2642	1205.3	2.1
343.15	0.3054	1203.9	2.1
343.15	0.3568	1201.9	2.1
343.15	0.4008	1200	2.1
343.15	0.4613	1196.8	2.1
343.15	0.5002	1194.3	2.2
343.15	0.5584	1189.9	2.2
343.15	0.6124	1184.7	2.3
343.15	0.6698	1177.4	2.5
343.15	0.7125	1170.4	2.7
343.15	0.7635	1159.9	3.1
343.15	0.8006	1149.5	3.9
343.15	0.8497	1131.3	5
343.15	0.8963	1106	10.8
343.15	1	977.8	2
