Measured thermophysical data. Density measurements of liquid 2-propanol at temperatures between (280 and 393) K and at pressures up to 10 MPa
Source: J. Chem. Thermodyn., 2009, 10.1016/j.jct.2008.12.014
Compound 1: propan-2-ol, C3H8O, InChI=1S/C3H8O/c1-3(2)4/h3-4H,1-2H3, purity 99.8%

System: propan-2-ol; phases: Liquid
Property: Mass density, kg/m3 (Liquid); method: Vibrating tube method
Pressure, kPa	Temperature, K	Mass density, kg/m3	uncertainty
117.9	280.21	797.61	0.15
186.7	300.09	780.22	0.16
202.7	325.12	757.05	0.17
220.4	350.14	731.92	0.18
349.5	375.01	702.23	0.2
407.6	392.57	679.26	0.22
439.6	280.21	797.89	0.15
609.4	325.12	757.49	0.18
610.5	300.09	780.62	0.16
663.4	350.14	732.49	0.19
703.3	375.01	702.82	0.21
888.7	392.57	680.18	0.22
938.7	280.21	798.29	0.16
953.4	300.09	780.94	0.17
960	325.12	757.87	0.18
1046.8	375.01	703.38	0.21
1071.2	350.14	733.03	0.19
1171.4	392.57	680.72	0.23
1253.9	325.12	758.21	0.18
1328.4	280.21	798.62	0.16
1339.5	300.09	781.31	0.17
1412.6	350.14	733.49	0.2
1437.5	375.01	704.01	0.22
1526.6	392.57	681.39	0.23
1638.8	325.12	758.63	0.19
1656.6	280.21	798.89	0.16
1722.1	300.09	781.66	0.18
1791.6	375.01	704.58	0.22
1844.7	350.14	734.07	0.2
1897.4	392.57	682.08	0.24
1944.9	280.21	799.14	0.17
2021	325.12	759.06	0.19
2044.8	300.09	781.96	0.18
2161.7	375.01	705.16	0.23
2226.7	350.14	734.58	0.21
2272.3	392.57	682.77	0.24
2328.8	325.12	759.39	0.2
2440.6	280.21	799.56	0.17
2446.4	300.09	782.34	0.18
2545.7	375.01	705.76	0.23
2619.1	392.57	683.41	0.25
2644.7	350.14	735.11	0.21
2655.8	325.15	759.75	0.2
2834.6	300.09	782.7	0.19
2842.7	350.14	735.41	0.22
2850.6	280.21	799.88	0.18
2909.9	375.01	706.34	0.24
3014.9	325.12	760.15	0.2
3050.4	392.57	684.2	0.25
3198	280.21	800.17	0.18
3224.9	300.09	783.06	0.19
3286.9	350.14	735.99	0.22
3321.4	325.12	760.48	0.21
3364.1	375.01	707.04	0.24
3411.2	392.57	684.86	0.26
3630.7	350.14	736.45	0.23
3659.4	325.12	760.85	0.21
3671.1	300.09	783.47	0.2
3677.6	375.01	707.53	0.25
3679.1	280.21	800.56	0.18
3835	392.57	685.63	0.27
4004.1	325.12	761.22	0.21
4012.2	350.14	736.94	0.23
4071.1	280.21	800.9	0.19
4074.1	300.09	783.84	0.2
4083.2	375.01	708.16	0.25
4095.7	392.57	686.12	0.27
4362.5	300.09	784.11	0.2
4394.6	350.14	737.43	0.24
4399.2	325.12	761.65	0.22
4437.7	280.21	801.19	0.19
4515.7	375.01	708.82	0.26
4524.9	392.57	686.89	0.28
4691.2	325.12	761.97	0.22
4757.6	350.14	737.91	0.24
4771.8	300.09	784.48	0.21
4832.6	280.21	801.5	0.19
4853.5	375.01	709.33	0.26
4902.8	392.57	687.57	0.28
5010.7	325.12	762.32	0.23
5182.1	280.21	801.8	0.2
5197.9	350.14	738.48	0.25
5226.5	300.09	784.89	0.21
5280.2	375.01	709.98	0.27
5283.5	392.57	688.24	0.29
5383.4	325.12	762.71	0.23
5559.1	280.21	802.1	0.2
5577.9	350.14	738.96	0.25
5579.2	300.09	785.21	0.21
5646.9	375.01	710.53	0.27
5730.5	325.12	763.08	0.23
5775.9	392.57	689.09	0.29
5910	280.21	802.39	0.2
5939.3	350.14	739.42	0.25
6001.6	300.09	785.59	0.22
6039.6	392.57	689.55	0.3
6138.1	375.01	711.26	0.28
6143.6	325.12	763.52	0.24
6321.3	350.14	739.89	0.26
6334.9	280.21	802.73	0.21
6427.2	300.09	785.98	0.22
6447.1	375.01	711.73	0.28
6476.6	392.57	690.3	0.3
6525.6	325.12	763.91	0.24
6730.9	350.14	740.41	0.26
6750.9	280.21	803.06	0.21
6780.3	300.09	786.29	0.23
6880.9	375.01	712.37	0.29
6889.7	392.57	691.01	0.31
6903.2	325.12	764.31	0.25
7119.7	350.14	740.89	0.27
7166.5	281.21	803.39	0.22
7214.7	300.09	786.68	0.23
7269.8	375.01	712.94	0.3
7293.8	325.12	764.72	0.25
7348	392.57	691.78	0.32
7564.4	350.14	741.45	0.27
7592	280.21	803.74	0.22
7629.9	300.09	787.05	0.23
7661.9	325.12	765.11	0.25
7728	392.57	692.42	0.32
7772.4	375.01	713.68	0.3
7918.6	325.12	765.38	0.26
7988.5	350.14	741.97	0.28
7999	280.21	804.07	0.22
8020.3	300.09	787.4	0.24
8119.2	375.01	714.18	0.31
8172.7	392.57	693.17	0.33
8254.4	325.12	765.72	0.26
8329	280.21	804.33	0.23
8417.5	300.09	787.75	0.24
8472.5	350.14	742.55	0.28
8557.2	375.01	714.81	0.31
8598.3	392.57	693.88	0.33
8755.5	325.12	766.24	0.27
8805.7	300.09	788.1	0.25
8817	280.21	804.7	0.23
8925.8	350.14	743.13	0.29
8987.3	375.01	715.42	0.32
9018.5	392.57	694.57	0.34
9212.9	300.09	788.45	0.25
9280.8	350.14	743.56	0.29
9350.6	280.21	805.11	0.24
9405	392.57	695.2	0.34
9423.8	375.01	716.04	0.32
9621.5	300.09	788.81	0.25
9658.5	280.21	805.38	0.24
9676.3	350.14	744.05	0.3
9837.9	392.57	695.89	0.35
9842.2	375.01	716.64	0.33
