Measured thermophysical data. Energetics of aminomethylpyrimidines: An examination of the aromaticity of nitrogen heteromonocyclic derivatives
Source: J. Chem. Thermodyn., 2013, 10.1016/j.jct.2013.03.010
Compound 1: carbon dioxide, CO2, InChI=1S/CO2/c2-1-3
Compound 2: nitrogen, N2, InChI=1S/N2/c1-2
Compound 3: water, H2O, InChI=1S/H2O/h1H2
Compound 4: oxygen, O2, InChI=1S/O2/c1-2
Compound 5: 2-amino-4-methylpyrimidine, C5H7N3, InChI=1S/C5H7N3/c1-4-2-3-7-5(6)8-4/h2-3H,1H3,(H2,6,7,8), purity 98%
Compound 6: 2-amino-4,6-dimethylpyrimidine, C6H9N3, InChI=1S/C6H9N3/c1-4-3-5(2)9-6(7)8-4/h3H,1-2H3,(H2,7,8,9), purity 98%
Compound 7: 4-amino-2,6-dimethylpyrimidine, C6H9N3, InChI=1S/C6H9N3/c1-4-3-6(7)9-5(2)8-4/h3H,1-2H3,(H2,7,8,9), purity 99%

System: 2-amino-4-methylpyrimidine; phases: Crystal
Property: Mass density, kg/m3 (Crystal); method: from the mass and dimensions of a pellet of the compound made in vacuum
Temperature, K	Pressure, kPa	Mass density, kg/m3	uncertainty
298.15	101.325	1230	120

System: 2-amino-4-methylpyrimidine; phases: Crystal, Gas
Property: Vapor or sublimation pressure, kPa (Crystal); method: Calculated from knudsen effusion weight loss
Temperature, K	Vapor or sublimation pressure, kPa	uncertainty
288.138	6.02e-05	3e-06
290.246	7.83e-05	3.9e-06
292.419	0.000101	5e-06
294.25	0.000125	6e-06
296.107	0.000153	8e-06
298.369	0.000207	1e-05
299.219	0.000238	1.2e-05
302.218	0.000336	1.7e-05
304.249	0.00042	2.1e-05
306.142	0.000516	2.6e-05
308.05	0.000649	3.2e-05
310.265	0.000809	4.1e-05
312.129	0.001017	0.000102
288.138	6.11e-05	3.1e-06
290.246	7.6e-05	3.8e-06
292.419	9.62e-05	4.8e-06
294.25	0.000123	6e-06
296.107	0.000155	8e-06
298.369	0.000206	1e-05
299.219	0.000233	1.2e-05
302.218	0.000334	1.7e-05
304.249	0.00041	2.1e-05
306.142	0.000513	2.6e-05
308.05	0.000619	3.1e-05
310.265	0.000804	4e-05
312.129	0.001006	0.000101
288.138	5.79e-05	2.9e-06
290.246	7.19e-05	3.6e-06
294.25	0.000116	6e-06
296.107	0.000151	8e-06
298.369	0.000196	1e-05
299.219	0.000229	1.1e-05
302.218	0.000323	1.6e-05
304.249	0.000396	2e-05
306.142	0.000501	2.5e-05
308.05	0.000608	3e-05
312.129	0.000959	4.8e-05

System: 2-amino-4,6-dimethylpyrimidine; phases: Crystal
Property: Mass density, kg/m3 (Crystal); method: from the mass and dimensions of a pellet of the compound made in vacuum
Temperature, K	Pressure, kPa	Mass density, kg/m3	uncertainty
298.15	101.325	1240	120

System: 2-amino-4,6-dimethylpyrimidine; phases: Crystal, Gas
Property: Vapor or sublimation pressure, kPa (Crystal); method: Calculated from knudsen effusion weight loss
Temperature, K	Vapor or sublimation pressure, kPa	uncertainty
290.044	6.78e-05	3.4e-06
292.1	9.47e-05	4.8e-06
294.12	0.000125	6e-06
296.325	0.00015	8e-06
298.271	0.000205	1e-05
300.14	0.000254	1.3e-05
302.207	0.000319	1.6e-05
304.165	0.000397	2e-05
306.39	0.000509	2.5e-05
308.321	0.000636	3.2e-05
310.106	0.000776	3.9e-05
312.12	0.000948	4.7e-05
290.044	6.81e-05	3.4e-06
292.1	9.26e-05	4.6e-06
294.12	0.000117	6e-06
296.325	0.000148	7e-06
298.271	0.000196	1e-05
300.14	0.000249	1.2e-05
302.207	0.000312	1.6e-05
306.39	0.000509	2.5e-05
308.321	0.000639	3.2e-05
310.106	0.000774	3.9e-05
312.12	0.000962	4.8e-05
290.044	6.81e-05	3.4e-06
292.1	9.04e-05	4.5e-06
294.12	0.000112	6e-06
296.325	0.000147	7e-06
298.271	0.000188	9e-06
300.14	0.000243	1.2e-05
302.207	0.00031	1.6e-05
304.165	0.000382	1.9e-05
306.39	0.000504	2.5e-05
308.321	0.000621	3.1e-05
310.106	0.000734	3.7e-05
312.12	0.000908	4.5e-05

System: 4-amino-2,6-dimethylpyrimidine; phases: Crystal
Property: Mass density, kg/m3 (Crystal); method: from the mass and dimensions of a pellet of the compound made in vacuum
Temperature, K	Pressure, kPa	Mass density, kg/m3	uncertainty
298.15	101.325	1250	130

System: 4-amino-2,6-dimethylpyrimidine; phases: Crystal, Gas
Property: Vapor or sublimation pressure, kPa (Crystal); method: Calculated from knudsen effusion weight loss
Temperature, K	Vapor or sublimation pressure, kPa	uncertainty
309.181	4.19e-05	2.1e-06
311.158	5.46e-05	2.7e-06
313.102	6.58e-05	3.3e-06
315.126	9.03e-05	4.5e-06
317.206	0.000115	6e-06
321.13	0.00018	9e-06
323.192	0.000231	1.2e-05
327.097	0.000351	1.8e-05
329.132	0.000463	2.3e-05
331.164	0.000556	2.8e-05
333.166	0.000662	3.3e-05
335.114	0.000838	4.2e-05
337.089	0.001025	0.000103
309.181	4.24e-05	2.1e-06
311.158	5.47e-05	2.7e-06
313.102	7.22e-05	3.6e-06
315.126	8.86e-05	4.4e-06
317.206	0.000112	6e-06
319.165	0.000137	7e-06
321.13	0.000182	9e-06
323.192	0.000228	1.1e-05
325.172	0.000277	1.4e-05
327.097	0.000368	1.8e-05
329.132	0.000452	2.3e-05
331.164	0.000547	2.7e-05
333.166	0.000652	3.3e-05
335.114	0.000829	4.2e-05
337.089	0.001041	0.000105
309.181	3.81e-05	1.9e-06
311.158	4.97e-05	2.5e-06
313.102	6.6e-05	3.3e-06
315.126	8.56e-05	4.3e-06
317.206	0.00011	6e-06
319.165	0.000134	7e-06
321.13	0.000177	9e-06
323.192	0.00022	1.1e-05
325.172	0.000273	1.4e-05
327.097	0.000349	1.7e-05
329.132	0.000421	2.1e-05
331.164	0.000534	2.7e-05
333.166	0.000627	3.1e-05
335.114	0.000764	3.8e-05
337.089	0.000973	4.9e-05

Reaction: -1 2-amino-4-methylpyrimidine + 5 carbon dioxide + 1.5 nitrogen + 3.5 water + -6.75 oxygen
Property: Specific internal energy of reaction at constant volume, J/g
-27279.4

Reaction: -1 2-amino-4,6-dimethylpyrimidine + 6 carbon dioxide + 1.5 nitrogen + 4.5 water + -8.25 oxygen
Property: Specific internal energy of reaction at constant volume, J/g
-29328.4

Reaction: -1 4-amino-2,6-dimethylpyrimidine + 6 carbon dioxide + 1.5 nitrogen + 4.5 water + -8.25 oxygen
Property: Specific internal energy of reaction at constant volume, J/g
-29278.9
