Measured thermophysical data. Isothermal (vapour + liquid) equilibrium at several temperatures of (1-chlorobutane + 1-octanol, or 1-decanol)
Source: J. Chem. Thermodyn., 2004, 10.1016/j.jct.2003.09.009
Compound 1: 1-chlorobutane, C4H9Cl, InChI=1S/C4H9Cl/c1-2-3-4-5/h2-4H2,1H3
Compound 2: octan-1-ol, C8H18O, InChI=1S/C8H18O/c1-2-3-4-5-6-7-8-9/h9H,2-8H2,1H3
Compound 3: decan-1-ol, C10H22O, InChI=1S/C10H22O/c1-2-3-4-5-6-7-8-9-10-11/h11H,2-10H2,1H3

System: 1-chlorobutane; phases: Liquid, Gas
Property: Vapor or sublimation pressure, kPa (Liquid); method: CCELL:UFactor:2
Temperature, K	Vapor or sublimation pressure, kPa	uncertainty
278.15	4.981	0.031
283.15	6.513	0.036
288.15	8.381	0.042
293.15	10.694	0.049
298.15	13.499	0.058
303.15	16.971	0.069
308.15	21.05	0.081
313.15	25.878	0.096
318.15	31.589	0.114
323.15	38.258	0.135

System: octan-1-ol; phases: Liquid, Gas
Property: Vapor or sublimation pressure, kPa (Liquid); method: CCELL:UFactor:2
Temperature, K	Vapor or sublimation pressure, kPa	uncertainty
293.15	0.003	0.002
298.15	0.007	0.002
303.15	0.011	0.002
308.15	0.019	0.002
313.15	0.031	0.002
318.15	0.051	0.003
323.15	0.08	0.003

System: decan-1-ol; phases: Liquid, Gas
Property: Vapor or sublimation pressure, kPa (Liquid); method: CCELL:UFactor:2
Temperature, K	Vapor or sublimation pressure, kPa	uncertainty
313.15	0.004	0.003
318.15	0.007	0.003
323.15	0.011	0.003

System: 1-chlorobutane + octan-1-ol; phases: Liquid, Gas
Property: Vapor or sublimation pressure, kPa (Liquid); method: CCELL:UFactor:2
Temperature, K	Mole fraction of octan-1-ol	Vapor or sublimation pressure, kPa	uncertainty
278.15	0.1054	4.741	0.061
278.15	0.2095	4.552	0.059
278.15	0.308	4.36	0.058
278.15	0.4027	4.134	0.057
278.15	0.5066	3.765	0.055
278.15	0.6201	3.246	0.051
278.15	0.6907	2.817	0.049
278.15	0.7713	2.246	0.045
278.15	0.8891	1.228	0.042
278.15	0.9219	0.889	0.032
283.15	0.1055	6.177	0.07
283.15	0.2096	5.914	0.068
283.15	0.3081	5.669	0.066
283.15	0.4028	5.34	0.064
283.15	0.5068	4.853	0.061
283.15	0.6203	4.165	0.057
283.15	0.6909	3.629	0.054
283.15	0.7715	2.898	0.049
283.15	0.8892	1.593	0.041
283.15	0.922	1.133	0.04
288.15	0.1055	7.947	0.081
288.15	0.2097	7.619	0.079
288.15	0.3083	7.249	0.076
288.15	0.4031	6.818	0.074
288.15	0.507	6.177	0.07
288.15	0.6206	5.294	0.064
288.15	0.6911	4.598	0.06
288.15	0.7717	3.67	0.055
288.15	0.8893	1.985	0.044
288.15	0.9221	1.405	0.041
293.15	0.1056	10.107	0.094
293.15	0.2099	9.667	0.091
293.15	0.3085	9.186	0.088
293.15	0.4034	8.627	0.085
293.15	0.5074	7.797	0.08
293.15	0.6209	6.677	0.073
293.15	0.6915	5.79	0.068
293.15	0.772	4.617	0.061
293.15	0.8895	2.466	0.048
293.15	0.9222	1.775	0.044
298.15	0.1057	12.707	0.11
298.15	0.2101	12.144	0.107
298.15	0.3088	11.507	0.103
298.15	0.4038	10.798	0.099
298.15	0.5078	9.753	0.092
298.15	0.6213	8.293	0.083
298.15	0.6919	7.209	0.077
298.15	0.7723	5.746	0.068
298.15	0.8897	3.093	0.052
298.15	0.9223	2.261	0.048
303.15	0.1056	15.911	0.131
303.15	0.2098	15.187	0.126
303.15	0.3093	14.352	0.121
303.15	0.4043	13.444	0.115
303.15	0.5084	12.079	0.107
303.15	0.6219	10.28	0.096
303.15	0.6925	8.905	0.088
303.15	0.7728	7.089	0.077
303.15	0.8899	3.813	0.057
303.15	0.9225	2.777	0.052
308.15	0.1057	19.665	0.154
308.15	0.2101	18.722	0.148
308.15	0.3088	17.663	0.142
308.15	0.4036	16.523	0.135
308.15	0.509	14.811	0.124
308.15	0.6211	12.568	0.11
308.15	0.6931	10.86	0.1
308.15	0.7733	8.633	0.087
308.15	0.8902	4.63	0.063
308.15	0.9226	3.384	0.057
313.15	0.1059	24.135	0.182
313.15	0.2105	22.798	0.174
313.15	0.3093	21.578	0.166
313.15	0.4042	20.16	0.157
313.15	0.5082	18.047	0.145
313.15	0.6216	15.293	0.128
313.15	0.6921	13.155	0.115
313.15	0.774	10.438	0.099
313.15	0.8905	5.585	0.071
313.15	0.9229	4.073	0.063
318.15	0.1061	29.399	0.215
318.15	0.2111	27.804	0.205
318.15	0.3101	26.129	0.195
318.15	0.4051	24.358	0.184
318.15	0.5091	21.786	0.168
318.15	0.6224	18.38	0.147
318.15	0.6929	15.845	0.132
318.15	0.7749	12.515	0.113
318.15	0.8909	6.671	0.079
318.15	0.9231	4.866	0.07
323.15	0.1065	35.51	0.253
323.15	0.2118	33.517	0.24
323.15	0.3111	31.452	0.228
323.15	0.4063	29.214	0.214
323.15	0.5103	26.061	0.195
323.15	0.6235	21.93	0.17
323.15	0.6939	18.908	0.152
323.15	0.7759	14.832	0.128
323.15	0.8914	7.913	0.088
323.15	0.9234	5.774	0.078

System: 1-chlorobutane + decan-1-ol; phases: Liquid, Gas
Property: Vapor or sublimation pressure, kPa (Liquid); method: CCELL:UFactor:2
Temperature, K	Mole fraction of decan-1-ol	Vapor or sublimation pressure, kPa	uncertainty
283.15	0.0995	6.118	0.069
283.15	0.2246	5.89	0.068
283.15	0.3335	5.512	0.066
283.15	0.4486	4.981	0.063
283.15	0.4879	4.794	0.061
283.15	0.5905	4.16	0.058
283.15	0.6848	3.449	0.053
283.15	0.7374	2.976	0.05
283.15	0.8005	2.409	0.047
283.15	0.8704	1.531	0.041
283.15	0.9223	0.903	0.033
288.15	0.0996	7.962	0.081
288.15	0.2247	7.531	0.078
288.15	0.3338	7.05	0.075
288.15	0.4489	6.362	0.071
288.15	0.4881	6.106	0.07
288.15	0.5908	5.278	0.065
288.15	0.685	4.366	0.059
288.15	0.7377	3.789	0.056
288.15	0.8008	3.05	0.051
288.15	0.8706	1.967	0.044
288.15	0.9224	1.168	0.041
293.15	0.0996	10.175	0.095
293.15	0.2249	9.541	0.091
293.15	0.334	8.923	0.087
293.15	0.4493	8.027	0.082
293.15	0.4884	7.714	0.08
293.15	0.5912	6.647	0.074
293.15	0.6852	5.506	0.067
293.15	0.7379	4.762	0.062
293.15	0.801	3.826	0.056
293.15	0.8708	2.549	0.049
293.15	0.9225	1.52	0.042
298.15	0.0997	12.775	0.111
298.15	0.2252	12.008	0.106
298.15	0.3343	11.206	0.102
298.15	0.4498	10.065	0.095
298.15	0.4887	9.629	0.092
298.15	0.5917	8.265	0.084
298.15	0.6856	6.862	0.076
298.15	0.7383	5.902	0.07
298.15	0.8014	4.726	0.063
298.15	0.871	3.158	0.053
298.15	0.9226	1.908	0.045
303.15	0.0996	15.964	0.131
303.15	0.2256	14.972	0.125
303.15	0.3348	13.927	0.119
303.15	0.4505	12.488	0.11
303.15	0.4892	11.947	0.107
303.15	0.5924	10.23	0.097
303.15	0.686	8.455	0.086
303.15	0.7387	7.299	0.079
303.15	0.8019	5.821	0.07
303.15	0.8713	3.882	0.058
303.15	0.9228	2.397	0.049
308.15	0.0998	19.734	0.155
308.15	0.2252	18.461	0.147
308.15	0.3344	17.141	0.139
308.15	0.4514	15.307	0.129
308.15	0.4886	14.655	0.125
308.15	0.5933	12.527	0.112
308.15	0.6865	10.323	0.099
308.15	0.7392	8.889	0.09
308.15	0.8024	7.073	0.079
308.15	0.8717	4.705	0.065
308.15	0.9229	2.993	0.054
313.15	0.0999	24.217	0.183
313.15	0.2257	22.574	0.173
313.15	0.3349	20.905	0.163
313.15	0.4507	18.665	0.15
313.15	0.4891	17.835	0.145
313.15	0.5921	15.257	0.13
313.15	0.6872	12.498	0.113
313.15	0.7399	10.754	0.103
313.15	0.8031	8.529	0.089
313.15	0.8721	5.672	0.072
313.15	0.9232	3.614	0.059
318.15	0.1001	29.488	0.216
318.15	0.2264	27.367	0.203
318.15	0.3356	25.281	0.191
318.15	0.4518	22.493	0.175
318.15	0.4898	21.506	0.169
318.15	0.593	18.31	0.15
318.15	0.688	14.983	0.13
318.15	0.7408	12.878	0.117
318.15	0.8039	10.187	0.101
318.15	0.8726	6.746	0.08
318.15	0.9234	4.309	0.065
323.15	0.1005	35.612	0.254
323.15	0.2274	32.952	0.238
323.15	0.3367	30.35	0.223
323.15	0.4534	26.924	0.203
323.15	0.4909	25.714	0.196
323.15	0.5943	21.83	0.173
323.15	0.6891	17.833	0.149
323.15	0.7395	15.403	0.134
323.15	0.805	12.076	0.115
323.15	0.8733	7.953	0.09
323.15	0.9237	5.106	0.073
