Measured thermophysical data. The vaporization enthalpy and vapor pressures of liquid adamantane, diamantane and alpha- and beta-cedrene by correlation gas chromatography
Source: J. Chem. Thermodyn., 2018, 10.1016/j.jct.2018.02.016
Compound 1: adamantane, C10H16, InChI=1S/C10H16/c1-7-2-9-4-8(1)5-10(3-7)6-9/h7-10H,1-6H2, purity 99%
Compound 2: pentacyclo[7.3.1.1(4,12).0(2,7).0(6,11)]tetradecane, C14H20, InChI=1S/C14H20/c1-7-2-12-10-4-8-5-11(9(1)10)13(3-7)14(12)6-8/h7-14H,1-6H2, purity 98%
Compound 3: alpha-cedrene, C15H24, InChI=1S/C15H24/c1-10-7-8-15-9-12(10)14(3,4)13(15)6-5-11(15)2/h7,11-13H,5-6,8-9H2,1-4H3/t11-,12+,13+,15+/m1/s1, purity 95%
Compound 4: beta-cedrene, C15H24, InChI=1S/C15H24/c1-10-7-8-15-9-12(10)14(3,4)13(15)6-5-11(15)2/h11-13H,1,5-9H2,2-4H3/t11-,12+,13+,15+/m1/s1, purity 95%

System: adamantane; phases: Liquid, Gas
Property: Molar enthalpy of vaporization or sublimation, kJ/mol (Liquid); method: Correlation gas chromatography
Temperature, K	Molar enthalpy of vaporization or sublimation, kJ/mol	uncertainty
298.15	48.5	7.7

System: adamantane; phases: Metastable liquid, Gas
Property: Vapor or sublimation pressure, kPa (Metastable liquid); method: Gas chromatography
Temperature, K	Vapor or sublimation pressure, kPa	uncertainty
298.15	0.13	0.12
310	0.26	0.22
320	0.46	0.34
330	0.77	0.5
340	1.3	0.7
350	2	1
360	3.1	1.4
370	4.6	1.8
380	6.8	2.3
390	9.8	2.9
400	14	3
410	19	4
420	26	5
430	35	5
440	46	6
545	460	46
555	550	55
565	650	65
575	760	76

System: pentacyclo[7.3.1.1(4,12).0(2,7).0(6,11)]tetradecane; phases: Liquid, Gas
Property: Molar enthalpy of vaporization or sublimation, kJ/mol (Liquid); method: Correlation gas chromatography
Temperature, K	Molar enthalpy of vaporization or sublimation, kJ/mol	uncertainty
298.15	65	8.9

System: pentacyclo[7.3.1.1(4,12).0(2,7).0(6,11)]tetradecane; phases: Metastable liquid, Gas
Property: Vapor or sublimation pressure, kPa (Metastable liquid); method: Gas chromatography
Temperature, K	Vapor or sublimation pressure, kPa	uncertainty
298.15	0.0016	0.0022
310	0.0043	0.005
320	0.0091	0.0096
330	0.018	0.017
340	0.036	0.03
350	0.066	0.05
360	0.12	0.082
370	0.2	0.131
380	0.34	0.197
390	0.55	0.303
400	0.87	0.424
410	1.3	0.607
420	2	0.832
430	3	1.12
440	4.3	1.491
516	44.3	4.431
526	56	5.601
536	71	7.101
546	89	8.902

System: alpha-cedrene; phases: Liquid, Gas
Property: Molar enthalpy of vaporization or sublimation, kJ/mol (Liquid); method: Correlation gas chromatography
Temperature, K	Molar enthalpy of vaporization or sublimation, kJ/mol	uncertainty
298.15	65	4.1

System: alpha-cedrene; phases: Metastable liquid, Gas
Property: Vapor or sublimation pressure, kPa (Metastable liquid); method: Gas chromatography
Temperature, K	Vapor or sublimation pressure, kPa	uncertainty
298.15	0.0031	0.0016
310	0.0081	0.0042
320	0.017	0.009
330	0.035	0.017
340	0.067	0.03
350	0.12	0.051
360	0.22	0.082
370	0.37	0.121
380	0.61	0.168
390	0.99	0.231
400	1.5	0.3
410	2.4	0.381
420	3.5	0.489
430	5.1	0.651
440	7.3	0.889
533.2	101.3	10.181

System: beta-cedrene; phases: Liquid, Gas
Property: Molar enthalpy of vaporization or sublimation, kJ/mol (Liquid); method: Correlation gas chromatography
Temperature, K	Molar enthalpy of vaporization or sublimation, kJ/mol	uncertainty
298.15	64.9	4.1

System: beta-cedrene; phases: Metastable liquid, Gas
Property: Vapor or sublimation pressure, kPa (Metastable liquid); method: Gas chromatography
Temperature, K	Vapor or sublimation pressure, kPa	uncertainty
298.15	0.0031	0.0016
310	0.0081	0.0042
320	0.017	0.009
330	0.035	0.017
340	0.067	0.03
350	0.12	0.051
360	0.21	0.081
370	0.37	0.119
380	0.61	0.168
390	0.99	0.231
400	1.5	0.3
410	2.3	0.378
420	3.5	0.489
430	5.1	0.651
440	7.3	0.889
533.3	101.3	10.181
