Measured thermophysical data. Phase diagrams of (hexane + methanol + 2,2,2-trifluoroethanol) at three temperatures: Measurement and correlation
Source: J. Chem. Thermodyn., 2009, 10.1016/j.jct.2008.10.017
Compound 1: hexane, C6H14, InChI=1S/C6H14/c1-3-5-6-4-2/h3-6H2,1-2H3, purity 99.5%
Compound 2: heptane, C7H16, InChI=1S/C7H16/c1-3-5-7-6-4-2/h3-7H2,1-2H3, purity 99.5%
Compound 3: methanol, CH4O, InChI=1S/CH4O/c1-2/h2H,1H3, purity 99.7%
Compound 4: propan-2-ol, C3H8O, InChI=1S/C3H8O/c1-3(2)4/h3-4H,1-2H3, purity 99.5%
Compound 5: 2,2,2-trifluoroethanol, C2H3F3O, InChI=1S/C2H3F3O/c3-2(4,5)1-6/h6H,1H2, purity 99.2%

System: hexane; phases: Liquid
Property: Mass density, kg/m3 (Liquid); method: Vibrating tube method
Temperature, K	Pressure, kPa	Mass density, kg/m3	uncertainty
298.15	101.325	654.8	0.3

System: heptane; phases: Liquid
Property: Mass density, kg/m3 (Liquid); method: Vibrating tube method
Temperature, K	Pressure, kPa	Mass density, kg/m3	uncertainty
298.15	101.325	680	0.2

System: methanol; phases: Liquid
Property: Mass density, kg/m3 (Liquid); method: Vibrating tube method
Temperature, K	Pressure, kPa	Mass density, kg/m3	uncertainty
298.15	101.325	787	0.2

System: propan-2-ol; phases: Liquid
Property: Mass density, kg/m3 (Liquid); method: Vibrating tube method
Temperature, K	Pressure, kPa	Mass density, kg/m3	uncertainty
298.15	101.325	781.4	0.2

System: 2,2,2-trifluoroethanol; phases: Liquid
Property: Mass density, kg/m3 (Liquid); method: Vibrating tube method
Temperature, K	Pressure, kPa	Mass density, kg/m3	uncertainty
298.15	101.325	1382.4	0.6

System: methanol + 2,2,2-trifluoroethanol + hexane; phases: Liquid mixture 1, Liquid mixture 2
Fixed: Pressure, kPa = 100
Property: Mole fraction of hexane (Liquid mixture 1); method: Chromatography
Property: Mole fraction of hexane (Liquid mixture 2); method: Chromatography
Property: Mole fraction of methanol (Liquid mixture 2); method: Chromatography
Temperature, K	Mole fraction of methanol	Mole fraction of hexane	uncertainty	Mole fraction of hexane	uncertainty	Mole fraction of methanol	uncertainty
288.15	0.172	0.828	0.003	0.155	0.001	0.845	
288.15	0	0.829	0.002	0.099	0.001	0	
288.15	0.019	0.82	0.002	0.087	0.001	0.092	
288.15	0.027	0.831	0.002	0.08	0.001	0.154	
288.15	0.039	0.827	0.002	0.082	0.001	0.188	
288.15	0.078	0.822	0.002	0.102	0.001	0.264	
288.15	0.098	0.813	0.002	0.093	0.001	0.321	
288.15	0.118	0.81	0.002	0.104	0.001	0.377	
288.15	0.142	0.808	0.002	0.093	0.001	0.465	
288.15	0.147	0.808	0.002	0.096	0.001	0.554	
288.15	0.156	0.81	0.002	0.098	0.001	0.62	
288.15	0.166	0.806	0.002	0.114	0.001	0.723	
298.15	0.259	0.741	0.002	0.214	0.002	0.786	
298.15	0	0.761	0.002	0.155	0.001	0	
298.15	0.032	0.757	0.002	0.146	0.001	0.084	
298.15	0.066	0.755	0.002	0.151	0.001	0.16	
298.15	0.111	0.751	0.002	0.162	0.001	0.231	
298.15	0.13	0.742	0.002	0.16	0.001	0.302	
298.15	0.142	0.741	0.002	0.154	0.001	0.358	
298.15	0.155	0.751	0.002	0.165	0.001	0.417	
298.15	0.183	0.746	0.002	0.164	0.002	0.501	
298.15	0.22	0.742	0.002	0.161	0.002	0.596	
298.15	0.226	0.744	0.002	0.174	0.002	0.696	
298.15	0.241	0.742	0.002	0.19	0.002	0.742	
303.15	0.324	0.676	0.003	0.276	0.002	0.724	
303.15	0	0.726	0.002	0.184	0.002	0	
303.15	0.04	0.71	0.002	0.21	0.002	0.086	
303.15	0.057	0.697	0.003	0.218	0.002	0.125	
303.15	0.088	0.691	0.003	0.217	0.002	0.192	
303.15	0.121	0.679	0.003	0.207	0.002	0.238	
303.15	0.155	0.668	0.003	0.213	0.002	0.327	
303.15	0.182	0.667	0.003	0.222	0.002	0.371	
303.15	0.22	0.661	0.003	0.23	0.002	0.431	
303.15	0.233	0.661	0.003	0.231	0.002	0.486	
303.15	0.263	0.658	0.003	0.24	0.002	0.541	
303.15	0.293	0.657	0.003	0.257	0.002	0.634	
