Measured thermophysical data. Liquid phase equilibria of (water + phosphoric acid + 1-butanol or butyl acetate) ternary systems at T = 308.2 K
Source: J. Chem. Thermodyn., 2008, 10.1016/j.jct.2008.07.001
Compound 1: butan-1-ol, C4H10O, InChI=1S/C4H10O/c1-2-3-4-5/h5H,2-4H2,1H3, purity 99%
Compound 2: butyl ethanoate, C6H12O2, InChI=1S/C6H12O2/c1-3-4-5-8-6(2)7/h3-5H2,1-2H3, purity 99%
Compound 3: water, H2O, InChI=1S/H2O/h1H2
Compound 4: phosphoric acid, H3O4P, InChI=1S/H3O4P/c1-5(2,3)4/h(H3,1,2,3,4), purity 99%

System: butan-1-ol + water; phases: Liquid mixture 1, Liquid mixture 2
Property: Mole fraction of water (Liquid mixture 1); method: Titration method
Pressure, kPa	Temperature, K	Mole fraction of water	uncertainty
101	308.2	0.98	0.001

System: butyl ethanoate + water; phases: Liquid mixture 1, Liquid mixture 2
Property: Mole fraction of water (Liquid mixture 1); method: Titration method
Pressure, kPa	Temperature, K	Mole fraction of water	uncertainty
10234	308.2	0.9976	0.001

System: butan-1-ol + phosphoric acid + water; phases: Liquid mixture 1, Liquid mixture 2
Fixed: Temperature, K = 308.2
Fixed: Pressure, kPa = 101
Property: Mole fraction of phosphoric acid (Liquid mixture 1); method: Titration method
Mole fraction of water	Mole fraction of phosphoric acid	uncertainty
0.848	0.1192	0.0037
0.8852	0.0985	0.0031
0.898	0.0879	0.0029
0.9125	0.0745	0.0025
0.935	0.052	0.0021
0.9554	0.0295	0.0017
0.98	0	0.0001

System: butyl ethanoate + phosphoric acid + water; phases: Liquid mixture 1, Liquid mixture 2
Fixed: Temperature, K = 308.2
Fixed: Pressure, kPa = 10234
Property: Mole fraction of phosphoric acid (Liquid mixture 1); method: Titration method
Mole fraction of water	Mole fraction of phosphoric acid	uncertainty
0.633	0.3272	0.0102
0.662	0.303	0.0094
0.7366	0.2487	0.0077
0.7987	0.1945	0.0061
0.8716	0.124	0.004
0.9654	0.0313	0.0017
0.9976	0	0.0001
