Measured thermophysical data. Thermodynamic and spectroscopic study of molecular interactions between ethanol and isomeric cresols
Source: J. Chem. Thermodyn., 2019, 10.1016/j.jct.2018.12.039
Compound 1: ethanol, C2H6O, InChI=1S/C2H6O/c1-2-3/h3H,2H2,1H3, purity 99.5%
Compound 2: 2-methylphenol, C7H8O, InChI=1S/C7H8O/c1-6-4-2-3-5-7(6)8/h2-5,8H,1H3, purity 99.7%
Compound 3: 3-methylphenol, C7H8O, InChI=1S/C7H8O/c1-6-3-2-4-7(8)5-6/h2-5,8H,1H3, purity 98%
Compound 4: 4-methylphenol, C7H8O, InChI=1S/C7H8O/c1-6-2-4-7(8)5-3-6/h2-5,8H,1H3, purity 99%

System: ethanol; phases: Liquid
Fixed: Pressure, kPa = 100
Property: Mass density, kg/m3 (Liquid); method: Vibrating tube method
Temperature, K	Mass density, kg/m3	uncertainty
303.15	781.08	1.21
308.15	776.59	1.21
313.15	772.23	1.21
318.15	767.61	1.21

System: ethanol; phases: Liquid
Fixed: Pressure, kPa = 100
Fixed: Frequency, MHz = 2
Property: Speed of sound, m/s (Liquid); method: Linear variable-path acoustic interferometer
Temperature, K	Speed of sound, m/s	uncertainty
303.15	1127.01	2.38
313.15	1094.03	2.37

System: 2-methylphenol; phases: Liquid
Fixed: Pressure, kPa = 100
Property: Mass density, kg/m3 (Liquid); method: Vibrating tube method
Temperature, K	Mass density, kg/m3	uncertainty
303.15	1037.02	1.2
308.15	1032.58	1.2
313.15	1028.19	1.2
318.15	1023.82	1.2

System: 2-methylphenol; phases: Liquid
Fixed: Pressure, kPa = 100
Fixed: Frequency, MHz = 2
Property: Speed of sound, m/s (Liquid); method: Linear variable-path acoustic interferometer
Temperature, K	Speed of sound, m/s	uncertainty
303.15	1488.12	2.49
313.15	1453.02	2.47

System: 3-methylphenol; phases: Liquid
Fixed: Pressure, kPa = 100
Property: Mass density, kg/m3 (Liquid); method: Vibrating tube method
Temperature, K	Mass density, kg/m3	uncertainty
303.15	1025.71	1.2
308.15	1021.7	1.2
313.15	1017.69	1.2
318.15	1013.65	1.2

System: 3-methylphenol; phases: Liquid
Fixed: Pressure, kPa = 100
Fixed: Frequency, MHz = 2
Property: Speed of sound, m/s (Liquid); method: Linear variable-path acoustic interferometer
Temperature, K	Speed of sound, m/s	uncertainty
303.15	1466.13	2.49
313.15	1436.09	2.47

System: 4-methylphenol; phases: Liquid
Fixed: Pressure, kPa = 100
Property: Mass density, kg/m3 (Liquid); method: Vibrating tube method
Temperature, K	Mass density, kg/m3	uncertainty
303.15	1026.47	1.2
308.15	1022.56	1.2
313.15	1018.64	1.2
318.15	1014.68	1.2

System: 4-methylphenol; phases: Liquid
Fixed: Pressure, kPa = 100
Fixed: Frequency, MHz = 2
Property: Speed of sound, m/s (Liquid); method: Linear variable-path acoustic interferometer
Temperature, K	Speed of sound, m/s	uncertainty
303.15	1473.03	2.51
313.15	1440.15	2.5

System: ethanol + 2-methylphenol; phases: Liquid
Fixed: Pressure, kPa = 100
Property: Mass density, kg/m3 (Liquid); method: Vibrating tube method
Temperature, K	Mole fraction of ethanol	Mass density, kg/m3	uncertainty
303.15	0	1037.02	1.2
303.15	0.1387	1015.95	1.2
303.15	0.2617	994.82	1.2
303.15	0.3713	973.68	1.2
303.15	0.4698	952.47	1.2
303.15	0.5586	931.22	1.2
303.15	0.6392	909.96	1.2
303.15	0.7127	888.59	1.21
303.15	0.7799	867.19	1.21
303.15	0.8417	845.72	1.21
303.15	0.8986	824.22	1.21
303.15	0.951	802.69	1.21
303.15	1	781.08	1.21
308.15	0	1032.58	1.2
308.15	0.1387	1011.54	1.2
308.15	0.2617	990.39	1.2
308.15	0.3713	969.21	1.2
308.15	0.4698	947.97	1.2
308.15	0.5586	926.73	1.2
308.15	0.6392	905.45	1.21
308.15	0.7127	884.08	1.21
308.15	0.7799	862.71	1.21
308.15	0.8417	841.26	1.21
308.15	0.8986	819.77	1.21
308.15	0.951	798.22	1.21
308.15	1	776.59	1.21
313.15	0	1028.19	1.2
313.15	0.1387	1007.18	1.2
313.15	0.2617	986.02	1.2
313.15	0.3713	964.81	1.2
313.15	0.4698	943.57	1.2
313.15	0.5586	922.33	1.2
313.15	0.6392	901.08	1.21
313.15	0.7127	879.74	1.21
313.15	0.7799	858.37	1.21
313.15	0.8417	836.92	1.21
313.15	0.8986	815.43	1.21
313.15	0.951	793.89	1.21
313.15	1	772.23	1.21
318.15	0	1023.82	1.2
318.15	0.1387	1002.83	1.2
318.15	0.2617	981.62	1.2
318.15	0.3713	960.38	1.2
318.15	0.4698	939.1	1.2
318.15	0.5586	917.85	1.2
318.15	0.6392	896.59	1.21
318.15	0.7127	875.23	1.21
318.15	0.7799	853.88	1.21
318.15	0.8417	832.43	1.21
318.15	0.8986	810.91	1.21
318.15	0.951	789.33	1.21
318.15	1	767.61	1.21

System: ethanol + 2-methylphenol; phases: Liquid
Fixed: Pressure, kPa = 100
Fixed: Frequency, MHz = 2
Property: Speed of sound, m/s (Liquid); method: Linear variable-path acoustic interferometer
Temperature, K	Mole fraction of ethanol	Speed of sound, m/s	uncertainty
303.15	0	1488.12	2.49
303.15	0.1387	1435.4	2.5
303.15	0.2617	1391.2	2.5
303.15	0.3713	1351.2	2.4
303.15	0.4698	1314.2	2.4
303.15	0.5586	1280.2	2.4
303.15	0.6392	1249.3	2.4
303.15	0.7127	1221.5	2.4
303.15	0.7799	1196.9	2.4
303.15	0.8417	1175.2	2.4
303.15	0.8986	1156.5	2.4
303.15	0.951	1140.6	2.4
303.15	1	1127.01	2.38
313.15	0	1453.02	2.47
313.15	0.1387	1401.2	2.5
313.15	0.2617	1355.4	2.4
313.15	0.3713	1314.6	2.4
313.15	0.4698	1277.9	2.4
313.15	0.5586	1245	2.4
313.15	0.6392	1215.3	2.4
313.15	0.7127	1188.6	2.4
313.15	0.7799	1164.8	2.4
313.15	0.8417	1143.6	2.4
313.15	0.8986	1124.8	2.4
313.15	0.951	1108.4	2.4
313.15	1	1094.03	2.37

System: ethanol + 3-methylphenol; phases: Liquid
Fixed: Pressure, kPa = 100
Property: Mass density, kg/m3 (Liquid); method: Vibrating tube method
Temperature, K	Mole fraction of ethanol	Mass density, kg/m3	uncertainty
303.15	0	1025.71	1.2
303.15	0.14	1005.48	1.2
303.15	0.2637	985.23	1.2
303.15	0.3738	964.94	1.2
303.15	0.4724	944.63	1.2
303.15	0.5612	924.32	1.2
303.15	0.6417	903.96	1.21
303.15	0.7149	883.56	1.21
303.15	0.7817	863.15	1.21
303.15	0.8431	842.67	1.21
303.15	0.8995	822.2	1.21
303.15	0.9517	801.66	1.21
303.15	1	781.08	1.21
308.15	0	1021.7	1.2
308.15	0.14	1001.45	1.2
308.15	0.2637	981.17	1.2
308.15	0.3738	960.82	1.2
308.15	0.4724	940.47	1.2
308.15	0.5612	920.08	1.2
308.15	0.6417	899.68	1.21
308.15	0.7149	879.25	1.21
308.15	0.7817	858.83	1.21
308.15	0.8431	838.32	1.21
308.15	0.8995	817.81	1.21
308.15	0.9517	797.22	1.21
308.15	1	776.59	1.21
313.15	0	1017.69	1.2
313.15	0.14	997.42	1.2
313.15	0.2637	977.1	1.2
313.15	0.3738	956.72	1.2
313.15	0.4724	936.35	1.2
313.15	0.5612	915.95	1.2
313.15	0.6417	895.51	1.21
313.15	0.7149	875.06	1.21
313.15	0.7817	854.61	1.21
313.15	0.8431	834.07	1.21
313.15	0.8995	813.53	1.21
313.15	0.9517	792.9	1.21
313.15	1	772.23	1.21
318.15	0	1013.65	1.2
318.15	0.14	993.36	1.2
318.15	0.2637	972.97	1.2
318.15	0.3738	952.53	1.2
318.15	0.4724	932.08	1.2
318.15	0.5612	911.64	1.21
318.15	0.6417	891.18	1.21
318.15	0.7149	870.68	1.21
318.15	0.7817	850.21	1.21
318.15	0.8431	829.62	1.21
318.15	0.8995	809.06	1.21
318.15	0.9517	788.34	1.21
318.15	1	767.61	1.21

System: ethanol + 3-methylphenol; phases: Liquid
Fixed: Pressure, kPa = 100
Fixed: Frequency, MHz = 2
Property: Speed of sound, m/s (Liquid); method: Linear variable-path acoustic interferometer
Temperature, K	Mole fraction of ethanol	Speed of sound, m/s	uncertainty
303.15	0	1466.13	2.49
303.15	0.14	1426.7	2.5
303.15	0.2637	1384.7	2.5
303.15	0.3738	1344.9	2.4
303.15	0.4724	1308.5	2.4
303.15	0.5612	1275.8	2.4
303.15	0.6417	1246.6	2.4
303.15	0.7149	1220.5	2.4
303.15	0.7817	1197.2	2.4
303.15	0.8431	1176.3	2.4
303.15	0.8995	1157.8	2.4
303.15	0.9517	1141.4	2.4
303.15	1	1127.01	2.38
313.15	0	1436.09	2.47
313.15	0.14	1398.2	2.5
313.15	0.2637	1355	2.5
313.15	0.3738	1313.8	2.4
313.15	0.4724	1276.5	2.4
313.15	0.5612	1243.4	2.4
313.15	0.6417	1214	2.4
313.15	0.7149	1188	2.4
313.15	0.7817	1164.7	2.4
313.15	0.8431	1143.9	2.4
313.15	0.8995	1125.3	2.4
313.15	0.9517	1108.7	2.4
313.15	1	1094.03	2.37

System: ethanol + 4-methylphenol; phases: Liquid
Fixed: Pressure, kPa = 100
Property: Mass density, kg/m3 (Liquid); method: Vibrating tube method
Temperature, K	Mole fraction of ethanol	Mass density, kg/m3	uncertainty
303.15	0	1026.47	1.2
303.15	0.1392	1006.2	1.2
303.15	0.2624	985.93	1.2
303.15	0.3722	965.59	1.2
303.15	0.4707	945.23	1.2
303.15	0.5595	924.86	1.2
303.15	0.6401	904.44	1.21
303.15	0.7134	883.97	1.21
303.15	0.7805	863.47	1.21
303.15	0.8421	842.93	1.21
303.15	0.8989	822.33	1.21
303.15	0.9514	801.71	1.21
303.15	1	781.08	1.21
308.15	0	1022.56	1.2
308.15	0.1392	1002.27	1.2
308.15	0.2624	981.96	1.2
308.15	0.3722	961.62	1.2
308.15	0.4707	941.23	1.2
308.15	0.5595	920.83	1.21
308.15	0.6401	900.38	1.21
308.15	0.7134	879.86	1.21
308.15	0.7805	859.3	1.21
308.15	0.8421	838.68	1.21
308.15	0.8989	818.01	1.21
308.15	0.9514	797.31	1.21
308.15	1	776.59	1.21
313.15	0	1018.64	1.2
313.15	0.1392	998.32	1.2
313.15	0.2624	977.97	1.2
313.15	0.3722	957.61	1.2
313.15	0.4707	937.2	1.2
313.15	0.5595	916.75	1.21
313.15	0.6401	896.25	1.21
313.15	0.7134	875.69	1.21
313.15	0.7805	855.09	1.21
313.15	0.8421	834.45	1.21
313.15	0.8989	813.74	1.21
313.15	0.9514	793.01	1.21
313.15	1	772.23	1.21
318.15	0	1014.68	1.2
318.15	0.1392	994.31	1.2
318.15	0.2624	973.9	1.2
318.15	0.3722	953.46	1.2
318.15	0.4707	932.96	1.2
318.15	0.5595	912.45	1.21
318.15	0.6401	891.89	1.21
318.15	0.7134	871.3	1.21
318.15	0.7805	850.66	1.21
318.15	0.8421	829.99	1.21
318.15	0.8989	809.25	1.21
318.15	0.9514	788.43	1.21
318.15	1	767.61	1.21

System: ethanol + 4-methylphenol; phases: Liquid
Fixed: Pressure, kPa = 100
Fixed: Frequency, MHz = 2
Property: Speed of sound, m/s (Liquid); method: Linear variable-path acoustic interferometer
Temperature, K	Mole fraction of ethanol	Speed of sound, m/s	uncertainty
303.15	0	1473.03	2.51
303.15	0.1392	1435.7	2.5
303.15	0.2624	1392.4	2.5
303.15	0.3722	1350.4	2.5
303.15	0.4707	1311.9	2.5
303.15	0.5595	1277.5	2.4
303.15	0.6401	1247	2.4
303.15	0.7134	1220.1	2.4
303.15	0.7805	1196.3	2.4
303.15	0.8421	1175.3	2.4
303.15	0.8989	1156.8	2.4
303.15	0.9514	1140.8	2.4
303.15	1	1127.01	2.38
313.15	0	1440.15	2.5
313.15	0.1392	1402.3	2.5
313.15	0.2624	1359.7	2.5
313.15	0.3722	1318.2	2.5
313.15	0.4707	1280	2.4
313.15	0.5595	1245.8	2.4
313.15	0.6401	1215.1	2.4
313.15	0.7134	1188	2.4
313.15	0.7805	1164	2.4
313.15	0.8421	1142.8	2.4
313.15	0.8989	1124.1	2.4
313.15	0.9514	1107.9	2.4
313.15	1	1094.03	2.37
