Measured thermophysical data. Effect of sodium caproate on the volumetric and viscometric properties of glycine, DL-alpha-alanine, and DL-alpha-amino-n-butyric acid in aqueous solutions
Source: J. Chem. Thermodyn., 2004, 10.1016/j.jct.2003.11.001
Compound 1: 2-aminoacetic acid, C2H5NO2, InChI=1S/C2H5NO2/c3-1-2(4)5/h1,3H2,(H,4,5)
Compound 2: DL-2-aminopropanoic acid, C3H7NO2, InChI=1S/C3H7NO2/c1-2(4)3(5)6/h2H,4H2,1H3,(H,5,6)
Compound 3: (.+-.)-.alpha.-aminobutyric acid, C4H9NO2, InChI=1S/C4H9NO2/c1-2-3(5)4(6)7/h3H,2,5H2,1H3,(H,6,7)
Compound 4: sodium hexanoate, C6H11NaO2, InChI=1S/C6H12O2.Na/c1-2-3-4-5-6(7)8;/h2-5H2,1H3,(H,7,8);/q;+1/p-1
Compound 5: water, H2O, InChI=1S/H2O/h1H2

System: water + sodium hexanoate; phases: Liquid
Fixed: Pressure, kPa = 101.3
Property: Viscosity, Pa*s (Liquid); method: Capillary tube (Ostwald; Ubbelohde) method
Temperature, K	Molality, mol/kg of sodium hexanoate	Viscosity, Pa*s	uncertainty
298.15	0.5	0.001212	1e-05
298.15	1	0.001607	1.3e-05
298.15	1.5	0.002102	1.7e-05
298.15	2.1773	0.003187	2.6e-05
308.15	0.5	0.000956	8e-06
308.15	1	0.00124	1.1e-05
308.15	1.5	0.001601	1.3e-05
308.15	2.1773	0.002402	2e-05

System: water + sodium hexanoate; phases: Liquid
Fixed: Pressure, kPa = 101.3
Property: Mass density, kg/m3 (Liquid); method: VIBTUB:UFactor:4
Temperature, K	Molality, mol/kg of sodium hexanoate	Mass density, kg/m3	uncertainty
298.15	0.5	1014.396	0.172
298.15	1	1029.412	0.21
298.15	1.5	1041.883	0.241
298.15	2.1773	1054.224	0.267
308.15	0.5	1010.739	0.167
308.15	1	1024.963	0.204
308.15	1.5	1036.699	0.233
308.15	2.1773	1048.717	0.259

System: 2-aminoacetic acid + water + sodium hexanoate; phases: Liquid
Fixed: Pressure, kPa = 101.3
Property: Viscosity, Pa*s (Liquid); method: Capillary tube (Ostwald; Ubbelohde) method
Temperature, K	Molality, mol/kg of sodium hexanoate	Amount concentration (molarity), mol/dm3 of 2-aminoacetic acid	Viscosity, Pa*s	uncertainty
298.15	0.5	0	0.001212	1e-05
298.15	0.5	0.03562	0.001217	1e-05
298.15	0.5	0.06859	0.001222	1e-05
298.15	0.5	0.1038	0.001229	1e-05
298.15	0.5	0.1565	0.001238	1.1e-05
298.15	0.5	0.2109	0.001248	1.1e-05
298.15	0.5	0.2572	0.001256	1.1e-05
298.15	1	0	0.001607	1.3e-05
298.15	1	0.03526	0.001614	1.3e-05
298.15	1	0.06754	0.001622	1.4e-05
298.15	1	0.1027	0.001629	1.4e-05
298.15	1	0.1527	0.001641	1.4e-05
298.15	1	0.2051	0.001653	1.4e-05
298.15	1	0.2565	0.001666	1.4e-05
298.15	1.5	0	0.002102	1.7e-05
298.15	1.5	0.03568	0.002113	1.7e-05
298.15	1.5	0.06848	0.002123	1.7e-05
298.15	1.5	0.1036	0.002135	1.7e-05
298.15	1.5	0.1566	0.002152	1.8e-05
298.15	1.5	0.2065	0.002169	1.8e-05
298.15	1.5	0.2597	0.002187	1.8e-05
298.15	2.1773	0	0.003187	2.6e-05
298.15	2.1773	0.0358	0.00321	2.6e-05
298.15	2.1773	0.06861	0.003227	2.6e-05
298.15	2.1773	0.1048	0.003246	2.6e-05
298.15	2.1773	0.1613	0.003282	2.6e-05
298.15	2.1773	0.2093	0.003303	2.6e-05
298.15	2.1773	0.2596	0.00335	2.7e-05
308.15	0.5	0	0.000956	8e-06
308.15	0.5	0.03549	0.000961	8e-06
308.15	0.5	0.06834	0.000965	8e-06
308.15	0.5	0.1034	0.00097	8e-06
308.15	0.5	0.1559	0.000977	9e-06
308.15	0.5	0.2101	0.000986	9e-06
308.15	0.5	0.2562	0.000992	9e-06
308.15	1	0	0.00124	1.1e-05
308.15	1	0.03511	0.001246	1.1e-05
308.15	1	0.06724	0.001252	1.1e-05
308.15	1	0.1023	0.001259	1.1e-05
308.15	1	0.1521	0.001268	1.1e-05
308.15	1	0.2042	0.001278	1.1e-05
308.15	1	0.2554	0.001287	1.1e-05
308.15	1.5	0	0.001601	1.3e-05
308.15	1.5	0.03551	0.001612	1.3e-05
308.15	1.5	0.06814	0.00162	1.4e-05
308.15	1.5	0.103	0.001629	1.4e-05
308.15	1.5	0.1558	0.001644	1.4e-05
308.15	1.5	0.2055	0.001657	1.4e-05
308.15	1.5	0.2585	0.001671	1.4e-05
308.15	2.1773	0	0.002402	2e-05
308.15	2.1773	0.03561	0.002418	2e-05
308.15	2.1773	0.06825	0.002432	2e-05
308.15	2.1773	0.1043	0.002448	2e-05
308.15	2.1773	0.1604	0.002472	2e-05
308.15	2.1773	0.2082	0.002493	2e-05
308.15	2.1773	0.2583	0.002515	2e-05

System: 2-aminoacetic acid + water + sodium hexanoate; phases: Liquid
Fixed: Pressure, kPa = 101.3
Property: Mass density, kg/m3 (Liquid); method: VIBTUB:UFactor:4
Temperature, K	Molality, mol/kg of sodium hexanoate	Molality, mol/kg of 2-aminoacetic acid	Mass density, kg/m3	uncertainty
298.15	0.5	0	1014.396	0.172
298.15	0.5	0.03517	1015.44	0.174
298.15	0.5	0.06782	1016.426	0.176
298.15	0.5	0.1028	1017.463	0.178
298.15	0.5	0.1553	1018.99	0.181
298.15	0.5	0.2099	1020.582	0.184
298.15	0.5	0.2565	1021.932	0.186
298.15	0.5	0.3031	1023.294	0.188
298.15	0.5	0.3675	1025.148	0.192
298.15	0.5	0.4073	1026.285	0.194
298.15	1	0	1029.412	0.21
298.15	1	0.03431	1030.372	0.207
298.15	1	0.06581	1031.252	0.208
298.15	1	0.1003	1032.208	0.21
298.15	1	0.1494	1033.567	0.213
298.15	1	0.2011	1035.024	0.215
298.15	1	0.2522	1036.402	0.218
298.15	1	0.3011	1037.744	0.22
298.15	1	0.3533	1039.166	0.223
298.15	1	0.3983	1040.405	0.224
298.15	1.5	0	1041.883	0.241
298.15	1.5	0.03431	1042.764	0.235
298.15	1.5	0.06595	1043.578	0.237
298.15	1.5	0.09989	1044.443	0.239
298.15	1.5	0.1514	1045.768	0.241
298.15	1.5	0.2002	1047.047	0.243
298.15	1.5	0.2524	1048.389	0.246
298.15	1.5	0.301	1049.592	0.248
298.15	1.5	0.3507	1050.911	0.25
298.15	1.5	0.3999	1052.156	0.252
298.15	2.1773	0	1054.224	0.267
298.15	2.1773	0.03402	1055.022	0.268
298.15	2.1773	0.06531	1055.76	0.269
298.15	2.1773	0.09998	1056.583	0.271
298.15	2.1773	0.1542	1057.857	0.273
298.15	2.1773	0.2007	1058.98	0.275
298.15	2.1773	0.2495	1060.175	0.278
298.15	2.1773	0.3235	1061.962	0.281
298.15	2.1773	0.3738	1063.176	0.283
298.15	2.1773	0.4328	1064.604	0.286
308.15	0.5	0	1010.739	0.167
308.15	0.5	0.03517	1011.771	0.169
308.15	0.5	0.06782	1012.719	0.171
308.15	0.5	0.1028	1013.746	0.173
308.15	0.5	0.1553	1015.286	0.175
308.15	0.5	0.2099	1016.843	0.178
308.15	0.5	0.2565	1018.196	0.181
308.15	0.5	0.3031	1019.521	0.183
308.15	0.5	0.3675	1021.324	0.186
308.15	0.5	0.4073	1022.465	0.189
308.15	1	0	1024.963	0.204
308.15	1	0.03431	1025.925	0.201
308.15	1	0.06581	1026.805	0.202
308.15	1	0.1003	1027.769	0.204
308.15	1	0.1494	1029.116	0.206
308.15	1	0.2011	1030.559	0.209
308.15	1	0.2522	1031.959	0.212
308.15	1	0.3011	1033.25	0.214
308.15	1	0.3533	1034.689	0.217
308.15	1	0.3983	1035.913	0.217
308.15	1.5	0	1036.699	0.233
308.15	1.5	0.03431	1037.593	0.228
308.15	1.5	0.06595	1038.406	0.23
308.15	1.5	0.09989	1039.29	0.232
308.15	1.5	0.1514	1040.622	0.234
308.15	1.5	0.2002	1041.867	0.236
308.15	1.5	0.2524	1043.205	0.239
308.15	1.5	0.301	1044.409	0.241
308.15	1.5	0.3507	1045.713	0.243
308.15	1.5	0.3999	1046.944	0.245
308.15	2.1773	0	1048.717	0.259
308.15	2.1773	0.03402	1049.516	0.261
308.15	2.1773	0.06531	1050.251	0.262
308.15	2.1773	0.09998	1051.067	0.264
308.15	2.1773	0.1542	1052.354	0.266
308.15	2.1773	0.2007	1053.456	0.268
308.15	2.1773	0.2495	1054.675	0.27
308.15	2.1773	0.3235	1056.375	0.273
308.15	2.1773	0.3738	1057.609	0.276
308.15	2.1773	0.4328	1059.027	0.278

System: DL-2-aminopropanoic acid + water + sodium hexanoate; phases: Liquid
Fixed: Pressure, kPa = 101.3
Property: Viscosity, Pa*s (Liquid); method: Capillary tube (Ostwald; Ubbelohde) method
Temperature, K	Molality, mol/kg of sodium hexanoate	Amount concentration (molarity), mol/dm3 of DL-2-aminopropanoic acid	Viscosity, Pa*s	uncertainty
298.15	0.5	0.03533	0.001222	1e-05
298.15	0.5	0.06717	0.001232	1.1e-05
298.15	0.5	0.1023	0.001243	1.1e-05
298.15	0.5	0.1559	0.00126	1.1e-05
298.15	0.5	0.2058	0.001276	1.1e-05
298.15	0.5	0.253	0.001292	1.1e-05
298.15	1	0.03578	0.001621	1.4e-05
298.15	1	0.06699	0.001634	1.4e-05
298.15	1	0.102	0.001648	1.4e-05
298.15	1	0.1515	0.00167	1.4e-05
298.15	1	0.2037	0.001692	1.4e-05
298.15	1	0.2516	0.001714	8e-05
298.15	1.5	0.03626	0.002122	1.7e-05
298.15	1.5	0.06902	0.00214	1.8e-05
298.15	1.5	0.104	0.00216	1.8e-05
298.15	1.5	0.155	0.00219	1.8e-05
298.15	1.5	0.2039	0.002219	1.8e-05
298.15	1.5	0.2522	0.00225	1.8e-05
298.15	2.1773	0.03587	0.003215	2.6e-05
298.15	2.1773	0.06813	0.003247	2.6e-05
298.15	2.1773	0.1036	0.003279	2.6e-05
298.15	2.1773	0.1614	0.003334	2.7e-05
298.15	2.1773	0.2084	0.00338	2.7e-05
298.15	2.1773	0.2592	0.003431	2.7e-05
308.15	0.5	0.0352	0.000964	8e-06
308.15	0.5	0.06693	0.000972	9e-06
308.15	0.5	0.102	0.00098	9e-06
308.15	0.5	0.1553	0.000993	9e-06
308.15	0.5	0.205	0.001005	9e-06
308.15	0.5	0.2521	0.001017	9e-06
308.15	1	0.03563	0.001252	1.1e-05
308.15	1	0.0667	0.001261	1.1e-05
308.15	1	0.1015	0.001272	1.1e-05
308.15	1	0.1509	0.001287	1.1e-05
308.15	1	0.2028	0.001304	1.1e-05
308.15	1	0.2549	0.00132	1.1e-05
308.15	1.5	0.03607	0.001617	1.3e-05
308.15	1.5	0.06868	0.001631	1.4e-05
308.15	1.5	0.1035	0.001646	1.4e-05
308.15	1.5	0.1542	0.001667	1.4e-05
308.15	1.5	0.2029	0.001688	1.4e-05
308.15	1.5	0.251	0.001711	1.4e-05
308.15	2.1773	0.03568	0.002425	2e-05
308.15	2.1773	0.06777	0.002449	2e-05
308.15	2.1773	0.1031	0.002472	2e-05
308.15	2.1773	0.1606	0.002511	2e-05
308.15	2.1773	0.2073	0.002544	2.1e-05
308.15	2.1773	0.2579	0.00258	2.1e-05

System: DL-2-aminopropanoic acid + water + sodium hexanoate; phases: Liquid
Fixed: Pressure, kPa = 101.3
Property: Mass density, kg/m3 (Liquid); method: VIBTUB:UFactor:4
Temperature, K	Molality, mol/kg of sodium hexanoate	Molality, mol/kg of DL-2-aminopropanoic acid	Mass density, kg/m3	uncertainty
298.15	0.5	0.0349	1015.339	0.174
298.15	0.5	0.0665	1016.191	0.175
298.15	0.5	0.1015	1017.124	0.177
298.15	0.5	0.1552	1018.548	0.18
298.15	0.5	0.2055	1019.877	0.183
298.15	0.5	0.2534	1021.136	0.185
298.15	0.5	0.3019	1022.372	0.188
298.15	0.5	0.3603	1023.897	0.191
298.15	0.5	0.4077	1025.104	0.193
298.15	1	0.03484	1030.289	0.212
298.15	1	0.06535	1031.055	0.208
298.15	1	0.0997	1031.91	0.21
298.15	1	0.1486	1033.129	0.212
298.15	1	0.2004	1034.401	0.215
298.15	1	0.2483	1035.573	0.217
298.15	1	0.2967	1036.747	0.219
298.15	1	0.3478	1037.977	0.222
298.15	1	0.4	1039.229	0.223
298.15	1.5	0.03488	1042.679	0.242
298.15	1.5	0.06655	1043.406	0.237
298.15	1.5	0.1005	1044.188	0.239
298.15	1.5	0.1502	1045.337	0.24
298.15	1.5	0.1983	1046.418	0.243
298.15	1.5	0.246	1047.506	0.245
298.15	1.5	0.3131	1049.023	0.248
298.15	1.5	0.3544	1049.96	0.25
298.15	1.5	0.4101	1051.191	0.252
298.15	2.1773	0.03411	1054.911	0.268
298.15	2.1773	0.06492	1055.534	0.269
298.15	2.1773	0.09897	1056.217	0.27
298.15	2.1773	0.1548	1057.381	0.273
298.15	2.1773	0.2004	1058.333	0.275
298.15	2.1773	0.2502	1059.385	0.277
298.15	2.1773	0.3152	1060.743	0.28
298.15	2.1773	0.3738	1061.968	0.282
298.15	2.1773	0.4216	1062.947	0.284
308.15	0.5	0.0349	1011.66	0.168
308.15	0.5	0.0665	1012.495	0.17
308.15	0.5	0.1015	1013.418	0.172
308.15	0.5	0.1552	1014.813	0.175
308.15	0.5	0.2055	1016.13	0.177
308.15	0.5	0.2534	1017.361	0.18
308.15	0.5	0.3019	1018.579	0.182
308.15	0.5	0.3603	1020.096	0.185
308.15	0.5	0.4077	1021.283	0.187
308.15	1	0.03484	1025.836	0.206
308.15	1	0.06535	1026.6	0.202
308.15	1	0.0997	1027.452	0.204
308.15	1	0.1486	1028.675	0.206
308.15	1	0.2004	1029.933	0.208
308.15	1	0.2483	1031.114	0.211
308.15	1	0.2967	1032.274	0.213
308.15	1	0.3478	1033.482	0.215
308.15	1	0.4	1034.748	0.217
308.15	1.5	0.03488	1037.498	0.234
308.15	1.5	0.06655	1038.222	0.23
308.15	1.5	0.1005	1038.994	0.232
308.15	1.5	0.1502	1040.129	0.233
308.15	1.5	0.1983	1041.218	0.236
308.15	1.5	0.246	1042.292	0.238
308.15	1.5	0.3131	1043.807	0.241
308.15	1.5	0.3544	1044.731	0.243
308.15	1.5	0.4101	1045.956	0.244
308.15	2.1773	0.03411	1049.39	0.26
308.15	2.1773	0.06492	1050.006	0.262
308.15	2.1773	0.09897	1050.686	0.263
308.15	2.1773	0.1548	1051.808	0.265
308.15	2.1773	0.2004	1052.775	0.267
308.15	2.1773	0.2502	1053.809	0.269
308.15	2.1773	0.3152	1055.156	0.272
308.15	2.1773	0.3738	1056.374	0.275
308.15	2.1773	0.4216	1057.354	0.277

System: (.+-.)-.alpha.-aminobutyric acid + water + sodium hexanoate; phases: Liquid
Fixed: Pressure, kPa = 101.3
Property: Viscosity, Pa*s (Liquid); method: Capillary tube (Ostwald; Ubbelohde) method
Temperature, K	Molality, mol/kg of sodium hexanoate	Amount concentration (molarity), mol/dm3 of (.+-.)-.alpha.-aminobutyric acid	Viscosity, Pa*s	uncertainty
298.15	0.5	0.03513	0.001225	1e-05
298.15	0.5	0.06698	0.001239	1.1e-05
298.15	0.5	0.1021	0.001255	1.1e-05
298.15	0.5	0.1524	0.001277	1.1e-05
298.15	0.5	0.2014	0.001299	1.1e-05
298.15	0.5	0.2508	0.001322	1.1e-05
298.15	1	0.03525	0.001626	1.4e-05
298.15	1	0.06681	0.001644	1.4e-05
298.15	1	0.102	0.001664	1.4e-05
298.15	1	0.1517	0.001692	1.4e-05
298.15	1	0.202	0.001723	1.4e-05
298.15	1	0.2535	0.001754	1.5e-05
298.15	1.5	0.03589	0.002128	1.7e-05
298.15	1.5	0.06857	0.002153	1.8e-05
298.15	1.5	0.1041	0.00218	1.8e-05
298.15	1.5	0.1535	0.002219	1.8e-05
298.15	1.5	0.2054	0.002262	1.8e-05
298.15	1.5	0.2554	0.002302	1.9e-05
298.15	2.1773	0.0367	0.003228	2.6e-05
298.15	2.1773	0.06957	0.003269	2.6e-05
298.15	2.1773	0.1055	0.003314	2.6e-05
298.15	2.1773	0.16	0.003387	2.7e-05
298.15	2.1773	0.2129	0.003453	2.8e-05
298.15	2.1773	0.261	0.003518	2.8e-05
308.15	0.5	0.035	0.0009665	8.4e-06
308.15	0.5	0.06674	0.0009767	8.5e-06
308.15	0.5	0.1017	0.0009882	8.6e-06
308.15	0.5	0.1519	0.001005	9e-06
308.15	0.5	0.2007	0.001021	9e-06
308.15	0.5	0.2499	0.001037	9e-06
308.15	1	0.0351	0.001254	1.1e-05
308.15	1	0.06652	0.001268	1.1e-05
308.15	1	0.1016	0.001282	1.1e-05
308.15	1	0.151	0.001303	1.1e-05
308.15	1	0.2011	0.001325	1.1e-05
308.15	1	0.2524	0.001347	1.1e-05
308.15	1.5	0.03571	0.001622	1.4e-05
308.15	1.5	0.06823	0.00164	1.4e-05
308.15	1.5	0.1036	0.00166	1.4e-05
308.15	1.5	0.1527	0.001687	1.4e-05
308.15	1.5	0.2044	0.001718	1.4e-05
308.15	1.5	0.2542	0.001747	1.5e-05
308.15	2.1773	0.0365	0.002437	2e-05
308.15	2.1773	0.0692	0.002463	2e-05
308.15	2.1773	0.1049	0.002496	2e-05
308.15	2.1773	0.1592	0.002547	2.1e-05
308.15	2.1773	0.2117	0.002592	2.1e-05
308.15	2.1773	0.2596	0.002637	2.1e-05

System: (.+-.)-.alpha.-aminobutyric acid + water + sodium hexanoate; phases: Liquid
Fixed: Pressure, kPa = 101.3
Property: Mass density, kg/m3 (Liquid); method: VIBTUB:UFactor:4
Temperature, K	Molality, mol/kg of sodium hexanoate	Molality, mol/kg of (.+-.)-.alpha.-aminobutyric acid	Mass density, kg/m3	uncertainty
298.15	0.5	0.03472	1015.298	0.174
298.15	0.5	0.06637	1016.116	0.175
298.15	0.5	0.1014	1017.011	0.177
298.15	0.5	0.1521	1018.308	0.18
298.15	0.5	0.2017	1019.571	0.182
298.15	0.5	0.2521	1020.823	0.185
298.15	0.5	0.3061	1022.127	0.188
298.15	0.5	0.3541	1023.307	0.19
298.15	0.5	0.402	1024.469	0.193
298.15	1	0.03434	1030.239	0.211
298.15	1	0.06524	1030.975	0.208
298.15	1	0.09988	1031.803	0.21
298.15	1	0.1491	1032.967	0.212
298.15	1	0.1993	1034.161	0.215
298.15	1	0.2512	1035.351	0.217
298.15	1	0.3013	1036.487	0.22
298.15	1	0.3517	1037.643	0.222
298.15	1	0.3979	1038.68	0.223
298.15	1.5	0.03454	1042.629	0.242
298.15	1.5	0.06618	1043.306	0.237
298.15	1.5	0.1007	1044.047	0.238
298.15	1.5	0.1491	1045.079	0.24
298.15	1.5	0.2004	1046.116	0.243
298.15	1.5	0.2502	1047.19	0.245
298.15	1.5	0.3089	1048.418	0.248
298.15	1.5	0.3603	1049.486	0.25
298.15	1.5	0.4121	1050.526	0.252
298.15	2.1773	0.03491	1054.877	0.268
298.15	2.1773	0.06636	1055.459	0.269
298.15	2.1773	0.1009	1056.098	0.27
298.15	2.1773	0.1538	1057.096	0.273
298.15	2.1773	0.2054	1058.083	0.275
298.15	2.1773	0.2529	1058.914	0.277
298.15	2.1773	0.3261	1060.293	0.28
298.15	2.1773	0.3763	1061.223	0.282
298.15	2.1773	0.4286	1062.181	0.284
308.15	0.5	0.03472	1011.625	0.168
308.15	0.5	0.06637	1012.422	0.17
308.15	0.5	0.1014	1013.317	0.172
308.15	0.5	0.1521	1014.566	0.174
308.15	0.5	0.2017	1015.819	0.177
308.15	0.5	0.2521	1017.055	0.18
308.15	0.5	0.3061	1018.35	0.182
308.15	0.5	0.3541	1019.496	0.185
308.15	0.5	0.402	1020.646	0.187
308.15	1	0.03434	1025.788	0.205
308.15	1	0.06524	1026.519	0.202
308.15	1	0.09988	1027.339	0.204
308.15	1	0.1491	1028.487	0.206
308.15	1	0.1993	1029.656	0.208
308.15	1	0.2512	1030.839	0.211
308.15	1	0.3013	1031.957	0.213
308.15	1	0.3517	1033.074	0.216
308.15	1	0.3979	1034.107	0.217
308.15	1.5	0.03454	1037.452	0.234
308.15	1.5	0.06618	1038.133	0.23
308.15	1.5	0.1007	1038.88	0.231
308.15	1.5	0.1491	1039.893	0.233
308.15	1.5	0.2004	1040.962	0.236
308.15	1.5	0.2502	1041.971	0.238
308.15	1.5	0.3089	1043.156	0.241
308.15	1.5	0.3603	1044.228	0.243
308.15	1.5	0.4121	1045.233	0.245
308.15	2.1773	0.03491	1049.349	0.26
308.15	2.1773	0.06636	1049.919	0.262
308.15	2.1773	0.1009	1050.549	0.263
308.15	2.1773	0.1538	1051.507	0.265
308.15	2.1773	0.2054	1052.45	0.267
308.15	2.1773	0.2529	1053.347	0.269
308.15	2.1773	0.3261	1054.667	0.272
308.15	2.1773	0.3763	1055.599	0.274
308.15	2.1773	0.4286	1056.552	0.277
