Measured thermophysical data. S6 Isomer of C60(CF3)12: Synthesis, properties and thermodynamic functions
Source: J. Chem. Thermodyn., 2013, 10.1016/j.jct.2013.06.004
Compound 1: hydrogen fluoride, FH, InChI=1S/FH/h1H
Compound 2: carbon dioxide, CO2, InChI=1S/CO2/c2-1-3
Compound 3: water, H2O, InChI=1S/H2O/h1H2
Compound 4: oxygen, O2, InChI=1S/O2/c1-2
Compound 5: 1,6,11,16,18,26,36,44,46,49,54,60-dodecahydro-1,6,11,16,18,26,36,44,46,49,54,60-dodecakis(trifluoromethyl)-[5,6]fullerene-C60-Ih, C72F36, InChI=1S/C72F36/c73-61(74,75)49-19-1-7-2-9-3-8(1)26-31-13(19)37-44-52(64(82,83)84)23-5-10-4-11-6-12(5)29-35-17(23)41(55(31,44)67(91,92)93)45-50(26,62(76,77)78)20(3)15-33-27(9)51(63(79,80)81)21(2)14-32(25(7)49)56(68(94,95)96)38-16(34(28(10)52)57(37,43(38)49)69(97,98)99)22(4)53(65(85,86)87)30(11)36-18-24(6)54(29,66(88,89)90)48(40(15)58(35,45)70(100,101)102)59(33,71(103,104)105)42(18)46(51)60(36,72(106,107)108)39(14)47(53)56
Compound 6: 1,2-dichlorobenzene, C6H4Cl2, InChI=1S/C6H4Cl2/c7-5-3-1-2-4-6(5)8/h1-4H, purity 99%

System: 1,6,11,16,18,26,36,44,46,49,54,60-dodecahydro-1,6,11,16,18,26,36,44,46,49,54,60-dodecakis(trifluoromethyl)-[5,6]fullerene-C60-Ih; phases: Crystal, Liquid, Air at 1 atmosphere
Property: Normal melting temperature, K (Crystal); method: VISOBS
Normal melting temperature, K	uncertainty
798	10

System: 1,6,11,16,18,26,36,44,46,49,54,60-dodecahydro-1,6,11,16,18,26,36,44,46,49,54,60-dodecakis(trifluoromethyl)-[5,6]fullerene-C60-Ih; phases: Crystal
Fixed: Pressure, kPa = 101.325
Property: Molar heat capacity at constant pressure, J/K/mol (Crystal); method: Vacuum adiabatic calorimetry
Temperature, K	Molar heat capacity at constant pressure, J/K/mol	uncertainty
5	9.814	0.452
10	63.134	2.56
15	118.85	4.79
20	157.81	6.35
25	182.76	7.33
30	202.81	8.12
35	219.55	8.79
40	235.02	9.41
45	250.9	5.03
50	267.92	5.37
55	285.77	5.73
60	303.61	6.09
65	321.24	6.44
70	337.63	6.77
75	354.3	7.11
80	371.99	7.46
85	390.79	1.67
90	410.47	1.7
95	430.74	1.78
100	451.32	1.86
110	492.79	2.03
120	534.44	2.2
130	576.48	2.37
140	619.04	2.54
150	661.81	2.72
160	704.41	2.89
170	746.67	3.06
180	788.76	3.23
190	830.72	3.4
200	871.85	3.57
210	911.39	3.73
220	952.73	3.9
230	994.02	4.07
240	1035.1	4.2
250	1075.9	4.4
260	1116.3	4.6
270	1156	4.7
280	1195.1	4.9
290	1233.3	5
298.15	1263.7	5.2
300	1270.5	5.2
310	1306.5	5.3
320	1341.3	5.5
330	1374.7	5.6
340	1406.6	5.7
350	1436.8	5.9
360	1465.2	6
370	1491.7	6.1

System: 1,6,11,16,18,26,36,44,46,49,54,60-dodecahydro-1,6,11,16,18,26,36,44,46,49,54,60-dodecakis(trifluoromethyl)-[5,6]fullerene-C60-Ih; phases: Crystal
Fixed: Pressure, kPa = 101.325
Property: Molar enthalpy, kJ/mol (Crystal); method: Vacuum adiabatic calorimetry
Temperature, K	Molar enthalpy, kJ/mol	uncertainty
5	0.01278	0.00085
10	0.1785	0.0073
15	0.6416	0.026
20	1.3406	0.054
25	2.1953	0.0882
30	3.161	0.1266
35	4.2178	0.1689
40	5.3544	0.2144
45	6.5688	0.1319
50	7.8654	0.1579
55	9.2494	0.1857
60	10.723	0.215
65	12.285	0.247
70	13.932	0.28
75	15.662	0.314
80	17.477	0.351
85	19.383	0.083
90	21.386	0.09
95	23.489	0.099
100	25.694	0.108
110	30.415	0.128
120	35.55	0.149
130	41.105	0.172
140	47.082	0.196
150	53.486	0.222
160	60.318	0.25
170	67.573	0.28
180	75.25	0.312
190	83.348	0.345
200	91.862	0.379
210	100.77	0.42
220	110.09	0.45
230	119.83	0.49
240	129.97	0.54
250	140.53	0.58
260	151.49	0.62
270	162.85	0.67
280	174.61	0.72
290	186.75	0.77
298.15	196.93	0.81
300	199.27	0.82
310	212.16	0.87
320	225.4	0.92
330	238.98	0.98
340	252.89	1.04
350	267.11	1.1
360	281.62	1.15
370	296.4	1.21

System: 1,6,11,16,18,26,36,44,46,49,54,60-dodecahydro-1,6,11,16,18,26,36,44,46,49,54,60-dodecakis(trifluoromethyl)-[5,6]fullerene-C60-Ih; phases: Crystal
Fixed: Pressure, kPa = 101.325
Property: Molar entropy, J/K/mol (Crystal); method: Vacuum adiabatic calorimetry
Temperature, K	Molar entropy, J/K/mol	uncertainty
5	3.345	0.221
10	24.137	1.468
15	60.929	3.686
20	100.87	6.08
25	138.92	8.36
30	174.07	10.45
35	206.62	12.41
40	236.95	14.23
45	265.54	7.99
50	292.85	8.81
55	319.22	9.6
60	344.85	10.37
65	369.84	11.13
70	394.25	11.86
75	418.11	12.58
80	441.54	13.28
85	464.65	2.97
90	487.54	3.02
95	510.27	3.15
100	532.89	3.29
110	577.85	3.57
120	622.51	3.84
130	666.94	4.11
140	711.22	4.38
150	755.39	4.65
160	799.46	4.91
170	843.44	5.18
180	887.31	5.45
190	931.08	5.71
200	974.74	5.98
210	1018.2	6.2
220	1061.6	6.5
230	1104.8	6.8
240	1148	7
250	1191.1	7.3
260	1234.1	7.6
270	1276.9	7.8
280	1319.7	8.1
290	1362.3	8.3
298.15	1396.9	8.6
300	1404.7	8.6
310	1447	8.9
320	1489	9.1
330	1530.8	9.4
340	1572.3	9.6
350	1613.5	9.9
360	1654.4	10.1
370	1694.9	10.4

System: 1,2-dichlorobenzene + 1,6,11,16,18,26,36,44,46,49,54,60-dodecahydro-1,6,11,16,18,26,36,44,46,49,54,60-dodecakis(trifluoromethyl)-[5,6]fullerene-C60-Ih; phases: Liquid, Crystal
Property: Mass concentration, kg/m3 of 1,6,11,16,18,26,36,44,46,49,54,60-dodecahydro-1,6,11,16,18,26,36,44,46,49,54,60-dodecakis(trifluoromethyl)-[5,6]fullerene-C60-Ih (Liquid); method: gravimetric
Pressure, kPa	Temperature, K	Mass concentration, kg/m3 of 1,6,11,16,18,26,36,44,46,49,54,60-dodecahydro-1,6,11,16,18,26,36,44,46,49,54,60-dodecakis(trifluoromethyl)-[5,6]fullerene-C60-Ih	uncertainty
101	453	1.1	0.2

Reaction: 36 hydrogen fluoride + -1 1,6,11,16,18,26,36,44,46,49,54,60-dodecahydro-1,6,11,16,18,26,36,44,46,49,54,60-dodecakis(trifluoromethyl)-[5,6]fullerene-C60-Ih + 72 carbon dioxide + -18 water + -63 oxygen
Property: Specific internal energy of reaction at constant volume, J/g
-18548
