Measured thermophysical data. (Liquid + liquid) equilibrium for binary systems of N-formylmorpholine with alkanes
Source: J. Chem. Thermodyn., 2012, 10.1016/j.jct.2011.10.022
Compound 1: N-formylmorpholine, C5H9NO2, InChI=1S/C5H9NO2/c7-5-6-1-3-8-4-2-6/h5H,1-4H2, purity 99.5%
Compound 2: 3-methylpentane, C6H14, InChI=1S/C6H14/c1-4-6(3)5-2/h6H,4-5H2,1-3H3, purity 99%
Compound 3: heptane, C7H16, InChI=1S/C7H16/c1-3-5-7-6-4-2/h3-7H2,1-2H3, purity 98.5%
Compound 4: nonane, C9H20, InChI=1S/C9H20/c1-3-5-7-9-8-6-4-2/h3-9H2,1-2H3, purity 99%
Compound 5: 2,2,4-trimethylpentane, C8H18, InChI=1S/C8H18/c1-7(2)6-8(3,4)5/h7H,6H2,1-5H3, purity 99.8%

System: 3-methylpentane + N-formylmorpholine; phases: Liquid mixture 1, Liquid mixture 2
Fixed: Pressure, kPa = 101.3
Property: Mole fraction of 3-methylpentane (Liquid mixture 1); method: Chromatography
Temperature, K	Mole fraction of 3-methylpentane	uncertainty
288.85	0.9883	0.0004
302.4	0.9859	0.0004
306.4	0.9841	0.0004
311.1	0.9825	0.0004
316.1	0.9773	0.0004
324.95	0.977	0.0004
329.65	0.9744	0.0004
334.15	0.9691	0.0005

System: 3-methylpentane + N-formylmorpholine; phases: Liquid mixture 2, Liquid mixture 1
Fixed: Pressure, kPa = 101.3
Property: Mole fraction of 3-methylpentane (Liquid mixture 2); method: Chromatography
Temperature, K	Mole fraction of 3-methylpentane	uncertainty
288.85	0.0327	0.0005
302.4	0.0439	0.0005
306.4	0.0467	0.0005
311.1	0.0486	0.0005
316.1	0.056	0.0006
324.95	0.0589	0.0006
329.65	0.0604	0.0006
334.15	0.0617	0.0006

System: heptane + N-formylmorpholine; phases: Liquid mixture 1, Liquid mixture 2
Fixed: Pressure, kPa = 101.3
Property: Mole fraction of heptane (Liquid mixture 1); method: Chromatography
Temperature, K	Mole fraction of heptane	uncertainty
298.75	0.9794	0.0004
302.85	0.9688	0.0005
312.05	0.9645	0.0005
320.05	0.9624	0.0005
329.35	0.9605	0.0005
337.65	0.9575	0.0005
348.35	0.9527	0.0005
357.75	0.9467	0.0006
369.35	0.9279	0.0007
378.3	0.9087	0.0008
389.35	0.8819	0.0009

System: heptane + N-formylmorpholine; phases: Liquid mixture 2, Liquid mixture 1
Fixed: Pressure, kPa = 101.3
Property: Mole fraction of heptane (Liquid mixture 2); method: Chromatography
Temperature, K	Mole fraction of heptane	uncertainty
298.75	0.0183	0.0004
302.85	0.0216	0.0004
312.05	0.0243	0.0004
320.05	0.0277	0.0004
329.35	0.0323	0.0005
337.65	0.038	0.0005
348.35	0.0399	0.0005
357.75	0.0446	0.0005
369.35	0.0536	0.0006
378.3	0.0667	0.0006
389.35	0.0804	0.0007

System: nonane + N-formylmorpholine; phases: Liquid mixture 1, Liquid mixture 2
Fixed: Pressure, kPa = 101.3
Property: Mole fraction of nonane (Liquid mixture 1); method: Chromatography
Temperature, K	Mole fraction of nonane	uncertainty
303.15	0.9801	0.0004
312.95	0.9661	0.0005
320.65	0.9572	0.0005
327.97	0.9484	0.0005
334.95	0.942	0.0006
343.04	0.9322	0.0006
350.65	0.9236	0.0007
356.95	0.9098	0.0008
365.85	0.8952	0.0008
370.95	0.8841	0.0009
392.45	0.8344	0.0013
402.15	0.8107	0.0015
409.65	0.7979	0.0016
415.25	0.7886	0.0016
427.85	0.7621	0.0018

System: nonane + N-formylmorpholine; phases: Liquid mixture 2, Liquid mixture 1
Fixed: Pressure, kPa = 101.3
Property: Mole fraction of nonane (Liquid mixture 2); method: Chromatography
Temperature, K	Mole fraction of nonane	uncertainty
303.15	0.0118	0.0004
312.95	0.0148	0.0004
320.65	0.0176	0.0004
327.97	0.0192	0.0004
334.95	0.0212	0.0004
343.04	0.0219	0.0004
350.65	0.0202	0.0004
356.95	0.0213	0.0004
365.85	0.0226	0.0004
370.95	0.0289	0.0005
392.45	0.0346	0.0005
402.15	0.0347	0.0005
409.65	0.0373	0.0005
415.25	0.0386	0.0005
427.85	0.0433	0.0005

System: 2,2,4-trimethylpentane + N-formylmorpholine; phases: Liquid mixture 1, Liquid mixture 2
Fixed: Pressure, kPa = 101.3
Property: Mole fraction of 2,2,4-trimethylpentane (Liquid mixture 1); method: Chromatography
Temperature, K	Mole fraction of 2,2,4-trimethylpentane	uncertainty
307.85	0.9705	0.0005
312.55	0.9673	0.0005
318.85	0.964	0.0005
323.64	0.9577	0.0005
329.33	0.9542	0.0005
334.85	0.9447	0.0006
342.5	0.9313	0.0006
349.4	0.9134	0.0007
355.55	0.8838	0.0009
365.25	0.8677	0.001
374.55	0.8426	0.0012
383.75	0.804	0.0015
391.65	0.7784	0.0017
399.65	0.7595	0.0019
408.45	0.7401	0.002

System: 2,2,4-trimethylpentane + N-formylmorpholine; phases: Liquid mixture 2, Liquid mixture 1
Fixed: Pressure, kPa = 101.3
Property: Mole fraction of 2,2,4-trimethylpentane (Liquid mixture 2); method: Chromatography
Temperature, K	Mole fraction of 2,2,4-trimethylpentane	uncertainty
307.85	0.0193	0.0004
312.55	0.022	0.0004
318.85	0.0248	0.0004
323.64	0.0263	0.0004
329.33	0.0273	0.0004
334.85	0.0289	0.0005
342.5	0.0298	0.0005
349.4	0.0311	0.0005
355.55	0.0316	0.0005
365.25	0.0382	0.0005
374.55	0.0417	0.0005
383.75	0.0413	0.0005
391.65	0.0428	0.0005
399.65	0.047	0.0005
408.45	0.0504	0.0005
