Measured thermophysical data. Solubility determination and thermodynamic modeling of paclobutrazol in nine organic solvents from T = (278.15 to 318.15) K and mixing properties of solutions
Source: J. Chem. Thermodyn., 2017, 10.1016/j.jct.2016.09.038
Compound 1: 2S,3S-Paclobutrazol, C15H20ClN3O, InChI=1S/C15H20ClN3O/c1-15(2,3)14(20)13(19-10-17-9-18-19)8-11-4-6-12(16)7-5-11/h4-7,9-10,13-14,20H,8H2,1-3H3/t13-,14+/m0/s1, purity 97.9%
Compound 2: ethanol, C2H6O, InChI=1S/C2H6O/c1-2-3/h3H,2H2,1H3, purity 99.7%
Compound 3: propan-1-ol, C3H8O, InChI=1S/C3H8O/c1-2-3-4/h4H,2-3H2,1H3, purity 99.5%
Compound 4: propan-2-ol, C3H8O, InChI=1S/C3H8O/c1-3(2)4/h3-4H,1-2H3, purity 99.7%
Compound 5: ethyl acetate, C4H8O2, InChI=1S/C4H8O2/c1-3-6-4(2)5/h3H2,1-2H3, purity 99.5%
Compound 6: acetone, C3H6O, InChI=1S/C3H6O/c1-3(2)4/h1-2H3, purity 99.5%
Compound 7: acetonitrile, C2H3N, InChI=1S/C2H3N/c1-2-3/h1H3, purity 99.4%
Compound 8: toluene, C7H8, InChI=1S/C7H8/c1-7-5-3-2-4-6-7/h2-6H,1H3, purity 99.5%
Compound 9: butan-1-ol, C4H10O, InChI=1S/C4H10O/c1-2-3-4-5/h5H,2-4H2,1H3, purity 99.5%
Compound 10: 1,4-dioxane, C4H8O2, InChI=1S/C4H8O2/c1-2-6-4-3-5-1/h1-4H2, purity 99.5%

System: 2S,3S-Paclobutrazol; phases: Crystal, Liquid, Air at 1 atmosphere
Property: Normal melting temperature, K (Crystal); method: DTA
Normal melting temperature, K	uncertainty
433.81	1.06

System: 2S,3S-Paclobutrazol; phases: Crystal, Liquid, Air at 1 atmosphere
Property: Molar enthalpy of transition or fusion, kJ/mol (Crystal); method: DSC
Molar enthalpy of transition or fusion, kJ/mol	uncertainty
37.86	1.09

System: acetonitrile + 2S,3S-Paclobutrazol; phases: Liquid, Crystal
Fixed: Pressure, kPa = 101.2
Property: Mole fraction of 2S,3S-Paclobutrazol (Liquid); method: Chromatography
Temperature, K	Mole fraction of 2S,3S-Paclobutrazol	uncertainty
278.15	0.002394	0.00012
280.65	0.002668	0.000134
283.15	0.002954	0.000148
285.65	0.003305	0.000165
288.15	0.003662	0.000183
290.65	0.004052	0.000203
293.15	0.004486	0.000225
295.65	0.004947	0.000248
298.15	0.005436	0.000272
300.65	0.005962	0.000298
303.15	0.006528	0.000327
305.65	0.007092	0.000355
308.15	0.007761	0.000389
310.65	0.008456	0.000423
313.15	0.009165	0.000459
315.65	0.01005	0.0005
318.15	0.01096	0.00055

System: ethanol + 2S,3S-Paclobutrazol; phases: Liquid, Crystal
Fixed: Pressure, kPa = 101.2
Property: Mole fraction of 2S,3S-Paclobutrazol (Liquid); method: Chromatography
Temperature, K	Mole fraction of 2S,3S-Paclobutrazol	uncertainty
278.15	0.007495	0.000375
280.65	0.008102	0.000406
283.15	0.008848	0.000443
285.65	0.009785	0.00049
288.15	0.01067	0.00053
290.65	0.01171	0.00059
293.15	0.01276	0.00064
295.65	0.01382	0.00069
298.15	0.01486	0.00074
300.65	0.016	0.0008
303.15	0.01729	0.00087
305.65	0.01853	0.00093
308.15	0.01999	0.001
310.65	0.02139	0.00107
313.15	0.0229	0.00115
315.65	0.02457	0.00123
318.15	0.0265	0.00133

System: propan-1-ol + 2S,3S-Paclobutrazol; phases: Liquid, Crystal
Fixed: Pressure, kPa = 101.2
Property: Mole fraction of 2S,3S-Paclobutrazol (Liquid); method: Chromatography
Temperature, K	Mole fraction of 2S,3S-Paclobutrazol	uncertainty
278.15	0.01238	0.00062
280.65	0.01308	0.00065
283.15	0.0139	0.0007
285.65	0.01463	0.00073
288.15	0.01548	0.00077
290.65	0.01628	0.00081
293.15	0.01718	0.00086
295.65	0.01819	0.00091
298.15	0.01925	0.00096
300.65	0.02029	0.00102
303.15	0.02152	0.00108
305.65	0.02285	0.00114
308.15	0.02411	0.00121
310.65	0.0253	0.00127
313.15	0.0265	0.00133
315.65	0.02784	0.00139
318.15	0.02914	0.00146

System: propan-2-ol + 2S,3S-Paclobutrazol; phases: Liquid, Crystal
Fixed: Pressure, kPa = 101.2
Property: Mole fraction of 2S,3S-Paclobutrazol (Liquid); method: Chromatography
Temperature, K	Mole fraction of 2S,3S-Paclobutrazol	uncertainty
278.15	0.007071	0.000354
280.65	0.007655	0.000383
283.15	0.008349	0.000418
285.65	0.009118	0.000456
288.15	0.009849	0.000493
290.65	0.01076	0.00054
293.15	0.01168	0.00058
295.65	0.01268	0.00063
298.15	0.01375	0.00069
300.65	0.01492	0.00075
303.15	0.01606	0.0008
305.65	0.01726	0.00086
308.15	0.01845	0.00092
310.65	0.01968	0.00099
313.15	0.02101	0.00105
315.65	0.02248	0.00113
318.15	0.02416	0.00121

System: acetone + 2S,3S-Paclobutrazol; phases: Liquid, Crystal
Fixed: Pressure, kPa = 101.2
Property: Mole fraction of 2S,3S-Paclobutrazol (Liquid); method: Chromatography
Temperature, K	Mole fraction of 2S,3S-Paclobutrazol	uncertainty
278.15	0.01351	0.00068
280.65	0.0145	0.00073
283.15	0.01551	0.00078
285.65	0.01672	0.00084
288.15	0.01812	0.00091
290.65	0.01939	0.00097
293.15	0.02089	0.00105
295.65	0.02234	0.00112
298.15	0.02388	0.0012
300.65	0.02534	0.00127
303.15	0.0269	0.00135
305.65	0.02838	0.00142
308.15	0.0301	0.00151
310.65	0.03173	0.00159
313.15	0.03345	0.00167
315.65	0.03534	0.00177
318.15	0.03724	0.00186

System: toluene + 2S,3S-Paclobutrazol; phases: Liquid, Crystal
Fixed: Pressure, kPa = 101.2
Property: Mole fraction of 2S,3S-Paclobutrazol (Liquid); method: Chromatography
Temperature, K	Mole fraction of 2S,3S-Paclobutrazol	uncertainty
278.15	0.04162	0.00208
280.65	0.04264	0.00213
283.15	0.04373	0.00219
285.65	0.04496	0.00225
288.15	0.04622	0.00231
290.65	0.04734	0.00237
293.15	0.04843	0.00242
295.65	0.0496	0.00248
298.15	0.05082	0.00254
300.65	0.05208	0.00261
303.15	0.05331	0.00267
305.65	0.0546	0.00273
308.15	0.05574	0.00279
310.65	0.05705	0.00286
313.15	0.0584	0.00292
315.65	0.05969	0.00299
318.15	0.06099	0.00305

System: butan-1-ol + 2S,3S-Paclobutrazol; phases: Liquid, Crystal
Fixed: Pressure, kPa = 101.2
Property: Mole fraction of 2S,3S-Paclobutrazol (Liquid); method: Chromatography
Temperature, K	Mole fraction of 2S,3S-Paclobutrazol	uncertainty
278.15	0.01335	0.00067
280.65	0.01415	0.00071
283.15	0.01512	0.00076
285.65	0.01622	0.00081
288.15	0.01732	0.00087
290.65	0.01842	0.00092
293.15	0.01984	0.00099
295.65	0.02113	0.00106
298.15	0.02243	0.00112
300.65	0.02383	0.00119
303.15	0.02511	0.00126
305.65	0.02655	0.00133
308.15	0.0279	0.0014
310.65	0.02945	0.00147
313.15	0.03085	0.00154
315.65	0.03241	0.00162
318.15	0.0341	0.00171

System: ethyl acetate + 2S,3S-Paclobutrazol; phases: Liquid, Crystal
Fixed: Pressure, kPa = 101.2
Property: Mole fraction of 2S,3S-Paclobutrazol (Liquid); method: Chromatography
Temperature, K	Mole fraction of 2S,3S-Paclobutrazol	uncertainty
278.15	0.007831	0.000392
280.65	0.008955	0.000449
283.15	0.01043	0.00052
285.65	0.01176	0.00059
288.15	0.01333	0.00067
290.65	0.01531	0.00077
293.15	0.01752	0.00088
295.65	0.02009	0.00101
298.15	0.02284	0.00114
300.65	0.02555	0.00128
303.15	0.02903	0.00145
305.65	0.03238	0.00162
308.15	0.03593	0.0018
310.65	0.03954	0.00198
313.15	0.04441	0.00222
315.65	0.04969	0.00249
318.15	0.05522	0.00276

System: 1,4-dioxane + 2S,3S-Paclobutrazol; phases: Liquid, Crystal
Fixed: Pressure, kPa = 101.2
Property: Mole fraction of 2S,3S-Paclobutrazol (Liquid); method: Chromatography
Temperature, K	Mole fraction of 2S,3S-Paclobutrazol	uncertainty
278.15	0.01563	0.00078
280.65	0.01679	0.00084
283.15	0.01832	0.00092
285.65	0.02029	0.00102
288.15	0.02235	0.00112
290.65	0.02477	0.00124
293.15	0.02709	0.00136
295.65	0.02964	0.00148
298.15	0.03237	0.00162
300.65	0.03508	0.00176
303.15	0.03806	0.00191
305.65	0.04118	0.00206
308.15	0.04401	0.0022
310.65	0.04746	0.00238
313.15	0.05122	0.00256
315.65	0.05512	0.00276
318.15	0.05929	0.00297
