Measured thermophysical data. Isothermal (vapour + liquid) equilibria in the binary mixtures (1,2-dichloroethane and 1,1,1-trichloroethane with cyclopentanone) within the temperature range (298.15 to 313.15) K
Source: J. Chem. Thermodyn., 2006, 10.1016/j.jct.2005.07.016
Compound 1: cyclopentanone, C5H8O, InChI=1S/C5H8O/c6-5-3-1-2-4-5/h1-4H2
Compound 2: 1,2-dichloroethane, C2H4Cl2, InChI=1S/C2H4Cl2/c3-1-2-4/h1-2H2
Compound 3: 1,1,1-trichloroethane, C2H3Cl3, InChI=1S/C2H3Cl3/c1-2(3,4)5/h1H3

System: cyclopentanone; phases: Liquid
Property: Refractive index (Na D-line) (Liquid); method: Standard Abbe refractometry
Temperature, K	Pressure, kPa	Refractive index (Na D-line)	uncertainty
298.15	101.325	1.4347	0.0007

System: cyclopentanone; phases: Liquid, Gas
Property: Vapor or sublimation pressure, kPa (Liquid); method: CCELL:UFactor:8
Temperature, K	Vapor or sublimation pressure, kPa	uncertainty
291.95	1.16	0.1
295.15	1.5	0.1
298.15	1.61	0.33
299.35	1.65	0.11
303.15	2.03	0.11
307.05	2.6	0.12
308.15	2.68	0.38
310.45	3	0.13
313.15	3.41	0.13
316.75	4.03	0.14

System: 1,2-dichloroethane; phases: Liquid
Property: Refractive index (Na D-line) (Liquid); method: Standard Abbe refractometry
Temperature, K	Pressure, kPa	Refractive index (Na D-line)	uncertainty
298.15	101.325	1.4421	0.0007

System: 1,2-dichloroethane; phases: Liquid, Gas
Property: Vapor or sublimation pressure, kPa (Liquid); method: CCELL:UFactor:8
Temperature, K	Vapor or sublimation pressure, kPa	uncertainty
292.85	8.09	0.21
295.55	9.23	0.23
298.15	10.47	0.25
302.35	12.81	0.29
303.15	13.34	0.91
306.25	15.46	0.33
308.15	16.77	1.08
309.95	18.17	0.37
313.15	20.88	1.28
313.65	21.29	0.42

System: 1,1,1-trichloroethane; phases: Liquid
Property: Refractive index (Na D-line) (Liquid); method: Standard Abbe refractometry
Temperature, K	Pressure, kPa	Refractive index (Na D-line)	uncertainty
298.15	101.325	1.4354	0.0007

System: 1,1,1-trichloroethane; phases: Liquid, Gas
Property: Vapor or sublimation pressure, kPa (Liquid); method: CCELL:UFactor:8
Temperature, K	Vapor or sublimation pressure, kPa	uncertainty
298.15	16.69	0.35
303.15	20.34	0.41
308.15	25.22	0.49
313.15	30.78	0.57

System: 1,2-dichloroethane + cyclopentanone; phases: Liquid, Gas
Property: Vapor or sublimation pressure, kPa (Liquid); method: CCELL:UFactor:16
Mole fraction of 1,2-dichloroethane	Temperature, K	Vapor or sublimation pressure, kPa	uncertainty
0	298.15	1.61	0.33
0	303.15	2.03	0.35
0	308.15	2.68	0.38
0	313.15	3.41	0.42
0.0421	298.15	1.71	0.33
0.0421	303.15	2.39	0.37
0.0421	308.15	2.99	0.4
0.0421	313.15	3.87	0.44
0.1259	298.15	2.14	0.35
0.1259	303.15	2.84	0.39
0.1259	308.15	3.76	0.43
0.1259	313.15	4.71	0.48
0.2243	298.15	2.93	0.39
0.2243	303.15	3.58	0.43
0.2243	308.15	4.49	0.47
0.2243	313.15	6.14	0.55
0.3021	298.15	3.61	0.43
0.3021	303.15	4.51	0.47
0.3021	308.15	5.61	0.53
0.3021	313.15	7.15	0.6
0.4378	298.15	4.53	0.47
0.4378	303.15	6	0.55
0.4378	308.15	7.47	0.62
0.4378	313.15	9.33	0.71
0.522	298.15	5.47	0.52
0.522	303.15	7.02	0.6
0.522	308.15	8.89	0.69
0.522	313.15	11.04	0.8
0.6141	298.15	6.52	0.57
0.6141	303.15	8.27	0.66
0.6141	308.15	10.35	0.76
0.6141	313.15	12.89	0.89
0.7075	298.15	7.41	0.62
0.7075	303.15	9.48	0.72
0.7075	308.15	11.88	0.84
0.7075	313.15	14.93	0.99
0.8318	298.15	9	0.69
0.8318	303.15	11.32	0.81
0.8318	308.15	14.04	0.94
0.8318	313.15	17.45	1.11
0.934	298.15	9.99	0.74
0.934	303.15	12.66	0.88
0.934	308.15	15.73	1.03
0.934	313.15	19.87	1.23
1	298.15	10.47	0.77
1	303.15	13.34	0.91
1	308.15	16.77	1.08
1	313.15	20.88	1.28

System: 1,1,1-trichloroethane + cyclopentanone; phases: Liquid, Gas
Property: Vapor or sublimation pressure, kPa (Liquid); method: CCELL:UFactor:8
Mole fraction of 1,1,1-trichloroethane	Temperature, K	Vapor or sublimation pressure, kPa	uncertainty
0	298.15	1.61	0.21
0	303.15	2.03	0.23
0	308.15	2.68	0.25
0	313.15	3.41	0.27
0.0675	298.15	2.81	0.25
0.0675	303.15	3.53	0.27
0.0675	308.15	4.44	0.3
0.0675	313.15	5.35	0.33
0.1239	298.15	3.66	0.28
0.1239	303.15	4.56	0.31
0.1239	308.15	5.68	0.34
0.1239	313.15	7.18	0.39
0.2112	298.15	4.88	0.32
0.2112	303.15	6.06	0.35
0.2112	308.15	7.51	0.4
0.2112	313.15	9.44	0.46
0.2783	298.15	5.94	0.35
0.2783	303.15	7.46	0.4
0.2783	308.15	9.21	0.46
0.2783	313.15	11.43	0.53
0.3559	298.15	7.3	0.39
0.3559	303.15	9.03	0.45
0.3559	308.15	10.95	0.51
0.3559	313.15	13.67	0.6
0.4288	298.15	8.38	0.43
0.4288	303.15	10.43	0.49
0.4288	308.15	12.82	0.57
0.4288	313.15	15.67	0.66
0.5248	298.15	9.67	0.47
0.5248	303.15	12.15	0.55
0.5248	308.15	15.08	0.64
0.5248	313.15	18.19	0.74
0.6382	298.15	11.2	0.52
0.6382	303.15	13.93	0.61
0.6382	308.15	17.31	0.71
0.6382	313.15	21.3	0.84
0.7347	298.15	12.89	0.57
0.7347	303.15	15.96	0.67
0.7347	308.15	19.74	0.79
0.7347	313.15	24.13	0.93
0.8747	298.15	14.98	0.64
0.8747	303.15	18.47	0.75
0.8747	308.15	22.78	0.89
0.8747	313.15	27.69	1.05
0.9315	298.15	15.95	0.67
0.9315	303.15	19.21	0.78
0.9315	308.15	23.82	0.92
0.9315	313.15	29.1	1.09
1	298.15	16.69	0.69
1	303.15	20.34	0.81
1	308.15	25.22	0.97
1	313.15	30.78	1.15
