Measured thermophysical data. (Liquid + liquid) equilibria of three ternary systems: (heptane + benzene + N-formylmorpholine), (heptane + toluene + N-formylmorpholine), (heptane + xylene + N-formylmorpholine) from T = (298.15 to 353.15) K
Source: J. Chem. Thermodyn., 2007, 10.1016/j.jct.2006.12.004
Compound 1: N-formylmorpholine, C5H9NO2, InChI=1S/C5H9NO2/c7-5-6-1-3-8-4-2-6/h5H,1-4H2, purity 99.5325%
Compound 2: heptane, C7H16, InChI=1S/C7H16/c1-3-5-7-6-4-2/h3-7H2,1-2H3, purity 99.8073%
Compound 3: benzene, C6H6, InChI=1S/C6H6/c1-2-4-6-5-3-1/h1-6H, purity 99.8562%
Compound 4: toluene, C7H8, InChI=1S/C7H8/c1-7-5-3-2-4-6-7/h2-6H,1H3, purity 99.8457%
Compound 5: 1,3-dimethylbenzene, C8H10, InChI=1S/C8H10/c1-7-4-3-5-8(2)6-7/h3-6H,1-2H3, purity 99.8023%

System: N-formylmorpholine; phases: Liquid
Property: Refractive index (Na D-line) (Liquid); method: Standard Abbe refractometry
Temperature, K	Pressure, kPa	Refractive index (Na D-line)	uncertainty
293.1	101.325	1.484	0.0007

System: heptane; phases: Liquid
Property: Refractive index (Na D-line) (Liquid); method: Standard Abbe refractometry
Temperature, K	Pressure, kPa	Refractive index (Na D-line)	uncertainty
293.1	101.325	1.3882	0.0007

System: benzene; phases: Liquid
Property: Refractive index (Na D-line) (Liquid); method: Standard Abbe refractometry
Temperature, K	Pressure, kPa	Refractive index (Na D-line)	uncertainty
293.1	101.325	1.5024	0.0007

System: toluene; phases: Liquid
Property: Refractive index (Na D-line) (Liquid); method: Standard Abbe refractometry
Temperature, K	Pressure, kPa	Refractive index (Na D-line)	uncertainty
293.1	101.325	1.4873	0.0007

System: 1,3-dimethylbenzene; phases: Liquid
Property: Refractive index (Na D-line) (Liquid); method: Standard Abbe refractometry
Temperature, K	Pressure, kPa	Refractive index (Na D-line)	uncertainty
293.1	101.325	1.4943	0.0007

System: toluene + heptane + N-formylmorpholine; phases: Liquid mixture 1, Liquid mixture 2
Fixed: Pressure, kPa = 101.3
Property: Mole fraction of toluene (Liquid mixture 1); method: CHROM:UFactor:2
Property: Mole fraction of heptane (Liquid mixture 2); method: CHROM:UFactor:2
Property: Mole fraction of toluene (Liquid mixture 2); method: CHROM:UFactor:2
Temperature, K	Mole fraction of heptane	Mole fraction of toluene	uncertainty	Mole fraction of heptane	uncertainty	Mole fraction of toluene	uncertainty
298.15	0.7643	0.2021	0.0031	0.03	0.0008	0.0762	
298.15	0.6402	0.3071	0.0048	0.0385	0.0009	0.143	
298.15	0.5715	0.3613	0.0056	0.0458	0.001	0.1897	
298.15	0.4445	0.4494	0.007	0.0674	0.0012	0.2941	
298.15	0.4065	0.4714	0.0073	0.077	0.0013	0.3287	
298.15	0.3565	0.4957	0.0077	0.0927	0.0015	0.3753	
298.15	0.3063	0.513	0.0075	0.1134	0.0018	0.4213	
313.15	0.7643	0.2	0.0031	0.0319	0.0008	0.0782	
313.15	0.6401	0.305	0.0047	0.0404	0.0009	0.1453	
313.15	0.571	0.3593	0.0056	0.0475	0.001	0.192	
313.15	0.4277	0.4568	0.0071	0.0724	0.0012	0.3089	
313.15	0.4044	0.4698	0.0073	0.0783	0.0013	0.33	
313.15	0.3455	0.4973	0.0077	0.097	0.0015	0.3838	
313.15	0.3027	0.5111	0.0076	0.115	0.0018	0.4221	
333.15	0.7641	0.1975	0.0031	0.0346	0.0009	0.0814	
333.15	0.5671	0.3592	0.0056	0.0513	0.001	0.1935	
333.15	0.4403	0.4457	0.0069	0.0717	0.0012	0.2978	
333.15	0.4243	0.4546	0.007	0.0748	0.0013	0.3113	
333.15	0.4077	0.461	0.0071	0.0815	0.0014	0.3324	
333.15	0.3406	0.495	0.0077	0.101	0.0016	0.3852	
333.15	0.2963	0.5076	0.0076	0.119	0.0019	0.4248	
353.15	0.7628	0.1951	0.003	0.0375	0.0009	0.083	
353.15	0.638	0.2996	0.0046	0.0462	0.001	0.1513	
353.15	0.5685	0.3534	0.0055	0.0535	0.001	0.1979	
353.15	0.4361	0.4431	0.0069	0.0755	0.0013	0.3011	
353.15	0.396	0.4651	0.0072	0.0854	0.0014	0.3349	
353.15	0.3347	0.4912	0.0076	0.1057	0.0017	0.3882	
353.15	0.2881	0.5034	0.0077	0.1264	0.002	0.4286	

System: 1,3-dimethylbenzene + heptane + N-formylmorpholine; phases: Liquid mixture 1, Liquid mixture 2
Fixed: Pressure, kPa = 101.3
Property: Mole fraction of 1,3-dimethylbenzene (Liquid mixture 1); method: CHROM:UFactor:2
Property: Mole fraction of heptane (Liquid mixture 2); method: CHROM:UFactor:2
Property: Mole fraction of 1,3-dimethylbenzene (Liquid mixture 2); method: CHROM:UFactor:2
Temperature, K	Mole fraction of heptane	Mole fraction of 1,3-dimethylbenzene	uncertainty	Mole fraction of heptane	uncertainty	Mole fraction of 1,3-dimethylbenzene	uncertainty
298.15	0.7972	0.1745	0.0027	0.0344	0.0009	0.0683	
298.15	0.6549	0.2981	0.0046	0.0396	0.001	0.1224	
298.15	0.5438	0.3887	0.006	0.0442	0.0011	0.1671	
298.15	0.4567	0.4532	0.0071	0.0481	0.0011	0.2046	
298.15	0.4086	0.4858	0.0076	0.0505	0.0012	0.2269	
298.15	0.3623	0.5143	0.0076	0.0529	0.0012	0.25	
313.15	0.7953	0.1712	0.0027	0.0405	0.001	0.0712	
313.15	0.6527	0.2928	0.0046	0.0471	0.0011	0.1284	
313.15	0.5407	0.3812	0.0059	0.053	0.0012	0.1766	
313.15	0.4519	0.4441	0.0069	0.0584	0.0013	0.2181	
313.15	0.4023	0.4753	0.0074	0.0619	0.0013	0.2433	
313.15	0.354	0.502	0.0078	0.0658	0.0014	0.2699	
313.15	0.3207	0.5176	0.0076	0.0688	0.0015	0.29	
333.15	0.7915	0.1674	0.0026	0.0499	0.0011	0.0749	
333.15	0.6483	0.286	0.0045	0.0585	0.0012	0.1363	
333.15	0.5344	0.3716	0.0058	0.0669	0.0014	0.1892	
333.15	0.4428	0.4314	0.0068	0.0752	0.0015	0.236	
333.15	0.3905	0.4603	0.0072	0.081	0.0016	0.2654	
333.15	0.3382	0.4837	0.0076	0.088	0.0017	0.2978	
333.15	0.3019	0.4955	0.0078	0.094	0.0019	0.3226	
353.15	0.7863	0.1637	0.0026	0.0606	0.0012	0.0783	
353.15	0.6419	0.2794	0.0044	0.0718	0.0014	0.1436	
353.15	0.5255	0.362	0.0057	0.0833	0.0016	0.2011	
353.15	0.4298	0.4184	0.0066	0.0957	0.0018	0.2536	
353.15	0.3734	0.4442	0.007	0.1053	0.002	0.2878	
353.15	0.3143	0.4622	0.0074	0.1185	0.0022	0.3278	
353.15	0.2705	0.4668	0.0074	0.1321	0.0023	0.3608	

System: benzene + heptane + N-formylmorpholine; phases: Liquid mixture 1, Liquid mixture 2
Fixed: Pressure, kPa = 101
Property: Mole fraction of benzene (Liquid mixture 1); method: CHROM:UFactor:2
Property: Mole fraction of heptane (Liquid mixture 2); method: CHROM:UFactor:2
Property: Mole fraction of benzene (Liquid mixture 2); method: CHROM:UFactor:2
Temperature, K	Mole fraction of heptane	Mole fraction of benzene	uncertainty	Mole fraction of heptane	uncertainty	Mole fraction of benzene	uncertainty
298.15	0.8635	0.1191	0.0019	0.0428	0.0011	0.0732	
298.15	0.7912	0.184	0.0029	0.0461	0.0011	0.1219	
298.15	0.6476	0.3044	0.0047	0.0568	0.0012	0.2261	
298.15	0.5337	0.3918	0.0061	0.0713	0.0014	0.3166	
298.15	0.4221	0.466	0.0072	0.0971	0.0017	0.4119	
298.15	0.3535	0.5047	0.0078	0.124	0.0024	0.4633	
298.15	0.3275	0.5167	0.0076	0.1323	0.0031	0.4838	
313.15	0.7893	0.1807	0.0028	0.054	0.0012	0.1244	
313.15	0.6452	0.3	0.0047	0.067	0.0014	0.2295	
313.15	0.5294	0.3863	0.006	0.0845	0.0016	0.3219	
313.15	0.4464	0.4405	0.0069	0.1042	0.002	0.3894	
313.15	0.3782	0.478	0.0075	0.1277	0.0025	0.4416	
313.15	0.331	0.4983	0.0078	0.1499	0.0031	0.4731	
313.15	0.2972	0.509	0.0077	0.1698	0.0035	0.4919	
333.15	0.8621	0.1128	0.0018	0.059	0.0012	0.077	
333.15	0.7865	0.1773	0.0028	0.0648	0.0013	0.1283	
333.15	0.6447	0.2904	0.0045	0.0813	0.0015	0.2345	
333.15	0.5191	0.3808	0.0059	0.104	0.0019	0.3282	
333.15	0.4457	0.4259	0.0067	0.1252	0.0023	0.3836	
333.15	0.3858	0.4559	0.0071	0.1489	0.003	0.4262	
333.15	0.3466	0.4711	0.0074	0.1685	0.0034	0.4486	
353.15	0.8589	0.1096	0.0017	0.0697	0.0013	0.0786	
353.15	0.6335	0.2898	0.0046	0.0976	0.0019	0.2386	
353.15	0.5062	0.3749	0.0059	0.1272	0.0024	0.3326	
353.15	0.4232	0.4195	0.0066	0.1571	0.003	0.3892	
353.15	0.3443	0.4491	0.0071	0.1986	0.0039	0.4328	
353.15	0.3098	0.4561	0.0072	0.2227	0.0045	0.4464	
