Measured thermophysical data. Structure making behaviour of L-histidine in aqueous solutions of ampicillin sodium at different temperatures: Using physicochemical methods
Source: J. Chem. Thermodyn., 2017, 10.1016/j.jct.2017.07.040
Compound 1: water, H2O, InChI=1S/H2O/h1H2, purity 99.8%
Compound 2: L-histidine, C6H9N3O2, InChI=1S/C6H9N3O2/c7-5(6(10)11)1-4-2-8-3-9-4/h2-3,5H,1,7H2,(H,8,9)(H,10,11)/t5-/m0/s1, purity 99%
Compound 3: Ampicillin Sodium, C16H18N3NaO4S, InChI=1S/C16H19N3O4S.Na/c1-16(2)11(15(22)23)19-13(21)10(14(19)24-16)18-12(20)9(17)8-6-4-3-5-7-8;/h3-7,9-11,14H,17H2,1-2H3,(H,18,20)(H,22,23);/q;+1/p-1/t9-,10-,11+,14-;/m1./s1, purity 99%

System: L-histidine + water + Ampicillin Sodium; phases: Liquid
Fixed: Pressure, kPa = 101
Property: Mass density, kg/m3 (Liquid); method: Vibrating tube method
Solvent: Molality, mol/kg of Ampicillin Sodium	Temperature, K	Molality, mol/kg of L-histidine	Mass density, kg/m3	uncertainty
0	293.15	0	998.222	1.01
0	293.15	0.01	998.806	1.01
0	293.15	0.03	999.974	1.01
0	293.15	0.05	1001.143	1.01
0	293.15	0.07	1002.317	1.01
0	293.15	0.09	1003.497	1.01
0	293.15	0.11	1004.68	1.01
0	298.15	0	997.065	1.01
0	298.15	0.01	997.635	1.01
0	298.15	0.03	998.775	1.01
0	298.15	0.05	999.914	1.01
0	298.15	0.07	1001.054	1.01
0	298.15	0.09	1002.193	1.01
0	298.15	0.11	1003.33	1.01
0	303.15	0	995.674	1.01
0	303.15	0.01	996.232	1.01
0	303.15	0.03	997.346	1.01
0	303.15	0.05	998.458	1.01
0	303.15	0.07	999.567	1.01
0	303.15	0.09	1000.676	1.01
0	303.15	0.11	1001.786	1.01
0	308.15	0	994.063	1.01
0	308.15	0.01	994.608	1.01
0	308.15	0.03	995.696	1.01
0	308.15	0.05	996.785	1.01
0	308.15	0.07	997.874	1.01
0	308.15	0.09	998.961	1.01
0	308.15	0.11	1000.05	1.01
0	313.15	0	992.25	1.01
0	313.15	0.01	992.782	1.01
0	313.15	0.03	993.848	1.01
0	313.15	0.05	994.918	1.01
0	313.15	0.07	995.988	1.01
0	313.15	0.09	997.06	1.01
0	313.15	0.11	998.13	1.01
0.035	293.15	0	1002.836	1.01
0.035	293.15	0.01	1003.376	1.01
0.035	293.15	0.03	1004.467	1.01
0.035	293.15	0.05	1005.566	1.01
0.035	293.15	0.07	1006.68	1.01
0.035	293.15	0.09	1007.8	1.01
0.035	293.15	0.11	1008.936	1.01
0.035	298.15	0	1001.637	1.01
0.035	298.15	0.01	1002.173	1.01
0.035	298.15	0.03	1003.251	1.01
0.035	298.15	0.05	1004.34	1.01
0.035	298.15	0.07	1005.44	1.01
0.035	298.15	0.09	1006.55	1.01
0.035	298.15	0.11	1007.67	1.01
0.035	303.15	0	1000.193	1.01
0.035	303.15	0.01	1000.723	1.01
0.035	303.15	0.03	1001.79	1.01
0.035	303.15	0.05	1002.87	1.01
0.035	303.15	0.07	1003.96	1.01
0.035	303.15	0.09	1005.058	1.01
0.035	303.15	0.11	1006.162	1.01
0.035	308.15	0	998.531	1.01
0.035	308.15	0.01	999.056	1.01
0.035	308.15	0.03	1000.114	1.01
0.035	308.15	0.05	1001.181	1.01
0.035	308.15	0.07	1002.26	1.01
0.035	308.15	0.09	1003.35	1.01
0.035	308.15	0.11	1004.451	1.01
0.035	313.15	0	996.661	1.01
0.035	313.15	0.01	997.18	1.01
0.035	313.15	0.03	998.23	1.01
0.035	313.15	0.05	999.29	1.01
0.035	313.15	0.07	1000.365	1.01
0.035	313.15	0.09	1001.444	1.01
0.035	313.15	0.11	1002.54	1.01
0.055	293.15	0	1005.4	1.01
0.055	293.15	0.01	1005.932	1.01
0.055	293.15	0.03	1007.003	1.01
0.055	293.15	0.05	1008.084	1.01
0.055	293.15	0.07	1009.178	1.01
0.055	293.15	0.09	1010.28	1.011
0.055	293.15	0.11	1011.39	1.011
0.055	298.15	0	1004.163	1.01
0.055	298.15	0.01	1004.691	1.01
0.055	298.15	0.03	1005.754	1.01
0.055	298.15	0.05	1006.828	1.01
0.055	298.15	0.07	1007.911	1.01
0.055	298.15	0.09	1009.005	1.01
0.055	298.15	0.11	1010.11	1.011
0.055	303.15	0	1002.691	1.01
0.055	303.15	0.01	1003.215	1.01
0.055	303.15	0.03	1004.271	1.01
0.055	303.15	0.05	1005.336	1.01
0.055	303.15	0.07	1006.412	1.01
0.055	303.15	0.09	1007.5	1.01
0.055	303.15	0.11	1008.6	1.01
0.055	308.15	0	1001.007	1.01
0.055	308.15	0.01	1001.527	1.01
0.055	308.15	0.03	1002.574	1.01
0.055	308.15	0.05	1003.631	1.01
0.055	308.15	0.07	1004.699	1.01
0.055	308.15	0.09	1005.78	1.01
0.055	308.15	0.11	1006.87	1.01
0.055	313.15	0	999.128	1.01
0.055	313.15	0.01	999.644	1.01
0.055	313.15	0.03	1000.683	1.01
0.055	313.15	0.05	1001.734	1.01
0.055	313.15	0.07	1002.794	1.01
0.055	313.15	0.09	1003.867	1.01
0.055	313.15	0.11	1004.957	1.01
0.075	293.15	0	1007.904	1.01
0.075	293.15	0.01	1008.43	1.01
0.075	293.15	0.03	1009.49	1.011
0.075	293.15	0.05	1010.56	1.011
0.075	293.15	0.07	1011.641	1.011
0.075	293.15	0.09	1012.734	1.011
0.075	293.15	0.11	1013.84	1.011
0.075	298.15	0	1006.657	1.01
0.075	298.15	0.01	1007.179	1.01
0.075	298.15	0.03	1008.231	1.01
0.075	298.15	0.05	1009.293	1.011
0.075	298.15	0.07	1010.368	1.011
0.075	298.15	0.09	1011.45	1.011
0.075	298.15	0.11	1012.549	1.011
0.075	303.15	0	1005.099	1.01
0.075	303.15	0.01	1005.617	1.01
0.075	303.15	0.03	1006.661	1.01
0.075	303.15	0.05	1007.716	1.01
0.075	303.15	0.07	1008.781	1.01
0.075	303.15	0.09	1009.859	1.011
0.075	303.15	0.11	1010.949	1.011
0.075	308.15	0	1003.04	1.01
0.075	308.15	0.01	1003.554	1.01
0.075	308.15	0.03	1004.592	1.01
0.075	308.15	0.05	1005.64	1.01
0.075	308.15	0.07	1006.7	1.01
0.075	308.15	0.09	1007.77	1.01
0.075	308.15	0.11	1008.856	1.01
0.075	313.15	0	1000.49	1.01
0.075	313.15	0.01	1001.001	1.01
0.075	313.15	0.03	1002.033	1.01
0.075	313.15	0.05	1003.075	1.01
0.075	313.15	0.07	1004.13	1.01
0.075	313.15	0.09	1005.198	1.01
0.075	313.15	0.11	1006.275	1.01
0.095	293.15	0	1010.539	1.011
0.095	293.15	0.01	1011.059	1.011
0.095	293.15	0.03	1012.107	1.011
0.095	293.15	0.05	1013.167	1.011
0.095	293.15	0.07	1014.239	1.011
0.095	293.15	0.09	1015.32	1.011
0.095	293.15	0.11	1016.41	1.011
0.095	298.15	0	1009.249	1.011
0.095	298.15	0.01	1009.765	1.011
0.095	298.15	0.03	1010.805	1.011
0.095	298.15	0.05	1011.856	1.011
0.095	298.15	0.07	1012.92	1.011
0.095	298.15	0.09	1013.996	1.011
0.095	298.15	0.11	1015.077	1.011
0.095	303.15	0	1007.704	1.01
0.095	303.15	0.01	1008.216	1.01
0.095	303.15	0.03	1009.248	1.011
0.095	303.15	0.05	1010.292	1.011
0.095	303.15	0.07	1011.349	1.011
0.095	303.15	0.09	1012.416	1.011
0.095	303.15	0.11	1013.49	1.011
0.095	308.15	0	1005.844	1.01
0.095	308.15	0.01	1006.352	1.01
0.095	308.15	0.03	1007.376	1.01
0.095	308.15	0.05	1008.413	1.01
0.095	308.15	0.07	1009.46	1.011
0.095	308.15	0.09	1010.52	1.011
0.095	308.15	0.11	1011.59	1.011
0.095	313.15	0	1003.744	1.01
0.095	313.15	0.01	1004.248	1.01
0.095	313.15	0.03	1005.265	1.01
0.095	313.15	0.05	1006.293	1.01
0.095	313.15	0.07	1007.333	1.01
0.095	313.15	0.09	1008.385	1.01
0.095	313.15	0.11	1009.453	1.011

System: L-histidine + water + Ampicillin Sodium; phases: Liquid
Fixed: Pressure, kPa = 101
Fixed: Frequency, MHz = 6
Property: Speed of sound, m/s (Liquid); method: Linear variable-path acoustic interferometer
Solvent: Molality, mol/kg of Ampicillin Sodium	Temperature, K	Molality, mol/kg of L-histidine	Speed of sound, m/s	uncertainty
0	293.15	0	1483	2.55
0	293.15	0.01	1483.91	2.55
0	293.15	0.03	1485.7	2.55
0	293.15	0.05	1487.49	2.55
0	293.15	0.07	1489.27	2.55
0	293.15	0.09	1491.06	2.56
0	293.15	0.11	1492.76	2.56
0	298.15	0	1497.12	2.56
0	298.15	0.01	1498.21	2.56
0	298.15	0.03	1499.96	2.56
0	298.15	0.05	1501.67	2.56
0	298.15	0.07	1503.23	2.56
0	298.15	0.09	1504.98	2.56
0	298.15	0.11	1506.87	2.56
0	303.15	0	1509.51	2.56
0	303.15	0.01	1510.35	2.56
0	303.15	0.03	1512.03	2.56
0	303.15	0.05	1513.71	2.56
0	303.15	0.07	1515.37	2.56
0	303.15	0.09	1517.02	2.57
0	303.15	0.11	1518.67	2.57
0	308.15	0	1520.19	2.57
0	308.15	0.01	1521.02	2.57
0	308.15	0.03	1522.66	2.57
0	308.15	0.05	1524.28	2.57
0	308.15	0.07	1525.9	2.57
0	308.15	0.09	1527.5	2.57
0	308.15	0.11	1529.1	2.57
0	313.15	0	1529.31	2.57
0	313.15	0.01	1530.11	2.57
0	313.15	0.03	1531.69	2.57
0	313.15	0.05	1533.24	2.57
0	313.15	0.07	1534.77	2.57
0	313.15	0.09	1536.28	2.57
0	313.15	0.11	1537.79	2.57
0.035	293.15	0	1487.51	2.55
0.035	293.15	0.01	1488.3	2.55
0.035	293.15	0.03	1489.85	2.55
0.035	293.15	0.05	1491.35	2.56
0.035	293.15	0.07	1492.82	2.56
0.035	293.15	0.09	1494.24	2.56
0.035	293.15	0.11	1495.62	2.56
0.035	298.15	0	1501.62	2.56
0.035	298.15	0.01	1502.39	2.56
0.035	298.15	0.03	1503.9	2.56
0.035	298.15	0.05	1505.37	2.56
0.035	298.15	0.07	1506.8	2.56
0.035	298.15	0.09	1508.17	2.56
0.035	298.15	0.11	1509.51	2.56
0.035	303.15	0	1514	2.56
0.035	303.15	0.01	1514.74	2.56
0.035	303.15	0.03	1516.2	2.57
0.035	303.15	0.05	1517.61	2.57
0.035	303.15	0.07	1518.96	2.57
0.035	303.15	0.09	1520.28	2.57
0.035	303.15	0.11	1521.57	2.57
0.035	308.15	0	1524.69	2.57
0.035	308.15	0.01	1525.4	2.57
0.035	308.15	0.03	1526.8	2.57
0.035	308.15	0.05	1528.15	2.57
0.035	308.15	0.07	1529.47	2.57
0.035	308.15	0.09	1530.73	2.57
0.035	308.15	0.11	1531.95	2.57
0.035	313.15	0	1533.78	2.57
0.035	313.15	0.01	1534.45	2.57
0.035	313.15	0.03	1535.77	2.57
0.035	313.15	0.05	1537.04	2.57
0.035	313.15	0.07	1538.27	2.57
0.035	313.15	0.09	1539.46	2.57
0.035	313.15	0.11	1540.58	2.57
0.055	293.15	0	1492	2.56
0.055	293.15	0.01	1492.78	2.56
0.055	293.15	0.03	1494.3	2.56
0.055	293.15	0.05	1495.77	2.56
0.055	293.15	0.07	1497.2	2.56
0.055	293.15	0.09	1498.59	2.56
0.055	293.15	0.11	1499.94	2.56
0.055	298.15	0	1505.57	2.56
0.055	298.15	0.01	1506.33	2.56
0.055	298.15	0.03	1507.8	2.56
0.055	298.15	0.05	1509.23	2.56
0.055	298.15	0.07	1510.62	2.56
0.055	298.15	0.09	1511.95	2.56
0.055	298.15	0.11	1513.24	2.56
0.055	303.15	0	1518.14	2.57
0.055	303.15	0.01	1518.87	2.57
0.055	303.15	0.03	1520.29	2.57
0.055	303.15	0.05	1521.66	2.57
0.055	303.15	0.07	1522.98	2.57
0.055	303.15	0.09	1524.25	2.57
0.055	303.15	0.11	1525.47	2.57
0.055	308.15	0	1529.01	2.57
0.055	308.15	0.01	1529.7	2.57
0.055	308.15	0.03	1531.06	2.57
0.055	308.15	0.05	1532.37	2.57
0.055	308.15	0.07	1533.63	2.57
0.055	308.15	0.09	1534.83	2.57
0.055	308.15	0.11	1535.99	2.57
0.055	313.15	0	1538	2.57
0.055	313.15	0.01	1538.66	2.57
0.055	313.15	0.03	1539.93	2.57
0.055	313.15	0.05	1541.15	2.58
0.055	313.15	0.07	1542.31	2.58
0.055	313.15	0.09	1543.42	2.58
0.055	313.15	0.11	1544.47	2.58
0.075	293.15	0	1496.1	2.56
0.075	293.15	0.01	1496.86	2.56
0.075	293.15	0.03	1498.34	2.56
0.075	293.15	0.05	1499.79	2.56
0.075	293.15	0.07	1501.18	2.56
0.075	293.15	0.09	1502.53	2.56
0.075	293.15	0.11	1503.82	2.56
0.075	298.15	0	1509.6	2.56
0.075	298.15	0.01	1510.33	2.56
0.075	298.15	0.03	1511.77	2.56
0.075	298.15	0.05	1513.15	2.56
0.075	298.15	0.07	1514.49	2.56
0.075	298.15	0.09	1515.79	2.57
0.075	298.15	0.11	1517.03	2.57
0.075	303.15	0	1522.1	2.57
0.075	303.15	0.01	1522.81	2.57
0.075	303.15	0.03	1524.19	2.57
0.075	303.15	0.05	1525.52	2.57
0.075	303.15	0.07	1526.79	2.57
0.075	303.15	0.09	1528.02	2.57
0.075	303.15	0.11	1529.18	2.57
0.075	308.15	0	1532.99	2.57
0.075	308.15	0.01	1533.67	2.57
0.075	308.15	0.03	1534.98	2.57
0.075	308.15	0.05	1536.24	2.57
0.075	308.15	0.07	1537.45	2.57
0.075	308.15	0.09	1538.61	2.57
0.075	308.15	0.11	1539.71	2.57
0.075	313.15	0	1542.51	2.58
0.075	313.15	0.01	1543.14	2.58
0.075	313.15	0.03	1544.37	2.58
0.075	313.15	0.05	1545.55	2.58
0.075	313.15	0.07	1546.68	2.58
0.075	313.15	0.09	1547.75	2.58
0.075	313.15	0.11	1548.78	2.58
0.095	293.15	0	1501.3	2.56
0.095	293.15	0.01	1502.04	2.56
0.095	293.15	0.03	1503.49	2.56
0.095	293.15	0.05	1504.89	2.56
0.095	293.15	0.07	1506.24	2.56
0.095	293.15	0.09	1507.56	2.56
0.095	293.15	0.11	1508.82	2.56
0.095	298.15	0	1515.01	2.56
0.095	298.15	0.01	1515.72	2.57
0.095	298.15	0.03	1517.12	2.57
0.095	298.15	0.05	1518.46	2.57
0.095	298.15	0.07	1519.76	2.57
0.095	298.15	0.09	1521	2.57
0.095	298.15	0.11	1522.19	2.57
0.095	303.15	0	1525.99	2.57
0.095	303.15	0.01	1526.68	2.57
0.095	303.15	0.03	1528.02	2.57
0.095	303.15	0.05	1529.3	2.57
0.095	303.15	0.07	1530.52	2.57
0.095	303.15	0.09	1531.7	2.57
0.095	303.15	0.11	1532.82	2.57
0.095	308.15	0	1535.7	2.57
0.095	308.15	0.01	1536.35	2.57
0.095	308.15	0.03	1537.62	2.57
0.095	308.15	0.05	1538.82	2.57
0.095	308.15	0.07	1539.98	2.57
0.095	308.15	0.09	1541.08	2.58
0.095	308.15	0.11	1542.14	2.58
0.095	313.15	0	1546.09	2.58
0.095	313.15	0.01	1546.71	2.58
0.095	313.15	0.03	1547.9	2.58
0.095	313.15	0.05	1549.03	2.58
0.095	313.15	0.07	1550.12	2.58
0.095	313.15	0.09	1551.15	2.58
0.095	313.15	0.11	1552.12	2.58

System: L-histidine + water + Ampicillin Sodium; phases: Liquid
Fixed: Pressure, kPa = 101
Property: Viscosity, Pa*s (Liquid); method: Capillary tube (Ostwald; Ubbelohde) method
Solvent: Molality, mol/kg of Ampicillin Sodium	Temperature, K	Molality, mol/kg of L-histidine	Viscosity, Pa*s	uncertainty
0	293.15	0	0.0010019	2.11e-05
0	293.15	0.01	0.0010085	2.11e-05
0	293.15	0.03	0.001016	2.11e-05
0	293.15	0.05	0.0010222	2.11e-05
0	293.15	0.07	0.0010281	2.12e-05
0	293.15	0.09	0.0010338	2.12e-05
0	293.15	0.11	0.0010399	2.12e-05
0	298.15	0	0.0008903	2.09e-05
0	298.15	0.01	0.0008956	2.09e-05
0	298.15	0.03	0.0009014	2.09e-05
0	298.15	0.05	0.0009061	2.09e-05
0	298.15	0.07	0.0009107	2.09e-05
0	298.15	0.09	0.0009156	2.09e-05
0	298.15	0.11	0.0009197	2.09e-05
0	303.15	0	0.0007973	2.07e-05
0	303.15	0.01	0.0008015	2.07e-05
0	303.15	0.03	0.0008061	2.08e-05
0	303.15	0.05	0.0008103	2.08e-05
0	303.15	0.07	0.0008143	2.08e-05
0	303.15	0.09	0.0008178	2.08e-05
0	303.15	0.11	0.0008217	2.08e-05
0	308.15	0	0.000719	2.06e-05
0	308.15	0.01	0.0007223	2.06e-05
0	308.15	0.03	0.0007259	2.06e-05
0	308.15	0.05	0.0007292	2.06e-05
0	308.15	0.07	0.0007323	2.06e-05
0	308.15	0.09	0.0007356	2.06e-05
0	308.15	0.11	0.0007389	2.06e-05
0	313.15	0	0.0006526	2.05e-05
0	313.15	0.01	0.0006553	2.05e-05
0	313.15	0.03	0.0006584	2.05e-05
0	313.15	0.05	0.0006613	2.05e-05
0	313.15	0.07	0.0006638	2.05e-05
0	313.15	0.09	0.0006669	2.05e-05
0	313.15	0.11	0.0006692	2.05e-05
0.035	293.15	0	0.0010344	2.12e-05
0.035	293.15	0.01	0.0010421	2.12e-05
0.035	293.15	0.03	0.0010496	2.12e-05
0.035	293.15	0.05	0.001056	2.12e-05
0.035	293.15	0.07	0.0010627	2.12e-05
0.035	293.15	0.09	0.0010694	2.12e-05
0.035	293.15	0.11	0.0010769	2.13e-05
0.035	298.15	0	0.0009268	2.1e-05
0.035	298.15	0.01	0.0009334	2.1e-05
0.035	298.15	0.03	0.0009391	2.1e-05
0.035	298.15	0.05	0.0009447	2.1e-05
0.035	298.15	0.07	0.0009504	2.1e-05
0.035	298.15	0.09	0.0009562	2.1e-05
0.035	298.15	0.11	0.0009619	2.1e-05
0.035	303.15	0	0.0008381	2.08e-05
0.035	303.15	0.01	0.0008429	2.08e-05
0.035	303.15	0.03	0.0008474	2.08e-05
0.035	303.15	0.05	0.0008526	2.08e-05
0.035	303.15	0.07	0.0008567	2.08e-05
0.035	303.15	0.09	0.0008613	2.08e-05
0.035	303.15	0.11	0.0008658	2.09e-05
0.035	308.15	0	0.0007612	2.07e-05
0.035	308.15	0.01	0.0007648	2.07e-05
0.035	308.15	0.03	0.0007685	2.07e-05
0.035	308.15	0.05	0.0007722	2.07e-05
0.035	308.15	0.07	0.0007761	2.07e-05
0.035	308.15	0.09	0.0007799	2.07e-05
0.035	308.15	0.11	0.0007836	2.07e-05
0.035	313.15	0	0.0006978	2.06e-05
0.035	313.15	0.01	0.0007008	2.06e-05
0.035	313.15	0.03	0.0007041	2.06e-05
0.035	313.15	0.05	0.0007072	2.06e-05
0.035	313.15	0.07	0.0007102	2.06e-05
0.035	313.15	0.09	0.0007138	2.06e-05
0.035	313.15	0.11	0.0007167	2.06e-05
0.055	293.15	0	0.0010724	2.12e-05
0.055	293.15	0.01	0.0010805	2.13e-05
0.055	293.15	0.03	0.0010883	2.13e-05
0.055	293.15	0.05	0.0010959	2.13e-05
0.055	293.15	0.07	0.0011023	2.13e-05
0.055	293.15	0.09	0.0011098	2.13e-05
0.055	293.15	0.11	0.0011169	2.13e-05
0.055	298.15	0	0.0009663	2.1e-05
0.055	298.15	0.01	0.0009733	2.1e-05
0.055	298.15	0.03	0.0009797	2.11e-05
0.055	298.15	0.05	0.0009858	2.11e-05
0.055	298.15	0.07	0.0009916	2.11e-05
0.055	298.15	0.09	0.0009975	2.11e-05
0.055	298.15	0.11	0.0010037	2.11e-05
0.055	303.15	0	0.0008814	2.09e-05
0.055	303.15	0.01	0.0008866	2.09e-05
0.055	303.15	0.03	0.0008919	2.09e-05
0.055	303.15	0.05	0.0008971	2.09e-05
0.055	303.15	0.07	0.0009018	2.09e-05
0.055	303.15	0.09	0.0009062	2.09e-05
0.055	303.15	0.11	0.0009115	2.09e-05
0.055	308.15	0	0.0008077	2.08e-05
0.055	308.15	0.01	0.0008116	2.08e-05
0.055	308.15	0.03	0.0008156	2.08e-05
0.055	308.15	0.05	0.0008199	2.08e-05
0.055	308.15	0.07	0.000824	2.1e-05
0.055	308.15	0.09	0.0008279	2.08e-05
0.055	308.15	0.11	0.0008319	2.08e-05
0.055	313.15	0	0.000748	2.07e-05
0.055	313.15	0.01	0.0007512	2.07e-05
0.055	313.15	0.03	0.0007548	2.07e-05
0.055	313.15	0.05	0.0007584	2.07e-05
0.055	313.15	0.07	0.0007619	2.07e-05
0.055	313.15	0.09	0.0007653	2.07e-05
0.055	313.15	0.11	0.0007684	2.07e-05
0.075	293.15	0	0.0011093	2.13e-05
0.075	293.15	0.01	0.0011178	2.13e-05
0.075	293.15	0.03	0.0011263	2.14e-05
0.075	293.15	0.05	0.0011338	2.14e-05
0.075	293.15	0.07	0.0011408	2.14e-05
0.075	293.15	0.09	0.0011485	2.14e-05
0.075	293.15	0.11	0.0011565	2.14e-05
0.075	298.15	0	0.0010082	2.11e-05
0.075	298.15	0.01	0.0010156	2.11e-05
0.075	298.15	0.03	0.0010231	2.11e-05
0.075	298.15	0.05	0.0010297	2.12e-05
0.075	298.15	0.07	0.0010358	2.12e-05
0.075	298.15	0.09	0.0010417	2.12e-05
0.075	298.15	0.11	0.0010481	2.12e-05
0.075	303.15	0	0.0009262	2.1e-05
0.075	303.15	0.01	0.0009319	2.1e-05
0.075	303.15	0.03	0.0009375	2.1e-05
0.075	303.15	0.05	0.0009433	2.1e-05
0.075	303.15	0.07	0.0009481	2.1e-05
0.075	303.15	0.09	0.000953	2.1e-05
0.075	303.15	0.11	0.0009587	2.1e-05
0.075	308.15	0	0.0008543	2.08e-05
0.075	308.15	0.01	0.0008586	2.08e-05
0.075	308.15	0.03	0.0008632	2.08e-05
0.075	308.15	0.05	0.0008679	2.09e-05
0.075	308.15	0.07	0.0008724	2.09e-05
0.075	308.15	0.09	0.0008762	2.09e-05
0.075	308.15	0.11	0.0008807	2.09e-05
0.075	313.15	0	0.0007967	2.07e-05
0.075	313.15	0.01	0.0008003	2.07e-05
0.075	313.15	0.03	0.0008042	2.07e-05
0.075	313.15	0.05	0.0008079	2.08e-05
0.075	313.15	0.07	0.0008123	2.08e-05
0.075	313.15	0.09	0.0008158	2.08e-05
0.075	313.15	0.11	0.0008192	2.08e-05
0.095	293.15	0	0.0011135	2.13e-05
0.095	293.15	0.01	0.0011224	2.14e-05
0.095	293.15	0.03	0.0011312	2.14e-05
0.095	293.15	0.05	0.0011385	2.14e-05
0.095	293.15	0.07	0.0011458	2.14e-05
0.095	293.15	0.09	0.001154	2.14e-05
0.095	293.15	0.11	0.0011622	2.14e-05
0.095	298.15	0	0.0010497	2.12e-05
0.095	298.15	0.01	0.0010575	2.12e-05
0.095	298.15	0.03	0.0010658	2.12e-05
0.095	298.15	0.05	0.0010726	2.12e-05
0.095	298.15	0.07	0.0010789	2.13e-05
0.095	298.15	0.09	0.0010854	2.13e-05
0.095	298.15	0.11	0.0010918	2.13e-05
0.095	303.15	0	0.0009736	2.1e-05
0.095	303.15	0.01	0.0009797	2.11e-05
0.095	303.15	0.03	0.0009863	2.11e-05
0.095	303.15	0.05	0.0009923	2.11e-05
0.095	303.15	0.07	0.0009971	2.11e-05
0.095	303.15	0.09	0.0010024	2.11e-05
0.095	303.15	0.11	0.0010089	2.11e-05
0.095	308.15	0	0.0009016	2.09e-05
0.095	308.15	0.01	0.0009063	2.09e-05
0.095	308.15	0.03	0.0009117	2.09e-05
0.095	308.15	0.05	0.0009165	2.09e-05
0.095	308.15	0.07	0.0009212	2.1e-05
0.095	308.15	0.09	0.0009254	2.1e-05
0.095	308.15	0.11	0.0009305	2.1e-05
0.095	313.15	0	0.0008021	2.07e-05
0.095	313.15	0.01	0.0008058	2.08e-05
0.095	313.15	0.03	0.0008104	2.08e-05
0.095	313.15	0.05	0.0008142	2.08e-05
0.095	313.15	0.07	0.0008179	2.08e-05
0.095	313.15	0.09	0.0008218	2.08e-05
0.095	313.15	0.11	0.0008258	2.08e-05

System: L-histidine + water; phases: Liquid
Fixed: Pressure, kPa = 101
Property: Mass density, kg/m3 (Liquid); method: Vibrating tube method
Temperature, K	Molality, mol/kg of L-histidine	Mass density, kg/m3	uncertainty
293.15	0.01	998.806	1.06
293.15	0.03	999.974	1.06
293.15	0.05	1001.143	1.061
293.15	0.07	1002.317	1.061
293.15	0.09	1003.497	1.062
293.15	0.11	1004.68	1.062
298.15	0.01	997.635	1.059
298.15	0.03	998.775	1.057
298.15	0.05	999.914	1.057
298.15	0.07	1001.054	1.057
298.15	0.09	1002.193	1.057
298.15	0.11	1003.33	1.051
303.15	0.01	996.232	1.057
303.15	0.03	997.346	1.055
303.15	0.05	998.458	1.055
303.15	0.07	999.567	1.055
303.15	0.09	1000.676	1.055
303.15	0.11	1001.786	1.049
308.15	0.01	994.608	1.054
308.15	0.03	995.696	1.053
308.15	0.05	996.785	1.053
308.15	0.07	997.874	1.053
308.15	0.09	998.961	1.053
308.15	0.11	1000.05	1.05
313.15	0.01	992.782	1.051
313.15	0.03	993.848	1.051
313.15	0.05	994.918	1.051
313.15	0.07	995.988	1.051
313.15	0.09	997.06	1.051
313.15	0.11	998.13	1.051
293.15	0	998.222	1.06
298.15	0	997.065	1.074
303.15	0	995.674	1.07
308.15	0	994.063	1.066
313.15	0	992.25	1.05

System: L-histidine + water; phases: Liquid
Fixed: Pressure, kPa = 101
Fixed: Frequency, MHz = 6
Property: Speed of sound, m/s (Liquid); method: Linear variable-path acoustic interferometer
Temperature, K	Molality, mol/kg of L-histidine	Speed of sound, m/s	uncertainty
293.15	0.01	1483.91	2.51
293.15	0.03	1485.7	2.51
293.15	0.05	1487.49	2.51
293.15	0.07	1489.27	2.51
293.15	0.09	1491.06	2.51
293.15	0.11	1492.76	2.51
298.15	0.01	1498.21	2.53
298.15	0.03	1499.96	2.51
298.15	0.05	1501.67	2.51
298.15	0.07	1503.23	2.51
298.15	0.09	1504.98	2.52
298.15	0.11	1506.87	2.48
303.15	0.01	1510.35	2.52
303.15	0.03	1512.03	2.51
303.15	0.05	1513.71	2.51
303.15	0.07	1515.37	2.51
303.15	0.09	1517.02	2.52
303.15	0.11	1518.67	2.49
308.15	0.01	1521.02	2.52
308.15	0.03	1522.66	2.52
308.15	0.05	1524.28	2.52
308.15	0.07	1525.9	2.52
308.15	0.09	1527.5	2.52
308.15	0.11	1529.1	2.49
313.15	0.01	1530.11	2.52
313.15	0.03	1531.69	2.52
313.15	0.05	1533.24	2.51
313.15	0.07	1534.77	2.51
313.15	0.09	1536.28	2.51
313.15	0.11	1537.79	2.52
293.15	0	1483	2.51
298.15	0	1497.12	2.65
303.15	0	1509.51	2.6
308.15	0	1520.19	2.6
313.15	0	1529.31	2.52

System: L-histidine + water; phases: Liquid
Fixed: Pressure, kPa = 101
Property: Viscosity, Pa*s (Liquid); method: Capillary tube (Ostwald; Ubbelohde) method
Temperature, K	Molality, mol/kg of L-histidine	Viscosity, Pa*s	uncertainty
293.15	0.01	0.0010085	2.1e-05
293.15	0.03	0.001016	2.09e-05
293.15	0.05	0.0010222	2.09e-05
293.15	0.07	0.0010281	2.09e-05
293.15	0.09	0.0010338	2.09e-05
293.15	0.11	0.0010399	2.09e-05
298.15	0.01	0.0008956	2.07e-05
298.15	0.03	0.0009014	2.07e-05
298.15	0.05	0.0009061	2.07e-05
298.15	0.07	0.0009107	2.07e-05
298.15	0.09	0.0009156	2.07e-05
298.15	0.11	0.0009197	2.1e-05
303.15	0.01	0.0008015	2.06e-05
303.15	0.03	0.0008061	2.06e-05
303.15	0.05	0.0008103	2.06e-05
303.15	0.07	0.0008143	2.06e-05
303.15	0.09	0.0008178	2.06e-05
303.15	0.11	0.0008217	2.08e-05
308.15	0.01	0.0007223	2.05e-05
308.15	0.03	0.0007259	2.05e-05
308.15	0.05	0.0007292	2.05e-05
308.15	0.07	0.0007323	2.05e-05
308.15	0.09	0.0007356	2.05e-05
308.15	0.11	0.0007389	2.06e-05
313.15	0.01	0.0006553	2.04e-05
313.15	0.03	0.0006584	2.04e-05
313.15	0.05	0.0006613	2.04e-05
313.15	0.07	0.0006638	2.04e-05
313.15	0.09	0.0006669	2.04e-05
313.15	0.11	0.0006692	2.04e-05
293.15	0	0.0010019	2.12e-05
298.15	0	0.0008903	2.07e-05
303.15	0	0.0007973	2.06e-05
308.15	0	0.000719	2.05e-05
313.15	0	0.0006526	2.05e-05

System: water + Ampicillin Sodium; phases: Liquid
Fixed: Pressure, kPa = 101
Property: Mass density, kg/m3 (Liquid); method: Vibrating tube method
Molality, mol/kg of Ampicillin Sodium	Temperature, K	Mass density, kg/m3	uncertainty
0.035	293.15	1002.836	1.271
0.035	298.15	1001.637	1.265
0.035	303.15	1000.193	1.259
0.035	308.15	998.531	1.255
0.035	313.15	996.661	1.251
0.055	293.15	1005.4	1.257
0.055	298.15	1004.163	1.252
0.055	303.15	1002.691	1.242
0.055	308.15	1001.007	1.208
0.055	313.15	999.128	1.154
0.075	293.15	1007.904	1.099
0.075	298.15	1006.657	1.258
0.075	303.15	1005.099	1.252
0.075	308.15	1003.04	1.236
0.075	313.15	1000.49	1.091
0.095	293.15	1010.539	1.275
0.095	298.15	1009.249	1.252
0.095	303.15	1007.704	1.251
0.095	308.15	1005.844	1.292
0.095	313.15	1003.744	1.398
0	293.15	998.222	1.276
0	298.15	997.065	1.279
0	303.15	995.674	1.273
0	308.15	994.063	1.267
0	313.15	992.25	1.254

System: water + Ampicillin Sodium; phases: Liquid
Fixed: Pressure, kPa = 101
Fixed: Frequency, MHz = 6
Property: Speed of sound, m/s (Liquid); method: Linear variable-path acoustic interferometer
Molality, mol/kg of Ampicillin Sodium	Temperature, K	Speed of sound, m/s	uncertainty
0.035	293.15	1487.51	2.46
0.035	298.15	1501.62	2.46
0.035	303.15	1514	2.47
0.035	308.15	1524.69	2.47
0.035	313.15	1533.78	2.47
0.055	293.15	1492	2.46
0.055	298.15	1505.57	2.46
0.055	303.15	1518.14	2.47
0.055	308.15	1529.01	2.47
0.055	313.15	1538	2.48
0.075	293.15	1496.1	2.46
0.075	298.15	1509.6	2.47
0.075	303.15	1522.1	2.47
0.075	308.15	1532.99	2.48
0.075	313.15	1542.51	2.48
0.095	293.15	1501.3	2.46
0.095	298.15	1515.01	2.47
0.095	303.15	1525.99	2.47
0.095	308.15	1535.7	2.48
0.095	313.15	1546.09	2.48
0	293.15	1483	2.45
0	298.15	1497.12	2.46
0	303.15	1509.51	2.46
0	308.15	1520.19	2.47
0	313.15	1529.31	2.47

System: water + Ampicillin Sodium; phases: Liquid
Fixed: Pressure, kPa = 101
Property: Viscosity, Pa*s (Liquid); method: Capillary tube (Ostwald; Ubbelohde) method
Molality, mol/kg of Ampicillin Sodium	Temperature, K	Viscosity, Pa*s	uncertainty
0.035	293.15	0.0010344	2.09e-05
0.035	298.15	0.0009268	2.07e-05
0.035	303.15	0.0008381	2.06e-05
0.035	308.15	0.0007612	2.05e-05
0.035	313.15	0.0006978	2.04e-05
0.055	293.15	0.0010724	2.09e-05
0.055	298.15	0.0009663	2.08e-05
0.055	303.15	0.0008814	2.07e-05
0.055	308.15	0.0008077	2.06e-05
0.055	313.15	0.000748	2.05e-05
0.075	293.15	0.0011093	2.1e-05
0.075	298.15	0.0010082	2.08e-05
0.075	303.15	0.0009262	2.07e-05
0.075	308.15	0.0008543	2.06e-05
0.075	313.15	0.0007967	2.05e-05
0.095	293.15	0.0011135	2.1e-05
0.095	298.15	0.0010497	2.09e-05
0.095	303.15	0.0009736	2.08e-05
0.095	308.15	0.0009016	2.07e-05
0.095	313.15	0.0008021	2.06e-05
0	293.15	0.0010019	2.08e-05
0	298.15	0.0008903	2.07e-05
0	303.15	0.0007973	2.05e-05
0	308.15	0.000719	2.05e-05
0	313.15	0.0006526	2.04e-05
