Measured thermophysical data. Gibbs energy of formation of Ca7V4O17
Source: J. Chem. Thermodyn., 2013, 10.1016/j.jct.2013.03.019
Compound 1: calcium oxide vanadate (Ca7V4O17), Ca7O17V4, InChI=1S/7Ca.17O.4V/q7*+2;;;;;-2;12*-1;;;;
Compound 2: calcium vanadate(V), Ca3O8V2, InChI=1S/3Ca.8O.2V/q3*+2;;;6*-1;;
Compound 3: calcium monoxide, CaO, InChI=1S/Ca.O/q+2;-2, purity 99.998%

Reaction: -1 calcium monoxide + -2 calcium vanadate(V) + 1 calcium oxide vanadate (Ca7V4O17)
Property: Thermodynamic equilibrium constant
1.777
1.61
1.552
1.513
1.473
1.404
1.377
1.318
1.299
1.247
1.233
1.206
