Measured thermophysical data. An experimental setup for isobaric heat capacities for viscous fluids at high pressure: Squalane, bis(2-ethylhexyl) sebacate and bis(2-ethylhexyl) phthalate
Source: J. Chem. Thermodyn., 2012, 10.1016/j.jct.2012.01.011
Compound 1: 2,6,10,15,19,23-hexamethyltetracosane, C30H62, InChI=1S/C30H62/c1-25(2)15-11-19-29(7)23-13-21-27(5)17-9-10-18-28(6)22-14-24-30(8)20-12-16-26(3)4/h25-30H,9-24H2,1-8H3, purity 99%
Compound 2: bis(2-ethylhexyl) 1,2-benzenedicarboxylate, C24H38O4, InChI=1S/C24H38O4/c1-5-9-13-19(7-3)17-27-23(25)21-15-11-12-16-22(21)24(26)28-18-20(8-4)14-10-6-2/h11-12,15-16,19-20H,5-10,13-14,17-18H2,1-4H3, purity 99%
Compound 3: bis(2-ethylhexyl) decanedioate, C26H50O4, InChI=1S/C26H50O4/c1-5-9-17-23(7-3)21-29-25(27)19-15-13-11-12-14-16-20-26(28)30-22-24(8-4)18-10-6-2/h23-24H,5-22H2,1-4H3, purity 97%

System: 2,6,10,15,19,23-hexamethyltetracosane; phases: Liquid
Property: Molar heat capacity at constant pressure, J/K/mol (Liquid); method: Flow calorimetry
Temperature, K	Pressure, kPa	Molar heat capacity at constant pressure, J/K/mol	uncertainty
293.15	100	879	8.9
293.15	10000	873.5	8.8
293.15	20000	868.5	8.8
293.15	30000	865.5	8.7
313.15	100	904.4	9.1
313.15	10000	898.9	9.1
313.15	20000	896.4	9.1
313.15	30000	893.4	9
333.15	100	943.3	9.5
333.15	10000	940.8	9.5
333.15	20000	936.1	9.5
333.15	30000	929.3	9.4
353.15	100	978.8	9.9
353.15	10000	973.7	9.8
353.15	20000	963.2	9.7
353.15	30000	959.8	9.7

System: bis(2-ethylhexyl) 1,2-benzenedicarboxylate; phases: Liquid
Property: Molar heat capacity at constant pressure, J/K/mol (Liquid); method: Flow calorimetry
Temperature, K	Pressure, kPa	Molar heat capacity at constant pressure, J/K/mol	uncertainty
293.15	100	703	7.1
293.15	10000	701.5	7.1
293.15	20000	699.9	7.1
293.15	30000	699.6	7.1
313.15	100	726.9	7.3
313.15	10000	724.9	7.3
313.15	20000	723	7.3
313.15	30000	722	7.3
333.15	100	751.3	7.6
333.15	10000	750	7.6
333.15	20000	747.5	7.6
333.15	30000	746	7.5
353.15	100	774.5	7.8
353.15	10000	770.5	7.8
353.15	20000	767.9	7.8
353.15	30000	763.4	7.7

System: bis(2-ethylhexyl) decanedioate; phases: Liquid
Property: Molar heat capacity at constant pressure, J/K/mol (Liquid); method: Flow calorimetry
Temperature, K	Pressure, kPa	Molar heat capacity at constant pressure, J/K/mol	uncertainty
293.15	100	810.3	8.2
293.15	10000	808.5	8.2
293.15	20000	805.6	8.1
293.15	30000	803	8.1
313.15	100	846.5	8.6
313.15	10000	843.5	8.5
313.15	20000	840.1	8.5
313.15	30000	838.4	8.5
333.15	100	878.1	8.9
333.15	10000	875.5	8.8
333.15	20000	873.4	8.8
333.15	30000	871.7	8.8
353.15	100	910.9	9.2
353.15	10000	909.7	9.2
353.15	20000	907.1	9.2
353.15	30000	906.3	9.2
