Measured thermophysical data. Thermodynamic and acoustic properties of binary mixtures of 1-butanol with 1,2-butanediol. The comparison with the results for 1,3-, and 1,4-butanediol
Source: J. Chem. Thermodyn., 2014, 10.1016/j.jct.2013.08.033
Compound 1: butan-1-ol, C4H10O, InChI=1S/C4H10O/c1-2-3-4-5/h5H,2-4H2,1H3, purity 99.5%
Compound 2: 1,2-butanediol, C4H10O2, InChI=1S/C4H10O2/c1-2-4(6)3-5/h4-6H,2-3H2,1H3, purity 99%

System: butan-1-ol; phases: Liquid
Property: Refractive index (Na D-line) (Liquid); method: Standard Abbe refractometry
Temperature, K	Pressure, kPa	Refractive index (Na D-line)	uncertainty
298.15	101.325	1.3972	0.0008

System: butan-1-ol; phases: Liquid
Fixed: Pressure, kPa = 101
Property: Mass density, kg/m3 (Liquid); method: Pycnometric method
Temperature, K	Mass density, kg/m3	uncertainty
293.15	809.65	0.29
298.15	805.81	0.3
303.15	801.98	0.31
308.15	798.13	0.32

System: butan-1-ol; phases: Liquid
Property: Speed of sound, m/s (Liquid); method: Pulse-echo method
Pressure, kPa	Temperature, K	Speed of sound, m/s	uncertainty
101	298.15	1240.25	1.36

System: butan-1-ol; phases: Liquid
Fixed: Pressure, kPa = 101.325
Property: Molar heat capacity at constant pressure, J/K/mol (Liquid); method: Small sample (50 mg) DSC
Temperature, K	Molar heat capacity at constant pressure, J/K/mol	uncertainty
283.15	167.32	7.1
288.15	170.35	7.23
293.15	173.54	7.36
298.15	176.9	7.51
303.15	180.41	7.65
308.15	184.09	7.81
313.15	187.93	7.97
318.15	191.93	8.14

System: 1,2-butanediol; phases: Liquid
Property: Refractive index (Na D-line) (Liquid); method: Standard Abbe refractometry
Temperature, K	Pressure, kPa	Refractive index (Na D-line)	uncertainty
298.15	101.325	1.4364	0.0008

System: 1,2-butanediol; phases: Liquid
Fixed: Pressure, kPa = 101
Property: Mass density, kg/m3 (Liquid); method: Pycnometric method
Temperature, K	Mass density, kg/m3	uncertainty
293.15	1002.32	0.57
298.15	998.59	0.58
303.15	994.78	0.59
308.15	990.97	0.6

System: 1,2-butanediol; phases: Liquid
Property: Speed of sound, m/s (Liquid); method: Pulse-echo method
Pressure, kPa	Temperature, K	Speed of sound, m/s	uncertainty
101	298.15	1449.92	1.64

System: 1,2-butanediol; phases: Liquid
Fixed: Pressure, kPa = 101.325
Property: Molar heat capacity at constant pressure, J/K/mol (Liquid); method: Small sample (50 mg) DSC
Temperature, K	Molar heat capacity at constant pressure, J/K/mol	uncertainty
283.15	222.86	9.46
288.15	225.62	9.57
293.15	228.35	9.69
298.15	231.06	9.8
303.15	233.74	9.92
308.15	236.4	10.03
313.15	239.05	10.14
318.15	241.66	10.25

System: butan-1-ol + 1,2-butanediol; phases: Liquid
Fixed: Pressure, kPa = 101
Property: Mass density, kg/m3 (Liquid); method: Pycnometric method
Temperature, K	Mole fraction of 1,2-butanediol	Mass density, kg/m3	uncertainty
293.15	0	809.65	0.29
293.15	0.05027	819.25	0.3
293.15	0.10005	828.73	0.31
293.15	0.15007	838.28	0.32
293.15	0.29997	867.03	0.35
293.15	0.4004	886.32	0.37
293.15	0.49942	905.4	0.4
293.15	0.60017	924.85	0.42
293.15	0.70014	944.16	0.46
293.15	0.84999	973.21	0.51
293.15	0.89981	982.93	0.53
293.15	0.94978	992.62	0.55
293.15	1	1002.32	0.57
298.15	0	805.81	0.3
298.15	0.05027	815.37	0.31
298.15	0.10005	824.84	0.32
298.15	0.15007	834.4	0.33
298.15	0.29997	863.1	0.36
298.15	0.4004	882.4	0.38
298.15	0.49942	901.47	0.41
298.15	0.60017	920.95	0.44
298.15	0.70014	940.28	0.47
298.15	0.84999	969.42	0.52
298.15	0.89981	979.12	0.54
298.15	0.94978	988.87	0.56
298.15	1	998.59	0.58
303.15	0	801.98	0.31
303.15	0.05027	811.5	0.32
303.15	0.10005	820.98	0.33
303.15	0.15007	830.49	0.34
303.15	0.29997	859.21	0.37
303.15	0.4004	878.47	0.39
303.15	0.49942	897.58	0.42
303.15	0.60017	917.07	0.45
303.15	0.70014	936.42	0.48
303.15	0.84999	965.57	0.53
303.15	0.89981	975.25	0.55
303.15	0.94978	985.02	0.57
303.15	1	994.78	0.59
308.15	0	798.13	0.32
308.15	0.05027	807.63	0.33
308.15	0.10005	817.06	0.34
308.15	0.15007	826.61	0.35
308.15	0.29997	855.24	0.38
308.15	0.4004	874.54	0.41
308.15	0.49942	893.65	0.43
308.15	0.60017	913.17	0.46
308.15	0.70014	932.51	0.49
308.15	0.84999	961.69	0.54
308.15	0.89981	971.41	0.56
308.15	0.94978	981.19	0.58
308.15	1	990.97	0.6

System: butan-1-ol + 1,2-butanediol; phases: Liquid
Fixed: Pressure, kPa = 101
Fixed: Temperature, K = 298.15
Property: Speed of sound, m/s (Liquid); method: Pulse-echo method
Mole fraction of 1,2-butanediol	Speed of sound, m/s	uncertainty
0	1240.25	1.36
0.05027	1248.12	1.37
0.10005	1256.35	1.38
0.15007	1264.07	1.39
0.29997	1289.58	1.43
0.4004	1307.84	1.45
0.49942	1327.23	1.48
0.60017	1348.34	1.51
0.70014	1371.07	1.54
0.84999	1408.24	1.59
0.89981	1421.79	1.6
0.94978	1435.54	1.62
1	1449.92	1.64
