Measured thermophysical data. Relationships between fusion, solution, vaporization and sublimation enthalpies of substituted phenols
Source: J. Chem. Thermodyn., 2017, 10.1016/j.jct.2016.09.029
Compound 1: 4-nitrophenol, C6H5NO3, InChI=1S/C6H5NO3/c8-6-3-1-5(2-4-6)7(9)10/h1-4,8H, purity 99%
Compound 2: 3-nitrophenol, C6H5NO3, InChI=1S/C6H5NO3/c8-6-3-1-2-5(4-6)7(9)10/h1-4,8H, purity 99%
Compound 3: 3-chlorophenol, C6H5ClO, InChI=1S/C6H5ClO/c7-5-2-1-3-6(8)4-5/h1-4,8H, purity 98%
Compound 4: 4-(1,1-dimethylethyl)phenol, C10H14O, InChI=1S/C10H14O/c1-10(2,3)8-4-6-9(11)7-5-8/h4-7,11H,1-3H3, purity 99%
Compound 5: 3-methoxyphenol, C7H8O2, InChI=1S/C7H8O2/c1-9-7-4-2-3-6(8)5-7/h2-5,8H,1H3, purity 97%
Compound 6: 4-methoxyphenol, C7H8O2, InChI=1S/C7H8O2/c1-9-7-4-2-6(8)3-5-7/h2-5,8H,1H3, purity 99%
Compound 7: methyl 4-hydroxybenzoate, C8H8O3, InChI=1S/C8H8O3/c1-11-8(10)6-2-4-7(9)5-3-6/h2-5,9H,1H3, purity 98%
Compound 8: 4'-hydroxyacetophenone, C8H8O2, InChI=1S/C8H8O2/c1-6(9)7-2-4-8(10)5-3-7/h2-5,10H,1H3, purity 98%
Compound 9: benzene, C6H6, InChI=1S/C6H6/c1-2-4-6-5-3-1/h1-6H, purity 99%

System: benzene + 4-nitrophenol; phases: Liquid
Property: Molar enthalpy of solution, kJ/mol (Liquid); method: Power-compensation calorimetry
Mole fraction of 4-nitrophenol	Pressure, kPa	Temperature, K	Molar enthalpy of solution, kJ/mol	uncertainty
0	100	298.15	24.72	0.22

System: benzene + 3-nitrophenol; phases: Liquid
Property: Molar enthalpy of solution, kJ/mol (Liquid); method: Power-compensation calorimetry
Mole fraction of 3-nitrophenol	Pressure, kPa	Temperature, K	Molar enthalpy of solution, kJ/mol	uncertainty
0	100	298.15	27.68	0.46

System: benzene + 3-chlorophenol; phases: Liquid
Property: Molar enthalpy of solution, kJ/mol (Liquid); method: Power-compensation calorimetry
Mole fraction of 3-chlorophenol	Pressure, kPa	Temperature, K	Molar enthalpy of solution, kJ/mol	uncertainty
0	100	298.15	20.92	0.44

System: benzene + 4-(1,1-dimethylethyl)phenol; phases: Liquid
Property: Molar enthalpy of solution, kJ/mol (Liquid); method: Power-compensation calorimetry
Mole fraction of 4-(1,1-dimethylethyl)phenol	Pressure, kPa	Temperature, K	Molar enthalpy of solution, kJ/mol	uncertainty
0	100	298.15	23.38	0.37

System: benzene + 3-methoxyphenol; phases: Liquid
Property: Molar enthalpy of solution, kJ/mol (Liquid); method: Titration calorimetry
Mole fraction of 3-methoxyphenol	Pressure, kPa	Temperature, K	Molar enthalpy of solution, kJ/mol	uncertainty
0	100	298.15	8.65	0.26

System: benzene + 4-methoxyphenol; phases: Liquid
Property: Molar enthalpy of solution, kJ/mol (Liquid); method: Power-compensation calorimetry
Mole fraction of 4-methoxyphenol	Pressure, kPa	Temperature, K	Molar enthalpy of solution, kJ/mol	uncertainty
0	100	298.15	27.33	0.49

System: benzene + methyl 4-hydroxybenzoate; phases: Liquid
Property: Molar enthalpy of solution, kJ/mol (Liquid); method: Power-compensation calorimetry
Mole fraction of methyl 4-hydroxybenzoate	Pressure, kPa	Temperature, K	Molar enthalpy of solution, kJ/mol	uncertainty
0	100	298.15	31.27	0.54

System: benzene + 4'-hydroxyacetophenone; phases: Liquid
Property: Molar enthalpy of solution, kJ/mol (Liquid); method: Power-compensation calorimetry
Mole fraction of 4'-hydroxyacetophenone	Pressure, kPa	Temperature, K	Molar enthalpy of solution, kJ/mol	uncertainty
0	100	298.15	26.82	0.33
