Measured thermophysical data. Diffusivity and solubility of carbonyl sulfide and sulfur dioxide in 1-ethyl-3-methylimidazolium bis (trifluoromethyl) sulfonylimide ([emim][Tf2N]): Experimental measurement and modelling
Source: J. Chem. Thermodyn., 2019, 10.1016/j.jct.2019.01.019
Compound 1: 1-ethyl-3-methylimidazolium bis((trifluoromethyl)sulfonyl)imide, C8H11F6N3O4S2, InChI=1S/C6H11N2.C2F6NO4S2/c1-3-8-5-4-7(2)6-8;3-1(4,5)14(10,11)9-15(12,13)2(6,7)8/h4-6H,3H2,1-2H3;/q+1;-1, purity 99%
Compound 2: carbonyl sulfide, COS, InChI=1S/COS/c2-1-3, purity 97.5%
Compound 3: sulfur dioxide, O2S, InChI=1S/O2S/c1-3-2, purity 99.95%

System: 1-ethyl-3-methylimidazolium bis((trifluoromethyl)sulfonyl)imide + carbonyl sulfide; phases: Liquid, Gas
Property: Mole fraction of carbonyl sulfide (Liquid); method: Volumetric method
Temperature, K	Pressure, kPa	Mole fraction of carbonyl sulfide	uncertainty
313.15	167.5	0.064	0.008
313.15	266.5	0.097	0.012
313.15	402.5	0.142	0.018
313.15	506.5	0.173	0.022
313.15	577.5	0.194	0.024
313.15	702.5	0.23	0.026
313.15	777.5	0.252	0.026
323.15	180.8	0.058	0.004
323.15	287.8	0.089	0.008
323.15	433.8	0.131	0.012
323.15	545.8	0.16	0.018
323.15	623.8	0.179	0.022
323.15	759.8	0.212	0.024
323.15	841.8	0.233	0.026
333.15	192	0.054	0.004
333.15	307	0.082	0.008
333.15	463	0.122	0.012
333.15	584	0.148	0.018
333.15	667	0.166	0.022
333.15	813.5	0.198	0.024
333.15	901	0.218	0.026
343.15	204.1	0.05	0.004
343.15	326.1	0.076	0.008
343.15	491.1	0.114	0.012
343.15	620.1	0.138	0.018
343.15	710.1	0.154	0.022
343.15	864.1	0.185	0.024
343.15	958.1	0.204	0.026
353.15	216	0.046	0.01
353.15	344	0.071	0.014
353.15	519	0.106	0.022
353.15	654	0.13	0.028
353.15	748	0.146	0.03
353.15	913	0.174	0.032
353.15	1013	0.192	0.034

System: 1-ethyl-3-methylimidazolium bis((trifluoromethyl)sulfonyl)imide + carbonyl sulfide; phases: Liquid, Gas
Fixed: Mole fraction of carbonyl sulfide = 0
Property: Binary diffusion coefficient, m2/s (Liquid); method: Pressure decay method
Temperature, K	Binary diffusion coefficient, m2/s	uncertainty
313.15	5.09e-10	0.051
323.15	7.23e-10	0.072
333.15	8.72e-10	0.087
343.15	1.191e-09	0.119
353.15	1.444e-09	0.144

System: 1-ethyl-3-methylimidazolium bis((trifluoromethyl)sulfonyl)imide + sulfur dioxide; phases: Liquid, Gas
Property: Mole fraction of sulfur dioxide (Liquid); method: Volumetric method
Temperature, K	Pressure, kPa	Mole fraction of sulfur dioxide	uncertainty
313.15	48	0.157	0.016
313.15	80	0.241	0.016
313.15	101	0.289	0.013
313.15	155	0.39	0.011
313.15	196	0.452	0.009
313.15	257	0.524	0.009
323.15	57	0.153	0.014
323.15	96	0.235	0.013
323.15	121	0.282	0.011
323.15	185	0.382	0.01
323.15	235	0.444	0.008
323.15	308	0.516	0.008
333.15	34	0.079	0.013
333.15	68	0.148	0.012
333.15	114	0.228	0.011
333.15	145	0.274	0.009
333.15	221	0.373	0.009
333.15	280	0.434	0.009
333.15	367	0.506	0.008
343.15	40	0.076	0.012
343.15	80	0.142	0.011
343.15	135	0.22	0.01
343.15	171	0.265	0.009
343.15	261	0.362	0.009
343.15	330	0.423	0.008
343.15	434	0.495	0.01
353.15	93	0.136	0.009
353.15	157	0.212	0.009
353.15	199	0.256	0.01
353.15	304	0.351	0.01
353.15	386	0.409	0.009
353.15	504	0.483	0.009
