Measured thermophysical data. Isobaric (vapour + liquid) equilibrium for (2-propanol + water + ammonium thiocyanate): Fitting the data by an empirical equation
Source: J. Chem. Thermodyn., 2006, 10.1016/j.jct.2006.04.006
Compound 1: propan-2-ol, C3H8O, InChI=1S/C3H8O/c1-3(2)4/h3-4H,1-2H3, purity 99%
Compound 2: water, H2O, InChI=1S/H2O/h1H2
Compound 3: ammonium isothiocyanate, CH4N2S, InChI=1S/CHNS.H3N/c2-1-3;/h3H;1H3, purity 99%

System: propan-2-ol; phases: Liquid, Gas
Property: Vapor or sublimation pressure, kPa (Liquid); method: Ebulliometric method (Recirculating still)
Temperature, K	Vapor or sublimation pressure, kPa	uncertainty
355.45	101.3	0.7

System: water; phases: Liquid, Gas
Property: Vapor or sublimation pressure, kPa (Liquid); method: Ebulliometric method (Recirculating still)
Temperature, K	Vapor or sublimation pressure, kPa	uncertainty
373.15	101.3	

System: propan-2-ol + water; phases: Liquid, Gas
Fixed: Pressure, kPa = 101.3
Property: Boiling temperature at pressure P, K (Liquid); method: Ebulliometric method (Recirculating still)
Mole fraction of propan-2-ol	Boiling temperature at pressure P, K	uncertainty
0	373.15	0.13
0.004	369.53	1.31
0.013	365.15	3.37
0.035	359.45	2.35
0.086	355.85	0.77
0.167	354.2	0.28
0.246	353.85	0.14
0.433	353.45	0.14
0.513	353.3	0.13
0.602	353.18	0.13
0.691	353.17	0.13
0.711	353.16	0.13
0.761	353.17	0.15
0.838	353.55	0.18
0.873	353.85	0.23
0.913	354.25	0.29
1	355.45	0.13

System: propan-2-ol + water; phases: Gas, Liquid
Fixed: Pressure, kPa = 101.3
Property: Mole fraction of propan-2-ol (Gas); method: Chromatography
Mole fraction of propan-2-ol	Mole fraction of propan-2-ol	uncertainty
0	0	0.001
0.004	0.092	0.043
0.013	0.229	0.097
0.035	0.389	0.072
0.086	0.499	0.031
0.167	0.551	0.022
0.246	0.557	0.021
0.433	0.585	0.021
0.513	0.605	0.022
0.602	0.641	0.022
0.691	0.687	0.023
0.711	0.698	0.025
0.761	0.735	0.026
0.838	0.801	0.027
0.873	0.839	0.03
0.913	0.885	0.032
1	1	0.001

System: ammonium isothiocyanate + water; phases: Liquid, Gas
Fixed: Pressure, kPa = 101.3
Property: Boiling temperature at pressure P, K (Liquid); method: Fischer-Labodest type still
Molality, mol/kg of ammonium isothiocyanate	Boiling temperature at pressure P, K	uncertainty
0.5	373.55	0.1
1	373.65	0.11
2	374.15	0.11

System: propan-2-ol + ammonium isothiocyanate; phases: Liquid, Gas
Fixed: Pressure, kPa = 101.3
Property: Boiling temperature at pressure P, K (Liquid); method: Fischer-Labodest type still
Molality, mol/kg of ammonium isothiocyanate	Boiling temperature at pressure P, K	uncertainty
0.5	355.25	0.12
1	356.05	0.12
2	357.35	0.12

System: propan-2-ol + ammonium isothiocyanate + water; phases: Liquid, Gas
Fixed: Pressure, kPa = 101.3
Property: Boiling temperature at pressure P, K (Liquid); method: Fischer-Labodest type still
Molality, mol/kg of ammonium isothiocyanate	Solvent: Mole fraction of propan-2-ol	Boiling temperature at pressure P, K	uncertainty
0.5	0	373.55	0.1
0.5	0.025	362.75	4.82
0.5	0.035	360.15	5.09
0.5	0.066	356.95	1.55
0.5	0.088	356.17	0.61
0.5	0.14	354.75	0.57
0.5	0.468	353.52	0.12
0.5	0.626	353.2	0.11
0.5	0.725	353.19	0.11
0.5	0.779	353.25	0.12
0.5	0.81	353.4	0.15
0.5	0.861	353.7	0.23
0.5	1	355.25	0.12
1	0	373.65	0.11
1	0.016	366.15	1.95
1	0.031	361.15	4.03
1	0.068	358.6	0.99
1	0.12	356.65	0.33
1	0.273	354.9	0.17
1	0.392	353.95	0.18
1	0.487	353.45	0.11
1	0.686	353.3	0.11
1	0.821	353.75	0.17
1	0.903	354.75	0.3
1	1	356.05	0.12
2	0	374.15	0.11
2	0.023	362.35	7.64
2	0.047	356.15	2.35
2	0.084	354.75	0.35
2	0.151	354.4	0.16
2	0.229	354.15	0.13
2	0.333	353.85	0.12
2	0.519	353.35	0.11
2	0.6	353.25	0.11
2	0.634	353.18	0.11
2	0.771	353.25	0.13
2	0.91	354.15	0.24
2	0.969	355.55	0.69
2	1	357.35	0.12

System: propan-2-ol + ammonium isothiocyanate + water; phases: Gas, Liquid
Fixed: Pressure, kPa = 101.3
Property: Mole fraction of propan-2-ol (Gas); method: Chromatography
Molality, mol/kg of ammonium isothiocyanate	Solvent: Mole fraction of propan-2-ol	Mole fraction of propan-2-ol	uncertainty
0.5	0	0	
0.5	0.025	0.28	0.004
0.5	0.035	0.339	0.004
0.5	0.066	0.428	0.006
0.5	0.088	0.457	0.006
0.5	0.14	0.479	0.007
0.5	0.468	0.561	0.006
0.5	0.626	0.636	0.006
0.5	0.725	0.7	0.005
0.5	0.779	0.749	0.004
0.5	0.81	0.777	0.004
0.5	0.861	0.822	0.003
0.5	1	1	
1	0	0	
1	0.016	0.273	0.003
1	0.031	0.361	0.005
1	0.068	0.454	0.006
1	0.12	0.501	0.007
1	0.273	0.53	0.007
1	0.392	0.544	0.007
1	0.487	0.561	0.006
1	0.686	0.651	0.005
1	0.821	0.76	0.004
1	0.903	0.847	0.003
1	1	1	
2	0	0	
2	0.023	0.436	0.006
2	0.047	0.481	0.007
2	0.084	0.515	0.007
2	0.151	0.528	0.007
2	0.229	0.532	0.007
2	0.333	0.542	0.007
2	0.519	0.595	0.006
2	0.6	0.634	0.006
2	0.634	0.654	0.005
2	0.771	0.752	0.004
2	0.91	0.895	0.002
2	0.969	0.963	0.001
2	1	1	
