Measured thermophysical data. Correlation and prediction of mixing thermodynamic properties of ester-containing systems: Ester + alkane and ester + ester binary systems and the ternary dodecane + ethyl pentanoate + ethyl ethanoate
Source: J. Chem. Thermodyn., 2012, 10.1016/j.jct.2012.03.011
Compound 1: dodecane, C12H26, InChI=1S/C12H26/c1-3-5-7-9-11-12-10-8-6-4-2/h3-12H2,1-2H3, purity 98%
Compound 2: ethyl acetate, C4H8O2, InChI=1S/C4H8O2/c1-3-6-4(2)5/h3H2,1-2H3, purity 99%
Compound 3: ethyl pentanoate, C7H14O2, InChI=1S/C7H14O2/c1-3-5-6-7(8)9-4-2/h3-6H2,1-2H3, purity 99%

System: dodecane; phases: Liquid
Property: Refractive index (Na D-line) (Liquid); method: Standard Abbe refractometry
Temperature, K	Pressure, kPa	Refractive index (Na D-line)	uncertainty
298.15	101.325	1.4192	0.0006

System: dodecane; phases: Liquid
Property: Mass density, kg/m3 (Liquid); method: Vibrating tube method
Temperature, K	Pressure, kPa	Mass density, kg/m3	uncertainty
298.15	101.325	745.1	0.58

System: ethyl acetate; phases: Liquid
Property: Refractive index (Na D-line) (Liquid); method: Standard Abbe refractometry
Temperature, K	Pressure, kPa	Refractive index (Na D-line)	uncertainty
298.15	101.325	1.37	0.0005

System: ethyl acetate; phases: Liquid
Property: Mass density, kg/m3 (Liquid); method: Vibrating tube method
Temperature, K	Pressure, kPa	Mass density, kg/m3	uncertainty
298.15	101.325	894.34	0.23

System: ethyl pentanoate; phases: Liquid
Property: Refractive index (Na D-line) (Liquid); method: Standard Abbe refractometry
Temperature, K	Pressure, kPa	Refractive index (Na D-line)	uncertainty
298.15	101.325	1.3981	0.0005

System: ethyl pentanoate; phases: Liquid
Property: Mass density, kg/m3 (Liquid); method: Vibrating tube method
Temperature, K	Pressure, kPa	Mass density, kg/m3	uncertainty
298.15	101.325	869.28	0.23

System: dodecane + ethyl pentanoate; phases: Liquid
Fixed: Temperature, K = 298.15
Fixed: Pressure, kPa = 101
Property: Excess molar enthalpy (molar enthalpy of mixing), kJ/mol (Liquid); method: Calvet calorimetry
Mole fraction of dodecane	Excess molar enthalpy (molar enthalpy of mixing), kJ/mol	uncertainty
0.043	0.192	0.005
0.0928	0.371	0.008
0.1433	0.54	0.012
0.1957	0.684	0.015
0.2488	0.802	0.017
0.3005	0.894	0.019
0.3181	0.916	0.02
0.3511	0.961	0.021
0.3548	0.971	0.021
0.3978	1.014	0.022
0.446	1.046	0.022
0.5012	1.056	0.023
0.5648	1.032	0.022
0.6392	0.961	0.021
0.7228	0.826	0.018
0.8127	0.621	0.013
0.9036	0.375	0.008

System: dodecane + ethyl pentanoate; phases: Liquid
Fixed: Temperature, K = 298.15
Fixed: Pressure, kPa = 101
Property: Mass density, kg/m3 (Liquid); method: Vibrating tube method
Mole fraction of dodecane	Mass density, kg/m3	uncertainty
0.0505	858.92	0.26
0.1024	849.09	0.28
0.1522	840.25	0.29
0.1998	832.32	0.3
0.2496	824.53	0.32
0.3013	816.7	0.33
0.4039	802.81	0.37
0.502	790.76	0.4
0.6026	779.67	0.43
0.6547	774.3	0.45
0.6992	769.94	0.47
0.7485	765.35	0.48
0.7982	760.93	0.5
0.847	756.88	0.52
0.8918	753.23	0.54
0.9497	748.76	0.56

System: dodecane + ethyl acetate; phases: Liquid
Fixed: Temperature, K = 298.15
Fixed: Pressure, kPa = 101
Property: Excess molar enthalpy (molar enthalpy of mixing), kJ/mol (Liquid); method: Calvet calorimetry
Mole fraction of dodecane	Excess molar enthalpy (molar enthalpy of mixing), kJ/mol	uncertainty
0.0232	0.236	0.006
0.0541	0.503	0.011
0.0898	0.771	0.017
0.1316	1.031	0.022
0.18	1.279	0.027
0.2292	1.478	0.032
0.279	1.628	0.035
0.3296	1.74	0.037
0.3789	1.817	0.039
0.4062	1.849	0.039
0.4261	1.859	0.04
0.4718	1.874	0.04
0.4736	1.868	0.04
0.5534	1.798	0.038
0.647	1.612	0.034
0.7424	1.309	0.028
0.8396	0.896	0.019
0.9339	0.423	0.009

System: dodecane + ethyl acetate; phases: Liquid
Fixed: Temperature, K = 298.15
Fixed: Pressure, kPa = 101
Property: Mass density, kg/m3 (Liquid); method: Vibrating tube method
Mole fraction of dodecane	Mass density, kg/m3	uncertainty
0.097	860.06	0.29
0.146	846.23	0.3
0.1976	833.46	0.31
0.2508	821.88	0.32
0.2979	812.79	0.33
0.3903	797.68	0.36
0.4943	783.92	0.39
0.6	772.56	0.43
0.6909	764.45	0.46
0.7392	760.65	0.48
0.7931	756.85	0.5
0.8213	754.91	0.51
0.8798	751.38	0.53
0.9374	748.08	0.55

System: ethyl acetate + ethyl pentanoate; phases: Liquid
Fixed: Temperature, K = 298.15
Fixed: Pressure, kPa = 101
Property: Excess molar enthalpy (molar enthalpy of mixing), kJ/mol (Liquid); method: Calvet calorimetry
Mole fraction of ethyl pentanoate	Excess molar enthalpy (molar enthalpy of mixing), kJ/mol	uncertainty
0.0627	0.049	0.002
0.1347	0.089	0.002
0.2071	0.118	0.003
0.2799	0.139	0.003
0.3493	0.147	0.003
0.4144	0.152	0.004
0.4736	0.157	0.004
0.5198	0.154	0.004
0.561	0.151	0.004
0.6071	0.145	0.003
0.6645	0.133	0.003
0.7376	0.114	0.003
0.8193	0.088	0.002
0.8904	0.058	0.002
0.9529	0.03	0.001

System: ethyl acetate + ethyl pentanoate; phases: Liquid
Fixed: Temperature, K = 298.15
Fixed: Pressure, kPa = 101
Property: Mass density, kg/m3 (Liquid); method: Vibrating tube method
Mole fraction of ethyl pentanoate	Mass density, kg/m3	uncertainty
0.0482	892.36	0.23
0.0954	890.53	0.23
0.148	888.63	0.23
0.1941	887.05	0.23
0.3047	883.64	0.24
0.4	881.02	0.24
0.4921	878.73	0.24
0.5717	876.92	0.24
0.6556	875.16	0.24
0.6946	874.41	0.24
0.7526	873.29	0.24
0.7924	872.6	0.2
0.8362	871.84	0.24
0.8651	871.36	0.24
0.9263	870.36	0.24
0.9377	870.21	0.24

System: dodecane + ethyl acetate + ethyl pentanoate; phases: Liquid
Fixed: Temperature, K = 298.15
Fixed: Pressure, kPa = 101
Property: Mass density, kg/m3 (Liquid); method: Vibrating tube method
Mole fraction of dodecane	Mole fraction of ethyl pentanoate	Mass density, kg/m3	uncertainty
0.0136	0.039	887.32	0.28
0.0241	0.0692	882.32	0.28
0.0286	0.0257	881.91	0.28
0.0383	0.1101	876.1	0.28
0.0434	0.0119	877.17	0.28
0.0496	0.1427	871.51	0.27
0.051	0.0459	873.56	0.29
0.0633	0.1823	866.45	0.28
0.0782	0.0703	864.22	0.29
0.0795	0.0217	864.8	0.29
0.089	0.2563	857.93	0.28
0.1047	0.3014	853.3	0.28
0.1048	0.0942	856.01	0.29
0.1171	0.3372	849.92	0.28
0.1249	0.0341	851.38	0.3
0.1457	0.4193	842.92	0.29
0.1563	0.1405	842.15	0.3
0.1636	0.4709	838.92	0.29
0.1671	0.0457	840.87	0.31
0.1709	0.1536	838.81	0.31
0.1822	0.5246	835.21	0.3
0.1904	0.5481	833.7	0.3
0.2047	0.5892	831.12	0.3
0.2053	0.0561	831.54	0.32
0.2138	0.1922	829.41	0.32
0.2157	0.6209	829.27	0.31
0.2415	0.066	823.8	0.32
0.2847	0.2559	816.72	0.33
0.3102	0.2787	812.8	0.34
0.32	0.0874	809.61	0.34
0.3841	0.3451	802.92	0.36
0.3978	0.1087	798.2	0.37
0.4158	0.3737	799.09	0.37
0.4377	0.3934	796.57	0.38
0.4667	0.4195	793.53	0.39
0.4728	0.1291	789.12	0.39
0.492	0.4421	791.08	0.4
0.55	0.1502	781	0.41
0.6311	0.1724	773.29	0.44
0.6661	0.1819	770.44	0.45
0.6989	0.1909	767.92	0.47
0.7237	0.1977	766.16	0.47
