Measured thermophysical data. Heat capacity of vitreous GeS2
Source: J. Chem. Thermodyn., 2015, 10.1016/j.jct.2014.09.021
Compound 1: germanium disulfide, GeS2, InChI=1S/Ge.2S/q+4;2*-2, purity 99%

System: germanium disulfide; phases: Glass, Liquid, Air at 1 atmosphere
Property: Triple point temperature, K (Glass); method: DTA
Triple point temperature, K	uncertainty
767	1

System: germanium disulfide; phases: Glass
Fixed: Pressure, kPa = 101.325
Property: Molar heat capacity at constant pressure, J/K/mol (Glass); method: Relaxation calorimetry - PPMS Quantum Design
Temperature, K	Molar heat capacity at constant pressure, J/K/mol	uncertainty
2.5	0.029	0.002
2.68	0.036	0.002
2.86	0.045	0.002
3.06	0.056	0.003
3.29	0.07	0.003
3.77	0.108	0.005
4.04	0.135	0.006
4.32	0.173	0.007
4.63	0.208	0.009
4.95	0.253	0.011
5.3	0.302	0.013
5.68	0.367	0.015
6.07	0.445	0.018
6.51	0.521	0.022
6.96	0.63	0.026
7.46	0.738	0.03
7.98	0.869	0.036
8.55	1.012	0.041
9.15	1.168	0.048
9.79	1.354	0.055
10.48	1.567	0.064
11.22	1.787	0.073
12.02	2.048	0.083
12.87	2.325	0.095
14.77	2.983	0.121
15.79	3.356	0.137
16.91	3.784	0.154
18.1	4.259	0.173
19.38	4.775	0.194
20.73	5.347	0.217
22.21	5.979	0.243
23.79	6.675	0.271
25.47	7.453	0.303
27.26	8.269	0.336
29.18	9.165	0.372
31.27	10.173	0.413
33.45	11.3	0.459
35.87	12.406	0.504
38.42	13.563	0.551
41.12	14.846	0.603
44.03	16.2	0.658
47.14	17.596	0.715
50.48	19.065	0.774

System: germanium disulfide; phases: Glass
Fixed: Pressure, kPa = 101.325
Property: Molar heat capacity at constant pressure, J/K/mol (Glass); method: Vacuum adiabatic calorimetry
Temperature, K	Molar heat capacity at constant pressure, J/K/mol	uncertainty
6.45	0.507	0.012
7.18	0.655	0.013
8.02	0.858	0.014
9.01	1.121	0.016
10.13	1.441	0.017
11.34	1.813	0.019
12.53	2.198	0.021
13.66	2.585	0.023
14.74	2.971	0.025
15.81	3.361	0.027
16.92	3.789	0.029
18.15	4.275	0.032
19.37	4.773	0.034
20.52	5.257	0.036
21.7	5.764	0.038
22.96	6.316	0.04
24.26	6.905	0.042
25.56	7.501	0.044
26.86	8.126	0.046
28.26	8.791	0.048
29.67	9.452	0.049
31.04	10.111	0.06
32.45	10.804	0.062
33.93	11.526	0.065
35.38	12.233	0.068
36.82	12.931	0.07
38.27	13.617	0.073
39.73	14.304	0.076
41.33	15.059	0.079
42.98	15.82	0.082
44.52	16.517	0.084
45.99	17.181	0.087
47.4	17.812	0.09
48.87	18.454	0.092
50.4	19.108	0.095
51.89	19.74	0.097
53.37	20.353	0.1
54.85	20.951	0.102
56.41	21.586	0.105
58.01	22.225	0.107
59.58	22.826	0.11
61.16	23.419	0.112
62.71	24.021	0.115
64.22	24.549	0.117
65.71	25.082	0.119
67.15	25.593	0.121
68.56	26.085	0.123
69.93	26.567	0.125
71.28	27.025	0.127
72.59	27.474	0.129
73.88	27.902	0.131
75.15	28.322	0.132
76.47	28.758	0.134
77.86	29.212	0.136
79.3	29.685	0.138
80.83	30.177	0.14
82.44	30.688	0.142
84.08	31.201	0.144
85.72	31.712	0.147
87.37	32.218	0.149
81.38	30.406	0.141
83.11	30.907	0.143
84.83	31.44	0.145
86.56	31.9696	0.1476
88.27	32.495	0.15
89.97	33.025	0.152
91.73	33.564	0.213
93.57	34.111	0.215
95.4	34.651	0.216
97.22	35.186	0.218
99.03	35.724	0.22
100.83	36.246	0.183
102.64	36.765	0.183
104.45	37.276	0.184
106.23	37.776	0.184
108.07	38.292	0.185
109.96	38.813	0.186
111.83	39.324	0.187
113.68	39.824	0.187
115.51	40.216	0.188
117.33	40.785	0.189
119.16	41.263	0.19
120.97	41.73	0.19
122.77	42.188	0.191
124.62	42.655	0.192
126.52	43.134	0.192
128.41	43.596	0.193
130.28	44.052	0.194
132.13	44.494	0.195
133.96	44.926	0.195
135.76	45.36	0.196
137.61	45.789	0.197
139.44	46.202	0.197
141.26	46.611	0.198
143.06	47.004	0.198
144.85	47.395	0.199
146.63	47.731	0.2
148.47	48.184	0.2
150.35	48.575	0.201
152.23	48.964	0.201
154.1	49.349	0.202
155.95	49.709	0.203
157.79	50.091	0.203
159.62	50.434	0.204
161.44	50.784	0.204
163.31	51.144	0.205
165.24	51.442	0.205
167.16	51.85	0.206
169.06	52.229	0.207
170.96	52.531	0.207
172.84	52.876	0.208
174.72	53.219	0.208
176.59	53.533	0.209
178.44	53.85	0.209
180.29	54.163	0.21
182.13	54.453	0.21
183.96	54.756	0.211
185.78	55.056	0.211
187.6	55.338	0.212
189.41	55.611	0.212
191.21	55.898	0.213
193.06	56.1103	0.2131
194.96	56.453	0.214
196.86	56.718	0.214
198.75	56.992	0.215
200.63	57.257	0.215
202.51	57.518	0.215
204.38	57.777	0.216
206.26	58.048	0.216
208.15	58.288	0.217
210.04	58.54	0.217
211.93	58.791	0.218
213.8	58.978	0.218
215.67	59.182	0.218
217.55	59.428	0.219
219.45	59.661	0.219
221.34	59.917	0.219
223.23	60.122	0.22
225.11	60.341	0.22
226.98	60.567	0.221
228.88	60.743	0.221
230.79	60.972	0.221
232.71	61.163	0.222
234.66	61.365	0.222
236.59	61.571	0.222
238.52	61.749	0.223
240.45	61.952	0.223
242.36	62.172	0.223
244.3	62.333	0.224
246.25	62.501	0.224
248.2	62.643	0.224
250.16	62.914	0.224
252.19	62.963	0.225
254.26	63.233	0.225
256.33	63.427	0.225
258.39	63.603	0.226
260.45	63.786	0.226
262.5	63.959	0.226
264.54	64.14	0.227
266.58	64.277	0.227
268.62	64.44	0.227
270.65	64.629	0.227
272.67	64.794	0.228
274.69	64.926	0.228
276.7	65.1	0.228
278.71	65.277	0.229
280.72	65.42	0.229
282.71	65.574	0.229
284.71	65.731	0.229
286.7	65.903	0.23
288.68	66.007	0.23
290.71	66.188	0.23
292.78	66.289	0.23
294.85	66.486	0.231
296.91	66.63	0.231
298.97	66.722	0.231
301.03	66.85	0.231
303.1	66.998	0.232
305.21	67.117	0.232

System: germanium disulfide; phases: Glass
Fixed: Pressure, kPa = 101.325
Property: Molar heat capacity at constant pressure, J/K/mol (Glass); method: Small sample (50 mg) DSC
Temperature, K	Molar heat capacity at constant pressure, J/K/mol	uncertainty
305.06	67.106	2.847
311.02	67.338	2.857
315.02	67.536	2.865
319.03	67.747	2.874
323.03	67.96	2.883
327.03	68.148	2.891
331.03	68.391	2.902
335.03	68.603	2.911
339.03	68.817	2.92
343.03	69.031	2.929
347.03	69.202	2.936
351.03	69.425	2.945
355.04	69.576	2.952
359.04	69.738	2.959
363.04	69.926	2.967
367.04	70.135	2.976
371.04	70.326	2.984
375.04	70.457	2.989
379.05	70.624	2.996
383.05	70.805	3.004
387.05	71.007	3.013
391.05	71.197	3.021
395.05	71.401	3.029
399.05	71.562	3.036
403.05	71.712	3.042
407.06	71.872	3.049
411.06	72.025	3.056
415.06	72.133	3.06
419.06	72.273	3.066
423.06	72.392	3.071
427.06	72.562	3.079
431.06	72.772	3.087
435.06	73.035	3.099
439.06	73.214	3.106
443.06	73.377	3.113
447.06	73.582	3.122
451.06	73.779	3.13
455.07	73.934	3.137
459.07	74.223	3.149
463.07	74.408	3.157
467.07	74.545	3.163
471.07	74.761	3.172
475.07	74.92	3.179
479.07	75.06	3.185
483.07	75.26	3.193
487.07	75.464	3.202
491.07	75.627	3.209
495.07	75.737	3.213
499.07	75.967	3.223
503.07	76.086	3.228
507.07	76.21	3.233
511.07	76.363	3.24
515.07	76.546	3.248
519.07	76.648	3.252
523.07	76.836	3.26
527.07	76.945	3.264
531.07	76.99	3.266
535.07	77.08	3.27
539.07	77.096	3.271
543.08	77.147	3.273
547.08	77.273	3.278
551.07	77.237	3.277
555.07	77.393	3.284
559.08	77.512	3.289
563.07	77.509	3.288
567.08	77.65	3.294
571.08	77.76	3.299
575.07	77.771	3.3
579.07	77.825	3.302
583.07	77.912	3.306
587.07	77.943	3.307
591.07	77.942	3.307
595.07	78.081	3.313
599.07	78.163	3.316

System: germanium disulfide; phases: Glass
Fixed: Pressure, kPa = 101.325
Property: Molar heat capacity at constant pressure, J/K/mol (Glass); method: Vacuum adiabatic calorimetry
Temperature, K	Molar heat capacity at constant pressure, J/K/mol	uncertainty
10	1.42177437	0.01662894
20	5.03856882	0.03325788
30	9.5616405	0.05820129
40	14.31751734	0.07483023
50	18.92373372	0.09145917
60	22.98119508	0.10808811
70	26.58967506	0.12471705
80	29.91546306	0.14134599
90	33.04170378	0.20786175
100	36.00996957	0.18291834
110	38.8285749	0.18291834
120	41.48089083	0.19123281
130	43.9835463	0.19123281
140	46.32822684	0.19954728
150	48.50661798	0.19954728
160	50.51040525	0.20786175
170	52.381161	0.20786175
180	54.11888523	0.20786175
190	55.706949	0.21617622
200	57.17029572	0.21617622
210	58.54218327	0.21617622
220	59.73946695	0.21617622
230	60.87854934	0.22449069
240	61.90954362	0.22449069
250	62.89896555	0.22449069
260	63.74704149	0.22449069
270	64.57017402	0.22449069
280	65.37667761	0.23280516
290	66.12497991	0.23280516
298.15	66.69036387	0.23280516
300	66.79013751	0.23280516

System: germanium disulfide; phases: Glass
Fixed: Pressure, kPa = 101.325
Property: Molar enthalpy, kJ/mol (Glass); method: Vacuum adiabatic calorimetry
Temperature, K	Molar enthalpy, kJ/mol	uncertainty
10	0.00419049288	0.00011640258
20	0.03542795667	0.0003325788
30	0.10795507848	0.00111413898
40	0.22771670436	0.00173772423
50	0.39399778989	0.00255254229
60	0.60400467315	0.00354196422
70	0.852233175	0.0046561032
80	1.1348420103	0.0059864184
90	1.4497941339	0.0150491907
100	1.795094073	0.0168783741
110	2.1694115124	0.0187075575
120	2.5709172687	0.0206198856
130	2.9983641714	0.022449069
140	3.4500893265	0.0243613971
150	3.9242635506	0.0262737252
160	4.4194733838	0.028269198
170	4.9339727874	0.0301815261
180	5.4665145909	0.0321769989
190	6.0157684791	0.034089327
200	6.5801547027	0.0360847998
210	7.15875867	0.0380802726
220	7.7500837764	0.0400757454
230	8.353548009	0.042403797
240	8.967155895	0.044066691
250	9.592404039	0.046561032
260	10.224303759	0.048223926
270	10.866180843	0.050718267
280	11.51554095	0.053212608
290	12.173215527	0.054875502
298.15	12.714487524	0.057369843
300	12.83754168	0.057369843

System: germanium disulfide; phases: Glass
Fixed: Pressure, kPa = 101.325
Property: Molar entropy, J/K/mol (Glass); method: Vacuum adiabatic calorimetry
Temperature, K	Molar entropy, J/K/mol	uncertainty
10	0.56538396	0.01662894
20	2.58580017	0.03325788
30	5.46260679	0.06651576
40	8.87985396	0.0831447
50	12.56316417	0.09977364
60	16.38782037	0.12471705
70	20.2041621	0.14966046
80	23.97061701	0.17460387
90	27.67887063	0.29100645
100	31.31229402	0.26606304
110	34.87920165	0.27437751
120	38.37127905	0.27437751
130	41.78852622	0.28269198
140	45.13925763	0.29100645
150	48.40684434	0.29932092
160	51.60791529	0.30763539
170	54.72584154	0.31594986
180	57.76893756	0.32426433
190	60.73720335	0.3325788
200	63.63063891	0.34089327
210	66.45755871	0.34920774
220	69.20133381	0.34920774
230	71.88690762	0.35752221
240	74.4976512	0.36583668
250	77.04187902	0.37415115
260	79.52790555	0.38246562
270	81.94741632	0.39078009
280	84.3087258	0.4157235
290	86.6367774	0.4157235
298.15	88.4659608	0.4157235
300	88.8816843	0.4157235

System: germanium disulfide; phases: Glass
Fixed: Pressure, kPa = 101.325
Property: Molar heat capacity at constant pressure, J/K/mol (Glass); method: Small sample (50 mg) DSC
Temperature, K	Molar heat capacity at constant pressure, J/K/mol	uncertainty
320	67.81281732	2.87680662
340	68.87706948	2.91837897
360	69.78334671	2.95995132
380	70.66468053	3.00152367
400	71.59590117	3.03478155
420	72.30263112	3.06803943
440	73.26710964	3.10961178
460	74.28978945	3.15118413
480	75.0796641	3.18444201
500	75.9942558	3.22601436
520	76.6594134	3.25095777
540	77.0751369	3.26758671
560	77.52411828	3.29253012
580	77.84006814	3.30084459
600	78.20590482	3.31747353

System: germanium disulfide; phases: Glass
Fixed: Pressure, kPa = 101.325
Property: Molar enthalpy, kJ/mol (Glass); method: Small sample (50 mg) DSC
Temperature, K	Molar enthalpy, kJ/mol	uncertainty
320	14.18448582	0.601967628
340	15.550553241	0.660168918
360	16.937406837	0.718370208
380	18.342552267	0.778234392
400	19.765989531	0.838930023
420	21.205224288	0.899625654
440	22.660256538	0.961152732
460	24.134412069	1.024342704
480	25.628522328	1.087532676
500	27.140092974	1.151554095
520	28.666629666	1.216406961
540	30.20646951	1.281259827
560	31.752129483	1.34694414
580	33.306103926	1.4134599
600	34.863404157	1.479144213

System: germanium disulfide; phases: Glass
Fixed: Pressure, kPa = 101.325
Property: Molar entropy, J/K/mol (Glass); method: Small sample (50 mg) DSC
Temperature, K	Molar entropy, J/K/mol	uncertainty
320	93.2052087	5.9032737
340	97.3624437	6.2358525
360	101.3533893	6.4852866
380	105.0949008	6.651576
400	108.7532676	6.9010101
420	112.245345	7.1504442
440	115.6542777	7.3998783
460	118.9800657	7.5661677
480	122.1395643	7.7324571
500	125.2159182	7.9818912
520	128.2091274	8.1481806
540	131.1191919	8.31447
560	133.9461117	8.5639041
580	136.6067421	8.7301935
600	139.2673725	8.8964829

System: germanium disulfide; phases: Glass
Fixed: Pressure, kPa = 101.325
Property: Molar heat capacity at constant pressure, J/K/mol (Glass); method: Vacuum adiabatic calorimetry
Temperature, K	Molar heat capacity at constant pressure, J/K/mol	uncertainty
11.74	1.878	0.02
12.73	2.198	0.021
13.75	2.546	0.023
14.76	2.901	0.025
15.76	3.264	0.027
16.79	3.655	0.029
17.87	4.077	0.031
19	4.53	0.033
20.12	4.996	0.034
21.33	5.512	0.036
22.57	6.052	0.039
23.79	6.596	0.04
25.06	7.169	0.042
26.32	7.77	0.044
27.59	8.386	0.046
28.96	9.021	0.048
30.35	9.686	0.058
31.7	10.343	0.06
33.09	11.031	0.063
34.46	11.7	0.066
35.73	12.322	0.068
37	12.934	0.07
38.37	13.583	0.073
39.74	14.235	0.075
41.14	14.889	0.078
42.55	15.55	0.081
43.89	16.164	0.083
45.28	16.794	0.085
46.72	17.429	0.088
48.11	18.046	0.09
49.45	18.638	0.093
50.76	19.194	0.095
52.05	19.74	0.097
53.42	20.301	0.1
54.83	20.881	0.102
57.88	22.102	0.107
59.17	22.6	0.109
60.47	23.089	0.111
61.76	23.575	0.113
63.12	24.076	0.115
64.54	24.594	0.117
65.94	25.097	0.119
67.35	25.589	0.121
68.76	26.085	0.123
70.14	26.567	0.125
71.58	27.068	0.127
73.09	27.574	0.129
74.57	28.072	0.131
76.02	28.545	0.133
77.44	29.007	0.135
78.84	29.458	0.137
80.21	29.894	0.139
81.55	30.318	0.141
82.88	30.736	0.142
84.21	31.152	0.144
85.57	31.57	0.146
87	32.014	0.148
88.49	32.47	0.15
89.99	32.925	0.152
91.5	33.375	0.212
93.01	33.83	0.214
94.54	34.301	0.215
96.15	34.774	0.217
97.81	35.258	0.218
99.46	35.756	0.22
101.12	36.238	0.183
102.8	36.715	0.183
104.47	37.183	0.184
106.19	37.669	0.184
107.96	38.165	0.185
109.76	38.656	0.186
111.56	39.146	0.186
113.42	39.653	0.187
115.34	40.162	0.188
117.23	40.655	0.189
119.09	41.145	0.189
120.94	41.623	0.19
122.77	42.092	0.191
124.59	42.547	0.192
126.38	42.99	0.192
128.18	43.429	0.193
130	43.881	0.194
131.84	44.325	0.194
133.69	44.762	0.195
135.58	45.195	0.196
137.35	45.616	0.196
139.15	46.024	0.197
140.94	46.427	0.197
142.72	46.828	0.198
144.49	47.211	0.199
146.24	47.583	0.199
148.03	47.969	0.2
149.83	48.356	0.201
151.63	48.737	0.201
153.48	49.108	0.202
155.39	49.496	0.202
157.29	49.879	0.203
159.18	50.246	0.204
161.05	50.613	0.204
162.92	50.968	0.205
164.77	51.325	0.205
166.61	51.661	0.206
168.44	52	0.206
170.27	52.327	0.207
172.08	52.654	0.207
173.89	52.967	0.208
175.68	53.276	0.208
177.47	53.574	0.209
179.25	53.887	0.209
181.02	54.18	0.21
182.83	54.467	0.21
184.69	54.771	0.211
186.57	55.07	0.211
188.43	55.356	0.212
190.29	55.639	0.212
192.14	55.924	0.213
193.99	56.194	0.213
195.82	56.457	0.214
197.65	56.73	0.214
199.47	57.003	0.215
201.29	57.25	0.215
203.1	57.47	0.215
204.96	57.724	0.216
206.89	57.995	0.216
208.81	58.241	0.217
210.72	58.488	0.217
212.62	58.728	0.217
214.52	58.953	0.218
216.41	59.185	0.218
218.29	59.424	0.219
220.17	59.648	0.219
222.04	59.873	0.219
223.91	60.082	0.22
225.77	60.307	0.22
227.62	60.509	0.22
229.47	60.704	0.221
231.31	60.898	0.221
233.15	61.091	0.221
234.98	61.282	0.222
236.81	61.476	0.222
238.63	61.652	0.222
240.44	61.844	0.223
242.25	62.029	0.223
244.06	62.207	0.223
245.9	62.423	0.224
247.78	62.556	0.224
249.66	62.714	0.224
251.53	62.901	0.224
253.39	63.073	0.225
255.25	63.222	0.225
257.11	63.395	0.225
258.96	63.542	0.226
260.85	63.723	0.226
262.79	63.891	0.226
264.72	64.056	0.226
266.64	64.21	0.227
268.56	64.356	0.227
270.53	64.564	0.227
272.53	64.712	0.228
274.53	64.846	0.228
276.53	64.999	0.228
278.52	65.155	0.228
280.5	65.323	0.229
282.49	65.473	0.229
284.46	65.628	0.229
286.44	65.78	0.229
288.4	65.914	0.23
290.37	66.044	0.23
292.32	66.174	0.23
294.28	66.313	0.23
296.23	66.466	0.231
298.17	66.567	0.231
300.11	66.688	0.231
302.05	66.848	0.231
303.98	66.997	0.232
305.91	67.072	0.232
307.83	67.189	0.232
309.75	67.338	0.232
51.5	19.523	0.096
52.25	19.819	0.098
53.62	20.386	0.1
54.97	20.933	0.102
56.29	21.468	0.104
57.58	21.983	0.106
58.86	22.478	0.108
60.13	22.964	0.11

System: germanium disulfide; phases: Glass
Fixed: Pressure, kPa = 101.325
Property: Molar heat capacity at constant pressure, J/K/mol (Glass); method: Relaxation calorimetry
Temperature, K	Molar heat capacity at constant pressure, J/K/mol	uncertainty
2.05	0.01	0.001
2.19	0.012	0.001
2.34	0.016	0.001
2.51	0.02	0.001
2.69	0.026	0.001
2.87	0.034	0.002
2.9	0.041	0.002
3.09	0.05	0.002
3.32	0.066	0.003
3.54	0.075	0.003
3.56	0.083	0.004
3.8	0.097	0.004
3.81	0.104	0.005
4.08	0.128	0.006
4.36	0.158	0.007
4.67	0.195	0.008
5.01	0.256	0.011
5.33	0.306	0.013
5.71	0.374	0.016
6.1	0.44	0.018
6.56	0.528	0.022
6.99	0.63	0.026
7.51	0.745	0.031
8.04	0.877	0.036
8.6	1.033	0.042
9.18	1.148	0.047
9.83	1.337	0.055
10.52	1.53	0.062
11.26	1.753	0.072
12.06	2.065	0.084
12.9	2.356	0.096
13.85	2.621	0.107
14.8	2.967	0.121
15.83	3.367	0.137
15.85	3.373	0.137
16.97	3.78	0.154
18.17	4.272	0.174
19.45	4.812	0.196
20.81	5.39	0.219
22.29	6.056	0.246
23.87	6.717	0.273
23.89	6.717	0.273
25.56	7.535	0.306
25.58	7.519	0.306
27.37	8.376	0.34
27.4	8.376	0.34
29.29	9.328	0.379
29.33	9.278	0.377
31.38	10.398	0.426
31.43	10.259	0.42
33.64	11.414	0.464
33.66	11.351	0.461
36.03	12.548	0.51
38.58	13.76	0.559
41.3	15.049	0.611
44.22	16.41	0.667
47.35	17.821	0.724
50.69	19.234	0.781
