Measured thermophysical data. Influence of the anion on the surface tension of 1-ethyl-3-methylimidazolium-based ionic liquids
Source: J. Chem. Thermodyn., 2012, 10.1016/j.jct.2012.03.008
Compound 1: 1-ethyl-3-methylimidazolium acetate, C8H14N2O2, InChI=1S/C6H11N2.C2H4O2/c1-3-8-5-4-7(2)6-8;1-2(3)4/h4-6H,3H2,1-2H3;1H3,(H,3,4)/q+1;/p-1
Compound 2: 1-ethyl-3-methylimidazolium thiocyanate, C7H11N3S, InChI=1S/C6H11N2.CHNS/c1-3-8-5-4-7(2)6-8;2-1-3/h4-6H,3H2,1-2H3;3H/q+1;/p-1
Compound 3: 1-ethyl-3-methylimidazolium dicyanamide, C8H11N5, InChI=1S/C6H11N2.C2N3/c1-3-8-5-4-7(2)6-8;3-1-5-2-4/h4-6H,3H2,1-2H3;/q+1;-1
Compound 4: 1-ethyl-3-methylimidazolium 4-methylbenzenesulfonate, C13H18N2O3S, InChI=1S/C7H8O3S.C6H11N2/c1-6-2-4-7(5-3-6)11(8,9)10;1-3-8-5-4-7(2)6-8/h2-5H,1H3,(H,8,9,10);4-6H,3H2,1-2H3/q;+1/p-1
Compound 5: 1-ethyl-3-methylimidazolium trifluoromethanesulfonate, C7H11F3N2O3S, InChI=1S/C6H11N2.CHF3O3S/c1-3-8-5-4-7(2)6-8;2-1(3,4)8(5,6)7/h4-6H,3H2,1-2H3;(H,5,6,7)/q+1;/p-1
Compound 6: 1-ethyl-3-methylimidazolium methyl phosphonate, C7H15N2O3P, InChI=1S/C6H11N2.CH5O3P/c1-3-8-5-4-7(2)6-8;1-4-5(2)3/h4-6H,3H2,1-2H3;5H,1H3,(H,2,3)/q+1;/p-1
Compound 7: 1-ethyl-3-methylimidazolium dimethylphosphate, C8H17N2O4P, InChI=1S/C6H11N2.C2H7O4P/c1-3-8-5-4-7(2)6-8;1-5-7(3,4)6-2/h4-6H,3H2,1-2H3;1-2H3,(H,3,4)/q+1;/p-1
Compound 8: 1-ethyl-3-methylimidazolium methanesulfonate, C7H14N2O3S, InChI=1S/C6H11N2.CH4O3S/c1-3-8-5-4-7(2)6-8;1-5(2,3)4/h4-6H,3H2,1-2H3;1H3,(H,2,3,4)/q+1;/p-1
Compound 9: 1-butyl-3-methylimidazolium tetrafluoroborate, C8H15BF4N2, InChI=1S/C8H15N2.BF4/c1-3-4-5-10-7-6-9(2)8-10;2-1(3,4)5/h6-8H,3-5H2,1-2H3;/q+1;-1
Compound 10: 1-butyl-3-methylimidazolium hexafluorophosphate, C8H15F6N2P, InChI=1S/C8H15N2.F6P/c1-3-4-5-10-7-6-9(2)8-10;1-7(2,3,4,5)6/h6-8H,3-5H2,1-2H3;/q+1;-1
Compound 11: 1-butyl-3-methylimidazolium trifluoromethanesulfonate, C9H15F3N2O3S, InChI=1S/C8H15N2.CHF3O3S/c1-3-4-5-10-7-6-9(2)8-10;2-1(3,4)8(5,6)7/h6-8H,3-5H2,1-2H3;(H,5,6,7)/q+1;/p-1
Compound 12: 1-butyl-3-methylimidazolium bis(trifluoromethylsulfonyl)imide, C10H15F6N3O4S2, InChI=1S/C8H15N2.C2F6NO4S2/c1-3-4-5-10-7-6-9(2)8-10;3-1(4,5)14(10,11)9-15(12,13)2(6,7)8/h6-8H,3-5H2,1-2H3;/q+1;-1

System: 1-ethyl-3-methylimidazolium acetate; phases: Liquid, Air at 1 atmosphere
Property: Surface tension liquid-gas, N/m (Liquid); method: Pendant drop shape
Temperature, K	Surface tension liquid-gas, N/m	uncertainty
298.1	0.04706	0.0005
308.2	0.04653	0.0005
318.2	0.04589	0.00049
328.2	0.04533	0.00048
338.3	0.04474	0.00048

System: 1-ethyl-3-methylimidazolium thiocyanate; phases: Liquid, Air at 1 atmosphere
Property: Surface tension liquid-gas, N/m (Liquid); method: Pendant drop shape
Temperature, K	Surface tension liquid-gas, N/m	uncertainty
298.2	0.0533	0.001
308.2	0.0523	0.001
318.2	0.0518	0.0009
328.2	0.0505	0.0008
338.3	0.0498	0.0011
343.2	0.0494	0.0008

System: 1-ethyl-3-methylimidazolium dicyanamide; phases: Liquid, Air at 1 atmosphere
Property: Surface tension liquid-gas, N/m (Liquid); method: Pendant drop shape
Temperature, K	Surface tension liquid-gas, N/m	uncertainty
298.3	0.0575	0.0008
308.2	0.0566	0.001
318.3	0.0564	0.0008
328.2	0.056	0.0007
338.5	0.055	0.0008
343.4	0.0549	0.0008

System: 1-ethyl-3-methylimidazolium 4-methylbenzenesulfonate; phases: Liquid, Air at 1 atmosphere
Property: Surface tension liquid-gas, N/m (Liquid); method: Pendant drop shape
Temperature, K	Surface tension liquid-gas, N/m	uncertainty
308.1	0.0452	0.0006
318	0.0442	0.0006
328.5	0.0436	0.0006
338.3	0.043	0.0006
343.2	0.0427	0.0006

System: 1-ethyl-3-methylimidazolium trifluoromethanesulfonate; phases: Liquid, Air at 1 atmosphere
Property: Surface tension liquid-gas, N/m (Liquid); method: Pendant drop shape
Temperature, K	Surface tension liquid-gas, N/m	uncertainty
298.2	0.0413	0.0005
308.1	0.041	0.00045
318.1	0.04048	0.00044
328.4	0.0399	0.0007
338.3	0.0395	0.0007
344.9	0.0393	0.00043

System: 1-ethyl-3-methylimidazolium methyl phosphonate; phases: Liquid, Air at 1 atmosphere
Property: Surface tension liquid-gas, N/m (Liquid); method: Pendant drop shape
Temperature, K	Surface tension liquid-gas, N/m	uncertainty
298.2	0.049	0.0006
308.4	0.0483	0.0006
318	0.0479	0.0008
328.6	0.0472	0.0006
338.5	0.0467	0.0006
343.1	0.0463	0.0005

System: 1-ethyl-3-methylimidazolium dimethylphosphate; phases: Liquid, Air at 1 atmosphere
Property: Surface tension liquid-gas, N/m (Liquid); method: Pendant drop shape
Temperature, K	Surface tension liquid-gas, N/m	uncertainty
308.2	0.0453	0.0009
318	0.0447	0.0008
328.7	0.0444	0.0007
338.6	0.0438	0.0007
343.5	0.0433	0.0006

System: 1-ethyl-3-methylimidazolium methanesulfonate; phases: Liquid, Air at 1 atmosphere
Property: Surface tension liquid-gas, N/m (Liquid); method: Pendant drop shape
Temperature, K	Surface tension liquid-gas, N/m	uncertainty
298.5	0.0509	0.0008
308	0.0503	0.0008
317.9	0.0497	0.0008
328.1	0.0491	0.0008
338.1	0.0481	0.0006
342.7	0.0477	0.0006

System: 1-butyl-3-methylimidazolium tetrafluoroborate; phases: Liquid, Air at 1 atmosphere
Property: Surface tension liquid-gas, N/m (Liquid); method: Pendant drop shape
Temperature, K	Surface tension liquid-gas, N/m	uncertainty
298	0.04544	0.00049
307.9	0.04457	0.00048
317.9	0.04391	0.00047
328.4	0.04315	0.00047
338.4	0.04249	0.00046
343.1	0.04217	0.00046

System: 1-butyl-3-methylimidazolium hexafluorophosphate; phases: Liquid, Air at 1 atmosphere
Property: Surface tension liquid-gas, N/m (Liquid); method: Pendant drop shape
Temperature, K	Surface tension liquid-gas, N/m	uncertainty
298.1	0.04381	0.00047
303.2	0.04344	0.00047
313.1	0.04272	0.00046
323.1	0.04219	0.00046
333.1	0.04161	0.00045
343.7	0.04107	0.00045

System: 1-butyl-3-methylimidazolium trifluoromethanesulfonate; phases: Liquid, Air at 1 atmosphere
Property: Surface tension liquid-gas, N/m (Liquid); method: Pendant drop shape
Temperature, K	Surface tension liquid-gas, N/m	uncertainty
298.1	0.03586	0.0004
307.9	0.03529	0.0004
318	0.03495	0.0004
328.1	0.03464	0.00041
338.3	0.0343	0.00038

System: 1-butyl-3-methylimidazolium bis(trifluoromethylsulfonyl)imide; phases: Liquid, Air at 1 atmosphere
Property: Surface tension liquid-gas, N/m (Liquid); method: Pendant drop shape
Temperature, K	Surface tension liquid-gas, N/m	uncertainty
298.2	0.03335	0.00038
308.2	0.03285	0.00037
318.2	0.03225	0.00037
328.2	0.03169	0.00036
338.2	0.03114	0.00035
343.2	0.03076	0.00035
