Measured thermophysical data. Thermodynamic properties of the methyl esters of p-hydroxy and p-methoxy benzoic acids
Source: J. Chem. Thermodyn., 2014, 10.1016/j.jct.2014.06.002
Compound 1: carbon dioxide, CO2, InChI=1S/CO2/c2-1-3
Compound 2: water, H2O, InChI=1S/H2O/h1H2
Compound 3: oxygen, O2, InChI=1S/O2/c1-2
Compound 4: methyl 4-hydroxybenzoate, C8H8O3, InChI=1S/C8H8O3/c1-11-8(10)6-2-4-7(9)5-3-6/h2-5,9H,1H3, purity 99.8%
Compound 5: methyl 4-methoxybenzoate, C9H10O3, InChI=1S/C9H10O3/c1-11-8-5-3-7(4-6-8)9(10)12-2/h3-6H,1-2H3, purity 99.7%

System: methyl 4-hydroxybenzoate; phases: Crystal, Liquid, Air at 1 atmosphere
Property: Molar enthalpy of transition or fusion, kJ/mol (Crystal); method: DSC
Molar enthalpy of transition or fusion, kJ/mol	uncertainty
26.4	0.6

System: methyl 4-hydroxybenzoate; phases: Crystal, Liquid, Air at 1 atmosphere
Property: Normal melting temperature, K (Crystal); method: DTA
Normal melting temperature, K	uncertainty
399	0.4

System: methyl 4-hydroxybenzoate; phases: Crystal, Gas
Property: Vapor or sublimation pressure, kPa (Crystal); method: Calculated from knudsen effusion weight loss
Temperature, K	Vapor or sublimation pressure, kPa	uncertainty
323.1	7.6e-05	2e-05
325.17	9.7e-05	2e-05
327.18	0.000123	2e-05
329.09	0.000157	2.1e-05
331.14	0.000199	2.1e-05
333.17	0.000247	2.2e-05
335.09	0.000317	2.3e-05
337.15	0.000399	2.4e-05
339.18	0.000492	2.7e-05
341.1	0.000624	3e-05
343.15	0.000781	3.4e-05
345.17	0.000961	3.9e-05

System: methyl 4-hydroxybenzoate; phases: Crystal, Gas
Property: Vapor or sublimation pressure, kPa (Crystal); method: Closed cell (Static) method
Temperature, K	Vapor or sublimation pressure, kPa	uncertainty
338.93	0.00051	0.00012
340.89	0.00061	0.00012
342.87	0.00076	0.00012
344.86	0.00095	0.00013
346.81	0.00116	0.00013
348.81	0.00145	0.00013
350.78	0.00178	0.00014
352.76	0.00219	0.00015
354.74	0.0027	0.00016
356.7	0.00327	0.00018
358.68	0.00401	0.0002
360.66	0.00485	0.00023
362.64	0.00595	0.00026
364.61	0.00722	0.00031
366.59	0.00875	0.00036
368.57	0.01042	0.00043
370.54	0.01245	0.0005
372.51	0.01516	0.00055
374.48	0.018	0.0006
376.47	0.0217	0.00065
378.42	0.02585	0.00072
380.41	0.03096	0.00079
382.39	0.03682	0.00088
384.36	0.0434	0.00099
386.29	0.0517	0.00111
388.3	0.061	0.00126
390.23	0.07146	0.00142
392.23	0.08358	0.00161
394.18	0.09816	0.00183
396.17	0.1146	0.0021

System: methyl 4-hydroxybenzoate; phases: Liquid, Gas
Property: Vapor or sublimation pressure, kPa (Liquid); method: Closed cell (Static) method
Temperature, K	Vapor or sublimation pressure, kPa	uncertainty
382.7	0.0512	0.00111
385.5	0.0615	0.00126
387.3	0.0695	0.00139
390.3	0.08367	0.00161
393.3	0.1011	0.0019
395.2	0.1127	0.0021
398.1	0.1351	0.0021
400.2	0.153	0.0022
402.1	0.1716	0.0023
404.1	0.193	0.0025
406	0.2153	0.0027
408	0.2416	0.0029
410	0.2688	0.0031
412	0.2982	0.0034
413.9	0.335	0.0037
415.9	0.3707	0.004
417.8	0.4111	0.0044
419.8	0.4582	0.0048
421.8	0.5093	0.0052
423.7	0.5639	0.0057

System: methyl 4-methoxybenzoate; phases: Crystal, Liquid, Air at 1 atmosphere
Property: Molar enthalpy of transition or fusion, kJ/mol (Crystal); method: DSC
Molar enthalpy of transition or fusion, kJ/mol	uncertainty
18.8	0.4

System: methyl 4-methoxybenzoate; phases: Crystal, Liquid, Air at 1 atmosphere
Property: Normal melting temperature, K (Crystal); method: DTA
Normal melting temperature, K	uncertainty
320.6	0.4

System: methyl 4-methoxybenzoate; phases: Crystal, Gas
Property: Vapor or sublimation pressure, kPa (Crystal); method: Closed cell (Static) method
Temperature, K	Vapor or sublimation pressure, kPa	uncertainty
291.99	0.00042	0.0001
294.02	0.00055	0.00011
295.98	0.0007	0.00011
297.99	0.0009	0.00011
299.97	0.00113	0.00011
301.98	0.00144	0.00012
303.94	0.0018	0.00013
305.91	0.00226	0.00014
307.93	0.00282	0.00015
309.94	0.00351	0.00017
311.9	0.00435	0.0002
313.9	0.00539	0.00024
315.89	0.00661	0.00028
317.91	0.00809	0.00033
319.88	0.00986	0.0004

System: methyl 4-methoxybenzoate; phases: Liquid, Gas
Property: Vapor or sublimation pressure, kPa (Liquid); method: Closed cell (Static) method
Temperature, K	Vapor or sublimation pressure, kPa	uncertainty
309.93	0.00447	0.00021
311.93	0.00528	0.00023
313.9	0.00624	0.00027
315.88	0.00734	0.00031
317.96	0.0087	0.00036
319.95	0.01022	0.00041
321.92	0.01199	0.00048
323.93	0.01395	0.00053
325.92	0.01635	0.00057
327.91	0.01897	0.00061
329.91	0.02195	0.00065
331.89	0.02549	0.00071
333.88	0.02925	0.00076
335.84	0.03407	0.00084
337.86	0.03931	0.00092
339.81	0.04501	0.00101
341.82	0.05122	0.0011
343.79	0.0591	0.00123
345.79	0.06712	0.00135
347.76	0.0769	0.0015
349.76	0.08689	0.00166
351.74	0.09867	0.00184
353.73	0.1129	0.0021
355.71	0.1287	0.0023

Reaction: -1 methyl 4-hydroxybenzoate + 8 carbon dioxide + 4 water + -8.5 oxygen
Property: Specific internal energy of reaction at constant volume, J/g
-24485.5

Reaction: -1 methyl 4-methoxybenzoate + 9 carbon dioxide + 5 water + -10 oxygen
Property: Specific internal energy of reaction at constant volume, J/g
-26745.4
