Measured thermophysical data. Transport and thermal properties of quaternary phosphonium ionic  liquids and IoNanofluids
Source: J. Chem. Thermodyn., 2013, 10.1016/j.jct.2013.04.013
Compound 1: trihexyltetradecylphosphonium bis(2,4,4-trimethylpentyl)phosphinate, C48H102O2P2, InChI=1S/C32H68P.C16H35O2P/c1-5-9-13-17-18-19-20-21-22-23-24-28-32-33(29-25-14-10-6-2,30-26-15-11-7-3)31-27-16-12-8-4;1-13(9-15(3,4)5)11-19(17,18)12-14(2)10-16(6,7)8/h5-32H2,1-4H3;13-14H,9-12H2,1-8H3,(H,17,18)/q+1;/p-1, purity 95%
Compound 2: tributylmethylphosphonium methyl sulfate, C14H33O4PS, InChI=1S/C13H30P.CH4O4S/c1-5-8-11-14(4,12-9-6-2)13-10-7-3;1-5-6(2,3)4/h5-13H2,1-4H3;1H3,(H,2,3,4)/q+1;/p-1, purity 98.6%
Compound 3: trihexyl(tetradecyl)phosphonium tris(pentafluoroethyl)trifluorophosphate, C38H68F18P2, InChI=1S/C32H68P.C6F18P/c1-5-9-13-17-18-19-20-21-22-23-24-28-32-33(29-25-14-10-6-2,30-26-15-11-7-3)31-27-16-12-8-4;7-1(8,9)4(16,17)25(22,23,24,5(18,19)2(10,11)12)6(20,21)3(13,14)15/h5-32H2,1-4H3;/q+1;-1, purity 99.4%
Compound 4: trihexyl(tetradecyl)phosphonium bis[(trifluoromethyl)sulfonyl]imide, C34H68F6NO4PS2, InChI=1S/C32H68P.C2F6NO4S2/c1-5-9-13-17-18-19-20-21-22-23-24-28-32-33(29-25-14-10-6-2,30-26-15-11-7-3)31-27-16-12-8-4;3-1(4,5)14(10,11)9-15(12,13)2(6,7)8/h5-32H2,1-4H3;/q+1;-1, purity 98.6%

System: trihexyltetradecylphosphonium bis(2,4,4-trimethylpentyl)phosphinate; phases: Liquid
Fixed: Pressure, kPa = 101.325
Property: Thermal conductivity, W/m/K (Liquid); method: Hot wire method
Temperature, K	Thermal conductivity, W/m/K	uncertainty
282.47	0.137	0.02
292.94	0.136	0.02
298.04	0.135	0.02
303.15	0.135	0.02
313.45	0.133	0.02
323.45	0.132	0.02
333.55	0.131	0.02
343.59	0.131	0.02
353.62	0.131	0.02

System: trihexyltetradecylphosphonium bis(2,4,4-trimethylpentyl)phosphinate; phases: Liquid
Fixed: Pressure, kPa = 101.325
Property: Molar heat capacity at constant pressure, J/K/mol (Liquid); method: Small sample (50 mg) DSC
Temperature, K	Molar heat capacity at constant pressure, J/K/mol	uncertainty
293.15	1619.226965388	68.821012378
298.15	1634.692361428	69.59428218
303.15	1644.744868854	69.59428218
308.15	1655.570646082	70.367551982
313.15	1667.169693112	70.367551982
318.15	1677.99547034	71.140821784
323.15	1688.047977766	71.914091586
328.15	1698.100485192	71.914091586
333.15	1708.152992618	72.687361388
338.15	1717.432230242	72.687361388
343.15	1725.938198064	73.46063119
348.15	1735.99070549	73.46063119
353.15	1745.269943114	74.233900992
358.15	1754.549180738	74.233900992
363.15	1763.828418362	75.007170794

System: trihexyltetradecylphosphonium bis(2,4,4-trimethylpentyl)phosphinate; phases: Liquid
Fixed: Pressure, kPa = 101.325
Property: Viscosity, Pa*s (Liquid); method: Cone and plate viscometry
Temperature, K	Viscosity, Pa*s	uncertainty
298.15	0.8473	0.42648
313.15	0.56854	0.28577
323.15	0.38746	0.19452
333.15	0.12561	0.06292

System: tributylmethylphosphonium methyl sulfate; phases: Liquid
Fixed: Pressure, kPa = 101.325
Property: Thermal conductivity, W/m/K (Liquid); method: Hot wire method
Temperature, K	Thermal conductivity, W/m/K	uncertainty
283.34	0.157	0.02
293.28	0.156	0.02
298.36	0.155	0.02
303.45	0.155	0.02
313.5	0.153	0.02
323.6	0.153	0.02
333.58	0.153	0.02
343.61	0.153	0.02
353.51	0.153	0.02

System: trihexyl(tetradecyl)phosphonium tris(pentafluoroethyl)trifluorophosphate; phases: Liquid
Fixed: Pressure, kPa = 101.325
Property: Thermal conductivity, W/m/K (Liquid); method: Hot wire method
Temperature, K	Thermal conductivity, W/m/K	uncertainty
282.19	0.126	0.02
292.99	0.125	0.02
298.41	0.125	0.02
303.54	0.125	0.02
314.37	0.123	0.02
325.65	0.123	0.02
334.58	0.123	0.02
344.18	0.123	0.02
355.07	0.121	0.02

System: trihexyl(tetradecyl)phosphonium bis[(trifluoromethyl)sulfonyl]imide; phases: Liquid
Fixed: Pressure, kPa = 101.325
Property: Thermal conductivity, W/m/K (Liquid); method: Hot wire method
Temperature, K	Thermal conductivity, W/m/K	uncertainty
285.65	0.139	0.02
293.14	0.138	0.02
297.72	0.137	0.02
302.37	0.137	0.02
313.04	0.135	0.02
323.58	0.134	0.02
333.55	0.135	0.02

System: trihexyl(tetradecyl)phosphonium bis[(trifluoromethyl)sulfonyl]imide; phases: Liquid
Fixed: Pressure, kPa = 101.325
Property: Molar heat capacity at constant pressure, J/K/mol (Liquid); method: Small sample (50 mg) DSC
Temperature, K	Molar heat capacity at constant pressure, J/K/mol	uncertainty
333.15	1367.567589958	58.0643222552
338.15	1372.1516153992	58.0643222552
343.15	1378.2636493208	58.8283264954
348.15	1386.667695963	58.8283264954
353.15	1395.0717426052	58.8283264954
358.15	1403.4757892474	59.5923307356
363.15	1413.40784437	59.5923307356
368.15	1426.3959164534	60.3563349758
373.15	1435.5639673358	61.120339216
378.15	1440.9119970172	61.120339216
383.15	1450.0800478996	61.8843434562
388.15	1457.7200903016	61.8843434562
393.15	1465.3601327036	61.8843434562
398.15	1473.7641793458	62.6483476964
403.15	1480.6402175076	62.6483476964
408.15	1488.2802599096	63.4123519366
413.15	1495.9203023116	63.4123519366
418.15	1502.7963404734	63.4123519366
423.15	1509.6723786352	64.1763561768
428.15	1517.3124210372	64.1763561768
438.15	1533.3565100814	64.940360417
443.15	1536.4125270422	64.940360417
448.15	1542.5245609638	65.7043646572
453.15	1550.1646033658	65.7043646572
458.15	1556.2766372874	65.7043646572
463.15	1560.8606627286	66.4683688974
