Measured thermophysical data. Densities and volumetric properties of a (xylene + dimethyl sulfoxide) at temperature from (293.15 to 353.15) K
Source: J. Chem. Thermodyn., 2004, 10.1016/j.jct.2004.04.004
Compound 1: dimethyl sulfoxide, C2H6OS, InChI=1S/C2H6OS/c1-4(2)3/h1-2H3
Compound 2: 1,2-dimethylbenzene, C8H10, InChI=1S/C8H10/c1-7-5-3-4-6-8(7)2/h3-6H,1-2H3
Compound 3: 1,3-dimethylbenzene, C8H10, InChI=1S/C8H10/c1-7-4-3-5-8(2)6-7/h3-6H,1-2H3
Compound 4: 1,4-dimethylbenzene, C8H10, InChI=1S/C8H10/c1-7-3-5-8(2)6-4-7/h3-6H,1-2H3

System: dimethyl sulfoxide; phases: Liquid
Property: Refractive index (Na D-line) (Liquid); method: Standard Abbe refractometry
Temperature, K	Pressure, kPa	Refractive index (Na D-line)	uncertainty
293.15	101.325	1.4785	0.0007

System: dimethyl sulfoxide; phases: Liquid
Property: Mass density, kg/m3 (Liquid); method: VIBTUB:UFactor:4
Temperature, K	Pressure, kPa	Mass density, kg/m3	uncertainty
298.15	101.325	1095.62	0.39

System: 1,2-dimethylbenzene; phases: Liquid
Property: Refractive index (Na D-line) (Liquid); method: Standard Abbe refractometry
Temperature, K	Pressure, kPa	Refractive index (Na D-line)	uncertainty
293.15	101.325	1.5057	0.0007

System: 1,2-dimethylbenzene; phases: Liquid
Property: Mass density, kg/m3 (Liquid); method: VIBTUB:UFactor:4
Temperature, K	Pressure, kPa	Mass density, kg/m3	uncertainty
298.15	101.325	875.73	0.44

System: 1,3-dimethylbenzene; phases: Liquid
Property: Refractive index (Na D-line) (Liquid); method: Standard Abbe refractometry
Temperature, K	Pressure, kPa	Refractive index (Na D-line)	uncertainty
293.15	101.325	1.4973	0.0008

System: 1,3-dimethylbenzene; phases: Liquid
Property: Mass density, kg/m3 (Liquid); method: VIBTUB:UFactor:4
Temperature, K	Pressure, kPa	Mass density, kg/m3	uncertainty
298.15	101.325	859.83	0.99

System: 1,4-dimethylbenzene; phases: Liquid
Property: Refractive index (Na D-line) (Liquid); method: Standard Abbe refractometry
Temperature, K	Pressure, kPa	Refractive index (Na D-line)	uncertainty
293.15	101.325	1.49577	0.00075

System: 1,4-dimethylbenzene; phases: Liquid
Property: Mass density, kg/m3 (Liquid); method: VIBTUB:UFactor:4
Temperature, K	Pressure, kPa	Mass density, kg/m3	uncertainty
298.15	101.325	856.58	0.63

System: dimethyl sulfoxide + 1,2-dimethylbenzene; phases: Liquid
Fixed: Pressure, kPa = 101.3
Property: Mass density, kg/m3 (Liquid); method: VIBTUB:UFactor:4
Temperature, K	Mole fraction of 1,2-dimethylbenzene	Mass density, kg/m3	uncertainty
293.15	0.0858	1070.35	0.28
293.15	0.1359	1054.5	0.26
293.15	0.1957	1036.82	0.24
293.15	0.2589	1019.38	0.22
293.15	0.3283	1001.63	0.2
293.15	0.3947	985.85	0.21
293.15	0.4732	968.58	0.23
293.15	0.5482	953.27	0.24
293.15	0.6132	940.87	0.26
293.15	0.6648	931.53	0.27
293.15	0.7329	919.84	0.29
293.15	0.8012	908.78	0.3
293.15	0.8732	897.78	0.31
293.15	0.9198	891.02	0.32
303.15	0.0923	1059.85	0.27
303.15	0.153	1040.84	0.25
303.15	0.229	1018.94	0.22
303.15	0.3013	999.82	0.2
303.15	0.3539	986.84	0.21
303.15	0.439	967.38	0.23
303.15	0.4938	955.72	0.24
303.15	0.5539	943.64	0.26
303.15	0.615	932.03	0.27
303.15	0.6849	919.56	0.29
303.15	0.7537	907.99	0.3
303.15	0.8327	895.54	0.32
303.15	0.9123	883.82	0.33
313.15	0.0794	1055.53	0.26
313.15	0.1246	1040.99	0.25
313.15	0.1936	1020.26	0.22
313.15	0.2638	1000.86	0.2
313.15	0.3248	985.24	0.21
313.15	0.4058	966.09	0.23
313.15	0.5732	931.27	0.27
313.15	0.649	917.29	0.29
313.15	0.7044	907.66	0.3
313.15	0.7724	896.49	0.32
313.15	0.8355	886.69	0.33
313.15	0.8943	878.03	0.34
313.15	0.9234	873.9	0.35
323.15	0.0833	1045.74	0.25
323.15	0.1489	1024.89	0.23
323.15	0.1948	1011.29	0.21
323.15	0.2587	993.57	0.2
323.15	0.3278	975.84	0.22
323.15	0.4039	957.84	0.24
323.15	0.4632	944.82	0.25
323.15	0.5399	929.1	0.27
323.15	0.6012	917.37	0.29
323.15	0.664	906.05	0.3
323.15	0.7576	890.35	0.32
323.15	0.8148	881.37	0.34
323.15	0.8833	871.21	0.35
323.15	0.9347	863.97	0.36
333.15	0.0795	1038.47	0.24
333.15	0.1399	1019.08	0.22
333.15	0.2048	999.81	0.2
333.15	0.2598	984.62	0.21
333.15	0.3189	969.38	0.23
333.15	0.3832	953.94	0.24
333.15	0.4539	938.16	0.26
333.15	0.5138	925.7	0.28
333.15	0.5822	912.36	0.3
333.15	0.6427	901.28	0.31
333.15	0.7038	890.71	0.32
333.15	0.7638	880.89	0.34
333.15	0.8247	871.45	0.35
333.15	0.9138	858.53	0.37
343.15	0.0698	1033.25	0.24
343.15	0.1587	1004.79	0.2
343.15	0.2184	987.38	0.21
343.15	0.275	972.02	0.22
343.15	0.3576	951.35	0.25
343.15	0.4247	935.94	0.27
343.15	0.4933	921.29	0.28
343.15	0.5539	909.2	0.3
343.15	0.6349	894.13	0.32
343.15	0.7038	882.21	0.34
343.15	0.7971	867.23	0.36
343.15	0.8621	857.5	0.37
343.15	0.9324	847.62	0.38
353.15	0.0431	1034	0.24
353.15	0.1383	1002.49	0.2
353.15	0.2043	982.8	0.21
353.15	0.2748	963.47	0.23
353.15	0.3534	943.75	0.26
353.15	0.4148	929.55	0.27
353.15	0.4829	914.87	0.29
353.15	0.5457	902.24	0.31
353.15	0.6198	888.33	0.33
353.15	0.6831	877.21	0.34
353.15	0.7598	864.61	0.36
353.15	0.8244	854.67	0.38
353.15	0.8846	845.91	0.39
353.15	0.9423	837.96	0.4

System: dimethyl sulfoxide + 1,3-dimethylbenzene; phases: Liquid
Fixed: Pressure, kPa = 101.3
Property: Mass density, kg/m3 (Liquid); method: VIBTUB:UFactor:4
Temperature, K	Mole fraction of 1,3-dimethylbenzene	Mass density, kg/m3	uncertainty
293.15	0.0679	1074.3	0.33
293.15	0.1489	1046.5	0.35
293.15	0.2044	1028.97	0.38
293.15	0.2613	1012.13	0.41
293.15	0.3487	988.35	0.47
293.15	0.3975	976.03	0.51
293.15	0.4578	961.7	0.56
293.15	0.5244	946.87	0.61
293.15	0.5896	933.28	0.66
293.15	0.6597	919.61	0.71
293.15	0.7393	905.13	0.77
293.15	0.8218	891.15	0.82
293.15	0.8835	881.33	0.87
293.15	0.9412	872.62	0.9
303.15	0.0735	1063.89	0.32
303.15	0.1579	1035.01	0.35
303.15	0.2387	1010.01	0.39
303.15	0.3087	990.22	0.44
303.15	0.3754	972.78	0.49
303.15	0.4147	963.09	0.52
303.15	0.4892	945.8	0.58
303.15	0.5539	931.86	0.63
303.15	0.6209	918.33	0.68
303.15	0.6902	905.23	0.73
303.15	0.7532	894.02	0.77
303.15	0.8149	883.65	0.82
303.15	0.8687	875.05	0.85
303.15	0.9373	864.64	0.9
313.15	0.0854	1051.04	0.31
313.15	0.1527	1028.01	0.33
313.15	0.2357	1002.14	0.38
313.15	0.2978	984.4	0.43
313.15	0.3576	968.48	0.48
313.15	0.4077	955.97	0.52
313.15	0.4676	941.86	0.56
313.15	0.5239	929.42	0.61
313.15	0.5823	917.24	0.65
313.15	0.6521	903.59	0.7
313.15	0.7389	887.82	0.76
313.15	0.7912	878.91	0.8
313.15	0.8513	869.17	0.84
313.15	0.9327	856.77	0.89
323.15	0.0746	1046.35	0.3
323.15	0.1647	1015.41	0.33
323.15	0.2138	999.97	0.36
323.15	0.2847	979.25	0.42
323.15	0.3579	959.6	0.48
323.15	0.4135	945.75	0.52
323.15	0.4724	931.98	0.57
323.15	0.5249	920.42	0.61
323.15	0.6038	904.17	0.67
323.15	0.6739	890.78	0.72
323.15	0.7598	875.54	0.78
323.15	0.8133	866.63	0.81
323.15	0.8732	857.15	0.85
323.15	0.9239	849.51	0.89
333.15	0.0673	1040.47	0.29
333.15	0.1568	1009.3	0.32
333.15	0.2249	987.86	0.37
333.15	0.2935	968.02	0.43
333.15	0.3687	948.04	0.49
333.15	0.4312	932.71	0.54
333.15	0.4921	918.76	0.59
333.15	0.5638	903.47	0.64
333.15	0.6304	890.23	0.69
333.15	0.693	878.57	0.73
333.15	0.7563	867.46	0.77
333.15	0.8137	857.93	0.81
333.15	0.8846	846.82	0.86
333.15	0.9355	839.26	0.89
343.15	0.0647	1032.84	0.28
343.15	0.1491	1003.11	0.31
343.15	0.2139	982.42	0.36
343.15	0.2749	964.42	0.41
343.15	0.3588	941.76	0.48
343.15	0.4395	921.95	0.55
343.15	0.5023	907.73	0.59
343.15	0.5539	896.74	0.63
343.15	0.6135	884.76	0.67
343.15	0.675	873.12	0.72
343.15	0.7523	859.44	0.77
343.15	0.8132	849.34	0.81
343.15	0.8643	841.29	0.84
343.15	0.9247	832.25	0.88
353.15	0.0734	1020.97	0.27
353.15	0.1359	998.8	0.3
353.15	0.1844	982.84	0.34
353.15	0.2258	970	0.38
353.15	0.2844	952.95	0.43
353.15	0.3535	934.34	0.48
353.15	0.4241	916.83	0.54
353.15	0.4798	903.97	0.58
353.15	0.5323	892.53	0.62
353.15	0.6042	877.86	0.67
353.15	0.6724	864.89	0.72
353.15	0.7539	850.47	0.77
353.15	0.8375	836.8	0.83
353.15	0.9144	825.15	0.88

System: dimethyl sulfoxide + 1,4-dimethylbenzene; phases: Liquid
Fixed: Pressure, kPa = 101.3
Property: Mass density, kg/m3 (Liquid); method: VIBTUB:UFactor:4
Temperature, K	Mole fraction of 1,4-dimethylbenzene	Mass density, kg/m3	uncertainty
293.15	0.0599	1077	0.31
293.15	0.1284	1052.94	0.29
293.15	0.1944	1031.59	0.29
293.15	0.2783	1006.68	0.28
293.15	0.3589	984.83	0.31
293.15	0.4385	965.03	0.34
293.15	0.5032	950.09	0.37
293.15	0.5539	939.03	0.39
293.15	0.6235	924.72	0.42
293.15	0.7023	909.62	0.45
293.15	0.7635	898.63	0.47
293.15	0.8243	888.27	0.49
293.15	0.8831	878.73	0.51
293.15	0.9327	871.04	0.53
303.15	0.0632	1067.37	0.29
303.15	0.1639	1032.58	0.28
303.15	0.2343	1010.65	0.27
303.15	0.2934	993.59	0.29
303.15	0.3513	977.92	0.31
303.15	0.425	959.33	0.34
303.15	0.4892	944.29	0.37
303.15	0.5633	928.09	0.4
303.15	0.6398	912.58	0.43
303.15	0.7135	898.68	0.46
303.15	0.7624	889.95	0.48
303.15	0.8243	879.44	0.5
303.15	0.8609	873.48	0.51
303.15	0.9244	863.55	0.53
313.15	0.0662	1057.67	0.28
313.15	0.1358	1033.11	0.27
313.15	0.1942	1014.07	0.27
313.15	0.2578	994.8	0.27
313.15	0.3249	975.96	0.31
313.15	0.3895	959.1	0.33
313.15	0.4509	944.13	0.36
313.15	0.5345	925.24	0.4
313.15	0.6106	909.4	0.43
313.15	0.6719	897.46	0.45
313.15	0.754	882.52	0.48
313.15	0.8358	868.7	0.51
313.15	0.9235	854.92	0.54
323.15	0.0573	1052.39	0.27
323.15	0.1537	1018.34	0.26
323.15	0.2359	992.38	0.27
323.15	0.3131	970.2	0.31
323.15	0.383	951.75	0.34
323.15	0.4509	935.12	0.37
323.15	0.5234	918.67	0.4
323.15	0.5902	904.55	0.42
323.15	0.6618	890.43	0.45
323.15	0.7385	876.35	0.48
323.15	0.8123	863.72	0.51
323.15	0.8832	852.33	0.53
323.15	0.9321	844.86	0.55
333.15	0.0529	1045.49	0.26
333.15	0.1248	1019.37	0.25
333.15	0.1944	996.31	0.25
333.15	0.265	974.86	0.29
333.15	0.3398	954.01	0.32
333.15	0.4014	938.13	0.35
333.15	0.4624	923.43	0.38
333.15	0.5137	911.8	0.4
333.15	0.5823	897.2	0.43
333.15	0.6582	882.18	0.46
333.15	0.731	868.78	0.48
333.15	0.8043	856.2	0.51
333.15	0.8638	846.57	0.53
333.15	0.9247	837.2	0.55
343.15	0.0638	1032.77	0.25
343.15	0.1398	1005.47	0.24
343.15	0.2012	985.32	0.26
343.15	0.275	963.03	0.3
343.15	0.351	942.07	0.34
343.15	0.4132	926.22	0.36
343.15	0.4891	908.31	0.4
343.15	0.5409	896.9	0.42
343.15	0.6148	881.67	0.45
343.15	0.6728	870.48	0.47
343.15	0.7322	859.68	0.49
343.15	0.813	845.91	0.52
343.15	0.8732	836.29	0.54
343.15	0.9322	827.33	0.56
353.15	0.0609	1025.3	0.24
353.15	0.1428	995.69	0.24
353.15	0.218	971.2	0.28
353.15	0.2843	951.45	0.31
353.15	0.3598	930.79	0.35
353.15	0.4241	914.57	0.38
353.15	0.481	901.17	0.4
353.15	0.5393	888.27	0.43
353.15	0.6042	874.83	0.45
353.15	0.6629	863.42	0.47
353.15	0.7321	850.8	0.5
353.15	0.7832	842	0.52
353.15	0.833	833.83	0.53
353.15	0.9128	821.46	0.56
