Measured thermophysical data. Determination of thermodynamic properties of Bi2Mo3O12 (s), Bi2MoO6 (s) and Bi6Mo2O15 (s)
Source: J. Chem. Thermodyn., 2019, 10.1016/j.jct.2019.105886
Compound 1: molybdenum, Mo, InChI=1S/Mo
Compound 2: bismuth, Bi, InChI=1S/Bi
Compound 3: oxygen, O2, InChI=1S/O2/c1-2
Compound 4: bismuth molybdate (Bi2Mo3O12), Bi2Mo3O12, InChI=1S/2Bi.3Mo.12O/q2*+3;3*+6;12*-2, purity 99.9%
Compound 5: bismuth molybdate (Bi2MoO6), Bi2MoO6, InChI=1S/2Bi.Mo.6O/q2*+3;+6;6*-2, purity 99.9%
Compound 6: bismuth molybdate (Bi6Mo2O15), Bi6Mo2O15, InChI=1S/6Bi.2Mo.15O/q6*+3;2*+6;15*-2, purity 99.9%
Compound 7: molybdenum oxide (MoO3), MoO3, InChI=1S/Mo.3O/q+6;3*-2, purity 99.92%

System: bismuth molybdate (Bi2Mo3O12); phases: Crystal
Fixed: Pressure, kPa = 101.325
Property: Molar heat capacity at constant pressure, J/K/mol (Crystal); method: DSC
Temperature, K	Molar heat capacity at constant pressure, J/K/mol	uncertainty
328	329.9	20.1
353	344.4	20.4
403	359.5	20.7
453	371	21
503	379.4	21.2
553	384.5	21.3
603	388.1	21.4
653	390.6	21.4
703	392.1	21.5
753	395	21.5
798	399.5	21.6
818	401.6	21.7

System: bismuth molybdate (Bi2MoO6); phases: Crystal
Fixed: Pressure, kPa = 101.325
Property: Molar heat capacity at constant pressure, J/K/mol (Crystal); method: DSC
Temperature, K	Molar heat capacity at constant pressure, J/K/mol	uncertainty
318	183.2	10.9
328	185.1	11
353	189.3	11.1
403	195.7	11.2
453	201.4	11.3
503	204.9	11.4
553	208.2	11.5
603	210.2	11.5
653	211	11.5
703	212.2	11.6
753	213.2	11.6
818	214.2	11.6

System: bismuth molybdate (Bi6Mo2O15); phases: Crystal
Fixed: Pressure, kPa = 101.325
Property: Molar heat capacity at constant pressure, J/K/mol (Crystal); method: DSC
Temperature, K	Molar heat capacity at constant pressure, J/K/mol	uncertainty
318	489.1	29.1
343	499.5	29.3
401	517.9	29.7
451	529.4	30
500	538.7	30.2
550	546.4	30.3
600	553.1	30.5
650	559.1	30.6
700	564.5	30.8
750	569.6	30.9
800	574.3	31
808	575	31

System: molybdenum oxide (MoO3); phases: Crystal
Fixed: Pressure, kPa = 101.325
Property: Molar heat capacity at constant pressure, J/K/mol (Crystal); method: DSC
Temperature, K	Molar heat capacity at constant pressure, J/K/mol	uncertainty
318	74	4
353	77	4.1
403	81.4	4.3
453	84.7	4.5
503	87.4	4.7
553	90.1	4.8
603	92.2	4.9
653	94	5
703	95	5.1
768	95.6	5.1

Reaction: -1 molybdenum + -2 bismuth + 1 bismuth molybdate (Bi2MoO6) + -3 oxygen
Property: Molar enthalpy of reaction, kJ/mol
-1377.1

Reaction: -1 molybdenum + -2 bismuth + 1 bismuth molybdate (Bi2MoO6) + -3 oxygen
Property: Molar Gibbs energy of reaction, kJ/mol
-990.9
-978.2
-965.5
-952.9
-940.2
-927.6
-914.9
-902.2
-889.6
-876.9
-864.3
