Measured thermophysical data. Experimental and theoretical study of methyl n-hydroxybenzoates
Source: J. Chem. Thermodyn., 2018, 10.1016/j.jct.2018.04.011
Compound 1: carbon dioxide, CO2, InChI=1S/CO2/c2-1-3
Compound 2: water, H2O, InChI=1S/H2O/h1H2
Compound 3: oxygen, O2, InChI=1S/O2/c1-2
Compound 4: methyl 2-hydroxybenzoate, C8H8O3, InChI=1S/C8H8O3/c1-11-8(10)6-4-2-3-5-7(6)9/h2-5,9H,1H3, purity 99%
Compound 5: methyl 3-hydroxybenzoate, C8H8O3, InChI=1S/C8H8O3/c1-11-8(10)6-3-2-4-7(9)5-6/h2-5,9H,1H3, purity 99%
Compound 6: methyl 4-hydroxybenzoate, C8H8O3, InChI=1S/C8H8O3/c1-11-8(10)6-2-4-7(9)5-3-6/h2-5,9H,1H3, purity 99%

System: methyl 2-hydroxybenzoate; phases: Crystal, Liquid, Air at 1 atmosphere
Property: Normal melting temperature, K (Crystal); method: DTA
Normal melting temperature, K	uncertainty
271.49	0.85

System: methyl 2-hydroxybenzoate; phases: Crystal, Liquid, Air at 1 atmosphere
Property: Molar enthalpy of transition or fusion, kJ/mol (Crystal); method: DSC
Molar enthalpy of transition or fusion, kJ/mol	uncertainty
16.29	0.75

System: methyl 2-hydroxybenzoate; phases: Liquid, Gas
Property: Molar enthalpy of vaporization or sublimation, kJ/mol (Liquid); method: Derived by Second law
Temperature, K	Molar enthalpy of vaporization or sublimation, kJ/mol	uncertainty
306	64.4	1.8

System: methyl 2-hydroxybenzoate; phases: Liquid
Fixed: Pressure, kPa = 101.325
Property: Molar heat capacity at constant pressure, J/K/mol (Liquid); method: DSC
Temperature, K	Molar heat capacity at constant pressure, J/K/mol	uncertainty
293.15	240.4	9.3
294.15	241.6	9.4
295.15	242.5	9.4
296.15	243.3	9.4
297.15	243.9	9.4
298.15	244.3	9.5
299.15	244.8	9.5
300.15	245.2	9.5
301.15	245.6	9.5
302.15	246.1	9.5
303.15	246.6	9.6
304.15	246.9	9.6
305.15	247.1	9.6
306.15	247.4	9.6
307.15	247.8	9.6
308.15	248	9.6
309.15	248.3	9.6
310.15	248.6	9.6
311.15	249.1	9.6
312.15	249.4	9.7

System: methyl 3-hydroxybenzoate; phases: Crystal, Liquid, Air at 1 atmosphere
Property: Normal melting temperature, K (Crystal); method: DTA
Normal melting temperature, K	uncertainty
344.25	0.41

System: methyl 3-hydroxybenzoate; phases: Crystal, Liquid, Air at 1 atmosphere
Property: Molar enthalpy of transition or fusion, kJ/mol (Crystal); method: DSC
Molar enthalpy of transition or fusion, kJ/mol	uncertainty
20.12	0.47

System: methyl 3-hydroxybenzoate; phases: Liquid, Gas
Property: Molar enthalpy of vaporization or sublimation, kJ/mol (Liquid); method: Derived by Second law
Temperature, K	Molar enthalpy of vaporization or sublimation, kJ/mol	uncertainty
358	78.1	1.9

System: methyl 3-hydroxybenzoate; phases: Crystal
Property: Mass density, kg/m3 (Crystal); method: Pycnometric method
Temperature, K	Pressure, kPa	Mass density, kg/m3	uncertainty
298.15	101.325	1230	20

System: methyl 3-hydroxybenzoate; phases: Crystal
Fixed: Pressure, kPa = 101.325
Property: Molar heat capacity at constant pressure, J/K/mol (Crystal); method: DSC
Temperature, K	Molar heat capacity at constant pressure, J/K/mol	uncertainty
293.15	200.2	7.8
294.15	201.3	7.8
295.15	202.6	7.8
296.15	203.3	7.9
297.15	204.1	7.9
298.15	205	7.9
299.15	205.6	8
300.15	206.2	8
301.15	206.7	8
302.15	207.5	8
303.15	208.2	8.1
304.15	208.7	8.1
305.15	209.2	8.1
306.15	209.8	8.1
307.15	210.4	8.1
308.15	211	8.2
309.15	211.5	8.2
310.15	212	8.2
311.15	212.6	8.2
312.15	213.1	8.3

System: methyl 4-hydroxybenzoate; phases: Crystal, Liquid, Air at 1 atmosphere
Property: Normal melting temperature, K (Crystal); method: DTA
Normal melting temperature, K	uncertainty
399	0.41

System: methyl 4-hydroxybenzoate; phases: Crystal, Liquid, Air at 1 atmosphere
Property: Molar enthalpy of transition or fusion, kJ/mol (Crystal); method: DSC
Molar enthalpy of transition or fusion, kJ/mol	uncertainty
25.84	0.73

System: methyl 4-hydroxybenzoate; phases: Liquid, Gas
Property: Molar enthalpy of vaporization or sublimation, kJ/mol (Liquid); method: Derived by Second law
Temperature, K	Molar enthalpy of vaporization or sublimation, kJ/mol	uncertainty
418	78.2	1.9

System: methyl 4-hydroxybenzoate; phases: Crystal
Fixed: Pressure, kPa = 101.325
Property: Molar heat capacity at constant pressure, J/K/mol (Crystal); method: DSC
Temperature, K	Molar heat capacity at constant pressure, J/K/mol	uncertainty
293.15	209.8	8.1
294.15	211	8.2
295.15	212.2	8.2
296.15	212.8	8.2
297.15	213.6	8.3
298.15	214.4	8.3
299.15	215.2	8.3
300.15	215.7	8.4
301.15	216.2	8.4
302.15	217	8.4
303.15	217.8	8.4
304.15	218.4	8.5
305.15	218.9	8.5
306.15	219.3	8.5
307.15	220.1	8.5
308.15	220.6	8.5
309.15	221.2	8.6
310.15	221.7	8.6
311.15	222.4	8.6
312.15	222.8	8.6

Reaction: -1 methyl 2-hydroxybenzoate + 8 carbon dioxide + 4 water + -8.5 oxygen
Property: Specific internal energy of reaction at constant volume, J/g
-24641.7

Reaction: -1 methyl 3-hydroxybenzoate + 8 carbon dioxide + 4 water + -8.5 oxygen
Property: Specific internal energy of reaction at constant volume, J/g
-24561.8

Reaction: -1 methyl 4-hydroxybenzoate + 8 carbon dioxide + 4 water + -8.5 oxygen
Property: Specific internal energy of reaction at constant volume, J/g
-24498.7
