Measured thermophysical data. Solubility and Stability of Nesquehonite (MgCO3 *3H2O) in NaCl, KCl, MgCl2, and NH4Cl Solutions
Source: J. Chem. Thermodyn., 2009, 10.1016/j.jct.2008.07.004
Compound 1: 1-ethyl-3-methylimidazolium acetate, C8H14N2O2, InChI=1S/C6H11N2.C2H4O2/c1-3-8-5-4-7(2)6-8;1-2(3)4/h4-6H,3H2,1-2H3;1H3,(H,3,4)/q+1;/p-1, purity 98%
Compound 2: 1-butyl-3-methylimidazolium acetate, C10H18N2O2, InChI=1S/C8H15N2.C2H4O2/c1-3-4-5-10-7-6-9(2)8-10;1-2(3)4/h6-8H,3-5H2,1-2H3;1H3,(H,3,4)/q+1;/p-1, purity 98%
Compound 3: 3-hexyl-1-methylimidazolium acetate, C12H22N2O2, InChI=1S/C10H19N2.C2H4O2/c1-3-4-5-6-7-12-9-8-11(2)10-12;1-2(3)4/h8-10H,3-7H2,1-2H3;1H3,(H,3,4)/q+1;/p-1, purity 98%
Compound 4: 1-ethyl-3-methylimidazolium chloride, C6H11ClN2, InChI=1S/C6H11N2.ClH/c1-3-8-5-4-7(2)6-8;/h4-6H,3H2,1-2H3;1H/q+1;/p-1, purity 98%
Compound 5: 1-butyl-3-methylimidazolium chloride, C8H15ClN2, InChI=1S/C8H15N2.ClH/c1-3-4-5-10-7-6-9(2)8-10;/h6-8H,3-5H2,1-2H3;1H/q+1;/p-1, purity 98%
Compound 6: 1-hexyl-3-methylimidazolium chloride, C10H19ClN2, InChI=1S/C10H19N2.ClH/c1-3-4-5-6-7-12-9-8-11(2)10-12;/h8-10H,3-7H2,1-2H3;1H/q+1;/p-1, purity 98%
Compound 7: water, H2O, InChI=1S/H2O/h1H2
Compound 8: 2-methylpropan-2-ol, C4H10O, InChI=1S/C4H10O/c1-4(2,3)5/h5H,1-3H3

System: 2-methylpropan-2-ol + water + 1-ethyl-3-methylimidazolium acetate; phases: Gas, Liquid
Fixed: Pressure, kPa = 100
Property: Mole fraction of 2-methylpropan-2-ol (Gas); method: Titration method
Solvent: Mole fraction of 2-methylpropan-2-ol	Mass fraction of 1-ethyl-3-methylimidazolium acetate	Mole fraction of 2-methylpropan-2-ol	uncertainty
0.9501	0.6026	0.99	0.01
0.95	0.5499	0.9879	0.0121
0.95	0.5	0.9863	0.0115
0.95	0.4501	0.9842	0.0158
0.95	0.4001	0.9817	0.0183
0.95	0.3001	0.9758	0.0242
0.9503	0.2	0.968	0.032
0.9501	0.1	0.9537	0.0463
0.95	0.0499	0.9366	0.0634

System: 2-methylpropan-2-ol + water + 1-ethyl-3-methylimidazolium acetate; phases: Liquid, Gas
Fixed: Pressure, kPa = 100
Property: Boiling temperature at pressure P, K (Liquid); method: Ebulliometric method (Recirculating still)
Solvent: Mole fraction of 2-methylpropan-2-ol	Mass fraction of 1-ethyl-3-methylimidazolium acetate	Boiling temperature at pressure P, K	uncertainty
0.9501	0.6026	385.15	0.41
0.95	0.5499	379.12	0.41
0.95	0.5	374.28	0.41
0.95	0.4501	369.99	0.41
0.95	0.4001	366.38	0.41
0.95	0.3001	361.13	0.41
0.9503	0.2	357.9	0.41
0.9501	0.1	355.96	0.41
0.95	0.0499	355.09	0.41

System: 2-methylpropan-2-ol + water + 1-butyl-3-methylimidazolium acetate; phases: Gas, Liquid
Fixed: Pressure, kPa = 100
Property: Mole fraction of 2-methylpropan-2-ol (Gas); method: Titration method
Solvent: Mole fraction of 2-methylpropan-2-ol	Mass fraction of 1-butyl-3-methylimidazolium acetate	Mole fraction of 2-methylpropan-2-ol	uncertainty
0.9499	0.6008	0.9822	0.0178
0.9499	0.5498	0.9809	0.0191
0.9499	0.5001	0.98	0.02
0.9499	0.4496	0.9784	0.0156
0.95	0.4	0.9767	0.0233
0.9501	0.3002	0.97	0.03
0.9503	0.1999	0.962	0.038
0.9502	0.1	0.9444	0.0556
0.9501	0.045	0.9326	0.0674

System: 2-methylpropan-2-ol + water + 1-butyl-3-methylimidazolium acetate; phases: Liquid, Gas
Fixed: Pressure, kPa = 100
Property: Boiling temperature at pressure P, K (Liquid); method: Ebulliometric method (Recirculating still)
Solvent: Mole fraction of 2-methylpropan-2-ol	Mass fraction of 1-butyl-3-methylimidazolium acetate	Boiling temperature at pressure P, K	uncertainty
0.9499	0.6008	381.22	0.41
0.9499	0.5498	376.11	0.41
0.9499	0.5001	371.77	0.41
0.9499	0.4496	367.26	0.41
0.95	0.4	363.97	0.41
0.9501	0.3002	359.8	0.41
0.9503	0.1999	357.35	0.41
0.9502	0.1	355.38	0.41
0.9501	0.045	354.83	0.41

System: 2-methylpropan-2-ol + water + 3-hexyl-1-methylimidazolium acetate; phases: Gas, Liquid
Fixed: Pressure, kPa = 100
Property: Mole fraction of 2-methylpropan-2-ol (Gas); method: Titration method
Solvent: Mole fraction of 2-methylpropan-2-ol	Mass fraction of 3-hexyl-1-methylimidazolium acetate	Mole fraction of 2-methylpropan-2-ol	uncertainty
0.9501	0.6166	0.9823	0.0098
0.9501	0.5502	0.9798	0.0098
0.9501	0.5	0.9776	0.0098
0.9501	0.4502	0.9752	0.0098
0.9501	0.4001	0.9729	0.0097
0.9501	0.3	0.967	0.0097
0.9503	0.2002	0.958	0.042
0.9501	0.1	0.941	0.0094
0.9501	0.05	0.9315	0.0093

System: 2-methylpropan-2-ol + water + 3-hexyl-1-methylimidazolium acetate; phases: Liquid, Gas
Fixed: Pressure, kPa = 100
Property: Boiling temperature at pressure P, K (Liquid); method: Ebulliometric method (Recirculating still)
Solvent: Mole fraction of 2-methylpropan-2-ol	Mass fraction of 3-hexyl-1-methylimidazolium acetate	Boiling temperature at pressure P, K	uncertainty
0.9501	0.6166	378.35	0.41
0.9501	0.5502	372.03	0.41
0.9501	0.5	368.36	0.41
0.9501	0.4502	365.6	0.41
0.9501	0.4001	362.9	0.41
0.9501	0.3	359.8	0.41
0.9503	0.2002	357.07	0.41
0.9501	0.1	355.3	0.41
0.9501	0.05	354.95	0.41

System: 2-methylpropan-2-ol + water + 1-ethyl-3-methylimidazolium chloride; phases: Gas, Liquid
Fixed: Pressure, kPa = 100
Property: Mole fraction of 2-methylpropan-2-ol (Gas); method: Titration method
Solvent: Mole fraction of 2-methylpropan-2-ol	Mass fraction of 1-ethyl-3-methylimidazolium chloride	Mole fraction of 2-methylpropan-2-ol	uncertainty
0.9501	0.5846	0.9928	0.0072
0.95	0.55	0.9915	0.0085
0.95	0.5001	0.9903	0.0097
0.95	0.4501	0.9874	0.0126
0.95	0.4	0.9855	0.0145
0.9501	0.3001	0.9789	0.0211
0.9505	0.2001	0.9684	0.0316
0.9502	0.1	0.9507	0.0279
0.9502	0.0503	0.9415	0.0279

System: 2-methylpropan-2-ol + water + 1-ethyl-3-methylimidazolium chloride; phases: Liquid, Gas
Fixed: Pressure, kPa = 100
Property: Boiling temperature at pressure P, K (Liquid); method: Ebulliometric method (Recirculating still)
Solvent: Mole fraction of 2-methylpropan-2-ol	Mass fraction of 1-ethyl-3-methylimidazolium chloride	Boiling temperature at pressure P, K	uncertainty
0.9501	0.5846	375.65	0.41
0.95	0.55	372.95	0.41
0.95	0.5001	369.57	0.41
0.95	0.4501	366.27	0.41
0.95	0.4	364.1	0.41
0.9501	0.3001	360.45	0.41
0.9505	0.2001	357.9	0.41
0.9502	0.1	356	0.41
0.9502	0.0503	355.35	0.41

System: 2-methylpropan-2-ol + water + 1-butyl-3-methylimidazolium chloride; phases: Gas, Liquid
Fixed: Pressure, kPa = 100
Property: Mole fraction of 2-methylpropan-2-ol (Gas); method: Titration method
Solvent: Mole fraction of 2-methylpropan-2-ol	Mass fraction of 1-butyl-3-methylimidazolium chloride	Mole fraction of 2-methylpropan-2-ol	uncertainty
0.9501	0.5907	0.9838	0.0162
0.95	0.5499	0.9823	0.0177
0.95	0.4999	0.9794	0.0206
0.95	0.45	0.9775	0.0225
0.9499	0.3999	0.9744	0.0106
0.9499	0.2999	0.9683	0.0317
0.95	0.2	0.9576	0.0424
0.95	0.1001	0.9444	0.0556
0.9499	0.0503	0.9347	0.0653

System: 2-methylpropan-2-ol + water + 1-butyl-3-methylimidazolium chloride; phases: Liquid, Gas
Fixed: Pressure, kPa = 100
Property: Boiling temperature at pressure P, K (Liquid); method: Ebulliometric method (Recirculating still)
Solvent: Mole fraction of 2-methylpropan-2-ol	Mass fraction of 1-butyl-3-methylimidazolium chloride	Boiling temperature at pressure P, K	uncertainty
0.9501	0.5907	375.59	0.41
0.95	0.5499	372.16	0.41
0.95	0.4999	368.05	0.41
0.95	0.45	365.13	0.41
0.9499	0.3999	362.9	0.41
0.9499	0.2999	359.83	0.41
0.95	0.2	357.34	0.41
0.95	0.1001	355.58	0.41
0.9499	0.0503	354.85	0.41

System: 2-methylpropan-2-ol + water + 1-hexyl-3-methylimidazolium chloride; phases: Gas, Liquid
Fixed: Pressure, kPa = 100
Property: Mole fraction of 2-methylpropan-2-ol (Gas); method: Titration method
Solvent: Mole fraction of 2-methylpropan-2-ol	Mass fraction of 1-hexyl-3-methylimidazolium chloride	Mole fraction of 2-methylpropan-2-ol	uncertainty
0.9501	0.5915	0.9778	0.0222
0.95	0.5501	0.9764	0.0236
0.95	0.4999	0.975	0.025
0.95	0.4499	0.9713	0.0287
0.95	0.4002	0.9695	0.0305
0.95	0.2999	0.9631	0.0369
0.9501	0.2	0.9567	0.0433
0.95	0.1	0.9415	0.0585
0.9499	0.0494	0.9334	0.0666

System: 2-methylpropan-2-ol + water + 1-hexyl-3-methylimidazolium chloride; phases: Liquid, Gas
Fixed: Pressure, kPa = 100
Property: Boiling temperature at pressure P, K (Liquid); method: Ebulliometric method (Recirculating still)
Solvent: Mole fraction of 2-methylpropan-2-ol	Mass fraction of 1-hexyl-3-methylimidazolium chloride	Boiling temperature at pressure P, K	uncertainty
0.9501	0.5915	374.26	0.41
0.95	0.5501	370.65	0.41
0.95	0.4999	366.44	0.41
0.95	0.4499	363.55	0.41
0.95	0.4002	361.5	0.41
0.95	0.2999	358.1	0.41
0.9501	0.2	356.55	0.41
0.95	0.1	354.94	0.41
0.9499	0.0494	354.61	0.41
