Measured thermophysical data. Thermodynamic study of (alkyl esters + alpha,omega-alkyl dihalides) IV: Hex and Vex for 25 binary mixtures {xC(u-1)H(2u-1)CO2CH3 + (1-x)alpha,omega-BrCH2(CH2)(v-2)CH2Br}, where u = 1 to 5, alpha = 1 and v = omega = 2 to 6
Source: J. Chem. Thermodyn., 2007, 10.1016/j.jct.2006.05.004
Compound 1: methyl methanoate, C2H4O2, InChI=1S/C2H4O2/c1-4-2-3/h2H,1H3
Compound 2: methyl ethanoate, C3H6O2, InChI=1S/C3H6O2/c1-3(4)5-2/h1-2H3, purity 99%
Compound 3: methyl propanoate, C4H8O2, InChI=1S/C4H8O2/c1-3-4(5)6-2/h3H2,1-2H3, purity 99%
Compound 4: methyl butanoate, C5H10O2, InChI=1S/C5H10O2/c1-3-4-5(6)7-2/h3-4H2,1-2H3, purity 99%
Compound 5: methyl pentanoate, C6H12O2, InChI=1S/C6H12O2/c1-3-4-5-6(7)8-2/h3-5H2,1-2H3, purity 99%
Compound 6: 1,2-dibromoethane, C2H4Br2, InChI=1S/C2H4Br2/c3-1-2-4/h1-2H2, purity 98%
Compound 7: 1,3-dibromopropane, C3H6Br2, InChI=1S/C3H6Br2/c4-2-1-3-5/h1-3H2, purity 98%
Compound 8: 1,4-dibromobutane, C4H8Br2, InChI=1S/C4H8Br2/c5-3-1-2-4-6/h1-4H2, purity 98%
Compound 9: 1,5-dibromopentane, C5H10Br2, InChI=1S/C5H10Br2/c6-4-2-1-3-5-7/h1-5H2, purity 98%
Compound 10: 1,6-dibromohexane, C6H12Br2, InChI=1S/C6H12Br2/c7-5-3-1-2-4-6-8/h1-6H2, purity 98%

System: methyl methanoate; phases: Liquid
Property: Refractive index (Na D-line) (Liquid); method: Standard Abbe refractometry
Temperature, K	Pressure, kPa	Refractive index (Na D-line)	uncertainty
298.15	101.325	1.3415	0.0008

System: methyl methanoate; phases: Liquid
Property: Mass density, kg/m3 (Liquid); method: VIBTUB:UFactor:8
Temperature, K	Pressure, kPa	Mass density, kg/m3	uncertainty
298.15	101.325	966.83	0.7

System: methyl ethanoate; phases: Liquid
Property: Refractive index (Na D-line) (Liquid); method: Standard Abbe refractometry
Temperature, K	Pressure, kPa	Refractive index (Na D-line)	uncertainty
298.15	101.325	1.3585	0.0008

System: methyl ethanoate; phases: Liquid
Property: Mass density, kg/m3 (Liquid); method: VIBTUB:UFactor:8
Temperature, K	Pressure, kPa	Mass density, kg/m3	uncertainty
298.15	101.325	926.73	0.84

System: methyl propanoate; phases: Liquid
Property: Refractive index (Na D-line) (Liquid); method: Standard Abbe refractometry
Temperature, K	Pressure, kPa	Refractive index (Na D-line)	uncertainty
298.15	101.325	1.374	0.0008

System: methyl propanoate; phases: Liquid
Property: Mass density, kg/m3 (Liquid); method: VIBTUB:UFactor:8
Temperature, K	Pressure, kPa	Mass density, kg/m3	uncertainty
298.15	101.325	910.18	0.9

System: methyl butanoate; phases: Liquid
Property: Refractive index (Na D-line) (Liquid); method: Standard Abbe refractometry
Temperature, K	Pressure, kPa	Refractive index (Na D-line)	uncertainty
298.15	101.325	1.386	0.0008

System: methyl butanoate; phases: Liquid
Property: Mass density, kg/m3 (Liquid); method: VIBTUB:UFactor:8
Temperature, K	Pressure, kPa	Mass density, kg/m3	uncertainty
298.15	101.325	892.42	0.97

System: methyl pentanoate; phases: Liquid
Property: Refractive index (Na D-line) (Liquid); method: Standard Abbe refractometry
Temperature, K	Pressure, kPa	Refractive index (Na D-line)	uncertainty
298.15	101.325	1.395	0.0008

System: methyl pentanoate; phases: Liquid
Property: Mass density, kg/m3 (Liquid); method: VIBTUB:UFactor:8
Temperature, K	Pressure, kPa	Mass density, kg/m3	uncertainty
298.15	101.325	884.59	1

System: 1,2-dibromoethane + methyl methanoate; phases: Liquid
Fixed: Temperature, K = 298.15
Fixed: Pressure, kPa = 101
Property: Excess molar enthalpy (molar enthalpy of mixing), kJ/mol (Liquid); method: CALVET:UFactor:2
Mole fraction of methyl methanoate	Excess molar enthalpy (molar enthalpy of mixing), kJ/mol	uncertainty
0.0726	0.2349	0.0053
0.1528	0.4701	0.0089
0.2426	0.653	0.0117
0.3298	0.7485	0.0132
0.4034	0.7953	0.0139
0.4719	0.8123	0.0141
0.5315	0.8022	0.014
0.5856	0.7735	0.0135
0.6347	0.7321	0.0129
0.6786	0.6812	0.0121
0.7171	0.6266	0.0113
0.7759	0.5309	0.0098
0.8639	0.3554	0.0071
0.9405	0.1715	0.0043

System: 1,2-dibromoethane + methyl methanoate; phases: Liquid
Fixed: Temperature, K = 298.15
Fixed: Pressure, kPa = 101
Property: Mass density, kg/m3 (Liquid); method: VIBTUB:UFactor:8
Mole fraction of methyl methanoate	Mass density, kg/m3	uncertainty
0.0941	2084.41	8.82
0.1513	2030.58	8.16
0.2019	1980.75	7.6
0.251	1931.96	7.07
0.2967	1881.94	6.57
0.3904	1784.54	5.65
0.4985	1662.03	4.64
0.5973	1543.27	3.77
0.7057	1404.1	2.87
0.7483	1346.2	2.53
0.7967	1278.68	2.15
0.8478	1205.01	1.77
0.8808	1155.98	1.53
0.9402	1064.28	1.12

System: methyl methanoate + 1,3-dibromopropane; phases: Liquid
Fixed: Temperature, K = 298.15
Fixed: Pressure, kPa = 101
Property: Excess molar enthalpy (molar enthalpy of mixing), kJ/mol (Liquid); method: CALVET:UFactor:2
Mole fraction of methyl methanoate	Excess molar enthalpy (molar enthalpy of mixing), kJ/mol	uncertainty
0.0766	0.3038	0.0064
0.1698	0.5696	0.0104
0.2646	0.7435	0.0131
0.3543	0.853	0.0148
0.4503	0.915	0.0157
0.5147	0.9249	0.0159
0.5752	0.9037	0.0156
0.6318	0.8624	0.0149
0.6814	0.8029	0.014
0.7238	0.7357	0.013
0.7605	0.6669	0.0119
0.8277	0.5126	0.0095
0.8783	0.3884	0.0076
0.9299	0.2483	0.0055

System: methyl methanoate + 1,3-dibromopropane; phases: Liquid
Fixed: Temperature, K = 298.15
Fixed: Pressure, kPa = 101
Property: Mass density, kg/m3 (Liquid); method: VIBTUB:UFactor:8
Mole fraction of methyl methanoate	Mass density, kg/m3	uncertainty
0.168	1858.59	6.82
0.2514	1796.92	6.12
0.3294	1735.49	5.49
0.4017	1674.57	4.92
0.4684	1614.73	4.41
0.5278	1558.51	3.97
0.591	1495.15	3.5
0.6438	1439.24	3.12
0.7014	1374.75	2.71
0.7953	1261.18	2.05
0.8394	1203.31	1.75
0.8849	1141.17	1.45
0.9258	1082.23	1.18

System: methyl methanoate + 1,4-dibromobutane; phases: Liquid
Fixed: Temperature, K = 298.15
Fixed: Pressure, kPa = 101
Property: Excess molar enthalpy (molar enthalpy of mixing), kJ/mol (Liquid); method: CALVET:UFactor:2
Mole fraction of methyl methanoate	Excess molar enthalpy (molar enthalpy of mixing), kJ/mol	uncertainty
0.1163	0.3949	0.0077
0.2218	0.6355	0.0114
0.3327	0.8586	0.0149
0.4395	0.9849	0.0168
0.518	1.0243	0.0174
0.581	1.0147	0.0173
0.5984	1.0078	0.0172
0.6591	0.9447	0.0162
0.7346	0.8185	0.0143
0.8107	0.6485	0.0116
0.8851	0.4337	0.0084
0.9503	0.2099	0.005

System: methyl methanoate + 1,4-dibromobutane; phases: Liquid
Fixed: Temperature, K = 298.15
Fixed: Pressure, kPa = 101
Property: Mass density, kg/m3 (Liquid); method: VIBTUB:UFactor:8
Mole fraction of methyl methanoate	Mass density, kg/m3	uncertainty
0.0901	1776.76	6.47
0.1948	1721.83	5.76
0.283	1670.26	5.18
0.3632	1619.15	4.66
0.4351	1569.44	4.2
0.5042	1517.68	3.77
0.5678	1466.2	3.37
0.6267	1414.75	3.01
0.6804	1364.36	2.68
0.7742	1267.13	2.08
0.8172	1217.73	1.82
0.8611	1164.21	1.54
0.8985	1115.55	1.32
0.937	1062.14	1.09
0.9687	1015.8	0.92

System: methyl methanoate + 1,5-dibromopentane; phases: Liquid
Fixed: Temperature, K = 298.15
Fixed: Pressure, kPa = 101
Property: Excess molar enthalpy (molar enthalpy of mixing), kJ/mol (Liquid); method: CALVET:UFactor:2
Mole fraction of methyl methanoate	Excess molar enthalpy (molar enthalpy of mixing), kJ/mol	uncertainty
0.1086	0.4215	0.0081
0.2259	0.7298	0.0129
0.336	0.9486	0.0163
0.4363	1.0665	0.0181
0.5163	1.1095	0.0187
0.5848	1.104	0.0187
0.64	1.0639	0.018
0.6892	1.0101	0.0172
0.7311	0.9403	0.0161
0.7667	0.8652	0.015
0.8146	0.7541	0.0133
0.8709	0.5869	0.0107
0.9225	0.3911	0.0078
0.9675	0.1926	0.0049

System: methyl methanoate + 1,5-dibromopentane; phases: Liquid
Fixed: Temperature, K = 298.15
Fixed: Pressure, kPa = 101
Property: Mass density, kg/m3 (Liquid); method: VIBTUB:UFactor:8
Mole fraction of methyl methanoate	Mass density, kg/m3	uncertainty
0.1109	1653.22	5.51
0.2235	1607	4.9
0.3094	1567.09	4.45
0.3956	1522.56	3.99
0.4606	1485.39	3.65
0.5307	1441.42	3.29
0.5985	1394.16	2.93
0.6548	1350.94	2.63
0.7035	1310.4	2.36
0.753	1265.54	2.09
0.7889	1230.37	1.89
0.8347	1181.99	1.63
0.9065	1097.57	1.22
0.9653	1017.86	0.91
0.9733	1006.52	0.87

System: methyl methanoate + 1,6-dibromohexane; phases: Liquid
Fixed: Temperature, K = 298.15
Fixed: Pressure, kPa = 101
Property: Excess molar enthalpy (molar enthalpy of mixing), kJ/mol (Liquid); method: CALVET:UFactor:2
Mole fraction of methyl methanoate	Excess molar enthalpy (molar enthalpy of mixing), kJ/mol	uncertainty
0.099	0.3811	0.0075
0.2052	0.6953	0.0124
0.3188	0.9655	0.0165
0.4099	1.0897	0.0184
0.4481	1.129	0.019
0.5059	1.1626	0.0196
0.5777	1.1611	0.0195
0.6385	1.1201	0.0189
0.69	1.0556	0.0179
0.7201	1.0073	0.0172
0.7507	0.9482	0.0163
0.7946	0.8511	0.0148
0.8411	0.7057	0.0126
0.9115	0.4507	0.0087
0.9775	0.1402	0.0042

System: methyl methanoate + 1,6-dibromohexane; phases: Liquid
Fixed: Temperature, K = 298.15
Fixed: Pressure, kPa = 101
Property: Mass density, kg/m3 (Liquid); method: VIBTUB:UFactor:8
Mole fraction of methyl methanoate	Mass density, kg/m3	uncertainty
0.0951	1574.69	5
0.1373	1561.81	4.8
0.18	1547.9	4.61
0.2331	1529.55	4.37
0.3709	1475.52	3.75
0.4924	1417.67	3.21
0.5984	1357.11	2.72
0.6952	1290.94	2.27
0.799	1204.62	1.74
0.8251	1179.95	1.62
0.9038	1095.21	1.2
0.9183	1078.3	1.13
0.9504	1037.23	0.97
0.9718	1007.96	0.87

System: methyl ethanoate + 1,2-dibromoethane; phases: Liquid
Fixed: Temperature, K = 298.15
Fixed: Pressure, kPa = 101
Property: Excess molar enthalpy (molar enthalpy of mixing), kJ/mol (Liquid); method: CALVET:UFactor:2
Mole fraction of methyl ethanoate	Excess molar enthalpy (molar enthalpy of mixing), kJ/mol	uncertainty
0.0678	0.0977	0.0031
0.1329	0.1667	0.0042
0.2086	0.2253	0.005
0.2791	0.2594	0.0056
0.3449	0.2793	0.0059
0.4079	0.284	0.006
0.4651	0.2744	0.0058
0.5145	0.2577	0.0055
0.5219	0.2537	0.0055
0.559	0.2376	0.0052
0.5731	0.2301	0.0051
0.6281	0.1994	0.0046
0.6875	0.1606	0.004
0.7492	0.1202	0.0034
0.8149	0.087	0.0029
0.8808	0.0509	0.0023
0.9429	0.0264	0.002

System: methyl ethanoate + 1,2-dibromoethane; phases: Liquid
Fixed: Temperature, K = 298.15
Fixed: Pressure, kPa = 101
Property: Mass density, kg/m3 (Liquid); method: VIBTUB:UFactor:8
Mole fraction of methyl ethanoate	Mass density, kg/m3	uncertainty
0.0644	2093.03	9.03
0.1265	2019.85	8.19
0.186	1949.51	7.43
0.2463	1877.44	6.71
0.3093	1801.67	5.99
0.3675	1731.26	5.38
0.4309	1653.78	4.74
0.4879	1583.49	4.2
0.5507	1505.69	3.64
0.6003	1443.71	3.22
0.7248	1286.24	2.25
0.7776	1218.54	1.87
0.8338	1146.14	1.49
0.8868	1076.96	1.16
0.9443	1001.13	0.84

System: methyl ethanoate + 1,3-dibromopropane; phases: Liquid
Fixed: Temperature, K = 298.15
Fixed: Pressure, kPa = 101
Property: Excess molar enthalpy (molar enthalpy of mixing), kJ/mol (Liquid); method: CALVET:UFactor:2
Mole fraction of methyl ethanoate	Excess molar enthalpy (molar enthalpy of mixing), kJ/mol	uncertainty
0.08	0.1423	0.0038
0.1613	0.2336	0.0052
0.2406	0.313	0.0064
0.3177	0.3626	0.0072
0.3862	0.3809	0.0075
0.4435	0.3909	0.0076
0.4958	0.3912	0.0076
0.5468	0.3739	0.0073
0.5909	0.3505	0.007
0.6336	0.3264	0.0066
0.6509	0.3127	0.0064
0.6702	0.3021	0.0062
0.7094	0.2625	0.0056
0.7687	0.2115	0.0048
0.8316	0.1527	0.0039
0.8928	0.0957	0.0031
0.9501	0.0467	0.0023

System: methyl ethanoate + 1,3-dibromopropane; phases: Liquid
Fixed: Temperature, K = 298.15
Fixed: Pressure, kPa = 101
Property: Mass density, kg/m3 (Liquid); method: VIBTUB:UFactor:8
Mole fraction of methyl ethanoate	Mass density, kg/m3	uncertainty
0.0821	1900.75	7.44
0.1456	1845.13	6.8
0.2131	1784.87	6.15
0.2862	1717.43	5.49
0.3503	1656.68	4.93
0.412	1596.53	4.42
0.4744	1533.88	3.93
0.535	1471.53	3.47
0.5898	1413.65	3.06
0.6476	1350.9	2.65
0.7027	1289.26	2.27
0.7565	1227.76	1.92
0.8086	1166.64	1.59
0.8558	1109.89	1.3
0.905	1048.62	1.02
0.9514	989.83	0.85

System: methyl ethanoate + 1,4-dibromobutane; phases: Liquid
Fixed: Temperature, K = 298.15
Fixed: Pressure, kPa = 101
Property: Excess molar enthalpy (molar enthalpy of mixing), kJ/mol (Liquid); method: CALVET:UFactor:2
Mole fraction of methyl ethanoate	Excess molar enthalpy (molar enthalpy of mixing), kJ/mol	uncertainty
0.0848	0.1807	0.0044
0.1755	0.3102	0.0064
0.2635	0.3996	0.0077
0.3449	0.4561	0.0086
0.4161	0.4867	0.0091
0.4816	0.4933	0.0092
0.5389	0.4796	0.009
0.5872	0.4557	0.0086
0.6316	0.429	0.0082
0.6695	0.399	0.0077
0.7038	0.3725	0.0073
0.755	0.3194	0.0065
0.8095	0.2595	0.0056
0.8632	0.1924	0.0046
0.9128	0.1324	0.0036
0.9584	0.0622	0.0026

System: methyl ethanoate + 1,4-dibromobutane; phases: Liquid
Fixed: Temperature, K = 298.15
Fixed: Pressure, kPa = 101
Property: Mass density, kg/m3 (Liquid); method: VIBTUB:UFactor:8
Mole fraction of methyl ethanoate	Mass density, kg/m3	uncertainty
0.0837	1770.14	6.44
0.1689	1713.04	5.77
0.2373	1664.79	5.26
0.3235	1601.13	4.64
0.3783	1558.38	4.25
0.4433	1505.87	3.81
0.5073	1451.51	3.39
0.5682	1397.42	3
0.6216	1347.79	2.66
0.6771	1293.95	2.32
0.7431	1226.93	1.92
0.8273	1135.92	1.42
0.9151	1033.42	0.94
0.9603	977.5	0.87

System: methyl ethanoate + 1,5-dibromopentane; phases: Liquid
Fixed: Temperature, K = 298.15
Fixed: Pressure, kPa = 101
Property: Excess molar enthalpy (molar enthalpy of mixing), kJ/mol (Liquid); method: CALVET:UFactor:2
Mole fraction of methyl ethanoate	Excess molar enthalpy (molar enthalpy of mixing), kJ/mol	uncertainty
0.1045	0.2241	0.0051
0.2048	0.3706	0.0073
0.2959	0.4826	0.009
0.3795	0.546	0.01
0.454	0.5742	0.0104
0.5171	0.5739	0.0104
0.5731	0.5567	0.0102
0.622	0.5325	0.0098
0.685	0.4867	0.0091
0.7322	0.4293	0.0082
0.7812	0.3738	0.0074
0.8296	0.3073	0.0063
0.874	0.2448	0.0054
0.9245	0.1614	0.0041
0.9655	0.0723	0.0028

System: methyl ethanoate + 1,5-dibromopentane; phases: Liquid
Fixed: Temperature, K = 298.15
Fixed: Pressure, kPa = 101
Property: Mass density, kg/m3 (Liquid); method: VIBTUB:UFactor:8
Mole fraction of methyl ethanoate	Mass density, kg/m3	uncertainty
0.0956	1647.08	5.51
0.1844	1601.35	4.96
0.2647	1557.01	4.48
0.3394	1512.51	4.05
0.4752	1423.41	3.27
0.5958	1333.86	2.61
0.6582	1282.77	2.27
0.7059	1241.33	2.01
0.7548	1196.56	1.75
0.8019	1150.87	1.5
0.8486	1102.92	1.25
0.8874	1060.93	1.05
0.9243	1019.18	0.88
0.9638	972.17	0.87

System: methyl ethanoate + 1,6-dibromohexane; phases: Liquid
Fixed: Temperature, K = 298.15
Fixed: Pressure, kPa = 101
Property: Excess molar enthalpy (molar enthalpy of mixing), kJ/mol (Liquid); method: CALVET:UFactor:2
Mole fraction of methyl ethanoate	Excess molar enthalpy (molar enthalpy of mixing), kJ/mol	uncertainty
0.1165	0.2637	0.0057
0.2329	0.4361	0.0083
0.317	0.5441	0.01
0.4064	0.6192	0.0111
0.4865	0.6519	0.0116
0.553	0.6509	0.0116
0.6074	0.6323	0.0113
0.6546	0.6001	0.0109
0.6988	0.5629	0.0103
0.7443	0.5193	0.0096
0.7905	0.4525	0.0086
0.837	0.3718	0.0073
0.8808	0.2931	0.0062
0.9257	0.1772	0.0044
0.9683	0.0857	0.003

System: methyl ethanoate + 1,6-dibromohexane; phases: Liquid
Fixed: Temperature, K = 298.15
Fixed: Pressure, kPa = 101
Property: Mass density, kg/m3 (Liquid); method: VIBTUB:UFactor:8
Mole fraction of methyl ethanoate	Mass density, kg/m3	uncertainty
0.2073	1527.77	4.42
0.2887	1489.28	4
0.368	1448.7	3.6
0.44	1408.44	3.24
0.5134	1363.84	2.88
0.5691	1327.2	2.6
0.6301	1284.18	2.3
0.7305	1205.44	1.8
0.7765	1165.56	1.58
0.8189	1126.42	1.37
0.8614	1084.46	1.16
0.8974	1046.81	0.99
0.9345	1005.74	0.82
0.9663	968.1	0.88

System: 1,2-dibromoethane + methyl propanoate; phases: Liquid
Fixed: Temperature, K = 298.15
Fixed: Pressure, kPa = 101
Property: Excess molar enthalpy (molar enthalpy of mixing), kJ/mol (Liquid); method: CALVET:UFactor:4
Mole fraction of 1,2-dibromoethane	Excess molar enthalpy (molar enthalpy of mixing), kJ/mol	uncertainty
0.0552	0.0448	0.0045
0.1177	0.0696	0.0053
0.18	0.0864	0.0058
0.2446	0.09	0.0059
0.3072	0.0851	0.0057
0.3659	0.075	0.0054
0.4203	0.059	0.0049
0.4702	0.0393	0.0044
0.4789	0.0275	0.004
0.5086	0.0195	0.0037
0.5255	0.0103	0.0034
0.5837	-0.0105	0.0034
0.6456	-0.0215	0.0038
0.7119	-0.0257	0.0039
0.7852	-0.0281	0.004
0.8597	-0.0229	0.0038
0.9321	-0.012	0.0035

System: 1,2-dibromoethane + methyl propanoate; phases: Liquid
Fixed: Temperature, K = 298.15
Fixed: Pressure, kPa = 101
Property: Mass density, kg/m3 (Liquid); method: VIBTUB:UFactor:8
Mole fraction of methyl propanoate	Mass density, kg/m3	uncertainty
0.0544	2090.48	9.06
0.1086	2015.14	8.23
0.1617	1942.18	7.47
0.213	1872.81	6.79
0.2714	1794.99	6.06
0.3254	1724.12	5.44
0.4447	1570.72	4.21
0.5056	1494.18	3.65
0.561	1425.55	3.18
0.6166	1357.57	2.73
0.6838	1276.41	2.24
0.743	1205.94	1.83
0.8086	1129	1.41
0.8715	1056.36	1.05
0.9358	982.68	0.84

System: 1,3-dibromopropane + methyl propanoate; phases: Liquid
Fixed: Temperature, K = 298.15
Fixed: Pressure, kPa = 101
Property: Excess molar enthalpy (molar enthalpy of mixing), kJ/mol (Liquid); method: CALVET:UFactor:4
Mole fraction of methyl propanoate	Excess molar enthalpy (molar enthalpy of mixing), kJ/mol	uncertainty
0.0646	0.0699	0.0053
0.1354	0.1141	0.0066
0.2107	0.1416	0.0075
0.2845	0.1547	0.0079
0.3517	0.1529	0.0078
0.4137	0.1406	0.0075
0.4627	0.1254	0.007
0.4703	0.1226	0.0069
0.5077	0.1106	0.0065
0.5202	0.1032	0.0063
0.5574	0.0929	0.006
0.566	0.0847	0.0057
0.6073	0.0653	0.0052
0.6129	0.0576	0.0049
0.6726	0.0311	0.0041
0.7385	0.0021	0.0032
0.8065	-0.0135	0.0035
0.873	-0.0147	0.0036
0.9388	-0.009	0.0034

System: 1,3-dibromopropane + methyl propanoate; phases: Liquid
Fixed: Temperature, K = 298.15
Fixed: Pressure, kPa = 101
Property: Mass density, kg/m3 (Liquid); method: VIBTUB:UFactor:8
Mole fraction of methyl propanoate	Mass density, kg/m3	uncertainty
0.059	1909.4	7.59
0.1261	1841.06	6.84
0.1889	1776.8	6.17
0.243	1720.78	5.63
0.3657	1593.37	4.51
0.4328	1523.29	3.94
0.4901	1462.96	3.49
0.5464	1403.57	3.07
0.6165	1328.98	2.57
0.7214	1216.43	1.89
0.7712	1162.65	1.59
0.8235	1105.81	1.29
0.8863	1037.06	0.96
0.9375	980.57	0.84

System: 1,4-dibromobutane + methyl propanoate; phases: Liquid
Fixed: Temperature, K = 298.15
Fixed: Pressure, kPa = 101
Property: Excess molar enthalpy (molar enthalpy of mixing), kJ/mol (Liquid); method: CALVET:UFactor:4
Mole fraction of methyl propanoate	Excess molar enthalpy (molar enthalpy of mixing), kJ/mol	uncertainty
0.074	0.0916	0.0059
0.1513	0.1533	0.0079
0.2294	0.192	0.0091
0.305	0.2073	0.0095
0.3744	0.2066	0.0095
0.4375	0.196	0.0092
0.4948	0.1792	0.0087
0.546	0.158	0.008
0.5911	0.1368	0.0073
0.6302	0.1147	0.0067
0.6539	0.1026	0.0063
0.665	0.1024	0.0063
0.6965	0.0757	0.0055
0.712	0.067	0.0052
0.7721	0.0351	0.0042
0.8331	0.0178	0.0037
0.8921	0.0095	0.0034
0.9477	0.004	0.0032

System: 1,4-dibromobutane + methyl propanoate; phases: Liquid
Fixed: Temperature, K = 298.15
Fixed: Pressure, kPa = 101
Property: Mass density, kg/m3 (Liquid); method: VIBTUB:UFactor:8
Mole fraction of methyl propanoate	Mass density, kg/m3	uncertainty
0.0733	1763.63	6.43
0.1392	1712.4	5.86
0.2065	1658.81	5.3
0.2725	1604.96	4.78
0.3378	1550.31	4.29
0.3974	1499.32	3.86
0.4596	1444.8	3.43
0.5225	1388.41	3.01
0.638	1281.23	2.29
0.6944	1227.08	1.96
0.7466	1175.87	1.66
0.7998	1122.53	1.37
0.8489	1072.14	1.11
0.8998	1018.87	0.87
0.9505	964.61	0.87

System: 1,5-dibromopentane + methyl propanoate; phases: Liquid
Fixed: Temperature, K = 298.15
Fixed: Pressure, kPa = 101
Property: Excess molar enthalpy (molar enthalpy of mixing), kJ/mol (Liquid); method: CALVET:UFactor:2
Mole fraction of methyl propanoate	Excess molar enthalpy (molar enthalpy of mixing), kJ/mol	uncertainty
0.0808	0.1184	0.0034
0.1674	0.1912	0.0045
0.2542	0.2474	0.0054
0.3326	0.2754	0.0058
0.4065	0.2844	0.006
0.4708	0.2792	0.0059
0.4974	0.2722	0.0058
0.5293	0.2629	0.0056
0.5381	0.2599	0.0056
0.5791	0.2402	0.0053
0.584	0.2353	0.0052
0.6329	0.2131	0.0049
0.6845	0.1811	0.0044
0.7383	0.1532	0.0039
0.7938	0.1188	0.0034
0.8494	0.0847	0.0029
0.9053	0.0468	0.0023
0.955	0.0218	0.0019

System: 1,5-dibromopentane + methyl propanoate; phases: Liquid
Fixed: Temperature, K = 298.15
Fixed: Pressure, kPa = 101
Property: Mass density, kg/m3 (Liquid); method: VIBTUB:UFactor:8
Mole fraction of methyl propanoate	Mass density, kg/m3	uncertainty
0.0841	1644.47	5.52
0.1537	1602.6	5.05
0.1671	1594.29	4.96
0.2971	1510.79	4.12
0.3661	1463.62	3.7
0.4312	1417.3	3.31
0.4903	1373.47	2.97
0.609	1280.2	2.31
0.6628	1235.27	2.02
0.716	1189.3	1.74
0.8143	1099.41	1.24
0.864	1051.37	1.01
0.9561	957.37	0.88

System: methyl propanoate + 1,6-dibromohexane; phases: Liquid
Fixed: Temperature, K = 298.15
Fixed: Pressure, kPa = 101
Property: Excess molar enthalpy (molar enthalpy of mixing), kJ/mol (Liquid); method: CALVET:UFactor:2
Mole fraction of methyl propanoate	Excess molar enthalpy (molar enthalpy of mixing), kJ/mol	uncertainty
0.0951	0.1488	0.0039
0.1915	0.2394	0.0053
0.2814	0.3042	0.0063
0.3659	0.3422	0.0069
0.4423	0.3589	0.0071
0.5073	0.3534	0.007
0.5644	0.3386	0.0068
0.6136	0.3179	0.0065
0.6648	0.2802	0.0059
0.7136	0.2462	0.0054
0.7663	0.2043	0.0047
0.817	0.1662	0.0041
0.8647	0.1287	0.0036
0.9137	0.0864	0.0029
0.9606	0.0432	0.0023

System: methyl propanoate + 1,6-dibromohexane; phases: Liquid
Fixed: Temperature, K = 298.15
Fixed: Pressure, kPa = 101
Property: Mass density, kg/m3 (Liquid); method: VIBTUB:UFactor:8
Mole fraction of methyl propanoate	Mass density, kg/m3	uncertainty
0.0903	1557.49	4.89
0.1731	1517.27	4.42
0.254	1475.55	3.98
0.3276	1435.11	3.59
0.3987	1393.7	3.22
0.4603	1355.72	2.91
0.5254	1313.37	2.59
0.5807	1275.39	2.31
0.6388	1233.34	2.03
0.695	1190.53	1.76
0.7429	1152.05	1.53
0.7914	1111.32	1.31
0.838	1070.17	1.09
0.8789	1032.36	0.91
0.9195	993.3	0.79
0.9621	950.1	0.9

System: 1,2-dibromoethane + methyl butanoate; phases: Liquid
Fixed: Temperature, K = 298.15
Fixed: Pressure, kPa = 101
Property: Excess molar enthalpy (molar enthalpy of mixing), kJ/mol (Liquid); method: CALVET:UFactor:2
Mole fraction of methyl butanoate	Excess molar enthalpy (molar enthalpy of mixing), kJ/mol	uncertainty
0.0509	0.0205	0.0019
0.1042	0.0323	0.0021
0.1621	0.0359	0.0021
0.2266	0.0313	0.002
0.2928	0.0175	0.0018
0.3635	-0.0036	0.0016
0.4243	-0.0281	0.002
0.4796	-0.0481	0.0023
0.537	-0.0618	0.0025
0.6008	-0.0691	0.0026
0.6755	-0.0704	0.0026
0.7537	-0.0638	0.0025
0.8373	-0.0493	0.0023
0.9188	-0.0296	0.002

System: 1,2-dibromoethane + methyl butanoate; phases: Liquid
Fixed: Temperature, K = 298.15
Fixed: Pressure, kPa = 101
Property: Mass density, kg/m3 (Liquid); method: VIBTUB:UFactor:8
Mole fraction of methyl butanoate	Mass density, kg/m3	uncertainty
0.0456	2090.91	9.11
0.0934	2013.52	8.28
0.138	1943.4	7.57
0.1885	1866.04	6.82
0.2437	1784.45	6.08
0.2925	1714.77	5.47
0.3454	1641.47	4.87
0.4047	1562.1	4.24
0.5193	1415.94	3.19
0.5812	1340.87	2.69
0.6461	1264.87	2.21
0.7118	1190.49	1.77
0.7767	1119.58	1.38
0.8458	1046.47	1.01
0.9209	970.06	0.86

System: 1,3-dibromopropane + methyl butanoate; phases: Liquid
Fixed: Temperature, K = 298.15
Fixed: Pressure, kPa = 101
Property: Excess molar enthalpy (molar enthalpy of mixing), kJ/mol (Liquid); method: CALVET:UFactor:4
Mole fraction of methyl butanoate	Excess molar enthalpy (molar enthalpy of mixing), kJ/mol	uncertainty
0.0571	0.033	0.0041
0.1319	0.0568	0.0049
0.2164	0.07	0.0053
0.3018	0.0682	0.0052
0.3823	0.0527	0.0047
0.4559	0.0283	0.004
0.5207	-0.0008	0.0031
0.5371	-0.0136	0.0035
0.5718	-0.0228	0.0038
0.6497	-0.0409	0.0044
0.7433	-0.0455	0.0045
0.8389	-0.04	0.0043
0.9316	-0.0214	0.0038

System: 1,3-dibromopropane + methyl butanoate; phases: Liquid
Fixed: Temperature, K = 298.15
Fixed: Pressure, kPa = 101
Property: Mass density, kg/m3 (Liquid); method: VIBTUB:UFactor:8
Mole fraction of methyl butanoate	Mass density, kg/m3	uncertainty
0.0527	1904.53	7.58
0.1033	1844.63	6.94
0.1625	1775.48	6.25
0.2135	1716.63	5.69
0.268	1654.61	5.13
0.3273	1588.07	4.56
0.3844	1524.77	4.05
0.4397	1464.34	3.59
0.4966	1402.92	3.14
0.5597	1335.77	2.68
0.6194	1273.09	2.28
0.6773	1213.28	1.91
0.7401	1149.07	1.54
0.8089	1079.72	1.17
0.8623	1026.6	0.9
0.9397	950.76	0.9

System: 1,4-dibromobutane + methyl butanoate; phases: Liquid
Fixed: Temperature, K = 298.15
Fixed: Pressure, kPa = 101
Property: Excess molar enthalpy (molar enthalpy of mixing), kJ/mol (Liquid); method: CALVET:UFactor:2
Mole fraction of methyl butanoate	Excess molar enthalpy (molar enthalpy of mixing), kJ/mol	uncertainty
0.0662	0.0466	0.0023
0.1525	0.0794	0.0028
0.2456	0.0972	0.0031
0.3392	0.0973	0.0031
0.4222	0.0795	0.0028
0.4708	0.0651	0.0026
0.5515	0.0311	0.002
0.6276	0.0026	0.0016
0.6882	-0.0153	0.0018
0.7845	-0.0226	0.0019
0.8702	-0.0189	0.0018
0.9455	-0.0107	0.0017

System: 1,4-dibromobutane + methyl butanoate; phases: Liquid
Fixed: Temperature, K = 298.15
Fixed: Pressure, kPa = 101
Property: Mass density, kg/m3 (Liquid); method: VIBTUB:UFactor:8
Mole fraction of methyl butanoate	Mass density, kg/m3	uncertainty
0.121	1710.83	5.9
0.1809	1656.55	5.35
0.2384	1604.18	4.86
0.2953	1552.31	4.39
0.3601	1492.93	3.89
0.4182	1439.44	3.47
0.4848	1377.96	3.01
0.5382	1328.46	2.66
0.5989	1272	2.29
0.653	1221.36	1.97
0.7699	1111.48	1.33
0.8252	1059.19	1.06
0.8804	1006.8	0.81

System: 1,5-dibromopentane + methyl butanoate; phases: Liquid
Fixed: Temperature, K = 298.15
Fixed: Pressure, kPa = 101
Property: Excess molar enthalpy (molar enthalpy of mixing), kJ/mol (Liquid); method: CALVET:UFactor:2
Mole fraction of methyl butanoate	Excess molar enthalpy (molar enthalpy of mixing), kJ/mol	uncertainty
0.0788	0.0627	0.0025
0.1742	0.1061	0.0032
0.2762	0.1359	0.0037
0.374	0.1427	0.0038
0.461	0.1293	0.0036
0.5359	0.1041	0.0032
0.5693	0.0895	0.0029
0.6313	0.0637	0.0025
0.7089	0.0389	0.0022
0.7917	0.0215	0.0019
0.8725	0.0108	0.0017
0.946	0.0055	0.0016

System: 1,5-dibromopentane + methyl butanoate; phases: Liquid
Fixed: Temperature, K = 298.15
Fixed: Pressure, kPa = 101
Property: Mass density, kg/m3 (Liquid); method: VIBTUB:UFactor:8
Mole fraction of methyl butanoate	Mass density, kg/m3	uncertainty
0.0754	1642.8	5.54
0.1463	1593.12	5
0.2087	1548.48	4.55
0.2699	1503.86	4.13
0.3456	1447.37	3.64
0.454	1363.99	2.97
0.573	1268.9	2.29
0.6279	1223.66	2
0.6902	1171.2	1.67
0.7398	1128.65	1.43
0.7971	1078.54	1.16
0.8961	989.47	0.8
0.9526	937.22	0.93

System: methyl butanoate + 1,6-dibromohexane; phases: Liquid
Fixed: Temperature, K = 298.15
Fixed: Pressure, kPa = 101
Property: Excess molar enthalpy (molar enthalpy of mixing), kJ/mol (Liquid); method: CALVET:UFactor:2
Mole fraction of methyl butanoate	Excess molar enthalpy (molar enthalpy of mixing), kJ/mol	uncertainty
0.0838	0.0754	0.0027
0.1878	0.1291	0.0036
0.2949	0.1654	0.0041
0.3961	0.1771	0.0043
0.4591	0.1696	0.0042
0.5094	0.1601	0.004
0.5864	0.1376	0.0037
0.6566	0.1201	0.0034
0.734	0.097	0.0031
0.8128	0.072	0.0027
0.8885	0.0451	0.0023
0.9526	0.0164	0.0018

System: methyl butanoate + 1,6-dibromohexane; phases: Liquid
Fixed: Temperature, K = 298.15
Fixed: Pressure, kPa = 101
Property: Mass density, kg/m3 (Liquid); method: VIBTUB:UFactor:8
Mole fraction of methyl butanoate	Mass density, kg/m3	uncertainty
0.0254	1587.59	5.27
0.0833	1555.83	4.9
0.1606	1512	4.42
0.2243	1474.58	4.04
0.291	1434.05	3.65
0.3545	1394.06	3.3
0.4193	1351.87	2.95
0.5445	1265.85	2.31
0.6016	1224.52	2.02
0.6573	1182.86	1.76
0.7029	1147.73	1.54
0.7563	1105.29	1.3
0.8125	1059.12	1.05
0.9056	978.87	0.81

System: 1,2-dibromoethane + methyl pentanoate; phases: Liquid
Fixed: Temperature, K = 298.15
Fixed: Pressure, kPa = 101
Property: Excess molar enthalpy (molar enthalpy of mixing), kJ/mol (Liquid); method: CALVET:UFactor:2
Mole fraction of methyl pentanoate	Excess molar enthalpy (molar enthalpy of mixing), kJ/mol	uncertainty
0.0457	0.0093	0.0017
0.1054	0.0151	0.0018
0.1756	0.0121	0.0017
0.2495	-0.0032	0.0016
0.3112	-0.0247	0.0019
0.3523	-0.0428	0.0022
0.3893	-0.0588	0.0025
0.4631	-0.0768	0.0027
0.5105	-0.0861	0.0029
0.5845	-0.0906	0.003
0.6874	-0.0827	0.0028
0.7978	-0.0624	0.0025
0.9098	-0.0337	0.0021

System: 1,2-dibromoethane + methyl pentanoate; phases: Liquid
Fixed: Temperature, K = 298.15
Fixed: Pressure, kPa = 101
Property: Mass density, kg/m3 (Liquid); method: VIBTUB:UFactor:8
Mole fraction of methyl pentanoate	Mass density, kg/m3	uncertainty
0.0413	2086.33	9.1
0.0834	2009.4	8.3
0.1257	1934.54	7.56
0.1717	1857.45	6.82
0.2221	1776.23	6.09
0.2644	1711.22	5.53
0.3124	1640.62	4.94
0.3717	1557.38	4.28
0.4812	1414.72	3.24
0.5471	1335.17	2.7
0.6142	1258.34	2.21
0.6822	1184.61	1.77
0.755	1109.85	1.34
0.833	1033.97	0.95
0.9091	963.97	0.87

System: 1,3-dibromopropane + methyl pentanoate; phases: Liquid
Fixed: Temperature, K = 298.15
Fixed: Pressure, kPa = 101
Property: Excess molar enthalpy (molar enthalpy of mixing), kJ/mol (Liquid); method: CALVET:UFactor:2
Mole fraction of methyl pentanoate	Excess molar enthalpy (molar enthalpy of mixing), kJ/mol	uncertainty
0.0492	0.0239	0.0019
0.1163	0.0387	0.0022
0.1938	0.0407	0.0022
0.2736	0.0321	0.0021
0.338	0.0176	0.0018
0.41	-0.0099	0.0017
0.4582	-0.0311	0.002
0.4998	-0.047	0.0023
0.5481	-0.0609	0.0025
0.6786	-0.0662	0.0026
0.7994	-0.0551	0.0024
0.9065	-0.0355	0.0021

System: 1,3-dibromopropane + methyl pentanoate; phases: Liquid
Fixed: Temperature, K = 298.15
Fixed: Pressure, kPa = 101
Property: Mass density, kg/m3 (Liquid); method: VIBTUB:UFactor:8
Mole fraction of methyl pentanoate	Mass density, kg/m3	uncertainty
0.0534	1896.4	7.52
0.0937	1841.97	6.96
0.1477	1771.31	6.27
0.188	1720.07	5.78
0.2439	1650.83	5.16
0.2975	1586.35	4.62
0.3439	1532.03	4.18
0.4116	1455.16	3.58
0.4656	1395.81	3.15
0.5216	1335.88	2.73
0.5922	1262.69	2.25
0.6481	1206.41	1.9
0.7047	1151.1	1.57
0.7835	1076.35	1.16
0.8493	1016.07	0.85
0.9201	953.2	0.89

System: 1,4-dibromobutane + methyl pentanoate; phases: Liquid
Fixed: Temperature, K = 298.15
Fixed: Pressure, kPa = 101
Property: Excess molar enthalpy (molar enthalpy of mixing), kJ/mol (Liquid); method: CALVET:UFactor:2
Mole fraction of methyl pentanoate	Excess molar enthalpy (molar enthalpy of mixing), kJ/mol	uncertainty
0.0592	0.0339	0.0021
0.1366	0.0579	0.0025
0.2206	0.0724	0.0027
0.3061	0.0674	0.0026
0.3802	0.0521	0.0024
0.4461	0.0237	0.0019
0.4526	0.0188	0.0019
0.4992	-0.0052	0.0016
0.5566	-0.0287	0.002
0.6213	-0.0448	0.0022
0.6979	-0.0485	0.0023
0.7947	-0.0483	0.0023
0.9001	-0.0314	0.002

System: 1,4-dibromobutane + methyl pentanoate; phases: Liquid
Fixed: Temperature, K = 298.15
Fixed: Pressure, kPa = 101
Property: Mass density, kg/m3 (Liquid); method: VIBTUB:UFactor:8
Mole fraction of methyl pentanoate	Mass density, kg/m3	uncertainty
0.0627	1757.47	6.42
0.1071	1711.91	5.95
0.1637	1654.55	5.39
0.2171	1601.18	4.89
0.3252	1495.18	3.98
0.4423	1383.13	3.11
0.5031	1326.06	2.7
0.621	1217.29	1.98
0.6839	1160.44	1.63
0.7415	1108.9	1.34
0.8021	1055.26	1.05
0.9296	944.62	0.91

System: 1,5-dibromopentane + methyl pentanoate; phases: Liquid
Fixed: Temperature, K = 298.15
Fixed: Pressure, kPa = 101
Property: Excess molar enthalpy (molar enthalpy of mixing), kJ/mol (Liquid); method: CALVET:UFactor:4
Mole fraction of methyl pentanoate	Excess molar enthalpy (molar enthalpy of mixing), kJ/mol	uncertainty
0.0709	0.0462	0.0045
0.1603	0.0748	0.0054
0.2511	0.0848	0.0057
0.3436	0.0805	0.0056
0.4221	0.0659	0.0051
0.4895	0.0467	0.0046
0.5345	0.0255	0.0039
0.5389	0.0236	0.0038
0.5838	0.0077	0.0033
0.606	-0.0085	0.0034
0.6821	-0.0232	0.0038
0.7721	-0.0325	0.0041
0.8617	-0.0275	0.004
0.943	-0.0024	0.0032

System: 1,5-dibromopentane + methyl pentanoate; phases: Liquid
Fixed: Temperature, K = 298.15
Fixed: Pressure, kPa = 101
Property: Mass density, kg/m3 (Liquid); method: VIBTUB:UFactor:8
Mole fraction of methyl pentanoate	Mass density, kg/m3	uncertainty
0.0687	1640.97	5.54
0.1285	1593.96	5.05
0.1833	1550.6	4.63
0.2445	1501.98	4.18
0.3066	1452.48	3.74
0.4193	1362.14	3.01
0.4804	1312.78	2.65
0.5408	1263.86	2.31
0.601	1214.87	1.98
0.6553	1170.47	1.7
0.7137	1122.58	1.42
0.7698	1076.41	1.16
0.822	1033.27	0.93
0.8841	981.75	0.81

System: methyl pentanoate + 1,6-dibromohexane; phases: Liquid
Fixed: Temperature, K = 298.15
Fixed: Pressure, kPa = 101
Property: Excess molar enthalpy (molar enthalpy of mixing), kJ/mol (Liquid); method: CALVET:UFactor:2
Mole fraction of methyl pentanoate	Excess molar enthalpy (molar enthalpy of mixing), kJ/mol	uncertainty
0.0734	0.045	0.0023
0.1653	0.0758	0.0027
0.264	0.0903	0.003
0.3507	0.0949	0.003
0.418	0.0893	0.0029
0.4743	0.0782	0.0028
0.5227	0.0644	0.0026
0.5866	0.0437	0.0022
0.6386	0.0294	0.002
0.716	0.0105	0.0017
0.7966	0.0002	0.0016
0.879	-0.0033	0.0016
0.9483	-0.0005	0.0016

System: methyl pentanoate + 1,6-dibromohexane; phases: Liquid
Fixed: Temperature, K = 298.15
Fixed: Pressure, kPa = 101
Property: Mass density, kg/m3 (Liquid); method: VIBTUB:UFactor:8
Mole fraction of methyl pentanoate	Mass density, kg/m3	uncertainty
0.0703	1557.19	4.94
0.1394	1513.24	4.47
0.2633	1432.4	3.69
0.3222	1392.97	3.35
0.3842	1350.7	3
0.4472	1306.98	2.66
0.5076	1264.24	2.34
0.5698	1219.49	2.03
0.6817	1136.77	1.5
0.7372	1094.69	1.26
0.8445	1011.22	0.82
0.8993	967.47	0.84
0.945	930.4	0.93
