Measured thermophysical data. Volumetric properties of binary liquid-phase mixture of (water + glycerol) at temperatures of (278.15 to 323.15) K and pressures of (0.1 to 100) MPa
Source: J. Chem. Thermodyn., 2014, 10.1016/j.jct.2014.06.031
Compound 1: glycerol, C3H8O3, InChI=1S/C3H8O3/c4-1-3(6)2-5/h3-6H,1-2H2, purity 99.5%
Compound 2: water, H2O, InChI=1S/H2O/h1H2

System: glycerol; phases: Liquid
Fixed: Pressure, kPa = 101
Property: Mass density, kg/m3 (Liquid); method: Vibrating tube method
Temperature, K	Mass density, kg/m3	uncertainty
278.15	1270.87	1.02
288.15	1264.4	1.02
298.15	1257.91	1.02
308.15	1251.66	1.02
323.15	1242.11	1.02

System: glycerol; phases: Liquid
Property: Specific volume, m3/kg (Liquid); method: Constant-volume piezometry
Temperature, K	Pressure, kPa	Specific volume, m3/kg	uncertainty
278.15	10000	-0.00242	0.0002
288.15	10000	-0.00234	0.0002
298.15	10000	-0.00237	0.0002
308.15	10000	-0.00245	0.0002
323.15	10000	-0.0025	0.0002
278.15	25000	-0.00595	0.0002
288.15	25000	-0.00581	0.0002
298.15	25000	-0.00587	0.0002
308.15	25000	-0.00605	0.0002
323.15	25000	-0.00624	0.0002
278.15	50000	-0.01146	0.0002
288.15	50000	-0.01114	0.0002
298.15	50000	-0.01125	0.0002
308.15	50000	-0.01179	0.0002
323.15	50000	-0.01219	0.0002
278.15	75000	-0.01656	0.0002
288.15	75000	-0.01639	0.0002
298.15	75000	-0.01651	0.0002
308.15	75000	-0.01714	0.0002
323.15	75000	-0.01771	0.0002
278.15	100000	-0.02129	0.0002
288.15	100000	-0.02087	0.0002
298.15	100000	-0.02103	0.0002
308.15	100000	-0.02195	0.0002
323.15	100000	-0.02264	0.0002

System: water; phases: Liquid
Fixed: Pressure, kPa = 101
Property: Mass density, kg/m3 (Liquid); method: Vibrating tube method
Temperature, K	Mass density, kg/m3	uncertainty
278.15	999.96	1
288.15	999.09	1
298.15	997.04	1
308.15	994.03	1
323.15	988.03	1

System: water; phases: Liquid
Property: Specific volume, m3/kg (Liquid); method: Constant-volume piezometry
Temperature, K	Pressure, kPa	Specific volume, m3/kg	uncertainty
278.15	10000	-0.00479	0.0002
288.15	10000	-0.00456	0.0002
298.15	10000	-0.00442	0.0002
308.15	10000	-0.00434	0.0002
323.15	10000	-0.00431	0.0002
278.15	25000	-0.01178	0.0002
288.15	25000	-0.01121	0.0002
298.15	25000	-0.01086	0.0002
308.15	25000	-0.01067	0.0002
323.15	25000	-0.01059	0.0002
278.15	50000	-0.02271	0.0002
288.15	50000	-0.02166	0.0002
298.15	50000	-0.02101	0.0002
308.15	50000	-0.02063	0.0002
323.15	50000	-0.02047	0.0002
278.15	75000	-0.03284	0.0002
288.15	75000	-0.03139	0.0002
298.15	75000	-0.03047	0.0002
308.15	75000	-0.02994	0.0002
323.15	75000	-0.0297	0.0002
278.15	100000	-0.04226	0.0002
288.15	100000	-0.04047	0.0002
298.15	100000	-0.03933	0.0002
308.15	100000	-0.03866	0.0002
323.15	100000	-0.03834	0.0002

System: glycerol + water; phases: Liquid
Fixed: Pressure, kPa = 101
Property: Mass density, kg/m3 (Liquid); method: Vibrating tube method
Mole fraction of glycerol	Temperature, K	Mass density, kg/m3	uncertainty
0	278.15	999.96	1
0	288.15	999.09	1
0	298.15	997.04	1
0	308.15	994.03	1
0	323.15	988.03	1
0.03504	278.15	1039.54	1.01
0.03504	288.15	1037.45	1.01
0.03504	298.15	1034.47	1.01
0.03504	308.15	1030.74	1.01
0.03504	323.15	1024.15	1.01
0.06775	278.15	1069.92	1.01
0.06775	288.15	1066.9	1.01
0.06775	298.15	1063.23	1.01
0.06775	308.15	1058.94	1
0.06775	323.15	1051.86	1.01
0.11265	278.15	1103.61	1.01
0.11265	288.15	1099.65	1.01
0.11265	298.15	1095.24	1.01
0.11265	308.15	1090.4	1.01
0.11265	323.15	1082.82	1.01
0.15591	278.15	1129.3	1.01
0.15591	288.15	1124.77	1.01
0.15591	298.15	1119.87	1.01
0.15591	308.15	1114.62	1.01
0.15591	323.15	1106.34	1.01
0.20601	278.15	1153.22	1.01
0.20601	288.15	1148.15	1.01
0.20601	298.15	1142.86	1.01
0.20601	308.15	1137.3	1.01
0.20601	323.15	1128.58	1.01
0.33112	278.15	1194.33	1.01
0.33112	288.15	1188.67	1.01
0.33112	298.15	1183	1.01
0.33112	308.15	1177.16	1.01
0.33112	323.15	1168.09	1.01
0.40118	278.15	1210	1.01
0.40118	288.15	1204.31	1.01
0.40118	298.15	1198.45	1.01
0.40118	308.15	1192.55	1.01
0.40118	323.15	1183.35	1.01
0.49071	278.15	1225.46	1.01
0.49071	288.15	1219.67	1.01
0.49071	298.15	1213.75	1.01
0.49071	308.15	1207.7	1.01
0.49071	323.15	1198.19	1.01
0.58282	278.15	1237.72	1.01
0.58282	288.15	1231.79	1.01
0.58282	298.15	1225.65	1.01
0.58282	308.15	1219.6	1.01
0.58282	323.15	1210.22	1.01
0.68566	278.15	1248.63	1.01
0.68566	288.15	1242.54	1.01
0.68566	298.15	1236.32	1.01
0.68566	308.15	1230.18	1.01
0.68566	323.15	1220.77	1.01
0.74936	278.15	1254.28	1.01
0.74936	288.15	1248.04	1.01
0.74936	298.15	1241.81	1.01
0.74936	308.15	1235.6	1.01
0.74936	323.15	1226.23	1.01
0.81008	278.15	1259.12	1.02
0.81008	288.15	1252.82	1.02
0.81008	298.15	1246.48	1.02
0.81008	308.15	1240.19	1.01
0.81008	323.15	1230.76	1.01
0.88196	278.15	1264.21	1.02
0.88196	288.15	1257.79	1.02
0.88196	298.15	1251.36	1.02
0.88196	308.15	1245.07	1.02
0.88196	323.15	1235.56	1.02
0.94078	278.15	1267.71	1.02
0.94078	288.15	1261.27	1.02
0.94078	298.15	1254.8	1.02
0.94078	308.15	1248.55	1.02
0.94078	323.15	1239.01	1.02
0.97917	278.15	1269.86	1.02
0.97917	288.15	1263.39	1.02
0.97917	298.15	1256.89	1.02
0.97917	308.15	1250.63	1.02
0.97917	323.15	1241.1	1.02
1	278.15	1270.87	1.02
1	288.15	1264.4	1.02
1	298.15	1257.91	1.02
1	308.15	1251.66	1.02
1	323.15	1242.11	1.02

System: glycerol + water; phases: Liquid
Property: Specific volume, m3/kg (Liquid); method: Constant-volume piezometry
Mole fraction of glycerol	Temperature, K	Pressure, kPa	Specific volume, m3/kg	uncertainty
0	278.15	10000	-0.00479	0.0002
0	288.15	10000	-0.00456	0.0002
0	298.15	10000	-0.00442	0.0002
0	308.15	10000	-0.00434	0.0002
0	323.15	10000	-0.00431	0.0002
0.03504	278.15	10000	-0.00433	0.0002
0.03504	288.15	10000	-0.00411	0.0002
0.03504	298.15	10000	-0.00401	0.0002
0.03504	308.15	10000	-0.00396	0.0002
0.03504	323.15	10000	-0.00401	0.0002
0.06775	278.15	10000	-0.00395	0.0002
0.06775	288.15	10000	-0.00377	0.0002
0.06775	298.15	10000	-0.00372	0.0002
0.06775	308.15	10000	-0.00368	0.0002
0.06775	323.15	10000	-0.00375	0.0002
0.11265	278.15	10000	-0.00353	0.0002
0.11265	288.15	10000	-0.00337	0.0002
0.11265	298.15	10000	-0.00335	0.0002
0.11265	308.15	10000	-0.00339	0.0002
0.11265	323.15	10000	-0.00346	0.0002
0.15591	278.15	10000	-0.00321	0.0002
0.15591	288.15	10000	-0.00312	0.0002
0.15591	298.15	10000	-0.00313	0.0002
0.15591	308.15	10000	-0.00316	0.0002
0.15591	323.15	10000	-0.00323	0.0002
0.20601	278.15	10000	-0.00298	0.0002
0.20601	288.15	10000	-0.00293	0.0002
0.20601	298.15	10000	-0.00294	0.0002
0.20601	308.15	10000	-0.00297	0.0002
0.20601	323.15	10000	-0.00302	0.0002
0.33112	278.15	10000	-0.00258	0.0002
0.33112	288.15	10000	-0.00261	0.0002
0.33112	298.15	10000	-0.00266	0.0002
0.33112	308.15	10000	-0.0027	0.0002
0.33112	323.15	10000	-0.00275	0.0002
0.40118	278.15	10000	-0.0025	0.0002
0.40118	288.15	10000	-0.00252	0.0002
0.40118	298.15	10000	-0.00257	0.0002
0.40118	308.15	10000	-0.00262	0.0002
0.40118	323.15	10000	-0.00266	0.0002
0.49071	278.15	10000	-0.00243	0.0002
0.49071	288.15	10000	-0.00244	0.0002
0.49071	298.15	10000	-0.00247	0.0002
0.49071	308.15	10000	-0.00254	0.0002
0.49071	323.15	10000	-0.00261	0.0002
0.58282	278.15	10000	-0.00241	0.0002
0.58282	288.15	10000	-0.00238	0.0002
0.58282	298.15	10000	-0.0024	0.0002
0.58282	308.15	10000	-0.0025	0.0002
0.58282	323.15	10000	-0.00256	0.0002
0.68566	278.15	10000	-0.00241	0.0002
0.68566	288.15	10000	-0.00234	0.0002
0.68566	298.15	10000	-0.00237	0.0002
0.68566	308.15	10000	-0.00247	0.0002
0.68566	323.15	10000	-0.00253	0.0002
0.74936	278.15	10000	-0.0024	0.0002
0.74936	288.15	10000	-0.00233	0.0002
0.74936	298.15	10000	-0.00236	0.0002
0.74936	308.15	10000	-0.00245	0.0002
0.74936	323.15	10000	-0.00253	0.0002
0.81008	278.15	10000	-0.00241	0.0002
0.81008	288.15	10000	-0.00233	0.0002
0.81008	298.15	10000	-0.00236	0.0002
0.81008	308.15	10000	-0.00244	0.0002
0.81008	323.15	10000	-0.00252	0.0002
0.88196	278.15	10000	-0.0024	0.0002
0.88196	288.15	10000	-0.00233	0.0002
0.88196	298.15	10000	-0.00236	0.0002
0.88196	308.15	10000	-0.00244	0.0002
0.88196	323.15	10000	-0.00251	0.0002
0.94078	278.15	10000	-0.0024	0.0002
0.94078	288.15	10000	-0.00233	0.0002
0.94078	298.15	10000	-0.00236	0.0002
0.94078	308.15	10000	-0.00244	0.0002
0.94078	323.15	10000	-0.00251	0.0002
0.97917	278.15	10000	-0.0024	0.0002
0.97917	288.15	10000	-0.00234	0.0002
0.97917	298.15	10000	-0.00236	0.0002
0.97917	308.15	10000	-0.00244	0.0002
0.97917	323.15	10000	-0.00251	0.0002
1	278.15	10000	-0.00242	0.0002
1	288.15	10000	-0.00234	0.0002
1	298.15	10000	-0.00237	0.0002
1	308.15	10000	-0.00245	0.0002
1	323.15	10000	-0.0025	0.0002
0	278.15	25000	-0.01178	0.0002
0	288.15	25000	-0.01121	0.0002
0	298.15	25000	-0.01086	0.0002
0	308.15	25000	-0.01067	0.0002
0	323.15	25000	-0.01059	0.0002
0.03504	278.15	25000	-0.01053	0.0002
0.03504	288.15	25000	-0.01005	0.0002
0.03504	298.15	25000	-0.00982	0.0002
0.03504	308.15	25000	-0.00971	0.0002
0.03504	323.15	25000	-0.00978	0.0002
0.06775	278.15	25000	-0.0096	0.0002
0.06775	288.15	25000	-0.00923	0.0002
0.06775	298.15	25000	-0.00904	0.0002
0.06775	308.15	25000	-0.009	0.0002
0.06775	323.15	25000	-0.00916	0.0002
0.11265	278.15	25000	-0.00851	0.0002
0.11265	288.15	25000	-0.0083	0.0002
0.11265	298.15	25000	-0.00819	0.0002
0.11265	308.15	25000	-0.00828	0.0002
0.11265	323.15	25000	-0.00841	0.0002
0.15591	278.15	25000	-0.00779	0.0002
0.15591	288.15	25000	-0.00769	0.0002
0.15591	298.15	25000	-0.00765	0.0002
0.15591	308.15	25000	-0.00776	0.0002
0.15591	323.15	25000	-0.00789	0.0002
0.20601	278.15	25000	-0.00722	0.0002
0.20601	288.15	25000	-0.00716	0.0002
0.20601	298.15	25000	-0.00718	0.0002
0.20601	308.15	25000	-0.0073	0.0002
0.20601	323.15	25000	-0.00744	0.0002
0.33112	278.15	25000	-0.00634	0.0002
0.33112	288.15	25000	-0.00642	0.0002
0.33112	298.15	25000	-0.00653	0.0002
0.33112	308.15	25000	-0.00665	0.0002
0.33112	323.15	25000	-0.0068	0.0002
0.40118	278.15	25000	-0.00618	0.0002
0.40118	288.15	25000	-0.00622	0.0002
0.40118	298.15	25000	-0.00632	0.0002
0.40118	308.15	25000	-0.00645	0.0002
0.40118	323.15	25000	-0.0066	0.0002
0.49071	278.15	25000	-0.00608	0.0002
0.49071	288.15	25000	-0.00606	0.0002
0.49071	298.15	25000	-0.00614	0.0002
0.49071	308.15	25000	-0.00629	0.0002
0.49071	323.15	25000	-0.00642	0.0002
0.58282	278.15	25000	-0.00601	0.0002
0.58282	288.15	25000	-0.00593	0.0002
0.58282	298.15	25000	-0.00598	0.0002
0.58282	308.15	25000	-0.00617	0.0002
0.58282	323.15	25000	-0.00632	0.0002
0.68566	278.15	25000	-0.006	0.0002
0.68566	288.15	25000	-0.00583	0.0002
0.68566	298.15	25000	-0.00589	0.0002
0.68566	308.15	25000	-0.00608	0.0002
0.68566	323.15	25000	-0.00625	0.0002
0.74936	278.15	25000	-0.00595	0.0002
0.74936	288.15	25000	-0.00579	0.0002
0.74936	298.15	25000	-0.00584	0.0002
0.74936	308.15	25000	-0.00606	0.0002
0.74936	323.15	25000	-0.00625	0.0002
0.81008	278.15	25000	-0.00594	0.0002
0.81008	288.15	25000	-0.00577	0.0002
0.81008	298.15	25000	-0.00583	0.0002
0.81008	308.15	25000	-0.00602	0.0002
0.81008	323.15	25000	-0.00624	0.0002
0.88196	278.15	25000	-0.00592	0.0002
0.88196	288.15	25000	-0.00581	0.0002
0.88196	298.15	25000	-0.00585	0.0002
0.88196	308.15	25000	-0.00602	0.0002
0.88196	323.15	25000	-0.00624	0.0002
0.94078	278.15	25000	-0.00592	0.0002
0.94078	288.15	25000	-0.00581	0.0002
0.94078	298.15	25000	-0.00585	0.0002
0.94078	308.15	25000	-0.00604	0.0002
0.94078	323.15	25000	-0.00624	0.0002
0.97917	278.15	25000	-0.00592	0.0002
0.97917	288.15	25000	-0.00581	0.0002
0.97917	298.15	25000	-0.00586	0.0002
0.97917	308.15	25000	-0.00604	0.0002
0.97917	323.15	25000	-0.00624	0.0002
1	278.15	25000	-0.00595	0.0002
1	288.15	25000	-0.00581	0.0002
1	298.15	25000	-0.00587	0.0002
1	308.15	25000	-0.00605	0.0002
1	323.15	25000	-0.00624	0.0002
0	278.15	50000	-0.02271	0.0002
0	288.15	50000	-0.02166	0.0002
0	298.15	50000	-0.02101	0.0002
0	308.15	50000	-0.02063	0.0002
0	323.15	50000	-0.02047	0.0002
0.03504	278.15	50000	-0.02007	0.0002
0.03504	288.15	50000	-0.01934	0.0002
0.03504	298.15	50000	-0.01889	0.0002
0.03504	308.15	50000	-0.01874	0.0002
0.03504	323.15	50000	-0.01876	0.0002
0.06775	278.15	50000	-0.0183	0.0002
0.06775	288.15	50000	-0.01763	0.0002
0.06775	298.15	50000	-0.01732	0.0002
0.06775	308.15	50000	-0.0174	0.0002
0.06775	323.15	50000	-0.01754	0.0002
0.11265	278.15	50000	-0.01621	0.0002
0.11265	288.15	50000	-0.01588	0.0002
0.11265	298.15	50000	-0.01588	0.0002
0.11265	308.15	50000	-0.01588	0.0002
0.11265	323.15	50000	-0.01611	0.0002
0.15591	278.15	50000	-0.01485	0.0002
0.15591	288.15	50000	-0.01467	0.0002
0.15591	298.15	50000	-0.01478	0.0002
0.15591	308.15	50000	-0.01487	0.0002
0.15591	323.15	50000	-0.01515	0.0002
0.20601	278.15	50000	-0.01373	0.0002
0.20601	288.15	50000	-0.01378	0.0002
0.20601	298.15	50000	-0.01385	0.0002
0.20601	308.15	50000	-0.01407	0.0002
0.20601	323.15	50000	-0.01445	0.0002
0.33112	278.15	50000	-0.01235	0.0002
0.33112	288.15	50000	-0.01249	0.0002
0.33112	298.15	50000	-0.01264	0.0002
0.33112	308.15	50000	-0.01291	0.0002
0.33112	323.15	50000	-0.01328	0.0002
0.40118	278.15	50000	-0.01215	0.0002
0.40118	288.15	50000	-0.01223	0.0002
0.40118	298.15	50000	-0.01234	0.0002
0.40118	308.15	50000	-0.01258	0.0002
0.40118	323.15	50000	-0.01295	0.0002
0.49071	278.15	50000	-0.01198	0.0002
0.49071	288.15	50000	-0.01187	0.0002
0.49071	298.15	50000	-0.01199	0.0002
0.49071	308.15	50000	-0.01226	0.0002
0.49071	323.15	50000	-0.01263	0.0002
0.58282	278.15	50000	-0.01184	0.0002
0.58282	288.15	50000	-0.01159	0.0002
0.58282	298.15	50000	-0.01174	0.0002
0.58282	308.15	50000	-0.01205	0.0002
0.58282	323.15	50000	-0.01235	0.0002
0.68566	278.15	50000	-0.01168	0.0002
0.68566	288.15	50000	-0.01142	0.0002
0.68566	298.15	50000	-0.01154	0.0002
0.68566	308.15	50000	-0.01184	0.0002
0.68566	323.15	50000	-0.0122	0.0002
0.74936	278.15	50000	-0.01163	0.0002
0.74936	288.15	50000	-0.01134	0.0002
0.74936	298.15	50000	-0.0115	0.0002
0.74936	308.15	50000	-0.01179	0.0002
0.74936	323.15	50000	-0.0122	0.0002
0.81008	278.15	50000	-0.0115	0.0002
0.81008	288.15	50000	-0.01128	0.0002
0.81008	298.15	50000	-0.01139	0.0002
0.81008	308.15	50000	-0.01175	0.0002
0.81008	323.15	50000	-0.0122	0.0002
0.88196	278.15	50000	-0.01145	0.0002
0.88196	288.15	50000	-0.01116	0.0002
0.88196	298.15	50000	-0.01126	0.0002
0.88196	308.15	50000	-0.01174	0.0002
0.88196	323.15	50000	-0.0122	0.0002
0.94078	278.15	50000	-0.01145	0.0002
0.94078	288.15	50000	-0.01115	0.0002
0.94078	298.15	50000	-0.01124	0.0002
0.94078	308.15	50000	-0.01172	0.0002
0.94078	323.15	50000	-0.01219	0.0002
0.97917	278.15	50000	-0.01144	0.0002
0.97917	288.15	50000	-0.01114	0.0002
0.97917	298.15	50000	-0.01123	0.0002
0.97917	308.15	50000	-0.01178	0.0002
0.97917	323.15	50000	-0.01219	0.0002
1	278.15	50000	-0.01146	0.0002
1	288.15	50000	-0.01114	0.0002
1	298.15	50000	-0.01125	0.0002
1	308.15	50000	-0.01179	0.0002
1	323.15	50000	-0.01219	0.0002
0	278.15	75000	-0.03284	0.0002
0	288.15	75000	-0.03139	0.0002
0	298.15	75000	-0.03047	0.0002
0	308.15	75000	-0.02994	0.0002
0	323.15	75000	-0.0297	0.0002
0.03504	278.15	75000	-0.02903	0.0002
0.03504	288.15	75000	-0.02807	0.0002
0.03504	298.15	75000	-0.02741	0.0002
0.03504	308.15	75000	-0.02724	0.0002
0.03504	323.15	75000	-0.0272	0.0002
0.06775	278.15	75000	-0.02634	0.0002
0.06775	288.15	75000	-0.02563	0.0002
0.06775	298.15	75000	-0.02524	0.0002
0.06775	308.15	75000	-0.02534	0.0002
0.06775	323.15	75000	-0.02552	0.0002
0.11265	278.15	75000	-0.02353	0.0002
0.11265	288.15	75000	-0.02308	0.0002
0.11265	298.15	75000	-0.02297	0.0002
0.11265	308.15	75000	-0.02322	0.0002
0.11265	323.15	75000	-0.02337	0.0002
0.15591	278.15	75000	-0.02167	0.0002
0.15591	288.15	75000	-0.02135	0.0002
0.15591	298.15	75000	-0.0215	0.0002
0.15591	308.15	75000	-0.02165	0.0002
0.15591	323.15	75000	-0.02203	0.0002
0.20601	278.15	75000	-0.01993	0.0002
0.20601	288.15	75000	-0.02	0.0002
0.20601	298.15	75000	-0.02015	0.0002
0.20601	308.15	75000	-0.02048	0.0002
0.20601	323.15	75000	-0.02096	0.0002
0.33112	278.15	75000	-0.0181	0.0002
0.33112	288.15	75000	-0.0182	0.0002
0.33112	298.15	75000	-0.01847	0.0002
0.33112	308.15	75000	-0.01882	0.0002
0.33112	323.15	75000	-0.01928	0.0002
0.40118	278.15	75000	-0.01776	0.0002
0.40118	288.15	75000	-0.01781	0.0002
0.40118	298.15	75000	-0.018	0.0002
0.40118	308.15	75000	-0.01837	0.0002
0.40118	323.15	75000	-0.01869	0.0002
0.49071	278.15	75000	-0.01757	0.0002
0.49071	288.15	75000	-0.01736	0.0002
0.49071	298.15	75000	-0.01747	0.0002
0.49071	308.15	75000	-0.01786	0.0002
0.49071	323.15	75000	-0.0183	0.0002
0.58282	278.15	75000	-0.01734	0.0002
0.58282	288.15	75000	-0.01705	0.0002
0.58282	298.15	75000	-0.01718	0.0002
0.58282	308.15	75000	-0.0176	0.0002
0.58282	323.15	75000	-0.01796	0.0002
0.68566	278.15	75000	-0.017	0.0002
0.68566	288.15	75000	-0.01666	0.0002
0.68566	298.15	75000	-0.01686	0.0002
0.68566	308.15	75000	-0.01729	0.0002
0.68566	323.15	75000	-0.01775	0.0002
0.74936	278.15	75000	-0.01684	0.0002
0.74936	288.15	75000	-0.01652	0.0002
0.74936	298.15	75000	-0.01677	0.0002
0.74936	308.15	75000	-0.01715	0.0002
0.74936	323.15	75000	-0.01775	0.0002
0.81008	278.15	75000	-0.01673	0.0002
0.81008	288.15	75000	-0.01642	0.0002
0.81008	298.15	75000	-0.01657	0.0002
0.81008	308.15	75000	-0.01715	0.0002
0.81008	323.15	75000	-0.01774	0.0002
0.88196	278.15	75000	-0.01661	0.0002
0.88196	288.15	75000	-0.01641	0.0002
0.88196	298.15	75000	-0.01654	0.0002
0.88196	308.15	75000	-0.01715	0.0002
0.88196	323.15	75000	-0.01774	0.0002
0.94078	278.15	75000	-0.01658	0.0002
0.94078	288.15	75000	-0.0164	0.0002
0.94078	298.15	75000	-0.01653	0.0002
0.94078	308.15	75000	-0.01712	0.0002
0.94078	323.15	75000	-0.01773	0.0002
0.97917	278.15	75000	-0.01656	0.0002
0.97917	288.15	75000	-0.01639	0.0002
0.97917	298.15	75000	-0.01652	0.0002
0.97917	308.15	75000	-0.01712	0.0002
0.97917	323.15	75000	-0.01771	0.0002
1	278.15	75000	-0.01656	0.0002
1	288.15	75000	-0.01639	0.0002
1	298.15	75000	-0.01651	0.0002
1	308.15	75000	-0.01714	0.0002
1	323.15	75000	-0.01771	0.0002
0	278.15	100000	-0.04226	0.0002
0	288.15	100000	-0.04047	0.0002
0	298.15	100000	-0.03933	0.0002
0	308.15	100000	-0.03866	0.0002
0	323.15	100000	-0.03834	0.0002
0.03504	278.15	100000	-0.0379	0.0002
0.03504	288.15	100000	-0.03648	0.0002
0.03504	298.15	100000	-0.03564	0.0002
0.03504	308.15	100000	-0.03535	0.0002
0.03504	323.15	100000	-0.03545	0.0002
0.06775	278.15	100000	-0.03447	0.0002
0.06775	288.15	100000	-0.03345	0.0002
0.06775	298.15	100000	-0.03271	0.0002
0.06775	308.15	100000	-0.03298	0.0002
0.06775	323.15	100000	-0.03318	0.0002
0.11265	278.15	100000	-0.03075	0.0002
0.11265	288.15	100000	-0.03035	0.0002
0.11265	298.15	100000	-0.02987	0.0002
0.11265	308.15	100000	-0.03014	0.0002
0.11265	323.15	100000	-0.03041	0.0002
0.15591	278.15	100000	-0.02821	0.0002
0.15591	288.15	100000	-0.0279	0.0002
0.15591	298.15	100000	-0.02807	0.0002
0.15591	308.15	100000	-0.02822	0.0002
0.15591	323.15	100000	-0.02875	0.0002
0.20601	278.15	100000	-0.026	0.0002
0.20601	288.15	100000	-0.02599	0.0002
0.20601	298.15	100000	-0.02608	0.0002
0.20601	308.15	100000	-0.02669	0.0002
0.20601	323.15	100000	-0.0272	0.0002
0.33112	278.15	100000	-0.02343	0.0002
0.33112	288.15	100000	-0.02354	0.0002
0.33112	298.15	100000	-0.02364	0.0002
0.33112	308.15	100000	-0.02439	0.0002
0.33112	323.15	100000	-0.02491	0.0002
0.40118	278.15	100000	-0.02281	0.0002
0.40118	288.15	100000	-0.02277	0.0002
0.40118	298.15	100000	-0.02288	0.0002
0.40118	308.15	100000	-0.02368	0.0002
0.40118	323.15	100000	-0.02433	0.0002
0.49071	278.15	100000	-0.02245	0.0002
0.49071	288.15	100000	-0.02222	0.0002
0.49071	298.15	100000	-0.02222	0.0002
0.49071	308.15	100000	-0.02303	0.0002
0.49071	323.15	100000	-0.02377	0.0002
0.58282	278.15	100000	-0.02215	0.0002
0.58282	288.15	100000	-0.02182	0.0002
0.58282	298.15	100000	-0.02187	0.0002
0.58282	308.15	100000	-0.02267	0.0002
0.58282	323.15	100000	-0.02333	0.0002
0.68566	278.15	100000	-0.02181	0.0002
0.68566	288.15	100000	-0.02141	0.0002
0.68566	298.15	100000	-0.0215	0.0002
0.68566	308.15	100000	-0.02239	0.0002
0.68566	323.15	100000	-0.02293	0.0002
0.74936	278.15	100000	-0.02158	0.0002
0.74936	288.15	100000	-0.02123	0.0002
0.74936	298.15	100000	-0.02137	0.0002
0.74936	308.15	100000	-0.02216	0.0002
0.74936	323.15	100000	-0.02273	0.0002
0.81008	278.15	100000	-0.02137	0.0002
0.81008	288.15	100000	-0.02104	0.0002
0.81008	298.15	100000	-0.02121	0.0002
0.81008	308.15	100000	-0.02202	0.0002
0.81008	323.15	100000	-0.02265	0.0002
0.88196	278.15	100000	-0.02131	0.0002
0.88196	288.15	100000	-0.021	0.0002
0.88196	298.15	100000	-0.0211	0.0002
0.88196	308.15	100000	-0.02189	0.0002
0.88196	323.15	100000	-0.02265	0.0002
0.94078	278.15	100000	-0.0213	0.0002
0.94078	288.15	100000	-0.02098	0.0002
0.94078	298.15	100000	-0.02108	0.0002
0.94078	308.15	100000	-0.02189	0.0002
0.94078	323.15	100000	-0.02264	0.0002
0.97917	278.15	100000	-0.02127	0.0002
0.97917	288.15	100000	-0.02093	0.0002
0.97917	298.15	100000	-0.02103	0.0002
0.97917	308.15	100000	-0.02192	0.0002
0.97917	323.15	100000	-0.02264	0.0002
1	278.15	100000	-0.02129	0.0002
1	288.15	100000	-0.02087	0.0002
1	298.15	100000	-0.02103	0.0002
1	308.15	100000	-0.02195	0.0002
1	323.15	100000	-0.02264	0.0002
