Measured thermophysical data. Surface tension of binary mixtures of (ionic liquid + tributyl phosphate)
Source: J. Chem. Thermodyn., 2019, 10.1016/j.jct.2018.12.036
Compound 1: 1-butyl-3-methylimidazolium tetrafluoroborate, C8H15BF4N2, InChI=1S/C8H15N2.BF4/c1-3-4-5-10-7-6-9(2)8-10;2-1(3,4)5/h6-8H,3-5H2,1-2H3;/q+1;-1, purity 99%
Compound 2: 1-butyl-3-methylimidazolium hexafluorophosphate, C8H15F6N2P, InChI=1S/C8H15N2.F6P/c1-3-4-5-10-7-6-9(2)8-10;1-7(2,3,4,5)6/h6-8H,3-5H2,1-2H3;/q+1;-1, purity 99%
Compound 3: 1-butyl-3-methylimidazolium bis(trifluoromethylsulfonyl)imide, C10H15F6N3O4S2, InChI=1S/C8H15N2.C2F6NO4S2/c1-3-4-5-10-7-6-9(2)8-10;3-1(4,5)14(10,11)9-15(12,13)2(6,7)8/h6-8H,3-5H2,1-2H3;/q+1;-1, purity 99%
Compound 4: tributyl phosphate, C12H27O4P, InChI=1S/C12H27O4P/c1-4-7-10-14-17(13,15-11-8-5-2)16-12-9-6-3/h4-12H2,1-3H3, purity 99%

System: 1-butyl-3-methylimidazolium tetrafluoroborate; phases: Liquid, Air at 1 atmosphere
Property: Surface tension liquid-gas, N/m (Liquid); method: Plate method
Temperature, K	Surface tension liquid-gas, N/m	uncertainty
293.15	0.04475	0.00046
298.15	0.04452	0.00046
303.15	0.04416	0.00046
308.15	0.04395	0.00046
313.15	0.04363	0.00046
318.15	0.04334	0.00046
323.15	0.04298	0.00045

System: 1-butyl-3-methylimidazolium hexafluorophosphate; phases: Liquid, Air at 1 atmosphere
Property: Surface tension liquid-gas, N/m (Liquid); method: Plate method
Temperature, K	Surface tension liquid-gas, N/m	uncertainty
293.15	0.04456	0.00046
298.15	0.04432	0.00046
303.15	0.04411	0.00046
308.15	0.04388	0.00046
313.15	0.04363	0.00046
318.15	0.04342	0.00046
323.15	0.04318	0.00045

System: 1-butyl-3-methylimidazolium bis(trifluoromethylsulfonyl)imide; phases: Liquid, Air at 1 atmosphere
Property: Surface tension liquid-gas, N/m (Liquid); method: Plate method
Temperature, K	Surface tension liquid-gas, N/m	uncertainty
293.15	0.03329	0.00043
298.15	0.03307	0.00043
303.15	0.03288	0.00043
308.15	0.03267	0.00043
313.15	0.03249	0.00043
318.15	0.03229	0.00043
323.15	0.03211	0.00043

System: tributyl phosphate; phases: Liquid, Air at 1 atmosphere
Property: Surface tension liquid-gas, N/m (Liquid); method: Plate method
Temperature, K	Surface tension liquid-gas, N/m	uncertainty
293.15	0.02779	0.00042
298.15	0.02742	0.00042
303.15	0.02705	0.00042
308.15	0.02669	0.00042
313.15	0.02635	0.00042
318.15	0.02602	0.00042
323.15	0.02566	0.00042

System: 1-butyl-3-methylimidazolium tetrafluoroborate + tributyl phosphate; phases: Liquid, Air at 1 atmosphere
Property: Surface tension liquid-gas, N/m (Liquid); method: Plate method
Temperature, K	Mole fraction of 1-butyl-3-methylimidazolium tetrafluoroborate	Surface tension liquid-gas, N/m	uncertainty
293.15	0	0.02779	0.00042
293.15	0.1158	0.02822	0.00043
293.15	0.2275	0.02861	0.00043
293.15	0.3355	0.02888	0.00043
293.15	0.4399	0.02921	0.00043
293.15	0.5409	0.02948	0.00043
293.15	0.6387	0.02989	0.00044
293.15	0.7333	0.03032	0.00044
293.15	0.825	0.03097	0.00049
293.15	0.9138	0.03238	0.0007
293.15	0.9572	0.03489	0.00173
293.15	0.9915	0.03898	0.00111
293.15	1	0.04475	0.00049
298.15	0	0.02742	0.00042
298.15	0.1158	0.02787	0.00043
298.15	0.2275	0.02827	0.00043
298.15	0.3355	0.02856	0.00043
298.15	0.4399	0.02891	0.00043
298.15	0.5409	0.02919	0.00043
298.15	0.6387	0.02954	0.00044
298.15	0.7333	0.03004	0.00044
298.15	0.825	0.03068	0.00048
298.15	0.9138	0.03205	0.00067
298.15	0.9572	0.03457	0.0017
298.15	0.9915	0.03861	0.0011
298.15	1	0.04452	0.00046
303.15	0	0.02705	0.00042
303.15	0.1158	0.02756	0.00043
303.15	0.2275	0.02792	0.00043
303.15	0.3355	0.02821	0.00043
303.15	0.4399	0.02852	0.00043
303.15	0.5409	0.02884	0.00043
303.15	0.6387	0.02924	0.00044
303.15	0.7333	0.02971	0.00044
303.15	0.825	0.03035	0.00049
303.15	0.9138	0.03179	0.00068
303.15	0.9572	0.03428	0.00169
303.15	0.9915	0.03831	0.0011
303.15	1	0.04416	0.00046
308.15	0	0.02669	0.00042
308.15	0.1158	0.0272	0.00043
308.15	0.2275	0.02757	0.00043
308.15	0.3355	0.02784	0.00043
308.15	0.4399	0.02816	0.00043
308.15	0.5409	0.02847	0.00043
308.15	0.6387	0.02891	0.00044
308.15	0.7333	0.02934	0.00044
308.15	0.825	0.03	0.00048
308.15	0.9138	0.03139	0.00068
308.15	0.9572	0.03401	0.00174
308.15	0.9915	0.03809	0.00109
308.15	1	0.04395	0.00046
313.15	0	0.02635	0.00042
313.15	0.1158	0.02684	0.00043
313.15	0.2275	0.02721	0.00043
313.15	0.3355	0.02751	0.00043
313.15	0.4399	0.02779	0.00043
313.15	0.5409	0.02812	0.00043
313.15	0.6387	0.02849	0.00043
313.15	0.7333	0.02897	0.00044
313.15	0.825	0.02964	0.00049
313.15	0.9138	0.03107	0.00069
313.15	0.9572	0.03374	0.00173
313.15	0.9915	0.03773	0.00109
313.15	1	0.04363	0.00046
318.15	0	0.02602	0.00042
318.15	0.1158	0.02651	0.00043
318.15	0.2275	0.02689	0.00043
318.15	0.3355	0.02717	0.00043
318.15	0.4399	0.02748	0.00043
318.15	0.5409	0.02781	0.00043
318.15	0.6387	0.02822	0.00043
318.15	0.7333	0.02869	0.00044
318.15	0.825	0.02938	0.00049
318.15	0.9138	0.03079	0.00068
318.15	0.9572	0.03338	0.00173
318.15	0.9915	0.03746	0.0011
318.15	1	0.04334	0.00046
323.15	0	0.02566	0.00042
323.15	0.1158	0.02612	0.00043
323.15	0.2275	0.02654	0.00043
323.15	0.3355	0.02684	0.00043
323.15	0.4399	0.02722	0.00043
323.15	0.5409	0.02748	0.00043
323.15	0.6387	0.02789	0.00043
323.15	0.7333	0.02837	0.00044
323.15	0.825	0.02902	0.00049
323.15	0.9138	0.03048	0.00071
323.15	0.9572	0.033	0.00174
323.15	0.9915	0.03714	0.00112
323.15	1	0.04298	0.00048

System: 1-butyl-3-methylimidazolium hexafluorophosphate + tributyl phosphate; phases: Liquid, Air at 1 atmosphere
Property: Surface tension liquid-gas, N/m (Liquid); method: Plate method
Temperature, K	Mole fraction of 1-butyl-3-methylimidazolium hexafluorophosphate	Surface tension liquid-gas, N/m	uncertainty
293.15	0.0943	0.02863	0.00045
293.15	0.1898	0.02918	0.00044
293.15	0.2866	0.02966	0.00044
293.15	0.3845	0.03011	0.00044
293.15	0.4838	0.03061	0.00044
293.15	0.5843	0.03112	0.00044
293.15	0.6862	0.03162	0.00044
293.15	0.7894	0.03209	0.00044
293.15	0.894	0.0325	0.00061
293.15	0.9574	0.03596	0.00115
293.15	0.9893	0.03754	0.00069
293.15	1	0.04456	0.00046
298.15	0.0943	0.02824	0.00045
298.15	0.1898	0.02885	0.00044
298.15	0.2866	0.02934	0.00044
298.15	0.3845	0.02977	0.00044
298.15	0.4838	0.03025	0.00044
298.15	0.5843	0.03076	0.00044
298.15	0.6862	0.03129	0.00044
298.15	0.7894	0.03176	0.00044
298.15	0.894	0.03217	0.00059
298.15	0.9574	0.03567	0.00117
298.15	0.9893	0.03734	0.00071
298.15	1	0.04432	0.00046
303.15	0.0943	0.02789	0.00045
303.15	0.1898	0.02846	0.00044
303.15	0.2866	0.02899	0.00044
303.15	0.3845	0.02941	0.00044
303.15	0.4838	0.02992	0.00044
303.15	0.5843	0.03043	0.00044
303.15	0.6862	0.03095	0.00044
303.15	0.7894	0.03144	0.00044
303.15	0.894	0.03186	0.00059
303.15	0.9574	0.03535	0.00118
303.15	0.9893	0.03707	0.00073
303.15	1	0.04411	0.00046
308.15	0.0943	0.02761	0.00045
308.15	0.1898	0.02818	0.00044
308.15	0.2866	0.02865	0.00043
308.15	0.3845	0.02907	0.00044
308.15	0.4838	0.02965	0.00044
308.15	0.5843	0.03015	0.00044
308.15	0.6862	0.03069	0.00044
308.15	0.7894	0.03114	0.00044
308.15	0.894	0.03159	0.00059
308.15	0.9574	0.03506	0.00118
308.15	0.9893	0.03681	0.00073
308.15	1	0.04388	0.00046
313.15	0.0943	0.02729	0.00045
313.15	0.1898	0.02788	0.00044
313.15	0.2866	0.02834	0.00043
313.15	0.3845	0.02879	0.00044
313.15	0.4838	0.02931	0.00044
313.15	0.5843	0.02983	0.00044
313.15	0.6862	0.03036	0.00044
313.15	0.7894	0.03085	0.00044
313.15	0.894	0.03127	0.00059
313.15	0.9574	0.03481	0.00118
313.15	0.9893	0.03649	0.00072
313.15	1	0.04363	0.00046
318.15	0.0943	0.02692	0.00045
318.15	0.1898	0.02753	0.00044
318.15	0.2866	0.02803	0.00043
318.15	0.3845	0.02847	0.00044
318.15	0.4838	0.02897	0.00044
318.15	0.5843	0.02951	0.00044
318.15	0.6862	0.03003	0.00044
318.15	0.7894	0.03053	0.00044
318.15	0.894	0.03095	0.00059
318.15	0.9574	0.03457	0.0012
318.15	0.9893	0.03623	0.00071
318.15	1	0.04342	0.00046
323.15	0.0943	0.02653	0.00045
323.15	0.1898	0.02715	0.00044
323.15	0.2866	0.02768	0.00043
323.15	0.3845	0.02811	0.00043
323.15	0.4838	0.02862	0.00044
323.15	0.5843	0.02916	0.00044
323.15	0.6862	0.0297	0.00044
323.15	0.7894	0.03016	0.00044
323.15	0.894	0.03061	0.00062
323.15	0.9574	0.03429	0.00121
323.15	0.9893	0.03595	0.00071
323.15	1	0.04318	0.00045
293.15	0	0.02779	0.00042
298.15	0	0.02742	0.00042
303.15	0	0.02705	0.00042
308.15	0	0.02669	0.00042
313.15	0	0.02635	0.00042
318.15	0	0.02602	0.00042
323.15	0	0.02566	0.00042

System: 1-butyl-3-methylimidazolium bis(trifluoromethylsulfonyl)imide + tributyl phosphate; phases: Liquid, Air at 1 atmosphere
Property: Surface tension liquid-gas, N/m (Liquid); method: Plate method
Temperature, K	Mole fraction of 1-butyl-3-methylimidazolium bis(trifluoromethylsulfonyl)imide	Surface tension liquid-gas, N/m	uncertainty
293.15	0.0659	0.02815	0.00044
293.15	0.137	0.02848	0.00043
293.15	0.2139	0.02879	0.00043
293.15	0.2974	0.02906	0.00043
293.15	0.3884	0.02935	0.00043
293.15	0.4879	0.02963	0.00043
293.15	0.5971	0.0299	0.00043
293.15	0.7175	0.03019	0.00043
293.15	0.8511	0.03064	0.00044
293.15	0.9235	0.03119	0.00051
293.15	0.9843	0.03255	0.00056
293.15	1	0.03329	0.00043
298.15	0.0659	0.0278	0.00044
298.15	0.137	0.02815	0.00043
298.15	0.2139	0.02845	0.00043
298.15	0.2974	0.02873	0.00043
298.15	0.3884	0.02906	0.00043
298.15	0.4879	0.02937	0.00043
298.15	0.5971	0.02961	0.00043
298.15	0.7175	0.02991	0.00043
298.15	0.8511	0.03035	0.00044
298.15	0.9235	0.03101	0.00052
298.15	0.9843	0.03235	0.00055
298.15	1	0.03307	0.00043
303.15	0.0659	0.02746	0.00044
303.15	0.137	0.02782	0.00043
303.15	0.2139	0.02813	0.00043
303.15	0.2974	0.02843	0.00043
303.15	0.3884	0.02876	0.00043
303.15	0.4879	0.02912	0.00043
303.15	0.5971	0.02938	0.00043
303.15	0.7175	0.02964	0.00043
303.15	0.8511	0.03012	0.00044
303.15	0.9235	0.03078	0.00052
303.15	0.9843	0.03212	0.00055
303.15	1	0.03288	0.00043
308.15	0.0659	0.02712	0.00044
308.15	0.137	0.0275	0.00043
308.15	0.2139	0.02784	0.00043
308.15	0.2974	0.02815	0.00043
308.15	0.3884	0.02843	0.00043
308.15	0.4879	0.02884	0.00043
308.15	0.5971	0.02908	0.00043
308.15	0.7175	0.02937	0.00043
308.15	0.8511	0.02985	0.00044
308.15	0.9235	0.03055	0.00052
308.15	0.9843	0.03189	0.00055
308.15	1	0.03267	0.00043
313.15	0.0659	0.02678	0.00044
313.15	0.137	0.02719	0.00043
313.15	0.2139	0.02753	0.00043
313.15	0.2974	0.02784	0.00043
313.15	0.3884	0.02817	0.00043
313.15	0.4879	0.02856	0.00043
313.15	0.5971	0.02884	0.00043
313.15	0.7175	0.02911	0.00043
313.15	0.8511	0.02959	0.00044
313.15	0.9235	0.03029	0.00053
313.15	0.9843	0.0317	0.0006
313.15	1	0.03249	0.00043
318.15	0.0659	0.02644	0.00044
318.15	0.137	0.02685	0.00043
318.15	0.2139	0.0272	0.00043
318.15	0.2974	0.02753	0.00043
318.15	0.3884	0.0279	0.00043
318.15	0.4879	0.02825	0.00043
318.15	0.5971	0.02855	0.00043
318.15	0.7175	0.02889	0.00043
318.15	0.8511	0.02941	0.00044
318.15	0.9235	0.03005	0.00052
318.15	0.9843	0.03149	0.00057
318.15	1	0.03229	0.00043
323.15	0.0659	0.02608	0.00044
323.15	0.137	0.02651	0.00043
323.15	0.2139	0.02687	0.00043
323.15	0.2974	0.0272	0.00043
323.15	0.3884	0.0276	0.00043
323.15	0.4879	0.02796	0.00043
323.15	0.5971	0.02828	0.00043
323.15	0.7175	0.02861	0.00043
323.15	0.8511	0.02916	0.00044
323.15	0.9235	0.02982	0.00053
323.15	0.9843	0.03131	0.00058
323.15	1	0.03211	0.00043
293.15	0	0.02779	0.00042
298.15	0	0.02742	0.00042
303.15	0	0.02705	0.00042
308.15	0	0.02669	0.00042
313.15	0	0.02635	0.00042
318.15	0	0.02602	0.00042
323.15	0	0.02566	0.00042
