Measured thermophysical data. (Vapour + liquid) equilibrium in (N,N-dimethylacetamide + ethanol + water) at the temperature 313.15 K
Source: J. Chem. Thermodyn., 2006, 10.1016/j.jct.2005.08.001
Compound 1: N,N-dimethylethanamide, C4H9NO, InChI=1S/C4H9NO/c1-4(6)5(2)3/h1-3H3, purity 99%
Compound 2: ethanol, C2H6O, InChI=1S/C2H6O/c1-2-3/h3H,2H2,1H3
Compound 3: water, H2O, InChI=1S/H2O/h1H2

System: N,N-dimethylethanamide; phases: Liquid, Gas
Property: Vapor or sublimation pressure, kPa (Liquid); method: Closed cell (Static) method
Temperature, K	Vapor or sublimation pressure, kPa	uncertainty
313.15	0.658	0.01

System: N,N-dimethylethanamide; phases: Liquid
Property: Refractive index (Na D-line) (Liquid); method: Standard Abbe refractometry
Temperature, K	Pressure, kPa	Refractive index (Na D-line)	uncertainty
298.15	101.325	1.43556	0.00075

System: N,N-dimethylethanamide; phases: Liquid
Property: Mass density, kg/m3 (Liquid); method: Pycnometric method
Temperature, K	Pressure, kPa	Mass density, kg/m3	uncertainty
313.15	101.325	922.4	0.6

System: ethanol; phases: Liquid, Gas
Property: Vapor or sublimation pressure, kPa (Liquid); method: Closed cell (Static) method
Temperature, K	Vapor or sublimation pressure, kPa	uncertainty
313.15	17.886	0.087

System: ethanol; phases: Liquid
Property: Refractive index (Na D-line) (Liquid); method: Standard Abbe refractometry
Temperature, K	Pressure, kPa	Refractive index (Na D-line)	uncertainty
298.15	101.325	1.3592	0.00075

System: ethanol; phases: Liquid
Property: Mass density, kg/m3 (Liquid); method: Pycnometric method
Temperature, K	Pressure, kPa	Mass density, kg/m3	uncertainty
313.15	101.325	772.2	0.5

System: water; phases: Liquid, Gas
Property: Vapor or sublimation pressure, kPa (Liquid); method: Closed cell (Static) method
Temperature, K	Vapor or sublimation pressure, kPa	uncertainty
313.15	7.375	0.025

System: ethanol + N,N-dimethylethanamide; phases: Liquid, Gas
Fixed: Temperature, K = 313.15
Property: Vapor or sublimation pressure, kPa (Liquid); method: Closed cell (Static) method
Mole fraction of N,N-dimethylethanamide	Vapor or sublimation pressure, kPa	uncertainty
0.0382	17.173	0.086
0.0733	16.489	0.084
0.1158	15.617	0.08
0.1435	15.021	0.078
0.1973	13.874	0.074
0.2478	12.75	0.069
0.2993	11.625	0.065
0.3359	10.82	0.062
0.3807	9.858	0.058
0.4221	9	0.054
0.4952	7.541	0.048
0.5631	6.272	0.043
0.621	5.303	0.039
0.7037	4.036	0.034
0.755	3.336	0.03
0.8441	2.224	0.026
0.9299	1.314	0.023

System: ethanol + N,N-dimethylethanamide + water; phases: Liquid, Gas
Fixed: Temperature, K = 313.15
Property: Vapor or sublimation pressure, kPa (Liquid); method: Closed cell (Static) method
Mole fraction of N,N-dimethylethanamide	Mole fraction of ethanol	Vapor or sublimation pressure, kPa	uncertainty
0.0085	0.0323	9.339	0.078
0.0112	0.0265	8.97	0.077
0.0218	0.0828	11.407	0.076
0.0269	0.861	17.352	0.087
0.0277	0.0438	9.632	0.07
0.0285	0.9117	17.361	0.087
0.029	0.9287	17.352	0.087
0.0296	0.0703	10.758	0.067
0.0297	0.949	17.345	0.087
0.0357	0.0364	9.194	0.069
0.0368	0.1397	12.738	0.075
0.0456	0.0089	7.595	0.071
0.0507	0.1203	11.946	0.067
0.0529	0.0836	10.832	0.076
0.0563	0.2139	13.532	0.074
0.0646	0.0658	10.015	0.065
0.0681	0.9181	16.598	0.084
0.0744	0.1766	12.608	0.068
0.0794	0.1254	11.529	0.073
0.0805	0.033	8.464	0.061
0.0822	0.8775	16.282	0.083
0.0867	0.3291	14.117	0.075
0.0897	0.0176	7.64	0.059
0.0939	0.0956	10.519	0.07
0.1144	0.2716	13.046	0.069
0.1147	0.1812	11.902	0.072
0.1227	0.0504	8.622	0.057
0.1288	0.4892	14.365	0.075
0.1358	0.1384	10.742	0.066
0.1402	0.0275	7.543	0.053
0.1418	0.8294	15.065	0.078
0.1613	0.6126	14.222	0.075
0.1629	0.757	14.5	0.076
0.1655	0.2614	11.936	0.068
0.18	0.6837	14.027	0.074
0.1854	0.4402	12.955	0.069
0.1891	0.0777	8.468	0.054
0.2076	0.2115	10.532	0.062
0.2138	0.0419	7.12	0.048
0.2228	0.7319	13.239	0.071
0.2318	0.5502	12.496	0.068
0.2406	0.3801	11.448	0.064
0.2417	0.5738	12.397	0.068
0.2445	0.6354	12.559	0.068
0.2795	0.4416	11.06	0.062
0.2895	0.1189	7.738	0.048
0.3108	0.626	11.187	0.063
0.3136	0.3194	9.603	0.056
0.3141	0.5315	10.797	0.06
0.3215	0.0631	6.217	0.045
0.3342	0.5281	10.402	0.059
0.3596	0.3663	9.101	0.056
0.3951	0.4108	8.738	0.052
0.4039	0.5141	9.079	0.054
0.454	0.1864	6.187	0.042
0.4812	0.0944	4.853	0.037
0.4847	0.2771	6.52	0.042
0.4991	0.3995	7.017	0.045
0.5183	0.2128	5.59	0.039
0.5616	0.1624	4.681	0.035
0.6	0.2464	4.854	0.036
0.612	0.2637	4.842	0.036
0.6187	0.1214	3.781	0.031
0.6559	0.1287	3.503	0.03
0.7157	0.121	2.968	0.028
0.7632	0.129	2.655	0.027
0.7927	0.134	2.477	0.027
0.8205	0.1387	2.312	0.026
