Measured thermophysical data. Speed of sound and derived thermodynamic properties of para-xylene at temperatures between (306 and 448) K and at pressures up to 66 MPa
Source: J. Chem. Thermodyn., 2019, 10.1016/j.jct.2019.03.022
Compound 1: 1,4-dimethylbenzene, C8H10, InChI=1S/C8H10/c1-7-3-5-8(2)6-4-7/h3-6H,1-2H3, purity 99.8%
Compound 2: toluene, C7H8, InChI=1S/C7H8/c1-7-5-3-2-4-6-7/h2-6H,1H3, purity 99.8%
Compound 3: water, H2O, InChI=1S/H2O/h1H2

System: 1,4-dimethylbenzene; phases: Liquid
Fixed: Frequency, MHz = 5
Property: Speed of sound, m/s (Liquid); method: Pulse-echo method
Temperature, K	Pressure, kPa	Speed of sound, m/s	uncertainty
305.99	1000	1281.77	0.79
306.07	2050	1287.1	0.79
306.02	2050	1287.22	0.79
305.93	3690	1296.49	0.79
306	4900	1302.49	0.79
305.98	5250	1304.38	0.79
306.05	6960	1312.94	0.79
306.03	9400	1325.57	0.79
306	13840	1347.72	0.79
306.07	16500	1360.11	0.8
306.06	19900	1376.19	0.8
306.07	24630	1397.78	0.8
306.14	26930	1407.8	0.8
306.18	28370	1413.93	0.8
306.1	29650	1419.72	0.8
306	30490	1423.77	0.8
305.99	35160	1443.56	0.81
305.97	40270	1464.54	0.81
305.98	45030	1483.47	0.81
305.98	50870	1505.99	0.82
323.56	210	1206.43	0.8
323.57	490	1208.1	0.78
323.54	1060	1211.51	0.78
323.57	2600	1220.4	0.78
323.58	5070	1234.53	0.78
323.54	6060	1240.28	0.78
323.58	6090	1240.29	0.78
323.59	7490	1248.03	0.78
323.57	10070	1262.13	0.78
323.58	11110	1267.65	0.78
323.53	11470	1269.76	0.78
323.6	15130	1288.59	0.78
323.59	17890	1302.54	0.77
323.55	18570	1306.1	0.78
323.57	20900	1317.51	0.78
323.59	25130	1337.71	0.78
323.59	30210	1361.29	0.81
323.52	30290	1361.83	0.81
323.48	34540	1381.14	0.81
323.58	34830	1382.01	0.81
323.57	39580	1402.7	0.79
323.47	41260	1410.19	0.79
323.54	44230	1422.37	0.8
323.57	44830	1424.72	0.8
323.54	45010	1425.56	0.83
323.49	46870	1433.42	0.8
323.51	49380	1443.5	0.8
323.47	49810	1445.32	0.81
323.48	54770	1464.84	0.8
323.48	55430	1467.39	0.81
323.47	59650	1483.53	0.81
323.51	65910	1506.74	0.82
335.99	280	1158.02	0.77
335.99	570	1159.79	0.77
335.98	1230	1163.95	0.78
335.98	2630	1172.56	0.77
335.98	5600	1190.42	0.77
336	10270	1217.21	0.77
335.99	10300	1217.47	0.77
336.01	14980	1243.1	0.77
335.99	20370	1271.42	0.76
336.01	20750	1273.3	0.77
336	24830	1293.84	0.77
336	30890	1322.99	0.75
336.06	31080	1323.64	0.76
336	34840	1341.19	0.75
336.02	40670	1367.23	0.78
336.05	41270	1369.78	0.76
336.03	41380	1370.31	0.76
335.98	45230	1387.08	0.78
335.97	50590	1409.56	0.79
335.95	55000	1427.54	0.79
335.96	61040	1451.3	0.8
335.95	65380	1467.88	0.8
348.25	40	1108.83	0.8
348.32	1270	1116.85	0.8
348.3	2110	1122.26	0.8
348.27	2120	1122.47	0.8
348.29	2590	1125.51	0.8
348.28	4090	1135.15	0.79
348.32	8600	1162.9	0.8
348.32	8900	1164.69	0.8
348.35	10880	1176.32	0.79
348.37	14620	1197.72	0.79
348.36	15220	1201.14	0.79
348.36	20050	1227.6	0.79
348.45	24930	1252.9	0.78
348.43	29340	1275.02	0.78
348.43	33900	1297.21	0.79
348.43	39830	1324.82	0.79
348.42	45170	1348.71	0.79
348.42	49930	1369.38	0.8
348.42	54750	1389.61	0.8
348.39	59820	1410.34	0.81
348.41	59890	1410.6	0.81
348.37	60580	1413.43	0.8
348.39	64180	1427.64	0.81
348.4	64670	1429.6	0.81
355.98	270	1081.04	0.79
355.95	490	1082.63	0.8
355.94	920	1085.65	0.8
355.95	2620	1097.05	0.8
355.98	5370	1115.13	0.79
355.96	10930	1149.89	0.79
355.89	12280	1158.25	0.78
355.92	15640	1177.67	0.78
355.94	20950	1207.26	0.78
355.95	25050	1229.15	0.78
355.95	31130	1260.21	0.78
356.05	34600	1276.89	0.78
356.02	41360	1308.87	0.78
356.02	45060	1325.7	0.78
356.08	50520	1349.51	0.79
356.04	54960	1368.53	0.79
356	59390	1387.08	0.79
355.98	65160	1410.32	0.8
373.59	240	1014.61	0.83
373.58	570	1017.06	0.84
373.55	950	1020.07	0.87
373.53	2520	1031.71	0.84
373.54	2530	1031.73	0.84
373.53	5450	1052.49	0.82
373.6	10260	1084.6	0.82
373.61	14920	1114.21	0.81
373.6	19750	1143.36	0.82
373.62	20290	1146.4	0.82
373.63	24920	1172.65	0.8
373.6	29800	1199.11	0.8
373.6	29850	1199.31	0.8
373.6	35000	1226.08	0.8
373.62	39790	1249.82	0.81
373.62	40800	1254.88	0.79
373.57	44340	1271.77	0.8
373.58	49640	1296.23	0.8
373.63	54980	1319.83	0.8
373.62	58970	1337.14	0.83
373.61	59070	1337.54	0.83
373.64	64880	1361.68	0.8
398.2	220	923.76	0.91
398.21	500	926.17	0.93
398.22	1040	930.76	0.92
398.25	2490	942.77	0.91
398.24	5190	964.55	0.89
398.25	10300	1002.89	0.87
398.26	12650	1019.53	0.85
398.24	15110	1036.53	0.85
398.25	19720	1066.63	0.82
398.22	20010	1068.47	0.9
398.22	24890	1098.56	0.83
398.2	29920	1127.9	0.82
398.25	31220	1135.23	0.81
398.24	31220	1135.21	0.82
398.21	34890	1155.44	0.82
398.19	37260	1168.3	0.8
398.2	37270	1168.29	0.8
398.2	40070	1182.91	0.81
398.21	44950	1207.53	0.81
398.23	50040	1232.26	0.81
398.2	54810	1254.71	0.81
398.2	60130	1278.81	0.81
398.21	64730	1298.96	0.82
422.73	190	834.7	1.02
422.72	550	838.3	0.94
422.75	780	840.37	1.03
422.74	1230	844.88	1.01
422.65	2630	858.44	1
422.57	5690	886.27	0.96
422.74	9190	915.48	0.96
422.75	10020	922.14	0.95
422.7	14830	959.38	0.9
422.75	19940	995.75	0.88
422.75	24810	1028.16	0.87
422.73	28590	1052.11	0.86
422.75	29890	1060.03	0.85
422.77	34850	1089.33	0.84
422.77	40720	1122.29	0.84
422.74	44830	1144.36	0.83
422.72	50170	1171.8	0.83
422.73	54780	1194.57	0.82
422.76	59900	1218.69	0.83
422.75	64580	1240.21	0.83
447.07	300	748.43	1.21
447.07	580	751.73	1.2
447.02	1020	756.94	1.19
446.94	5130	800.91	1.12
447.01	7300	821.88	1.08
446.99	10180	848.37	1.05
446.99	14830	887.97	1.01
447	19890	927.32	0.98
447.03	22500	946.32	0.95
447.02	24900	963.22	0.95
447.09	30510	1000.66	0.92
447.13	35270	1030.41	0.91
447.12	40150	1059.45	0.9
447.13	45010	1086.93	0.89
447.08	49880	1113.32	0.88
447.11	54450	1136.99	0.88
447.13	59760	1163.32	0.87
447.08	64750	1187.32	0.87

System: toluene; phases: Liquid
Fixed: Frequency, MHz = 5
Property: Speed of sound, m/s (Liquid); method: Pulse-echo method
Temperature, K	Pressure, kPa	Speed of sound, m/s	uncertainty
323.29	10200	1253.17	0.78
323.32	20600	1305.92	0.78
323.32	20480	1305.37	0.78
323.34	31540	1356.69	0.79
323.37	44870	1413.48	0.79
323.39	60820	1475.53	0.81
323.38	60790	1475.45	0.81
373.85	35520	1209.33	0.84
373.83	21270	1132.5	0.83
373.82	7570	1046.51	0.84
373.83	2170	1007.88	0.86
373.9	50350	1279.95	0.81
373.87	64470	1340.7	0.83
422.93	6580	863.73	1.05
422.98	20740	974.49	0.96
423.01	36450	1073.37	0.92
423.04	56200	1176.92	0.91

System: water; phases: Liquid
Fixed: Frequency, MHz = 5
Property: Speed of sound, m/s (Liquid); method: Pulse-echo method
Temperature, K	Pressure, kPa	Speed of sound, m/s	uncertainty
306.13	1030	1517.32	0.75
306.14	4950	1523.98	0.76
306.15	19980	1549.52	0.77
306.16	29980	1566.52	0.77
306.16	39950	1583.29	0.78
306.16	49950	1600.12	0.79
306.15	59750	1616.5	0.8
357.99	400	1553.65	0.78
357.97	20280	1593.14	0.78
358	30380	1612.5	0.79
358	40230	1630.93	0.8
358.01	50080	1648.97	0.81
358.03	59980	1666.76	0.81
420.93	1180	1471.45	0.82
421.06	20130	1520.63	0.82
421.12	40030	1568.6	0.81
421.2	59900	1613.13	0.84
