Measured thermophysical data. Investigation on some thermophysical properties of poly(ethylene glycol) binary mixtures at different temperatures
Source: J. Chem. Thermodyn., 2013, 10.1016/j.jct.2012.11.016
Compound 1: 1,2-ethanediol, C2H6O2, InChI=1S/C2H6O2/c3-1-2-4/h3-4H,1-2H2, purity 98%
Compound 2: propan-1,3-diol, C3H8O2, InChI=1S/C3H8O2/c4-2-1-3-5/h4-5H,1-3H2, purity 98%
Compound 3: 1,4-butanediol, C4H10O2, InChI=1S/C4H10O2/c5-3-1-2-4-6/h5-6H,1-4H2, purity 98%
Compound 4: water, H2O, InChI=1S/H2O/h1H2

System: 1,2-ethanediol; phases: Liquid
Fixed: Pressure, kPa = 101.325
Property: Mass density, kg/m3 (Liquid); method: Vibrating tube method
Temperature, K	Mass density, kg/m3	uncertainty
298.15	1109.7	1.1
303.15	1106	1.1
308.15	1102.7	1.1

System: 1,2-ethanediol; phases: Liquid
Fixed: Pressure, kPa = 101.325
Property: Viscosity, Pa*s (Liquid); method: Capillary tube (Ostwald; Ubbelohde) method
Temperature, K	Viscosity, Pa*s	uncertainty
298.15	0.016867	0.001701
303.15	0.013588	0.001371
308.15	0.011338	0.001144

System: propan-1,3-diol; phases: Liquid
Fixed: Pressure, kPa = 101.325
Property: Mass density, kg/m3 (Liquid); method: Vibrating tube method
Temperature, K	Mass density, kg/m3	uncertainty
298.15	1049.6	0.9
303.15	1046.2	0.9
308.15	1043.1	0.9

System: propan-1,3-diol; phases: Liquid
Fixed: Pressure, kPa = 101.325
Property: Viscosity, Pa*s (Liquid); method: Capillary tube (Ostwald; Ubbelohde) method
Temperature, K	Viscosity, Pa*s	uncertainty
298.15	0.041362	0.004174
303.15	0.032777	0.003309
308.15	0.026997	0.002725

System: 1,4-butanediol; phases: Liquid
Fixed: Pressure, kPa = 101.325
Property: Mass density, kg/m3 (Liquid); method: Vibrating tube method
Temperature, K	Mass density, kg/m3	uncertainty
298.15	1013.9	0.9
303.15	1010.6	0.9
308.15	1007.5	0.9

System: 1,4-butanediol; phases: Liquid
Fixed: Pressure, kPa = 101.325
Property: Viscosity, Pa*s (Liquid); method: Capillary tube (Ostwald; Ubbelohde) method
Temperature, K	Viscosity, Pa*s	uncertainty
298.15	0.072326	0.007309
303.15	0.056432	0.0057
308.15	0.044113	0.004464

System: water; phases: Liquid
Fixed: Pressure, kPa = 101.325
Property: Mass density, kg/m3 (Liquid); method: Vibrating tube method
Temperature, K	Mass density, kg/m3	uncertainty
298.15	997	0.3
303.15	995.4	0.3
308.15	993.7	0.3

System: water; phases: Liquid
Fixed: Pressure, kPa = 101.325
Property: Viscosity, Pa*s (Liquid); method: Capillary tube (Ostwald; Ubbelohde) method
Temperature, K	Viscosity, Pa*s	uncertainty
298.15	0.000806	8.1e-05
303.15	0.000728	7.3e-05
308.15	0.000661	6.6e-05

System: water; phases: Liquid
Fixed: Pressure, kPa = 101.325
Property: Refractive index (Na D-line) (Liquid); method: Standard Abbe refractometry
Temperature, K	Refractive index (Na D-line)	uncertainty
298.15	1.3326	0.0005
303.15	1.3321	0.0005
308.15	1.3315	0.0005
