Measured thermophysical data. Vapor pressures, excess enthalpies, and specific heat capacities of the binary working pairs containing the ionic liquid 1-ethyl-3-methylimidazolium dimethylphosphate
Source: J. Chem. Thermodyn., 2011, 10.1016/j.jct.2010.11.014
Compound 1: 1-ethyl-3-methylimidazolium dimethylphosphate, C8H17N2O4P, InChI=1S/C6H11N2.C2H7O4P/c1-3-8-5-4-7(2)6-8;1-5-7(3,4)6-2/h4-6H,3H2,1-2H3;1-2H3,(H,3,4)/q+1;/p-1, purity 99%
Compound 2: water, H2O, InChI=1S/H2O/h1H2, purity 99.8%
Compound 3: methanol, CH4O, InChI=1S/CH4O/c1-2/h2H,1H3, purity 99.8%
Compound 4: ethanol, C2H6O, InChI=1S/C2H6O/c1-2-3/h3H,2H2,1H3, purity 99.8%

System: water + 1-ethyl-3-methylimidazolium dimethylphosphate; phases: Liquid
Fixed: Pressure, kPa = 101.3
Fixed: Temperature, K = 298.15
Property: Excess molar enthalpy (molar enthalpy of mixing), kJ/mol (Liquid); method: Adiabatic Solution Calorimetry
Mole fraction of 1-ethyl-3-methylimidazolium dimethylphosphate	Excess molar enthalpy (molar enthalpy of mixing), kJ/mol	uncertainty
0.18	-5.29136	0.12309
0.31	-6.30442	0.12464
0.45	-6.02114	0.12416
0.64	-4.80675	0.12253
0.82	-2.52888	0.12018

System: water + 1-ethyl-3-methylimidazolium dimethylphosphate; phases: Liquid
Fixed: Pressure, kPa = 101.3
Property: Molar heat capacity at constant pressure, J/K/mol (Liquid); method: Adiabatic Solution Calorimetry
Temperature, K	Mole fraction of 1-ethyl-3-methylimidazolium dimethylphosphate	Molar heat capacity at constant pressure, J/K/mol	uncertainty
298.15	0.18	119.01528	16.730942
298.15	0.4	167.14041	30.746544
298.15	0.6	224.65756	43.488715
298.15	0.8	279.13914	56.230064
298.15	1	329.37122	68.972692
303.15	0.18	125.02197	16.730884
303.15	0.4	176.73509	30.747071
303.15	0.6	242.41188	43.489013
303.15	0.8	288.71783	56.230642
303.15	1	346.23368	68.972928
313.15	0.18	134.90516	16.730541
313.15	0.4	203.4992	30.747176
313.15	0.6	276.49258	43.488864
313.15	0.8	323.78416	56.231027
313.15	1	381.64159	68.972692
323.15	0.18	148.4099	16.730483
323.15	0.4	228.81776	30.748229
323.15	0.6	304.0533	43.488715
323.15	0.8	352.68121	56.231604
323.15	1	411.73888	68.972692

System: water + 1-ethyl-3-methylimidazolium dimethylphosphate; phases: Gas, Liquid
Property: Vapor or sublimation pressure, kPa (Gas); method: Closed cell (Static) method
Temperature, K	Mole fraction of 1-ethyl-3-methylimidazolium dimethylphosphate	Vapor or sublimation pressure, kPa	uncertainty
320.35	0.1	6.27	0.22
338.45	0.1	16.41	0.4
341.55	0.1	18.95	0.45
344.55	0.1	21.75	0.5
347.25	0.1	24.42	0.55
347.65	0.2	13.34	0.35
350.25	0.1	27.88	0.63
351.65	0.2	15.61	0.43
352.85	0.1	31.09	0.69
354.5	0.1	33.35	0.75
354.65	0.2	17.88	0.48
356.15	0.1	35.49	0.78
357.65	0.2	20.55	0.54
357.85	0.1	38.02	0.85
359.15	0.1	40.16	0.88
361.15	0.2	23.35	0.57
364.15	0.2	26.15	0.58
364.15	0.3	14.28	0.38
367.15	0.2	29.62	0.67
369.65	0.3	17.74	0.42
370.15	0.2	32.95	0.73
370.15	0.4	11.94	0.27
372.65	0.2	36.42	0.81
373.65	0.3	20.68	0.48
376.65	0.3	22.95	0.49
377.15	0.4	15.41	0.35
379.65	0.3	25.88	0.55
382.65	0.3	28.95	0.63
384.15	0.4	19.27	0.43
384.15	0.51	12.07	0.28
385.65	0.3	32.02	0.69
388.15	0.3	35.36	0.77
390.65	0.4	24.34	0.56
393.65	0.4	26.88	0.59
398.15	0.51	18.47	0.45
398.65	0.4	32.08	0.69
401.15	0.51	20.47	0.49
402.15	0.4	36.08	0.77
404.15	0.51	22.74	0.55
405.15	0.4	39.82	0.85
408.15	0.4	43.56	0.93
408.15	0.51	26.21	0.62
411.15	0.51	29.01	0.66

System: methanol + 1-ethyl-3-methylimidazolium dimethylphosphate; phases: Liquid
Fixed: Pressure, kPa = 101.3
Fixed: Temperature, K = 298.15
Property: Excess molar enthalpy (molar enthalpy of mixing), kJ/mol (Liquid); method: Adiabatic Solution Calorimetry
Mole fraction of 1-ethyl-3-methylimidazolium dimethylphosphate	Excess molar enthalpy (molar enthalpy of mixing), kJ/mol	uncertainty
0.1	-1.5716492	0.1832583
0.3	-3.3601797	0.18385273
0.5	-3.3513579	0.1836758
0.65	-2.5937872	0.18329811
0.79	-1.8203737	0.18284002

System: methanol + 1-ethyl-3-methylimidazolium dimethylphosphate; phases: Liquid
Fixed: Pressure, kPa = 101.3
Property: Molar heat capacity at constant pressure, J/K/mol (Liquid); method: Adiabatic Solution Calorimetry
Temperature, K	Mole fraction of 1-ethyl-3-methylimidazolium dimethylphosphate	Molar heat capacity at constant pressure, J/K/mol	uncertainty
298.15	0.2	147.02685	27.986022
298.15	0.41	213.83699	44.448627
298.15	0.59	269.25644	58.562116
298.15	0.77	297.59406	72.67116
298.15	1	329.37122	90.70359
303.15	0.2	163.63577	27.9885
303.15	0.41	229.84471	44.449785
303.15	0.59	289.07269	58.562268
303.15	0.77	306.36683	72.672481
303.15	1	346.23368	90.70359
313.15	0.2	215.27761	27.989811
313.15	0.41	271.98901	44.451752
313.15	0.59	337.8226	58.562878
313.15	0.77	334.15579	72.673805
313.15	1	381.64159	90.70359
323.15	0.2	252.07927	27.991269
323.15	0.41	312.32658	44.455456
323.15	0.59	370.92832	58.563183
323.15	0.77	371.12289	72.676076
323.15	1	411.73888	90.703354

System: methanol + 1-ethyl-3-methylimidazolium dimethylphosphate; phases: Gas, Liquid
Property: Vapor or sublimation pressure, kPa (Gas); method: Closed cell (Static) method
Temperature, K	Mole fraction of 1-ethyl-3-methylimidazolium dimethylphosphate	Vapor or sublimation pressure, kPa	uncertainty
301.95	0.11	14.81	0.35
306.45	0.11	17.48	0.4
310.15	0.11	20.15	0.47
312.65	0.11	23.61	0.54
313.3	0.2	13.61	0.38
313.95	0.11	25.22	0.57
315.5	0.11	26.95	0.62
317.65	0.11	29.75	0.67
317.65	0.2	16.81	0.45
319.35	0.11	32.29	0.72
321.15	0.11	34.82	0.79
321.35	0.2	19.75	0.52
322.35	0.11	36.69	0.82
325.35	0.2	23.35	0.59
327.25	0.2	25.22	0.63
328.95	0.2	27.22	0.68
331.25	0.2	30.15	0.73
333.05	0.2	32.55	0.78
334.75	0.2	34.95	0.86
336.5	0.2	37.62	0.91
340.25	0.41	11.34	0.31
344.45	0.3	25.35	0.57
346.05	0.41	14.81	0.38
347.45	0.3	28.82	0.64
348.75	0.41	16.68	0.42
351.35	0.41	18.68	0.47
351.95	0.3	33.89	0.74
354.05	0.3	36.96	0.79
355.55	0.3	38.82	0.84
357.45	0.41	24.01	0.56
357.85	0.3	41.49	0.89
359.05	0.5	16.01	0.4
359.65	0.3	44.43	0.96
360.15	0.41	26.82	0.61
360.65	0.3	46.3	1
364.25	0.5	19.75	0.48
364.5	0.41	31.35	0.7
367.05	0.41	34.02	0.75
368.85	0.5	22.68	0.55
369.55	0.41	37.09	0.81
371.6	0.5	25.22	0.59
377.15	0.5	29.89	0.68
379.15	0.5	32.95	0.77
381.65	0.5	35.89	0.8
383.65	0.5	38.29	0.85
386.15	0.5	41.49	0.92

System: ethanol + 1-ethyl-3-methylimidazolium dimethylphosphate; phases: Liquid
Fixed: Pressure, kPa = 101.3
Fixed: Temperature, K = 298.15
Property: Excess molar enthalpy (molar enthalpy of mixing), kJ/mol (Liquid); method: Adiabatic Solution Calorimetry
Mole fraction of 1-ethyl-3-methylimidazolium dimethylphosphate	Excess molar enthalpy (molar enthalpy of mixing), kJ/mol	uncertainty
0.15	-1.7918911	0.0858858
0.31	-2.7432179	0.0864514
0.47	-2.3827999	0.0859091
0.59	-2.18438	0.08586
0.8	-1.19523	0.08502

System: ethanol + 1-ethyl-3-methylimidazolium dimethylphosphate; phases: Liquid
Fixed: Pressure, kPa = 101.3
Property: Molar heat capacity at constant pressure, J/K/mol (Liquid); method: Adiabatic Solution Calorimetry
Temperature, K	Mole fraction of 1-ethyl-3-methylimidazolium dimethylphosphate	Molar heat capacity at constant pressure, J/K/mol	uncertainty
298.15	0.2	153.20521	38.013084
298.15	0.4	220.84252	55.200922
298.15	0.6	272.51055	72.388885
298.15	0.8	324.35421	89.579836
298.15	1	329.37122	106.76532
303.15	0.2	171.3128	38.013
303.15	0.4	235.29373	55.201533
303.15	0.6	289.67101	72.389686
303.15	0.8	348.57652	89.579044
303.15	1	346.23368	106.76532
313.15	0.2	205.62761	38.014261
313.15	0.4	282.27955	55.202266
313.15	0.6	340.77924	72.390486
313.15	0.8	403.99799	89.579242
313.15	1	381.64159	106.76532
323.15	0.2	258.82916	38.016027
323.15	0.4	335.32414	55.203731
323.15	0.6	398.33882	72.391607
323.15	0.8	448.05079	89.58043
323.15	1	411.73888	106.76532

System: ethanol + 1-ethyl-3-methylimidazolium dimethylphosphate; phases: Gas, Liquid
Property: Vapor or sublimation pressure, kPa (Gas); method: Closed cell (Static) method
Temperature, K	Mole fraction of 1-ethyl-3-methylimidazolium dimethylphosphate	Vapor or sublimation pressure, kPa	uncertainty
309.05	0.11	10.94	0.25
312.75	0.11	13.21	0.3
316.75	0.11	16.28	0.35
320.05	0.11	19.08	0.41
320.15	0.31	7.47	0.2
322.55	0.11	21.75	0.49
325.65	0.11	24.95	0.56
327.35	0.11	27.22	0.61
327.95	0.31	10.81	0.28
329.55	0.11	30.15	0.67
331.35	0.11	32.82	0.72
332.15	0.2	22.28	0.5
332.65	0.31	13.48	0.32
332.8	0.11	35.09	0.76
334.45	0.2	25.22	0.55
336.45	0.31	16.28	0.39
337.15	0.2	28.28	0.61
338.85	0.2	30.55	0.67
340.6	0.31	19.48	0.47
340.9	0.2	33.35	0.72
343.05	0.2	36.42	0.79
343.1	0.31	21.75	0.52
344.65	0.2	39.09	0.85
345.75	0.31	24.55	0.58
346.05	0.4	13.34	0.37
346.2	0.2	41.63	0.9
347.45	0.2	44.03	0.96
348	0.31	26.95	0.62
350.15	0.4	16.01	0.45
350.55	0.31	30.15	0.7
351.05	0.2	51.1	1.1
352.65	0.31	32.82	0.76
353	0.4	18.54	0.5
359	0.4	23.75	0.58
360.85	0.4	25.62	0.63
362.85	0.4	27.75	0.67
365.7	0.4	30.95	0.68
367.55	0.4	33.49	0.73
369.35	0.4	35.49	0.76
373.5	0.5	27.48	0.61
376.15	0.5	30.42	0.67
379.15	0.5	34.02	0.75
381.15	0.5	37.36	0.82
383.15	0.5	39.89	0.86
385.15	0.5	43.09	0.92
387.15	0.5	45.49	0.97
389.15	0.5	49.1	1.09
