Measured thermophysical data. Densities and apparent molar volumes of HClO4(aq) and Yb(ClO4)3(aq) at elevated temperatures and pressures
Source: J. Chem. Thermodyn., 2004, 10.1016/j.jct.2004.01.007
Compound 1: perchloric acid, ClHO4, InChI=1S/ClHO4/c2-1(3,4)5/h(H,2,3,4,5), purity 99.9%
Compound 2: water, H2O, InChI=1S/H2O/h1H2, purity 99.9%
Compound 3: ytterbium perchlorate, Cl3O12Yb, InChI=1S/3ClHO4.Yb/c3*2-1(3,4)5;/h3*(H,2,3,4,5);/q;;;+3/p-3, purity 99.9%

System: water + ytterbium perchlorate; phases: Liquid
Property: Mass density, kg/m3 (Liquid); method: VIBTUB:UFactor:2
Molality, mol/kg of ytterbium perchlorate	Temperature, K	Pressure, kPa	Mass density, kg/m3	uncertainty
0.0225	372.92	20.06	8.146	0.118
0.0225	372.95	20.06	8.077	0.118
0.0231	347.9	10.04	8.402	0.115
0.0231	372.29	30.07	8.31	0.118
0.0231	372.4	30.06	8.358	0.118
0.0235	421.83	10.05	8.367	0.131
0.0235	421.94	10.18	8.351	0.131
0.0242	346.77	30.01	8.838	0.116
0.0242	346.8	30.03	8.821	0.116
0.0242	347.53	20.04	8.809	0.116
0.0245	397.89	20.06	8.754	0.124
0.0253	421.47	20.01	8.972	0.132
0.03	398.38	10.03	10.675	0.127
0.03	398.5	10.03	10.773	0.128
0.0453	398.03	20.05	16.15	0.137
0.0453	398.06	20.06	16.206	0.137
0.0464	398.31	30.04	16.609	0.138
0.0474	421.76	10.05	16.796	0.145
0.0474	421.79	10.05	16.716	0.145
0.0486	346.71	30.02	17.682	0.131
0.0486	346.73	30.03	17.69	0.131
0.0486	347.54	20.04	17.641	0.131
0.0486	347.54	20.04	17.646	0.131
0.0489	398.66	10.12	17.408	0.139
0.049	421.28	20	17.281	0.146
0.049	421.32	20.01	17.379	0.146
0.0536	372.61	10.06	19.073	0.137
0.0536	372.62	10.06	19.223	0.137
0.0536	372.78	20.06	19.095	0.137
0.0536	372.88	20.06	19.218	0.137
0.0548	347.73	10.03	19.891	0.135
0.0548	347.77	10.04	19.845	0.135
0.0548	372.41	30.06	19.597	0.138
0.0548	372.46	30.04	19.691	0.138
0.0708	398.17	20.07	25.138	0.152
0.0708	398.23	20.07	25.025	0.152
0.071	421.56	10.05	25.104	0.16
0.071	421.66	10.05	24.998	0.16
0.0718	420.74	20.02	25.237	0.16
0.0718	421.34	20.02	25.409	0.16
0.0733	398.92	10.03	25.868	0.154
0.0733	398.98	10.04	25.987	0.154
0.0751	346.67	30.01	27.175	0.148
0.0751	346.71	30.02	27.178	0.148
0.0751	347.61	20.05	27.058	0.148
0.0751	347.65	20.04	27.091	0.148
0.0813	372.32	10.05	28.765	0.154
0.0813	372.33	10.05	28.835	0.154
0.0813	372.5	20.06	29.051	0.155
0.0813	372.58	20.07	28.789	0.154
0.0849	347.69	10.04	30.603	0.155
0.0849	347.7	10.04	30.533	0.154
0.0849	372.43	30.04	30.24	0.157
0.0849	372.56	30.06	30.141	0.157
0.0936	421.2	10.06	32.772	0.174
0.0936	421.23	10.05	32.838	0.174
0.0939	398.64	30.05	33.244	0.167
0.0951	398.42	20.07	33.64	0.168
0.0951	398.44	20.05	33.654	0.168
0.0959	421.45	20.01	33.722	0.176
0.0959	421.49	20.01	33.781	0.176
0.096	398.87	10.03	33.912	0.168
0.096	398.91	10.04	33.804	0.168
0.1046	346.8	30.02	37.626	0.168
0.1046	347.15	30.01	37.716	0.168
0.1046	347.48	20.05	37.568	0.168
0.1046	347.54	20.06	37.588	0.168
0.1121	372.33	20.05	39.76	0.174
0.1121	372.35	20.06	39.875	0.174
0.1121	372.53	10.06	39.706	0.174
0.1121	372.55	10.06	39.603	0.174
0.1192	347.92	10.04	42.684	0.177
0.1192	348.03	10.04	42.68	0.177
0.1192	372.69	30.06	42.289	0.179
0.1192	372.74	30.07	42.373	0.179
0.1193	398.58	30.05	42.143	0.184
0.1193	421.52	10.05	41.818	0.19
0.1193	421.55	10.05	41.8	0.19
0.1198	421.06	20.02	41.878	0.19
0.1198	421.08	20	41.936	0.19
0.1201	398.34	20.06	42.259	0.184
0.1201	398.44	20.06	42.328	0.184
0.121	398.92	10.03	42.442	0.184
0.121	398.99	10.03	42.53	0.184
0.1382	347.27	30.02	49.587	0.19
0.1382	347.43	30.01	49.669	0.191
0.1382	347.57	20.05	49.514	0.19
0.1382	347.6	20.05	49.509	0.19
0.1416	372.41	20.05	50.125	0.194
0.1416	372.47	20.06	50.129	0.194
0.1416	372.65	10.05	49.81	0.193
0.1416	372.78	10.16	49.842	0.193
0.1428	398.55	30.05	50.218	0.199
0.1432	421.04	20.03	50.126	0.206
0.1432	421.15	20.01	50.105	0.206
0.1443	399.03	10.02	50.609	0.199
0.1443	399.03	10.11	50.587	0.199
0.1452	421.6	10.05	50.664	0.207
0.1452	421.68	10.05	50.677	0.207
0.1473	398.54	20.05	51.535	0.201
0.1473	398.63	20.05	51.661	0.201
0.1499	348.08	10.03	53.433	0.197
0.1499	348.1	10.04	53.486	0.197
0.1499	372.72	30.07	52.861	0.199
0.1499	372.77	30.07	53.013	0.199
0.1685	398.7	20.04	58.871	0.215
0.1685	398.71	20.05	58.892	0.215
0.1697	399.07	10.04	59.225	0.216
0.1697	399.09	10.03	59.593	0.216
0.1702	420.9	20.01	59.072	0.222
0.1702	420.92	20.03	59.313	0.223
0.1717	398.57	30.06	60.252	0.218
0.1726	421.51	10.05	60.29	0.225
0.1726	421.57	10.04	59.93	0.224
0.1776	347.46	20.06	63.22	0.216
0.1776	347.5	20.06	63.176	0.216
0.1776	347.73	30.02	63.365	0.217
0.1776	347.83	30.02	63.46	0.217
0.1793	372.71	20.04	63.104	0.218
0.1793	372.72	20.04	62.933	0.218
0.1793	372.92	10.05	62.812	0.218
0.1793	372.92	10.06	62.821	0.218
0.189	348.06	10.03	67.147	0.224
0.189	348.11	10.05	67.194	0.224
0.189	373.06	30.08	66.379	0.225
0.189	373.09	30.09	66.535	0.225
0.1919	398.97	10.04	66.888	0.23
0.1919	399.08	10.04	66.412	0.229
0.1984	398.66	20.03	69.121	0.235
0.1984	398.69	20.04	68.962	0.234
0.1994	420.83	20	68.934	0.241
0.1994	420.93	20.01	69.213	0.242
0.2001	398.62	30.04	69.996	0.237
0.2001	398.62	30.05	69.731	0.236
0.2008	421.57	10.05	69.453	0.242
0.2008	421.59	10.05	69.486	0.242
0.2064	372.48	20.03	72.282	0.236
0.2064	372.53	20.04	72.175	0.236
0.2064	372.61	10.05	71.88	0.235
0.2064	372.67	10.06	72.015	0.235
0.2163	348.11	10.05	76.481	0.242
0.2163	348.13	10.04	76.518	0.242
0.2163	373.04	30.09	75.815	0.243
0.2163	373.08	30.09	75.857	0.243
0.2215	398.74	10.02	76.97	0.249
0.2215	398.82	10.03	76.775	0.249
0.222	398.56	20.06	77.011	0.25
0.222	398.57	20.05	77.038	0.25
0.2224	398.59	30.05	77.639	0.251
0.2224	398.59	30.06	77.402	0.251
0.2227	347.34	30.01	79.018	0.247
0.2227	347.4	30.01	79.04	0.247
0.2227	347.61	20.06	78.781	0.246
0.2227	347.76	20.04	78.795	0.246
0.2248	420.65	10.05	77.601	0.257
0.2248	421.38	10.05	77.64	0.258
0.226	420.89	20.01	78.056	0.259
0.226	420.92	20	78.136	0.259
0.2531	347.05	30.02	89.637	0.268
0.2531	347.12	30.03	89.529	0.268
0.2531	347.56	20.04	89.34	0.267
0.2531	347.65	20.04	89.348	0.267
0.2531	348.03	10.04	88.992	0.266
0.2531	348.06	10.05	89.092	0.266
0.2531	372.09	20.02	88.108	0.267
0.2531	372.23	20.06	88.162	0.267
0.2531	372.44	10.06	87.999	0.266
0.2531	372.57	10.06	87.948	0.266
0.2531	372.94	30.09	88.298	0.267
0.2531	373.02	30.09	88.33	0.268
0.2531	398.3	10.02	87.826	0.27
0.2531	398.47	10.02	87.762	0.27
0.2531	398.55	30.06	87.653	0.271
0.2531	398.58	30.05	87.761	0.271
0.2531	398.65	20.04	87.685	0.27
0.2531	398.66	20.06	87.631	0.27
0.2531	420.68	20	87.113	0.276
0.2531	420.72	20.01	87.062	0.276
0.2531	420.88	10.05	86.868	0.275
0.2531	420.97	10.05	86.988	0.276

System: perchloric acid + water; phases: Liquid
Property: Mass density, kg/m3 (Liquid); method: VIBTUB:UFactor:2
Temperature, K	Pressure, kPa	Molality, mol/kg of perchloric acid	Mass density, kg/m3	uncertainty
346.29	20.02	0.0384	2.075	0.104
346.48	29.95	0.0488	2.618	0.105
346.49	20.03	0.0769	4.016	0.108
346.53	20.02	0.0769	3.972	0.108
346.54	29.92	0.0781	4.218	0.108
346.54	29.95	0.0488	2.677	0.106
346.73	20.04	0.3996	20.219	0.136
346.75	20.04	0.3611	18.239	0.132
346.77	20.04	0.3996	20.179	0.136
346.78	20.04	0.117	6.046	0.111
346.79	29.91	0.1186	6.156	0.111
346.81	20.04	0.3611	18.218	0.132
346.83	29.91	0.1186	6.182	0.111
346.84	20.03	0.2377	12.064	0.121
346.85	20.02	0.1546	7.897	0.114
346.85	20.02	0.3056	15.477	0.127
346.88	20.03	0.117	6.093	0.111
346.89	20.03	0.1546	7.881	0.114
346.9	20.03	0.2377	12.133	0.121
346.92	20.03	0.2758	13.987	0.125
346.92	20.03	0.2758	14.029	0.125
346.97	29.94	0.1544	7.945	0.114
346.99	20.02	0.201	10.295	0.118
347.01	10.01	0.3153	15.863	0.128
347.03	29.93	0.1544	7.977	0.114
347.07	10.01	0.3153	15.932	0.128
347.09	10.01	0.3545	17.846	0.131
347.1	10.01	0.2742	13.913	0.125
347.12	10.01	0.3996	20.118	0.135
347.12	10.01	0.3996	20.066	0.135
347.27	10	0.1178	6.051	0.111
347.27	10.01	0.2354	11.918	0.121
347.28	10	0.1564	8.028	0.114
347.31	10.01	0.2354	11.935	0.121
347.31	29.91	0.1965	10.087	0.118
347.32	29.82	0.3996	20.256	0.136
347.33	10.01	0.1992	10.104	0.118
347.34	10.01	0.1992	10.108	0.118
347.36	10	0.0606	3.267	0.107
347.38	10	0.0606	3.261	0.107
347.52	29.81	0.3581	18.134	0.132
347.55	29.9	0.1965	10.236	0.118
347.68	29.92	0.3148	15.954	0.128
347.69	29.93	0.2766	14.235	0.125
347.71	29.91	0.2766	14.123	0.125
347.71	29.93	0.2351	12.012	0.121
347.75	29.91	0.2351	11.997	0.121
371.48	30.05	0.0402	2.099	0.108
371.57	20.01	0.0432	2.209	0.108
371.63	10.05	0.0432	2.222	0.108
371.64	20.01	0.0432	2.303	0.108
371.66	10.05	0.0432	2.155	0.108
371.77	10.05	0.0773	3.97	0.111
371.77	30.05	0.079	4.121	0.111
371.8	20.02	0.0773	3.955	0.111
371.82	10.05	0.0773	3.964	0.111
371.85	10.06	0.1174	5.98	0.114
371.86	30.04	0.079	3.962	0.111
371.91	20.02	0.0773	3.978	0.111
372	10.05	0.1585	8.085	0.118
372.02	10.04	0.1967	9.817	0.121
372.14	20.01	0.1174	5.951	0.114
372.21	20.02	0.1174	6.011	0.114
372.23	20.03	0.1585	7.979	0.118
372.25	20.03	0.1585	7.981	0.118
372.25	30.04	0.1137	5.945	0.114
372.28	10.05	0.2354	11.873	0.124
372.3	20.01	0.1967	10.001	0.121
372.31	10.05	0.2354	11.595	0.124
372.36	10.05	0.2751	13.665	0.127
372.36	30.04	0.1137	5.721	0.114
372.4	10.05	0.3117	15.523	0.13
372.42	10.05	0.3535	17.463	0.134
372.44	10.05	0.3117	15.43	0.13
372.44	10.05	0.3535	17.575	0.134
372.46	20	0.2354	11.938	0.124
372.46	30.04	0.1553	7.742	0.117
372.48	20.01	0.2751	13.761	0.127
372.49	20.01	0.2751	13.672	0.127
372.5	10.05	0.3996	19.654	0.138
372.53	30.04	0.1553	7.765	0.117
372.57	10.05	0.3996	19.622	0.138
372.67	20.02	0.3535	17.719	0.134
372.73	30.04	0.1935	9.726	0.121
372.75	30.05	0.1935	9.709	0.121
372.89	30.05	0.2353	11.7	0.124
372.92	20	0.3996	19.844	0.138
372.97	30.04	0.2353	11.819	0.124
373.03	20.02	0.3996	19.796	0.138
373.27	30.05	0.3529	17.497	0.134
373.3	30.05	0.3996	20.103	0.139
373.33	30.04	0.3146	15.699	0.131
373.33	30.05	0.3996	19.854	0.138
373.35	30.06	0.3146	15.613	0.131
373.37	30.04	0.3529	17.61	0.134
396.86	30.07	0.0414	2.207	0.113
397.02	30.08	0.0414	2.04	0.113
397.43	30.08	0.1993	9.895	0.126
397.45	30.08	0.0824	4.131	0.116
397.47	30.08	0.1229	6.097	0.12
397.47	30.08	0.1638	8.152	0.123
397.52	30.08	0.1229	6.495	0.12
397.53	30.09	0.0824	4.3	0.117
397.56	30.07	0.403	19.717	0.143
397.68	30.07	0.403	19.908	0.143
397.74	30.14	0.2409	11.912	0.129
397.78	30.13	0.2409	12.048	0.13
397.83	30.16	0.2815	13.739	0.133
397.88	30.08	0.3604	17.619	0.139
397.96	30.08	0.3604	17.75	0.139
398.47	10.01	0.0392	1.94	0.113
398.5	20.06	0.2755	13.228	0.132
398.63	20.07	0.3138	14.875	0.135
398.66	20.08	0.3138	14.796	0.134
398.7	20.07	0.3996	19.104	0.142
398.72	20.07	0.3534	16.93	0.138
398.73	20.07	0.3534	17.073	0.138
398.76	10.01	0.0778	4.016	0.117
398.95	10.01	0.0392	2.103	0.114
399.08	10.01	0.117	5.746	0.119
399.13	10	0.3996	19.239	0.142
399.24	10.01	0.3996	19.474	0.143
399.26	10.01	0.3547	17.152	0.139
399.27	10.01	0.158	7.91	0.123
399.29	10.01	0.3159	15.421	0.136
399.3	10.01	0.3547	17.177	0.139
399.32	10.02	0.2341	11.327	0.129
399.34	10.01	0.3159	15.275	0.135
399.35	10.01	0.274	13.212	0.132
399.35	10.01	0.274	13.201	0.132
421.08	20	0.1589	8.195	0.131
421.09	10.02	0.3166	16.055	0.144
421.1	10.02	0.2343	11.726	0.137
421.15	10.01	0.2343	11.776	0.137
421.19	20	0.196	9.684	0.133
421.2	10.02	0.275	13.717	0.14
421.25	10.01	0.0397	2.012	0.121
421.26	20.01	0.196	9.78	0.133
421.26	20.01	0.3996	21.196	0.153
421.27	20.01	0.1183	5.76	0.127
421.34	10.01	0.1959	9.894	0.134
421.34	20.01	0.3996	21.338	0.153
421.35	10.01	0.1959	9.793	0.133
421.38	10.01	0.3996	19.927	0.151
421.5	20.01	0.3106	16.37	0.145
421.51	10.01	0.0997	5.013	0.126
421.54	10.01	0.1164	5.841	0.127
421.64	10.01	0.1164	6.006	0.127
421.65	10.02	0.1546	8.081	0.131
421.67	20	0.2371	12.265	0.138
421.76	10.01	0.1546	8.077	0.131
421.89	20.01	0.2753	13.96	0.141
