Measured thermophysical data. Studies on intermolecular interactions in nitrobenzene + alkoxyethanol binary mixtures by relative permittivity measurements at T = (293.15, 298.15, 303.15, 308.15 and 313.15) K
Source: J. Chem. Thermodyn., 2012, 10.1016/j.jct.2012.02.011
Compound 1: nitrobenzene, C6H5NO2, InChI=1S/C6H5NO2/c8-7(9)6-4-2-1-3-5-6/h1-5H, purity 99.5%
Compound 2: 2-methoxyethan-1-ol, C3H8O2, InChI=1S/C3H8O2/c1-5-3-2-4/h4H,2-3H2,1H3, purity 99%
Compound 3: 2-ethoxyethan-1-ol, C4H10O2, InChI=1S/C4H10O2/c1-2-6-4-3-5/h5H,2-4H2,1H3, purity 98%
Compound 4: 2-propoxyethanol, C5H12O2, InChI=1S/C5H12O2/c1-2-4-7-5-3-6/h6H,2-5H2,1H3, purity 99%
Compound 5: 2-butoxyethan-1-ol, C6H14O2, InChI=1S/C6H14O2/c1-2-3-5-8-6-4-7/h7H,2-6H2,1H3, purity 98%

System: nitrobenzene; phases: Liquid
Fixed: Pressure, kPa = 101.3
Fixed: Frequency, MHz = 3
Property: Relative permittivity at various frequencies (Liquid); method: OH-301 Stainless Steel Cell
Temperature, K	Relative permittivity at various frequencies	uncertainty
293.15	35.91	0.06
298.15	34.78	0.04
303.15	33.84	0.05
308.15	33.13	0.05
313.15	32.66	0.04

System: 2-methoxyethan-1-ol; phases: Liquid
Fixed: Pressure, kPa = 101.3
Fixed: Frequency, MHz = 3
Property: Relative permittivity at various frequencies (Liquid); method: OH-301
Temperature, K	Relative permittivity at various frequencies	uncertainty
293.15	17.38	0.04
298.15	16.95	0.04
298.15	16.96	0.04
303.15	16.56	0.04
308.15	16.16	0.04
313.15	15.77	0.04

System: 2-ethoxyethan-1-ol; phases: Liquid
Fixed: Pressure, kPa = 101.3
Fixed: Frequency, MHz = 3
Property: Relative permittivity at various frequencies (Liquid); method: OH-301
Temperature, K	Relative permittivity at various frequencies	uncertainty
293.15	14.25	0.04
298.15	14.03	0.04
303.15	13.76	0.04
308.15	13.44	0.04
313.15	13.07	0.04

System: 2-propoxyethanol; phases: Liquid
Fixed: Pressure, kPa = 101.3
Fixed: Frequency, MHz = 3
Property: Relative permittivity at various frequencies (Liquid); method: OH-301
Temperature, K	Relative permittivity at various frequencies	uncertainty
293.15	11.76	0.04
298.15	11.5	0.04
303.15	11.19	0.04
308.15	10.91	0.04
313.15	10.62	0.04

System: 2-butoxyethan-1-ol; phases: Liquid
Fixed: Pressure, kPa = 101.3
Fixed: Frequency, MHz = 3
Property: Relative permittivity at various frequencies (Liquid); method: OH-301
Temperature, K	Relative permittivity at various frequencies	uncertainty
293.15	9.78	0.04
298.15	9.35	0.04
303.15	8.88	0.04
308.15	8.39	0.04
313.15	7.91	0.04

System: nitrobenzene + 2-methoxyethan-1-ol; phases: Liquid
Fixed: Pressure, kPa = 101.325
Fixed: Frequency, MHz = 3
Property: Relative permittivity at various frequencies (Liquid); method: OH-301
Temperature, K	Mole fraction of nitrobenzene	Relative permittivity at various frequencies	uncertainty
293.15	0	17.38	0.04
293.15	0.0505	19.13	0.05
293.15	0.1011	20.66	0.05
293.15	0.2003	23.41	0.05
293.15	0.3003	25.97	0.05
293.15	0.4002	28.41	0.05
293.15	0.4998	30.69	0.06
293.15	0.5997	32.75	0.06
293.15	0.7001	34.4	0.06
293.15	0.752	35.1	0.06
293.15	0.8004	35.62	0.06
293.15	0.8491	36.03	0.06
293.15	0.8974	36.21	0.06
293.15	0.9502	36.26	0.06
293.15	1	35.91	0.06
298.15	0	16.96	0.04
298.15	0.0505	18.51	0.05
298.15	0.1011	19.96	0.05
298.15	0.2003	22.63	0.05
298.15	0.3003	25.12	0.05
298.15	0.4002	27.45	0.05
298.15	0.4998	29.62	0.06
298.15	0.5997	31.57	0.06
298.15	0.7001	33.23	0.06
298.15	0.752	33.87	0.06
298.15	0.8004	34.35	0.06
298.15	0.8491	34.74	0.06
298.15	0.8974	34.89	0.06
298.15	0.9502	34.94	0.06
298.15	1	34.78	0.06
303.15	0	16.56	0.04
303.15	0.0505	17.93	0.05
303.15	0.1011	19.31	0.05
303.15	0.2003	21.89	0.05
303.15	0.3003	24.31	0.05
303.15	0.4002	26.59	0.05
303.15	0.4998	28.69	0.05
303.15	0.5997	30.58	0.05
303.15	0.7001	32.18	0.06
303.15	0.752	32.8	0.06
303.15	0.8004	33.24	0.06
303.15	0.8491	33.57	0.06
303.15	0.8974	33.72	0.06
303.15	0.9502	33.8	0.06
303.15	1	33.84	0.05
308.15	0	16.16	0.04
308.15	0.0505	17.37	0.05
308.15	0.1011	18.66	0.05
308.15	0.2003	21.19	0.05
308.15	0.3003	23.59	0.05
308.15	0.4002	25.84	0.05
308.15	0.4998	27.94	0.05
308.15	0.5997	29.81	0.05
308.15	0.7001	31.31	0.05
308.15	0.752	31.91	0.05
308.15	0.8004	32.3	0.05
308.15	0.8491	32.61	0.05
308.15	0.8974	32.76	0.05
308.15	0.9502	32.88	0.05
308.15	1	33.13	0.05
313.15	0	15.77	0.04
313.15	0.0505	16.82	0.05
313.15	0.1011	18.05	0.05
313.15	0.2003	20.56	0.05
313.15	0.3003	22.96	0.05
313.15	0.4002	25.16	0.05
313.15	0.4998	27.22	0.05
313.15	0.5997	29.09	0.05
313.15	0.7001	30.59	0.05
313.15	0.752	31.17	0.05
313.15	0.8004	31.54	0.05
313.15	0.8491	31.8	0.05
313.15	0.8974	32	0.05
313.15	0.9502	32.2	0.05
313.15	1	32.66	0.04

System: nitrobenzene + 2-ethoxyethan-1-ol; phases: Liquid
Fixed: Pressure, kPa = 101.325
Fixed: Frequency, MHz = 3
Property: Relative permittivity at various frequencies (Liquid); method: OH-301
Temperature, K	Mole fraction of nitrobenzene	Relative permittivity at various frequencies	uncertainty
293.15	0	14.25	0.04
293.15	0.0499	16.23	0.05
293.15	0.0997	18.22	0.05
293.15	0.2	21.92	0.05
293.15	0.3002	25.24	0.05
293.15	0.4001	28.2	0.05
293.15	0.5	30.85	0.06
293.15	0.6003	33.21	0.06
293.15	0.7	34.94	0.06
293.15	0.7491	35.66	0.06
293.15	0.7996	36.11	0.07
293.15	0.8504	36.37	0.07
293.15	0.9001	36.43	0.07
293.15	0.9456	36.26	0.07
293.15	1	35.91	0.06
298.15	0	14.03	0.04
298.15	0.0499	15.75	0.05
298.15	0.0997	17.59	0.05
298.15	0.2	21.16	0.05
298.15	0.3002	24.4	0.05
298.15	0.4001	27.24	0.06
298.15	0.5	29.8	0.06
298.15	0.6003	32.07	0.06
298.15	0.7	33.75	0.06
298.15	0.7491	34.39	0.06
298.15	0.7996	34.77	0.06
298.15	0.8504	35	0.07
298.15	0.9001	34.99	0.07
298.15	0.9456	34.87	0.07
298.15	1	34.78	0.06
303.15	0	13.76	0.04
303.15	0.0499	15.23	0.05
303.15	0.0997	16.95	0.05
303.15	0.2	20.41	0.05
303.15	0.3002	23.54	0.05
303.15	0.4001	26.32	0.05
303.15	0.5	28.81	0.05
303.15	0.6003	31.07	0.06
303.15	0.7	32.71	0.06
303.15	0.7491	33.29	0.06
303.15	0.7996	33.6	0.06
303.15	0.8504	33.73	0.06
303.15	0.9001	33.69	0.06
303.15	0.9456	33.66	0.06
303.15	1	33.84	0.05
308.15	0	13.44	0.04
308.15	0.0499	14.71	0.05
308.15	0.0997	16.29	0.05
308.15	0.2	19.67	0.05
308.15	0.3002	22.77	0.05
308.15	0.4001	25.46	0.05
308.15	0.5	27.95	0.05
308.15	0.6003	30.15	0.05
308.15	0.7	31.81	0.05
308.15	0.7491	32.33	0.05
308.15	0.7996	32.6	0.05
308.15	0.8504	32.69	0.06
308.15	0.9001	32.64	0.06
308.15	0.9456	32.67	0.05
308.15	1	33.13	0.05
313.15	0	13.07	0.04
313.15	0.0499	14.17	0.04
313.15	0.0997	15.64	0.05
313.15	0.2	18.98	0.05
313.15	0.3002	22	0.05
313.15	0.4001	24.66	0.05
313.15	0.5	27.13	0.05
313.15	0.6003	29.38	0.06
313.15	0.7	31.04	0.05
313.15	0.7491	31.52	0.05
313.15	0.7996	31.76	0.05
313.15	0.8504	31.81	0.05
313.15	0.9001	31.79	0.05
313.15	0.9456	31.9	0.05
313.15	1	32.66	0.04

System: nitrobenzene + 2-propoxyethanol; phases: Liquid
Fixed: Pressure, kPa = 101.325
Fixed: Frequency, MHz = 3
Property: Relative permittivity at various frequencies (Liquid); method: OH-301
Temperature, K	Mole fraction of nitrobenzene	Relative permittivity at various frequencies	uncertainty
293.15	0	11.76	0.04
293.15	0.0497	14.29	0.05
293.15	0.1008	16.55	0.05
293.15	0.2	20.53	0.05
293.15	0.3004	24.06	0.05
293.15	0.4	27.18	0.05
293.15	0.5	30.06	0.06
293.15	0.6008	32.56	0.06
293.15	0.6997	34.55	0.06
293.15	0.7489	35.32	0.06
293.15	0.8	35.94	0.07
293.15	0.8499	36.33	0.07
293.15	0.9004	36.49	0.06
293.15	0.9488	36.3	0.07
293.15	1	35.91	0.06
298.15	0	11.5	0.04
298.15	0.0497	13.73	0.05
298.15	0.1008	15.87	0.05
298.15	0.2	19.71	0.05
298.15	0.3004	23.14	0.05
298.15	0.4	26.2	0.06
298.15	0.5	28.98	0.06
298.15	0.6008	31.43	0.06
298.15	0.6997	33.33	0.06
298.15	0.7489	34.05	0.06
298.15	0.8	34.57	0.06
298.15	0.8499	34.95	0.07
298.15	0.9004	35.1	0.07
298.15	0.9488	34.95	0.06
298.15	1	34.78	0.06
303.15	0	11.19	0.04
303.15	0.0497	13.13	0.05
303.15	0.1008	15.15	0.05
303.15	0.2	18.92	0.05
303.15	0.3004	22.27	0.05
303.15	0.4	25.26	0.05
303.15	0.5	27.97	0.06
303.15	0.6008	30.36	0.06
303.15	0.6997	32.27	0.06
303.15	0.7489	32.96	0.06
303.15	0.8	33.43	0.06
303.15	0.8499	33.75	0.06
303.15	0.9004	33.86	0.06
303.15	0.9488	33.8	0.06
303.15	1	33.84	0.05
308.15	0	10.91	0.04
308.15	0.0497	12.57	0.05
308.15	0.1008	14.52	0.05
308.15	0.2	18.2	0.05
308.15	0.3004	21.5	0.05
308.15	0.4	24.45	0.05
308.15	0.5	27.11	0.05
308.15	0.6008	29.47	0.05
308.15	0.6997	31.35	0.05
308.15	0.7489	32.01	0.05
308.15	0.8	32.48	0.05
308.15	0.8499	32.73	0.05
308.15	0.9004	32.83	0.05
308.15	0.9488	32.85	0.05
308.15	1	33.13	0.05
313.15	0	10.62	0.04
313.15	0.0497	12.02	0.04
313.15	0.1008	13.88	0.05
313.15	0.2	17.54	0.05
313.15	0.3004	20.81	0.05
313.15	0.4	23.7	0.05
313.15	0.5	26.32	0.05
313.15	0.6008	28.73	0.05
313.15	0.6997	30.61	0.05
313.15	0.7489	31.26	0.05
313.15	0.8	31.69	0.05
313.15	0.8499	31.91	0.05
313.15	0.9004	32.03	0.05
313.15	0.9488	32.14	0.05
313.15	1	32.66	0.04

System: nitrobenzene + 2-butoxyethan-1-ol; phases: Liquid
Fixed: Pressure, kPa = 101.325
Fixed: Frequency, MHz = 3
Property: Relative permittivity at various frequencies (Liquid); method: OH-301
Temperature, K	Mole fraction of nitrobenzene	Relative permittivity at various frequencies	uncertainty
293.15	0	9.78	0.04
293.15	0.05	12.73	0.05
293.15	0.0999	15.28	0.05
293.15	0.2003	19.6	0.05
293.15	0.3	23.44	0.06
293.15	0.4	27	0.06
293.15	0.5	30.19	0.06
293.15	0.6	32.88	0.06
293.15	0.7	34.91	0.06
293.15	0.7493	35.71	0.07
293.15	0.8	36.29	0.07
293.15	0.8506	36.65	0.07
293.15	0.9	36.77	0.07
293.15	0.9499	36.52	0.07
293.15	1	35.91	0.06
298.15	0	9.35	0.04
298.15	0.05	11.87	0.05
298.15	0.0999	14.32	0.06
298.15	0.2003	18.58	0.06
298.15	0.3	22.39	0.06
298.15	0.4	25.85	0.06
298.15	0.5	28.96	0.06
298.15	0.6	31.6	0.06
298.15	0.7	33.59	0.06
298.15	0.7493	34.34	0.07
298.15	0.8	34.85	0.07
298.15	0.8506	35.21	0.07
298.15	0.9	35.26	0.07
298.15	0.9499	35.09	0.07
298.15	1	34.78	0.06
303.15	0	8.88	0.04
303.15	0.05	11.04	0.05
303.15	0.0999	13.35	0.06
303.15	0.2003	17.59	0.06
303.15	0.3	21.39	0.06
303.15	0.4	24.78	0.06
303.15	0.5	27.82	0.06
303.15	0.6	30.44	0.06
303.15	0.7	32.5	0.06
303.15	0.7493	33.12	0.06
303.15	0.8	33.69	0.06
303.15	0.8506	33.91	0.06
303.15	0.9	33.96	0.06
303.15	0.9499	33.86	0.06
303.15	1	33.84	0.05
308.15	0	8.39	0.04
308.15	0.05	10.26	0.05
308.15	0.0999	12.37	0.06
308.15	0.2003	16.63	0.06
308.15	0.3	20.42	0.05
308.15	0.4	23.77	0.06
308.15	0.5	26.74	0.06
308.15	0.6	29.34	0.06
308.15	0.7	31.36	0.06
308.15	0.7493	32.06	0.06
308.15	0.8	32.47	0.06
308.15	0.8506	32.79	0.06
308.15	0.9	32.85	0.06
308.15	0.9499	32.84	0.05
308.15	1	33.13	0.05
313.15	0	7.91	0.04
313.15	0.05	9.54	0.05
313.15	0.0999	11.45	0.05
313.15	0.2003	15.76	0.06
313.15	0.3	19.59	0.06
313.15	0.4	22.92	0.06
313.15	0.5	25.84	0.06
313.15	0.6	28.49	0.06
313.15	0.7	30.53	0.06
313.15	0.7493	31.22	0.05
313.15	0.8	31.69	0.05
313.15	0.8506	31.92	0.05
313.15	0.9	32.04	0.05
313.15	0.9499	32.1	0.05
313.15	1	32.66	0.04
