Measured thermophysical data. Thermodynamics of mixtures containing aromatic nitriles
Source: J. Chem. Thermodyn., 2018, 10.1016/j.jct.2017.09.027
Compound 1: benzeneacetonitrile, C8H7N, InChI=1S/C8H7N/c9-7-6-8-4-2-1-3-5-8/h1-5H,6H2, purity 98%
Compound 2: 3-phenylpropanenitrile, C9H9N, InChI=1S/C9H9N/c10-8-4-7-9-5-2-1-3-6-9/h1-3,5-6H,4,7H2, purity 99%
Compound 3: heptane, C7H16, InChI=1S/C7H16/c1-3-5-7-6-4-2/h3-7H2,1-2H3, purity 99.5%
Compound 4: octane, C8H18, InChI=1S/C8H18/c1-3-5-7-8-6-4-2/h3-8H2,1-2H3, purity 99%
Compound 5: nonane, C9H20, InChI=1S/C9H20/c1-3-5-7-9-8-6-4-2/h3-9H2,1-2H3, purity 99%
Compound 6: cyclooctane, C8H16, InChI=1S/C8H16/c1-2-4-6-8-7-5-3-1/h1-8H2, purity 99%
Compound 7: 2,2,4-trimethylpentane, C8H18, InChI=1S/C8H18/c1-7(2)6-8(3,4)5/h7H,6H2,1-5H3, purity 99.5%

System: benzeneacetonitrile; phases: Liquid
Property: Mass density, kg/m3 (Liquid); method: Vibrating tube method
Pressure, kPa	Temperature, K	Mass density, kg/m3	uncertainty
100	298.15	1012.89	2.56

System: 3-phenylpropanenitrile; phases: Liquid
Property: Mass density, kg/m3 (Liquid); method: Vibrating tube method
Pressure, kPa	Temperature, K	Mass density, kg/m3	uncertainty
100	298.15	996.44	2.4

System: heptane; phases: Liquid
Property: Mass density, kg/m3 (Liquid); method: Vibrating tube method
Pressure, kPa	Temperature, K	Mass density, kg/m3	uncertainty
100	298.15	679.71	1.64

System: octane; phases: Liquid
Property: Mass density, kg/m3 (Liquid); method: Vibrating tube method
Pressure, kPa	Temperature, K	Mass density, kg/m3	uncertainty
100	298.15	698.71	1.69

System: nonane; phases: Liquid
Property: Mass density, kg/m3 (Liquid); method: Vibrating tube method
Pressure, kPa	Temperature, K	Mass density, kg/m3	uncertainty
100	298.15	713.93	1.73

System: cyclooctane; phases: Liquid
Property: Mass density, kg/m3 (Liquid); method: Vibrating tube method
Pressure, kPa	Temperature, K	Mass density, kg/m3	uncertainty
100	298.15	831.61	2.01

System: 2,2,4-trimethylpentane; phases: Liquid
Property: Mass density, kg/m3 (Liquid); method: Vibrating tube method
Pressure, kPa	Temperature, K	Mass density, kg/m3	uncertainty
100	298.15	687.32	1.66

System: benzeneacetonitrile + heptane; phases: Liquid mixture 1, Liquid mixture 2
Fixed: Pressure, kPa = 100
Property: Liquid-liquid equilibrium temperature, K (Liquid mixture 1); method: VISOBS
Mole fraction of benzeneacetonitrile	Liquid-liquid equilibrium temperature, K	uncertainty
0.1573	338.7	0.5
0.1941	344.3	0.5
0.2051	346	0.5
0.2103	346.7	0.4
0.2372	348.4	0.4
0.2547	349.4	0.3
0.2709	349.7	0.3
0.2942	350.1	0.3
0.3206	350.2	0.3
0.3454	350.3	0.3
0.3791	350.2	0.3
0.3979	350.2	0.3
0.4251	350.1	0.3
0.4704	350.2	0.3
0.5025	349.9	0.3
0.5502	349.2	0.3
0.5996	347.7	0.4
0.6478	345.3	0.4
0.6702	343.7	0.4
0.7169	338.2	0.4
0.7365	336.2	0.4
0.7517	333.4	0.5

System: benzeneacetonitrile + octane; phases: Liquid mixture 1, Liquid mixture 2
Fixed: Pressure, kPa = 100
Property: Liquid-liquid equilibrium temperature, K (Liquid mixture 1); method: VISOBS
Mole fraction of benzeneacetonitrile	Liquid-liquid equilibrium temperature, K	uncertainty
0.1987	348.5	0.4
0.2424	350.9	0.4
0.2866	352.5	0.3
0.3005	352.6	0.3
0.3203	352.7	0.3
0.3568	352.8	0.3
0.3723	352.8	0.3
0.4115	352.7	0.3
0.4587	352.5	0.3
0.4883	352.4	0.3
0.5039	352.2	0.3
0.5293	352.3	0.3
0.5447	352.1	0.3
0.5923	351.1	0.4
0.624	350.6	0.4
0.6711	348.7	0.4
0.7021	346.1	0.4
0.743	340	0.5
0.7646	336.2	0.5

System: benzeneacetonitrile + nonane; phases: Liquid mixture 1, Liquid mixture 2
Fixed: Pressure, kPa = 100
Property: Liquid-liquid equilibrium temperature, K (Liquid mixture 1); method: VISOBS
Mole fraction of benzeneacetonitrile	Liquid-liquid equilibrium temperature, K	uncertainty
0.2247	349.4	0.4
0.2648	354	0.4
0.272	354.9	0.4
0.3023	355.9	0.3
0.3033	356	0.3
0.3369	356	0.3
0.3558	356.2	0.3
0.3797	356.2	0.3
0.4011	356.2	0.3
0.4321	356.2	0.3
0.4471	356.1	0.3
0.478	356	0.3
0.5058	355.8	0.3
0.5298	355.6	0.3
0.5575	355.4	0.3
0.5745	355.3	0.3
0.5944	355.1	0.3
0.625	354.7	0.4
0.7246	348.1	0.4
0.7531	344.8	0.4

System: benzeneacetonitrile + cyclooctane; phases: Liquid mixture 1, Liquid mixture 2
Fixed: Pressure, kPa = 100
Property: Liquid-liquid equilibrium temperature, K (Liquid mixture 1); method: VISOBS
Mole fraction of benzeneacetonitrile	Liquid-liquid equilibrium temperature, K	uncertainty
0.1402	304.4	0.5
0.1511	306.6	0.4
0.1785	309.1	0.3
0.1933	309.5	0.3
0.2343	310.2	0.3
0.2506	310.5	0.3
0.284	310.6	0.3
0.2934	310.6	0.3
0.3049	310.6	0.3
0.3155	310.6	0.3
0.3516	310.5	0.3
0.3778	310.4	0.3
0.4061	310.3	0.3
0.4276	310.2	0.3
0.4529	310.1	0.3
0.4788	310	0.3
0.5009	309.7	0.3
0.5477	308.7	0.4
0.5747	307.9	0.4
0.5944	307.1	0.4
0.6143	306	0.4
0.6454	303.9	0.4
0.6678	302.7	0.4
0.7315	294.9	0.4

System: benzeneacetonitrile + 2,2,4-trimethylpentane; phases: Liquid mixture 1, Liquid mixture 2
Fixed: Pressure, kPa = 100
Property: Liquid-liquid equilibrium temperature, K (Liquid mixture 1); method: VISOBS
Mole fraction of benzeneacetonitrile	Liquid-liquid equilibrium temperature, K	uncertainty
0.2064	355.6	0.4
0.2317	358	0.4
0.2613	359.3	0.3
0.2791	359.7	0.3
0.3077	359.9	0.3
0.3321	360.3	0.3
0.3503	360.3	0.3
0.366	360.4	0.3
0.4156	360.2	0.3
0.4448	360.1	0.3
0.4771	359.9	0.3
0.5123	359.5	0.3
0.5536	359.3	0.3
0.5695	358.9	0.4
0.6123	358.2	0.4
0.6221	357.9	0.4
0.6428	356.8	0.4
0.6711	355.5	0.4
0.6995	353.4	0.4
0.7126	352.1	0.4
0.7443	348	0.4

System: 3-phenylpropanenitrile + heptane; phases: Liquid mixture 1, Liquid mixture 2
Fixed: Pressure, kPa = 100
Property: Liquid-liquid equilibrium temperature, K (Liquid mixture 1); method: VISOBS
Mole fraction of 3-phenylpropanenitrile	Liquid-liquid equilibrium temperature, K	uncertainty
0.1756	341.3	0.5
0.204	346	0.4
0.2355	349.5	0.4
0.2444	350.1	0.4
0.2505	350.5	0.4
0.2745	351.9	0.3
0.3066	352.8	0.3
0.3355	353.2	0.3
0.3547	353.1	0.3
0.3763	353.2	0.3
0.4023	353.3	0.3
0.426	353.3	0.3
0.4437	353.2	0.3
0.4812	353.1	0.3
0.5022	353.1	0.3
0.5211	352.7	0.3
0.5448	352.1	0.3
0.5748	351.2	0.4
0.5965	349.8	0.4
0.6267	347.5	0.4
0.6657	342	0.5

System: 3-phenylpropanenitrile + octane; phases: Liquid mixture 1, Liquid mixture 2
Fixed: Pressure, kPa = 100
Property: Liquid-liquid equilibrium temperature, K (Liquid mixture 1); method: VISOBS
Mole fraction of 3-phenylpropanenitrile	Liquid-liquid equilibrium temperature, K	uncertainty
0.1993	347.6	0.4
0.2167	349.2	0.4
0.2279	350.5	0.4
0.2598	352.6	0.4
0.2829	353.9	0.4
0.2834	353.9	0.4
0.3128	354.9	0.4
0.3415	355.6	0.4
0.3772	356.1	0.3
0.4105	356.4	0.3
0.4283	356.3	0.3
0.4524	356.4	0.3
0.4737	356.5	0.3
0.5177	356.4	0.3
0.5478	356.3	0.3
0.5891	355.6	0.4
0.6038	355.1	0.4
0.6762	351.9	0.4
0.701	349.5	0.4
0.7278	346	0.5
0.7336	344.5	0.5
