Measured thermophysical data. Phase behaviour at different temperatures of an aqueous two-phase ionic  liquid containing ([Bmim]BF4  + manganese sulfate + water)
Source: J. Chem. Thermodyn., 2013, 10.1016/j.jct.2013.01.025
Compound 1: 1-butyl-3-methylimidazolium tetrafluoroborate, C8H15BF4N2, InChI=1S/C8H15N2.BF4/c1-3-4-5-10-7-6-9(2)8-10;2-1(3,4)5/h6-8H,3-5H2,1-2H3;/q+1;-1, purity 99%
Compound 2: manganese(II) sulfate, MnO4S, InChI=1S/Mn.H2O4S/c;1-5(2,3)4/h;(H2,1,2,3,4)/q+2;/p-2, purity 98%
Compound 3: water, H2O, InChI=1S/H2O/h1H2

System: water + manganese(II) sulfate + 1-butyl-3-methylimidazolium tetrafluoroborate; phases: Liquid mixture 1, Liquid mixture 2
Fixed: Pressure, kPa = 101
Property: Mass fraction of manganese(II) sulfate (Liquid mixture 1); method: Cloud Point
Temperature, K	Mass fraction of 1-butyl-3-methylimidazolium tetrafluoroborate	Mass fraction of manganese(II) sulfate	uncertainty
288.15	0.0469	0.1933	0.0001
288.15	0.05	0.1852	0.0001
288.15	0.0554	0.1725	0.0001
288.15	0.0577	0.16	0.0001
288.15	0.0605	0.1513	0.0001
288.15	0.063	0.1434	0.0001
288.15	0.0653	0.1364	0.0001
288.15	0.0673	0.13	0.0001
288.15	0.0706	0.1239	0.0001
288.15	0.0764	0.1131	0.0001
288.15	0.0812	0.1041	0.0001
288.15	0.0845	0.0999	0.0001
288.15	0.0922	0.0923	0.0001
288.15	0.1046	0.0812	0.0001
288.15	0.1476	0.0604	0.0001
288.15	0.2001	0.0414	0.0001
288.15	0.2366	0.0297	0.0001
288.15	0.2776	0.0205	0.0001
288.15	0.3014	0.0177	0.0001
288.15	0.3301	0.0142	0.0001
288.15	0.3601	0.0121	0.0001
288.15	0.395	0.01	0.0001
288.15	0.4359	0.008	0.0001
288.15	0.4843	0.0063	0.0001
288.15	0.5128	0.0053	0.0001
288.15	0.5448	0.0041	0.0001
288.15	0.5912	0.0032	0.0001
288.15	0.6344	0.0031	0.0001
288.15	0.6782	0.0029	0.0001
288.15	0.6934	0.0018	0.0001
293.15	0.0397	0.1738	0.0001
293.15	0.0528	0.1553	0.0001
293.15	0.0546	0.1449	0.0001
293.15	0.0584	0.1427	0.0001
293.15	0.062	0.1363	0.0001
293.15	0.062	0.1307	0.0001
293.15	0.0714	0.1208	0.0001
293.15	0.0824	0.104	0.0001
293.15	0.0937	0.0893	0.0001
293.15	0.1085	0.0768	0.0001
293.15	0.1047	0.076	0.0001
293.15	0.1307	0.0652	0.0001
293.15	0.153	0.0531	0.0001
293.15	0.166	0.0462	0.0001
293.15	0.177	0.0423	0.0001
293.15	0.1901	0.0341	0.0001
293.15	0.2328	0.0247	0.0001
293.15	0.2346	0.0242	0.0001
293.15	0.255	0.0203	0.0001
293.15	0.2939	0.0169	0.0001
293.15	0.3051	0.0156	0.0001
293.15	0.3606	0.0104	0.0001
293.15	0.4163	0.0087	0.0001
293.15	0.433	0.0083	0.0001
293.15	0.4905	0.0065	0.0001
293.15	0.5647	0.0052	0.0001
293.15	0.5647	0.0044	0.0001
293.15	0.6186	0.0035	0.0001
293.15	0.6649	0.0027	0.0001
293.15	0.6928	0.0023	0.0001
298.15	0.0701	0.1387	0.0001
298.15	0.0739	0.1352	0.0001
298.15	0.0748	0.1296	0.0001
298.15	0.0816	0.1243	0.0001
298.15	0.0883	0.1194	0.0001
298.15	0.0892	0.1156	0.0001
298.15	0.093	0.1122	0.0001
298.15	0.0948	0.1079	0.0001
298.15	0.0978	0.1038	0.0001
298.15	0.1007	0.0994	0.0001
298.15	0.1063	0.0884	0.0001
298.15	0.1139	0.0816	0.0001
298.15	0.1169	0.0759	0.0001
298.15	0.1285	0.0628	0.0001
298.15	0.1456	0.0541	0.0001
298.15	0.1629	0.0478	0.0001
298.15	0.1876	0.0371	0.0001
298.15	0.2191	0.0277	0.0001
298.15	0.244	0.0212	0.0001
298.15	0.2831	0.0164	0.0001
298.15	0.3155	0.0129	0.0001
298.15	0.3557	0.0109	0.0001
298.15	0.3957	0.0097	0.0001
298.15	0.4319	0.0081	0.0001
298.15	0.4769	0.0072	0.0001
298.15	0.5256	0.0065	0.0001
298.15	0.5533	0.005	0.0001
298.15	0.5962	0.0033	0.0001
298.15	0.6591	0.0028	0.0001
298.15	0.7088	0.0012	0.0001
303.15	0.0806	0.1454	0.0001
303.15	0.075	0.1406	0.0001
303.15	0.0842	0.1361	0.0001
303.15	0.0898	0.1199	0.0001
303.15	0.0993	0.1082	0.0001
303.15	0.1029	0.1078	0.0001
303.15	0.1029	0.1068	0.0001
303.15	0.1029	0.1027	0.0001
303.15	0.1121	0.092	0.0001
303.15	0.1085	0.0956	0.0001
303.15	0.1159	0.0854	0.0001
303.15	0.1233	0.0778	0.0001
303.15	0.1381	0.0661	0.0001
303.15	0.1512	0.054	0.0001
303.15	0.1604	0.0478	0.0001
303.15	0.1808	0.0403	0.0001
303.15	0.2179	0.0292	0.0001
303.15	0.2253	0.0279	0.0001
303.15	0.2624	0.023	0.0001
303.15	0.3626	0.0151	0.0001
303.15	0.422	0.0123	0.0001
303.15	0.4608	0.0113	0.0001
303.15	0.4999	0.0092	0.0001
303.15	0.511	0.0092	0.0001
303.15	0.5851	0.0075	0.0001
303.15	0.5963	0.0075	0.0001
303.15	0.5593	0.0071	0.0001
303.15	0.626	0.0051	0.0001
303.15	0.6649	0.0044	0.0001
303.15	0.7058	0.003	0.0001
308.15	0.1018	0.1504	0.0001
308.15	0.1028	0.1413	0.0001
308.15	0.1049	0.1307	0.0001
308.15	0.1083	0.1234	0.0001
308.15	0.1114	0.1169	0.0001
308.15	0.112	0.1063	0.0001
308.15	0.1137	0.103	0.0001
308.15	0.116	0.0984	0.0001
308.15	0.1182	0.0942	0.0001
308.15	0.1195	0.0916	0.0001
308.15	0.1239	0.0867	0.0001
308.15	0.1255	0.0834	0.0001
308.15	0.1318	0.0773	0.0001
308.15	0.1548	0.0633	0.0001
308.15	0.1748	0.052	0.0001
308.15	0.2024	0.0404	0.0001
308.15	0.2505	0.0293	0.0001
308.15	0.3115	0.0237	0.0001
308.15	0.3357	0.0211	0.0001
308.15	0.3477	0.0203	0.0001
308.15	0.388	0.0181	0.0001
308.15	0.4215	0.016	0.0001
308.15	0.4406	0.0148	0.0001
308.15	0.4823	0.0127	0.0001
308.15	0.5051	0.0118	0.0001
308.15	0.5412	0.0111	0.0001
308.15	0.5844	0.0098	0.0001
308.15	0.6288	0.0058	0.0001
308.15	0.6732	0.0055	0.0001
308.15	0.7054	0.0053	0.0001

System: water + manganese(II) sulfate + 1-butyl-3-methylimidazolium tetrafluoroborate; phases: Liquid mixture 2, Liquid mixture 1
Fixed: Pressure, kPa = 101
Property: Mass fraction of manganese(II) sulfate (Liquid mixture 2); method: Combination AA and UV-VIS spectroscopy
Property: Mass fraction of manganese(II) sulfate (Liquid mixture 1); method: Combination AA and UV-VIS spectroscopy
Property: Mass fraction of 1-butyl-3-methylimidazolium tetrafluoroborate (Liquid mixture 1); method: Combination AA and UV-VIS spectroscopy
Temperature, K	Mass fraction of 1-butyl-3-methylimidazolium tetrafluoroborate	Mass fraction of manganese(II) sulfate	uncertainty	Mass fraction of manganese(II) sulfate	uncertainty	Mass fraction of 1-butyl-3-methylimidazolium tetrafluoroborate	uncertainty
288.15	0.6056	0.0025	0.0001	0.0896	0.0001	0.0916	
288.15	0.6348	0.0018	0.0001	0.0976	0.0001	0.084	
288.15	0.6629	0.0015	0.0001	0.1127	0.0001	0.0663	
288.15	0.6963	0.0011	0.0001	0.1232	0.0001	0.0514	
288.15	0.7376	0.001	0.0001	0.1389	0.0001	0.0412	
293.15	0.7042	0.0022	0.0001	0.113	0.0001	0.0818	
293.15	0.7401	0.0021	0.0001	0.1194	0.0001	0.0788	
293.15	0.6249	0.0027	0.0001	0.0811	0.0001	0.124	
293.15	0.6502	0.0026	0.0001	0.0945	0.0001	0.0955	
293.15	0.6705	0.0023	0.0001	0.1055	0.0001	0.0866	
298.15	0.6561	0.0034	0.0001	0.1032	0.0001	0.0932	
298.15	0.6802	0.0031	0.0001	0.1155	0.0001	0.088	
298.15	0.5922	0.004	0.0001	0.0881	0.0001	0.1089	
298.15	0.6259	0.0038	0.0001	0.0963	0.0001	0.0985	
298.15	0.7171	0.0021	0.0001	0.124	0.001	0.0842	
303.15	0.6296	0.0037	0.0001	0.0891	0.0001	0.1179	
303.15	0.6578	0.0034	0.0001	0.0974	0.0001	0.1073	
303.15	0.6795	0.0031	0.0001	0.1094	0.0001	0.0994	
303.15	0.7018	0.0028	0.0001	0.1186	0.0001	0.0936	
303.15	0.6153	0.0041	0.0001	0.0771	0.0001	0.1361	
308.15	0.5571	0.0097	0.0001	0.0917	0.0001	0.1169	
308.15	0.6009	0.0081	0.0001	0.1004	0.0001	0.1112	
308.15	0.6794	0.0044	0.0001	0.1238	0.0001	0.0978	
308.15	0.7164	0.0037	0.0001	0.1302	0.0001	0.096	
308.15	0.6344	0.0062	0.0001	0.1134	0.0001	0.1007	
