Measured thermophysical data. Thermodynamic properties determination of aqueous mixtures of CaCl2 and Ca(NO3)2 by the potentiometric method at T = 298.15 +- 0.1 K
Source: J. Chem. Thermodyn., 2015, 10.1016/j.jct.2015.04.001
Compound 1: water, H2O, InChI=1S/H2O/h1H2
Compound 2: calcium chloride, CaCl2, InChI=1S/Ca.2ClH/h;2*1H/q+2;;/p-2, purity 97%
Compound 3: calcium nitrate, CaN2O6, InChI=1S/Ca.2NO3/c;2*2-1(3)4/q+2;2*-1, purity 98%

System: water + calcium chloride + calcium nitrate; phases: Liquid
Fixed: Temperature, K = 298.15
Fixed: Pressure, kPa = 101.325
Property: Mean ionic activity coefficient of calcium chloride (Liquid); method: Calculated from EMF cell potential
Molality, mol/kg of calcium nitrate	Molality, mol/kg of calcium chloride	Mean ionic activity coefficient of calcium chloride	uncertainty
0.0002	0.0002	0.9316	0.0232
0.0004	0.0004	0.8967	0.0213
0.0008	0.0008	0.8611	0.0263
0.0017	0.0017	0.8163	0.0224
0.0042	0.0042	0.7434	0.0226
0.0083	0.0083	0.6802	0.0231
0.0167	0.0167	0.6143	0.0239
0.0417	0.0417	0.5315	0.0248
0.0833	0.0833	0.4785	0.0254
0.1667	0.1667	0.4398	0.0259
0.3333	0.3333	0.4263	0.026
0.5	0.5	0.4406	0.0259
0.6667	0.6667	0.4677	0.0255
0.8333	0.8333	0.5024	0.0251
0.0001	0.0003	0.9316	0.0231
0.0001	0.0007	0.8968	0.0223
0.0003	0.0014	0.8611	0.022
0.0006	0.0028	0.8164	0.0221
0.0014	0.0069	0.7436	0.0225
0.0028	0.0139	0.6806	0.0231
0.0056	0.0278	0.615	0.0238
0.0139	0.0694	0.5332	0.0248
0.0278	0.1389	0.482	0.0254
0.0556	0.2778	0.4471	0.0258
0.1111	0.5556	0.4435	0.0258
0.1667	0.8333	0.472	0.0255
0.2222	1.1111	0.519	0.025
0.2778	1.3889	0.5811	0.0242
0	0.0003	0.9316	0.0254
0.0001	0.0008	0.8968	0.0224
0.0001	0.0016	0.8611	0.022
0.0002	0.0031	0.8164	0.0223
0.0005	0.0078	0.7437	0.0226
0.001	0.0156	0.6807	0.0232
0.0021	0.0313	0.6153	0.0239
0.0052	0.0781	0.5338	0.0248
0.0104	0.1563	0.4834	0.0254
0.0208	0.3125	0.4504	0.0258
0.0417	0.625	0.4531	0.0257
0.0625	0.9375	0.4921	0.0253
0.0833	1.25	0.5559	0.0245
0.1042	1.5625	0.6433	0.0235
0.0001	0.0002	0.9316	0.023
0.0002	0.0006	0.8967	0.0223
0.0005	0.0012	0.8611	0.0221
0.001	0.0024	0.8163	0.0228
0.0024	0.006	0.7435	0.0224
0.0048	0.0119	0.6805	0.0231
0.0095	0.0238	0.6147	0.0239
0.0238	0.0595	0.5326	0.0248
0.0476	0.119	0.4808	0.0254
0.0952	0.2381	0.4445	0.0258
0.1905	0.4762	0.4376	0.0259
0.2857	0.7143	0.4613	0.0256
0.381	0.9524	0.5017	0.0252
0.4762	1.1905	0.5546	0.0245
0	0.0003	0.9316	0.0254
0.0001	0.0008	0.8968	0.0224
0.0002	0.0015	0.8611	0.022
0.0003	0.003	0.8164	0.0223
0.0008	0.0076	0.7437	0.0228
0.0015	0.0152	0.6807	0.0231
0.003	0.0303	0.6152	0.0239
0.0076	0.0758	0.5337	0.0248
0.0152	0.1515	0.483	0.0254
0.0303	0.303	0.4497	0.0258
0.0606	0.6061	0.4514	0.0257
0.0909	0.9091	0.4891	0.0253
0.1212	1.2121	0.5507	0.0246
0.1515	1.5152	0.6349	0.0236
0	0.0003	0.9316	0.0254
0	0.0008	0.8968	0.0222
0	0.0017	0.8611	0.0219
0	0.0033	0.8164	0.0223
0	0.0083	0.7437	0.0225
0	0.0167	0.6808	0.0231
0	0.0333	0.6154	0.0239
0	0.0833	0.5342	0.0248
0	0.1667	0.4841	0.0254
0	0.3333	0.4521	0.0257
0	0.6667	0.4576	0.0257
0	1	0.5013	0.0252
0	1.3333	0.5726	0.0243
0	1.6667	0.6716	0.0232

System: water + calcium chloride; phases: Liquid
Fixed: Temperature, K = 298.15
Fixed: Pressure, kPa = 101.325
Property: Mean ionic activity coefficient of calcium chloride (Liquid); method: Calculated from EMF cell potential
Molality, mol/kg of calcium chloride	Mean ionic activity coefficient of calcium chloride	uncertainty
0.0003	0.9316	0.0202
0.0008	0.8968	0.0206
0.0017	0.8611	0.021
0.0033	0.8164	0.022
0.0083	0.7437	0.0224
0.0167	0.6808	0.0231
0.0333	0.6154	0.0238
0.0833	0.5342	0.0248
0.1667	0.4841	0.0254
0.3333	0.4521	0.0257
0.6667	0.4576	0.0257
1	0.5013	0.0252
1.3333	0.5726	0.0243
1.6667	0.6716	0.0232
