Measured thermophysical data. Density and surface tension of pure ionic liquid 1-butyl-3-methylimidazolium L-lactate and its binary mixture with alcohol and water
Source: J. Chem. Thermodyn., 2013, 10.1016/j.jct.2013.04.015
Compound 1: 1-butyl-3-methylimidazolium L-lactate, C11H20N2O3, InChI=1S/C8H15N2.C3H6O3/c1-3-4-5-10-7-6-9(2)8-10;1-2(4)3(5)6/h6-8H,3-5H2,1-2H3;2,4H,1H3,(H,5,6)/q+1;/p-1/t;2-/m.0/s1, purity 99%
Compound 2: methanol, CH4O, InChI=1S/CH4O/c1-2/h2H,1H3, purity 99.5%
Compound 3: ethanol, C2H6O, InChI=1S/C2H6O/c1-2-3/h3H,2H2,1H3, purity 99.5%
Compound 4: butan-1-ol, C4H10O, InChI=1S/C4H10O/c1-2-3-4-5/h5H,2-4H2,1H3, purity 99.9%
Compound 5: water, H2O, InChI=1S/H2O/h1H2, purity 98%

System: 1-butyl-3-methylimidazolium L-lactate; phases: Liquid
Fixed: Pressure, kPa = 101
Property: Mass density, kg/m3 (Liquid); method: Vibrating tube method
Temperature, K	Mass density, kg/m3	uncertainty
293.15	1115.3	0.5
303.15	1107.5	0.5
313.15	1100.5	0.5
323.15	1094.1	0.5
333.15	1086.1	0.5
343.15	1079.8	0.5
298.15	1111.2	0.5
308.15	1104.2	0.5
318.15	1097.7	0.5

System: 1-butyl-3-methylimidazolium L-lactate; phases: Liquid, Air at 1 atmosphere
Property: Surface tension liquid-gas, N/m (Liquid); method: Wilhelmy plate method
Temperature, K	Surface tension liquid-gas, N/m	uncertainty
293.15	0.04314	0.00037
303.15	0.04279	0.00037
313.15	0.04219	0.00037
323.15	0.04164	0.00037
333.15	0.04104	0.00036
343.15	0.04056	0.00036
298.15	0.04292	0.00037
308.15	0.04237	0.00037
318.15	0.04201	0.00037

System: methanol; phases: Liquid
Fixed: Pressure, kPa = 101
Property: Mass density, kg/m3 (Liquid); method: Vibrating tube method
Temperature, K	Mass density, kg/m3	uncertainty
298.15	786.4	0.4
308.15	776.9	0.4
318.15	767.2	0.4

System: methanol; phases: Liquid, Air at 1 atmosphere
Property: Surface tension liquid-gas, N/m (Liquid); method: Wilhelmy plate method
Temperature, K	Surface tension liquid-gas, N/m	uncertainty
298.15	0.02222	0.00031
308.15	0.02146	0.0003
318.15	0.02046	0.0003

System: ethanol; phases: Liquid
Fixed: Pressure, kPa = 101
Property: Mass density, kg/m3 (Liquid); method: Vibrating tube method
Temperature, K	Mass density, kg/m3	uncertainty
298.15	784.7	0.4
308.15	776.2	0.4
318.15	767	0.4

System: ethanol; phases: Liquid, Air at 1 atmosphere
Property: Surface tension liquid-gas, N/m (Liquid); method: Wilhelmy plate method
Temperature, K	Surface tension liquid-gas, N/m	uncertainty
298.15	0.02211	0.00031
308.15	0.02113	0.0003
318.15	0.02048	0.0003

System: butan-1-ol; phases: Liquid
Fixed: Pressure, kPa = 101
Property: Mass density, kg/m3 (Liquid); method: Vibrating tube method
Temperature, K	Mass density, kg/m3	uncertainty
298.15	805.7	0.4
308.15	798	0.4
318.15	790.1	0.4

System: butan-1-ol; phases: Liquid, Air at 1 atmosphere
Property: Surface tension liquid-gas, N/m (Liquid); method: Wilhelmy plate method
Temperature, K	Surface tension liquid-gas, N/m	uncertainty
298.15	0.02389	0.0003
308.15	0.02346	0.0003
318.15	0.02262	0.0003

System: water; phases: Liquid
Fixed: Pressure, kPa = 101
Property: Mass density, kg/m3 (Liquid); method: Vibrating tube method
Temperature, K	Mass density, kg/m3	uncertainty
298.15	997.1	0.9
308.15	994.1	0.9
318.15	990.2	0.9

System: water; phases: Liquid, Air at 1 atmosphere
Property: Surface tension liquid-gas, N/m (Liquid); method: Wilhelmy plate method
Temperature, K	Surface tension liquid-gas, N/m	uncertainty
298.15	0.07185	0.00078
308.15	0.07048	0.00077
318.15	0.06889	0.00075

System: methanol + 1-butyl-3-methylimidazolium L-lactate; phases: Liquid
Fixed: Pressure, kPa = 101
Property: Mass density, kg/m3 (Liquid); method: Vibrating tube method
Temperature, K	Mole fraction of 1-butyl-3-methylimidazolium L-lactate	Mass density, kg/m3	uncertainty
298.15	1	1111.2	0.5
298.15	0.8988	1097.8	0.5
298.15	0.8002	1091.5	0.5
298.15	0.7001	1090.5	0.5
298.15	0.5996	1088	0.4
298.15	0.5	1082.9	0.4
298.15	0.3999	1075.9	0.4
298.15	0.3	1063.1	0.4
298.15	0.1968	1022.4	0.4
298.15	0.0998	960.5	0.5
298.15	0	786.4	0.4
308.15	1	1104.2	0.5
308.15	0.8988	1089	0.5
308.15	0.8002	1087.2	0.5
308.15	0.7001	1085.4	0.5
308.15	0.5996	1084.2	0.4
308.15	0.5	1077.4	0.4
308.15	0.3999	1070.5	0.4
308.15	0.3	1057.4	0.4
308.15	0.1968	1019.4	0.4
308.15	0.0998	956.6	0.5
308.15	0	776.9	0.4
318.15	1	1097.7	0.5
318.15	0.8988	1079.9	0.5
318.15	0.8002	1078.9	0.5
318.15	0.7001	1078	0.5
318.15	0.5996	1077.7	0.4
318.15	0.5	1074.7	0.4
318.15	0.3999	1066.8	0.4
318.15	0.3	1051.9	0.4
318.15	0.1968	1014.3	0.4
318.15	0.0998	953.2	0.5
318.15	0	767.2	0.4

System: methanol + 1-butyl-3-methylimidazolium L-lactate; phases: Liquid, Air at 1 atmosphere
Property: Surface tension liquid-gas, N/m (Liquid); method: Wilhelmy plate method
Temperature, K	Mole fraction of 1-butyl-3-methylimidazolium L-lactate	Surface tension liquid-gas, N/m	uncertainty
298.15	1	0.04292	0.00037
298.15	0.9152	0.04089	0.00036
298.15	0.8056	0.03925	0.00035
298.15	0.7037	0.03857	0.00034
298.15	0.614	0.03806	0.00034
298.15	0.5029	0.03697	0.00033
298.15	0.4038	0.0357	0.00033
298.15	0.3011	0.03355	0.00032
298.15	0.1995	0.03101	0.00031
298.15	0.1051	0.0286	0.00031
298.15	0.0901	0.02806	0.00031
298.15	0.0699	0.02672	0.00031
298.15	0.0496	0.02563	0.00031
298.15	0.0353	0.02472	0.00031
298.15	0.0121	0.02338	0.00031
298.15	0	0.02222	0.00031
308.15	1	0.04237	0.00037
308.15	0.8938	0.03937	0.00035
308.15	0.791	0.03803	0.00035
308.15	0.7064	0.03766	0.00034
308.15	0.5913	0.03746	0.00034
308.15	0.5032	0.03669	0.00033
308.15	0.4003	0.03537	0.00032
308.15	0.3033	0.03315	0.00032
308.15	0.2002	0.0307	0.00031
308.15	0.1058	0.02832	0.00031
308.15	0.091	0.02726	0.00031
308.15	0.0702	0.02605	0.00031
308.15	0.0544	0.0251	0.00031
308.15	0.0346	0.02412	0.00031
308.15	0.0115	0.02256	0.00031
308.15	0	0.02146	0.0003
318.15	1	0.04201	0.00037
318.15	0.8845	0.0383	0.00035
318.15	0.8108	0.03731	0.00034
318.15	0.7054	0.03695	0.00034
318.15	0.6103	0.03674	0.00033
318.15	0.5096	0.03652	0.00033
318.15	0.4072	0.0352	0.00032
318.15	0.302	0.03256	0.00032
318.15	0.2003	0.02996	0.00031
318.15	0.1085	0.0278	0.00031
318.15	0.0907	0.02691	0.00031
318.15	0.0711	0.02549	0.00031
318.15	0.0527	0.02457	0.00031
318.15	0.0364	0.02348	0.00031
318.15	0.0118	0.02191	0.00031
318.15	0	0.02046	0.0003

System: ethanol + 1-butyl-3-methylimidazolium L-lactate; phases: Liquid
Fixed: Pressure, kPa = 101
Property: Mass density, kg/m3 (Liquid); method: Vibrating tube method
Temperature, K	Mole fraction of 1-butyl-3-methylimidazolium L-lactate	Mass density, kg/m3	uncertainty
298.15	1	1111.2	0.5
298.15	0.8978	1095.2	0.5
298.15	0.7869	1082.1	0.5
298.15	0.6985	1070.8	0.5
298.15	0.5989	1058.4	0.4
298.15	0.4954	1042.5	0.4
298.15	0.4106	1028.2	0.4
298.15	0.3066	1002	0.4
298.15	0.1987	959.5	0.4
298.15	0.0997	897.2	0.5
298.15	0	784.7	0.4
308.15	1	1104.2	0.5
308.15	0.8978	1086.9	0.5
308.15	0.7869	1073.8	0.5
308.15	0.6985	1062.4	0.5
308.15	0.5989	1050.4	0.4
308.15	0.4954	1034.3	0.4
308.15	0.4106	1021.1	0.4
308.15	0.3066	994.7	0.4
308.15	0.1987	951.9	0.4
308.15	0.0997	888.9	0.5
308.15	0	776.2	0.4
318.15	1	1097.7	0.5
318.15	0.8978	1079.8	0.5
318.15	0.7869	1066.9	0.5
318.15	0.6985	1055.3	0.4
318.15	0.5989	1042.6	0.4
318.15	0.4954	1028.3	0.4
318.15	0.4106	1014.5	0.4
318.15	0.3066	987.7	0.4
318.15	0.1987	944	0.4
318.15	0.0997	881.9	0.5
318.15	0	767	0.4

System: ethanol + 1-butyl-3-methylimidazolium L-lactate; phases: Liquid, Air at 1 atmosphere
Property: Surface tension liquid-gas, N/m (Liquid); method: Wilhelmy plate method
Temperature, K	Mole fraction of 1-butyl-3-methylimidazolium L-lactate	Surface tension liquid-gas, N/m	uncertainty
298.15	1	0.04292	0.00037
298.15	0.8381	0.03877	0.00035
298.15	0.7524	0.03706	0.00034
298.15	0.7009	0.0363	0.00034
298.15	0.6216	0.03527	0.00033
298.15	0.499	0.03345	0.00033
298.15	0.4019	0.03151	0.00032
298.15	0.3018	0.0292	0.00031
298.15	0.2001	0.02697	0.00031
298.15	0.0944	0.02454	0.00031
298.15	0.0708	0.024	0.00031
298.15	0.0497	0.02347	0.00031
298.15	0.0299	0.02299	0.00031
298.15	0.01	0.02244	0.00031
298.15	0	0.02211	0.00031
308.15	1	0.04237	0.00037
308.15	0.8313	0.0379	0.00035
308.15	0.7888	0.03681	0.00034
308.15	0.6882	0.03551	0.00034
308.15	0.6053	0.03478	0.00033
308.15	0.4966	0.03288	0.00032
308.15	0.406	0.03108	0.00032
308.15	0.3026	0.0288	0.00031
308.15	0.2028	0.02653	0.00031
308.15	0.0952	0.0239	0.00031
308.15	0.0707	0.02322	0.00031
308.15	0.0474	0.02262	0.00031
308.15	0.0302	0.02212	0.00031
308.15	0.01	0.02158	0.00031
308.15	0	0.02113	0.0003
318.15	1	0.04201	0.00037
318.15	0.8319	0.03661	0.00034
318.15	0.7561	0.03548	0.00034
318.15	0.6657	0.03484	0.00033
318.15	0.6042	0.03423	0.00033
318.15	0.5017	0.03246	0.00032
318.15	0.4034	0.03045	0.00032
318.15	0.3032	0.02836	0.00031
318.15	0.203	0.02609	0.00031
318.15	0.0958	0.02339	0.00031
318.15	0.0702	0.02256	0.00031
318.15	0.0448	0.0219	0.00031
318.15	0.0304	0.02156	0.00031
318.15	0.01	0.02088	0.0003
318.15	0	0.02048	0.0003

System: butan-1-ol + 1-butyl-3-methylimidazolium L-lactate; phases: Liquid
Fixed: Pressure, kPa = 101
Property: Mass density, kg/m3 (Liquid); method: Vibrating tube method
Temperature, K	Mole fraction of 1-butyl-3-methylimidazolium L-lactate	Mass density, kg/m3	uncertainty
298.15	1	1111.2	0.5
298.15	0.8999	1091.8	0.5
298.15	0.8	1076.4	0.4
298.15	0.7001	1060.8	0.4
298.15	0.6002	1044.6	0.4
298.15	0.5	1024.2	0.4
298.15	0.3998	997.8	0.4
298.15	0.303	968.1	0.4
298.15	0.1996	927.3	0.4
298.15	0.0999	875.7	0.4
298.15	0	805.7	0.4
308.15	1	1104.2	0.5
308.15	0.8999	1084.2	0.5
308.15	0.8	1069	0.4
308.15	0.7001	1053.9	0.4
308.15	0.6002	1037.4	0.4
308.15	0.5	1017.2	0.4
308.15	0.3998	990.5	0.4
308.15	0.303	960.8	0.4
308.15	0.1996	920.3	0.4
308.15	0.0999	868.3	0.4
308.15	0	798	0.4
318.15	1	1097.7	0.5
318.15	0.8999	1077.3	0.5
318.15	0.8	1062	0.4
318.15	0.7001	1047.5	0.4
318.15	0.6002	1030.9	0.4
318.15	0.5	1010.1	0.4
318.15	0.3998	983.4	0.4
318.15	0.303	953.9	0.4
318.15	0.1996	913	0.4
318.15	0.0999	859.6	0.4
318.15	0	790.1	0.4

System: butan-1-ol + 1-butyl-3-methylimidazolium L-lactate; phases: Liquid, Air at 1 atmosphere
Property: Surface tension liquid-gas, N/m (Liquid); method: Wilhelmy plate method
Temperature, K	Mole fraction of 1-butyl-3-methylimidazolium L-lactate	Surface tension liquid-gas, N/m	uncertainty
298.15	1	0.04292	0.00037
298.15	0.8747	0.0366	0.00034
298.15	0.8012	0.03473	0.00033
298.15	0.6979	0.03264	0.00032
298.15	0.5889	0.03111	0.00032
298.15	0.4997	0.02967	0.00031
298.15	0.4004	0.02842	0.00031
298.15	0.3016	0.02725	0.0003
298.15	0.1996	0.0262	0.0003
298.15	0.1001	0.02517	0.0003
298.15	0.0888	0.0251	0.0003
298.15	0.0601	0.02483	0.0003
298.15	0.0482	0.0247	0.0003
298.15	0.0297	0.02453	0.0003
298.15	0.01	0.02418	0.0003
298.15	0	0.02389	0.0003
308.15	1	0.04237	0.00037
308.15	0.8807	0.03648	0.00034
308.15	0.7981	0.03433	0.00033
308.15	0.695	0.0325	0.00032
308.15	0.5877	0.03083	0.00032
308.15	0.4989	0.02941	0.00031
308.15	0.3994	0.02818	0.00031
308.15	0.3008	0.02681	0.0003
308.15	0.1999	0.02568	0.0003
308.15	0.0999	0.02467	0.0003
308.15	0.0884	0.02459	0.0003
308.15	0.0604	0.02422	0.0003
308.15	0.0495	0.02418	0.0003
308.15	0.0295	0.02387	0.0003
308.15	0.0101	0.02363	0.0003
308.15	0	0.02346	0.0003
318.15	1	0.04201	0.00037
318.15	0.8735	0.03603	0.00034
318.15	0.7993	0.03423	0.00033
318.15	0.688	0.03224	0.00032
318.15	0.59	0.03068	0.00032
318.15	0.4989	0.02933	0.00031
318.15	0.3986	0.028	0.00031
318.15	0.3011	0.02653	0.0003
318.15	0.2004	0.02518	0.0003
318.15	0.1004	0.02417	0.0003
318.15	0.0903	0.02393	0.0003
318.15	0.061	0.02371	0.0003
318.15	0.0485	0.02359	0.0003
318.15	0.0296	0.02325	0.0003
318.15	0.0101	0.02308	0.0003
318.15	0	0.02262	0.0003

System: water + 1-butyl-3-methylimidazolium L-lactate; phases: Liquid
Fixed: Pressure, kPa = 101
Property: Mass density, kg/m3 (Liquid); method: Vibrating tube method
Temperature, K	Mole fraction of 1-butyl-3-methylimidazolium L-lactate	Mass density, kg/m3	uncertainty
298.15	0	997.1	0.9
298.15	0.1001	1042.3	0.9
298.15	0.2001	1061.4	0.8
298.15	0.2999	1075	0.8
298.15	0.3985	1083.6	0.7
298.15	0.5023	1090.3	0.7
298.15	0.6002	1095.7	0.6
298.15	0.6986	1099.8	0.6
298.15	0.8	1103.3	0.6
298.15	0.9001	1107.2	0.5
298.15	1	1111.2	0.5
308.15	0	994.1	0.9
308.15	0.1001	1039.4	0.9
308.15	0.2001	1058.3	0.8
308.15	0.2999	1071	0.8
308.15	0.3985	1079.1	0.7
308.15	0.5023	1085.4	0.7
308.15	0.6002	1090.2	0.6
308.15	0.6986	1093.5	0.6
308.15	0.8	1096.6	0.6
308.15	0.9001	1100.3	0.5
308.15	1	1104.2	0.5
318.15	0	990.2	0.9
318.15	0.1001	1036.4	0.9
318.15	0.2001	1055	0.8
318.15	0.2999	1066.6	0.8
318.15	0.3985	1074.1	0.7
318.15	0.5023	1080.2	0.7
318.15	0.6002	1084.3	0.6
318.15	0.6986	1087.4	0.6
318.15	0.8	1090.3	0.5
318.15	0.9001	1093.8	0.5
318.15	1	1097.7	0.5

System: water + 1-butyl-3-methylimidazolium L-lactate; phases: Liquid, Air at 1 atmosphere
Property: Surface tension liquid-gas, N/m (Liquid); method: Wilhelmy plate method
Temperature, K	Mole fraction of 1-butyl-3-methylimidazolium L-lactate	Surface tension liquid-gas, N/m	uncertainty
298.15	1	0.04292	0.00037
298.15	0.8965	0.0432	0.00038
298.15	0.8017	0.04335	0.0004
298.15	0.6982	0.04341	0.00041
298.15	0.5989	0.04347	0.00043
298.15	0.4994	0.04346	0.00044
298.15	0.3997	0.04408	0.00046
298.15	0.3003	0.04461	0.00048
298.15	0.2001	0.04603	0.00051
298.15	0.1	0.04696	0.00054
298.15	0.0801	0.04698	0.00054
298.15	0.0602	0.04615	0.00054
298.15	0.0401	0.04695	0.00055
298.15	0.0303	0.04786	0.00056
298.15	0.0097	0.05367	0.00063
298.15	0	0.07185	0.00078
308.15	1	0.04237	0.00037
308.15	0.8965	0.04248	0.00038
308.15	0.8017	0.04254	0.00039
308.15	0.6982	0.04262	0.00041
308.15	0.5989	0.04287	0.00042
308.15	0.4994	0.04307	0.00044
308.15	0.3997	0.04316	0.00046
308.15	0.3003	0.04359	0.00048
308.15	0.2001	0.04494	0.0005
308.15	0.1	0.04683	0.00054
308.15	0.0801	0.04654	0.00054
308.15	0.0602	0.04587	0.00054
308.15	0.0401	0.04608	0.00054
308.15	0.0303	0.04642	0.00055
308.15	0.0097	0.05115	0.0006
308.15	0	0.07048	0.00077
318.15	1	0.04201	0.00037
318.15	0.8965	0.04182	0.00038
318.15	0.8017	0.042	0.00039
318.15	0.6982	0.04202	0.00041
318.15	0.5989	0.04211	0.00042
318.15	0.4994	0.04227	0.00044
318.15	0.3997	0.04244	0.00045
318.15	0.3003	0.04286	0.00047
318.15	0.2001	0.0442	0.0005
318.15	0.1	0.04615	0.00053
318.15	0.0801	0.04618	0.00054
318.15	0.0602	0.04555	0.00053
318.15	0.0401	0.04557	0.00054
318.15	0.0303	0.04558	0.00054
318.15	0.0097	0.04979	0.0006
318.15	0	0.06889	0.00075
