Measured thermophysical data. Vapor pressure and enthalpy of vaporization of oil of catnip by correlation gas chromatography
Source: J. Chem. Thermodyn., 2016, 10.1016/j.jct.2015.09.005
Compound 1: (4aS,7S,7aS)-4,7-dimethyl-5,6,7,7a-tetrahydrocyclopenta[c]pyran-1(4aH)-one, C10H14O2, InChI=1S/C10H14O2/c1-6-3-4-8-7(2)5-12-10(11)9(6)8/h5-6,8-9H,3-4H2,1-2H3/t6-,8+,9-/m0/s1, purity 95%
Compound 2: (4aS,7S,7aR)-4,7-dimethyl-5,6,7,7a-tetrahydrocyclopenta[c]pyran-1(4aH)-one, C10H14O2, InChI=1S/C10H14O2/c1-6-3-4-8-7(2)5-12-10(11)9(6)8/h5-6,8-9H,3-4H2,1-2H3/t6-,8+,9+/m0/s1, purity 95%

System: (4aS,7S,7aS)-4,7-dimethyl-5,6,7,7a-tetrahydrocyclopenta[c]pyran-1(4aH)-one; phases: Liquid, Gas
Property: Molar enthalpy of vaporization or sublimation, kJ/mol (Liquid); method: Correlation gas chromatography
Temperature, K	Molar enthalpy of vaporization or sublimation, kJ/mol	uncertainty
298.15	68	4.1

System: (4aS,7S,7aS)-4,7-dimethyl-5,6,7,7a-tetrahydrocyclopenta[c]pyran-1(4aH)-one; phases: Liquid, Gas
Property: Vapor or sublimation pressure, kPa (Liquid); method: Gas chromatography
Temperature, K	Vapor or sublimation pressure, kPa	uncertainty
298.15	0.0012	0.0001
308.15	0.0029	0.0003
318.15	0.0066	0.0007
328.15	0.014	0.002
338.15	0.029	0.003
348.15	0.056	0.006
350	0.064	0.006

System: (4aS,7S,7aR)-4,7-dimethyl-5,6,7,7a-tetrahydrocyclopenta[c]pyran-1(4aH)-one; phases: Liquid, Gas
Property: Molar enthalpy of vaporization or sublimation, kJ/mol (Liquid); method: Correlation gas chromatography
Temperature, K	Molar enthalpy of vaporization or sublimation, kJ/mol	uncertainty
298.15	69.4	4.1

System: (4aS,7S,7aR)-4,7-dimethyl-5,6,7,7a-tetrahydrocyclopenta[c]pyran-1(4aH)-one; phases: Liquid, Gas
Property: Vapor or sublimation pressure, kPa (Liquid); method: Gas chromatography
Temperature, K	Vapor or sublimation pressure, kPa	uncertainty
298.15	0.00092	9e-05
308.15	0.0022	0.0002
318.15	0.005	0.0005
328.15	0.011	0.001
338.15	0.022	0.002
348.15	0.045	0.005
350	0.05	0.005
