Measured thermophysical data. Exploration of solute-solvent interactions in aqueous mixtures of monosaccharides and triammonium citrate (TAC) at different temperatures: Volumetric and acoustic approach
Source: J. Chem. Thermodyn., 2019, 10.1016/j.jct.2019.105877
Compound 1: D-xylose, C5H10O5, InChI=1S/C5H10O5/c6-1-3(8)5(10)4(9)2-7/h1,3-5,7-10H,2H2/t3-,4+,5+/m0/s1, purity 99%
Compound 2: D-ribose, C5H10O5, InChI=1S/C5H10O5/c6-1-3(8)5(10)4(9)2-7/h1,3-5,7-10H,2H2/t3-,4+,5-/m0/s1, purity 99%
Compound 3: ammonium 2-hydroxypropane-1,2,3-tricarboxylate, C6H17N3O7, InChI=1S/C6H8O7.3H3N/c7-3(8)1-6(13,5(11)12)2-4(9)10;;;/h13H,1-2H2,(H,7,8)(H,9,10)(H,11,12);3*1H3, purity 99%
Compound 4: water, H2O, InChI=1S/H2O/h1H2

System: D-xylose + ammonium 2-hydroxypropane-1,2,3-tricarboxylate + water; phases: Liquid
Fixed: Pressure, kPa = 100
Property: Mass density, kg/m3 (Liquid); method: Vibrating tube method
Temperature, K	Molality, mol/kg of D-xylose	Solvent: Molality, mol/kg of ammonium 2-hydroxypropane-1,2,3-tricarboxylate	Mass density, kg/m3	uncertainty
288.15	0	0.2	1021.597	0.922
288.15	0.100468	0.2	1026.969	0.926
288.15	0.199287	0.2	1032.108	0.941
288.15	0.300961	0.2	1037.249	0.965
288.15	0.397153	0.2	1041.976	0.994
288.15	0.501445	0.2	1046.949	1.03
288.15	0.595736	0.2	1051.319	1.064
288.15	0.699729	0.2	1056.025	1.106
288.15	0.801406	0.2	1060.484	1.145
288.15	0.89503	0.2	1064.461	1.181
288.15	0.994502	0.2	1068.59	1.228
288.15	0	0.4	1043.278	1.213
288.15	0.101018	0.4	1048.519	1.17
288.15	0.200719	0.4	1053.541	1.178
288.15	0.297318	0.4	1058.268	1.192
288.15	0.398593	0.4	1063.084	1.212
288.15	0.499903	0.4	1067.745	1.236
288.15	0.598254	0.4	1072.145	1.262
288.15	0.698541	0.4	1076.512	1.289
288.15	0.795393	0.4	1080.593	1.315
288.15	0.899877	0.4	1084.879	1.348
288.15	1.000143	0.4	1088.87	1.34
288.15	0	0.6	1063.556	1.466
288.15	0.097898	0.6	1068.504	1.459
288.15	0.200316	0.6	1073.528	1.462
288.15	0.300502	0.6	1078.292	1.471
288.15	0.396268	0.6	1082.709	1.481
288.15	0.495126	0.6	1087.119	1.495
288.15	0.598903	0.6	1091.626	1.513
288.15	0.699883	0.6	1095.88	1.531
288.15	0.7994	0.6	1099.935	1.55
288.15	0.89936	0.6	1103.883	1.569
288.15	0.997065	0.6	1107.629	1.594
298.15	0	0.2	1019.175	0.921
298.15	0.100468	0.2	1024.377	0.923
298.15	0.199287	0.2	1029.351	0.938
298.15	0.300961	0.2	1034.324	0.96
298.15	0.397153	0.2	1038.893	0.987
298.15	0.501445	0.2	1043.713	1.021
298.15	0.595736	0.2	1047.943	1.053
298.15	0.699729	0.2	1052.482	1.091
298.15	0.801406	0.2	1056.786	1.129
298.15	0.89503	0.2	1060.623	1.161
298.15	0.994502	0.2	1064.594	1.214
298.15	0	0.4	1040.551	1.162
298.15	0.101018	0.4	1045.629	1.161
298.15	0.200719	0.4	1050.493	1.169
298.15	0.297318	0.4	1055.068	1.182
298.15	0.398593	0.4	1059.728	1.201
298.15	0.499903	0.4	1064.249	1.224
298.15	0.598254	0.4	1068.511	1.247
298.15	0.698541	0.4	1072.725	1.272
298.15	0.795393	0.4	1076.668	1.297
298.15	0.899877	0.4	1080.806	1.328
298.15	1.000143	0.4	1084.647	1.339
298.15	0	0.6	1060.589	1.444
298.15	0.097898	0.6	1065.372	1.442
298.15	0.200316	0.6	1070.225	1.446
298.15	0.300502	0.6	1074.826	1.454
298.15	0.396268	0.6	1079.087	1.464
298.15	0.495126	0.6	1083.356	1.477
298.15	0.598903	0.6	1087.71	1.494
298.15	0.699883	0.6	1091.805	1.511
298.15	0.7994	0.6	1095.711	1.529
298.15	0.89936	0.6	1099.513	1.546
298.15	0.997065	0.6	1103.107	1.58
308.15	0	0.2	1015.934	0.919
308.15	0.100468	0.2	1021.078	0.921
308.15	0.199287	0.2	1025.994	0.935
308.15	0.300961	0.2	1030.909	0.957
308.15	0.397153	0.2	1035.425	0.984
308.15	0.501445	0.2	1040.188	1.017
308.15	0.595736	0.2	1044.361	1.049
308.15	0.699729	0.2	1048.845	1.086
308.15	0.801406	0.2	1053.096	1.122
308.15	0.89503	0.2	1056.884	1.155
308.15	0.994502	0.2	1060.805	1.17
308.15	0	0.4	1037.126	1.157
308.15	0.101018	0.4	1042.134	1.156
308.15	0.200719	0.4	1046.931	1.164
308.15	0.297318	0.4	1051.442	1.176
308.15	0.398593	0.4	1056.035	1.195
308.15	0.499903	0.4	1060.492	1.216
308.15	0.598254	0.4	1064.686	1.239
308.15	0.698541	0.4	1068.837	1.263
308.15	0.795393	0.4	1072.721	1.287
308.15	0.899877	0.4	1076.796	1.316
308.15	1.000143	0.4	1080.577	1.314
308.15	0	0.6	1057.013	1.437
308.15	0.097898	0.6	1061.728	1.435
308.15	0.200316	0.6	1066.511	1.437
308.15	0.300502	0.6	1071.044	1.444
308.15	0.396268	0.6	1075.242	1.453
308.15	0.495126	0.6	1079.447	1.465
308.15	0.598903	0.6	1083.729	1.48
308.15	0.699883	0.6	1087.76	1.496
308.15	0.7994	0.6	1091.605	1.513
308.15	0.89936	0.6	1095.345	1.529
308.15	0.997065	0.6	1098.881	1.535
318.15	0	0.2	1011.986	0.915
318.15	0.100468	0.2	1017.072	0.919
318.15	0.199287	0.2	1021.934	0.932
318.15	0.300961	0.2	1026.794	0.954
318.15	0.397153	0.2	1031.259	0.98
318.15	0.501445	0.2	1035.968	1.013
318.15	0.595736	0.2	1040.092	1.043
318.15	0.699729	0.2	1044.524	1.08
318.15	0.801406	0.2	1048.725	1.116
318.15	0.89503	0.2	1052.468	1.148
318.15	0.994502	0.2	1056.343	1.19
318.15	0	0.4	1033.083	1.209
318.15	0.101018	0.4	1038.033	1.153
318.15	0.200719	0.4	1042.775	1.161
318.15	0.297318	0.4	1047.232	1.173
318.15	0.398593	0.4	1051.771	1.191
318.15	0.499903	0.4	1056.176	1.211
318.15	0.598254	0.4	1060.318	1.234
318.15	0.698541	0.4	1064.419	1.257
318.15	0.795393	0.4	1068.255	1.281
318.15	0.899877	0.4	1072.28	1.31
318.15	1.000143	0.4	1076.015	1.301
318.15	0	0.6	1052.9	1.442
318.15	0.097898	0.6	1057.558	1.435
318.15	0.200316	0.6	1062.283	1.437
318.15	0.300502	0.6	1066.761	1.443
318.15	0.396268	0.6	1070.907	1.452
318.15	0.495126	0.6	1075.06	1.463
318.15	0.598903	0.6	1079.288	1.478
318.15	0.699883	0.6	1083.267	1.493
318.15	0.7994	0.6	1087.063	1.509
318.15	0.89936	0.6	1090.755	1.524
318.15	0.997065	0.6	1094.245	1.546

System: D-xylose + ammonium 2-hydroxypropane-1,2,3-tricarboxylate + water; phases: Liquid
Fixed: Pressure, kPa = 100
Fixed: Frequency, MHz = 3
Property: Speed of sound, m/s (Liquid); method: Single path-length method
Temperature, K	Molality, mol/kg of D-xylose	Solvent: Molality, mol/kg of ammonium 2-hydroxypropane-1,2,3-tricarboxylate	Speed of sound, m/s	uncertainty
288.15	0	0.2	1503.56	1.45
288.15	0.100468	0.2	1509.35	1.45
288.15	0.199287	0.2	1514.99	1.45
288.15	0.300961	0.2	1520.8	1.5
288.15	0.397153	0.2	1526.2	1.5
288.15	0.501445	0.2	1532.07	1.53
288.15	0.595736	0.2	1537.41	1.56
288.15	0.699729	0.2	1542.9	1.6
288.15	0.801406	0.2	1548.28	1.64
288.15	0.89503	0.2	1553.11	1.68
288.15	0.994502	0.2	1558.27	1.74
288.15	0	0.4	1540.7	1.95
288.15	0.101018	0.4	1545.83	1.94
288.15	0.200719	0.4	1550.89	1.94
288.15	0.297318	0.4	1555.85	1.95
288.15	0.398593	0.4	1560.98	1.96
288.15	0.499903	0.4	1566.18	1.97
288.15	0.598254	0.4	1571.1	1.98
288.15	0.698541	0.4	1576.11	2.01
288.15	0.795393	0.4	1580.99	2.03
288.15	0.899877	0.4	1586.17	2.05
288.15	1.000143	0.4	1590.84	2.16
288.15	0	0.6	1578.53	2.59
288.15	0.097898	0.6	1583.7	2.6
288.15	0.200316	0.6	1589.01	2.61
288.15	0.300502	0.6	1594.16	2.62
288.15	0.396268	0.6	1598.93	2.63
288.15	0.495126	0.6	1603.8	2.63
288.15	0.598903	0.6	1608.75	2.64
288.15	0.699883	0.6	1613.42	2.63
288.15	0.7994	0.6	1617.78	2.62
288.15	0.89936	0.6	1622.03	2.6
288.15	0.997065	0.6	1626.15	2.6
298.15	0	0.2	1532.21	1.46
298.15	0.100468	0.2	1537.38	1.45
298.15	0.199287	0.2	1542.41	1.45
298.15	0.300961	0.2	1547.53	1.47
298.15	0.397153	0.2	1552.32	1.49
298.15	0.501445	0.2	1557.49	1.51
298.15	0.595736	0.2	1561.95	1.54
298.15	0.699729	0.2	1566.88	1.57
298.15	0.801406	0.2	1571.55	1.6
298.15	0.89503	0.2	1575.78	1.64
298.15	0.994502	0.2	1580.21	1.55
298.15	0	0.4	1567.5	1.89
298.15	0.101018	0.4	1572.49	1.89
298.15	0.200719	0.4	1577.38	1.9
298.15	0.297318	0.4	1582.13	1.9
298.15	0.398593	0.4	1586.91	1.92
298.15	0.499903	0.4	1591.71	1.93
298.15	0.598254	0.4	1596.43	1.95
298.15	0.698541	0.4	1601.14	1.97
298.15	0.795393	0.4	1605.53	2
298.15	0.899877	0.4	1610.24	2.01
298.15	1.000143	0.4	1614.57	1.89
298.15	0	0.6	1603.26	2.38
298.15	0.097898	0.6	1608.2	2.42
298.15	0.200316	0.6	1613.26	2.43
298.15	0.300502	0.6	1618.1	2.43
298.15	0.396268	0.6	1622.63	2.44
298.15	0.495126	0.6	1627.23	2.44
298.15	0.598903	0.6	1631.79	2.44
298.15	0.699883	0.6	1636.18	2.43
298.15	0.7994	0.6	1640.27	2.43
298.15	0.89936	0.6	1644.31	2.42
298.15	0.997065	0.6	1648.12	2.23
308.15	0	0.2	1553.79	1.44
308.15	0.100468	0.2	1558.62	1.43
308.15	0.199287	0.2	1563.32	1.44
308.15	0.300961	0.2	1568.09	1.45
308.15	0.397153	0.2	1572.46	1.46
308.15	0.501445	0.2	1577.21	1.48
308.15	0.595736	0.2	1581.35	1.51
308.15	0.699729	0.2	1585.94	1.53
308.15	0.801406	0.2	1590.22	1.55
308.15	0.89503	0.2	1594.03	1.57
308.15	0.994502	0.2	1597.87	1.46
308.15	0	0.4	1587.7	1.85
308.15	0.101018	0.4	1592.23	1.84
308.15	0.200719	0.4	1596.63	1.85
308.15	0.297318	0.4	1600.81	1.85
308.15	0.398593	0.4	1605	1.86
308.15	0.499903	0.4	1609.34	1.87
308.15	0.598254	0.4	1613.28	1.87
308.15	0.698541	0.4	1617.21	1.89
308.15	0.795393	0.4	1621	1.91
308.15	0.899877	0.4	1625.25	1.93
308.15	1.000143	0.4	1629.22	1.89
308.15	0	0.6	1621.95	2.31
308.15	0.097898	0.6	1626.42	2.35
308.15	0.200316	0.6	1631.01	2.36
308.15	0.300502	0.6	1635.36	2.37
308.15	0.396268	0.6	1639.32	2.38
308.15	0.495126	0.6	1643.39	2.39
308.15	0.598903	0.6	1647.47	2.39
308.15	0.699883	0.6	1651.39	2.4
308.15	0.7994	0.6	1654.98	2.4
308.15	0.89936	0.6	1658.45	2.38
308.15	0.997065	0.6	1661.52	2.26
318.15	0	0.2	1569.04	1.41
318.15	0.100468	0.2	1573.61	1.41
318.15	0.199287	0.2	1578.03	1.41
318.15	0.300961	0.2	1582.48	1.42
318.15	0.397153	0.2	1586.61	1.44
318.15	0.501445	0.2	1590.99	1.45
318.15	0.595736	0.2	1594.77	1.47
318.15	0.699729	0.2	1598.99	1.49
318.15	0.801406	0.2	1602.89	1.51
318.15	0.89503	0.2	1606.35	1.52
318.15	0.994502	0.2	1609.85	1.54
318.15	0	0.4	1602.09	1.82
318.15	0.101018	0.4	1606.36	1.82
318.15	0.200719	0.4	1610.39	1.81
318.15	0.297318	0.4	1614.26	1.82
318.15	0.398593	0.4	1618.23	1.82
318.15	0.499903	0.4	1622.08	1.82
318.15	0.598254	0.4	1625.56	1.83
318.15	0.698541	0.4	1629.1	1.83
318.15	0.795393	0.4	1632.37	1.84
318.15	0.899877	0.4	1636	1.86
318.15	1.000143	0.4	1639.4	1.91
318.15	0	0.6	1635.2	2.34
318.15	0.097898	0.6	1639.44	2.35
318.15	0.200316	0.6	1643.63	2.35
318.15	0.300502	0.6	1647.56	2.36
318.15	0.396268	0.6	1651.2	2.36
318.15	0.495126	0.6	1654.8	2.36
318.15	0.598903	0.6	1658.38	2.36
318.15	0.699883	0.6	1661.83	2.36
318.15	0.7994	0.6	1664.93	2.36
318.15	0.89936	0.6	1668.02	2.34
318.15	0.997065	0.6	1670.56	2.31

System: D-ribose + ammonium 2-hydroxypropane-1,2,3-tricarboxylate + water; phases: Liquid
Fixed: Pressure, kPa = 100
Property: Mass density, kg/m3 (Liquid); method: Vibrating tube method
Temperature, K	Molality, mol/kg of D-ribose	Solvent: Molality, mol/kg of ammonium 2-hydroxypropane-1,2,3-tricarboxylate	Mass density, kg/m3	uncertainty
288.15	0	0.2	1021.597	0.922
288.15	0.094478	0.2	1026.578	0.925
288.15	0.200514	0.2	1032.016	0.94
288.15	0.299849	0.2	1036.962	0.963
288.15	0.400419	0.2	1041.829	0.992
288.15	0.496519	0.2	1046.332	1.024
288.15	0.597834	0.2	1050.963	1.061
288.15	0.699511	0.2	1055.486	1.099
288.15	0.797108	0.2	1059.691	1.135
288.15	0.899139	0.2	1063.969	1.175
288.15	0.997157	0.2	1067.962	1.219
288.15	0	0.4	1043.278	1.17
288.15	0.101092	0.4	1048.433	1.169
288.15	0.200582	0.4	1053.359	1.176
288.15	0.299865	0.4	1058.132	1.189
288.15	0.400081	0.4	1062.809	1.207
288.15	0.499939	0.4	1067.317	1.229
288.15	0.596696	0.4	1071.564	1.252
288.15	0.69874	0.4	1075.927	1.278
288.15	0.798055	0.4	1080.034	1.305
288.15	0.899495	0.4	1084.108	1.332
288.15	0.996089	0.4	1087.87	1.303
288.15	0	0.6	1063.556	1.466
288.15	0.099739	0.6	1068.451	1.456
288.15	0.200794	0.6	1073.261	1.456
288.15	0.29993	0.6	1077.835	1.461
288.15	0.39982	0.6	1082.303	1.468
288.15	0.500047	0.6	1086.633	1.479
288.15	0.599043	0.6	1090.788	1.493
288.15	0.698974	0.6	1094.862	1.506
288.15	0.797192	0.6	1098.733	1.521
288.15	0.898572	0.6	1102.608	1.537
288.15	0.998777	0.6	1106.325	1.561
298.15	0	0.2	1019.175	0.921
298.15	0.094478	0.2	1024.004	0.923
298.15	0.200514	0.2	1029.272	0.937
298.15	0.299849	0.2	1034.061	0.959
298.15	0.400419	0.2	1038.772	0.986
298.15	0.496519	0.2	1043.142	1.016
298.15	0.597834	0.2	1047.629	1.05
298.15	0.699511	0.2	1051.995	1.086
298.15	0.797108	0.2	1056.059	1.12
298.15	0.899139	0.2	1060.191	1.157
298.15	0.997157	0.2	1064.036	1.197
298.15	0	0.4	1040.551	1.162
298.15	0.101092	0.4	1045.554	1.161
298.15	0.200582	0.4	1050.332	1.168
298.15	0.299865	0.4	1054.959	1.181
298.15	0.400081	0.4	1059.491	1.198
298.15	0.499939	0.4	1063.872	1.219
298.15	0.596696	0.4	1067.993	1.241
298.15	0.69874	0.4	1072.21	1.266
298.15	0.798055	0.4	1076.185	1.292
298.15	0.899495	0.4	1080.125	1.317
298.15	0.996089	0.4	1083.752	1.313
298.15	0	0.6	1060.589	1.444
298.15	0.099739	0.6	1065.365	1.441
298.15	0.200794	0.6	1070.056	1.442
298.15	0.29993	0.6	1074.514	1.448
298.15	0.39982	0.6	1078.869	1.457
298.15	0.500047	0.6	1083.102	1.469
298.15	0.599043	0.6	1087.158	1.482
298.15	0.698974	0.6	1091.119	1.497
298.15	0.797192	0.6	1094.887	1.512
298.15	0.898572	0.6	1098.659	1.528
298.15	0.998777	0.6	1102.265	1.541
308.15	0	0.2	1015.934	0.919
308.15	0.094478	0.2	1020.692	0.92
308.15	0.200514	0.2	1025.882	0.935
308.15	0.299849	0.2	1030.6	0.955
308.15	0.400419	0.2	1035.239	0.982
308.15	0.496519	0.2	1039.542	1.011
308.15	0.597834	0.2	1043.953	1.045
308.15	0.699511	0.2	1048.25	1.079
308.15	0.797108	0.2	1052.249	1.113
308.15	0.899139	0.2	1056.313	1.148
308.15	0.997157	0.2	1060.095	1.158
308.15	0	0.4	1037.126	1.157
308.15	0.101092	0.4	1042.045	1.156
308.15	0.200582	0.4	1046.741	1.162
308.15	0.299865	0.4	1051.288	1.175
308.15	0.400081	0.4	1055.741	1.191
308.15	0.499939	0.4	1060.044	1.212
308.15	0.596696	0.4	1064.085	1.233
308.15	0.69874	0.4	1068.225	1.257
308.15	0.798055	0.4	1072.126	1.281
308.15	0.899495	0.4	1075.991	1.305
308.15	0.996089	0.4	1079.549	1.294
308.15	0	0.6	1057.013	1.437
308.15	0.099739	0.6	1061.71	1.433
308.15	0.200794	0.6	1066.322	1.434
308.15	0.29993	0.6	1070.705	1.439
308.15	0.39982	0.6	1074.985	1.447
308.15	0.500047	0.6	1079.144	1.458
308.15	0.599043	0.6	1083.122	1.471
308.15	0.698974	0.6	1087.012	1.484
308.15	0.797192	0.6	1090.711	1.498
308.15	0.898572	0.6	1094.413	1.513
308.15	0.998777	0.6	1097.951	1.504
318.15	0	0.2	1011.986	0.915
318.15	0.094478	0.2	1016.671	0.918
318.15	0.200514	0.2	1021.781	0.932
318.15	0.299849	0.2	1026.424	0.952
318.15	0.400419	0.2	1030.99	0.978
318.15	0.496519	0.2	1035.224	1.006
318.15	0.597834	0.2	1039.563	1.038
318.15	0.699511	0.2	1043.79	1.072
318.15	0.797108	0.2	1047.722	1.104
318.15	0.899139	0.2	1051.718	1.139
318.15	0.997157	0.2	1055.436	1.177
318.15	0	0.4	1033.083	1.179
318.15	0.101092	0.4	1037.919	1.153
318.15	0.200582	0.4	1042.536	1.158
318.15	0.299865	0.4	1047.004	1.17
318.15	0.400081	0.4	1051.38	1.185
318.15	0.499939	0.4	1055.607	1.204
318.15	0.596696	0.4	1059.575	1.224
318.15	0.69874	0.4	1063.64	1.247
318.15	0.798055	0.4	1067.47	1.27
318.15	0.899495	0.4	1071.264	1.293
318.15	0.996089	0.4	1074.755	1.268
318.15	0	0.6	1052.9	1.442
318.15	0.099739	0.6	1057.482	1.433
318.15	0.200794	0.6	1061.979	1.432
318.15	0.29993	0.6	1066.252	1.435
318.15	0.39982	0.6	1070.422	1.441
318.15	0.500047	0.6	1074.474	1.449
318.15	0.599043	0.6	1078.347	1.46
318.15	0.698974	0.6	1082.133	1.471
318.15	0.797192	0.6	1085.732	1.483
318.15	0.898572	0.6	1089.332	1.496
318.15	0.998777	0.6	1092.772	1.516

System: D-ribose + ammonium 2-hydroxypropane-1,2,3-tricarboxylate + water; phases: Liquid
Fixed: Pressure, kPa = 100
Fixed: Frequency, MHz = 3
Property: Speed of sound, m/s (Liquid); method: Single path-length method
Temperature, K	Molality, mol/kg of D-ribose	Solvent: Molality, mol/kg of ammonium 2-hydroxypropane-1,2,3-tricarboxylate	Speed of sound, m/s	uncertainty
288.15	0	0.2	1503.56	1.45
288.15	0.094478	0.2	1508.55	1.45
288.15	0.200514	0.2	1514.08	1.46
288.15	0.299849	0.2	1519.22	1.47
288.15	0.400419	0.2	1524.42	1.49
288.15	0.496519	0.2	1529.4	1.52
288.15	0.597834	0.2	1534.52	1.55
288.15	0.699511	0.2	1539.65	1.58
288.15	0.797108	0.2	1544.46	1.62
288.15	0.899139	0.2	1549.4	1.66
288.15	0.997157	0.2	1554.2	1.71
288.15	0	0.4	1540.7	1.95
288.15	0.101092	0.4	1545.71	1.94
288.15	0.200582	0.4	1550.56	1.93
288.15	0.299865	0.4	1555.31	1.92
288.15	0.400081	0.4	1560.09	1.92
288.15	0.499939	0.4	1564.81	1.92
288.15	0.596696	0.4	1569.25	1.93
288.15	0.69874	0.4	1573.91	1.93
288.15	0.798055	0.4	1578.29	1.94
288.15	0.899495	0.4	1582.66	1.95
288.15	0.996089	0.4	1586.84	1.87
288.15	0	0.6	1578.53	2.59
288.15	0.099739	0.6	1582.82	2.55
288.15	0.200794	0.6	1587.05	2.52
288.15	0.29993	0.6	1591.14	2.49
288.15	0.39982	0.6	1595.16	2.46
288.15	0.500047	0.6	1599.11	2.43
288.15	0.599043	0.6	1602.88	2.4
288.15	0.698974	0.6	1606.45	2.37
288.15	0.797192	0.6	1609.88	2.33
288.15	0.898572	0.6	1613.27	2.29
288.15	0.998777	0.6	1616.46	2.26
298.15	0	0.2	1532.21	1.46
298.15	0.094478	0.2	1536.8	1.45
298.15	0.200514	0.2	1541.87	1.45
298.15	0.299849	0.2	1546.55	1.47
298.15	0.400419	0.2	1551.29	1.48
298.15	0.496519	0.2	1555.78	1.51
298.15	0.597834	0.2	1560.38	1.53
298.15	0.699511	0.2	1565	1.56
298.15	0.797108	0.2	1569.3	1.59
298.15	0.899139	0.2	1573.68	1.61
298.15	0.997157	0.2	1577.94	1.46
298.15	0	0.4	1567.5	1.89
298.15	0.101092	0.4	1572.2	1.88
298.15	0.200582	0.4	1576.76	1.87
298.15	0.299865	0.4	1581.22	1.87
298.15	0.400081	0.4	1585.62	1.86
298.15	0.499939	0.4	1589.88	1.86
298.15	0.596696	0.4	1593.86	1.87
298.15	0.69874	0.4	1598.16	1.87
298.15	0.798055	0.4	1602.18	1.87
298.15	0.899495	0.4	1606.05	1.86
298.15	0.996089	0.4	1609.65	1.73
298.15	0	0.6	1603.26	2.38
298.15	0.099739	0.6	1607.2	2.38
298.15	0.200794	0.6	1611.11	2.35
298.15	0.29993	0.6	1614.82	2.32
298.15	0.39982	0.6	1618.42	2.28
298.15	0.500047	0.6	1621.85	2.25
298.15	0.599043	0.6	1625.2	2.23
298.15	0.698974	0.6	1628.38	2.18
298.15	0.797192	0.6	1631.34	2.15
298.15	0.898572	0.6	1634.36	2.12
298.15	0.998777	0.6	1637.22	1.97
308.15	0	0.2	1553.79	1.44
308.15	0.094478	0.2	1557.85	1.43
308.15	0.200514	0.2	1562.35	1.43
308.15	0.299849	0.2	1566.5	1.44
308.15	0.400419	0.2	1570.64	1.45
308.15	0.496519	0.2	1574.44	1.47
308.15	0.597834	0.2	1578.47	1.49
308.15	0.699511	0.2	1582.42	1.51
308.15	0.797108	0.2	1586.15	1.53
308.15	0.899139	0.2	1589.96	1.54
308.15	0.997157	0.2	1593.39	1.48
308.15	0	0.4	1587.7	1.85
308.15	0.101092	0.4	1591.9	1.84
308.15	0.200582	0.4	1595.87	1.83
308.15	0.299865	0.4	1599.77	1.83
308.15	0.400081	0.4	1603.61	1.82
308.15	0.499939	0.4	1607.25	1.82
308.15	0.596696	0.4	1610.75	1.82
308.15	0.69874	0.4	1614.31	1.82
308.15	0.798055	0.4	1617.67	1.83
308.15	0.899495	0.4	1621.08	1.82
308.15	0.996089	0.4	1624.03	1.74
308.15	0	0.6	1621.95	2.31
308.15	0.099739	0.6	1625.57	2.32
308.15	0.200794	0.6	1629.12	2.3
308.15	0.29993	0.6	1632.46	2.28
308.15	0.39982	0.6	1635.63	2.25
308.15	0.500047	0.6	1638.75	2.23
308.15	0.599043	0.6	1641.72	2.21
308.15	0.698974	0.6	1644.62	2.19
308.15	0.797192	0.6	1647.2	2.16
308.15	0.898572	0.6	1649.8	2.1
308.15	0.998777	0.6	1651.27	2.02
318.15	0	0.2	1569.04	1.41
318.15	0.094478	0.2	1572.88	1.41
318.15	0.200514	0.2	1577.1	1.42
318.15	0.299849	0.2	1581.01	1.42
318.15	0.400419	0.2	1584.89	1.43
318.15	0.496519	0.2	1588.44	1.45
318.15	0.597834	0.2	1592.2	1.46
318.15	0.699511	0.2	1595.88	1.48
318.15	0.797108	0.2	1599.32	1.5
318.15	0.899139	0.2	1602.86	1.51
318.15	0.997157	0.2	1606	1.53
318.15	0	0.4	1602.09	1.82
318.15	0.101092	0.4	1606.03	1.81
318.15	0.200582	0.4	1609.83	1.8
318.15	0.299865	0.4	1613.52	1.8
318.15	0.400081	0.4	1617.15	1.79
318.15	0.499939	0.4	1620.6	1.79
318.15	0.596696	0.4	1623.92	1.79
318.15	0.69874	0.4	1627.3	1.79
318.15	0.798055	0.4	1630.52	1.79
318.15	0.899495	0.4	1633.69	1.78
318.15	0.996089	0.4	1636.53	1.71
318.15	0	0.6	1635.2	2.34
318.15	0.099739	0.6	1638.54	2.31
318.15	0.200794	0.6	1641.81	2.29
318.15	0.29993	0.6	1644.89	2.26
318.15	0.39982	0.6	1647.87	2.23
318.15	0.500047	0.6	1650.72	2.21
318.15	0.599043	0.6	1653.4	2.18
318.15	0.698974	0.6	1655.96	2.15
318.15	0.797192	0.6	1658.3	2.11
318.15	0.898572	0.6	1660.61	2.08
318.15	0.998777	0.6	1662.82	2.05
