Measured thermophysical data. Phase equilibrium measurements and modelling of ternary system (carbon dioxide + ethanol + palmitic acid)
Source: J. Chem. Thermodyn., 2010, 10.1016/j.jct.2009.09.004
Compound 1: ethanol, C2H6O, InChI=1S/C2H6O/c1-2-3/h3H,2H2,1H3, purity 99.9%
Compound 2: carbon dioxide, CO2, InChI=1S/CO2/c2-1-3, purity 99.9%
Compound 3: hexadecanoic acid, C16H32O2, InChI=1S/C16H32O2/c1-2-3-4-5-6-7-8-9-10-11-12-13-14-15-16(17)18/h2-15H2,1H3,(H,17,18), purity 99%

System: hexadecanoic acid + ethanol + carbon dioxide; phases: Liquid, Gas, Crystal
Property: Vapor or sublimation pressure, kPa (Liquid); method: Derived from phase diagram analysis
Mole fraction of hexadecanoic acid	Temperature, K	Vapor or sublimation pressure, kPa	uncertainty
0.049	305.2	9460	180
0.0755	307.7	9870	60
0.099	309.4	10250	860
0.119	310.6	9570	250
0.146	312.3	8740	180
0.19	313.7	8570	70
0.2537	317.1	8120	60
0.293	317.7	7770	60

System: hexadecanoic acid + ethanol + carbon dioxide; phases: Liquid, Gas
Fixed: Mole fraction of carbon dioxide = 0.7841
Fixed: Mole fraction of ethanol = 0.196
Property: Vapor or sublimation pressure, kPa (Liquid); method: Closed cell (Static) method
Temperature, K	Vapor or sublimation pressure, kPa	uncertainty
313	8670	290
323	10860	140
333	12840	150
343	14850	450

System: hexadecanoic acid + ethanol + carbon dioxide; phases: Liquid, Crystal
Property: Solid-liquid equilibrium temperature, K (Liquid); method: VISOBS
Mole fraction of carbon dioxide	Mole fraction of ethanol	Pressure, kPa	Solid-liquid equilibrium temperature, K	uncertainty
0.5656	0.1414	8440	318.4	0.3
0.5656	0.1414	9420	318.7	0.3
0.5656	0.1414	10910	318.7	0.3
0.5656	0.1414	11920	318.4	0.3
0.5656	0.1414	13890	319.2	0.3
0.5656	0.1414	16910	319.5	0.5
0.5656	0.1414	19880	321.1	0.3
0.597	0.1493	9050	317.1	0.3
0.597	0.1493	9990	317.4	0.3
0.597	0.1493	11980	317.7	0.3
0.597	0.1493	13950	317.7	0.3
0.597	0.1493	16930	318.9	0.3
0.597	0.1493	19900	319.3	0.3
0.648	0.162	9460	314	0.3
0.648	0.162	10930	314	0.3
0.648	0.162	11940	314.2	0.3
0.648	0.162	13940	314.7	0.3
0.648	0.162	16890	315.1	0.3
0.648	0.162	19930	315.6	0.3
0.6832	0.1708	8940	312.3	0.3
0.6832	0.1708	10440	312	0.3
0.6832	0.1708	11960	312	0.3
0.6832	0.1708	13950	312.5	0.3
0.6832	0.1708	16940	313	0.3
0.6832	0.1708	19920	314	0.3
0.7048	0.1762	10000	310.5	0.3
0.7048	0.1762	11980	311.3	0.3
0.7048	0.1762	13990	311.6	0.3
0.7048	0.1762	16940	311.9	0.3
0.7048	0.1762	19940	312.3	0.3
0.7208	0.1802	11020	310	1
0.7208	0.1802	12020	309.4	0.3
0.7208	0.1802	13970	310.4	0.4
0.7208	0.1802	16950	310.9	0.3
0.7208	0.1802	19920	311.2	0.3
0.7396	0.1849	10980	307.8	0.3
0.7396	0.1849	12000	308.1	0.3
0.7396	0.1849	13990	308.3	0.3
0.7396	0.1849	16950	308.8	0.3
0.7396	0.1849	19910	309	0.3
0.7608	0.1902	10440	305.6	0.3
0.7608	0.1902	10940	304.6	0.3
0.7608	0.1902	11960	305.6	0.3
0.7608	0.1902	13990	306.1	0.3
0.7608	0.1902	16930	306.1	0.3
0.7608	0.1902	19930	305.8	0.3

System: hexadecanoic acid + ethanol + carbon dioxide; phases: Liquid, Gas
Property: Boiling temperature at pressure P, K (Liquid); method: Closed cell (Static) method
Mole fraction of carbon dioxide	Mole fraction of ethanol	Pressure, kPa	Boiling temperature at pressure P, K	uncertainty
0.5656	0.1414	8340	323	1
0.5656	0.1414	9460	333	1
0.5656	0.1414	10480	343	1
0.597	0.1493	8780	323	1
0.597	0.1493	9960	333	1
0.597	0.1493	11000	343	1
0.648	0.162	9180	318	1
0.648	0.162	9880	323	1
0.648	0.162	11420	333	1
0.648	0.162	12740	343	1
0.6832	0.1708	8760	313	1
0.6832	0.1708	10470	323	1
0.6832	0.1708	12340	333	1
0.6832	0.1708	14110	343	1
0.7048	0.1762	9990	313	1
0.7048	0.1762	11860	323	1
0.7048	0.1762	13750	333	1
0.7048	0.1762	15450	343	1
0.7208	0.1802	11030	313	1
0.7208	0.1802	12770	323	1
0.7208	0.1802	14780	333	1
0.7208	0.1802	17000	343	1
0.7396	0.1849	11140	313	1
0.7396	0.1849	13080	323	1
0.7396	0.1849	14860	333	1
0.7396	0.1849	16710	343	1
0.7608	0.1902	10780	313	1
0.7608	0.1902	12750	323	1
0.7608	0.1902	14900	333	1
0.7608	0.1902	16830	343	1
0.7841	0.196	8670	313	1
0.7841	0.196	10860	323	1
0.7841	0.196	12840	333	1
0.7841	0.196	14850	343	1
