Measured thermophysical data. Measuring and modelling the absorption and volumetric properties of CO2 and H2S in the ionic liquid 1-ethyl-3-methylimidazolium tetrafluoroborate
Source: J. Chem. Thermodyn., 2019, 10.1016/j.jct.2018.12.005
Compound 1: hydrogen sulfide, H2S, InChI=1S/H2S/h1H2, purity 99.95%
Compound 2: carbon dioxide, CO2, InChI=1S/CO2/c2-1-3, purity 99.95%
Compound 3: 1-ethyl-3-methylimidazolium tetrafluoroborate, C6H11BF4N2, InChI=1S/C6H11N2.BF4/c1-3-8-5-4-7(2)6-8;2-1(3,4)5/h4-6H,3H2,1-2H3;/q+1;-1, purity 98%

System: 1-ethyl-3-methylimidazolium tetrafluoroborate; phases: Liquid, Gas
Property: Molar volume, m3/mol (Liquid); method: Other PVT measurement
Temperature, K	Molar volume, m3/mol	uncertainty
298.15	0.0001542	3.1e-06
303.15	0.0001549	3.1e-06
313.15	0.0001556	3.1e-06
323.15	0.0001566	3.1e-06
333.15	0.0001576	3.2e-06
343.15	0.0001587	3.2e-06
353.15	0.0001598	3.2e-06
298.15	0.0001545	3.1e-06
313.15	0.0001558	3.1e-06
323.15	0.0001568	3.1e-06
333.15	0.0001577	3.2e-06
353.15	0.0001596	3.2e-06

System: carbon dioxide + 1-ethyl-3-methylimidazolium tetrafluoroborate; phases: Liquid, Gas
Property: Molality, mol/kg of carbon dioxide (Liquid); method: volumetric method
Temperature, K	Pressure, kPa	Molality, mol/kg of carbon dioxide	uncertainty
298.15	71.7	0.049	0.004
298.15	247.1	0.168	0.008
298.15	499.7	0.34	0.016
298.15	750.8	0.507	0.024
298.15	1199.5	0.801	0.042
298.15	1667.1	1.127	0.062
298.15	1989.6	1.337	0.079
303.15	76.4	0.049	0.004
303.15	152.1	0.098	0.006
303.15	350.7	0.225	0.01
303.15	720.1	0.463	0.022
303.15	1019.6	0.635	0.032
303.15	1401.4	0.878	0.048
303.15	1601.8	1.002	0.056
313.15	80.2	0.045	0.004
313.15	274.8	0.154	0.008
313.15	513.1	0.292	0.014
313.15	731.9	0.412	0.022
313.15	1064	0.589	0.032
313.15	1390.8	0.779	0.044
313.15	1675.3	0.943	0.056
323.15	85.1	0.042	0.004
323.15	290.5	0.144	0.008
323.15	432.4	0.218	0.012
323.15	744.9	0.373	0.022
323.15	1137.1	0.568	0.034
323.15	1532.9	0.781	0.048
323.15	1980	1.008	0.066
333.15	89.8	0.037	0.004
333.15	162.6	0.067	0.006
333.15	475.1	0.202	0.012
333.15	866.2	0.382	0.024
333.15	1195.4	0.511	0.034
333.15	1598.3	0.703	0.048
333.15	1853.5	0.838	0.056
343.15	94.2	0.034	0.004
343.15	173.3	0.062	0.006
343.15	368.6	0.136	0.01
343.15	804.6	0.298	0.02
343.15	1165	0.449	0.032
343.15	1462.8	0.574	0.04
343.15	1915.9	0.767	0.056
353.15	107.9	0.033	0.004
353.15	153.9	0.048	0.004
353.15	366.2	0.114	0.01
353.15	708.5	0.228	0.018
353.15	1041.7	0.334	0.026
353.15	1475.3	0.494	0.04
353.15	1700.1	0.577	0.046

System: carbon dioxide + 1-ethyl-3-methylimidazolium tetrafluoroborate; phases: Liquid
Property: Molar volume, m3/mol (Liquid); method: Other PVT measurement
Temperature, K	Pressure, kPa	Molality, mol/kg of carbon dioxide	Molar volume, m3/mol	uncertainty
298.15	71.7	0.049	0.0001529	3.1e-06
298.15	247.1	0.168	0.0001498	3e-06
298.15	499.7	0.34	0.0001457	2.9e-06
298.15	750.8	0.507	0.0001419	2.8e-06
298.15	1199.5	0.801	0.0001357	2.7e-06
298.15	1667.1	1.127	0.0001296	2.6e-06
298.15	1989.6	1.337	0.000126	2.5e-06
303.15	76.4	0.049	0.0001533	3.1e-06
303.15	152.1	0.098	0.0001521	3e-06
303.15	350.7	0.225	0.0001489	3e-06
303.15	720.1	0.463	0.0001433	2.9e-06
303.15	1019.6	0.635	0.0001395	2.8e-06
303.15	1401.4	0.878	0.0001346	2.7e-06
303.15	1601.8	1.002	0.0001323	2.7e-06
313.15	80.2	0.045	0.0001544	3.1e-06
313.15	274.8	0.154	0.0001516	3e-06
313.15	513.1	0.292	0.0001482	3e-06
313.15	731.9	0.412	0.0001453	2.9e-06
313.15	1064	0.589	0.0001414	2.8e-06
313.15	1390.8	0.779	0.0001374	2.8e-06
313.15	1675.3	0.943	0.0001342	2.7e-06
323.15	85.1	0.042	0.0001555	3.1e-06
323.15	290.5	0.144	0.0001528	3.1e-06
323.15	432.4	0.218	0.0001509	3e-06
323.15	744.9	0.373	0.0001472	3e-06
323.15	1137.1	0.568	0.0001428	2.9e-06
323.15	1532.9	0.781	0.0001383	2.8e-06
323.15	1980	1.008	0.0001338	2.7e-06
333.15	89.8	0.037	0.0001566	3.1e-06
333.15	162.6	0.067	0.0001558	3.1e-06
333.15	475.1	0.202	0.0001523	3.1e-06
333.15	866.2	0.382	0.0001479	3e-06
333.15	1195.4	0.511	0.000145	2.9e-06
333.15	1598.3	0.703	0.0001408	2.8e-06
333.15	1853.5	0.838	0.000138	2.8e-06
343.15	94.2	0.034	0.0001578	3.2e-06
343.15	173.3	0.062	0.000157	3.1e-06
343.15	368.6	0.136	0.0001551	3.1e-06
343.15	804.6	0.298	0.000151	3e-06
343.15	1165	0.449	0.0001474	3e-06
343.15	1462.8	0.574	0.0001446	2.9e-06
343.15	1915.9	0.767	0.0001404	2.8e-06
353.15	107.9	0.033	0.0001589	3.2e-06
353.15	153.9	0.048	0.0001585	3.2e-06
353.15	366.2	0.114	0.0001567	3.1e-06
353.15	708.5	0.228	0.0001538	3.1e-06
353.15	1041.7	0.334	0.0001512	3e-06
353.15	1475.3	0.494	0.0001474	3e-06
353.15	1700.1	0.577	0.0001455	2.9e-06

System: hydrogen sulfide + 1-ethyl-3-methylimidazolium tetrafluoroborate; phases: Liquid, Gas
Property: Molality, mol/kg of hydrogen sulfide (Liquid); method: volumetric method
Temperature, K	Pressure, kPa	Molality, mol/kg of hydrogen sulfide	uncertainty
298.15	50.8	0.146	0.005
298.15	122.9	0.363	0.007
298.15	217.1	0.666	0.009
298.15	462.1	1.578	0.021
298.15	583.9	2.105	0.03
298.15	729.2	2.778	0.042
298.15	893.2	3.631	0.057
298.15	1090.8	4.846	0.081
298.15	1232.9	5.88	0.101
298.15	1404.6	7.389	0.135
303.15	53.6	0.137	0.004
303.15	130.4	0.341	0.007
303.15	234.2	0.637	0.009
303.15	500	1.525	0.023
303.15	793	2.657	0.043
303.15	974	3.471	0.058
303.15	1194.1	4.627	0.082
303.15	1353.7	5.605	0.105
303.15	1548.4	7.023	0.139
313.15	62.4	0.128	0.004
313.15	151.2	0.317	0.007
313.15	268	0.58	0.009
313.15	576.3	1.363	0.024
313.15	924	2.406	0.044
313.15	1138	3.145	0.061
313.15	1405.1	4.184	0.086
313.15	1601.1	5.073	0.111
313.15	1844.4	6.368	0.148
323.15	69.9	0.118	0.004
323.15	169.7	0.294	0.006
323.15	301.4	0.538	0.011
323.15	651.7	1.266	0.024
323.15	1049.6	2.185	0.045
323.15	1301.4	2.845	0.062
323.15	1615.9	3.773	0.089
323.15	1848.3	4.57	0.115
333.15	77.2	0.11	0.004
333.15	187.6	0.273	0.006
333.15	334	0.498	0.011
333.15	724.3	1.156	0.025
333.15	1174.6	1.982	0.046
333.15	1460.7	2.575	0.065
333.15	1821.4	3.404	0.092
343.15	88.4	0.108	0.004
343.15	205	0.256	0.006
343.15	365.4	0.462	0.011
343.15	535.9	0.696	0.016
343.15	795.7	1.06	0.025
343.15	998.1	1.351	0.033
343.15	1294.7	1.811	0.048
343.15	1614	2.346	0.066
353.15	96	0.101	0.004
353.15	221.7	0.237	0.006
353.15	395.3	0.426	0.011
353.15	566.9	0.626	0.016
353.15	863.6	0.975	0.025
353.15	1116.7	1.282	0.035
353.15	1409.7	1.659	0.047
353.15	1760.1	2.146	0.066

System: hydrogen sulfide + 1-ethyl-3-methylimidazolium tetrafluoroborate; phases: Liquid
Property: Molar volume, m3/mol (Liquid); method: Other PVT measurement
Temperature, K	Pressure, kPa	Molality, mol/kg of hydrogen sulfide	Molar volume, m3/mol	uncertainty
298.15	50.8	0.146	0.000151	3e-06
298.15	122.9	0.363	0.0001465	2.9e-06
298.15	217.1	0.666	0.0001409	2.8e-06
298.15	462.1	1.578	0.0001271	2.5e-06
298.15	583.9	2.105	0.0001207	2.4e-06
298.15	729.2	2.778	0.0001138	2.3e-06
298.15	893.2	3.631	0.0001066	2.1e-06
298.15	1090.8	4.846	9.85e-05	2e-06
298.15	1232.9	5.88	9.3e-05	1.9e-06
298.15	1404.6	7.389	8.67e-05	1.7e-06
303.15	53.6	0.137	0.0001516	3e-06
303.15	130.4	0.341	0.0001474	3e-06
303.15	234.2	0.637	0.0001419	2.8e-06
303.15	500	1.525	0.0001282	2.6e-06
303.15	793	2.657	0.0001154	2.3e-06
303.15	974	3.471	0.0001083	2.2e-06
303.15	1194.1	4.627	0.0001003	2e-06
303.15	1353.7	5.605	9.49e-05	1.9e-06
303.15	1548.4	7.023	8.86e-05	1.8e-06
313.15	62.4	0.128	0.0001528	3.1e-06
313.15	151.2	0.317	0.0001489	3e-06
313.15	268	0.58	0.0001439	2.9e-06
313.15	576.3	1.363	0.0001314	2.6e-06
313.15	924	2.406	0.0001189	2.4e-06
313.15	1138	3.145	0.000112	2.2e-06
313.15	1405.1	4.184	0.0001041	2.1e-06
313.15	1601.1	5.073	9.87e-05	2e-06
313.15	1844.4	6.368	9.23e-05	1.8e-06
323.15	69.9	0.118	0.000154	3.1e-06
323.15	169.7	0.294	0.0001504	3e-06
323.15	301.4	0.538	0.0001456	2.9e-06
323.15	651.7	1.266	0.0001338	2.7e-06
323.15	1049.6	2.185	0.0001223	2.5e-06
323.15	1301.4	2.845	0.0001157	2.3e-06
323.15	1615.9	3.773	0.0001081	2.2e-06
323.15	1848.3	4.57	0.0001027	2.1e-06
333.15	77.2	0.11	0.0001552	3.1e-06
333.15	187.6	0.273	0.0001518	3e-06
333.15	334	0.498	0.0001474	3e-06
333.15	724.3	1.156	0.0001365	2.7e-06
333.15	1174.6	1.982	0.0001257	2.5e-06
333.15	1460.7	2.575	0.0001193	2.4e-06
333.15	1821.4	3.404	0.000112	2.2e-06
343.15	88.4	0.108	0.0001564	3.1e-06
343.15	205	0.256	0.0001532	3.1e-06
343.15	365.4	0.462	0.0001492	3e-06
343.15	535.9	0.696	0.000145	2.9e-06
343.15	795.7	1.06	0.000139	2.8e-06
343.15	998.1	1.351	0.0001348	2.7e-06
343.15	1294.7	1.811	0.0001288	2.6e-06
343.15	1614	2.346	0.0001228	2.5e-06
353.15	96	0.101	0.0001576	3.2e-06
353.15	221.7	0.237	0.0001548	3.1e-06
353.15	395.3	0.426	0.000151	3e-06
353.15	566.9	0.626	0.0001473	3e-06
353.15	863.6	0.975	0.0001415	2.8e-06
353.15	1116.7	1.282	0.0001369	2.7e-06
353.15	1409.7	1.659	0.0001318	2.6e-06
353.15	1760.1	2.146	0.0001261	2.5e-06
