Measured thermophysical data. The influence of structure of ionic liquid containing cyano group on mutual solubility with water
Source: J. Chem. Thermodyn., 2019, 10.1016/j.jct.2019.05.019
Compound 1: 1-butyl-4-cyanopyridinium bis(trifluoromethylsulfonyl)imide, C12H13F6N3O4S2, InChI=1S/C10H13N2.C2F6NO4S2/c1-2-3-6-12-7-4-10(9-11)5-8-12;3-1(4,5)14(10,11)9-15(12,13)2(6,7)8/h4-5,7-8H,2-3,6H2,1H3;/q+1;-1, purity 98%
Compound 2: 1-hexyl-4-cyanopyridinium bis(trifluoromethylsulfonyl)imide, C14H17F6N3O4S2, InChI=1S/C12H17N2.C2F6NO4S2/c1-2-3-4-5-8-14-9-6-12(11-13)7-10-14;3-1(4,5)14(10,11)9-15(12,13)2(6,7)8/h6-7,9-10H,2-5,8H2,1H3;/q+1;-1, purity 98%
Compound 3: 3-cyano-1-hexylpyridinium 1,1,1-trifluoro-N-[(trifluoromethyl)sulfonyl]methanesulfonamide, C14H17F6N3O4S2, InChI=1S/C12H17N2.C2F6NO4S2/c1-2-3-4-5-8-14-9-6-7-12(10-13)11-14;3-1(4,5)14(10,11)9-15(12,13)2(6,7)8/h6-7,9,11H,2-5,8H2,1H3;/q+1;-1, purity 98%
Compound 4: 3-cyano-1-octylpyridinium 1,1,1-trifluoro-N-[(trifluoromethyl)sulfonyl]methanesulfonamide, C16H21F6N3O4S2, InChI=1S/C14H21N2.C2F6NO4S2/c1-2-3-4-5-6-7-10-16-11-8-9-14(12-15)13-16;3-1(4,5)14(10,11)9-15(12,13)2(6,7)8/h8-9,11,13H,2-7,10H2,1H3;/q+1;-1, purity 98%
Compound 5: water, H2O, InChI=1S/H2O/h1H2

System: 1-butyl-4-cyanopyridinium bis(trifluoromethylsulfonyl)imide + water; phases: Liquid mixture 1, Liquid mixture 2
Fixed: Pressure, kPa = 100
Property: Liquid-liquid equilibrium temperature, K (Liquid mixture 1); method: VISOBS
Mole fraction of 1-butyl-4-cyanopyridinium bis(trifluoromethylsulfonyl)imide	Liquid-liquid equilibrium temperature, K	uncertainty
0.6982	299.99	1.11
0.6778	304.62	1.14
0.656	311.18	1.12
0.6266	316.89	1.06
0.6018	320.05	1.05
0.5829	322.91	1.05
0.5617	325.65	1.05
0.5452	328.17	1.09
0.5332	331.46	1.06
0.4921	336.74	1.05
0.4771	339.41	1.05
0.4568	342.12	1.04

System: 1-hexyl-4-cyanopyridinium bis(trifluoromethylsulfonyl)imide + water; phases: Liquid mixture 1, Liquid mixture 2
Fixed: Pressure, kPa = 100
Property: Liquid-liquid equilibrium temperature, K (Liquid mixture 1); method: VISOBS
Mole fraction of 1-hexyl-4-cyanopyridinium bis(trifluoromethylsulfonyl)imide	Liquid-liquid equilibrium temperature, K	uncertainty
0.7004	305.69	1.11
0.6741	311.72	1.11
0.6416	319.05	1.15
0.6176	327.16	1.21
0.5915	335.73	1.18
0.5702	341.39	1.16
0.5538	346.53	1.17
0.5337	352.15	1.15

System: 3-cyano-1-hexylpyridinium 1,1,1-trifluoro-N-[(trifluoromethyl)sulfonyl]methanesulfonamide + water; phases: Liquid mixture 1, Liquid mixture 2
Fixed: Pressure, kPa = 100
Property: Liquid-liquid equilibrium temperature, K (Liquid mixture 1); method: VISOBS
Mole fraction of 3-cyano-1-hexylpyridinium 1,1,1-trifluoro-N-[(trifluoromethyl)sulfonyl]methanesulfonamide	Liquid-liquid equilibrium temperature, K	uncertainty
0.7866	300.16	1.05
0.7298	308.22	1.05
0.6859	314.75	1.07
0.6515	322.51	1.09
0.6169	328.48	1.07
0.5762	336.18	1.06
0.5414	340.58	1.08
0.5152	347.68	1.09
0.4929	350.7	1.06
0.4432	359.61	1.07

System: 3-cyano-1-octylpyridinium 1,1,1-trifluoro-N-[(trifluoromethyl)sulfonyl]methanesulfonamide + water; phases: Liquid mixture 1, Liquid mixture 2
Fixed: Pressure, kPa = 100
Property: Liquid-liquid equilibrium temperature, K (Liquid mixture 1); method: VISOBS
Mole fraction of 3-cyano-1-octylpyridinium 1,1,1-trifluoro-N-[(trifluoromethyl)sulfonyl]methanesulfonamide	Liquid-liquid equilibrium temperature, K	uncertainty
0.7693	305.03	1.08
0.7244	313.6	1.1
0.6851	322.71	1.1
0.6487	329.69	1.1
0.6185	337.18	1.11
0.5846	344.18	1.07
0.538	351.98	1.08
0.4974	360.71	1.1
