Measured thermophysical data. The experimental investigation of the vapour liquid phase equilibrium for (ammonia + 2,3,3,3-tetrafluoroprop-1-ene) system
Source: J. Chem. Thermodyn., 2017, 10.1016/j.jct.2017.06.018
Compound 1: ammonia, H3N, InChI=1S/H3N/h1H3, purity 99.999%
Compound 2: 2,3,3,3-tetrafluoro-1-propene, C3H2F4, InChI=1S/C3H2F4/c1-2(4)3(5,6)7/h1H2, purity 99.5%

System: 2,3,3,3-tetrafluoro-1-propene; phases: Liquid, Gas
Property: Vapor or sublimation pressure, kPa (Liquid); method: Closed cell (Static) method
Temperature, K	Vapor or sublimation pressure, kPa	uncertainty
243.15	99.4	1.6
248.15	123.2	1.6
253.15	151.4	1.6
258.15	184.2	1.6
263.15	222.4	1.6
268.15	266.9	1.6
273.15	317.2	1.7
278.15	374.4	1.7
283.15	438.5	1.7
288.15	511.9	1.8
293.15	591.7	1.8

System: 2,3,3,3-tetrafluoro-1-propene + ammonia; phases: Liquid, Gas
Property: Vapor or sublimation pressure, kPa (Liquid); method: Closed cell (Static) method
Mole fraction of ammonia	Temperature, K	Vapor or sublimation pressure, kPa	uncertainty
0	283.15	438.5	2
0.112	283.15	592	2.3
0.2	283.15	678.7	2.5
0.285	283.15	731.9	2.7
0.552	283.15	847.9	2.9
0.604	283.15	854.3	2.9
0.638	283.15	856.2	3
0.8	283.15	849.1	2.9
0.896	283.15	824	2.9
0.934	283.15	806.8	2.8
0.957	283.15	777.8	2.8
1	283.15	614.8	2.4
0	273.15	317.2	1.9
0.198	273.15	499.4	2.2
0.272	273.15	538.9	2.2
0.543	273.15	613.9	2.4
0.598	273.15	617.1	2.4
0.642	273.15	618	2.4
0.78	273.15	616.1	2.4
0.85	273.15	613.9	2.4
0.915	273.15	601.3	2.4
0.954	273.15	588.6	2.3
0.969	273.15	567.6	2.3
1	273.15	429.7	2
0	263.15	222.4	1.7
0.205	263.15	358.8	1.9
0.268	263.15	386.1	2
0.546	263.15	432.3	2
0.594	263.15	433.9	2
0.642	263.15	434.1	2
0.785	263.15	432.9	2
0.855	263.15	432.4	2
0.919	263.15	427.5	2
0.954	263.15	420.8	2
0.968	263.15	405.9	2
1	263.15	291	1.8
0	253.15	151.4	1.7
0.126	253.15	225.2	1.7
0.206	253.15	249.8	1.8
0.242	253.15	266.7	1.8
0.542	253.15	295	1.8
0.595	253.15	295.4	1.8
0.64	253.15	295.3	1.8
0.69	253.15	295.3	1.8
0.915	253.15	295.2	1.8
0.945	253.15	293	1.8
0.986	253.15	239.7	1.7
1	253.15	190.2	1.7
0	243.15	99.4	1.6
0.203	243.15	167.8	1.7
0.279	243.15	178.1	1.7
0.499	243.15	193.7	1.7
0.5	243.15	193.7	1.7
0.504	243.15	193.3	1.7
0.509	243.15	193.3	1.7
0.98	243.15	193.3	1.7
0.988	243.15	165.5	1.7
1	243.15	120	1.6

System: 2,3,3,3-tetrafluoro-1-propene + ammonia; phases: Gas, Liquid
Property: Mole fraction of ammonia (Gas); method: Chromatography
Mole fraction of ammonia	Temperature, K	Mole fraction of ammonia	uncertainty
0	283.15	0	
0.112	283.15	0.314	0.01
0.2	283.15	0.429	0.011
0.285	283.15	0.491	0.011
0.552	283.15	0.638	0.01
0.604	283.15	0.656	0.01
0.638	283.15	0.666	0.01
0.8	283.15	0.711	0.01
0.896	283.15	0.75	0.01
0.934	283.15	0.772	0.01
0.957	283.15	0.796	0.01
1	283.15	1	
0	273.15	0	
0.198	273.15	0.444	0.011
0.272	273.15	0.507	0.011
0.543	273.15	0.637	0.01
0.598	273.15	0.65	0.01
0.642	273.15	0.659	0.01
0.78	273.15	0.68	0.01
0.85	273.15	0.691	0.01
0.915	273.15	0.716	0.01
0.954	273.15	0.734	0.01
0.969	273.15	0.759	0.01
1	273.15	1	
0	263.15	0	
0.205	263.15	0.46	0.011
0.268	263.15	0.52	0.011
0.546	263.15	0.631	0.01
0.594	263.15	0.643	0.01
0.642	263.15	0.648	0.01
0.785	263.15	0.66	0.01
0.855	263.15	0.667	0.01
0.919	263.15	0.683	0.01
0.954	263.15	0.699	0.01
0.968	263.15	0.717	0.01
1	263.15	1	
0	253.15	0	
0.126	253.15	0.395	0.011
0.206	253.15	0.473	0.011
0.242	253.15	0.528	0.011
0.542	253.15	0.626	0.011
0.595	253.15	0.632	0.01
0.64	253.15	0.636	0.01
0.69	253.15	0.64	0.01
0.915	253.15	0.641	0.01
0.945	253.15	0.645	0.01
0.986	253.15	0.788	0.01
1	253.15	1	
0	243.15	0	
0.203	243.15	0.485	0.011
0.279	243.15	0.536	0.011
0.499	243.15	0.617	0.011
0.5	243.15	0.615	0.011
0.504	243.15	0.616	0.011
0.509	243.15	0.617	0.011
0.98	243.15	0.616	0.011
0.988	243.15	0.715	0.01
1	243.15	1	

System: 2,3,3,3-tetrafluoro-1-propene + ammonia; phases: Liquid mixture 1, Liquid mixture 2
Property: Mole fraction of ammonia (Liquid mixture 1); method: Chromatography
Temperature, K	Pressure, kPa	Mole fraction of ammonia	uncertainty
253.15	295.3	0.69	0.01
243.15	193.3	0.509	0.011

System: 2,3,3,3-tetrafluoro-1-propene + ammonia; phases: Liquid mixture 2, Liquid mixture 1
Property: Mole fraction of ammonia (Liquid mixture 2); method: Chromatography
Temperature, K	Pressure, kPa	Mole fraction of ammonia	uncertainty
253.15	295.3	0.915	0.01
243.15	193.3	0.98	0.01
