Measured thermophysical data. Viscosity and density measurements of aqueous amines at high pressures: MDEA-water and MEA-water mixtures for CO2 capture
Source: J. Chem. Thermodyn., 2016, 10.1016/j.jct.2016.03.021
Compound 1: N-methyldiethanolamine, C5H13NO2, InChI=1S/C5H13NO2/c1-6(2-4-7)3-5-8/h7-8H,2-5H2,1H3, purity 99.9%
Compound 2: 2-aminoethan-1-ol, C2H7NO, InChI=1S/C2H7NO/c3-1-2-4/h4H,1-3H2, purity 99.8%
Compound 3: water, H2O, InChI=1S/H2O/h1H2, purity 99.8%

System: N-methyldiethanolamine + water; phases: Liquid
Property: Mass density, kg/m3 (Liquid); method: Vibrating tube method
Mass fraction of N-methyldiethanolamine	Temperature, K	Pressure, kPa	Mass density, kg/m3	uncertainty
0.1	293.15	100	1007	0.7
0.1	293.15	500	1007.2	0.7
0.1	293.15	1000	1007.4	0.7
0.1	293.15	2000	1007.8	0.7
0.1	293.15	5000	1009	0.7
0.1	293.15	10000	1011.1	0.7
0.1	293.15	15000	1013.2	0.7
0.1	293.15	20000	1015.3	0.7
0.1	293.15	30000	1019.4	0.7
0.1	293.15	40000	1023.4	0.7
0.1	293.15	50000	1027.3	0.7
0.1	293.15	60000	1031.1	0.7
0.1	293.15	70000	1035	0.7
0.1	293.15	80000	1038.5	0.7
0.1	293.15	90000	1042.2	0.7
0.1	293.15	100000	1045.7	0.7
0.1	293.15	110000	1049.2	0.7
0.1	293.15	120000	1052.7	0.8
0.1	293.15	130000	1056.1	0.8
0.1	293.15	140000	1059.5	0.8
0.1	313.15	100	1000.2	0.7
0.1	313.15	500	1000.4	0.7
0.1	313.15	1000	1000.6	0.7
0.1	313.15	2000	1001	0.7
0.1	313.15	5000	1002.2	0.7
0.1	313.15	10000	1004.3	0.7
0.1	313.15	15000	1006.3	0.7
0.1	313.15	20000	1008.2	0.7
0.1	313.15	30000	1012.3	0.7
0.1	313.15	40000	1016.2	0.7
0.1	313.15	50000	1019.9	0.7
0.1	313.15	60000	1023.8	0.7
0.1	313.15	70000	1027.4	0.7
0.1	313.15	80000	1031	0.7
0.1	313.15	90000	1034.5	0.7
0.1	313.15	100000	1038.2	0.7
0.1	313.15	110000	1041.5	0.7
0.1	313.15	120000	1044.9	0.7
0.1	313.15	130000	1048.1	0.8
0.1	313.15	140000	1051.4	0.8
0.1	333.15	100	990.5	0.7
0.1	333.15	500	990.6	0.7
0.1	333.15	1000	990.8	0.7
0.1	333.15	2000	991.3	0.7
0.1	333.15	5000	992.5	0.7
0.1	333.15	10000	994.6	0.7
0.1	333.15	15000	996.6	0.7
0.1	333.15	20000	998.6	0.7
0.1	333.15	30000	1002.6	0.7
0.1	333.15	40000	1006.7	0.7
0.1	333.15	50000	1010.4	0.7
0.1	333.15	60000	1014.2	0.7
0.1	333.15	70000	1017.9	0.7
0.1	333.15	80000	1021.6	0.7
0.1	333.15	90000	1025.1	0.7
0.1	333.15	100000	1028.5	0.7
0.1	333.15	110000	1031.9	0.7
0.1	333.15	120000	1035.4	0.7
0.1	333.15	130000	1038.7	0.7
0.1	333.15	140000	1042	0.7
0.1	353.15	100	978.6	0.7
0.1	353.15	500	978.7	0.7
0.1	353.15	1000	978.9	0.7
0.1	353.15	2000	979.3	0.7
0.1	353.15	5000	980.6	0.7
0.1	353.15	10000	982.8	0.7
0.1	353.15	15000	984.9	0.7
0.1	353.15	20000	987	0.7
0.1	353.15	30000	991.2	0.7
0.1	353.15	40000	995.2	0.7
0.1	353.15	50000	999.1	0.7
0.1	353.15	60000	1003.1	0.7
0.1	353.15	70000	1006.9	0.7
0.1	353.15	80000	1010.5	0.7
0.1	353.15	90000	1014	0.7
0.1	353.15	100000	1017.7	0.7
0.1	353.15	110000	1021.2	0.7
0.1	353.15	120000	1024.6	0.7
0.1	353.15	130000	1028	0.7
0.1	353.15	140000	1031.2	0.7
0.1	373.15	100	964.4	0.7
0.1	373.15	500	964.6	0.7
0.1	373.15	1000	964.9	0.7
0.1	373.15	2000	965.3	0.7
0.1	373.15	5000	966.7	0.7
0.1	373.15	10000	969	0.7
0.1	373.15	15000	971.2	0.7
0.1	373.15	20000	973.5	0.7
0.1	373.15	30000	977.9	0.7
0.1	373.15	40000	982.1	0.7
0.1	373.15	50000	986.2	0.7
0.1	373.15	60000	990.1	0.7
0.1	373.15	70000	994.2	0.7
0.1	373.15	80000	998.1	0.7
0.1	373.15	90000	1001.8	0.7
0.1	373.15	100000	1005.3	0.7
0.1	373.15	110000	1009	0.7
0.1	373.15	120000	1012.6	0.7
0.1	373.15	130000	1016	0.7
0.1	373.15	140000	1019.4	0.7
0.1	393.15	100	948.6	0.7
0.1	393.15	500	949	0.7
0.1	393.15	1000	949.2	0.7
0.1	393.15	2000	949.6	0.7
0.1	393.15	5000	951.1	0.7
0.1	393.15	10000	953.6	0.7
0.1	393.15	15000	956	0.7
0.1	393.15	20000	958.5	0.7
0.1	393.15	30000	963	0.7
0.1	393.15	40000	967.6	0.7
0.1	393.15	50000	971.8	0.7
0.1	393.15	60000	976.2	0.7
0.1	393.15	70000	980.4	0.7
0.1	393.15	80000	984.3	0.7
0.1	393.15	90000	988.3	0.7
0.1	393.15	100000	992.1	0.7
0.1	393.15	110000	995.9	0.7
0.1	393.15	120000	999.6	0.7
0.1	393.15	130000	1003.1	0.7
0.1	393.15	140000	1006.7	0.7
0.2002	293.15	100	1016.5	0.7
0.2002	293.15	500	1016.6	0.7
0.2002	293.15	1000	1016.8	0.7
0.2002	293.15	2000	1017.2	0.7
0.2002	293.15	5000	1018.4	0.7
0.2002	293.15	10000	1020.3	0.7
0.2002	293.15	15000	1022.2	0.7
0.2002	293.15	20000	1024.2	0.7
0.2002	293.15	30000	1028	0.7
0.2002	293.15	40000	1031.8	0.7
0.2002	293.15	50000	1035.4	0.7
0.2002	293.15	60000	1039	0.7
0.2002	293.15	70000	1042.6	0.7
0.2002	293.15	80000	1045.9	0.7
0.2002	293.15	90000	1049.4	0.7
0.2002	293.15	100000	1052.8	0.7
0.2002	293.15	110000	1056	0.8
0.2002	293.15	120000	1059.3	0.8
0.2002	293.15	130000	1062.6	0.8
0.2002	293.15	140000	1065.6	0.8
0.2002	313.15	100	1008.5	0.7
0.2002	313.15	500	1008.6	0.7
0.2002	313.15	1000	1008.8	0.7
0.2002	313.15	2000	1009.2	0.7
0.2002	313.15	5000	1010.4	0.7
0.2002	313.15	10000	1012.3	0.7
0.2002	313.15	15000	1014.2	0.7
0.2002	313.15	20000	1016.1	0.7
0.2002	313.15	30000	1019.9	0.7
0.2002	313.15	40000	1023.7	0.7
0.2002	313.15	50000	1027.3	0.7
0.2002	313.15	60000	1031	0.7
0.2002	313.15	70000	1034.4	0.7
0.2002	313.15	80000	1037.9	0.7
0.2002	313.15	90000	1041.2	0.7
0.2002	313.15	100000	1044.7	0.7
0.2002	313.15	110000	1047.9	0.7
0.2002	313.15	120000	1051.1	0.8
0.2002	313.15	130000	1054.3	0.8
0.2002	313.15	140000	1057.4	0.8
0.2002	333.15	100	997.8	0.7
0.2002	333.15	500	998	0.7
0.2002	333.15	1000	998.2	0.7
0.2002	333.15	2000	998.6	0.7
0.2002	333.15	5000	999.8	0.7
0.2002	333.15	10000	1001.8	0.7
0.2002	333.15	15000	1003.8	0.7
0.2002	333.15	20000	1005.7	0.7
0.2002	333.15	30000	1009.7	0.7
0.2002	333.15	40000	1013.6	0.7
0.2002	333.15	50000	1017.2	0.7
0.2002	333.15	60000	1020.9	0.7
0.2002	333.15	70000	1024.4	0.7
0.2002	333.15	80000	1027.9	0.7
0.2002	333.15	90000	1031.3	0.7
0.2002	333.15	100000	1034.7	0.7
0.2002	333.15	110000	1038	0.7
0.2002	333.15	120000	1041.4	0.7
0.2002	333.15	130000	1044.5	0.7
0.2002	333.15	140000	1047.7	0.8
0.2002	353.15	100	985.3	0.7
0.2002	353.15	500	985.3	0.7
0.2002	353.15	1000	985.5	0.7
0.2002	353.15	2000	985.9	0.7
0.2002	353.15	5000	987.2	0.7
0.2002	353.15	10000	989.4	0.7
0.2002	353.15	15000	991.5	0.7
0.2002	353.15	20000	993.5	0.7
0.2002	353.15	30000	997.6	0.7
0.2002	353.15	40000	1001.6	0.7
0.2002	353.15	50000	1005.5	0.7
0.2002	353.15	60000	1009.3	0.7
0.2002	353.15	70000	1012.9	0.7
0.2002	353.15	80000	1016.6	0.7
0.2002	353.15	90000	1020	0.7
0.2002	353.15	100000	1023.6	0.7
0.2002	353.15	110000	1027	0.7
0.2002	353.15	120000	1030.4	0.7
0.2002	353.15	130000	1033.6	0.7
0.2002	353.15	140000	1036.8	0.7
0.2002	373.15	100	970.5	0.7
0.2002	373.15	500	970.7	0.7
0.2002	373.15	1000	970.9	0.7
0.2002	373.15	2000	971.4	0.7
0.2002	373.15	5000	972.8	0.7
0.2002	373.15	10000	975	0.7
0.2002	373.15	15000	977.2	0.7
0.2002	373.15	20000	979.5	0.7
0.2002	373.15	30000	983.9	0.7
0.2002	373.15	40000	988.2	0.7
0.2002	373.15	50000	992.1	0.7
0.2002	373.15	60000	996.1	0.7
0.2002	373.15	70000	1000	0.7
0.2002	373.15	80000	1003.8	0.7
0.2002	373.15	90000	1007.4	0.7
0.2002	373.15	100000	1011.1	0.7
0.2002	373.15	110000	1014.7	0.7
0.2002	373.15	120000	1018.3	0.7
0.2002	373.15	130000	1021.5	0.7
0.2002	373.15	140000	1025	0.7
0.2002	393.15	100	954	0.7
0.2002	393.15	500	954.4	0.7
0.2002	393.15	1000	954.6	0.7
0.2002	393.15	2000	955.2	0.7
0.2002	393.15	5000	956.7	0.7
0.2002	393.15	10000	959.2	0.7
0.2002	393.15	15000	961.6	0.7
0.2002	393.15	20000	964	0.7
0.2002	393.15	30000	968.5	0.7
0.2002	393.15	40000	973.1	0.7
0.2002	393.15	50000	977.3	0.7
0.2002	393.15	60000	981.7	0.7
0.2002	393.15	70000	985.9	0.7
0.2002	393.15	80000	989.8	0.7
0.2002	393.15	90000	993.7	0.7
0.2002	393.15	100000	997.5	0.7
0.2002	393.15	110000	1001.4	0.7
0.2002	393.15	120000	1005	0.7
0.2002	393.15	130000	1008.5	0.7
0.2002	393.15	140000	1012	0.7
0.3	293.15	100	1026.7	0.7
0.3	293.15	500	1026.9	0.7
0.3	293.15	1000	1027.1	0.7
0.3	293.15	2000	1027.4	0.7
0.3	293.15	5000	1028.6	0.7
0.3	293.15	10000	1030.4	0.7
0.3	293.15	15000	1032.2	0.7
0.3	293.15	20000	1034.1	0.7
0.3	293.15	30000	1037.7	0.7
0.3	293.15	40000	1041.2	0.7
0.3	293.15	50000	1044.6	0.7
0.3	293.15	60000	1048	0.7
0.3	293.15	70000	1051.4	0.7
0.3	293.15	80000	1054.6	0.7
0.3	293.15	90000	1057.9	0.7
0.3	293.15	100000	1061.1	0.8
0.3	293.15	110000	1064.1	0.8
0.3	293.15	120000	1067.2	0.8
0.3	293.15	130000	1070.3	0.8
0.3	293.15	140000	1073.2	0.8
0.3	313.15	100	1017.2	0.7
0.3	313.15	500	1017.4	0.7
0.3	313.15	1000	1017.5	0.7
0.3	313.15	2000	1017.9	0.7
0.3	313.15	5000	1019.1	0.7
0.3	313.15	10000	1020.9	0.7
0.3	313.15	15000	1022.8	0.7
0.3	313.15	20000	1024.6	0.7
0.3	313.15	30000	1028.4	0.7
0.3	313.15	40000	1032	0.7
0.3	313.15	50000	1035.5	0.7
0.3	313.15	60000	1039	0.7
0.3	313.15	70000	1042.3	0.7
0.3	313.15	80000	1045.5	0.7
0.3	313.15	90000	1048.7	0.7
0.3	313.15	100000	1052	0.7
0.3	313.15	110000	1055.2	0.8
0.3	313.15	120000	1058.3	0.8
0.3	313.15	130000	1061.3	0.8
0.3	313.15	140000	1064.5	0.8
0.3	333.15	100	1005.4	0.7
0.3	333.15	500	1005.6	0.7
0.3	333.15	1000	1005.7	0.7
0.3	333.15	2000	1006.2	0.7
0.3	333.15	5000	1007.3	0.7
0.3	333.15	10000	1009.3	0.7
0.3	333.15	15000	1011.3	0.7
0.3	333.15	20000	1013.2	0.7
0.3	333.15	30000	1017	0.7
0.3	333.15	40000	1020.9	0.7
0.3	333.15	50000	1024.3	0.7
0.3	333.15	60000	1027.9	0.7
0.3	333.15	70000	1031.5	0.7
0.3	333.15	80000	1034.9	0.7
0.3	333.15	90000	1038.1	0.7
0.3	333.15	100000	1041.6	0.7
0.3	333.15	110000	1044.6	0.7
0.3	333.15	120000	1047.9	0.7
0.3	333.15	130000	1051	0.8
0.3	333.15	140000	1054.2	0.8
0.3	353.15	100	992	0.7
0.3	353.15	500	992	0.7
0.3	353.15	1000	992.2	0.7
0.3	353.15	2000	992.7	0.7
0.3	353.15	5000	993.9	0.7
0.3	353.15	10000	996.1	0.7
0.3	353.15	15000	998.2	0.7
0.3	353.15	20000	1000.3	0.7
0.3	353.15	30000	1004.3	0.7
0.3	353.15	40000	1008.1	0.7
0.3	353.15	50000	1012	0.7
0.3	353.15	60000	1015.9	0.7
0.3	353.15	70000	1019.5	0.7
0.3	353.15	80000	1023	0.7
0.3	353.15	90000	1026.4	0.7
0.3	353.15	100000	1029.9	0.7
0.3	353.15	110000	1033.3	0.7
0.3	353.15	120000	1036.6	0.7
0.3	353.15	130000	1039.8	0.7
0.3	353.15	140000	1042.9	0.7
0.3	373.15	100	976.5	0.7
0.3	373.15	500	976.6	0.7
0.3	373.15	1000	976.9	0.7
0.3	373.15	2000	977.4	0.7
0.3	373.15	5000	978.7	0.7
0.3	373.15	10000	981.1	0.7
0.3	373.15	15000	983.4	0.7
0.3	373.15	20000	985.6	0.7
0.3	373.15	30000	989.8	0.7
0.3	373.15	40000	994.1	0.7
0.3	373.15	50000	998.1	0.7
0.3	373.15	60000	1002.1	0.7
0.3	373.15	70000	1005.9	0.7
0.3	373.15	80000	1009.8	0.7
0.3	373.15	90000	1013.3	0.7
0.3	373.15	100000	1017	0.7
0.3	373.15	110000	1020.5	0.7
0.3	373.15	120000	1024	0.7
0.3	373.15	130000	1027.4	0.7
0.3	373.15	140000	1030.7	0.7
0.3	393.15	100	959.6	0.7
0.3	393.15	500	959.9	0.7
0.3	393.15	1000	960.1	0.7
0.3	393.15	2000	960.6	0.7
0.3	393.15	5000	962.1	0.7
0.3	393.15	10000	964.7	0.7
0.3	393.15	15000	967.1	0.7
0.3	393.15	20000	969.6	0.7
0.3	393.15	30000	974.2	0.7
0.3	393.15	40000	978.7	0.7
0.3	393.15	50000	983	0.7
0.3	393.15	60000	987.4	0.7
0.3	393.15	70000	991.6	0.7
0.3	393.15	80000	995.4	0.7
0.3	393.15	90000	999.4	0.7
0.3	393.15	100000	1003.1	0.7
0.3	393.15	110000	1006.9	0.7
0.3	393.15	120000	1010.6	0.7
0.3	393.15	130000	1014.1	0.7
0.3	393.15	140000	1017.6	0.7
0.4	293.15	100	1036.6	0.7
0.4	293.15	500	1036.8	0.7
0.4	293.15	1000	1036.9	0.7
0.4	293.15	2000	1037.3	0.7
0.4	293.15	5000	1038.3	0.7
0.4	293.15	10000	1040.1	0.7
0.4	293.15	15000	1041.9	0.7
0.4	293.15	20000	1043.6	0.7
0.4	293.15	30000	1047.1	0.7
0.4	293.15	40000	1050.4	0.7
0.4	293.15	50000	1053.8	0.7
0.4	293.15	60000	1057.1	0.7
0.4	293.15	70000	1060.3	0.7
0.4	293.15	80000	1063.3	0.7
0.4	293.15	90000	1066.4	0.8
0.4	293.15	100000	1069.5	0.8
0.4	293.15	110000	1072.4	0.8
0.4	293.15	120000	1075.4	0.8
0.4	293.15	130000	1078.4	0.8
0.4	293.15	140000	1081.1	0.8
0.4	313.15	100	1025.5	0.7
0.4	313.15	500	1025.6	0.7
0.4	313.15	1000	1025.8	0.7
0.4	313.15	2000	1026.2	0.7
0.4	313.15	5000	1027.3	0.7
0.4	313.15	10000	1029.2	0.7
0.4	313.15	15000	1031	0.7
0.4	313.15	20000	1032.8	0.7
0.4	313.15	30000	1036.3	0.7
0.4	313.15	40000	1040	0.7
0.4	313.15	50000	1043.2	0.7
0.4	313.15	60000	1046.6	0.7
0.4	313.15	70000	1050	0.7
0.4	313.15	80000	1053.1	0.7
0.4	313.15	90000	1056.2	0.7
0.4	313.15	100000	1059.5	0.8
0.4	313.15	110000	1062.5	0.8
0.4	313.15	120000	1065.5	0.8
0.4	313.15	130000	1068.4	0.8
0.4	313.15	140000	1071.4	0.8
0.4	333.15	100	1012.4	0.7
0.4	333.15	500	1012.7	0.7
0.4	333.15	1000	1012.8	0.7
0.4	333.15	2000	1013.2	0.7
0.4	333.15	5000	1014.4	0.7
0.4	333.15	10000	1016.4	0.7
0.4	333.15	15000	1018.4	0.7
0.4	333.15	20000	1020.3	0.7
0.4	333.15	30000	1024.1	0.7
0.4	333.15	40000	1027.9	0.7
0.4	333.15	50000	1031.4	0.7
0.4	333.15	60000	1035	0.7
0.4	333.15	70000	1038.4	0.7
0.4	333.15	80000	1041.6	0.7
0.4	333.15	90000	1044.9	0.7
0.4	333.15	100000	1048.2	0.7
0.4	333.15	110000	1051.3	0.7
0.4	333.15	120000	1054.5	0.8
0.4	333.15	130000	1057.5	0.8
0.4	333.15	140000	1060.6	0.8
0.4	353.15	100	998.1	0.7
0.4	353.15	500	998.2	0.7
0.4	353.15	1000	998.4	0.7
0.4	353.15	2000	998.8	0.7
0.4	353.15	5000	1000.1	0.7
0.4	353.15	10000	1002.3	0.7
0.4	353.15	15000	1004.4	0.7
0.4	353.15	20000	1006.5	0.7
0.4	353.15	30000	1010.5	0.7
0.4	353.15	40000	1014.4	0.7
0.4	353.15	50000	1018.2	0.7
0.4	353.15	60000	1022	0.7
0.4	353.15	70000	1025.6	0.7
0.4	353.15	80000	1029.1	0.7
0.4	353.15	90000	1032.6	0.7
0.4	353.15	100000	1036	0.7
0.4	353.15	110000	1039.3	0.7
0.4	353.15	120000	1042.5	0.7
0.4	353.15	130000	1045.8	0.7
0.4	353.15	140000	1048.9	0.8
0.4	373.15	100	981.9	0.7
0.4	373.15	500	982.1	0.7
0.4	373.15	1000	982.4	0.7
0.4	373.15	2000	982.8	0.7
0.4	373.15	5000	984.2	0.7
0.4	373.15	10000	986.5	0.7
0.4	373.15	15000	988.8	0.7
0.4	373.15	20000	991.1	0.7
0.4	373.15	30000	995.5	0.7
0.4	373.15	40000	999.8	0.7
0.4	373.15	50000	1003.7	0.7
0.4	373.15	60000	1007.7	0.7
0.4	373.15	70000	1011.6	0.7
0.4	373.15	80000	1015.4	0.7
0.4	373.15	90000	1019	0.7
0.4	373.15	100000	1022.6	0.7
0.4	373.15	110000	1026.2	0.7
0.4	373.15	120000	1029.7	0.7
0.4	373.15	130000	1033	0.7
0.4	373.15	140000	1036.3	0.7
0.4	393.15	100	964.2	0.7
0.4	393.15	500	964.7	0.7
0.4	393.15	1000	964.8	0.7
0.4	393.15	2000	965.4	0.7
0.4	393.15	5000	966.9	0.7
0.4	393.15	10000	969.5	0.7
0.4	393.15	15000	972	0.7
0.4	393.15	20000	974.5	0.7
0.4	393.15	30000	979.2	0.7
0.4	393.15	40000	983.9	0.7
0.4	393.15	50000	988.1	0.7
0.4	393.15	60000	992.5	0.7
0.4	393.15	70000	996.8	0.7
0.4	393.15	80000	1000.8	0.7
0.4	393.15	90000	1004.6	0.7
0.4	393.15	100000	1008.5	0.7
0.4	393.15	110000	1012.3	0.7
0.4	393.15	120000	1015.9	0.7
0.4	393.15	130000	1019.4	0.7
0.4	393.15	140000	1023	0.7

System: N-methyldiethanolamine + water; phases: Liquid
Property: Viscosity, Pa*s (Liquid); method: Falling or rolling sphere viscometry
Temperature, K	Pressure, kPa	Mass fraction of N-methyldiethanolamine	Viscosity, Pa*s	uncertainty
293.15	100	0.1	0.001476	4.6e-05
293.15	5000	0.1	0.001475	4.6e-05
293.15	10000	0.1	0.001475	4.6e-05
293.15	20000	0.1	0.001471	4.5e-05
293.15	30000	0.1	0.001472	4.5e-05
293.15	40000	0.1	0.00147	4.5e-05
293.15	60000	0.1	0.001474	4.6e-05
293.15	80000	0.1	0.001477	4.6e-05
293.15	100000	0.1	0.001485	4.6e-05
293.15	120000	0.1	0.001492	4.6e-05
313.15	100	0.1	0.000912	2.8e-05
313.15	5000	0.1	0.000914	2.8e-05
313.15	10000	0.1	0.000915	2.8e-05
313.15	20000	0.1	0.00092	2.8e-05
313.15	30000	0.1	0.000923	2.8e-05
313.15	40000	0.1	0.000927	2.9e-05
313.15	60000	0.1	0.000936	2.9e-05
313.15	80000	0.1	0.000945	2.9e-05
313.15	100000	0.1	0.000955	2.9e-05
313.15	120000	0.1	0.000964	3e-05
333.15	100	0.1	0.000624	1.9e-05
333.15	5000	0.1	0.000627	1.9e-05
333.15	10000	0.1	0.00063	1.9e-05
333.15	20000	0.1	0.000634	2e-05
333.15	30000	0.1	0.000638	2e-05
333.15	40000	0.1	0.000643	2e-05
333.15	60000	0.1	0.000652	2e-05
333.15	80000	0.1	0.000661	2e-05
333.15	100000	0.1	0.000672	2.1e-05
333.15	120000	0.1	0.00068	2.1e-05
293.15	100	0.2002	0.00235	7.3e-05
293.15	5000	0.2002	0.002353	7.3e-05
293.15	10000	0.2002	0.002357	7.3e-05
293.15	20000	0.2002	0.002364	7.3e-05
293.15	30000	0.2002	0.002372	7.3e-05
293.15	40000	0.2002	0.00238	7.3e-05
293.15	60000	0.2002	0.002399	7.4e-05
293.15	80000	0.2002	0.002419	7.5e-05
293.15	100000	0.2002	0.002437	7.5e-05
293.15	120000	0.2002	0.002464	7.6e-05
313.15	100	0.2002	0.001345	4.2e-05
313.15	5000	0.2002	0.001347	4.2e-05
313.15	10000	0.2002	0.001349	4.2e-05
313.15	20000	0.2002	0.001358	4.2e-05
313.15	30000	0.2002	0.001367	4.2e-05
313.15	40000	0.2002	0.001377	4.3e-05
313.15	60000	0.2002	0.001398	4.3e-05
313.15	80000	0.2002	0.001418	4.4e-05
313.15	100000	0.2002	0.001445	4.5e-05
313.15	120000	0.2002	0.001466	4.5e-05
333.15	100	0.2002	0.000872	2.7e-05
333.15	5000	0.2002	0.000876	2.7e-05
333.15	10000	0.2002	0.000881	2.7e-05
333.15	20000	0.2002	0.00089	2.7e-05
333.15	30000	0.2002	0.000898	2.8e-05
333.15	40000	0.2002	0.000907	2.8e-05
333.15	60000	0.2002	0.000924	2.9e-05
333.15	80000	0.2002	0.000942	2.9e-05
333.15	100000	0.2002	0.000967	3e-05
333.15	120000	0.2002	0.000982	3e-05
353.15	100	0.2002	0.000617	1.9e-05
353.15	5000	0.2002	0.00062	1.9e-05
353.15	10000	0.2002	0.000625	1.9e-05
353.15	20000	0.2002	0.000633	2e-05
353.15	30000	0.2002	0.00064	2e-05
353.15	40000	0.2002	0.000647	2e-05
353.15	60000	0.2002	0.000661	2e-05
353.15	80000	0.2002	0.000675	2.1e-05
353.15	100000	0.2002	0.000691	2.1e-05
353.15	120000	0.2002	0.000705	2.2e-05
293.15	100	0.3	0.003999	0.000123
293.15	5000	0.3	0.004018	0.000124
293.15	10000	0.3	0.004038	0.000125
293.15	20000	0.3	0.004077	0.000126
293.15	30000	0.3	0.004114	0.000127
293.15	40000	0.3	0.004153	0.000128
293.15	60000	0.3	0.004231	0.000131
293.15	80000	0.3	0.004311	0.000133
293.15	100000	0.3	0.00439	0.000135
293.15	120000	0.3	0.004478	0.000138
313.15	100	0.3	0.002095	6.5e-05
313.15	5000	0.3	0.002106	6.5e-05
313.15	10000	0.3	0.002118	6.5e-05
313.15	20000	0.3	0.002144	6.6e-05
313.15	30000	0.3	0.002168	6.7e-05
313.15	40000	0.3	0.002192	6.8e-05
313.15	60000	0.3	0.002244	6.9e-05
313.15	80000	0.3	0.002296	7.1e-05
313.15	100000	0.3	0.002356	7.3e-05
313.15	120000	0.3	0.002412	7.4e-05
333.15	100	0.3	0.001271	3.9e-05
333.15	5000	0.3	0.001278	3.9e-05
333.15	10000	0.3	0.001286	4e-05
333.15	20000	0.3	0.001302	4e-05
333.15	30000	0.3	0.001316	4.1e-05
333.15	40000	0.3	0.001332	4.1e-05
333.15	60000	0.3	0.001367	4.2e-05
333.15	80000	0.3	0.0014	4.3e-05
333.15	100000	0.3	0.001435	4.4e-05
333.15	120000	0.3	0.001468	4.5e-05
353.15	100	0.3	0.000854	2.6e-05
353.15	5000	0.3	0.000862	2.7e-05
353.15	10000	0.3	0.000869	2.7e-05
353.15	20000	0.3	0.000881	2.7e-05
353.15	30000	0.3	0.000894	2.8e-05
353.15	40000	0.3	0.000907	2.8e-05
353.15	60000	0.3	0.000932	2.9e-05
353.15	80000	0.3	0.000959	3e-05
353.15	100000	0.3	0.000997	3.1e-05
353.15	120000	0.3	0.001018	3.1e-05
313.15	100	0.4	0.003238	0.0001
313.15	5000	0.4	0.00327	0.000101
313.15	10000	0.4	0.003302	0.000102
313.15	20000	0.4	0.003365	0.000104
313.15	30000	0.4	0.003428	0.000106
313.15	40000	0.4	0.003491	0.000108
313.15	60000	0.4	0.003618	0.000112
313.15	80000	0.4	0.00374	0.000115
313.15	100000	0.4	0.003866	0.000119
313.15	120000	0.4	0.003996	0.000123
333.15	100	0.4	0.001843	5.7e-05
333.15	5000	0.4	0.001861	5.7e-05
333.15	10000	0.4	0.00188	5.8e-05
333.15	20000	0.4	0.001921	5.9e-05
333.15	30000	0.4	0.001956	6e-05
333.15	40000	0.4	0.001992	6.1e-05
333.15	60000	0.4	0.002063	6.4e-05
333.15	80000	0.4	0.002134	6.6e-05
333.15	100000	0.4	0.002206	6.8e-05
333.15	120000	0.4	0.00228	7e-05
353.15	100	0.4	0.001181	3.6e-05
353.15	5000	0.4	0.001193	3.7e-05
353.15	10000	0.4	0.001204	3.7e-05
353.15	20000	0.4	0.001229	3.8e-05
353.15	30000	0.4	0.001253	3.9e-05
353.15	40000	0.4	0.001276	3.9e-05
353.15	60000	0.4	0.001322	4.1e-05
353.15	80000	0.4	0.001368	4.2e-05
353.15	100000	0.4	0.001419	4.4e-05
353.15	120000	0.4	0.001467	4.5e-05

System: N-methyldiethanolamine + water; phases: Liquid
Fixed: Pressure, kPa = 100
Property: Viscosity, Pa*s (Liquid); method: Falling or rolling sphere viscometry
Mass fraction of N-methyldiethanolamine	Temperature, K	Viscosity, Pa*s	uncertainty
0.1	293.15	0.001476	4.6e-05
0.1	313.15	0.000912	2.8e-05
0.1	333.15	0.000624	1.9e-05
0.2	293.15	0.00235	7.3e-05
0.2	313.15	0.001345	4.2e-05
0.2	333.15	0.000872	2.7e-05
0.2	353.15	0.000617	1.9e-05
0.3	293.15	0.003999	0.000123
0.3	313.15	0.002095	6.5e-05
0.3	333.15	0.001271	3.9e-05
0.3	353.15	0.000854	2.6e-05
0.4	313.15	0.003238	0.0001
0.4	333.15	0.001843	5.7e-05
0.4	353.15	0.001181	3.6e-05

System: N-methyldiethanolamine + water; phases: Liquid
Fixed: Pressure, kPa = 93
Property: Viscosity, Pa*s (Liquid); method: Concentric cylinders viscometry
Mass fraction of N-methyldiethanolamine	Temperature, K	Viscosity, Pa*s	uncertainty
0.1	293.15	0.001463	3e-05
0.1	313.15	0.0009079	1.92e-05
0.1	333.15	0.0006344	1.38e-05
0.2	293.15	0.002293	4.7e-05
0.2	313.15	0.001342	2.8e-05
0.2	333.15	0.0008719	1.85e-05
0.2	353.15	0.0006205	1.35e-05
0.3	293.15	0.003942	8e-05
0.3	313.15	0.002094	4.3e-05
0.3	333.15	0.001276	2.7e-05
0.3	353.15	0.0008505	1.81e-05
0.4	313.15	0.003145	6.4e-05
0.4	333.15	0.00182	3.8e-05
0.4	353.15	0.001186	2.5e-05

System: 2-aminoethan-1-ol + water; phases: Liquid
Property: Mass density, kg/m3 (Liquid); method: Vibrating tube method
Mass fraction of 2-aminoethan-1-ol	Temperature, K	Pressure, kPa	Mass density, kg/m3	uncertainty
0.1001	293.15	100	1002.5	0.7
0.1001	293.15	500	1002.7	0.7
0.1001	293.15	1000	1002.9	0.7
0.1001	293.15	2000	1003.3	0.7
0.1001	293.15	5000	1004.6	0.7
0.1001	293.15	10000	1006.7	0.7
0.1001	293.15	15000	1008.8	0.7
0.1001	293.15	20000	1010.9	0.7
0.1001	293.15	30000	1015.1	0.7
0.1001	293.15	40000	1019.1	0.7
0.1001	293.15	50000	1023	0.7
0.1001	293.15	60000	1026.9	0.7
0.1001	293.15	70000	1030.8	0.7
0.1001	293.15	80000	1034.5	0.7
0.1001	293.15	90000	1038.2	0.7
0.1001	293.15	100000	1041.8	0.7
0.1001	293.15	110000	1045.2	0.7
0.1001	293.15	120000	1048.8	0.7
0.1001	313.15	100	995.9	0.7
0.1001	313.15	500	996	0.7
0.1001	313.15	1000	996.3	0.7
0.1001	313.15	2000	996.6	0.7
0.1001	313.15	5000	997.9	0.7
0.1001	313.15	10000	1000	0.7
0.1001	313.15	15000	1002	0.7
0.1001	313.15	20000	1004	0.7
0.1001	313.15	30000	1008.1	0.7
0.1001	313.15	40000	1012.1	0.7
0.1001	313.15	50000	1015.9	0.7
0.1001	313.15	60000	1019.8	0.7
0.1001	313.15	70000	1023.4	0.7
0.1001	313.15	80000	1027	0.7
0.1001	313.15	90000	1030.6	0.7
0.1001	313.15	100000	1034.2	0.7
0.1001	313.15	110000	1037.6	0.7
0.1001	313.15	120000	1041.1	0.7
0.1001	333.15	100	986.3	0.7
0.1001	333.15	500	986.5	0.7
0.1001	333.15	1000	986.7	0.7
0.1001	333.15	2000	987.1	0.7
0.1001	333.15	5000	988.4	0.7
0.1001	333.15	10000	990.5	0.7
0.1001	333.15	15000	992.6	0.7
0.1001	333.15	20000	994.6	0.7
0.1001	333.15	30000	998.6	0.7
0.1001	333.15	40000	1002.7	0.7
0.1001	333.15	50000	1006.5	0.7
0.1001	333.15	60000	1010.4	0.7
0.1001	333.15	70000	1014.1	0.7
0.1001	333.15	80000	1017.7	0.7
0.1001	333.15	90000	1021.3	0.7
0.1001	333.15	100000	1024.8	0.7
0.1001	333.15	110000	1028.1	0.7
0.1001	333.15	120000	1031.7	0.7
0.1001	353.15	100	974.7	0.7
0.1001	353.15	500	974.7	0.7
0.1001	353.15	1000	975	0.7
0.1001	353.15	2000	975.4	0.7
0.1001	353.15	5000	976.7	0.7
0.1001	353.15	10000	978.9	0.7
0.1001	353.15	15000	981.1	0.7
0.1001	353.15	20000	983.2	0.7
0.1001	353.15	30000	987.4	0.7
0.1001	353.15	40000	991.4	0.7
0.1001	353.15	50000	995.4	0.7
0.1001	353.15	60000	999.4	0.7
0.1001	353.15	70000	1003.1	0.7
0.1001	353.15	80000	1006.9	0.7
0.1001	353.15	90000	1010.5	0.7
0.1001	353.15	100000	1014.1	0.7
0.1001	353.15	110000	1017.7	0.7
0.1001	353.15	120000	1021.2	0.7
0.1001	373.15	100	960.8	0.7
0.1001	373.15	500	961	0.7
0.1001	373.15	1000	961.3	0.7
0.1001	373.15	2000	961.8	0.7
0.1001	373.15	5000	963.1	0.7
0.1001	373.15	10000	965.5	0.7
0.1001	373.15	15000	967.7	0.7
0.1001	373.15	20000	969.9	0.7
0.1001	373.15	30000	974.4	0.7
0.1001	373.15	40000	978.7	0.7
0.1001	373.15	50000	982.8	0.7
0.1001	373.15	60000	986.8	0.7
0.1001	373.15	70000	990.8	0.7
0.1001	373.15	80000	994.8	0.7
0.1001	373.15	90000	998.5	0.7
0.1001	373.15	100000	1002.2	0.7
0.1001	373.15	110000	1005.9	0.7
0.1001	373.15	120000	1009.6	0.7
0.1001	393.15	100	945.2	0.7
0.1001	393.15	500	945.6	0.7
0.1001	393.15	1000	945.8	0.7
0.1001	393.15	2000	946.3	0.7
0.1001	393.15	5000	947.8	0.7
0.1001	393.15	10000	950.3	0.7
0.1001	393.15	15000	952.7	0.7
0.1001	393.15	20000	955.2	0.7
0.1001	393.15	30000	959.8	0.7
0.1001	393.15	40000	964.4	0.7
0.1001	393.15	50000	968.7	0.7
0.1001	393.15	60000	973	0.7
0.1001	393.15	70000	977.3	0.7
0.1001	393.15	80000	981.3	0.7
0.1001	393.15	90000	985.2	0.7
0.1001	393.15	100000	989.1	0.7
0.1001	393.15	110000	993	0.7
0.1001	393.15	120000	996.7	0.7
0.2	293.15	100	1006.9	0.7
0.2	293.15	500	1007	0.7
0.2	293.15	1000	1007.2	0.7
0.2	293.15	2000	1007.6	0.7
0.2	293.15	5000	1008.7	0.7
0.2	293.15	10000	1010.7	0.7
0.2	293.15	15000	1012.6	0.7
0.2	293.15	20000	1014.5	0.7
0.2	293.15	30000	1018.4	0.7
0.2	293.15	40000	1022.1	0.7
0.2	293.15	50000	1025.8	0.7
0.2	293.15	60000	1029.4	0.7
0.2	293.15	70000	1033	0.7
0.2	293.15	80000	1036.2	0.7
0.2	293.15	90000	1039.7	0.7
0.2	293.15	100000	1043.2	0.7
0.2	293.15	110000	1046.4	0.7
0.2	293.15	120000	1049.6	0.8
0.2	313.15	100	999.1	0.7
0.2	313.15	500	999.2	0.7
0.2	313.15	1000	999.4	0.7
0.2	313.15	2000	999.8	0.7
0.2	313.15	5000	1001	0.7
0.2	313.15	10000	1002.9	0.7
0.2	313.15	15000	1004.8	0.7
0.2	313.15	20000	1006.7	0.7
0.2	313.15	30000	1010.5	0.7
0.2	313.15	40000	1014.3	0.7
0.2	313.15	50000	1017.9	0.7
0.2	313.15	60000	1021.5	0.7
0.2	313.15	70000	1025	0.7
0.2	313.15	80000	1028.5	0.7
0.2	313.15	90000	1031.8	0.7
0.2	313.15	100000	1035.1	0.7
0.2	313.15	110000	1038.4	0.7
0.2	313.15	120000	1041.8	0.7
0.2	333.15	100	988.8	0.7
0.2	333.15	500	988.9	0.7
0.2	333.15	1000	989.1	0.7
0.2	333.15	2000	989.5	0.7
0.2	333.15	5000	990.7	0.7
0.2	333.15	10000	992.7	0.7
0.2	333.15	15000	994.7	0.7
0.2	333.15	20000	996.6	0.7
0.2	333.15	30000	1000.5	0.7
0.2	333.15	40000	1004.5	0.7
0.2	333.15	50000	1008	0.7
0.2	333.15	60000	1011.7	0.7
0.2	333.15	70000	1015.2	0.7
0.2	333.15	80000	1018.7	0.7
0.2	333.15	90000	1022.1	0.7
0.2	333.15	100000	1025.5	0.7
0.2	333.15	110000	1028.8	0.7
0.2	333.15	120000	1032.2	0.7
0.2	353.15	100	976.7	0.7
0.2	353.15	500	976.7	0.7
0.2	353.15	1000	976.9	0.7
0.2	353.15	2000	977.4	0.7
0.2	353.15	5000	978.6	0.7
0.2	353.15	10000	980.8	0.7
0.2	353.15	15000	982.9	0.7
0.2	353.15	20000	984.9	0.7
0.2	353.15	30000	988.9	0.7
0.2	353.15	40000	992.9	0.7
0.2	353.15	50000	996.7	0.7
0.2	353.15	60000	1000.6	0.7
0.2	353.15	70000	1004.2	0.7
0.2	353.15	80000	1007.7	0.7
0.2	353.15	90000	1011.3	0.7
0.2	353.15	100000	1014.7	0.7
0.2	353.15	110000	1018.2	0.7
0.2	353.15	120000	1021.6	0.7
0.2	373.15	100	962.5	0.7
0.2	373.15	500	962.7	0.7
0.2	373.15	1000	962.9	0.7
0.2	373.15	2000	963.4	0.7
0.2	373.15	5000	964.7	0.7
0.2	373.15	10000	966.9	0.7
0.2	373.15	15000	969.1	0.7
0.2	373.15	20000	971.3	0.7
0.2	373.15	30000	975.6	0.7
0.2	373.15	40000	979.8	0.7
0.2	373.15	50000	983.7	0.7
0.2	373.15	60000	987.7	0.7
0.2	373.15	70000	991.5	0.7
0.2	373.15	80000	995.4	0.7
0.2	373.15	90000	999	0.7
0.2	373.15	100000	1002.5	0.7
0.2	373.15	110000	1006.1	0.7
0.2	373.15	120000	1009.6	0.7
0.2	393.15	100	946.5	0.7
0.2	393.15	500	946.9	0.7
0.2	393.15	1000	947	0.7
0.2	393.15	2000	947.5	0.7
0.2	393.15	5000	949	0.7
0.2	393.15	10000	951.5	0.7
0.2	393.15	15000	953.8	0.7
0.2	393.15	20000	956.2	0.7
0.2	393.15	30000	960.7	0.7
0.2	393.15	40000	965.2	0.7
0.2	393.15	50000	969.4	0.7
0.2	393.15	60000	973.6	0.7
0.2	393.15	70000	977.8	0.7
0.2	393.15	80000	981.6	0.7
0.2	393.15	90000	985.6	0.7
0.2	393.15	100000	989.4	0.7
0.2	393.15	110000	993	0.7
0.2	393.15	120000	996.7	0.7
0.3005	293.15	100	1012.3	0.7
0.3005	293.15	500	1012.5	0.7
0.3005	293.15	1000	1012.7	0.7
0.3005	293.15	2000	1013	0.7
0.3005	293.15	5000	1014.1	0.7
0.3005	293.15	10000	1016	0.7
0.3005	293.15	15000	1017.7	0.7
0.3005	293.15	20000	1019.6	0.7
0.3005	293.15	30000	1023.2	0.7
0.3005	293.15	40000	1026.6	0.7
0.3005	293.15	50000	1030	0.7
0.3005	293.15	60000	1033.5	0.7
0.3005	293.15	70000	1036.9	0.7
0.3005	293.15	80000	1040	0.7
0.3005	293.15	90000	1043.3	0.7
0.3005	293.15	100000	1046.6	0.7
0.3005	293.15	110000	1049.6	0.7
0.3005	293.15	120000	1052.6	0.8
0.3005	313.15	100	1003.2	0.7
0.3005	313.15	500	1003.4	0.7
0.3005	313.15	1000	1003.6	0.7
0.3005	313.15	2000	1004	0.7
0.3005	313.15	5000	1005.1	0.7
0.3005	313.15	10000	1007	0.7
0.3005	313.15	15000	1008.8	0.7
0.3005	313.15	20000	1010.6	0.7
0.3005	313.15	30000	1014.3	0.7
0.3005	313.15	40000	1017.9	0.7
0.3005	313.15	50000	1021.3	0.7
0.3005	313.15	60000	1024.8	0.7
0.3005	313.15	70000	1028.2	0.7
0.3005	313.15	80000	1031.4	0.7
0.3005	313.15	90000	1034.5	0.7
0.3005	313.15	100000	1037.9	0.7
0.3005	313.15	110000	1041	0.7
0.3005	313.15	120000	1044.1	0.7
0.3005	333.15	100	992	0.7
0.3005	333.15	500	992.3	0.7
0.3005	333.15	1000	992.4	0.7
0.3005	333.15	2000	992.8	0.7
0.3005	333.15	5000	994	0.7
0.3005	333.15	10000	996	0.7
0.3005	333.15	15000	997.9	0.7
0.3005	333.15	20000	999.7	0.7
0.3005	333.15	30000	1003.5	0.7
0.3005	333.15	40000	1007.3	0.7
0.3005	333.15	50000	1010.8	0.7
0.3005	333.15	60000	1014.4	0.7
0.3005	333.15	70000	1017.8	0.7
0.3005	333.15	80000	1021.1	0.7
0.3005	333.15	90000	1024.4	0.7
0.3005	333.15	100000	1027.7	0.7
0.3005	333.15	110000	1031	0.7
0.3005	333.15	120000	1034.2	0.7
0.3005	353.15	100	979.2	0.7
0.3005	353.15	500	979.4	0.7
0.3005	353.15	1000	979.6	0.7
0.3005	353.15	2000	980	0.7
0.3005	353.15	5000	981.2	0.7
0.3005	353.15	10000	983.3	0.7
0.3005	353.15	15000	985.4	0.7
0.3005	353.15	20000	987.4	0.7
0.3005	353.15	30000	991.4	0.7
0.3005	353.15	40000	995.2	0.7
0.3005	353.15	50000	999	0.7
0.3005	353.15	60000	1002.7	0.7
0.3005	353.15	70000	1006.2	0.7
0.3005	353.15	80000	1009.8	0.7
0.3005	353.15	90000	1013.1	0.7
0.3005	353.15	100000	1016.6	0.7
0.3005	353.15	110000	1020	0.7
0.3005	353.15	120000	1023.3	0.7
0.3005	373.15	100	964.5	0.7
0.3005	373.15	500	964.8	0.7
0.3005	373.15	1000	965	0.7
0.3005	373.15	2000	965.5	0.7
0.3005	373.15	5000	966.8	0.7
0.3005	373.15	10000	969	0.7
0.3005	373.15	15000	971.2	0.7
0.3005	373.15	20000	973.4	0.7
0.3005	373.15	30000	977.6	0.7
0.3005	373.15	40000	981.7	0.7
0.3005	373.15	50000	985.6	0.7
0.3005	373.15	60000	989.5	0.7
0.3005	373.15	70000	993.3	0.7
0.3005	373.15	80000	997.1	0.7
0.3005	373.15	90000	1000.8	0.7
0.3005	373.15	100000	1004.2	0.7
0.3005	373.15	110000	1007.7	0.7
0.3005	373.15	120000	1011.1	0.7
0.3005	393.15	100	948.4	0.7
0.3005	393.15	500	948.8	0.7
0.3005	393.15	1000	948.9	0.7
0.3005	393.15	2000	949.4	0.7
0.3005	393.15	5000	950.9	0.7
0.3005	393.15	10000	953.3	0.7
0.3005	393.15	15000	955.7	0.7
0.3005	393.15	20000	958.1	0.7
0.3005	393.15	30000	962.6	0.7
0.3005	393.15	40000	967	0.7
0.3005	393.15	50000	971.1	0.7
0.3005	393.15	60000	975.3	0.7
0.3005	393.15	70000	979.5	0.7
0.3005	393.15	80000	983.2	0.7
0.3005	393.15	90000	987.1	0.7
0.3005	393.15	100000	990.9	0.7
0.3005	393.15	110000	994.6	0.7
0.3005	393.15	120000	998.2	0.7
0.4	293.15	100	1018.1	0.7
0.4	293.15	500	1018.1	0.7
0.4	293.15	1000	1018.3	0.7
0.4	293.15	2000	1018.6	0.7
0.4	293.15	5000	1019.6	0.7
0.4	293.15	10000	1021.4	0.7
0.4	293.15	15000	1023.1	0.7
0.4	293.15	20000	1024.8	0.7
0.4	293.15	30000	1028.3	0.7
0.4	293.15	40000	1031.6	0.7
0.4	293.15	50000	1034.8	0.7
0.4	293.15	60000	1038.1	0.7
0.4	293.15	70000	1041.4	0.7
0.4	293.15	80000	1044.3	0.7
0.4	293.15	90000	1047.5	0.7
0.4	293.15	100000	1050.4	0.7
0.4	293.15	110000	1053.3	0.7
0.4	293.15	120000	1056.3	0.8
0.4	313.15	100	1007.5	0.7
0.4	313.15	500	1007.7	0.7
0.4	313.15	1000	1007.9	0.7
0.4	313.15	2000	1008.3	0.7
0.4	313.15	5000	1009.3	0.7
0.4	313.15	10000	1011.2	0.7
0.4	313.15	15000	1012.9	0.7
0.4	313.15	20000	1014.7	0.7
0.4	313.15	30000	1018.2	0.7
0.4	313.15	40000	1021.7	0.7
0.4	313.15	50000	1025.1	0.7
0.4	313.15	60000	1028.4	0.7
0.4	313.15	70000	1031.7	0.7
0.4	313.15	80000	1034.8	0.7
0.4	313.15	90000	1037.8	0.7
0.4	313.15	100000	1041.1	0.7
0.4	313.15	110000	1044	0.7
0.4	313.15	120000	1047	0.7
0.4	333.15	100	995.3	0.7
0.4	333.15	500	995.6	0.7
0.4	333.15	1000	995.8	0.7
0.4	333.15	2000	996.2	0.7
0.4	333.15	5000	997.3	0.7
0.4	333.15	10000	999.3	0.7
0.4	333.15	15000	1001.1	0.7
0.4	333.15	20000	1003	0.7
0.4	333.15	30000	1006.7	0.7
0.4	333.15	40000	1010.4	0.7
0.4	333.15	50000	1013.8	0.7
0.4	333.15	60000	1017.3	0.7
0.4	333.15	70000	1020.7	0.7
0.4	333.15	80000	1024	0.7
0.4	333.15	90000	1027.1	0.7
0.4	333.15	100000	1030.3	0.7
0.4	333.15	110000	1033.5	0.7
0.4	333.15	120000	1036.7	0.7
0.4	353.15	100	981.9	0.7
0.4	353.15	500	982	0.7
0.4	353.15	1000	982.2	0.7
0.4	353.15	2000	982.6	0.7
0.4	353.15	5000	983.9	0.7
0.4	353.15	10000	986	0.7
0.4	353.15	15000	988	0.7
0.4	353.15	20000	990	0.7
0.4	353.15	30000	993.9	0.7
0.4	353.15	40000	997.7	0.7
0.4	353.15	50000	1001.4	0.7
0.4	353.15	60000	1005.1	0.7
0.4	353.15	70000	1008.6	0.7
0.4	353.15	80000	1012.1	0.7
0.4	353.15	90000	1015.3	0.7
0.4	353.15	100000	1018.7	0.7
0.4	353.15	110000	1022.1	0.7
0.4	353.15	120000	1025.2	0.7
0.4	373.15	100	966.6	0.7
0.4	373.15	500	966.9	0.7
0.4	373.15	1000	967.1	0.7
0.4	373.15	2000	967.6	0.7
0.4	373.15	5000	968.9	0.7
0.4	373.15	10000	971.1	0.7
0.4	373.15	15000	973.3	0.7
0.4	373.15	20000	975.4	0.7
0.4	373.15	30000	979.7	0.7
0.4	373.15	40000	983.8	0.7
0.4	373.15	50000	987.6	0.7
0.4	373.15	60000	991.6	0.7
0.4	373.15	70000	995.2	0.7
0.4	373.15	80000	999.1	0.7
0.4	373.15	90000	1002.5	0.7
0.4	373.15	100000	1006	0.7
0.4	373.15	110000	1009.5	0.7
0.4	373.15	120000	1012.9	0.7
0.4	393.15	100	950	0.7
0.4	393.15	500	950.4	0.7
0.4	393.15	1000	950.6	0.7
0.4	393.15	2000	951.1	0.7
0.4	393.15	5000	952.5	0.7
0.4	393.15	10000	955	0.7
0.4	393.15	15000	957.3	0.7
0.4	393.15	20000	959.7	0.7
0.4	393.15	30000	964.3	0.7
0.4	393.15	40000	968.7	0.7
0.4	393.15	50000	972.8	0.7
0.4	393.15	60000	977	0.7
0.4	393.15	70000	981.1	0.7
0.4	393.15	80000	985	0.7
0.4	393.15	90000	988.8	0.7
0.4	393.15	100000	992.5	0.7
0.4	393.15	110000	996.2	0.7
0.4	393.15	120000	999.7	0.7

System: 2-aminoethan-1-ol + water; phases: Liquid
Property: Viscosity, Pa*s (Liquid); method: Falling or rolling sphere viscometry
Temperature, K	Pressure, kPa	Mass fraction of 2-aminoethan-1-ol	Viscosity, Pa*s	uncertainty
293.15	100	0.1001	0.001435	4.4e-05
293.15	5000	0.1001	0.001435	4.4e-05
293.15	10000	0.1001	0.001434	4.4e-05
293.15	20000	0.1001	0.00143	4.4e-05
293.15	30000	0.1001	0.00143	4.4e-05
293.15	40000	0.1001	0.001429	4.4e-05
293.15	60000	0.1001	0.001431	4.4e-05
293.15	80000	0.1001	0.001434	4.4e-05
293.15	100000	0.1001	0.001432	4.4e-05
293.15	120000	0.1001	0.001443	4.5e-05
313.15	100	0.1001	0.000891	2.8e-05
313.15	5000	0.1001	0.000892	2.8e-05
313.15	10000	0.1001	0.000892	2.8e-05
313.15	20000	0.1001	0.000896	2.8e-05
313.15	30000	0.1001	0.000899	2.8e-05
313.15	40000	0.1001	0.000902	2.8e-05
313.15	60000	0.1001	0.00091	2.8e-05
313.15	80000	0.1001	0.000918	2.8e-05
313.15	100000	0.1001	0.000927	2.9e-05
313.15	120000	0.1001	0.000936	2.9e-05
333.15	100	0.1001	0.000615	1.9e-05
333.15	5000	0.1001	0.000614	1.9e-05
333.15	10000	0.1001	0.000617	1.9e-05
333.15	20000	0.1001	0.000622	1.9e-05
333.15	30000	0.1001	0.000625	1.9e-05
333.15	40000	0.1001	0.00063	1.9e-05
333.15	60000	0.1001	0.000639	2e-05
333.15	80000	0.1001	0.000646	2e-05
333.15	100000	0.1001	0.000655	2e-05
333.15	120000	0.1001	0.000663	2e-05
293.15	100	0.2	0.001968	6.1e-05
293.15	5000	0.2	0.00197	6.1e-05
293.15	10000	0.2	0.001969	6.1e-05
293.15	20000	0.2	0.001973	6.1e-05
293.15	30000	0.2	0.001977	6.1e-05
293.15	40000	0.2	0.001983	6.1e-05
293.15	60000	0.2	0.001994	6.2e-05
293.15	80000	0.2	0.002009	6.2e-05
293.15	100000	0.2	0.002026	6.3e-05
293.15	120000	0.2	0.002046	6.3e-05
313.15	100	0.2	0.001173	3.6e-05
313.15	5000	0.2	0.001178	3.6e-05
313.15	10000	0.2	0.001182	3.6e-05
313.15	20000	0.2	0.00119	3.7e-05
313.15	30000	0.2	0.001197	3.7e-05
313.15	40000	0.2	0.001205	3.7e-05
313.15	60000	0.2	0.001219	3.8e-05
313.15	80000	0.2	0.001232	3.8e-05
313.15	100000	0.2	0.001249	3.9e-05
313.15	120000	0.2	0.001263	3.9e-05
333.15	100	0.2	0.00078	2.4e-05
333.15	5000	0.2	0.000788	2.4e-05
333.15	10000	0.2	0.000792	2.4e-05
333.15	20000	0.2	0.000799	2.5e-05
333.15	30000	0.2	0.000807	2.5e-05
333.15	40000	0.2	0.000815	2.5e-05
333.15	60000	0.2	0.000829	2.6e-05
333.15	80000	0.2	0.000844	2.6e-05
333.15	100000	0.2	0.000859	2.7e-05
333.15	120000	0.2	0.000874	2.7e-05
353.15	60000	0.2	0.000607	1.9e-05
353.15	80000	0.2	0.000619	1.9e-05
353.15	100000	0.2	0.000632	2e-05
353.15	120000	0.2	0.000644	2e-05
293.15	100	0.3005	0.002913	9e-05
293.15	5000	0.3005	0.002921	9e-05
293.15	10000	0.3005	0.00293	9e-05
293.15	20000	0.3005	0.002952	9.1e-05
293.15	30000	0.3005	0.002972	9.2e-05
293.15	40000	0.3005	0.00299	9.2e-05
293.15	60000	0.3005	0.003032	9.4e-05
293.15	80000	0.3005	0.003076	9.5e-05
293.15	100000	0.3005	0.00312	9.6e-05
293.15	120000	0.3005	0.003162	9.8e-05
313.15	100	0.3005	0.001638	5.1e-05
313.15	5000	0.3005	0.001642	5.1e-05
313.15	10000	0.3005	0.001649	5.1e-05
313.15	20000	0.3005	0.001668	5.1e-05
313.15	30000	0.3005	0.001686	5.2e-05
313.15	40000	0.3005	0.001702	5.3e-05
313.15	60000	0.3005	0.001735	5.4e-05
313.15	80000	0.3005	0.00177	5.5e-05
313.15	100000	0.3005	0.001804	5.6e-05
313.15	120000	0.3005	0.001846	5.7e-05
333.15	100	0.3005	0.001061	3.3e-05
333.15	5000	0.3005	0.001067	3.3e-05
333.15	10000	0.3005	0.001075	3.3e-05
333.15	20000	0.3005	0.001089	3.4e-05
333.15	30000	0.3005	0.001103	3.4e-05
333.15	40000	0.3005	0.001115	3.4e-05
333.15	60000	0.3005	0.00114	3.5e-05
333.15	80000	0.3005	0.001165	3.6e-05
333.15	100000	0.3005	0.001189	3.7e-05
333.15	120000	0.3005	0.001211	3.7e-05
353.15	100	0.3005	0.000746	2.3e-05
353.15	5000	0.3005	0.000748	2.3e-05
353.15	10000	0.3005	0.000755	2.3e-05
353.15	20000	0.3005	0.000768	2.4e-05
353.15	30000	0.3005	0.000777	2.4e-05
353.15	40000	0.3005	0.000787	2.4e-05
353.15	60000	0.3005	0.000807	2.5e-05
353.15	80000	0.3005	0.000828	2.6e-05
353.15	100000	0.3005	0.000847	2.6e-05
353.15	120000	0.3005	0.000861	2.7e-05
293.15	100	0.4001	0.004315	0.000133
293.15	5000	0.4001	0.00434	0.000134
293.15	10000	0.4001	0.004368	0.000135
293.15	20000	0.4001	0.004426	0.000137
293.15	30000	0.4001	0.004475	0.000138
293.15	40000	0.4001	0.004528	0.00014
293.15	60000	0.4001	0.004628	0.000143
293.15	80000	0.4001	0.004739	0.000146
293.15	100000	0.4001	0.004845	0.000149
293.15	120000	0.4001	0.004954	0.000153
313.15	100	0.4001	0.002284	7e-05
313.15	5000	0.4001	0.002306	7.1e-05
313.15	10000	0.4001	0.002319	7.2e-05
313.15	20000	0.4001	0.002352	7.3e-05
313.15	30000	0.4001	0.002384	7.4e-05
313.15	40000	0.4001	0.002416	7.5e-05
313.15	60000	0.4001	0.002479	7.7e-05
313.15	80000	0.4001	0.002544	7.9e-05
313.15	100000	0.4001	0.002609	8.1e-05
313.15	120000	0.4001	0.002675	8.3e-05
333.15	100	0.4001	0.001389	4.3e-05
333.15	5000	0.4001	0.001401	4.3e-05
333.15	10000	0.4001	0.00141	4.4e-05
333.15	20000	0.4001	0.001434	4.4e-05
333.15	30000	0.4001	0.001453	4.5e-05
333.15	40000	0.4001	0.001475	4.6e-05
333.15	60000	0.4001	0.001518	4.7e-05
333.15	80000	0.4001	0.001559	4.8e-05
333.15	100000	0.4001	0.0016	4.9e-05
333.15	120000	0.4001	0.001645	5.1e-05
353.15	100	0.4001	0.000942	2.9e-05
353.15	5000	0.4001	0.000944	2.9e-05
353.15	10000	0.4001	0.000957	3e-05
353.15	20000	0.4001	0.000975	3e-05
353.15	30000	0.4001	0.000989	3.1e-05
353.15	40000	0.4001	0.001006	3.1e-05
353.15	60000	0.4001	0.001039	3.2e-05
353.15	80000	0.4001	0.001068	3.3e-05
353.15	100000	0.4001	0.001097	3.4e-05
353.15	120000	0.4001	0.001128	3.5e-05

System: 2-aminoethan-1-ol + water; phases: Liquid
Fixed: Pressure, kPa = 101
Property: Viscosity, Pa*s (Liquid); method: Falling or rolling sphere viscometry
Mass fraction of 2-aminoethan-1-ol	Temperature, K	Viscosity, Pa*s	uncertainty
0.1	293.15	0.001435	4.4e-05
0.1	313.15	0.000891	2.8e-05
0.1	333.15	0.000615	1.9e-05
0.2	293.15	0.001968	6.1e-05
0.2	313.15	0.001173	3.6e-05
0.2	333.15	0.00078	2.4e-05
0.3	293.15	0.002913	9e-05
0.3	313.15	0.001638	5.1e-05
0.3	333.15	0.001061	3.3e-05
0.3	353.15	0.000746	2.3e-05
0.4	293.15	0.004315	0.000133
0.4	313.15	0.002284	7e-05
0.4	333.15	0.001389	4.3e-05
0.4	353.15	0.000942	2.9e-05

System: 2-aminoethan-1-ol + water; phases: Liquid
Fixed: Pressure, kPa = 93
Property: Viscosity, Pa*s (Liquid); method: Concentric cylinders viscometry
Mass fraction of 2-aminoethan-1-ol	Temperature, K	Viscosity, Pa*s	uncertainty
0.1	293.15	0.001409	2.9e-05
0.1	313.15	0.0008932	1.89e-05
0.1	333.15	0.0006263	1.36e-05
0.2	293.15	0.001982	4.1e-05
0.2	313.15	0.001198	2.5e-05
0.2	333.15	0.0007832	1.67e-05
0.3	293.15	0.002967	6.1e-05
0.3	313.15	0.001675	3.5e-05
0.3	333.15	0.001084	2.3e-05
0.3	353.15	0.000764	1.63e-05
0.4	293.15	0.004326	8.8e-05
0.4	313.15	0.002284	4.7e-05
0.4	333.15	0.001405	2.9e-05
0.4	353.15	0.0009518	2.01e-05
