Measured thermophysical data. Quaternary isobaric (vapor + liquid + liquid) equilibrium and (vapor + liquid) equilibrium for the system (water + ethanol + cyclohexane + heptane) at 101.3 kPa
Source: J. Chem. Thermodyn., 2011, 10.1016/j.jct.2011.02.016
Compound 1: cyclohexane, C6H12, InChI=1S/C6H12/c1-2-4-6-5-3-1/h1-6H2, purity 99%
Compound 2: heptane, C7H16, InChI=1S/C7H16/c1-3-5-7-6-4-2/h3-7H2,1-2H3, purity 99%
Compound 3: water, H2O, InChI=1S/H2O/h1H2, purity 99.8%

System: cyclohexane + heptane + water; phases: Gas, Liquid mixture 1, Liquid mixture 2
Fixed: Pressure, kPa = 101.3
Property: Mole fraction of cyclohexane (Gas); method: Chromatography
Temperature, K	Mole fraction of cyclohexane	uncertainty
344.38	0.608	0.025
346.2	0.489	0.021
349	0.329	0.015
350.55	0.152	0.013

System: cyclohexane + heptane + water; phases: Liquid mixture 1, Gas, Liquid mixture 2
Fixed: Pressure, kPa = 101.3
Property: Mole fraction of cyclohexane (Liquid mixture 1); method: Chromatography
Temperature, K	Mole fraction of cyclohexane	uncertainty
344.38	5e-05	1e-05
344.38	0.659	0.045
346.2	4e-05	1e-05
346.2	0.511	0.021
349	8e-05	1e-05
349	0.258	0.011
350.55	4e-05	1e-05
350.55	0.146	0.011

System: cyclohexane + heptane + water; phases: Gas, Liquid mixture 1, Liquid mixture 2
Fixed: Pressure, kPa = 101.3
Property: Mole fraction of heptane (Gas); method: Chromatography
Temperature, K	Mole fraction of heptane	uncertainty
344.38	0.096	0.007
346.2	0.212	0.01
349	0.362	0.016
350.55	0.467	0.02

System: cyclohexane + heptane + water; phases: Liquid mixture 1, Gas, Liquid mixture 2
Fixed: Pressure, kPa = 101.3
Property: Mole fraction of heptane (Liquid mixture 1); method: Chromatography
Temperature, K	Mole fraction of heptane	uncertainty
344.38	0.0002	0.0001
344.38	0.34	0.023
346.2	4e-05	1e-05
346.2	0.487	0.02
349	1e-05	1e-05
349	0.741	0.03
350.55	3e-05	1e-05
350.55	0.853	0.065

System: cyclohexane + heptane + water; phases: Liquid mixture 1, Gas, Liquid mixture 2
Fixed: Pressure, kPa = 101.3
Property: Mole fraction of water (Liquid mixture 1); method: Chromatography
Temperature, K	Mole fraction of water	uncertainty
344.38	1	
344.38	0.0018	0.0018
346.2	1	
346.2	0.0016	0.0016
349	1	
349	0.0012	0.0012
350.55	1	
350.55	0.0011	0.0011

System: cyclohexane + heptane + water; phases: Gas, Liquid mixture 1, Liquid mixture 2
Fixed: Pressure, kPa = 101.3
Property: Mole fraction of water (Gas); method: Chromatography
Temperature, K	Mole fraction of water	uncertainty
344.38	0.296	0.012
346.2	0.299	0.012
349	0.309	0.013
350.55	0.381	0.016
