Measured thermophysical data. Solubility of carbon dioxide, nitrous oxide, ethane, and nitrogen in  1-butyl-1-methylpyrrolidinium and trihexyl(tetradecyl)phosphonium  tris(pentafluoroethyl)trifluorophosphate (eFAP) ionic liquids
Source: J. Chem. Thermodyn., 2013, 10.1016/j.jct.2012.11.010
Compound 1: water, H2O, InChI=1S/H2O/h1H2, purity 99.8%
Compound 2: carbon dioxide, CO2, InChI=1S/CO2/c2-1-3, purity 99.995%
Compound 3: nitrous oxide, N2O, InChI=1S/N2O/c1-2-3, purity 99.5%
Compound 4: ethane, C2H6, InChI=1S/C2H6/c1-2/h1-2H3, purity 99.5%
Compound 5: nitrogen, N2, InChI=1S/N2/c1-2, purity 99.8%
Compound 6: 1-butyl-1-methylpyrrolidinium tris(pentafluoroethyl)trifluorophosphate, C15H20F18NP, InChI=1S/C9H20N.C6F18P/c1-3-4-7-10(2)8-5-6-9-10;7-1(8,9)4(16,17)25(22,23,24,5(18,19)2(10,11)12)6(20,21)3(13,14)15/h3-9H2,1-2H3;/q+1;-1, purity 99.5%
Compound 7: trihexyl(tetradecyl)phosphonium tris(pentafluoroethyl)trifluorophosphate, C38H68F18P2, InChI=1S/C32H68P.C6F18P/c1-5-9-13-17-18-19-20-21-22-23-24-28-32-33(29-25-14-10-6-2,30-26-15-11-7-3)31-27-16-12-8-4;7-1(8,9)4(16,17)25(22,23,24,5(18,19)2(10,11)12)6(20,21)3(13,14)15/h5-32H2,1-4H3;/q+1;-1, purity 99.5%

System: 1-butyl-1-methylpyrrolidinium tris(pentafluoroethyl)trifluorophosphate; phases: Liquid
Property: Mass density, kg/m3 (Liquid); method: Vibrating tube method
Temperature, K	Pressure, kPa	Mass density, kg/m3	uncertainty
293.19	100	1603.7	16
303.18	100	1592.8	15.9
313.2	100	1581.9	15.8
323.14	100	1571	15.7
333.17	100	1560.4	15.6
343.16	100	1549.9	15.5
353.17	100	1539.5	15.4
293.19	500	1604	16
303.2	500	1593.1	15.9
313.2	500	1582.3	15.8
323.14	500	1571.4	15.7
333.17	500	1560.8	15.6
343.17	500	1550.4	15.5
353.17	500	1540.1	15.4
293.19	1000	1603.9	16
303.19	1000	1593.1	15.9
313.2	1000	1582.3	15.8
323.15	1000	1571.5	15.7
333.17	1000	1560.9	15.6
343.18	1000	1550.5	15.5
353.18	1000	1540.3	15.4
293.18	2500	1604.9	16.1
303.26	2500	1593.9	15.9
313.21	2500	1583.3	15.8
323.14	2500	1572.5	15.7
333.18	2500	1562	15.6
343.19	2500	1551.6	15.5
353.18	2500	1541.4	15.4
293.17	5000	1606.7	16.1
303.26	5000	1595.8	16
313.2	5000	1585.3	15.9
323.15	5000	1574.6	15.8
333.17	5000	1564.2	15.6
343.2	5000	1553.9	15.5
353.17	5000	1543.8	15.4
293.17	10000	1610.2	16.1
303.25	10000	1599.5	16
313.19	10000	1589.1	15.9
323.14	10000	1578.5	15.8
333.18	10000	1568.2	15.7
343.2	10000	1558.1	15.6
353.19	10000	1548.2	15.5
293.17	15000	1614.1	16.2
303.26	15000	1603.6	16.1
313.21	15000	1593.3	15.9
323.14	15000	1582.9	15.8
333.18	15000	1572.7	15.7
343.2	15000	1562.8	15.6
353.18	15000	1553	15.5
293.17	20000	1618	16.2
303.25	20000	1607.6	16.1
313.2	20000	1597.4	16
323.14	20000	1587.2	15.9
333.18	20000	1577.2	15.8
343.2	20000	1567.4	15.7
353.19	20000	1557.7	15.6
293.17	25000	1621.7	16.2
303.25	25000	1611.4	16.1
313.21	25000	1601.4	16
323.14	25000	1591.3	15.9
333.18	25000	1581.4	15.8
343.21	25000	1571.7	15.7
353.19	25000	1562.2	15.6
293.17	25000	1621.7	16.2

System: 1-butyl-1-methylpyrrolidinium tris(pentafluoroethyl)trifluorophosphate; phases: Liquid
Fixed: Pressure, kPa = 101.325
Property: Viscosity, Pa*s (Liquid); method: Falling or rolling sphere viscometry
Temperature, K	Viscosity, Pa*s	uncertainty
293.15	0.333789	0.021904
303.15	0.179864	0.008909
313.15	0.105999	0.004022
323.15	0.068082	0.00215
333.15	0.045368	0.001403
343.15	0.0319	0.000987
353.15	0.023423	0.000724
363.15	0.017581	0.000544
373.15	0.013714	0.000424

System: trihexyl(tetradecyl)phosphonium tris(pentafluoroethyl)trifluorophosphate; phases: Liquid
Property: Mass density, kg/m3 (Liquid); method: Vibrating tube method
Temperature, K	Pressure, kPa	Mass density, kg/m3	uncertainty
293.2	100	1185.7	11.9
303.19	100	1177.4	11.8
313.15	100	1169.1	11.7
323.16	100	1160.6	11.6
333.11	100	1152.6	11.5
343.13	100	1144.5	11.4
353.2	100	1136.5	11.4
293.21	500	1185.9	11.9
303.19	500	1177.7	11.8
313.17	500	1169.4	11.7
323.15	500	1161	11.6
333.12	500	1152.9	11.5
343.07	500	1145	11.5
353.22	500	1137	11.4
293.22	1000	1185.9	11.9
303.19	1000	1177.7	11.8
313.17	1000	1169.4	11.7
323.15	1000	1161.1	11.6
333.12	1000	1153	11.5
343.07	1000	1145.1	11.5
353.23	1000	1137.1	11.4
293.22	2500	1186.7	11.9
303.21	2500	1178.5	11.8
313.17	2500	1170.3	11.7
323.16	2500	1162	11.6
333.12	2500	1154	11.5
343.08	2500	1146.1	11.5
353.22	2500	1138.2	11.4
293.22	5000	1188.3	11.9
303.22	5000	1180.1	11.8
313.17	5000	1172	11.7
323.15	5000	1163.8	11.6
333.13	5000	1156.8	11.6
343.09	5000	1148.1	11.5
353.22	5000	1140.2	11.4
293.22	10000	1191.3	11.9
303.22	10000	1183.3	11.8
313.17	10000	1175.4	11.8
323.15	10000	1167.3	11.7
333.12	10000	1159.5	11.6
343.08	10000	1151.9	11.5
353.23	10000	1144.2	11.4
293.23	15000	1194.7	12
303.23	15000	1186.8	11.9
313.17	15000	1179.1	11.8
323.14	15000	1171.1	11.7
333.13	15000	1163.4	11.6
343.08	15000	1156	11.6
353.23	15000	1148.4	11.5
293.23	20000	1198	12
303.23	20000	1190.2	11.9
313.17	20000	1182.6	11.8
323.15	20000	1174.7	11.8
333.14	20000	1167.2	11.7
343.1	20000	1159.9	11.6
353.25	20000	1152.5	11.5
293.22	25000	1201.2	12
303.25	25000	1193.5	11.9
313.17	25000	1186	11.9
323.16	25000	1178.3	11.8
333.13	25000	1171	11.7
343.09	25000	1163.7	11.6
353.25	25000	1156.4	11.6

System: trihexyl(tetradecyl)phosphonium tris(pentafluoroethyl)trifluorophosphate; phases: Liquid
Fixed: Pressure, kPa = 101.325
Property: Viscosity, Pa*s (Liquid); method: Falling or rolling sphere viscometry
Temperature, K	Viscosity, Pa*s	uncertainty
293.15	0.47083	0.03554
303.15	0.25901	0.01523
313.15	0.15529	0.00715
323.15	0.09433	0.00338
333.15	0.065	0.00203
343.15	0.04267	0.00132
353.15	0.03035	0.00094
363.15	0.02281	0.00071
373.15	0.01753	0.00054

System: water + trihexyl(tetradecyl)phosphonium tris(pentafluoroethyl)trifluorophosphate; phases: Liquid, Gas
Property: Vapor or sublimation pressure, kPa (Liquid); method: ISOPVT
Temperature, K	Mole fraction of water	Vapor or sublimation pressure, kPa	uncertainty
303.32	0.0374	1.1	0.78
303.32	0.0748	1.3	0.78
303.32	0.0757	1.2	0.78
303.32	0.1699	3.3	0.78
303.32	0.1728	3.5	0.78
303.32	0.2851	4	0.8
303.32	0.3727	4	0.8
303.32	0.4847	4	0.8
303.32	0.5687	4	0.8
303.32	0.6953	4	0.8
303.32	0.7098	4	0.8
303.32	0.784	4	0.8
303.32	0.858	4	0.8
303.32	0.9019	4	0.8
313.08	0.0243	1.9	0.78
313.08	0.0245	2.5	0.78
313.08	0.2126	6.5	0.78
313.08	0.2267	6.7	0.78
313.08	0.4111	6.9	0.78
313.08	0.558	7	0.8
313.08	0.7965	6.9	0.78
313.08	0.8386	6.7	0.78
313.08	0.9311	6.6	0.78

System: carbon dioxide + 1-butyl-1-methylpyrrolidinium tris(pentafluoroethyl)trifluorophosphate; phases: Liquid, Gas
Property: Mole fraction of carbon dioxide (Liquid); method: isochoric saturation technique
Temperature, K	Pressure, kPa	Mole fraction of carbon dioxide	uncertainty
303.16	64.111	0.0249	0.0005
303.16	63.5	0.0246	0.0005
303.18	63.705	0.0247	0.0005
313.15	66.506	0.0218	0.0004
313.19	67.076	0.0222	0.0004
313.22	66.65	0.0219	0.0004
323.12	69.913	0.02	0.0004
323.22	69.39	0.0196	0.0004
323.33	69.495	0.0197	0.0004
333.13	72.173	0.0178	0.0004
333.21	72.694	0.0182	0.0004
333.33	72.246	0.0179	0.0004
343.09	74.893	0.0162	0.0003
343.23	75.414	0.0166	0.0003
343.38	74.94	0.0163	0.0003

System: carbon dioxide + trihexyl(tetradecyl)phosphonium tris(pentafluoroethyl)trifluorophosphate; phases: Liquid, Gas
Property: Mole fraction of carbon dioxide (Liquid); method: isochoric saturation technique
Temperature, K	Pressure, kPa	Mole fraction of carbon dioxide	uncertainty
303.17	67.839	0.0355	0.0007
303.18	67.7	0.0351	0.0007
303.18	68.27	0.0358	0.0007
313.19	70.5	0.0325	0.0007
313.19	70.955	0.0329	0.0007
313.25	70.396	0.0321	0.0006
323.23	73.108	0.0301	0.0006
323.23	73.603	0.0306	0.0006
323.25	73.063	0.0293	0.0006
333.23	75.692	0.027	0.0005
333.26	75.684	0.0281	0.0009
333.26	76.207	0.0285	0.0006
343.25	78.296	0.0249	0.0005
343.3	78.244	0.0262	0.0005
343.3	78.807	0.0266	0.0005

System: nitrous oxide + 1-butyl-1-methylpyrrolidinium tris(pentafluoroethyl)trifluorophosphate; phases: Liquid, Gas
Property: Mole fraction of nitrous oxide (Liquid); method: isochoric saturation technique
Temperature, K	Pressure, kPa	Mole fraction of nitrous oxide	uncertainty
303.15	65.56	0.0278	0.0006
303.15	60.493	0.0249	0.0005
303.17	64.708	0.0261	0.0005
313.17	67.742	0.0232	0.0005
313.18	63.3	0.0223	0.0004
313.18	68.583	0.025	0.0005
323.22	65.973	0.0203	0.0004
323.23	70.645	0.0209	0.0004
323.29	71.538	0.0226	0.0005
333.18	74.352	0.0206	0.0004
333.21	68.584	0.0185	0.0004
333.24	73.465	0.019	0.0004
343.17	71.122	0.017	0.0003
343.19	77.173	0.0188	0.0004
343.22	76.222	0.0173	0.0004

System: nitrous oxide + trihexyl(tetradecyl)phosphonium tris(pentafluoroethyl)trifluorophosphate; phases: Liquid, Gas
Property: Mole fraction of nitrous oxide (Liquid); method: isochoric saturation technique
Temperature, K	Pressure, kPa	Mole fraction of nitrous oxide	uncertainty
303.15	65.379	0.0456	0.0009
303.18	58.548	0.0411	0.0008
303.18	67.002	0.0467	0.0009
313.18	61.042	0.0373	0.0007
313.19	69.802	0.0425	0.0009
313.2	68.161	0.0415	0.0008
323.21	72.543	0.0389	0.0008
323.23	63.476	0.0341	0.0007
323.24	70.867	0.0381	0.0008
333.18	75.235	0.0358	0.0007
333.25	73.519	0.0352	0.0007
333.26	65.862	0.0315	0.0006
343.15	76.15	0.0324	0.0007
343.2	77.897	0.0331	0.0007
343.23	68.219	0.029	0.0006

System: ethane + 1-butyl-1-methylpyrrolidinium tris(pentafluoroethyl)trifluorophosphate; phases: Liquid, Gas
Property: Mole fraction of ethane (Liquid); method: isochoric saturation technique
Temperature, K	Pressure, kPa	Mole fraction of ethane	uncertainty
303.16	70.614	0.0106	0.0002
303.27	74.606	0.0107	0.0002
303.27	92	0.013	0.0003
313.19	73.173	0.0097	0.0002
323.22	75.697	0.0091	0.0002
333.23	78.228	0.0083	0.0004
343.25	80.758	0.008	0.0004

System: ethane + trihexyl(tetradecyl)phosphonium tris(pentafluoroethyl)trifluorophosphate; phases: Liquid, Gas
Property: Mole fraction of ethane (Liquid); method: isochoric saturation technique
Temperature, K	Pressure, kPa	Mole fraction of ethane	uncertainty
303.16	68.716	0.0401	0.0008
303.17	68.377	0.0405	0.0008
303.17	69.478	0.0414	0.0008
313.16	72.18	0.0372	0.0007
313.18	71.383	0.0357	0.0007
313.18	71.126	0.0366	0.0007
323.19	74.883	0.0333	0.0007
323.24	73.875	0.033	0.0007
323.24	74.034	0.0319	0.0006
333.19	77.522	0.0302	0.0006
333.23	76.515	0.0303	0.0006
333.27	76.66	0.0284	0.0006
343.2	80.187	0.0269	0.0005
343.22	79.153	0.0277	0.0006
343.29	79.261	0.0253	0.0005

System: nitrogen + 1-butyl-1-methylpyrrolidinium tris(pentafluoroethyl)trifluorophosphate; phases: Liquid, Gas
Property: Mole fraction of nitrogen (Liquid); method: isochoric saturation technique
Temperature, K	Pressure, kPa	Mole fraction of nitrogen	uncertainty
303.16	92.485	0.00389	0.00031
303.17	92.367	0.00401	0.00032
303.17	92.43	0.00402	0.00032
313.16	95.489	0.0039	0.00031
313.17	95.375	0.00397	0.00032
313.18	95.437	0.004	0.00032
323.17	98.454	0.00388	0.00031
323.18	98.5	0.00386	0.00031
323.2	98.38	0.00397	0.00032
333.15	101.447	0.00386	0.00031
333.18	101.488	0.00394	0.00032
333.19	101.383	0.00392	0.00031
343.14	104.386	0.00375	0.0003
343.14	104.439	0.00385	0.00031

System: nitrogen + trihexyl(tetradecyl)phosphonium tris(pentafluoroethyl)trifluorophosphate; phases: Liquid, Gas
Property: Mole fraction of nitrogen (Liquid); method: isochoric saturation technique
Temperature, K	Pressure, kPa	Mole fraction of nitrogen	uncertainty
303.16	73.212	0.007	0.0006
303.17	73.368	0.0074	0.0006
303.19	72.37	0.0073	0.0006
313.18	75.609	0.007	0.0006
313.2	75.771	0.0074	0.0006
313.23	74.79	0.007	0.0006
323.22	78.19	0.0073	0.0006
323.23	78.035	0.0068	0.0005
323.28	77.179	0.0069	0.0006
333.21	80.625	0.0069	0.0006
333.24	80.458	0.0066	0.0005
333.27	79.569	0.0067	0.0005
343.2	83.041	0.0068	0.0005
343.24	82.92	0.006	0.0005
343.28	81.972	0.0064	0.0005
