Measured thermophysical data. Thermodynamic properties of peptide solutions 19. Partial molar isothermal  compressions at T = 298.15 K of some peptides of sequence gly-X-gly in  aqueous solution
Source: J. Chem. Thermodyn., 2010, 10.1016/j.jct.2009.08.004
Compound 1: glycyl-L-serylglycine, C7H13N3O5, InChI=1S/C7H13N3O5/c8-1-5(12)10-4(3-11)7(15)9-2-6(13)14/h4,11H,1-3,8H2,(H,9,15)(H,10,12)(H,13,14)/t4-/m0/s1
Compound 2: water, H2O, InChI=1S/H2O/h1H2

System: glycyl-L-serylglycine + water; phases: Liquid
Fixed: Temperature, K = 298.15
Fixed: Pressure, kPa = 101
Property: Speed of sound, m/s (Liquid); method: Pulse-echo method
Molality, mol/kg of glycyl-L-serylglycine	Speed of sound, m/s	uncertainty
0.062278	1503.237	0.771
0.050373	1502.006	0.769
0.043355	1501.271	0.768
0.036963	1500.597	0.767
0.026919	1499.542	0.765
