Measured thermophysical data. Synthesis, crystal structure and thermodynamic properties of 3-(3,5-dimethylpyrazol-1-yl)-6-(benzylmethylene) hydrazone-s-tetrazine
Source: J. Chem. Thermodyn., 2017, 10.1016/j.jct.2016.09.020
Compound 1: 3-(2-benzylidenehydrazinyl)-6-(3,5-dimethyl-1H-pyrazol-1-yl)-1,2,4,5-tetrazine, C14H14N8, InChI=1S/C14H14N8/c1-10-8-11(2)22(21-10)14-19-17-13(18-20-14)16-15-9-12-6-4-3-5-7-12/h3-9H,1-2H3,(H,16,17,18)/b15-9+

System: 3-(2-benzylidenehydrazinyl)-6-(3,5-dimethyl-1H-pyrazol-1-yl)-1,2,4,5-tetrazine; phases: Crystal
Property: Mass density, kg/m3 (Crystal); method: X-ray diffraction
Temperature, K	Pressure, kPa	Mass density, kg/m3	uncertainty
296	101.325	1383	7

System: 3-(2-benzylidenehydrazinyl)-6-(3,5-dimethyl-1H-pyrazol-1-yl)-1,2,4,5-tetrazine; phases: Crystal
Fixed: Pressure, kPa = 101.325
Property: Molar heat capacity at constant pressure, J/K/mol (Crystal); method: DSC
Temperature, K	Molar heat capacity at constant pressure, J/K/mol	uncertainty
283.15	327.27	13.23
288.15	334.13	13.51
293.15	340.23	13.75
298.15	345.68	13.97
303.15	350.57	14.17
308.15	354.99	14.35
313.15	359.06	14.51
318.15	362.87	14.67
323.15	366.53	14.82
328.15	370.12	14.96
333.15	373.75	15.11
338.15	377.53	15.26
343.15	381.54	15.42
348.15	385.9	15.6
353.15	390.7	15.79
