Measured thermophysical data. Thermodynamic models for determination of the solubility of dibenzothiophene in (methanol + acetonitrile) binary solvent mixtures
Source: J. Chem. Thermodyn., 2015, 10.1016/j.jct.2014.08.012
Compound 1: dibenzothiophene, C12H8S, InChI=1S/C12H8S/c1-3-7-11-9(5-1)10-6-2-4-8-12(10)13-11/h1-8H, purity 98%
Compound 2: methanol, CH4O, InChI=1S/CH4O/c1-2/h2H,1H3, purity 99.7%
Compound 3: acetonitrile, C2H3N, InChI=1S/C2H3N/c1-2-3/h1H3, purity 99.7%

System: dibenzothiophene; phases: Crystal, Liquid, Air at 1 atmosphere
Property: Normal melting temperature, K (Crystal); method: VISOBS
Normal melting temperature, K	uncertainty
373.15	2.03

System: methanol + acetonitrile + dibenzothiophene; phases: Liquid, Crystal
Fixed: Pressure, kPa = 101.3
Property: Mole fraction of dibenzothiophene (Liquid); method: Gravimetric Method
Temperature, K	Solvent: Mole fraction of methanol	Mole fraction of dibenzothiophene	uncertainty
278.15	0	0.00454	9.1e-05
278.15	0.185	0.003838	7.7e-05
278.15	0.356	0.003545	7.1e-05
278.15	0.513	0.003181	6.4e-05
278.15	0.659	0.002701	5.4e-05
278.15	0.795	0.002068	4.2e-05
278.15	0.921	0.001456	2.9e-05
278.15	1	0.00126	2.5e-05
283.15	0	0.00611	0.000123
283.15	0.185	0.005254	0.000106
283.15	0.356	0.00484	9.7e-05
283.15	0.513	0.004257	8.6e-05
283.15	0.659	0.0036	7.2e-05
283.15	0.795	0.002707	5.4e-05
283.15	0.921	0.001863	3.7e-05
283.15	1	0.00163	3.3e-05
288.15	0	0.00845	0.00017
288.15	0.185	0.007109	0.000143
288.15	0.356	0.006326	0.000127
288.15	0.513	0.005558	0.000112
288.15	0.659	0.004514	9.1e-05
288.15	0.795	0.003309	6.7e-05
288.15	0.921	0.002298	4.6e-05
288.15	1	0.00192	3.9e-05
293.15	0	0.01184	0.000238
293.15	0.185	0.009654	0.000194
293.15	0.356	0.008424	0.000169
293.15	0.513	0.007368	0.000148
293.15	0.659	0.005708	0.000115
293.15	0.795	0.00413	8.3e-05
293.15	0.921	0.002847	5.7e-05
293.15	1	0.00242	4.9e-05
298.15	0	0.01519	0.000306
298.15	0.185	0.012706	0.000256
298.15	0.356	0.011087	0.000223
298.15	0.513	0.009417	0.000189
298.15	0.659	0.00736	0.000148
298.15	0.795	0.005255	0.000106
298.15	0.921	0.003616	7.3e-05
298.15	1	0.0029	5.8e-05
303.15	0	0.01891	0.00038
303.15	0.185	0.016379	0.000329
303.15	0.356	0.014069	0.000283
303.15	0.513	0.011657	0.000234
303.15	0.659	0.009125	0.000184
303.15	0.795	0.006534	0.000131
303.15	0.921	0.004475	9e-05
303.15	1	0.00331	6.7e-05
308.15	0	0.02413	0.000485
308.15	0.185	0.020846	0.000419
308.15	0.356	0.017825	0.000359
308.15	0.513	0.014683	0.000295
308.15	0.659	0.01134	0.000228
308.15	0.795	0.00805	0.000162
308.15	0.921	0.005509	0.000111
308.15	1	0.00406	8.2e-05
313.15	0	0.03206	0.000645
313.15	0.185	0.026903	0.000541
313.15	0.356	0.022684	0.000456
313.15	0.513	0.018297	0.000368
313.15	0.659	0.01414	0.000284
313.15	0.795	0.009946	0.0002
313.15	0.921	0.006709	0.000135
313.15	1	0.00478	9.6e-05
318.15	0	0.04016	0.000808
318.15	0.185	0.034347	0.000691
318.15	0.356	0.028613	0.000575
318.15	0.513	0.02266	0.000456
318.15	0.659	0.017377	0.000349
318.15	0.795	0.01216	0.000245
318.15	0.921	0.008066	0.000162
318.15	1	0.0056	0.000113
323.15	0	0.05061	0.001018
323.15	0.185	0.043471	0.000874
323.15	0.356	0.035663	0.000717
323.15	0.513	0.027849	0.00056
323.15	0.659	0.021111	0.000425
323.15	0.795	0.014763	0.000297
323.15	0.921	0.009756	0.000196
323.15	1	0.00668	0.000134
328.15	0	0.06386	0.001284
328.15	0.185	0.054249	0.001091
328.15	0.356	0.043671	0.000878
328.15	0.513	0.034046	0.000685
328.15	0.659	0.025491	0.000513
328.15	0.795	0.017757	0.000357
328.15	0.921	0.011641	0.000234
328.15	1	0.00782	0.000157
333.15	0	0.08393	0.001688
333.15	0.185	0.067481	0.001357
333.15	0.356	0.053545	0.001077
333.15	0.513	0.041664	0.000838
333.15	0.659	0.030898	0.000621
333.15	0.795	0.021446	0.000431
333.15	0.921	0.013801	0.000278
333.15	1	0.00917	0.000184

System: methanol + dibenzothiophene; phases: Liquid, Crystal
Fixed: Pressure, kPa = 101.3
Property: Mole fraction of dibenzothiophene (Liquid); method: Gravimetric Method
Temperature, K	Mole fraction of dibenzothiophene	uncertainty
278.15	0.00126	2.5e-05
283.15	0.00163	3.3e-05
288.15	0.00192	3.9e-05
293.15	0.00242	4.9e-05
298.15	0.0029	5.8e-05
303.15	0.00331	6.7e-05
308.15	0.00406	8.2e-05
313.15	0.00478	9.6e-05
318.15	0.0056	0.000113
323.15	0.00668	0.000134
328.15	0.00782	0.000157
333.15	0.00917	0.000184

System: acetonitrile + dibenzothiophene; phases: Liquid, Crystal
Fixed: Pressure, kPa = 101.3
Property: Mole fraction of dibenzothiophene (Liquid); method: Gravimetric Method
Temperature, K	Mole fraction of dibenzothiophene	uncertainty
278.15	0.00454	9.1e-05
283.15	0.00611	0.000123
288.15	0.00845	0.00017
293.15	0.01184	0.000238
298.15	0.01519	0.000306
303.15	0.01891	0.00038
308.15	0.02413	0.000485
313.15	0.03206	0.000645
318.15	0.04016	0.000808
323.15	0.05061	0.001018
328.15	0.06386	0.001284
333.15	0.08393	0.001688
