Measured thermophysical data. Effect of temperature and chain length on the viscosity and surface tension of binary systems of N,N-dimethylformamide with 1-octanol, 1-nonanol and 1-decanol
Source: J. Chem. Thermodyn., 2014, 10.1016/j.jct.2014.03.022
Compound 1: dimethylformamide, C3H7NO, InChI=1S/C3H7NO/c1-4(2)3-5/h3H,1-2H3, purity 99.8%
Compound 2: octan-1-ol, C8H18O, InChI=1S/C8H18O/c1-2-3-4-5-6-7-8-9/h9H,2-8H2,1H3, purity 99%
Compound 3: nonan-1-ol, C9H20O, InChI=1S/C9H20O/c1-2-3-4-5-6-7-8-9-10/h10H,2-9H2,1H3, purity 98%
Compound 4: decan-1-ol, C10H22O, InChI=1S/C10H22O/c1-2-3-4-5-6-7-8-9-10-11/h11H,2-10H2,1H3, purity 99%

System: dimethylformamide; phases: Liquid
Property: Refractive index (Na D-line) (Liquid); method: Standard Abbe refractometry
Temperature, K	Pressure, kPa	Refractive index (Na D-line)	uncertainty
293.15	101.325	1.429	0.001

System: dimethylformamide; phases: Liquid
Fixed: Pressure, kPa = 101.3
Property: Viscosity, Pa*s (Liquid); method: Concentric cylinders viscometry
Temperature, K	Viscosity, Pa*s	uncertainty
298.15	0.0008162	1.74e-05
303.15	0.0007678	1.64e-05
308.15	0.0007262	1.56e-05
313.15	0.000678	1.46e-05

System: dimethylformamide; phases: Liquid, Air at 1 atmosphere
Property: Surface tension liquid-gas, N/m (Liquid); method: Wilhelmy plate method
Temperature, K	Surface tension liquid-gas, N/m	uncertainty
298.15	0.0352	0.0005
303.15	0.0341	0.0005
308.15	0.033	0.0005
313.15	0.032	0.0005

System: octan-1-ol; phases: Liquid
Property: Refractive index (Na D-line) (Liquid); method: Standard Abbe refractometry
Temperature, K	Pressure, kPa	Refractive index (Na D-line)	uncertainty
293.15	101.325	1.429	0.001

System: octan-1-ol; phases: Liquid
Fixed: Pressure, kPa = 101.3
Property: Viscosity, Pa*s (Liquid); method: Concentric cylinders viscometry
Temperature, K	Viscosity, Pa*s	uncertainty
298.15	0.007661	0.0001603
303.15	0.0064023	0.000134
308.15	0.005425	0.0001136
313.15	0.0046278	9.71e-05

System: octan-1-ol; phases: Liquid, Air at 1 atmosphere
Property: Surface tension liquid-gas, N/m (Liquid); method: Wilhelmy plate method
Temperature, K	Surface tension liquid-gas, N/m	uncertainty
298.15	0.02747	0.00052
303.15	0.02642	0.00052
308.15	0.02541	0.00052
313.15	0.02438	0.00052

System: nonan-1-ol; phases: Liquid
Property: Refractive index (Na D-line) (Liquid); method: Standard Abbe refractometry
Temperature, K	Pressure, kPa	Refractive index (Na D-line)	uncertainty
293.15	101.325	1.433	0.001

System: nonan-1-ol; phases: Liquid
Fixed: Pressure, kPa = 101.3
Property: Viscosity, Pa*s (Liquid); method: Concentric cylinders viscometry
Temperature, K	Viscosity, Pa*s	uncertainty
298.15	0.009715	0.0002199
303.15	0.0079272	0.0001796
308.15	0.006664	0.000151
313.15	0.0056453	0.000128

System: nonan-1-ol; phases: Liquid, Air at 1 atmosphere
Property: Surface tension liquid-gas, N/m (Liquid); method: Wilhelmy plate method
Temperature, K	Surface tension liquid-gas, N/m	uncertainty
298.15	0.02758	0.00057
303.15	0.02653	0.00057
308.15	0.02549	0.00056
313.15	0.02444	0.00056

System: decan-1-ol; phases: Liquid
Property: Refractive index (Na D-line) (Liquid); method: Standard Abbe refractometry
Temperature, K	Pressure, kPa	Refractive index (Na D-line)	uncertainty
293.15	101.325	1.437	0.001

System: decan-1-ol; phases: Liquid
Fixed: Pressure, kPa = 101.3
Property: Viscosity, Pa*s (Liquid); method: Concentric cylinders viscometry
Temperature, K	Viscosity, Pa*s	uncertainty
298.15	0.011825	0.0002471
303.15	0.0097537	0.000204
308.15	0.0081353	0.0001702
313.15	0.0068418	0.0001433

System: decan-1-ol; phases: Liquid, Air at 1 atmosphere
Property: Surface tension liquid-gas, N/m (Liquid); method: Wilhelmy plate method
Temperature, K	Surface tension liquid-gas, N/m	uncertainty
298.15	0.02835	0.00052
303.15	0.02729	0.00052
308.15	0.02623	0.00052
313.15	0.02517	0.00052

System: dimethylformamide + octan-1-ol; phases: Liquid
Fixed: Pressure, kPa = 101.3
Property: Viscosity, Pa*s (Liquid); method: Concentric cylinders viscometry
Temperature, K	Mole fraction of dimethylformamide	Viscosity, Pa*s	uncertainty
298.15	0	0.007661	0.0001603
298.15	0.2198	0.0040817	8.53e-05
298.15	0.3728	0.0026361	5.5e-05
298.15	0.5208	0.0017938	3.75e-05
298.15	0.6277	0.0014098	2.95e-05
298.15	0.7118	0.0011933	2.51e-05
298.15	0.7877	0.0010517	2.22e-05
298.15	0.8519	0.0009693	2.05e-05
298.15	0.9085	0.0009042	1.91e-05
298.15	0.9556	0.0008603	1.82e-05
298.15	1	0.0008162	1.74e-05
303.15	0	0.0064023	0.000134
303.15	0.2198	0.0032428	6.77e-05
303.15	0.3728	0.0020119	4.21e-05
303.15	0.5208	0.0013555	2.85e-05
303.15	0.6277	0.0010885	2.3e-05
303.15	0.7118	0.0009412	2e-05
303.15	0.7877	0.0008817	1.87e-05
303.15	0.8519	0.0008339	1.78e-05
303.15	0.9085	0.0008153	1.74e-05
303.15	0.9556	0.0007921	1.69e-05
303.15	1	0.0007678	1.64e-05
308.15	0	0.005425	0.0001136
308.15	0.2198	0.0026775	5.6e-05
308.15	0.3728	0.0016462	3.45e-05
308.15	0.5208	0.001106	2.34e-05
308.15	0.6277	0.0008992	1.92e-05
308.15	0.7118	0.000804	1.72e-05
308.15	0.7877	0.000765	1.64e-05
308.15	0.8519	0.0007497	1.61e-05
308.15	0.9085	0.0007484	1.6e-05
308.15	0.9556	0.0007395	1.59e-05
308.15	1	0.0007262	1.56e-05
313.15	0	0.0046278	9.71e-05
313.15	0.2198	0.0021997	4.6e-05
313.15	0.3728	0.0013501	2.84e-05
313.15	0.5208	0.0009143	1.95e-05
313.15	0.6277	0.0007523	1.62e-05
313.15	0.7118	0.0007006	1.52e-05
313.15	0.7877	0.0006768	1.47e-05
313.15	0.8519	0.0006694	1.45e-05
313.15	0.9085	0.0006782	1.47e-05
313.15	0.9556	0.0006802	1.47e-05
313.15	1	0.000678	1.46e-05

System: dimethylformamide + octan-1-ol; phases: Liquid, Air at 1 atmosphere
Property: Surface tension liquid-gas, N/m (Liquid); method: Wilhelmy plate method
Temperature, K	Mole fraction of dimethylformamide	Surface tension liquid-gas, N/m	uncertainty
298.15	0	0.02747	0.00052
298.15	0.2198	0.02807	0.00051
298.15	0.3728	0.02837	0.00051
298.15	0.5208	0.02877	0.00051
298.15	0.6277	0.02936	0.00051
298.15	0.7118	0.0301	0.00051
298.15	0.7877	0.03104	0.00051
298.15	0.8519	0.03205	0.00051
298.15	0.9085	0.03313	0.0005
298.15	0.9556	0.03415	0.0005
298.15	1	0.0352	0.0005
303.15	0	0.02642	0.00052
303.15	0.2198	0.02698	0.00051
303.15	0.3728	0.02725	0.00051
303.15	0.5208	0.0276	0.00051
303.15	0.6277	0.02817	0.00051
303.15	0.7118	0.0289	0.00051
303.15	0.7877	0.02985	0.00051
303.15	0.8519	0.03088	0.0005
303.15	0.9085	0.03198	0.0005
303.15	0.9556	0.03303	0.0005
303.15	1	0.0341	0.0005
308.15	0	0.02541	0.00052
308.15	0.2198	0.02595	0.00051
308.15	0.3728	0.02618	0.00051
308.15	0.5208	0.0265	0.00051
308.15	0.6277	0.02705	0.00051
308.15	0.7118	0.02777	0.00051
308.15	0.7877	0.02872	0.0005
308.15	0.8519	0.02976	0.0005
308.15	0.9085	0.03087	0.0005
308.15	0.9556	0.03192	0.0005
308.15	1	0.033	0.0005
313.15	0	0.02438	0.00052
313.15	0.2198	0.02491	0.00051
313.15	0.3728	0.02513	0.00051
313.15	0.5208	0.02543	0.00051
313.15	0.6277	0.02597	0.00051
313.15	0.7118	0.0267	0.0005
313.15	0.7877	0.02766	0.0005
313.15	0.8519	0.0287	0.0005
313.15	0.9085	0.02984	0.0005
313.15	0.9556	0.0309	0.0005
313.15	1	0.032	0.0005

System: dimethylformamide + nonan-1-ol; phases: Liquid
Fixed: Pressure, kPa = 101.3
Property: Viscosity, Pa*s (Liquid); method: Concentric cylinders viscometry
Temperature, K	Mole fraction of dimethylformamide	Viscosity, Pa*s	uncertainty
298.15	0	0.009715	0.0002199
298.15	0.2201	0.0047658	0.0001051
298.15	0.3969	0.0027146	5.87e-05
298.15	0.5458	0.0017704	3.79e-05
298.15	0.6515	0.0013726	2.92e-05
298.15	0.7321	0.0011561	2.46e-05
298.15	0.8042	0.0010222	2.17e-05
298.15	0.8644	0.0009434	2e-05
298.15	0.9168	0.0008898	1.89e-05
298.15	0.9596	0.0008529	1.81e-05
298.15	1	0.0008162	1.74e-05
303.15	0	0.0079272	0.0001796
303.15	0.2201	0.0036327	7.98e-05
303.15	0.3969	0.0019325	4.19e-05
303.15	0.5458	0.0012127	2.62e-05
303.15	0.6515	0.0009494	2.05e-05
303.15	0.7321	0.0008443	1.82e-05
303.15	0.8042	0.0007978	1.72e-05
303.15	0.8644	0.0007834	1.68e-05
303.15	0.9168	0.0007837	1.68e-05
303.15	0.9596	0.0007764	1.66e-05
303.15	1	0.0007678	1.64e-05
308.15	0	0.006664	0.000151
308.15	0.2201	0.0029646	6.52e-05
308.15	0.3969	0.0015325	3.33e-05
308.15	0.5458	0.0009531	2.07e-05
308.15	0.6515	0.0007597	1.66e-05
308.15	0.7321	0.0006817	1.49e-05
308.15	0.8042	0.0006695	1.46e-05
308.15	0.8644	0.0006881	1.49e-05
308.15	0.9168	0.0007189	1.55e-05
308.15	0.9596	0.000727	1.56e-05
308.15	1	0.0007262	1.56e-05
313.15	0	0.0056453	0.000128
313.15	0.2201	0.0024159	5.31e-05
313.15	0.3969	0.0011963	2.61e-05
313.15	0.5458	0.0007287	1.61e-05
313.15	0.6515	0.0005913	1.32e-05
313.15	0.7321	0.0005692	1.27e-05
313.15	0.8042	0.0005762	1.27e-05
313.15	0.8644	0.0006071	1.33e-05
313.15	0.9168	0.0006468	1.41e-05
313.15	0.9596	0.0006663	1.44e-05
313.15	1	0.000678	1.46e-05

System: dimethylformamide + nonan-1-ol; phases: Liquid, Air at 1 atmosphere
Property: Surface tension liquid-gas, N/m (Liquid); method: Wilhelmy plate method
Temperature, K	Mole fraction of dimethylformamide	Surface tension liquid-gas, N/m	uncertainty
298.15	0	0.02758	0.00057
298.15	0.2201	0.02812	0.00055
298.15	0.3969	0.02854	0.00053
298.15	0.5458	0.02897	0.00052
298.15	0.6515	0.02958	0.00052
298.15	0.7321	0.0303	0.00051
298.15	0.8042	0.03121	0.00051
298.15	0.8644	0.03219	0.00051
298.15	0.9168	0.03323	0.00051
298.15	0.9596	0.0342	0.0005
298.15	1	0.0352	0.0005
303.15	0	0.02653	0.00057
303.15	0.2201	0.02704	0.00055
303.15	0.3969	0.02742	0.00053
303.15	0.5458	0.02781	0.00052
303.15	0.6515	0.02839	0.00052
303.15	0.7321	0.02911	0.00051
303.15	0.8042	0.03003	0.00051
303.15	0.8644	0.03102	0.00051
303.15	0.9168	0.03208	0.00051
303.15	0.9596	0.03307	0.0005
303.15	1	0.0341	0.0005
308.15	0	0.02549	0.00056
308.15	0.2201	0.02598	0.00054
308.15	0.3969	0.02633	0.00053
308.15	0.5458	0.0267	0.00052
308.15	0.6515	0.02727	0.00051
308.15	0.7321	0.02798	0.00051
308.15	0.8042	0.0289	0.00051
308.15	0.8644	0.0299	0.00051
308.15	0.9168	0.03097	0.0005
308.15	0.9596	0.03197	0.0005
308.15	1	0.033	0.0005
313.15	0	0.02444	0.00056
313.15	0.2201	0.02492	0.00054
313.15	0.3969	0.02527	0.00053
313.15	0.5458	0.02562	0.00052
313.15	0.6515	0.02618	0.00051
313.15	0.7321	0.0269	0.00051
313.15	0.8042	0.02783	0.00051
313.15	0.8644	0.02885	0.00051
313.15	0.9168	0.02993	0.0005
313.15	0.9596	0.03095	0.0005
313.15	1	0.032	0.0005

System: dimethylformamide + decan-1-ol; phases: Liquid
Fixed: Pressure, kPa = 101.3
Property: Viscosity, Pa*s (Liquid); method: Concentric cylinders viscometry
Temperature, K	Mole fraction of dimethylformamide	Viscosity, Pa*s	uncertainty
298.15	0	0.011825	0.0002471
298.15	0.2361	0.0049839	0.0001049
298.15	0.4193	0.0026223	5.51e-05
298.15	0.5688	0.0016226	3.41e-05
298.15	0.6724	0.0012377	2.61e-05
298.15	0.7496	0.0010297	2.18e-05
298.15	0.8185	0.0009299	1.98e-05
298.15	0.8748	0.0008732	1.86e-05
298.15	0.923	0.0008501	1.81e-05
298.15	0.9632	0.0008317	1.77e-05
298.15	1	0.0008162	1.74e-05
303.15	0	0.0097537	0.000204
303.15	0.2361	0.0037758	7.88e-05
303.15	0.4193	0.0018162	3.82e-05
303.15	0.5688	0.0010924	2.33e-05
303.15	0.6724	0.0008423	1.81e-05
303.15	0.7496	0.0007268	1.58e-05
303.15	0.8185	0.0007011	1.52e-05
303.15	0.8748	0.0007131	1.54e-05
303.15	0.923	0.0007459	1.6e-05
303.15	0.9632	0.0007627	1.63e-05
303.15	1	0.0007678	1.64e-05
308.15	0	0.0081353	0.0001702
308.15	0.2361	0.0029925	6.25e-05
308.15	0.4193	0.0013593	2.87e-05
308.15	0.5688	0.0007935	1.72e-05
308.15	0.6724	0.0006257	1.38e-05
308.15	0.7496	0.0005631	1.25e-05
308.15	0.8185	0.0005754	1.27e-05
308.15	0.8748	0.0006216	1.36e-05
308.15	0.923	0.0006802	1.47e-05
308.15	0.9632	0.0007103	1.53e-05
308.15	1	0.0007262	1.56e-05
313.15	0	0.0068418	0.0001433
313.15	0.2361	0.0023566	4.92e-05
313.15	0.4193	0.0009811	2.09e-05
313.15	0.5688	0.0005801	1.29e-05
313.15	0.6724	0.00047	1.07e-05
313.15	0.7496	0.000443	1.01e-05
313.15	0.8185	0.000479	1.08e-05
313.15	0.8748	0.0005385	1.19e-05
313.15	0.923	0.0006027	1.32e-05
313.15	0.9632	0.0006468	1.4e-05
313.15	1	0.000678	1.46e-05

System: dimethylformamide + decan-1-ol; phases: Liquid, Air at 1 atmosphere
Property: Surface tension liquid-gas, N/m (Liquid); method: Wilhelmy plate method
Temperature, K	Mole fraction of dimethylformamide	Surface tension liquid-gas, N/m	uncertainty
298.15	0	0.02835	0.00052
298.15	0.2361	0.02883	0.00052
298.15	0.4193	0.02921	0.00051
298.15	0.5688	0.0296	0.00051
298.15	0.6724	0.03014	0.00051
298.15	0.7496	0.03078	0.00051
298.15	0.8185	0.03161	0.00051
298.15	0.8748	0.03248	0.0005
298.15	0.923	0.03341	0.0005
298.15	0.9632	0.0343	0.0005
298.15	1	0.0352	0.0005
303.15	0	0.02729	0.00052
303.15	0.2361	0.02774	0.00051
303.15	0.4193	0.02808	0.00051
303.15	0.5688	0.02843	0.00051
303.15	0.6724	0.02895	0.00051
303.15	0.7496	0.0296	0.00051
303.15	0.8185	0.03043	0.0005
303.15	0.8748	0.03132	0.0005
303.15	0.923	0.03227	0.0005
303.15	0.9632	0.03318	0.0005
303.15	1	0.0341	0.0005
308.15	0	0.02623	0.00052
308.15	0.2361	0.02667	0.00051
308.15	0.4193	0.02699	0.00051
308.15	0.5688	0.02731	0.00051
308.15	0.6724	0.02782	0.00051
308.15	0.7496	0.02846	0.00051
308.15	0.8185	0.0293	0.0005
308.15	0.8748	0.0302	0.0005
308.15	0.923	0.03115	0.0005
308.15	0.9632	0.03207	0.0005
308.15	1	0.033	0.0005
313.15	0	0.02517	0.00052
313.15	0.2361	0.02561	0.00051
313.15	0.4193	0.02592	0.00051
313.15	0.5688	0.02623	0.00051
313.15	0.6724	0.02674	0.00051
313.15	0.7496	0.02738	0.0005
313.15	0.8185	0.02823	0.0005
313.15	0.8748	0.02915	0.0005
313.15	0.923	0.03012	0.0005
313.15	0.9632	0.03105	0.0005
313.15	1	0.032	0.0005
