Measured thermophysical data. The heat capacity and entropy of the four lithium stannides Li17Sn4, Li7Sn2, Li13Sn5 and Li7Sn3 in the temperature range (2 to 865) K
Source: J. Chem. Thermodyn., 2019, 10.1016/j.jct.2018.09.035
Compound 1: lithium compound with tin (Li17Sn4), Li17Sn4, purity 99%
Compound 2: lithium compound with tin (Li7Sn2), Li7Sn2, purity 99%
Compound 3: lithium compound with tin (Li13Sn5), Li13Sn5, purity 98%
Compound 4: lithium compound with tin (Li7Sn3), Li7Sn3, purity 99%

System: lithium compound with tin (Li17Sn4); phases: Crystal, Liquid, Air at 1 atmosphere
Property: Normal melting temperature, K (Crystal); method: DTA
Normal melting temperature, K	uncertainty
1032	5

System: lithium compound with tin (Li17Sn4); phases: Crystal, Liquid, Air at 1 atmosphere
Property: Molar enthalpy of transition or fusion, kJ/mol (Crystal); method: DSC
Molar enthalpy of transition or fusion, kJ/mol	uncertainty
159.6	4.2

System: lithium compound with tin (Li17Sn4); phases: Crystal
Fixed: Pressure, kPa = 101.325
Property: Molar heat capacity at constant pressure, J/K/mol (Crystal); method: RELAXCAL
Temperature, K	Molar heat capacity at constant pressure, J/K/mol	uncertainty
5	0.2205	0.0441
10	1.5015	0.3045
15	6.111	1.239
20	15.183	3.087
25	26.88	1.092
30	39.732	1.617
40	66.549	2.709
50	93.45	3.801
60	121.632	4.935
70	151.011	6.132
80	179.907	7.308
90	207.627	8.442
100	233.793	9.492
110	258.321	10.5
120	281.127	11.424
130	302.232	12.285
140	321.678	13.062
150	339.528	13.797
160	355.845	14.448
170	370.755	15.057
180	384.279	15.603
190	396.564	16.107
200	407.694	16.569
210	417.753	16.968
220	426.825	17.346
230	435.036	17.661
240	442.491	17.976
250	449.274	18.249
260	455.469	18.501
270	461.223	18.732
280	466.599	21.63
290	471.723	21.882
298.15	475.755	22.05
300	476.679	22.113
310	481.845	22.344
320	486.633	19.761
330	491.211	19.95
340	495.579	20.139
350	499.8	20.307
360	503.874	20.475
370	507.801	20.622
380	511.644	20.79
390	515.361	20.937
400	519.015	21.084
410	522.585	21.231
420	526.071	21.378
430	529.515	21.504
440	532.917	21.651
450	536.277	21.777
460	539.595	21.924
470	542.871	22.05
480	546.126	22.176
490	549.36	22.323
500	552.573	22.449
510	555.786	22.575
520	558.957	22.701
530	562.149	22.827
540	565.32	22.953
550	568.491	23.1
560	571.641	23.226
570	574.812	23.352
580	577.983	23.478
590	581.133	23.604
600	584.325	23.73
610	587.496	23.856
620	590.688	24.003
630	593.88	24.129
640	597.072	24.255
650	600.285	24.381
660	603.519	24.507
670	606.753	24.654
680	610.008	24.78
690	613.263	24.906
700	616.539	25.053
710	619.836	25.179
720	623.154	25.305
730	626.472	25.452
740	629.811	25.578
750	633.171	25.725
760	636.552	25.851
770	639.954	25.998
780	643.377	26.124
790	646.8	26.271
800	650.244	26.418
810	653.73	26.565
820	657.216	26.691
830	660.723	26.838
840	664.272	26.985
850	667.821	27.132
860	671.391	27.279
865	673.176	27.342

System: lithium compound with tin (Li17Sn4); phases: Crystal
Fixed: Pressure, kPa = 101.325
Property: Molar entropy, J/K/mol (Crystal); method: RELAXCAL
Temperature, K	Molar entropy, J/K/mol	uncertainty
5	0.1428	0.0441
10	0.5754	0.1743
15	1.9005	0.5796
20	4.8174	1.4679
25	9.4332	0.5754
30	15.4644	0.9429
40	30.534	1.869
50	48.279	2.94
60	67.767	4.137
70	88.725	5.397
80	110.775	6.741
90	133.581	8.148
100	156.828	9.555
110	180.285	10.983
120	203.742	12.411
130	227.094	13.839
140	250.215	15.246
150	273.021	16.632
160	295.47	17.997
170	317.499	19.341
180	339.066	20.664
190	360.192	21.945
200	380.814	23.205
210	400.953	24.423
220	420.609	25.62
230	439.761	26.796
240	458.43	27.93
250	476.637	29.043
260	494.382	30.114
270	511.686	31.185
280	528.549	36.771
290	545.013	37.905
298.15	558.138	38.829
300	560.994	39.018
310	576.723	40.11
320	592.095	36.078
330	607.131	37.002
340	621.873	37.884
350	636.3	38.766
360	650.433	39.627
370	664.293	40.467
380	677.88	41.307
390	691.215	42.126
400	704.319	42.924
410	717.171	43.701
420	729.813	44.478
430	742.224	45.234
440	754.446	45.969
450	766.458	46.704
460	778.281	47.418
470	789.915	48.132
480	801.381	48.825
490	812.679	49.518
500	823.809	50.19
510	834.771	50.862
520	845.607	51.513
530	856.275	52.164
540	866.817	52.815
550	877.212	53.445
560	887.502	54.075
570	897.645	54.684
580	907.662	55.314
590	917.574	55.902
600	927.36	56.511
610	937.041	57.099
620	946.617	57.687
630	956.109	58.254
640	965.475	58.821
650	974.757	59.388
660	983.955	59.955
670	993.048	60.501
680	1002.057	61.047
690	1011.003	61.593
700	1019.844	62.139
710	1028.601	62.664
720	1037.295	63.21
730	1045.926	63.735
740	1054.473	64.239
750	1062.936	64.764
760	1071.357	65.268
770	1079.694	65.793
780	1087.968	66.297
790	1096.2	66.801
800	1104.348	67.284
810	1112.454	67.788
820	1120.497	68.271
830	1128.477	68.754
840	1136.415	69.237
850	1144.29	69.72
860	1152.123	70.203
865	1156.029	70.434

System: lithium compound with tin (Li17Sn4); phases: Crystal
Fixed: Pressure, kPa = 101.325
Property: Molar enthalpy function {Hm(T)-Hm(0)}/T, J/K/mol (Crystal); method: RELAXCAL
Temperature, K	Molar enthalpy function {Hm(T)-Hm(0)}/T, J/K/mol	uncertainty
5	0.0798	0.0168
10	0.3864	0.0777
15	1.3944	0.2835
20	3.6351	0.7392
25	7.0812	0.2877
30	11.4513	0.4662
40	21.861	0.882
50	33.495	1.365
60	45.78	1.869
70	58.716	2.394
80	72.072	2.919
90	85.617	3.486
100	99.141	4.032
110	112.497	4.578
120	125.622	5.103
130	138.39	5.628
140	150.801	6.132
150	162.792	6.615
160	174.363	7.077
170	185.493	7.539
180	196.161	7.959
190	206.388	8.379
200	216.174	8.778
210	225.54	9.156
220	234.486	9.534
230	243.033	9.87
240	251.202	10.206
250	258.972	10.521
260	266.427	10.815
270	273.525	11.109
280	280.329	12.999
290	286.839	13.293
298.15	291.942	13.545
300	293.097	13.587
310	299.103	13.86
320	304.878	12.39
330	310.464	12.621
340	315.84	12.831
350	321.027	13.041
360	326.067	13.251
370	330.918	13.44
380	335.622	13.629
390	340.179	13.818
400	344.61	14.007
410	348.915	14.175
420	353.094	14.343
430	357.147	14.511
440	361.095	14.658
450	364.959	14.826
460	368.718	14.973
470	372.393	15.12
480	375.984	15.267
490	379.491	15.414
500	382.914	15.561
510	386.274	15.687
520	389.55	15.834
530	392.784	15.96
540	395.955	16.086
550	399.063	16.212
560	402.108	16.338
570	405.111	16.464
580	408.072	16.569
590	410.97	16.695
600	413.847	16.821
610	416.661	16.926
620	419.433	17.031
630	422.184	17.157
640	424.893	17.262
650	427.56	17.367
660	430.206	17.472
670	432.81	17.577
680	435.393	17.682
690	437.955	17.787
700	440.475	17.892
710	442.974	17.997
720	445.473	18.102
730	447.93	18.186
740	450.366	18.291
750	452.781	18.396
760	455.175	18.48
770	457.548	18.585
780	459.9	18.69
790	462.252	18.774
800	464.583	18.879
810	466.893	18.963
820	469.182	19.068
830	471.471	19.152
840	473.76	19.236
850	476.007	19.341
860	478.275	19.425
865	479.388	19.467

System: lithium compound with tin (Li17Sn4); phases: Crystal
Fixed: Pressure, kPa = 101.325
Property: Molar heat capacity at constant pressure, J/K/mol (Crystal); method: RELAXCAL
Temperature, K	Molar heat capacity at constant pressure, J/K/mol	uncertainty
1.93	0.049	0.01
2.01	0.051	0.01
2.1	0.054	0.011
2.2	0.058	0.012
2.3	0.061	0.012
2.4	0.064	0.013
2.5	0.068	0.014
2.61	0.072	0.015
2.73	0.077	0.016
2.85	0.082	0.017
2.98	0.088	0.018
3.1	0.094	0.019
3.24	0.1	0.02
3.38	0.11	0.02
3.52	0.12	0.03
3.67	0.12	0.03
3.83	0.13	0.03
4	0.14	0.03
4.17	0.16	0.03
4.36	0.17	0.03
4.55	0.19	0.04
4.75	0.2	0.04
4.96	0.22	0.05
5.18	0.24	0.05
5.4	0.27	0.06
5.64	0.29	0.06
5.89	0.33	0.07
6.14	0.36	0.07
6.41	0.4	0.08
6.69	0.45	0.09
6.98	0.5	0.1
7.29	0.57	0.12
7.61	0.64	0.13
7.94	0.73	0.15
8.29	0.83	0.17
8.65	0.95	0.19
9.03	1.08	0.22
9.42	1.24	0.25
9.84	1.43	0.29
10.21	1.62	0.33
10.26	1.65	0.34
10.57	1.82	0.37
10.94	2.05	0.42
11.32	2.31	0.47
11.73	2.61	0.53
12.13	2.95	0.6
12.57	3.35	0.68
13	3.79	0.77
13.46	4.32	0.88
13.93	4.77	0.97
14.42	5.37	1.09
14.93	6.04	1.23
15.46	6.78	1.38
16.01	7.61	1.55
16.57	8.52	1.73
17.16	9.51	1.93
17.76	10.59	2.15
18.38	11.77	2.39
19.02	13.05	2.65
19.69	14.43	2.93
20.37	15.9	0.65
20.89	17.06	0.7
21.59	18.66	0.76
22.32	20.37	0.83
23.08	22.18	0.91
23.86	24.06	0.98
24.67	26.11	1.07
25.51	28.23	1.15
26.37	30.45	1.24
27.27	32.78	1.34
28.19	35.22	1.43
29.14	37.74	1.54
30.12	40.38	1.64
31.14	43.06	1.75
32.19	45.87	1.87
33.28	48.78	1.98
34.41	51.81	2.11
35.58	54.95	2.23
36.78	58.22	2.37
38.03	61.56	2.5
39.32	64.99	2.64
40.64	68.54	2.79
42.18	72.64	2.95
43.82	76.99	3.13
45.52	81.59	3.32
47.29	86.41	3.51
49.13	91.45	3.72
51.04	96.64	3.93
53.03	102.01	4.15
55.09	107.66	4.37
57.23	113.57	4.61
59.45	119.87	4.87
61.76	126.28	5.13
64.16	132.83	5.4
66.66	139.64	5.67
69.25	146.93	5.97
71.94	154.5	6.28
74.74	162.36	6.6
77.65	170.69	6.93
80.67	179.35	7.29
83.81	188.14	7.64
87.08	197.01	8
90.47	206.14	8.37
94	215.62	8.76
97.66	225.3	9.15
101.5	235.4	9.57
104.39	242.78	9.86
109.07	254.51	10.34
113.76	265.71	10.8
118.44	276.72	11.24
123.12	287.25	11.67
127.81	297.15	12.07
132.49	307.17	12.48
137.18	316.2	12.85
141.86	325.34	13.22
146.54	334.04	13.57
151.23	342.38	13.91
155.91	350.3	14.23
160.59	357.25	14.51
165.27	364.47	14.81
169.95	370.97	15.07
174.63	377.77	15.35
179.32	384.06	15.6
184	390.71	15.87
188.68	396.72	16.12
193.35	401.65	16.32
198.03	407.09	16.54
202.72	412.61	16.76
207.39	417.83	16.97
212.06	422.24	17.15
216.74	425.6	17.29
221.42	429.67	17.45
226.1	433.59	17.61
230.78	437.35	17.77
235.45	440.43	17.89
240.13	443.41	18.01
244.81	446.32	18.13
249.49	449.69	18.27
254.18	452.5	18.38
258.85	455.08	18.49
263.53	457.57	18.59
268.2	459.52	18.67
272.88	461.49	18.75
277.55	462.96	21.47
282.22	465.59	21.59
286.89	467.79	21.69
291.56	468.66	21.73
296.24	469.03	21.75
301.03	469.63	21.78
306.32	470.61	21.82
311.25	472.08	21.89
316.2	475.23	22.04
321.19	483.84	22.44

System: lithium compound with tin (Li17Sn4); phases: Crystal
Fixed: Pressure, kPa = 101.325
Property: Molar heat capacity at constant pressure, J/K/mol (Crystal); method: DSC
Temperature, K	Molar heat capacity at constant pressure, J/K/mol	uncertainty
298.48	475.12	19.3
308.37	479.42	19.47
318.27	489.79	19.9
328.16	489.08	19.87
338.05	494.48	20.09
347.94	502.77	20.42
357.83	508.39	20.65
367.73	511.2	20.77
377.62	514.05	20.88
387.51	519.84	21.12
397.4	519.52	21.1
407.29	526.37	21.38
417.18	529.35	21.5
427.08	531.14	21.58
436.97	532.97	21.65
446.86	537.9	21.85
456.76	535.98	21.77
466.65	543.53	22.08
476.54	545.08	22.14
486.44	546.21	22.19
496.33	552.08	22.43
506.22	555.43	22.56
516.11	557.55	22.65
526	558.69	22.69
535.9	559.89	22.74
545.79	562.97	22.87
555.68	563.43	22.89
565.57	568.72	23.1
575.46	570.67	23.18
585.35	576.75	23.43
595.25	578.4	23.49
605.14	576.88	23.43
615.04	565.65	22.98
624.92	577.93	23.48
634.81	588.7	23.91
644.7	591.74	24.04
654.6	592.74	24.08
664.49	598.77	24.32
674.38	598.16	24.3
684.27	608.1	24.7
694.16	613.09	24.9
704.05	612.66	24.89
713.94	620.66	25.21
723.83	625.28	25.4
733.72	627.72	25.5
743.61	635.15	25.8
753.5	637.27	25.89
763.39	639.47	25.98
773.28	646.65	26.27
783.16	649.1	26.37
793.05	655.68	26.63
802.94	651.8	26.48
812.83	651.18	26.45
822.72	659.92	26.81
832.61	665.31	27.03
842.5	668.98	27.17
852.39	668.49	27.15
862.28	677.56	27.52

System: lithium compound with tin (Li7Sn2); phases: Crystal, Liquid, Air at 1 atmosphere
Property: Normal melting temperature, K (Crystal); method: DTA
Normal melting temperature, K	uncertainty
1050	5

System: lithium compound with tin (Li7Sn2); phases: Crystal, Liquid, Air at 1 atmosphere
Property: Molar enthalpy of transition or fusion, kJ/mol (Crystal); method: DSC
Molar enthalpy of transition or fusion, kJ/mol	uncertainty
67.5	2.7

System: lithium compound with tin (Li7Sn2); phases: Crystal
Fixed: Pressure, kPa = 101.325
Property: Molar heat capacity at constant pressure, J/K/mol (Crystal); method: RELAXCAL
Temperature, K	Molar heat capacity at constant pressure, J/K/mol	uncertainty
5	0.0837	0.0171
10	0.8442	0.1719
15	3.366	0.684
20	8.154	1.656
25	14.049	0.567
30	20.304	0.828
40	32.679	1.332
50	44.469	1.809
60	56.457	2.295
70	68.868	2.799
80	80.955	3.285
90	92.421	3.753
100	103.122	4.185
110	113.022	4.59
120	122.112	4.959
130	130.41	5.301
140	137.952	5.607
150	144.783	5.877
160	150.948	6.129
170	156.51	6.354
180	161.514	6.561
190	166.023	6.741
200	170.091	6.912
210	173.781	7.056
220	177.147	7.2
230	180.261	7.326
240	183.177	7.443
250	185.958	7.551
260	188.658	7.659
270	191.349	7.776
280	194.085	9
290	196.929	9.135
298.15	199.377	9.243
300	199.953	9.27
310	203.22	9.423
320	206.19	8.379
330	208.926	8.487
340	211.464	8.586
350	213.822	8.685
360	216.027	8.775
370	218.097	8.856
380	220.059	8.937
390	221.922	9.018
400	223.704	9.09
410	225.405	9.153
420	227.043	9.225
430	228.627	9.288
440	230.166	9.351
450	231.669	9.414
460	233.136	9.468
470	234.576	9.531
480	235.998	9.585
490	237.402	9.639
500	238.788	9.702
510	240.174	9.756
520	241.551	9.81
530	242.928	9.864
540	244.305	9.927
550	245.682	9.981
560	247.068	10.035
570	248.463	10.089
580	249.858	10.152
590	251.28	10.206
600	252.702	10.269
610	254.142	10.323
620	255.609	10.386
630	257.085	10.44
640	258.579	10.503
650	260.091	10.566
660	261.621	10.629
670	263.178	10.692
680	264.762	10.755
690	266.364	10.818
700	267.993	10.89
710	269.64	10.953
720	271.314	11.025
730	273.024	11.088
740	274.752	11.16
750	276.507	11.232
760	278.289	11.304
770	280.098	11.376
780	281.943	11.457
790	283.815	11.529
800	285.714	11.61
810	287.64	11.682
820	289.602	11.763
830	291.582	11.844
840	293.607	11.925
850	295.659	12.006
860	297.738	12.096
865	298.791	12.141

System: lithium compound with tin (Li7Sn2); phases: Crystal
Fixed: Pressure, kPa = 101.325
Property: Molar entropy, J/K/mol (Crystal); method: RELAXCAL
Temperature, K	Molar entropy, J/K/mol	uncertainty
5	0.0315	0.0099
10	0.252	0.0765
15	0.9846	0.2997
20	2.5641	0.7812
25	5.0067	0.3051
30	8.1216	0.495
40	15.669	0.954
50	24.237	1.476
60	33.39	2.034
70	43.02	2.619
80	53.01	3.231
90	63.216	3.852
100	73.512	4.482
110	83.817	5.103
120	94.041	5.733
130	104.148	6.345
140	114.093	6.948
150	123.849	7.542
160	133.398	8.127
170	142.713	8.694
180	151.803	9.252
190	160.659	9.792
200	169.281	10.314
210	177.669	10.827
220	185.832	11.322
230	193.779	11.808
240	201.51	12.276
250	209.043	12.735
260	216.396	13.185
270	223.56	13.626
280	230.571	16.038
290	237.429	16.515
298.15	242.919	16.893
300	244.161	16.983
310	250.767	17.442
320	257.265	15.678
330	263.655	16.065
340	269.928	16.443
350	276.093	16.821
360	282.15	17.19
370	288.099	17.55
380	293.94	17.91
390	299.682	18.261
400	305.325	18.603
410	310.869	18.945
420	316.314	19.269
430	321.678	19.602
440	326.952	19.917
450	332.145	20.241
460	337.248	20.547
470	342.279	20.853
480	347.229	21.159
490	352.116	21.456
500	356.922	21.744
510	361.665	22.032
520	366.345	22.32
530	370.953	22.599
540	375.507	22.878
550	380.007	23.157
560	384.444	23.427
570	388.827	23.688
580	393.165	23.958
590	397.449	24.219
600	401.679	24.471
610	405.873	24.732
620	410.013	24.984
630	414.117	25.236
640	418.176	25.479
650	422.199	25.722
660	426.177	25.965
670	430.128	26.208
680	434.034	26.442
690	437.913	26.685
700	441.756	26.919
710	445.572	27.153
720	449.352	27.378
730	453.105	27.612
740	456.831	27.837
750	460.53	28.062
760	464.211	28.287
770	467.856	28.503
780	471.483	28.728
790	475.083	28.944
800	478.665	29.169
810	482.229	29.385
820	485.775	29.601
830	489.294	29.817
840	492.795	30.024
850	496.287	30.24
860	499.752	30.447
865	501.48	30.555

System: lithium compound with tin (Li7Sn2); phases: Crystal
Fixed: Pressure, kPa = 101.325
Property: Molar enthalpy function {Hm(T)-Hm(0)}/T, J/K/mol (Crystal); method: RELAXCAL
Temperature, K	Molar enthalpy function {Hm(T)-Hm(0)}/T, J/K/mol	uncertainty
5	0.0216	0.0045
10	0.1899	0.0387
15	0.7569	0.1539
20	1.9746	0.4014
25	3.7908	0.1539
30	6.0219	0.2448
40	11.151	0.45
50	16.641	0.675
60	22.266	0.909
70	28.035	1.143
80	33.903	1.377
90	39.771	1.62
100	45.576	1.854
110	51.264	2.079
120	56.799	2.304
130	62.145	2.52
140	67.293	2.736
150	72.234	2.934
160	76.968	3.123
170	81.486	3.312
180	85.797	3.483
190	89.901	3.654
200	93.807	3.807
210	97.533	3.96
220	101.07	4.104
230	104.454	4.239
240	107.667	4.374
250	110.745	4.5
260	113.688	4.617
270	116.514	4.734
280	119.241	5.526
290	121.869	5.652
298.15	123.957	5.751
300	124.416	5.769
310	126.909	5.886
320	129.339	5.256
330	131.715	5.346
340	134.019	5.445
350	136.269	5.535
360	138.456	5.625
370	140.58	5.706
380	142.641	5.796
390	144.657	5.877
400	146.61	5.958
410	148.509	6.03
420	150.363	6.111
430	152.163	6.183
440	153.918	6.255
450	155.628	6.318
460	157.293	6.39
470	158.922	6.453
480	160.515	6.516
490	162.072	6.579
500	163.593	6.642
510	165.078	6.705
520	166.536	6.768
530	167.967	6.822
540	169.362	6.876
550	170.739	6.939
560	172.089	6.993
570	173.421	7.047
580	174.726	7.101
590	176.013	7.146
600	177.273	7.2
610	178.524	7.254
620	179.757	7.299
630	180.972	7.353
640	182.169	7.398
650	183.357	7.452
660	184.536	7.497
670	185.697	7.542
680	186.849	7.587
690	187.992	7.632
700	189.117	7.686
710	190.242	7.731
720	191.358	7.776
730	192.465	7.821
740	193.563	7.866
750	194.661	7.911
760	195.75	7.947
770	196.83	7.992
780	197.91	8.037
790	198.981	8.082
800	200.061	8.127
810	201.123	8.172
820	202.194	8.217
830	203.256	8.253
840	204.318	8.298
850	205.389	8.343
860	206.442	8.388
865	206.973	8.406

System: lithium compound with tin (Li7Sn2); phases: Crystal
Fixed: Pressure, kPa = 101.325
Property: Molar heat capacity at constant pressure, J/K/mol (Crystal); method: RELAXCAL
Temperature, K	Molar heat capacity at constant pressure, J/K/mol	uncertainty
1.94	0.009	0.002
2.04	0.01	0.002
2.15	0.011	0.002
2.26	0.012	0.003
2.35	0.013	0.003
2.44	0.014	0.003
2.56	0.015	0.003
2.67	0.016	0.003
2.78	0.018	0.004
2.91	0.019	0.004
3.02	0.021	0.004
3.16	0.023	0.005
3.3	0.025	0.005
3.45	0.028	0.006
3.6	0.031	0.006
3.75	0.034	0.007
3.92	0.039	0.008
4.08	0.043	0.009
4.26	0.048	0.01
4.45	0.055	0.011
4.64	0.062	0.013
4.85	0.071	0.014
5.06	0.081	0.016
5.28	0.092	0.019
5.51	0.11	0.02
5.75	0.12	0.03
6	0.14	0.03
6.25	0.16	0.03
6.5	0.19	0.04
6.76	0.21	0.04
7.04	0.25	0.05
7.35	0.29	0.06
7.67	0.33	0.07
8.01	0.39	0.08
8.36	0.45	0.09
8.72	0.52	0.11
9.1	0.61	0.12
9.51	0.71	0.14
9.94	0.83	0.17
10.31	0.94	0.19
10.33	0.95	0.19
11.07	1.2	0.24
11.86	1.53	0.31
12.68	1.94	0.39
13.55	2.43	0.49
14.52	3.06	0.62
15.54	3.83	0.78
16.69	4.79	0.97
17.87	5.9	1.2
19.12	7.17	1.46
20.52	8.7	0.36
21.03	9.33	0.38
22.12	10.48	0.43
23.26	11.89	0.49
24.51	13.5	0.55
25.8	15.11	0.62
27.11	16.77	0.68
28.62	18.5	0.75
30.1	20.6	0.84
31.69	22.32	0.91
33.36	24.43	0.99
35.01	26.73	1.09
36.83	28.97	1.18
38.78	31.27	1.27
40.78	33.69	1.37
42.32	35.49	1.44
44.88	38.45	1.56
47.56	41.66	1.69
50.41	45	1.83
53.42	48.48	1.97
56.64	52.18	2.12
60.05	56.12	2.28
63.66	60.31	2.45
67.48	64.83	2.63
71.54	69.56	2.83
75.86	74.58	3.03
80.42	79.97	3.25
85.28	85.65	3.48
90.4	91.81	3.73
95.85	98.73	4.01
101.66	105.03	4.27
104.59	107.76	4.38
109.48	112.74	4.58
114.32	117.3	4.77
119.24	121.85	4.95
124.16	126.3	5.13
129.08	130.33	5.29
134.01	133.99	5.44
138.93	137.46	5.58
143.85	140.81	5.72
148.77	144.18	5.86
153.69	147.32	5.98
158.61	150.28	6.1
163.53	153.11	6.22
168.45	155.81	6.33
173.38	158.49	6.44
178.3	161.09	6.54
183.23	163.52	6.64
188.15	165.83	6.74
193.06	167.77	6.81
197.98	169.77	6.9
202.89	171.6	6.97
207.81	173.5	7.05
212.73	175.25	7.12
217.64	176.72	7.18
222.56	178.42	7.25
227.49	179.8	7.3
232.4	180.8	7.34
237.31	182.09	7.4
242.23	183.22	7.44
247.15	184.25	7.48
252.07	185.55	7.54
256.99	186.37	7.57
261.9	186.88	7.59
266.81	187.47	7.62
271.74	188.14	7.64
276.66	188.77	8.75
281.57	189.33	8.78
286.48	190.02	8.81
291.4	190.17	8.82
296.32	190	8.8
301.26	190.4	8.8

System: lithium compound with tin (Li7Sn2); phases: Crystal
Fixed: Pressure, kPa = 101.325
Property: Molar heat capacity at constant pressure, J/K/mol (Crystal); method: DSC
Temperature, K	Molar heat capacity at constant pressure, J/K/mol	uncertainty
298.48	198.2	8.05
308.37	203.32	8.26
318.27	207.67	8.44
328.16	209.34	8.5
338.05	213.88	8.69
347.94	216.15	8.78
357.84	217.6	8.84
367.73	219.66	8.92
377.62	221.62	9
387.51	224.54	9.12
397.4	225.71	9.17
407.29	226.8	9.21
417.18	227.19	9.23
427.07	228.32	9.27
436.97	230.5	9.36
446.86	232.38	9.44
456.75	231.98	9.42
466.65	233.58	9.49
476.54	234.01	9.51
486.43	235.08	9.55
496.32	236.57	9.61
506.22	238.84	9.7
516.11	239.29	9.72
526	240.34	9.76
535.89	242.37	9.85
545.78	244.7	9.94
555.68	243.97	9.91
565.57	246.15	10
575.46	245.36	9.97
585.35	249.38	10.13
595.24	250.78	10.19
605.14	251.78	10.23
615.03	252.25	10.25
624.92	254.54	10.34
634.81	256.75	10.43
644.7	258.99	10.52
654.59	262.07	10.65
664.49	262.38	10.66
674.38	263.63	10.71
684.26	266.05	10.81
694.15	268.28	10.9
704.04	268.21	10.89
713.93	272.48	11.07
723.82	275.52	11.19
733.71	276.73	11.24
743.6	277.91	11.29
753.49	280.42	11.39
763.38	280.42	11.39
773.27	285.75	11.61
783.16	288.61	11.72
793.04	289.02	11.74
802.93	286.19	11.63
812.82	286.95	11.66
822.7	290.98	11.82
832.58	289.38	11.75
842.46	290.86	11.81
852.42	291.18	11.83
862.31	292.95	11.9

System: lithium compound with tin (Li13Sn5); phases: Crystal, Liquid, Air at 1 atmosphere
Property: Normal melting temperature, K (Crystal); method: DTA
Normal melting temperature, K	uncertainty
996	5

System: lithium compound with tin (Li13Sn5); phases: Crystal, Liquid, Air at 1 atmosphere
Property: Molar enthalpy of transition or fusion, kJ/mol (Crystal); method: DSC
Molar enthalpy of transition or fusion, kJ/mol	uncertainty
172.8	5.4

System: lithium compound with tin (Li13Sn5); phases: Crystal
Fixed: Pressure, kPa = 101.325
Property: Molar heat capacity at constant pressure, J/K/mol (Crystal); method: RELAXCAL
Temperature, K	Molar heat capacity at constant pressure, J/K/mol	uncertainty
5	0.1638	0.0342
10	2.0358	0.414
15	8.874	1.8
20	20.754	4.212
25	34.218	1.386
30	47.88	1.944
40	73.116	2.97
50	96.552	3.924
60	120.06	4.878
70	144.936	5.886
80	169.362	6.876
90	192.726	7.83
100	214.776	8.73
110	235.386	9.558
120	254.556	10.332
130	272.286	11.052
140	288.594	11.718
150	303.57	12.33
160	317.286	12.888
170	329.778	13.392
180	341.154	13.86
190	351.486	14.274
200	360.864	14.652
210	369.378	15.012
220	377.1	15.318
230	384.12	15.606
240	390.546	15.858
250	396.45	16.11
260	401.922	16.326
270	407.052	16.542
280	411.93	19.098
290	416.664	19.314
298.15	420.462	19.494
300	421.308	19.53
310	425.79	19.746
320	430.182	17.478
330	434.466	17.64
340	438.642	17.82
350	442.71	17.982
360	446.706	18.144
370	450.612	18.306
380	454.446	18.468
390	458.226	18.612
400	461.934	18.756
410	465.606	18.918
420	469.224	19.062
430	472.788	19.206
440	476.316	19.35
450	479.808	19.494
460	483.264	19.638
470	486.684	19.764
480	490.068	19.908
490	493.434	20.052
500	496.764	20.178
510	500.076	20.322
520	503.352	20.448
530	506.61	20.574
540	509.868	20.718
550	513.072	20.844
560	516.276	20.97
570	519.462	21.096
580	522.63	21.222
590	525.78	21.366
600	528.912	21.492
610	532.026	21.618
620	535.122	21.744
630	538.218	21.87
640	541.278	21.978
650	544.338	22.104
660	547.398	22.23
670	550.422	22.356
680	553.446	22.482
690	556.452	22.608
700	559.458	22.734
710	562.446	22.842
720	565.416	22.968
730	568.386	23.094
740	571.338	23.202
750	574.29	23.328
760	577.224	23.454
770	580.158	23.562
780	583.074	23.688
790	585.972	23.796
800	588.87	23.922
810	591.768	24.03
820	594.648	24.156
830	597.51	24.264
840	600.372	24.39
850	603.234	24.498
860	606.078	24.624
865	607.482	24.678

System: lithium compound with tin (Li13Sn5); phases: Crystal
Fixed: Pressure, kPa = 101.325
Property: Molar entropy, J/K/mol (Crystal); method: RELAXCAL
Temperature, K	Molar entropy, J/K/mol	uncertainty
5	0.099	0.0306
10	0.621	0.189
15	2.4534	0.747
20	6.561	1.9998
25	12.6216	0.7704
30	20.07	1.224
40	37.332	2.268
50	56.196	3.42
60	75.798	4.626
70	96.174	5.868
80	117.126	7.128
90	138.438	8.442
100	159.894	9.738
110	181.35	11.052
120	202.662	12.348
130	223.74	13.626
140	244.53	14.904
150	264.96	16.146
160	284.994	17.37
170	304.614	18.558
180	323.784	19.728
190	342.504	20.862
200	360.774	21.978
210	378.594	23.076
220	395.964	24.12
230	412.884	25.164
240	429.372	26.154
250	445.428	27.144
260	461.088	28.098
270	476.352	29.016
280	491.256	34.164
290	505.782	35.172
298.15	517.392	35.982
300	519.984	36.162
310	533.88	37.134
320	547.47	33.354
330	560.772	34.164
340	573.804	34.956
350	586.566	35.748
360	599.094	36.504
370	611.388	37.26
380	623.466	37.98
390	635.31	38.718
400	646.956	39.42
410	658.422	40.122
420	669.672	40.806
430	680.76	41.472
440	691.668	42.138
450	702.414	42.804
460	712.998	43.452
470	723.42	44.082
480	733.716	44.712
490	743.85	45.324
500	753.858	45.936
510	763.722	46.53
520	773.46	47.124
530	783.09	47.718
540	792.576	48.294
550	801.972	48.87
560	811.242	49.428
570	820.404	49.986
580	829.476	50.544
590	838.44	51.084
600	847.296	51.624
610	856.062	52.164
620	864.738	52.686
630	873.324	53.208
640	881.82	53.73
650	890.244	54.234
660	898.578	54.756
670	906.822	55.26
680	915.012	55.746
690	923.112	56.25
700	931.14	56.736
710	939.096	57.222
720	946.98	57.708
730	954.792	58.176
740	962.55	58.644
750	970.236	59.112
760	977.868	59.58
770	985.428	60.048
780	992.934	60.498
790	1000.386	60.948
800	1007.766	61.398
810	1015.11	61.848
820	1022.382	62.298
830	1029.618	62.73
840	1036.782	63.18
850	1043.91	63.612
860	1050.984	64.044
865	1054.494	64.242

System: lithium compound with tin (Li13Sn5); phases: Crystal
Fixed: Pressure, kPa = 101.325
Property: Molar enthalpy function {Hm(T)-Hm(0)}/T, J/K/mol (Crystal); method: RELAXCAL
Temperature, K	Molar enthalpy function {Hm(T)-Hm(0)}/T, J/K/mol	uncertainty
5	0.0612	0.0126
10	0.4554	0.0918
15	1.8756	0.3816
20	5.0634	1.0278
25	9.5472	0.3888
30	14.778	0.594
40	26.244	1.062
50	37.98	1.548
60	49.644	2.016
70	61.47	2.502
80	73.44	2.988
90	85.41	3.474
100	97.254	3.942
110	108.882	4.428
120	120.24	4.878
130	131.256	5.328
140	141.93	5.76
150	152.208	6.174
160	162.108	6.588
170	171.612	6.966
180	180.72	7.344
190	189.432	7.686
200	197.784	8.028
210	205.74	8.352
220	213.372	8.676
230	220.644	8.964
240	227.592	9.252
250	234.216	9.522
260	240.57	9.774
270	246.636	10.026
280	252.45	11.7
290	258.03	11.97
298.15	262.422	12.168
300	263.412	12.222
310	268.56	12.456
320	273.546	11.106
330	278.37	11.304
340	283.014	11.502
350	287.514	11.682
360	291.888	11.862
370	296.118	12.024
380	300.24	12.204
390	304.236	12.366
400	308.142	12.51
410	311.94	12.672
420	315.63	12.816
430	319.248	12.96
440	322.776	13.104
450	326.232	13.248
460	329.598	13.392
470	332.91	13.518
480	336.15	13.662
490	339.318	13.788
500	342.45	13.914
510	345.492	14.04
520	348.498	14.148
530	351.45	14.274
540	354.366	14.4
550	357.21	14.508
560	360.036	14.616
570	362.79	14.742
580	365.526	14.85
590	368.208	14.958
600	370.872	15.066
610	373.482	15.174
620	376.074	15.282
630	378.612	15.372
640	381.132	15.48
650	383.616	15.588
660	386.082	15.678
670	388.512	15.786
680	390.906	15.876
690	393.282	15.984
700	395.64	16.074
710	397.962	16.164
720	400.284	16.254
730	402.552	16.344
740	404.82	16.452
750	407.052	16.542
760	409.284	16.632
770	411.48	16.722
780	413.658	16.794
790	415.818	16.884
800	417.96	16.974
810	420.102	17.064
820	422.208	17.154
830	424.296	17.226
840	426.384	17.316
850	428.436	17.406
860	430.488	17.478
865	431.514	17.532

System: lithium compound with tin (Li13Sn5); phases: Crystal
Fixed: Pressure, kPa = 101.325
Property: Molar heat capacity at constant pressure, J/K/mol (Crystal); method: RELAXCAL
Temperature, K	Molar heat capacity at constant pressure, J/K/mol	uncertainty
1.93	0.027	0.006
2.02	0.029	0.006
2.11	0.031	0.006
2.2	0.033	0.007
2.3	0.036	0.007
2.4	0.039	0.008
2.5	0.042	0.009
2.61	0.046	0.009
2.73	0.05	0.01
2.85	0.054	0.011
2.97	0.06	0.012
3.1	0.065	0.013
3.23	0.072	0.015
3.37	0.079	0.016
3.52	0.087	0.018
3.67	0.096	0.02
3.83	0.11	0.02
4	0.12	0.03
4.18	0.13	0.03
4.36	0.15	0.03
4.55	0.16	0.03
4.75	0.18	0.04
4.96	0.2	0.04
5.18	0.23	0.05
5.41	0.26	0.05
5.64	0.29	0.06
5.89	0.33	0.07
6.15	0.37	0.08
6.42	0.43	0.09
6.7	0.49	0.1
6.99	0.56	0.11
7.3	0.65	0.13
7.62	0.75	0.15
7.95	0.87	0.18
8.3	1.02	0.21
8.66	1.19	0.24
9.03	1.39	0.28
9.43	1.63	0.33
9.85	1.92	0.39
10.22	2.21	0.45
10.27	2.26	0.46
10.58	2.52	0.51
10.95	2.87	0.58
11.34	3.28	0.67
11.73	3.73	0.76
12.15	4.24	0.86
12.57	4.82	0.98
13.02	5.47	1.11
13.47	6.2	1.26
13.95	6.99	1.42
14.44	7.88	1.6
14.95	8.85	1.8
15.48	9.93	2.02
16.02	11.08	2.25
16.59	12.34	2.51
17.17	13.69	2.78
17.77	15.12	3.07
18.4	16.66	3.38
19.04	18.31	3.72
19.71	20.05	4.07
20.39	21.87	0.89
20.91	23.28	0.95
21.62	25.2	1.03
22.35	27.2	1.11
23.11	29.27	1.19
23.89	31.39	1.28
24.7	33.66	1.37
25.54	35.99	1.47
26.4	38.38	1.56
27.3	40.81	1.66
28.22	43.35	1.76
29.17	45.92	1.87
30.16	48.54	1.97
31.18	51.2	2.08
32.23	53.9	2.19
33.33	56.7	2.31
34.46	59.57	2.42
35.62	62.54	2.54
36.83	65.54	2.66
38.08	68.54	2.79
39.37	71.65	2.91
40.7	74.82	3.04
42.23	78.38	3.19
43.88	82.23	3.34
45.58	86.2	3.5
47.36	90.37	3.67
49.2	94.71	3.85
51.11	99.13	4.03
53.1	103.69	4.21
55.17	108.48	4.41
57.31	113.48	4.61
59.53	118.72	4.82
61.85	124.16	5.04
64.25	129.6	5.27
66.75	135.32	5.5
69.35	141.42	5.75
72.05	147.72	6
74.85	154.37	6.27
77.77	161.4	6.56
80.79	168.67	6.85
83.94	176.04	7.15
87.2	183.45	7.45
90.6	191.09	7.76
94.13	199.09	8.09
97.8	207.15	8.41
101.6	215.57	8.76
104.54	221.81	9.01
109.23	231.65	9.41
113.92	241.16	9.8
118.61	250.27	10.17
123.3	259.09	10.53
127.99	267.72	10.88
132.68	275.78	11.2
137.36	283.43	11.51
142.05	290.92	11.82
146.74	298.15	12.11
151.44	305.33	12.4
156.12	311.63	12.66
160.81	317.51	12.9
165.49	323.6	13.15
170.18	329.26	13.38
174.86	334.63	13.59
179.54	340.16	13.82
184.24	345.06	14.02
188.92	350	14.22
193.6	354.76	14.41
198.28	359.3	14.6
202.97	363.97	14.78
207.65	368.01	14.95
212.33	371.93	15.11
217.01	374.49	15.21
221.69	378.12	15.36
226.38	381.49	15.5
231.06	384.75	15.63
235.74	387.96	15.76
240.42	390.82	15.88
245.12	393.89	16
249.81	396.71	16.11
254.49	399.84	16.24
259.17	401.74	16.32
263.85	403.67	16.4
268.53	405.58	16.47
273.22	407.23	16.54
277.89	409.36	18.98
282.57	412.05	19.11
287.25	414.39	19.21
296.62	416.1	19.29
291.93	416.12	19.29
301.43	417.5	19.36

System: lithium compound with tin (Li13Sn5); phases: Crystal
Fixed: Pressure, kPa = 101.325
Property: Molar heat capacity at constant pressure, J/K/mol (Crystal); method: DSC
Temperature, K	Molar heat capacity at constant pressure, J/K/mol	uncertainty
298.47	413.46	16.8
308.37	421.78	17.13
318.26	431.65	17.53
328.16	432.42	17.57
338.05	442.05	17.96
347.94	446.51	18.14
357.83	449.35	18.25
367.73	453.02	18.4
377.62	456.47	18.54
387.51	462.57	18.79
397.4	467.11	18.97
407.29	468.79	19.04
417.18	473.53	19.23
427.07	472.43	19.19
436.96	477.27	19.39
446.85	475.25	19.3
456.75	480.49	19.52
466.64	483.28	19.63
476.53	484.06	19.66
486.42	489.78	19.9
496.32	489.97	19.9
506.21	495	20.11
516.1	497.18	20.2
525.99	501.29	20.36
535.88	503.57	20.46
545.78	505.13	20.52
555.67	510.75	20.75
565.56	512.09	20.8
575.45	517.07	21
585.34	523	21.24
595.23	522.49	21.22
605.13	521.48	21.18
615.02	520.28	21.13
624.91	529.13	21.49
634.8	539.6	21.92
644.69	535.37	21.75
654.59	545.2	22.15
664.48	545.42	22.16
674.37	551.1	22.39
684.26	555.48	22.56
694.15	554.36	22.52
704.04	554.4	22.52
713.93	564.76	22.94
723.82	567.7	23.06
733.71	572.99	23.28
743.6	577.4	23.45
753.49	582.26	23.65
763.38	579.37	23.53
773.27	588.5	23.91
783.15	594.92	24.17
793.04	593.18	24.1
802.93	590.11	23.97
812.82	592.85	24.08
822.71	597.93	24.29
832.59	603.63	24.52
842.48	599.93	24.37
852.36	600.3	24.38
862.24	598.95	24.33

System: lithium compound with tin (Li7Sn3); phases: Crystal
Fixed: Pressure, kPa = 101.325
Property: Molar heat capacity at constant pressure, J/K/mol (Crystal); method: RELAXCAL
Temperature, K	Molar heat capacity at constant pressure, J/K/mol	uncertainty
5	0.134	0.028
10	1.385	0.282
15	5.78	1.17
20	12.75	2.59
25	20.58	0.84
30	28.49	1.16
40	43.5	1.77
50	57.41	2.33
60	71.15	2.89
70	84.9	3.45
80	98.28	3.99
90	111.07	4.51
100	123.19	5
110	134.59	5.47
120	145.28	5.9
130	155.25	6.31
140	164.53	6.68
150	173.13	7.03
160	181.07	7.36
170	188.4	7.65
180	195.13	7.93
190	201.29	8.18
200	206.92	8.41
210	212.05	8.61
220	216.72	8.8
230	220.94	8.97
240	224.76	9.13
250	228.21	9.27
260	231.31	9.4
270	234.11	9.51
280	236.64	10.97
290	238.93	11.08
298.15	240.64	11.16
300	241.01	11.18
310	243.2	11.28
320	244.94	9.95
330	246.52	10.01
340	247.95	10.07
350	249.27	10.13
360	250.49	10.17
370	251.64	10.22
380	252.73	10.27
390	253.77	10.31
400	254.78	10.35
410	255.78	10.39
420	256.76	10.43
430	257.74	10.47
440	258.72	10.51
450	259.72	10.55
460	260.73	10.59
470	261.78	10.63
480	262.85	10.68
490	263.95	10.72
500	265.09	10.77
510	266.27	10.82
520	267.5	10.87
530	268.78	10.92
540	270.1	10.97
550	271.48	11.03
560	272.91	11.09
570	274.4	11.15
580	275.95	11.21
590	277.56	11.27
600	279.23	11.34
610	280.97	11.41
620	282.77	11.49
630	284.63	11.56
640	286.57	11.64
650	288.57	11.72

System: lithium compound with tin (Li7Sn3); phases: Crystal
Fixed: Pressure, kPa = 101.325
Property: Molar entropy, J/K/mol (Crystal); method: RELAXCAL
Temperature, K	Molar entropy, J/K/mol	uncertainty
5	0.047	0.014
10	0.408	0.124
15	1.678	0.511
20	4.263	1.299
25	7.938	0.484
30	12.43	0.76
40	22.67	1.38
50	33.89	2.07
60	45.57	2.78
70	57.58	3.51
80	69.79	4.25
90	82.11	5
100	94.45	5.75
110	106.73	6.5
120	118.9	7.24
130	130.93	7.98
140	142.78	8.7
150	154.43	9.41
160	165.86	10.11
170	177.06	10.79
180	188.02	11.46
190	198.74	12.11
200	209.21	12.75
210	219.43	13.37
220	229.4	13.98
230	239.13	14.57
240	248.62	15.15
250	257.86	15.71
260	266.88	16.26
270	275.66	16.8
280	284.22	19.77
290	292.56	20.35
298.15	299.21	20.81
300	300.7	20.91
310	308.64	21.47
320	316.39	19.28
330	323.95	19.74
340	331.33	20.19
350	338.54	20.63
360	345.58	21.06
370	352.46	21.48
380	359.19	21.89
390	365.76	22.29
400	372.2	22.68
410	378.51	23.06
420	384.68	23.44
430	390.73	23.81
440	396.67	24.17
450	402.5	24.52
460	408.21	24.87
470	413.83	25.21
480	419.36	25.55
490	424.79	25.88
500	430.13	26.21
510	435.39	26.53
520	440.57	26.84
530	445.68	27.16
540	450.72	27.46
550	455.69	27.77
560	460.59	28.06
570	465.43	28.36
580	470.22	28.65
590	474.95	28.94
600	479.63	29.22
610	484.26	29.51
620	488.84	29.79
630	493.38	30.06
640	497.88	30.34
650	502.34	30.61

System: lithium compound with tin (Li7Sn3); phases: Crystal
Fixed: Pressure, kPa = 101.325
Property: Molar enthalpy function {Hm(T)-Hm(0)}/T, J/K/mol (Crystal); method: RELAXCAL
Temperature, K	Molar enthalpy function {Hm(T)-Hm(0)}/T, J/K/mol	uncertainty
5	0.034	0.007
10	0.311	0.063
15	1.3	0.264
20	3.262	0.663
25	5.932	0.241
30	9.04	0.37
40	15.8	0.64
50	22.75	0.92
60	29.67	1.21
70	36.58	1.49
80	43.46	1.77
90	50.27	2.04
100	56.96	2.31
110	63.5	2.58
120	69.88	2.84
130	76.07	3.09
140	82.06	3.33
150	87.85	3.57
160	93.43	3.8
170	98.8	4.01
180	103.97	4.22
190	108.93	4.42
200	113.69	4.62
210	118.26	4.8
220	122.63	4.98
230	126.81	5.15
240	130.81	5.31
250	134.64	5.47
260	138.3	5.62
270	141.8	5.76
280	145.14	6.73
290	148.34	6.88
298.15	150.84	6.99
300	151.39	7.02
310	154.32	7.16
320	157.13	6.38
330	159.81	6.49
340	162.39	6.6
350	164.85	6.7
360	167.21	6.79
370	169.48	6.88
380	171.65	6.97
390	173.75	7.06
400	175.76	7.14
410	177.7	7.22
420	179.57	7.29
430	181.38	7.37
440	183.12	7.44
450	184.81	7.51
460	186.45	7.57
470	188.04	7.64
480	189.59	7.7
490	191.1	7.76
500	192.57	7.82
510	194	7.88
520	195.4	7.94
530	196.77	7.99
540	198.12	8.05
550	199.44	8.1
560	200.74	8.15
570	202.02	8.21
580	203.28	8.26
590	204.53	8.31
600	205.76	8.36
610	206.98	8.41
620	208.18	8.46
630	209.38	8.51
640	210.57	8.55
650	211.76	8.6

System: lithium compound with tin (Li7Sn3); phases: Crystal
Fixed: Pressure, kPa = 101.325
Property: Molar heat capacity at constant pressure, J/K/mol (Crystal); method: RELAXCAL
Temperature, K	Molar heat capacity at constant pressure, J/K/mol	uncertainty
1.93	0.017	0.004
2.04	0.018	0.004
2.17	0.02	0.004
2.3	0.023	0.005
2.44	0.025	0.005
2.58	0.028	0.006
2.74	0.032	0.007
2.9	0.036	0.007
3.07	0.041	0.008
3.26	0.047	0.01
3.45	0.053	0.011
3.66	0.061	0.012
3.87	0.07	0.014
4.1	0.081	0.016
4.35	0.094	0.019
4.6	0.11	0.02
4.88	0.13	0.03
5.16	0.15	0.03
5.47	0.18	0.04
5.8	0.21	0.04
6.14	0.25	0.05
6.52	0.3	0.06
6.86	0.35	0.07
7.27	0.43	0.09
7.71	0.53	0.11
8.16	0.66	0.13
8.63	0.8	0.16
9.15	1	0.2
9.7	1.24	0.25
10.21	1.49	0.3
10.24	1.52	0.31
10.66	1.76	0.36
11.13	2.05	0.42
11.63	2.41	0.49
12.12	2.8	0.57
12.67	3.28	0.67
13.22	3.79	0.77
13.81	4.38	0.89
14.42	5.04	1.02
15.06	5.79	1.18
15.73	6.61	1.34
16.43	7.51	1.53
17.15	8.49	1.72
17.91	9.56	1.94
18.7	10.72	2.18
19.52	11.96	2.43
20.36	13.24	0.54
20.89	14.08	0.58
21.78	15.49	0.63
22.7	16.91	0.69
23.63	18.44	0.75
24.64	20.1	0.82
25.69	21.79	0.89
26.78	23.55	0.96
27.92	25.38	1.03
29.11	27.28	1.11
30.34	29.22	1.19
31.63	31.19	1.27
32.98	33.26	1.35
34.38	35.38	1.44
35.85	37.59	1.53
37.37	39.82	1.62
38.96	42.12	1.71
40.6	44.42	1.81
42.14	46.63	1.89
44.13	49.36	2.01
46.21	52.24	2.12
48.4	55.31	2.25
50.69	58.43	2.37
53.08	61.67	2.51
55.59	65.09	2.64
58.22	68.68	2.79
60.98	72.42	2.94
63.87	76.23	3.1
66.89	80.19	3.26
70.06	84.47	3.43
73.37	88.86	3.61
76.84	93.57	3.8
80.48	98.52	4
84.29	103.55	4.21
88.29	108.59	4.41
92.48	113.92	4.63
96.78	119.21	4.84
101.37	124.8	5.07
101.39	124.64	5.06
104.37	128.21	5.21
109.06	133.64	5.43
113.76	138.83	5.64
118.46	143.87	5.84
123.16	148.74	6.04
127.86	153.32	6.23
132.56	158.08	6.42
137.28	162.23	6.59
141.98	166.3	6.76
146.67	170.35	6.92
151.38	174.35	7.08
156.03	178.68	7.26
160.73	181.78	7.38
165.43	185.35	7.53
170.12	188.64	7.66
174.82	191.53	7.78
179.51	194.58	7.9
184.22	197.78	8.03
188.91	200.57	8.15
193.61	203.23	8.26
198.29	205.77	8.36
202.97	208.93	8.49
207.66	211	8.57
212.33	213.6	8.68
217.01	215.12	8.74
221.69	217.18	8.82
226.38	219.33	8.91
231.07	220.98	8.98
235.75	222.56	9.04
240.44	224.13	9.1
245.13	226.14	9.19
249.83	227.75	9.25
254.52	229.64	9.33
259.2	231.12	9.39
263.89	231.22	9.39
268.58	233.57	9.49
273.26	234.73	9.53
277.95	236.06	10.95
282.63	237.79	11.03
287.31	239.69	11.11
291.99	240.2	11.14
296.68	240.37	11.15
301.37	241.95	11.22
306.13	242.54	11.25

System: lithium compound with tin (Li7Sn3); phases: Crystal
Fixed: Pressure, kPa = 101.325
Property: Molar heat capacity at constant pressure, J/K/mol (Crystal); method: DSC
Temperature, K	Molar heat capacity at constant pressure, J/K/mol	uncertainty
298.47	237.38	9.64
308.37	238.34	9.68
318.26	242.95	9.87
328.16	245.82	9.99
338.05	248.36	10.09
347.94	250.27	10.17
357.83	249.94	10.15
367.73	252.2	10.24
377.62	253.28	10.29
387.51	255.34	10.37
397.4	255.23	10.37
407.29	256.21	10.41
417.18	258.37	10.5
427.07	256.5	10.42
436.96	259.54	10.54
446.85	260.4	10.58
456.75	261.87	10.64
466.64	264.1	10.73
476.53	266.95	10.84
486.42	262.06	10.64
496.32	265.3	10.78
506.21	268.56	10.91
516.1	266.74	10.84
525.99	267.51	10.87
535.88	268.96	10.93
545.78	268.01	10.89
555.67	271.5	11.03
565.56	274.55	11.15
575.45	273	11.09
585.34	270.7	11
595.23	275.54	11.19
605.13	275.56	11.19
615.02	281.41	11.43
624.91	284.66	11.56
634.8	282.59	11.48
644.69	293.53	11.92
654.59	295.3	12
664.48	294.92	11.98
674.37	303.4	12.32
684.26	307.38	12.49
694.15	314.91	12.79
704.04	321.07	13.04
713.93	326.51	13.26
723.82	331.38	13.46
733.71	337.59	13.71
743.6	346.06	14.06
753.49	351.87	14.29
763.38	362.3	14.72
