Measured thermophysical data. (Liquid + liquid) equilibria of (water + butyric acid + dibasic esters) ternary systems
Source: J. Chem. Thermodyn., 2007, 10.1016/j.jct.2006.07.002
Compound 1: butanoic acid, C4H8O2, InChI=1S/C4H8O2/c1-2-3-4(5)6/h2-3H2,1H3,(H,5,6), purity 99%
Compound 2: dimethyl 1,4-butanedioate, C6H10O4, InChI=1S/C6H10O4/c1-9-5(7)3-4-6(8)10-2/h3-4H2,1-2H3, purity 98%
Compound 3: dimethyl pentanedioate, C7H12O4, InChI=1S/C7H12O4/c1-10-6(8)4-3-5-7(9)11-2/h3-5H2,1-2H3, purity 99%
Compound 4: dimethyl 1,6-hexanedioate, C8H14O4, InChI=1S/C8H14O4/c1-11-7(9)5-3-4-6-8(10)12-2/h3-6H2,1-2H3, purity 99%
Compound 5: water, H2O, InChI=1S/H2O/h1H2

System: butanoic acid; phases: Liquid
Property: Refractive index (Na D-line) (Liquid); method: Standard Abbe refractometry
Temperature, K	Pressure, kPa	Refractive index (Na D-line)	uncertainty
293.15	101.325	1.3975	0.0007

System: butanoic acid; phases: Liquid, Gas
Property: Boiling temperature at pressure P, K (Liquid); method: Distillation
Pressure, kPa	Boiling temperature at pressure P, K	uncertainty
101.325	436.7	0.2

System: butanoic acid; phases: Liquid
Property: Mass density, kg/m3 (Liquid); method: VIBTUB:UFactor:8
Temperature, K	Pressure, kPa	Mass density, kg/m3	uncertainty
293.15	101.325	952.8	0.58

System: dimethyl 1,4-butanedioate; phases: Liquid
Property: Refractive index (Na D-line) (Liquid); method: Standard Abbe refractometry
Temperature, K	Pressure, kPa	Refractive index (Na D-line)	uncertainty
293.15	101.325	1.41969	0.00078

System: dimethyl 1,4-butanedioate; phases: Liquid, Gas
Property: Boiling temperature at pressure P, K (Liquid); method: Distillation
Pressure, kPa	Boiling temperature at pressure P, K	uncertainty
101.325	469.2	0.2

System: dimethyl 1,4-butanedioate; phases: Liquid
Property: Mass density, kg/m3 (Liquid); method: VIBTUB:UFactor:16
Temperature, K	Pressure, kPa	Mass density, kg/m3	uncertainty
293.15	101.325	1119.13	2.27

System: dimethyl pentanedioate; phases: Liquid
Property: Refractive index (Na D-line) (Liquid); method: Standard Abbe refractometry
Temperature, K	Pressure, kPa	Refractive index (Na D-line)	uncertainty
293.15	101.325	1.42454	0.0007

System: dimethyl pentanedioate; phases: Liquid, Gas
Property: Boiling temperature at pressure P, K (Liquid); method: Distillation
Pressure, kPa	Boiling temperature at pressure P, K	uncertainty
101.325	487.3	0.2

System: dimethyl pentanedioate; phases: Liquid
Property: Mass density, kg/m3 (Liquid); method: VIBTUB:UFactor:8
Temperature, K	Pressure, kPa	Mass density, kg/m3	uncertainty
293.15	101.325	1087.67	0.76

System: dimethyl 1,6-hexanedioate; phases: Liquid
Property: Refractive index (Na D-line) (Liquid); method: Standard Abbe refractometry
Temperature, K	Pressure, kPa	Refractive index (Na D-line)	uncertainty
293.15	101.325	1.42825	0.0007

System: dimethyl 1,6-hexanedioate; phases: Liquid, Gas
Property: Boiling temperature at pressure P, K (Liquid); method: Distillation
Pressure, kPa	Boiling temperature at pressure P, K	uncertainty
1.733	388	1

System: dimethyl 1,6-hexanedioate; phases: Liquid
Property: Mass density, kg/m3 (Liquid); method: VIBTUB:UFactor:8
Temperature, K	Pressure, kPa	Mass density, kg/m3	uncertainty
293.15	101.325	1061.72	0.67

System: dimethyl 1,4-butanedioate + water; phases: Liquid mixture 1, Liquid mixture 2
Fixed: Temperature, K = 298.15
Fixed: Pressure, kPa = 101
Property: Mass fraction of water (Liquid mixture 1); method: Titration method
Mass fraction of water	uncertainty
0.9709	0.0006
0.0448	0.0009

System: dimethyl pentanedioate + water; phases: Liquid mixture 1, Liquid mixture 2
Fixed: Temperature, K = 298.15
Fixed: Pressure, kPa = 101
Property: Mass fraction of water (Liquid mixture 1); method: Titration method
Mass fraction of water	uncertainty
0.9897	0.0002
0.0349	0.0007

System: dimethyl 1,6-hexanedioate + water; phases: Liquid mixture 1, Liquid mixture 2
Property: Mass fraction of water (Liquid mixture 1); method: Titration method
Temperature, K	Pressure, kPa	Mass fraction of water	uncertainty
298.15	101	0.9912	0.0002

System: butanoic acid + dimethyl pentanedioate + water; phases: Liquid mixture 1, Liquid mixture 2
Fixed: Pressure, kPa = 101
Fixed: Temperature, K = 298.15
Property: Mass fraction of butanoic acid (Liquid mixture 1); method: Titration method
Mass fraction of water	Mass fraction of butanoic acid	uncertainty
0.0349	0	0.0001
0.0944	0.1627	0.0065
0.1139	0.2158	0.0086
0.1397	0.2831	0.0113
0.1627	0.3366	0.0135
0.176	0.3684	0.0147
0.1868	0.3876	0.0155
0.2128	0.4297	0.0172
0.235	0.4561	0.0182
0.3474	0.5129	0.0195
0.4146	0.4917	0.0197
0.4996	0.4374	0.0175
0.5748	0.3775	0.0151
0.6482	0.3156	0.0126
0.7328	0.2423	0.0097
0.8022	0.1765	0.0071
0.8614	0.1182	0.0047
0.9897	0	0.0001

System: butanoic acid + dimethyl pentanedioate + water; phases: Liquid mixture 1, Liquid mixture 2
Fixed: Pressure, kPa = 101
Fixed: Temperature, K = 298.15
Property: Mass fraction of butanoic acid (Liquid mixture 1); method: CHROM:UFactor:2
Property: Mass fraction of water (Liquid mixture 2); method: CHROM:UFactor:2
Property: Mass fraction of butanoic acid (Liquid mixture 2); method: CHROM:UFactor:2
Mass fraction of water	Mass fraction of butanoic acid	uncertainty	Mass fraction of water	uncertainty	Mass fraction of butanoic acid	uncertainty
0.9619	0.0276	0.0006	0.0825	0.0017	0.1223	
0.9418	0.0455	0.0009	0.1161	0.0023	0.217	
0.9176	0.0686	0.0014	0.1608	0.0032	0.3302	
0.9063	0.0781	0.0016	0.1799	0.0036	0.3725	
0.8768	0.1048	0.0021	0.2253	0.0045	0.4487	
0.8672	0.1125	0.0023	0.2527	0.0051	0.4799	

System: butanoic acid + dimethyl 1,6-hexanedioate + water; phases: Liquid mixture 1, Liquid mixture 2
Fixed: Pressure, kPa = 101
Fixed: Temperature, K = 298.15
Property: Mass fraction of butanoic acid (Liquid mixture 1); method: Titration method
Mass fraction of water	Mass fraction of butanoic acid	uncertainty
0.0621	0.1105	0.0044
0.0791	0.1691	0.0068
0.0971	0.2274	0.0091
0.1148	0.2879	0.0115
0.1362	0.3466	0.0139
0.1495	0.3817	0.0153
0.1801	0.4505	0.018
0.1926	0.4776	0.0191
0.2484	0.5311	0.0188
0.3582	0.5367	0.0185
0.4233	0.5043	0.0198
0.4984	0.4511	0.018
0.5763	0.3861	0.0154
0.657	0.3164	0.0127
0.7381	0.245	0.0098
0.8108	0.1771	0.0071
0.8684	0.1203	0.0048
0.9413	0.049	0.002
0.9912	0	0.0001

System: butanoic acid + dimethyl 1,6-hexanedioate + water; phases: Liquid mixture 1, Liquid mixture 2
Fixed: Temperature, K = 298.15
Fixed: Pressure, kPa = 101
Property: Mass fraction of butanoic acid (Liquid mixture 1); method: CHROM:UFactor:2
Property: Mass fraction of water (Liquid mixture 2); method: CHROM:UFactor:2
Property: Mass fraction of butanoic acid (Liquid mixture 2); method: CHROM:UFactor:2
Mass fraction of water	Mass fraction of butanoic acid	uncertainty	Mass fraction of water	uncertainty	Mass fraction of butanoic acid	uncertainty
0.9644	0.0265	0.0005	0.0655	0.0013	0.1133	
0.9459	0.0446	0.0009	0.0991	0.002	0.2296	
0.9299	0.0601	0.0012	0.1325	0.0027	0.3398	
0.9022	0.0874	0.0017	0.1619	0.0032	0.4188	
0.8922	0.0969	0.0019	0.2004	0.004	0.4894	
0.8805	0.1084	0.0022	0.2389	0.0048	0.5245	

System: dimethyl 1,4-butanedioate + butanoic acid + water; phases: Liquid mixture 1, Liquid mixture 2
Fixed: Pressure, kPa = 101
Fixed: Temperature, K = 298.15
Property: Mass fraction of butanoic acid (Liquid mixture 1); method: Titration method
Mass fraction of water	Mass fraction of butanoic acid	uncertainty
0.0448	0	0.0001
0.0653	0.0459	0.0018
0.0964	0.1114	0.0045
0.1196	0.1625	0.0065
0.1449	0.2152	0.0086
0.1729	0.271	0.011
0.2213	0.3516	0.0141
0.2247	0.3681	0.0147
0.2617	0.4065	0.0163
0.2879	0.4252	0.017
0.3807	0.4511	0.018
0.4726	0.4155	0.0166
0.5513	0.3628	0.0145
0.632	0.3022	0.0121
0.7191	0.2312	0.0092
0.7816	0.1707	0.0068
0.8415	0.1153	0.0046
0.9709	0	0.0001

System: dimethyl 1,4-butanedioate + butanoic acid + water; phases: Liquid mixture 1, Liquid mixture 2
Fixed: Pressure, kPa = 101
Fixed: Temperature, K = 298.15
Property: Mass fraction of butanoic acid (Liquid mixture 1); method: CHROM:UFactor:2
Property: Mass fraction of water (Liquid mixture 2); method: CHROM:UFactor:2
Property: Mass fraction of butanoic acid (Liquid mixture 2); method: CHROM:UFactor:2
Mass fraction of water	Mass fraction of butanoic acid	uncertainty	Mass fraction of water	uncertainty	Mass fraction of butanoic acid	uncertainty
0.9439	0.0226	0.0005	0.0941	0.0019	0.1089	
0.9156	0.0473	0.0009	0.1403	0.0028	0.2049	
0.8929	0.0679	0.0014	0.1751	0.0035	0.2685	
0.8729	0.0872	0.0017	0.2178	0.0044	0.3425	
0.8604	0.0979	0.002	0.2418	0.0048	0.3839	
0.8456	0.1113	0.0022	0.3003	0.006	0.4275	
