Measured thermophysical data. (p, rho , T) properties and apparent molar volumes of CaCl2 in methanol at T=(298.15 to 398.15) K and pressures up to 40 MPa
Source: J. Chem. Thermodyn., 2006, 10.1016/j.jct.2005.05.003
Compound 1: methanol, CH4O, InChI=1S/CH4O/c1-2/h2H,1H3
Compound 2: calcium chloride, CaCl2, InChI=1S/Ca.2ClH/h;2*1H/q+2;;/p-2, purity 99.8%

System: methanol; phases: Liquid
Property: Mass density, kg/m3 (Liquid); method: Vibrating tube method
Temperature, K	Pressure, kPa	Mass density, kg/m3	uncertainty
298.26	235	785.98	0.49
298.26	5000	790.69	0.5
298.26	9999	795.4	0.51
298.26	15013	799.88	0.53
298.26	19987	804.1	0.54
298.26	25008	808.17	0.56
298.26	29997	812.04	0.57
298.26	34991	815.76	0.59
298.26	39981	819.34	0.61
323.22	270	762.14	0.48
323.22	4990	767.53	0.49
323.22	9984	772.87	0.5
323.22	14982	777.91	0.52
323.22	19989	782.69	0.54
323.22	24986	787.21	0.56
323.22	29995	791.53	0.58
323.22	34987	795.64	0.6
323.22	39993	799.6	0.62
348.25	366	737.29	0.46
348.25	4987	743.46	0.48
348.25	9986	749.65	0.5
348.25	14991	755.42	0.52
348.25	20004	760.84	0.54
348.25	25020	765.94	0.56
348.25	30013	770.76	0.59
348.25	34989	775.32	0.61
348.25	40000	779.7	0.64
373.26	534	710.55	0.45
373.26	4983	717.67	0.47
373.26	9990	724.99	0.49
373.26	14998	731.69	0.52
373.26	19985	737.88	0.54
373.26	24994	743.68	0.57
373.26	29997	749.13	0.6
373.26	35001	754.27	0.63
373.26	39996	759.14	0.65
398.28	934	680.93	0.44
398.28	4984	689	0.46
398.28	9998	697.91	0.49
398.28	14986	705.88	0.52
398.28	19987	713.16	0.55
398.28	24992	719.87	0.58
398.28	29991	726.11	0.61
398.28	35005	731.99	0.64
398.28	40004	737.47	0.68

System: methanol + calcium chloride; phases: Liquid
Property: Mass density, kg/m3 (Liquid); method: Vibrating tube method
Temperature, K	Pressure, kPa	Molality, mol/kg of calcium chloride	Mass density, kg/m3	uncertainty
298.27	184	2.39344	977.23	0.59
298.27	5004	2.39344	980.74	0.6
298.27	9983	2.39344	984.25	0.6
298.27	14989	2.39344	987.66	0.6
298.27	19998	2.39344	990.95	0.6
298.27	25001	2.39344	994.14	0.61
298.27	30011	2.39344	997.26	0.61
298.27	34980	2.39344	1000.22	0.61
298.27	39985	2.39344	1003.15	0.61
298.28	175	0.28529	814.28	0.51
298.28	179	0.65879	848.89	0.53
298.28	202	0.10819	797.82	0.5
298.28	4988	0.65879	853.15	0.53
298.28	5000	0.28529	818.77	0.52
298.28	5011	0.10819	802.48	0.51
298.28	9997	0.65879	857.39	0.54
298.28	10009	0.28529	823.22	0.53
298.28	10011	0.10819	807.08	0.52
298.28	14985	0.28529	827.41	0.54
298.28	15002	0.10819	811.44	0.53
298.28	15012	0.65879	861.47	0.55
298.28	19991	0.10819	815.57	0.55
298.28	20010	0.65879	865.31	0.56
298.28	20018	0.28529	831.46	0.55
298.28	24989	0.28529	835.29	0.56
298.28	24991	0.65879	868.99	0.57
298.28	24997	0.10819	819.63	0.56
298.28	29982	0.28529	838.98	0.58
298.28	29989	0.10819	823.45	0.58
298.28	29991	0.65879	872.56	0.57
298.28	34983	0.65879	875.99	0.58
298.28	34994	0.28529	842.53	0.59
298.28	35017	0.10819	827.11	0.59
298.28	39984	0.65879	879.31	0.59
298.28	39998	0.10819	830.67	0.61
298.28	40005	0.28529	845.94	0.6
323.22	232	0.65879	824.35	0.51
323.22	237	2.39344	952.79	0.58
323.22	245	0.10819	773.87	0.49
323.22	4998	0.65879	829.19	0.52
323.22	5003	2.39344	956.69	0.58
323.22	5013	0.10819	779.2	0.5
323.22	9984	0.10819	784.43	0.51
323.22	9988	2.39344	960.6	0.59
323.22	10013	0.65879	834.04	0.53
323.22	14985	2.39344	964.38	0.59
323.22	14994	0.10819	789.4	0.53
323.22	15000	0.65879	838.59	0.54
323.22	19991	0.10819	794.09	0.55
323.22	20010	0.65879	842.96	0.55
323.22	20014	2.39344	968.03	0.59
323.22	24988	0.65879	847.08	0.56
323.22	24989	0.10819	798.56	0.56
323.22	25005	2.39344	971.52	0.59
323.22	29988	0.10819	802.81	0.58
323.22	29988	2.39344	974.89	0.6
323.22	30009	0.65879	851.08	0.58
323.22	34980	2.39344	978.17	0.6
323.22	34991	0.10819	806.89	0.6
323.22	35005	0.65879	854.89	0.59
323.22	39995	0.10819	810.79	0.62
323.22	39995	0.65879	858.56	0.6
323.22	40017	2.39344	981.39	0.6
323.23	226	0.28529	790.12	0.5
323.23	5015	0.28529	795.26	0.51
323.23	9993	0.28529	800.3	0.52
323.23	14993	0.28529	805.07	0.53
323.23	20003	0.28529	809.62	0.55
323.23	25013	0.28529	813.96	0.56
323.23	30015	0.28529	818.08	0.58
323.23	34988	0.28529	821.99	0.6
323.23	40005	0.28529	825.78	0.61
348.23	303	2.39344	928.79	0.57
348.23	4983	2.39344	933.12	0.57
348.23	9990	2.39344	937.54	0.57
348.23	15005	2.39344	941.76	0.58
348.23	20000	2.39344	945.79	0.58
348.23	24993	2.39344	949.65	0.59
348.23	29995	2.39344	953.38	0.59
348.23	35000	2.39344	956.97	0.59
348.23	39984	2.39344	960.44	0.6
348.24	308	0.10819	748.93	0.48
348.24	321	0.65879	799.27	0.5
348.24	326	0.28529	765.1	0.48
348.24	4986	0.65879	804.77	0.51
348.24	5001	0.28529	770.94	0.5
348.24	5010	0.10819	755.08	0.49
348.24	9985	0.10819	761.11	0.51
348.24	9995	0.65879	810.3	0.52
348.24	9998	0.28529	776.76	0.51
348.24	14994	0.10819	766.79	0.53
348.24	14997	0.65879	815.48	0.54
348.24	15007	0.28529	782.23	0.53
348.24	19987	0.65879	820.39	0.55
348.24	19991	0.28529	787.34	0.55
348.24	20008	0.10819	772.12	0.55
348.24	24982	0.10819	777.11	0.57
348.24	24994	0.65879	825.04	0.56
348.24	24997	0.28529	792.2	0.57
348.24	29990	0.10819	781.87	0.59
348.24	29991	0.28529	796.8	0.58
348.24	29992	0.65879	829.46	0.58
348.24	34986	0.28529	801.19	0.6
348.24	34998	0.65879	833.71	0.59
348.24	35025	0.10819	786.39	0.61
348.24	39992	0.10819	790.73	0.63
348.24	40048	0.65879	837.76	0.61
348.24	40055	0.28529	805.38	0.63
373.24	517	2.39344	904.38	0.55
373.24	4985	2.39344	909.14	0.56
373.24	10000	2.39344	914.19	0.56
373.24	14988	2.39344	918.95	0.57
373.24	20003	2.39344	923.48	0.57
373.24	25015	2.39344	927.81	0.58
373.24	29988	2.39344	931.93	0.58
373.24	35016	2.39344	935.94	0.59
373.24	40000	2.39344	939.74	0.59
373.26	523	0.28529	738.51	0.47
373.26	527	0.10819	722.32	0.47
373.26	534	0.65879	773.01	0.49
373.26	4997	0.28529	745.17	0.49
373.26	4999	0.10819	729.31	0.48
373.26	5013	0.65879	779.26	0.5
373.26	9996	0.28529	752.01	0.51
373.26	10000	0.65879	785.66	0.52
373.26	10001	0.10819	736.45	0.5
373.26	14984	0.28529	758.3	0.53
373.26	14986	0.65879	791.62	0.53
373.26	15009	0.10819	743.03	0.53
373.26	19980	0.28529	764.17	0.55
373.26	19981	0.10819	749.09	0.55
373.26	20010	0.65879	797.23	0.55
373.26	24999	0.28529	769.7	0.57
373.26	25000	0.65879	802.48	0.57
373.26	25016	0.10819	754.83	0.57
373.26	29995	0.10819	760.17	0.6
373.26	29996	0.65879	807.45	0.58
373.26	30000	0.28529	774.89	0.59
373.26	34993	0.28529	779.79	0.62
373.26	35000	0.65879	812.19	0.6
373.26	35003	0.10819	765.25	0.62
373.26	40001	0.65879	816.69	0.62
373.26	40004	0.28529	784.46	0.64
373.26	40011	0.10819	770.07	0.65
398.25	888	2.39344	878.49	0.54
398.25	5007	2.39344	883.68	0.55
398.25	10016	2.39344	889.54	0.55
398.25	14986	2.39344	895.06	0.56
398.25	19983	2.39344	900.25	0.57
398.25	24997	2.39344	905.15	0.57
398.25	29989	2.39344	909.82	0.58
398.25	34996	2.39344	914.29	0.59
398.25	40014	2.39344	918.56	0.59
398.27	880	0.65879	744.38	0.48
398.27	899	0.28529	709.27	0.46
398.27	901	0.10819	692.84	0.45
398.27	4987	0.65879	751.36	0.49
398.27	4995	0.28529	716.79	0.48
398.27	4999	0.10819	700.78	0.47
398.27	9984	0.28529	725.04	0.5
398.27	9997	0.65879	759.11	0.51
398.27	10005	0.10819	709.46	0.5
398.27	14988	0.28529	732.54	0.53
398.27	15011	0.10819	717.28	0.52
398.27	15012	0.65879	766.18	0.53
398.27	19999	0.28529	739.43	0.55
398.27	20003	0.10819	724.41	0.55
398.27	20013	0.65879	772.68	0.55
398.27	24989	0.28529	745.78	0.58
398.27	25000	0.65879	778.71	0.57
398.27	25003	0.10819	730.99	0.58
398.27	29985	0.65879	784.37	0.59
398.27	30002	0.28529	751.73	0.6
398.27	30013	0.10819	737.16	0.61
398.27	34982	0.10819	742.86	0.64
398.27	34983	0.28529	757.27	0.63
398.27	35012	0.65879	789.76	0.61
398.27	39992	0.28529	762.54	0.66
398.27	39995	0.10819	748.29	0.67
398.27	39999	0.65879	794.79	0.64
