Measured thermophysical data. Measurement of activity coefficients at infinite dilution using polar and non-polar solutes in the ionic liquid 1-methyl-3-octyl-imidazolium diethyleneglycolmonomethylethersulfate at T = (288.15, 298.15, and 313.15) K
Source: J. Chem. Thermodyn., 2006, 10.1016/j.jct.2005.07.003
Compound 1: 1-methyl-3-octylimidazolium 2-(2-methoxyethoxy)ethyl sulfate, C17H34N2O6S, InChI=1S/C12H23N2.C5H12O6S/c1-3-4-5-6-7-8-9-14-11-10-13(2)12-14;1-9-2-3-10-4-5-11-12(6,7)8/h10-12H,3-9H2,1-2H3;2-5H2,1H3,(H,6,7,8)/q+1;/p-1, purity 98%
Compound 2: pentane, C5H12, InChI=1S/C5H12/c1-3-5-4-2/h3-5H2,1-2H3, purity 99%
Compound 3: hexane, C6H14, InChI=1S/C6H14/c1-3-5-6-4-2/h3-6H2,1-2H3, purity 99%
Compound 4: heptane, C7H16, InChI=1S/C7H16/c1-3-5-7-6-4-2/h3-7H2,1-2H3, purity 99%
Compound 5: octane, C8H18, InChI=1S/C8H18/c1-3-5-7-8-6-4-2/h3-8H2,1-2H3, purity 99%
Compound 6: cyclopentane, C5H10, InChI=1S/C5H10/c1-2-4-5-3-1/h1-5H2, purity 99%
Compound 7: cyclohexane, C6H12, InChI=1S/C6H12/c1-2-4-6-5-3-1/h1-6H2, purity 99%
Compound 8: cycloheptane, C7H14, InChI=1S/C7H14/c1-2-4-6-7-5-3-1/h1-7H2, purity 99%
Compound 9: cyclooctane, C8H16, InChI=1S/C8H16/c1-2-4-6-8-7-5-3-1/h1-8H2, purity 99%
Compound 10: hex-1-ene, C6H12, InChI=1S/C6H12/c1-3-5-6-4-2/h3H,1,4-6H2,2H3, purity 99%
Compound 11: 1-heptene, C7H14, InChI=1S/C7H14/c1-3-5-7-6-4-2/h3H,1,4-7H2,2H3, purity 99%
Compound 12: oct-1-ene, C8H16, InChI=1S/C8H16/c1-3-5-7-8-6-4-2/h3H,1,4-8H2,2H3, purity 99%
Compound 13: 1-heptyne, C7H12, InChI=1S/C7H12/c1-3-5-7-6-4-2/h1H,4-7H2,2H3, purity 99%
Compound 14: methanol, CH4O, InChI=1S/CH4O/c1-2/h2H,1H3, purity 99%
Compound 15: benzene, C6H6, InChI=1S/C6H6/c1-2-4-6-5-3-1/h1-6H, purity 99%

System: pentane + 1-methyl-3-octylimidazolium 2-(2-methoxyethoxy)ethyl sulfate; phases: Liquid
Fixed: Pressure, kPa = 101
Fixed: Mole fraction of pentane = 0
Property: Activity coefficient of pentane (Liquid); method: Chromatography
Temperature, K	Activity coefficient of pentane	uncertainty
288.15	12.6	1.3
288.15	11.6	1.2
298.15	10.6	1.1
298.15	10.3	1.1
313.15	10	1.1
313.15	9.5	1

System: hexane + 1-methyl-3-octylimidazolium 2-(2-methoxyethoxy)ethyl sulfate; phases: Liquid
Fixed: Pressure, kPa = 101
Fixed: Mole fraction of hexane = 0
Property: Activity coefficient of hexane (Liquid); method: Chromatography
Temperature, K	Activity coefficient of hexane	uncertainty
288.15	14	1.5
288.15	14	1.5
298.15	12.8	1.3
298.15	12.9	1.4
313.15	11.9	1.3
313.15	11.8	1.2

System: heptane + 1-methyl-3-octylimidazolium 2-(2-methoxyethoxy)ethyl sulfate; phases: Liquid
Fixed: Pressure, kPa = 101
Fixed: Mole fraction of heptane = 0
Property: Activity coefficient of heptane (Liquid); method: Chromatography
Temperature, K	Activity coefficient of heptane	uncertainty
288.15	17.9	1.9
288.15	17.4	1.8
298.15	16.4	1.7
298.15	16	1.7
313.15	13.5	1.4
313.15	13.3	1.4

System: octane + 1-methyl-3-octylimidazolium 2-(2-methoxyethoxy)ethyl sulfate; phases: Liquid
Fixed: Pressure, kPa = 101
Fixed: Mole fraction of octane = 0
Property: Activity coefficient of octane (Liquid); method: Chromatography
Temperature, K	Activity coefficient of octane	uncertainty
288.15	22.6	2.4
288.15	22.2	2.3
298.15	21.1	2.2
298.15	19.7	2.1
313.15	16.4	1.7
313.15	16.4	1.7

System: cyclopentane + 1-methyl-3-octylimidazolium 2-(2-methoxyethoxy)ethyl sulfate; phases: Liquid
Fixed: Pressure, kPa = 101
Fixed: Mole fraction of cyclopentane = 0
Property: Activity coefficient of cyclopentane (Liquid); method: Chromatography
Temperature, K	Activity coefficient of cyclopentane	uncertainty
288.15	6.4	0.67
288.15	6.14	0.65
298.15	5.1	0.54
298.15	5.86	0.62
313.15	5.24	0.55
313.15	5.16	0.54

System: cyclohexane + 1-methyl-3-octylimidazolium 2-(2-methoxyethoxy)ethyl sulfate; phases: Liquid
Fixed: Pressure, kPa = 101
Fixed: Mole fraction of cyclohexane = 0
Property: Activity coefficient of cyclohexane (Liquid); method: Chromatography
Temperature, K	Activity coefficient of cyclohexane	uncertainty
288.15	8.52	0.9
288.15	8.34	0.88
298.15	7.86	0.83
313.15	6.83	0.72
313.15	6.79	0.71

System: cycloheptane + 1-methyl-3-octylimidazolium 2-(2-methoxyethoxy)ethyl sulfate; phases: Liquid
Fixed: Pressure, kPa = 101
Fixed: Mole fraction of cycloheptane = 0
Property: Activity coefficient of cycloheptane (Liquid); method: Chromatography
Temperature, K	Activity coefficient of cycloheptane	uncertainty
288.15	9.65	1.01
288.15	10.1	1.1
298.15	9.02	0.95
298.15	8.83	0.93
313.15	7.53	0.79
313.15	7.45	0.78

System: cyclooctane + 1-methyl-3-octylimidazolium 2-(2-methoxyethoxy)ethyl sulfate; phases: Liquid
Fixed: Pressure, kPa = 101
Fixed: Mole fraction of cyclooctane = 0
Property: Activity coefficient of cyclooctane (Liquid); method: Chromatography
Temperature, K	Activity coefficient of cyclooctane	uncertainty
288.15	11.2	1.2
288.15	10.3	1.1
313.15	8.74	0.92
313.15	8.65	0.91

System: hex-1-ene + 1-methyl-3-octylimidazolium 2-(2-methoxyethoxy)ethyl sulfate; phases: Liquid
Fixed: Pressure, kPa = 101
Fixed: Mole fraction of hex-1-ene = 0
Property: Activity coefficient of hex-1-ene (Liquid); method: Chromatography
Temperature, K	Activity coefficient of hex-1-ene	uncertainty
288.15	8.61	0.91
288.15	8.47	0.89
298.15	8.14	0.86
298.15	8.33	0.88
313.15	7.47	0.79
313.15	7.74	0.81

System: 1-heptene + 1-methyl-3-octylimidazolium 2-(2-methoxyethoxy)ethyl sulfate; phases: Liquid
Fixed: Pressure, kPa = 101
Fixed: Mole fraction of 1-heptene = 0
Property: Activity coefficient of 1-heptene (Liquid); method: Chromatography
Temperature, K	Activity coefficient of 1-heptene	uncertainty
288.15	10.3	1.1
288.15	10.8	1.1
298.15	10.5	1.1
298.15	10.1	1.1
313.15	8.51	0.89
313.15	9.33	0.98

System: oct-1-ene + 1-methyl-3-octylimidazolium 2-(2-methoxyethoxy)ethyl sulfate; phases: Liquid
Fixed: Pressure, kPa = 101
Fixed: Mole fraction of oct-1-ene = 0
Property: Activity coefficient of oct-1-ene (Liquid); method: Chromatography
Temperature, K	Activity coefficient of oct-1-ene	uncertainty
288.15	13.7	1.4
288.15	14	1.5
298.15	13.1	1.4
298.15	13.2	1.4
313.15	12	1.3
313.15	11.4	1.2

System: 1-heptyne + 1-methyl-3-octylimidazolium 2-(2-methoxyethoxy)ethyl sulfate; phases: Liquid
Fixed: Pressure, kPa = 101
Fixed: Mole fraction of 1-heptyne = 0
Property: Activity coefficient of 1-heptyne (Liquid); method: Chromatography
Temperature, K	Activity coefficient of 1-heptyne	uncertainty
288.15	5.69	0.6
288.15	5.38	0.57
298.15	4.92	0.52
298.15	5.11	0.54
313.15	4.7	0.49
313.15	4.67	0.49

System: methanol + 1-methyl-3-octylimidazolium 2-(2-methoxyethoxy)ethyl sulfate; phases: Liquid
Fixed: Pressure, kPa = 101
Fixed: Mole fraction of methanol = 0
Property: Activity coefficient of methanol (Liquid); method: Chromatography
Temperature, K	Activity coefficient of methanol	uncertainty
288.15	0.37	0.04
288.15	0.44	0.05
298.15	0.38	0.05
298.15	0.38	0.05
313.15	0.36	0.04
313.15	0.38	0.05

System: benzene + 1-methyl-3-octylimidazolium 2-(2-methoxyethoxy)ethyl sulfate; phases: Liquid
Fixed: Pressure, kPa = 101
Fixed: Mole fraction of benzene = 0
Property: Activity coefficient of benzene (Liquid); method: Chromatography
Temperature, K	Activity coefficient of benzene	uncertainty
288.15	1.33	0.14
298.15	1.33	0.14
298.15	1.46	0.15
313.15	1.37	0.14
313.15	1.35	0.14
