Measured thermophysical data. Solubility and pKa of select pharmaceuticals in water, ethanol, and 1-octanol
Source: J. Chem. Thermodyn., 2010, 10.1016/j.jct.2010.07.001
Compound 1: 5-(3-(tert-butylamino)-2-hydroxypropoxy)-1,2,3,4-tetrahydronaphthalene-2,3-diol, C17H27NO4, InChI=1S/C17H27NO4/c1-17(2,3)18-9-12(19)10-22-16-6-4-5-11-7-14(20)15(21)8-13(11)16/h4-6,12,14-15,18-21H,7-10H2,1-3H3, purity 98%
Compound 2: 2-(4-(2-hydroxy-3-(isopropylamino)propoxy)phenyl)acetamide, C14H22N2O3, InChI=1S/C14H22N2O3/c1-10(2)16-8-12(17)9-19-13-5-3-11(4-6-13)7-14(15)18/h3-6,10,12,16-17H,7-9H2,1-2H3,(H2,15,18), purity 98%
Compound 3: 1-([1,1'-biphenyl]-4-yl(phenyl)methyl)-1H-imidazole, C22H18N2, InChI=1S/C22H18N2/c1-3-7-18(8-4-1)19-11-13-21(14-12-19)22(24-16-15-23-17-24)20-9-5-2-6-10-20/h1-17,22H, purity 98%
Compound 4: nimesulide, C13H12N2O5S, InChI=1S/C13H12N2O5S/c1-21(18,19)14-12-8-7-10(15(16)17)9-13(12)20-11-5-3-2-4-6-11/h2-9,14H,1H3, purity 98%
Compound 5: 3-hydroxy-1,3,5(10)-estratrien-17-one, C18H22O2, InChI=1S/C18H22O2/c1-18-9-8-14-13-5-3-12(19)10-11(13)2-4-15(14)16(18)6-7-17(18)20/h3,5,10,14-16,19H,2,4,6-9H2,1H3/t14-,15-,16+,18+/m1/s1, purity 98%
Compound 6: 2-((2,3-dimethylphenyl)amino)benzoic acid, C15H15NO2, InChI=1S/C15H15NO2/c1-10-6-5-9-13(11(10)2)16-14-8-4-3-7-12(14)15(17)18/h3-9,16H,1-2H3,(H,17,18), purity 98%
Compound 7: water, H2O, InChI=1S/H2O/h1H2, purity 99.9%
Compound 8: ethanol, C2H6O, InChI=1S/C2H6O/c1-2-3/h3H,2H2,1H3, purity 99.8%
Compound 9: octan-1-ol, C8H18O, InChI=1S/C8H18O/c1-2-3-4-5-6-7-8-9/h9H,2-8H2,1H3, purity 99.8%

System: 5-(3-(tert-butylamino)-2-hydroxypropoxy)-1,2,3,4-tetrahydronaphthalene-2,3-diol; phases: Crystal, Liquid, Air at 1 atmosphere
Property: Normal melting temperature, K (Crystal); method: DTA:corrimp
Normal melting temperature, K	uncertainty
403.4	2.1

System: 5-(3-(tert-butylamino)-2-hydroxypropoxy)-1,2,3,4-tetrahydronaphthalene-2,3-diol; phases: Crystal, Liquid, Air at 1 atmosphere
Property: Molar enthalpy of transition or fusion, kJ/mol (Crystal); method: DSC
Molar enthalpy of transition or fusion, kJ/mol	uncertainty
53	1.4

System: 2-(4-(2-hydroxy-3-(isopropylamino)propoxy)phenyl)acetamide; phases: Crystal, Liquid, Air at 1 atmosphere
Property: Normal melting temperature, K (Crystal); method: DTA:corrimp
Normal melting temperature, K	uncertainty
424.5	2.1

System: 2-(4-(2-hydroxy-3-(isopropylamino)propoxy)phenyl)acetamide; phases: Crystal, Liquid, Air at 1 atmosphere
Property: Molar enthalpy of transition or fusion, kJ/mol (Crystal); method: DSC
Molar enthalpy of transition or fusion, kJ/mol	uncertainty
36.6	1

System: 1-([1,1'-biphenyl]-4-yl(phenyl)methyl)-1H-imidazole; phases: Crystal, Liquid, Air at 1 atmosphere
Property: Normal melting temperature, K (Crystal); method: DTA:corrimp
Normal melting temperature, K	uncertainty
423	2.1

System: 1-([1,1'-biphenyl]-4-yl(phenyl)methyl)-1H-imidazole; phases: Crystal, Liquid, Air at 1 atmosphere
Property: Molar enthalpy of transition or fusion, kJ/mol (Crystal); method: DSC
Molar enthalpy of transition or fusion, kJ/mol	uncertainty
37.5	1

System: nimesulide; phases: Crystal, Liquid, Air at 1 atmosphere
Property: Normal melting temperature, K (Crystal); method: DTA:corrimp
Normal melting temperature, K	uncertainty
422.2	2.1

System: nimesulide; phases: Crystal, Liquid, Air at 1 atmosphere
Property: Molar enthalpy of transition or fusion, kJ/mol (Crystal); method: DSC
Molar enthalpy of transition or fusion, kJ/mol	uncertainty
47.4	1.3

System: 3-hydroxy-1,3,5(10)-estratrien-17-one; phases: Crystal, Liquid, Air at 1 atmosphere
Property: Normal melting temperature, K (Crystal); method: DTA:corrimp
Normal melting temperature, K	uncertainty
527.1	2.1

System: 3-hydroxy-1,3,5(10)-estratrien-17-one; phases: Crystal, Liquid, Air at 1 atmosphere
Property: Molar enthalpy of transition or fusion, kJ/mol (Crystal); method: DSC
Molar enthalpy of transition or fusion, kJ/mol	uncertainty
45.1	1.2

System: 2-((2,3-dimethylphenyl)amino)benzoic acid; phases: Crystal, Liquid, Air at 1 atmosphere
Property: Normal melting temperature, K (Crystal); method: DTA:corrimp
Normal melting temperature, K	uncertainty
503.1	2.1

System: 2-((2,3-dimethylphenyl)amino)benzoic acid; phases: Crystal, Liquid, Air at 1 atmosphere
Property: Molar enthalpy of transition or fusion, kJ/mol (Crystal); method: DSC
Molar enthalpy of transition or fusion, kJ/mol	uncertainty
71.2	40

System: water + 5-(3-(tert-butylamino)-2-hydroxypropoxy)-1,2,3,4-tetrahydronaphthalene-2,3-diol; phases: Liquid, Crystal
Fixed: Pressure, kPa = 101.3
Property: Solid-liquid equilibrium temperature, K (Liquid); method: VISOBS
Mole fraction of 5-(3-(tert-butylamino)-2-hydroxypropoxy)-1,2,3,4-tetrahydronaphthalene-2,3-diol	Solid-liquid equilibrium temperature, K	uncertainty
0.0001	320.5	0.3
0.0003	322.7	0.3
0.0003	330.8	0.3
0.0004	331.9	0.3
0.0005	338.7	0.3
0.0006	339.3	0.3
0.0007	341.7	0.3
0.0008	344.2	0.3
0.001	345.6	0.3
1	403.4	0.3

System: ethanol + 5-(3-(tert-butylamino)-2-hydroxypropoxy)-1,2,3,4-tetrahydronaphthalene-2,3-diol; phases: Liquid, Crystal
Fixed: Pressure, kPa = 101.3
Property: Solid-liquid equilibrium temperature, K (Liquid); method: VISOBS
Mole fraction of 5-(3-(tert-butylamino)-2-hydroxypropoxy)-1,2,3,4-tetrahydronaphthalene-2,3-diol	Solid-liquid equilibrium temperature, K	uncertainty
0.004	280.6	4.6
0.0043	285.3	3.9
0.0048	290.4	3.2
0.009	303.7	2.6
0.0093	304.8	2.7
0.0096	302.9	2.6
0.0114	308.2	1.9
0.012	309.1	1.9
0.0132	312.2	2
0.0142	313.5	1.7
0.0173	318.1	1.2
0.0188	319.5	1.2
0.0203	320.7	0.9
0.0213	321.3	0.9
0.0213	323.3	0.9
0.0243	324.1	0.9
0.0257	325.3	0.9
0.0276	326.6	0.9
0.0283	327.1	0.3
0.0306	329.3	0.7
0.0311	326.6	0.8
0.0357	332	0.8
0.0427	336	0.7
0.0449	337.9	0.6
0.0503	340.2	0.5
1	403.4	0.3

System: octan-1-ol + 5-(3-(tert-butylamino)-2-hydroxypropoxy)-1,2,3,4-tetrahydronaphthalene-2,3-diol; phases: Liquid, Crystal
Fixed: Pressure, kPa = 101.3
Property: Solid-liquid equilibrium temperature, K (Liquid); method: VISOBS
Mole fraction of 5-(3-(tert-butylamino)-2-hydroxypropoxy)-1,2,3,4-tetrahydronaphthalene-2,3-diol	Solid-liquid equilibrium temperature, K	uncertainty
0.0004	292.9	2.9
0.0008	299	4.9
0.001	293.6	9
0.0013	299.6	7.3
0.0033	314.2	3.1
0.0105	327.3	1.6
0.0138	330.6	1.2
0.0162	334.2	0.8
0.0252	340	0.7
0.0346	346.7	0.7
0.0351	347.2	0.7
0.0445	351.6	0.5
0.0515	355.1	0.6
0.0571	357.9	0.3
0.0785	361.5	0.3
1	403.4	0.3

System: water + 2-(4-(2-hydroxy-3-(isopropylamino)propoxy)phenyl)acetamide; phases: Liquid, Crystal
Fixed: Pressure, kPa = 101.3
Property: Solid-liquid equilibrium temperature, K (Liquid); method: VISOBS
Mole fraction of 2-(4-(2-hydroxy-3-(isopropylamino)propoxy)phenyl)acetamide	Solid-liquid equilibrium temperature, K	uncertainty
0.0008	291	10.3
0.001	295	12.4
0.0011	300.3	11.1
0.0012	302.7	10.7
0.0013	304.3	10.1
0.0014	309.3	8.8
0.0015	311.1	8.5
0.0016	314.4	7.7
0.0016	315.6	7.3
0.0018	318.9	5.8
0.0019	319.7	9.6
0.0022	324.9	9.8
0.0026	327.9	9.2
0.0027	329	9.3
0.0031	330.1	8.7
0.0036	332.9	8.3
0.0042	334.8	7.4
0.0045	336.7	4.9
0.0052	338.5	3.1
0.0057	339.3	2.6
0.0063	340.6	2.5
0.0068	341.6	2.2
0.0083	343.6	1.7
0.0093	345.3	1.6
1	424.5	0.3

System: ethanol + 2-(4-(2-hydroxy-3-(isopropylamino)propoxy)phenyl)acetamide; phases: Liquid, Crystal
Fixed: Pressure, kPa = 101.3
Property: Solid-liquid equilibrium temperature, K (Liquid); method: VISOBS
Mole fraction of 2-(4-(2-hydroxy-3-(isopropylamino)propoxy)phenyl)acetamide	Solid-liquid equilibrium temperature, K	uncertainty
0.0062	289.7	2
0.0079	291.9	2
0.0102	297.8	2.4
0.0109	298.7	2.1
0.0116	300.7	2.1
0.0119	303.6	2.1
0.0125	305.3	1.8
0.0154	307.3	1.2
0.0191	313	1.2
0.0223	315.3	1
0.0274	320.7	0.9
0.0332	325.3	0.8
0.036	327	0.8
0.038	328.8	0.9
1	424.5	0.3

System: octan-1-ol + 2-(4-(2-hydroxy-3-(isopropylamino)propoxy)phenyl)acetamide; phases: Liquid, Crystal
Fixed: Pressure, kPa = 101.3
Property: Solid-liquid equilibrium temperature, K (Liquid); method: VISOBS
Mole fraction of 2-(4-(2-hydroxy-3-(isopropylamino)propoxy)phenyl)acetamide	Solid-liquid equilibrium temperature, K	uncertainty
0.0017	297.3	6.5
0.0029	301.4	5.3
0.0038	311.3	5.2
0.0048	317.3	4
0.0059	319.1	4.2
0.0085	324.9	2
0.01	329.8	2.1
0.0135	334.8	1.5
1	424.5	0.3

System: water + 1-([1,1'-biphenyl]-4-yl(phenyl)methyl)-1H-imidazole; phases: Liquid, Crystal
Fixed: Pressure, kPa = 101.3
Property: Solid-liquid equilibrium temperature, K (Liquid); method: VISOBS
Mole fraction of 1-([1,1'-biphenyl]-4-yl(phenyl)methyl)-1H-imidazole	Solid-liquid equilibrium temperature, K	uncertainty
2e-05	298.15	0.25
4e-05	308.15	0.25
6e-05	318.15	0.25
0.00026	328.15	0.25

System: ethanol + 1-([1,1'-biphenyl]-4-yl(phenyl)methyl)-1H-imidazole; phases: Liquid, Crystal
Fixed: Pressure, kPa = 101.3
Property: Solid-liquid equilibrium temperature, K (Liquid); method: VISOBS
Mole fraction of 1-([1,1'-biphenyl]-4-yl(phenyl)methyl)-1H-imidazole	Solid-liquid equilibrium temperature, K	uncertainty
0.0036	292.4	6
0.0045	298.3	4.1
0.0051	302.9	4.4
0.0057	307.1	4.6
0.0063	308.5	4.2
0.0082	313.6	3.1
0.0096	317.8	2.3
0.0107	320	2.1
0.0127	322.9	1.7
0.0163	329	1
0.0215	332	0.7
0.0278	336.7	0.6
0.0324	338	0.5
0.0334	339.1	0.5
0.0361	340	0.5
0.0387	341.4	0.6
0.0416	343.1	0.5
0.0483	345.7	0.4
0.0573	347.9	0.3
0.0646	348.8	0.3
0.0713	349.9	0.3
0.0758	349.8	0.3
0.0811	350.6	0.3
1	423	0.3

System: octan-1-ol + 1-([1,1'-biphenyl]-4-yl(phenyl)methyl)-1H-imidazole; phases: Liquid, Crystal
Fixed: Pressure, kPa = 101.3
Property: Solid-liquid equilibrium temperature, K (Liquid); method: VISOBS
Mole fraction of 1-([1,1'-biphenyl]-4-yl(phenyl)methyl)-1H-imidazole	Solid-liquid equilibrium temperature, K	uncertainty
0.0161	314.4	1.6
0.0196	319.8	1.2
0.0288	330.1	0.8
0.0365	332.9	0.6
0.0432	337.3	0.7
0.0482	340.8	0.6
0.0536	343.2	0.4
0.0693	347.6	0.4
0.0757	349.8	0.4
0.1068	357.3	0.3
0.1429	365.2	0.3
0.1727	369.3	0.3
1	423	0.3

System: water + nimesulide; phases: Liquid, Crystal
Fixed: Pressure, kPa = 101.3
Property: Solid-liquid equilibrium temperature, K (Liquid); method: VISOBS
Mole fraction of nimesulide	Solid-liquid equilibrium temperature, K	uncertainty
0.00025	298.15	0.25
0.0007	308.15	0.25
0.00108	318.15	0.25
0.00201	328.15	0.25

System: ethanol + nimesulide; phases: Liquid, Crystal
Fixed: Pressure, kPa = 101.3
Property: Solid-liquid equilibrium temperature, K (Liquid); method: VISOBS
Mole fraction of nimesulide	Solid-liquid equilibrium temperature, K	uncertainty
0.0011	303.1	9.8
0.0012	305.9	9
0.0014	309.7	8.2
0.0015	312.4	7.3
0.0019	315.3	7.3
0.0021	318.1	6.5
0.0022	318.5	9.6
0.0024	321.6	9.8
0.0032	325.7	10.8
0.0037	328.5	9.8
1	422.2	0.3

System: octan-1-ol + nimesulide; phases: Liquid, Crystal
Fixed: Pressure, kPa = 101.3
Property: Solid-liquid equilibrium temperature, K (Liquid); method: VISOBS
Mole fraction of nimesulide	Solid-liquid equilibrium temperature, K	uncertainty
0.0009	303.7	7.8
0.0011	305.5	8.6
0.0012	308.1	8
0.0017	311.8	8
0.0021	316.5	8.1
0.0027	319.6	8.3
0.0027	320.4	8.2
0.0035	326.9	7.7
0.004	330.5	7.8
0.0048	336.6	7.4
0.0055	341.8	7.4
0.0065	347.1	6.7
1	422.2	0.3

System: 3-hydroxy-1,3,5(10)-estratrien-17-one + water; phases: Liquid, Crystal
Fixed: Pressure, kPa = 101.3
Property: Solid-liquid equilibrium temperature, K (Liquid); method: VISOBS
Mole fraction of 3-hydroxy-1,3,5(10)-estratrien-17-one	Solid-liquid equilibrium temperature, K	uncertainty
8e-05	298.15	0.25
0.00023	308.15	0.25
0.00038	318.15	0.25
0.00079	328.15	0.25

System: 3-hydroxy-1,3,5(10)-estratrien-17-one + ethanol; phases: Liquid, Crystal
Fixed: Pressure, kPa = 101.3
Property: Solid-liquid equilibrium temperature, K (Liquid); method: VISOBS
Mole fraction of 3-hydroxy-1,3,5(10)-estratrien-17-one	Solid-liquid equilibrium temperature, K	uncertainty
0.0008	295.5	16.1
0.0009	298.4	17.7
0.0011	305.3	17.8
0.0012	309.4	16.2
0.0015	313.5	16.8
0.0016	318.8	13.5
0.0021	326.5	23.8
0.0023	329.2	22.5
0.0027	333.7	20.1
1	527.1	0.3

System: 3-hydroxy-1,3,5(10)-estratrien-17-one + octan-1-ol; phases: Liquid, Crystal
Fixed: Pressure, kPa = 101.3
Property: Solid-liquid equilibrium temperature, K (Liquid); method: VISOBS
Mole fraction of 3-hydroxy-1,3,5(10)-estratrien-17-one	Solid-liquid equilibrium temperature, K	uncertainty
0.0031	300.3	8.3
0.0038	308.7	6.8
0.005	317.4	7.5
0.006	324.5	7.6
0.007	330.5	6.1
0.0079	334.2	5.8
0.0082	338.9	5.8
0.0105	349.5	5.1
0.0113	353.8	4.3
0.0122	358.4	4.4
0.0133	362.6	4.2
0.0148	367.3	3.9
1	527.1	0.3

System: 2-((2,3-dimethylphenyl)amino)benzoic acid + ethanol; phases: Liquid, Crystal
Fixed: Pressure, kPa = 101.3
Property: Solid-liquid equilibrium temperature, K (Liquid); method: VISOBS
Mole fraction of 2-((2,3-dimethylphenyl)amino)benzoic acid	Solid-liquid equilibrium temperature, K	uncertainty
0.0018	300.3	8.5
0.0019	302.4	8
0.0021	306	7.3
0.0023	308.2	6.1
0.0024	310	5.8
0.0026	311.5	5.7
0.0027	313	5.4
0.0032	316.1	6.7
0.0036	318.7	6.8
0.004	320.9	7
0.0042	322.2	7.1
0.0049	326.5	7.2
0.006	330.9	5.4
0.0063	331.8	5.1
1	503.1	0.3

System: 2-((2,3-dimethylphenyl)amino)benzoic acid + octan-1-ol; phases: Liquid, Crystal
Fixed: Pressure, kPa = 101.3
Property: Solid-liquid equilibrium temperature, K (Liquid); method: VISOBS
Mole fraction of 2-((2,3-dimethylphenyl)amino)benzoic acid	Solid-liquid equilibrium temperature, K	uncertainty
0.0066	306.3	3.2
0.0086	313.1	3.7
0.0099	316.9	4.3
0.0104	320	4.2
0.0117	325.1	4.5
0.0124	329.8	4.4
0.0134	335.1	5
1	503.1	0.3
