Measured thermophysical data. Activity coefficients at infinite dilution of hydrocarbons, alkylbenzenes, and alcohols  in the paramagnetic ionic liquid 1-butyl-3-methyl-imidazolium  tetrachloridoferrate(III) using gas liquid chromatography
Source: J. Chem. Thermodyn., 2009, 10.1016/j.jct.2008.09.004
Compound 1: 1-butyl-3-methylimidazolium tetrachloroferrate, C8H15Cl4FeN2, InChI=1S/C8H15N2.4ClH.Fe/c1-3-4-5-10-7-6-9(2)8-10;;;;;/h6-8H,3-5H2,1-2H3;4*1H;/q+1;;;;;+3/p-4
Compound 2: methanol, CH4O, InChI=1S/CH4O/c1-2/h2H,1H3, purity 99.9%
Compound 3: ethanol, C2H6O, InChI=1S/C2H6O/c1-2-3/h3H,2H2,1H3, purity 99.9%
Compound 4: propan-1-ol, C3H8O, InChI=1S/C3H8O/c1-2-3-4/h4H,2-3H2,1H3, purity 99.9%
Compound 5: butan-1-ol, C4H10O, InChI=1S/C4H10O/c1-2-3-4-5/h5H,2-4H2,1H3, purity 99.9%
Compound 6: pentan-1-ol, C5H12O, InChI=1S/C5H12O/c1-2-3-4-5-6/h6H,2-5H2,1H3, purity 99.9%
Compound 7: hexan-1-ol, C6H14O, InChI=1S/C6H14O/c1-2-3-4-5-6-7/h7H,2-6H2,1H3, purity 99.9%
Compound 8: benzene, C6H6, InChI=1S/C6H6/c1-2-4-6-5-3-1/h1-6H, purity 99.9%
Compound 9: toluene, C7H8, InChI=1S/C7H8/c1-7-5-3-2-4-6-7/h2-6H,1H3, purity 99.9%
Compound 10: ethylbenzene, C8H10, InChI=1S/C8H10/c1-2-8-6-4-3-5-7-8/h3-7H,2H2,1H3, purity 99.9%
Compound 11: propylbenzene, C9H12, InChI=1S/C9H12/c1-2-6-9-7-4-3-5-8-9/h3-5,7-8H,2,6H2,1H3, purity 99.9%
Compound 12: butylbenzene, C10H14, InChI=1S/C10H14/c1-2-3-7-10-8-5-4-6-9-10/h4-6,8-9H,2-3,7H2,1H3, purity 99.9%
Compound 13: pentylbenzene, C11H16, InChI=1S/C11H16/c1-2-3-5-8-11-9-6-4-7-10-11/h4,6-7,9-10H,2-3,5,8H2,1H3, purity 99.9%
Compound 14: octane, C8H18, InChI=1S/C8H18/c1-3-5-7-8-6-4-2/h3-8H2,1-2H3, purity 99.9%
Compound 15: nonane, C9H20, InChI=1S/C9H20/c1-3-5-7-9-8-6-4-2/h3-9H2,1-2H3, purity 99.9%
Compound 16: decane, C10H22, InChI=1S/C10H22/c1-3-5-7-9-10-8-6-4-2/h3-10H2,1-2H3, purity 99.9%
Compound 17: undecane, C11H24, InChI=1S/C11H24/c1-3-5-7-9-11-10-8-6-4-2/h3-11H2,1-2H3, purity 99.9%
Compound 18: dodecane, C12H26, InChI=1S/C12H26/c1-3-5-7-9-11-12-10-8-6-4-2/h3-12H2,1-2H3, purity 99.9%
Compound 19: oct-1-ene, C8H16, InChI=1S/C8H16/c1-3-5-7-8-6-4-2/h3H,1,4-8H2,2H3, purity 99.9%
Compound 20: 1-decene, C10H20, InChI=1S/C10H20/c1-3-5-7-9-10-8-6-4-2/h3H,1,4-10H2,2H3, purity 99.9%

System: methanol + 1-butyl-3-methylimidazolium tetrachloroferrate; phases: Liquid
Fixed: Pressure, kPa = 101
Fixed: Mole fraction of methanol = 0
Property: Activity coefficient of methanol (Liquid); method: Chromatography
Temperature, K	Activity coefficient of methanol	uncertainty
305.15	1.6	0.11
313.15	1.52	0.1
333.15	1.2	0.08
353.15	1.01	0.06
373.15	0.71	0.05

System: ethanol + 1-butyl-3-methylimidazolium tetrachloroferrate; phases: Liquid
Fixed: Pressure, kPa = 101
Fixed: Mole fraction of ethanol = 0
Property: Activity coefficient of ethanol (Liquid); method: Chromatography
Temperature, K	Activity coefficient of ethanol	uncertainty
313.15	1.78	0.12
323.15	1.58	0.1
333.15	1.38	0.09
353.15	1.15	0.07
373.15	0.98	0.06

System: propan-1-ol + 1-butyl-3-methylimidazolium tetrachloroferrate; phases: Liquid
Fixed: Pressure, kPa = 101
Fixed: Mole fraction of propan-1-ol = 0
Property: Activity coefficient of propan-1-ol (Liquid); method: Chromatography
Temperature, K	Activity coefficient of propan-1-ol	uncertainty
333.15	1.63	0.11
333.15	1.69	0.11
343.15	1.49	0.1
343.15	1.5	0.1
353.15	1.3	0.08
353.15	1.35	0.09
363.15	1.18	0.08
363.15	1.18	0.08
373.15	1.09	0.07
373.15	1.09	0.07

System: butan-1-ol + 1-butyl-3-methylimidazolium tetrachloroferrate; phases: Liquid
Fixed: Pressure, kPa = 101
Fixed: Mole fraction of butan-1-ol = 0
Property: Activity coefficient of butan-1-ol (Liquid); method: Chromatography
Temperature, K	Activity coefficient of butan-1-ol	uncertainty
343.15	1.72	0.12
353.15	1.51	0.1
363.15	1.35	0.09
373.15	1.21	0.08
383.15	1.12	0.07
393.15	1.01	0.06

System: pentan-1-ol + 1-butyl-3-methylimidazolium tetrachloroferrate; phases: Liquid
Fixed: Pressure, kPa = 101
Fixed: Mole fraction of pentan-1-ol = 0
Property: Activity coefficient of pentan-1-ol (Liquid); method: Chromatography
Temperature, K	Activity coefficient of pentan-1-ol	uncertainty
363.15	1.75	0.12
373.15	1.53	0.1
383.15	1.48	0.1
393.15	1.28	0.08
393.15	1.4	0.09
403.15	1.17	0.07

System: hexan-1-ol + 1-butyl-3-methylimidazolium tetrachloroferrate; phases: Liquid
Fixed: Pressure, kPa = 101
Fixed: Mole fraction of hexan-1-ol = 0
Property: Activity coefficient of hexan-1-ol (Liquid); method: Chromatography
Temperature, K	Activity coefficient of hexan-1-ol	uncertainty
363.15	2.19	0.15
373.15	2.11	0.14
383.15	1.85	0.12
393.15	1.76	0.12
403.15	1.59	0.11

System: benzene + 1-butyl-3-methylimidazolium tetrachloroferrate; phases: Liquid
Fixed: Pressure, kPa = 101
Fixed: Mole fraction of benzene = 0
Property: Activity coefficient of benzene (Liquid); method: Chromatography
Temperature, K	Activity coefficient of benzene	uncertainty
305.15	0.78	0.05
313.15	0.8	0.05
323.15	0.82	0.05
333.15	0.83	0.05
343.15	0.83	0.05
353.15	0.85	0.05

System: toluene + 1-butyl-3-methylimidazolium tetrachloroferrate; phases: Liquid
Fixed: Pressure, kPa = 101
Fixed: Mole fraction of toluene = 0
Property: Activity coefficient of toluene (Liquid); method: Chromatography
Temperature, K	Activity coefficient of toluene	uncertainty
323.15	1.12	0.07
333.15	1.14	0.07
343.15	1.16	0.07
353.15	1.22	0.08
363.15	1.24	0.08
373.15	1.27	0.08

System: ethylbenzene + 1-butyl-3-methylimidazolium tetrachloroferrate; phases: Liquid
Fixed: Pressure, kPa = 101
Fixed: Mole fraction of ethylbenzene = 0
Property: Activity coefficient of ethylbenzene (Liquid); method: Chromatography
Temperature, K	Activity coefficient of ethylbenzene	uncertainty
333.15	1.69	0.11
343.15	1.71	0.11
353.15	1.75	0.12
363.15	1.78	0.12
373.15	1.77	0.12
383.15	1.8	0.12
403.15	1.84	0.12

System: propylbenzene + 1-butyl-3-methylimidazolium tetrachloroferrate; phases: Liquid
Fixed: Pressure, kPa = 101
Fixed: Mole fraction of propylbenzene = 0
Property: Activity coefficient of propylbenzene (Liquid); method: Chromatography
Temperature, K	Activity coefficient of propylbenzene	uncertainty
343.15	2.38	0.16
353.15	2.41	0.16
363.15	2.45	0.17
373.15	2.47	0.17

System: butylbenzene + 1-butyl-3-methylimidazolium tetrachloroferrate; phases: Liquid
Fixed: Pressure, kPa = 101
Fixed: Mole fraction of butylbenzene = 0
Property: Activity coefficient of butylbenzene (Liquid); method: Chromatography
Temperature, K	Activity coefficient of butylbenzene	uncertainty
353.15	3.35	0.23
363.15	3.33	0.23
373.15	3.31	0.23
383.15	3.27	0.22
403.15	3.25	0.22

System: pentylbenzene + 1-butyl-3-methylimidazolium tetrachloroferrate; phases: Liquid
Fixed: Pressure, kPa = 101
Fixed: Mole fraction of pentylbenzene = 0
Property: Activity coefficient of pentylbenzene (Liquid); method: Chromatography
Temperature, K	Activity coefficient of pentylbenzene	uncertainty
363.15	4.58	0.31
373.15	4.55	0.31
383.15	4.49	0.31
393.15	4.42	0.3
403.15	4.33	0.29

System: octane + 1-butyl-3-methylimidazolium tetrachloroferrate; phases: Liquid
Fixed: Pressure, kPa = 101
Fixed: Mole fraction of octane = 0
Property: Activity coefficient of octane (Liquid); method: Chromatography
Temperature, K	Activity coefficient of octane	uncertainty
305.15	36.2	2.5
313.15	32.7	2.2
323.15	30.7	2.1
333.15	29	2
343.15	26.6	1.8
353.15	25.5	1.7

System: nonane + 1-butyl-3-methylimidazolium tetrachloroferrate; phases: Liquid
Fixed: Pressure, kPa = 101
Fixed: Mole fraction of nonane = 0
Property: Activity coefficient of nonane (Liquid); method: Chromatography
Temperature, K	Activity coefficient of nonane	uncertainty
313.15	50	3.4
333.15	42.9	2.9
343.15	40.8	2.8
353.15	39	2.7
373.15	34.2	2.3

System: decane + 1-butyl-3-methylimidazolium tetrachloroferrate; phases: Liquid
Fixed: Pressure, kPa = 101
Fixed: Mole fraction of decane = 0
Property: Activity coefficient of decane (Liquid); method: Chromatography
Temperature, K	Activity coefficient of decane	uncertainty
323.15	57.3	3.9
333.15	56	3.8
343.15	52.9	3.6
353.15	47.9	3.3
373.15	45.1	3.1

System: undecane + 1-butyl-3-methylimidazolium tetrachloroferrate; phases: Liquid
Fixed: Pressure, kPa = 101
Fixed: Mole fraction of undecane = 0
Property: Activity coefficient of undecane (Liquid); method: Chromatography
Temperature, K	Activity coefficient of undecane	uncertainty
323.15	69.1	4.7
333.15	65.3	4.5
343.15	55.6	3.8
353.15	52	3.6
363.15	46.9	3.2
373.15	44.3	3

System: dodecane + 1-butyl-3-methylimidazolium tetrachloroferrate; phases: Liquid
Fixed: Pressure, kPa = 101
Fixed: Mole fraction of dodecane = 0
Property: Activity coefficient of dodecane (Liquid); method: Chromatography
Temperature, K	Activity coefficient of dodecane	uncertainty
343.15	73.8	5.1
353.15	69.6	4.8
363.15	62.6	4.3
373.15	56.8	3.9
383.15	54.7	3.7

System: oct-1-ene + 1-butyl-3-methylimidazolium tetrachloroferrate; phases: Liquid
Fixed: Pressure, kPa = 101
Fixed: Mole fraction of oct-1-ene = 0
Property: Activity coefficient of oct-1-ene (Liquid); method: Chromatography
Temperature, K	Activity coefficient of oct-1-ene	uncertainty
305.15	13.4	0.9
313.15	12.8	0.9
323.15	11.9	0.8
333.15	11.1	0.8
353.15	10.4	0.7
373.15	9.1	0.6

System: 1-decene + 1-butyl-3-methylimidazolium tetrachloroferrate; phases: Liquid
Fixed: Pressure, kPa = 101
Fixed: Mole fraction of 1-decene = 0
Property: Activity coefficient of 1-decene (Liquid); method: Chromatography
Temperature, K	Activity coefficient of 1-decene	uncertainty
323.15	23.3	1.6
333.15	21.2	1.4
353.15	20.7	1.4
373.15	18.7	1.3
383.15	16.3	1.1
