Measured thermophysical data. Systems with ionic liquids: Measurement of VLE and c1 data and prediction of their thermodynamic behavior using original UNIFAC, mod. UNIFAC(Do) and COSMO-RS(Ol)
Source: J. Chem. Thermodyn., 2005, 10.1016/j.jct.2005.04.010
Compound 1: 1-ethyl-3-methylimidazolium bis((trifluoromethyl)sulfonyl)imide, C8H11F6N3O4S2, InChI=1S/C6H11N2.C2F6NO4S2/c1-3-8-5-4-7(2)6-8;3-1(4,5)14(10,11)9-15(12,13)2(6,7)8/h4-6H,3H2,1-2H3;/q+1;-1
Compound 2: 1-butyl-3-methylimidazolium bis(trifluoromethylsulfonyl)imide, C10H15F6N3O4S2, InChI=1S/C8H15N2.C2F6NO4S2/c1-3-4-5-10-7-6-9(2)8-10;3-1(4,5)14(10,11)9-15(12,13)2(6,7)8/h6-8H,3-5H2,1-2H3;/q+1;-1
Compound 3: 1-hexyl-3-methylimidazolium bis[(trifluoromethyl)sulfonyl]imide, C12H19F6N3O4S2, InChI=1S/C10H19N2.C2F6NO4S2/c1-3-4-5-6-7-12-9-8-11(2)10-12;3-1(4,5)14(10,11)9-15(12,13)2(6,7)8/h8-10H,3-7H2,1-2H3;/q+1;-1
Compound 4: 1-octyl-3-methylimidazolium bis[(trifluoromethyl)sulfonyl]imide, C14H23F6N3O4S2, InChI=1S/C12H23N2.C2F6NO4S2/c1-3-4-5-6-7-8-9-14-11-10-13(2)12-14;3-1(4,5)14(10,11)9-15(12,13)2(6,7)8/h10-12H,3-9H2,1-2H3;/q+1;-1
Compound 5: 1-butyl-1-methylpyrrolidinium bis[(trifluoromethyl)sulfonyl]imide, C11H20F6N2O4S2, InChI=1S/C9H20N.C2F6NO4S2/c1-3-4-7-10(2)8-5-6-9-10;3-1(4,5)14(10,11)9-15(12,13)2(6,7)8/h3-9H2,1-2H3;/q+1;-1
Compound 6: pentane, C5H12, InChI=1S/C5H12/c1-3-5-4-2/h3-5H2,1-2H3
Compound 7: hexane, C6H14, InChI=1S/C6H14/c1-3-5-6-4-2/h3-6H2,1-2H3
Compound 8: heptane, C7H16, InChI=1S/C7H16/c1-3-5-7-6-4-2/h3-7H2,1-2H3
Compound 9: octane, C8H18, InChI=1S/C8H18/c1-3-5-7-8-6-4-2/h3-8H2,1-2H3
Compound 10: 1-pentene, C5H10, InChI=1S/C5H10/c1-3-5-4-2/h3H,1,4-5H2,2H3
Compound 11: hex-1-ene, C6H12, InChI=1S/C6H12/c1-3-5-6-4-2/h3H,1,4-6H2,2H3
Compound 12: 1-heptene, C7H14, InChI=1S/C7H14/c1-3-5-7-6-4-2/h3H,1,4-7H2,2H3
Compound 13: oct-1-ene, C8H16, InChI=1S/C8H16/c1-3-5-7-8-6-4-2/h3H,1,4-8H2,2H3
Compound 14: cyclopentane, C5H10, InChI=1S/C5H10/c1-2-4-5-3-1/h1-5H2
Compound 15: cyclohexane, C6H12, InChI=1S/C6H12/c1-2-4-6-5-3-1/h1-6H2
Compound 16: cyclohexene, C6H10, InChI=1S/C6H10/c1-2-4-6-5-3-1/h1-2H,3-6H2
Compound 17: benzene, C6H6, InChI=1S/C6H6/c1-2-4-6-5-3-1/h1-6H
Compound 18: toluene, C7H8, InChI=1S/C7H8/c1-7-5-3-2-4-6-7/h2-6H,1H3
Compound 19: 1,3-dimethylbenzene, C8H10, InChI=1S/C8H10/c1-7-4-3-5-8(2)6-7/h3-6H,1-2H3
Compound 20: 1,4-dimethylbenzene, C8H10, InChI=1S/C8H10/c1-7-3-5-8(2)6-4-7/h3-6H,1-2H3
Compound 21: acetone, C3H6O, InChI=1S/C3H6O/c1-3(2)4/h1-2H3
Compound 22: butanone, C4H8O, InChI=1S/C4H8O/c1-3-4(2)5/h3H2,1-2H3
Compound 23: pentan-2-one, C5H10O, InChI=1S/C5H10O/c1-3-4-5(2)6/h3-4H2,1-2H3
Compound 24: methanol, CH4O, InChI=1S/CH4O/c1-2/h2H,1H3
Compound 25: ethanol, C2H6O, InChI=1S/C2H6O/c1-2-3/h3H,2H2,1H3
Compound 26: propan-1-ol, C3H8O, InChI=1S/C3H8O/c1-2-3-4/h4H,2-3H2,1H3
Compound 27: propan-2-ol, C3H8O, InChI=1S/C3H8O/c1-3(2)4/h3-4H,1-2H3
Compound 28: tetrahydrofuran, C4H8O, InChI=1S/C4H8O/c1-2-4-5-3-1/h1-4H2
Compound 29: diisopropyl ether, C6H14O, InChI=1S/C6H14O/c1-5(2)7-6(3)4/h5-6H,1-4H3
Compound 30: 2-ethoxy-2-methylpropane, C6H14O, InChI=1S/C6H14O/c1-5-7-6(2,3)4/h5H2,1-4H3
Compound 31: 2-methoxy-2-methylbutane, C6H14O, InChI=1S/C6H14O/c1-5-6(2,3)7-4/h5H2,1-4H3
Compound 32: 1,2-dimethylbenzene, C8H10, InChI=1S/C8H10/c1-7-5-3-4-6-8(7)2/h3-6H,1-2H3
Compound 33: water, H2O, InChI=1S/H2O/h1H2
Compound 34: cyclopentene, C5H8, InChI=1S/C5H8/c1-2-4-5-3-1/h1-2H,3-5H2

System: 1-hexyl-3-methylimidazolium bis[(trifluoromethyl)sulfonyl]imide; phases: Liquid
Fixed: Pressure, kPa = 101.325
Property: Mass density, kg/m3 (Liquid); method: VIBTUB:UFactor:16
Temperature, K	Mass density, kg/m3	uncertainty
293.15	1374	5
298.15	1370	5
303.15	1365	5
308.15	1361	5
313.15	1356	5
318.15	1352	5
323.15	1347	5
328.15	1343	5
333.15	1339	5
338.15	1334	5
343.15	1330	5
348.15	1325	5
353.15	1320	5
358.15	1315	5

System: 1-octyl-3-methylimidazolium bis[(trifluoromethyl)sulfonyl]imide; phases: Liquid
Fixed: Pressure, kPa = 101.325
Property: Mass density, kg/m3 (Liquid); method: VIBTUB:UFactor:16
Temperature, K	Mass density, kg/m3	uncertainty
298.15	1325	5
303.15	1320	5
308.15	1316	5
313.15	1311	5
318.15	1307	5
323.15	1303	5
328.15	1298	5
333.15	1294	5
338.15	1289	5
343.15	1285	5

System: 1-butyl-1-methylpyrrolidinium bis[(trifluoromethyl)sulfonyl]imide; phases: Liquid
Fixed: Pressure, kPa = 101.325
Property: Mass density, kg/m3 (Liquid); method: VIBTUB:UFactor:16
Temperature, K	Mass density, kg/m3	uncertainty
298.15	1394	5
303.15	1390	5
308.15	1388	5
313.15	1386	5
318.15	1383	5
323.15	1381	5
328.15	1379	5
333.15	1377	5
338.15	1373	5
343.15	1370	5
348.15	1366	5

System: pentane + 1-hexyl-3-methylimidazolium bis[(trifluoromethyl)sulfonyl]imide; phases: Liquid, Gas
Fixed: Mole fraction of pentane = 0
Property: Activity coefficient of pentane (Liquid); method: dilutor
Temperature, K	Activity coefficient of pentane	uncertainty
303.15	5.93	0.3
313.15	5.67	0.28
323.15	5.48	0.27
333.15	5.27	0.26

System: pentane + 1-hexyl-3-methylimidazolium bis[(trifluoromethyl)sulfonyl]imide; phases: Liquid, Gas
Fixed: Mole fraction of pentane = 0
Property: Activity coefficient of pentane (Liquid); method: Chromatography
Temperature, K	Activity coefficient of pentane	uncertainty
303.15	5.95	0.27
313.15	5.76	0.26
323.15	5.65	0.26
333.15	5.52	0.25

System: hexane + 1-hexyl-3-methylimidazolium bis[(trifluoromethyl)sulfonyl]imide; phases: Liquid, Gas
Fixed: Mole fraction of hexane = 0
Property: Activity coefficient of hexane (Liquid); method: Chromatography
Temperature, K	Activity coefficient of hexane	uncertainty
303.15	8.23	0.38
313.15	7.82	0.36
323.15	7.48	0.34
333.15	7.27	0.33

System: hexane + 1-hexyl-3-methylimidazolium bis[(trifluoromethyl)sulfonyl]imide; phases: Liquid, Gas
Fixed: Mole fraction of hexane = 0
Property: Activity coefficient of hexane (Liquid); method: dilutor
Temperature, K	Activity coefficient of hexane	uncertainty
303.15	7.82	0.39
313.15	7.55	0.38
323.15	6.96	0.35
333.15	6.55	0.33

System: heptane + 1-hexyl-3-methylimidazolium bis[(trifluoromethyl)sulfonyl]imide; phases: Liquid, Gas
Fixed: Mole fraction of heptane = 0
Property: Activity coefficient of heptane (Liquid); method: dilutor
Temperature, K	Activity coefficient of heptane	uncertainty
303.15	11	0.6
313.15	10.6	0.5
323.15	10.1	0.5
333.15	9.77	0.49

System: heptane + 1-hexyl-3-methylimidazolium bis[(trifluoromethyl)sulfonyl]imide; phases: Liquid, Gas
Fixed: Mole fraction of heptane = 0
Property: Activity coefficient of heptane (Liquid); method: Chromatography
Temperature, K	Activity coefficient of heptane	uncertainty
303.15	11.2	0.5
313.15	10.6	0.5
323.15	10	0.5
333.15	9.67	0.44

System: octane + 1-hexyl-3-methylimidazolium bis[(trifluoromethyl)sulfonyl]imide; phases: Liquid, Gas
Fixed: Mole fraction of octane = 0
Property: Activity coefficient of octane (Liquid); method: dilutor
Temperature, K	Activity coefficient of octane	uncertainty
303.15	14.4	0.7
313.15	14.1	0.7
323.15	13.1	0.7
333.15	12.8	0.6

System: octane + 1-hexyl-3-methylimidazolium bis[(trifluoromethyl)sulfonyl]imide; phases: Liquid, Gas
Fixed: Mole fraction of octane = 0
Property: Activity coefficient of octane (Liquid); method: Chromatography
Temperature, K	Activity coefficient of octane	uncertainty
303.15	15.2	0.7
313.15	14.3	0.7
323.15	13.5	0.6
333.15	13	0.6

System: 1-pentene + 1-hexyl-3-methylimidazolium bis[(trifluoromethyl)sulfonyl]imide; phases: Liquid, Gas
Fixed: Mole fraction of 1-pentene = 0
Property: Activity coefficient of 1-pentene (Liquid); method: dilutor
Temperature, K	Activity coefficient of 1-pentene	uncertainty
303.15	3.36	0.17
313.15	3.33	0.17
323.15	3.3	0.17
333.15	3.23	0.16

System: 1-pentene + 1-hexyl-3-methylimidazolium bis[(trifluoromethyl)sulfonyl]imide; phases: Liquid, Gas
Fixed: Mole fraction of 1-pentene = 0
Property: Activity coefficient of 1-pentene (Liquid); method: Chromatography
Temperature, K	Activity coefficient of 1-pentene	uncertainty
303.15	3.47	0.16
313.15	3.4	0.15
323.15	3.3	0.15
333.15	3.31	0.15

System: hex-1-ene + 1-hexyl-3-methylimidazolium bis[(trifluoromethyl)sulfonyl]imide; phases: Liquid, Gas
Fixed: Mole fraction of hex-1-ene = 0
Property: Activity coefficient of hex-1-ene (Liquid); method: dilutor
Temperature, K	Activity coefficient of hex-1-ene	uncertainty
303.15	4.64	0.23
313.15	4.56	0.23
323.15	4.48	0.22
333.15	4.39	0.22

System: hex-1-ene + 1-hexyl-3-methylimidazolium bis[(trifluoromethyl)sulfonyl]imide; phases: Liquid, Gas
Fixed: Mole fraction of hex-1-ene = 0
Property: Activity coefficient of hex-1-ene (Liquid); method: Chromatography
Temperature, K	Activity coefficient of hex-1-ene	uncertainty
303.15	4.71	0.21
313.15	4.61	0.21
323.15	4.48	0.2
333.15	4.44	0.2

System: 1-heptene + 1-hexyl-3-methylimidazolium bis[(trifluoromethyl)sulfonyl]imide; phases: Liquid, Gas
Fixed: Mole fraction of 1-heptene = 0
Property: Activity coefficient of 1-heptene (Liquid); method: dilutor
Temperature, K	Activity coefficient of 1-heptene	uncertainty
303.15	6.28	0.31
313.15	6.12	0.31
323.15	5.96	0.3
333.15	5.86	0.29

System: 1-heptene + 1-hexyl-3-methylimidazolium bis[(trifluoromethyl)sulfonyl]imide; phases: Liquid, Gas
Fixed: Mole fraction of 1-heptene = 0
Property: Activity coefficient of 1-heptene (Liquid); method: Chromatography
Temperature, K	Activity coefficient of 1-heptene	uncertainty
303.15	6.46	0.3
313.15	6.28	0.29
323.15	6.09	0.28
333.15	5.96	0.27

System: oct-1-ene + 1-hexyl-3-methylimidazolium bis[(trifluoromethyl)sulfonyl]imide; phases: Liquid, Gas
Fixed: Mole fraction of oct-1-ene = 0
Property: Activity coefficient of oct-1-ene (Liquid); method: dilutor
Temperature, K	Activity coefficient of oct-1-ene	uncertainty
303.15	8.28	0.41
313.15	8.08	0.4
323.15	7.92	0.4
333.15	7.77	0.39

System: oct-1-ene + 1-hexyl-3-methylimidazolium bis[(trifluoromethyl)sulfonyl]imide; phases: Liquid, Gas
Fixed: Mole fraction of oct-1-ene = 0
Property: Activity coefficient of oct-1-ene (Liquid); method: Chromatography
Temperature, K	Activity coefficient of oct-1-ene	uncertainty
303.15	8.81	0.4
313.15	8.47	0.39
323.15	8.18	0.38
333.15	7.9	0.36

System: cyclopentane + 1-hexyl-3-methylimidazolium bis[(trifluoromethyl)sulfonyl]imide; phases: Liquid, Gas
Fixed: Mole fraction of cyclopentane = 0
Property: Activity coefficient of cyclopentane (Liquid); method: dilutor
Temperature, K	Activity coefficient of cyclopentane	uncertainty
303.15	3.64	0.18
313.15	3.48	0.17
323.15	3.27	0.16
333.15	3.26	0.16

System: cyclohexane + 1-hexyl-3-methylimidazolium bis[(trifluoromethyl)sulfonyl]imide; phases: Liquid, Gas
Fixed: Mole fraction of cyclohexane = 0
Property: Activity coefficient of cyclohexane (Liquid); method: dilutor
Temperature, K	Activity coefficient of cyclohexane	uncertainty
303.15	5.29	0.26
313.15	5.01	0.25
323.15	4.78	0.24
333.15	4.68	0.23

System: cyclohexane + 1-hexyl-3-methylimidazolium bis[(trifluoromethyl)sulfonyl]imide; phases: Liquid, Gas
Fixed: Mole fraction of cyclohexane = 0
Property: Activity coefficient of cyclohexane (Liquid); method: Chromatography
Temperature, K	Activity coefficient of cyclohexane	uncertainty
303.15	5.48	0.25
313.15	5.15	0.24
323.15	4.9	0.22
333.15	4.75	0.22

System: cyclohexane + 1-hexyl-3-methylimidazolium bis[(trifluoromethyl)sulfonyl]imide; phases: Liquid, Gas
Fixed: Temperature, K = 353.23
Property: Vapor or sublimation pressure, kPa (Liquid); method: CCELL:UFactor:8
Mole fraction of cyclohexane	Vapor or sublimation pressure, kPa	uncertainty
0.031	9.94	0.38
0.0641	21.92	0.7
0.0951	34.51	1.03
0.1252	47.12	1.36
0.1502	57.12	1.62
0.2165	79.44	2.2
0.2939	97.39	2.65
0.6908	99.72	2.64
0.7408	99.83	2.63
0.7903	99.97	2.63
0.9993	99.81	2.61
1	99.58	2.6

System: cyclohexene + 1-hexyl-3-methylimidazolium bis[(trifluoromethyl)sulfonyl]imide; phases: Liquid, Gas
Fixed: Mole fraction of cyclohexene = 0
Property: Activity coefficient of cyclohexene (Liquid); method: dilutor
Temperature, K	Activity coefficient of cyclohexene	uncertainty
303.15	3.2	0.16
313.15	3.15	0.16
323.15	3.07	0.15
333.15	3.01	0.15

System: cyclohexene + 1-hexyl-3-methylimidazolium bis[(trifluoromethyl)sulfonyl]imide; phases: Liquid, Gas
Fixed: Mole fraction of cyclohexene = 0
Property: Activity coefficient of cyclohexene (Liquid); method: Chromatography
Temperature, K	Activity coefficient of cyclohexene	uncertainty
303.15	3.42	0.16
313.15	3.28	0.15
323.15	3.18	0.14
333.15	3.14	0.14

System: cyclohexene + 1-hexyl-3-methylimidazolium bis[(trifluoromethyl)sulfonyl]imide; phases: Liquid, Gas
Fixed: Temperature, K = 353.41
Property: Vapor or sublimation pressure, kPa (Liquid); method: CCELL:UFactor:8
Mole fraction of cyclohexene	Vapor or sublimation pressure, kPa	uncertainty
0.0432	10.81	0.41
0.0624	16.67	0.56
0.0821	22.36	0.71
0.102	28.19	0.86
0.139	38.15	1.12
0.228	59.54	1.67
0.309	76.27	2.1
0.394	89.84	2.43
0.485	94.21	2.53
0.576	94.21	2.51
0.653	94.13	2.5
0.717	94.03	2.49
0.768	93.93	2.48
0.818	93.99	2.48
0.856	94.01	2.47
0.89	94.02	2.47
0.92	94.03	2.47
0.945	94.04	2.47
0.963	94.05	2.47
0.976	94.05	2.47
0.986	94.06	2.47
0.993	94.07	2.47
0.996	94.07	2.46
0.998	94.07	2.46
0.999	94.07	2.46
0.999	94.06	2.46
1	94.04	2.46

System: benzene + 1-hexyl-3-methylimidazolium bis[(trifluoromethyl)sulfonyl]imide; phases: Liquid, Gas
Fixed: Mole fraction of benzene = 0
Property: Activity coefficient of benzene (Liquid); method: Chromatography
Temperature, K	Activity coefficient of benzene	uncertainty
303.15	0.75	0.03
313.15	0.76	0.03
323.15	0.78	0.03
333.15	0.79	0.03

System: toluene + 1-hexyl-3-methylimidazolium bis[(trifluoromethyl)sulfonyl]imide; phases: Liquid, Gas
Fixed: Mole fraction of toluene = 0
Property: Activity coefficient of toluene (Liquid); method: Chromatography
Temperature, K	Activity coefficient of toluene	uncertainty
303.15	1.01	0.03
313.15	1.03	0.03
323.15	1.05	0.03
333.15	1.08	0.03

System: 1,3-dimethylbenzene + 1-hexyl-3-methylimidazolium bis[(trifluoromethyl)sulfonyl]imide; phases: Liquid, Gas
Fixed: Mole fraction of 1,3-dimethylbenzene = 0
Property: Activity coefficient of 1,3-dimethylbenzene (Liquid); method: Chromatography
Temperature, K	Activity coefficient of 1,3-dimethylbenzene	uncertainty
303.15	1.4	0.05
313.15	1.41	0.05
323.15	1.46	0.06
333.15	1.5	0.06

System: 1,4-dimethylbenzene + 1-hexyl-3-methylimidazolium bis[(trifluoromethyl)sulfonyl]imide; phases: Liquid, Gas
Fixed: Mole fraction of 1,4-dimethylbenzene = 0
Property: Activity coefficient of 1,4-dimethylbenzene (Liquid); method: Chromatography
Temperature, K	Activity coefficient of 1,4-dimethylbenzene	uncertainty
303.15	1.42	0.05
313.15	1.42	0.05
323.15	1.48	0.06
333.15	1.51	0.06

System: acetone + 1-hexyl-3-methylimidazolium bis[(trifluoromethyl)sulfonyl]imide; phases: Liquid, Gas
Fixed: Mole fraction of acetone = 0
Property: Activity coefficient of acetone (Liquid); method: dilutor
Temperature, K	Activity coefficient of acetone	uncertainty
303.15	0.31	0.02
313.15	0.32	0.02
323.15	0.34	0.02
333.15	0.34	0.02

System: butanone + 1-hexyl-3-methylimidazolium bis[(trifluoromethyl)sulfonyl]imide; phases: Liquid, Gas
Fixed: Mole fraction of butanone = 0
Property: Activity coefficient of butanone (Liquid); method: Chromatography
Temperature, K	Activity coefficient of butanone	uncertainty
303.15	0.41	0.03
313.15	0.42	0.03
323.15	0.44	0.03
333.15	0.44	0.03

System: pentan-2-one + 1-hexyl-3-methylimidazolium bis[(trifluoromethyl)sulfonyl]imide; phases: Liquid, Gas
Fixed: Mole fraction of pentan-2-one = 0
Property: Activity coefficient of pentan-2-one (Liquid); method: Chromatography
Temperature, K	Activity coefficient of pentan-2-one	uncertainty
303.15	0.51	0.03
313.15	0.52	0.03
323.15	0.54	0.03
333.15	0.55	0.03

System: methanol + 1-hexyl-3-methylimidazolium bis[(trifluoromethyl)sulfonyl]imide; phases: Liquid, Gas
Fixed: Mole fraction of methanol = 0
Property: Activity coefficient of methanol (Liquid); method: dilutor
Temperature, K	Activity coefficient of methanol	uncertainty
313.15	1.16	0.06
323.15	1.14	0.06
333.15	1.05	0.05

System: methanol + 1-hexyl-3-methylimidazolium bis[(trifluoromethyl)sulfonyl]imide; phases: Liquid, Gas
Fixed: Mole fraction of methanol = 0
Property: Activity coefficient of methanol (Liquid); method: Chromatography
Temperature, K	Activity coefficient of methanol	uncertainty
303.15	1.3	0.04
313.15	1.19	0.04
323.15	1.1	0.03
333.15	1.02	0.03

System: methanol + 1-hexyl-3-methylimidazolium bis[(trifluoromethyl)sulfonyl]imide; phases: Liquid, Gas
Fixed: Temperature, K = 353.11
Property: Vapor or sublimation pressure, kPa (Liquid); method: CCELL:UFactor:8
Mole fraction of methanol	Vapor or sublimation pressure, kPa	uncertainty
0.136	20.72	0.66
0.232	38.03	1.11
0.306	51.92	1.47
0.373	65.1	1.8
0.422	75.05	2.05
0.529	96.18	2.57
0.613	112.05	2.96
0.685	125.68	3.29
0.749	137.1	3.57
0.803	146.63	3.8
0.847	154.18	3.98
0.86	155.85	4.02
0.86	155.84	4.02
0.86	155.84	4.02
0.879	159.48	4.11
0.887	160.36	4.13
0.902	163.43	4.2
0.912	164.46	4.23
0.92	166.42	4.27
0.92	166.41	4.27
0.934	168.13	4.32
0.952	171.27	4.39
0.967	173.85	4.45
0.978	175.78	4.5
0.986	177.07	4.53
0.992	178.15	4.56
0.996	179.1	4.58
0.998	179.5	4.59
0.999	179.79	4.6
1	179.93	4.6

System: ethanol + 1-hexyl-3-methylimidazolium bis[(trifluoromethyl)sulfonyl]imide; phases: Liquid, Gas
Fixed: Mole fraction of ethanol = 0
Property: Activity coefficient of ethanol (Liquid); method: Chromatography
Temperature, K	Activity coefficient of ethanol	uncertainty
303.15	1.6	0.06
313.15	1.47	0.06
323.15	1.36	0.05
333.15	1.27	0.04

System: ethanol + 1-hexyl-3-methylimidazolium bis[(trifluoromethyl)sulfonyl]imide; phases: Liquid, Gas
Fixed: Temperature, K = 353.16
Property: Vapor or sublimation pressure, kPa (Liquid); method: CCELL:UFactor:8
Mole fraction of ethanol	Vapor or sublimation pressure, kPa	uncertainty
0.062	9.01	0.36
0.118	16.55	0.56
0.168	23.12	0.73
0.214	29.23	0.88
0.26	34.96	1.03
0.375	48.83	1.38
0.476	60.49	1.67
0.568	70.33	1.91
0.65	78.62	2.11
0.725	85.67	2.28
0.784	90.87	2.4
0.81	93.34	2.46
0.828	94.54	2.49
0.845	96.15	2.53
0.86	97.19	2.55
0.878	98.68	2.59
0.885	99.21	2.6
0.908	100.89	2.64
0.933	102.76	2.69
0.954	104.26	2.72
0.969	105.38	2.75
0.98	106.21	2.77
0.988	106.86	2.78
0.994	107.35	2.8
0.996	107.58	2.8
0.998	107.72	2.8
0.999	107.81	2.81
1	107.91	2.81

System: propan-1-ol + 1-hexyl-3-methylimidazolium bis[(trifluoromethyl)sulfonyl]imide; phases: Liquid, Gas
Fixed: Mole fraction of propan-1-ol = 0
Property: Activity coefficient of propan-1-ol (Liquid); method: Chromatography
Temperature, K	Activity coefficient of propan-1-ol	uncertainty
303.15	1.9	0.08
313.15	1.71	0.07
323.15	1.57	0.06
333.15	1.45	0.05

System: propan-2-ol + 1-hexyl-3-methylimidazolium bis[(trifluoromethyl)sulfonyl]imide; phases: Liquid, Gas
Fixed: Mole fraction of propan-2-ol = 0
Property: Activity coefficient of propan-2-ol (Liquid); method: dilutor
Temperature, K	Activity coefficient of propan-2-ol	uncertainty
303.15	1.72	0.09
313.15	1.48	0.07
323.15	1.37	0.07
333.15	1.23	0.06

System: propan-2-ol + 1-hexyl-3-methylimidazolium bis[(trifluoromethyl)sulfonyl]imide; phases: Liquid, Gas
Fixed: Mole fraction of propan-2-ol = 0
Property: Activity coefficient of propan-2-ol (Liquid); method: Chromatography
Temperature, K	Activity coefficient of propan-2-ol	uncertainty
303.15	1.71	0.07
313.15	1.55	0.06
323.15	1.44	0.05
333.15	1.33	0.05

System: tetrahydrofuran + 1-hexyl-3-methylimidazolium bis[(trifluoromethyl)sulfonyl]imide; phases: Liquid, Gas
Fixed: Mole fraction of tetrahydrofuran = 0
Property: Activity coefficient of tetrahydrofuran (Liquid); method: Chromatography
Temperature, K	Activity coefficient of tetrahydrofuran	uncertainty
303.15	0.49	0.03
313.15	0.51	0.03
323.15	0.53	0.03
333.15	0.55	0.03

System: diisopropyl ether + 1-hexyl-3-methylimidazolium bis[(trifluoromethyl)sulfonyl]imide; phases: Liquid, Gas
Fixed: Mole fraction of diisopropyl ether = 0
Property: Activity coefficient of diisopropyl ether (Liquid); method: Chromatography
Temperature, K	Activity coefficient of diisopropyl ether	uncertainty
303.15	2.76	0.13
313.15	2.82	0.13
323.15	2.85	0.13
333.15	2.92	0.13

System: 2-ethoxy-2-methylpropane + 1-hexyl-3-methylimidazolium bis[(trifluoromethyl)sulfonyl]imide; phases: Liquid, Gas
Fixed: Mole fraction of 2-ethoxy-2-methylpropane = 0
Property: Activity coefficient of 2-ethoxy-2-methylpropane (Liquid); method: Chromatography
Temperature, K	Activity coefficient of 2-ethoxy-2-methylpropane	uncertainty
303.15	2.69	0.12
313.15	2.74	0.12
323.15	2.76	0.13
333.15	2.82	0.13

System: 2-methoxy-2-methylbutane + 1-hexyl-3-methylimidazolium bis[(trifluoromethyl)sulfonyl]imide; phases: Liquid, Gas
Fixed: Mole fraction of 2-methoxy-2-methylbutane = 0
Property: Activity coefficient of 2-methoxy-2-methylbutane (Liquid); method: Chromatography
Temperature, K	Activity coefficient of 2-methoxy-2-methylbutane	uncertainty
303.15	1.83	0.08
313.15	1.9	0.08
323.15	1.94	0.09
333.15	2.02	0.09

System: pentane + 1-octyl-3-methylimidazolium bis[(trifluoromethyl)sulfonyl]imide; phases: Liquid, Gas
Fixed: Mole fraction of pentane = 0
Property: Activity coefficient of pentane (Liquid); method: Chromatography
Temperature, K	Activity coefficient of pentane	uncertainty
303.15	4.07	0.19
313.15	3.94	0.18
323.15	3.78	0.17
333.15	3.6	0.16

System: pentane + 1-octyl-3-methylimidazolium bis[(trifluoromethyl)sulfonyl]imide; phases: Liquid, Gas
Fixed: Mole fraction of pentane = 0
Property: Activity coefficient of pentane (Liquid); method: dilutor
Temperature, K	Activity coefficient of pentane	uncertainty
303.15	3.98	0.2
313.15	3.92	0.2
323.15	3.87	0.19
333.15	3.84	0.19

System: hexane + 1-octyl-3-methylimidazolium bis[(trifluoromethyl)sulfonyl]imide; phases: Liquid, Gas
Fixed: Mole fraction of hexane = 0
Property: Activity coefficient of hexane (Liquid); method: Chromatography
Temperature, K	Activity coefficient of hexane	uncertainty
303.15	5.32	0.24
313.15	5.13	0.23
323.15	4.92	0.22
333.15	4.8	0.22

System: hexane + 1-octyl-3-methylimidazolium bis[(trifluoromethyl)sulfonyl]imide; phases: Liquid, Gas
Fixed: Mole fraction of hexane = 0
Property: Activity coefficient of hexane (Liquid); method: dilutor
Temperature, K	Activity coefficient of hexane	uncertainty
303.15	5.44	0.27
313.15	5.26	0.26
323.15	5.13	0.26
333.15	4.97	0.25

System: heptane + 1-octyl-3-methylimidazolium bis[(trifluoromethyl)sulfonyl]imide; phases: Liquid, Gas
Fixed: Mole fraction of heptane = 0
Property: Activity coefficient of heptane (Liquid); method: Chromatography
Temperature, K	Activity coefficient of heptane	uncertainty
303.15	6.82	0.31
313.15	6.55	0.3
323.15	6.38	0.29
333.15	6.21	0.28

System: heptane + 1-octyl-3-methylimidazolium bis[(trifluoromethyl)sulfonyl]imide; phases: Liquid, Gas
Fixed: Mole fraction of heptane = 0
Property: Activity coefficient of heptane (Liquid); method: dilutor
Temperature, K	Activity coefficient of heptane	uncertainty
303.15	7.01	0.35
313.15	6.81	0.34
323.15	6.57	0.33
333.15	6.4	0.32

System: octane + 1-octyl-3-methylimidazolium bis[(trifluoromethyl)sulfonyl]imide; phases: Liquid, Gas
Fixed: Mole fraction of octane = 0
Property: Activity coefficient of octane (Liquid); method: Chromatography
Temperature, K	Activity coefficient of octane	uncertainty
303.15	8.92	0.41
313.15	8.43	0.39
323.15	8.14	0.37
333.15	7.82	0.36

System: 1-pentene + 1-octyl-3-methylimidazolium bis[(trifluoromethyl)sulfonyl]imide; phases: Liquid, Gas
Fixed: Mole fraction of 1-pentene = 0
Property: Activity coefficient of 1-pentene (Liquid); method: Chromatography
Temperature, K	Activity coefficient of 1-pentene	uncertainty
303.15	2.52	0.11
313.15	2.53	0.11
323.15	2.46	0.11
333.15	2.45	0.11

System: 1-pentene + 1-octyl-3-methylimidazolium bis[(trifluoromethyl)sulfonyl]imide; phases: Liquid, Gas
Fixed: Mole fraction of 1-pentene = 0
Property: Activity coefficient of 1-pentene (Liquid); method: dilutor
Temperature, K	Activity coefficient of 1-pentene	uncertainty
303.15	2.54	0.13
313.15	2.53	0.13
323.15	2.53	0.13
333.15	2.52	0.13

System: hex-1-ene + 1-octyl-3-methylimidazolium bis[(trifluoromethyl)sulfonyl]imide; phases: Liquid, Gas
Fixed: Mole fraction of hex-1-ene = 0
Property: Activity coefficient of hex-1-ene (Liquid); method: Chromatography
Temperature, K	Activity coefficient of hex-1-ene	uncertainty
303.15	3.29	0.15
313.15	3.27	0.15
323.15	3.18	0.14
333.15	3.18	0.14

System: hex-1-ene + 1-octyl-3-methylimidazolium bis[(trifluoromethyl)sulfonyl]imide; phases: Liquid, Gas
Fixed: Mole fraction of hex-1-ene = 0
Property: Activity coefficient of hex-1-ene (Liquid); method: dilutor
Temperature, K	Activity coefficient of hex-1-ene	uncertainty
303.15	3.33	0.17
313.15	3.3	0.17
323.15	3.27	0.16
333.15	3.23	0.16

System: 1-heptene + 1-octyl-3-methylimidazolium bis[(trifluoromethyl)sulfonyl]imide; phases: Liquid, Gas
Fixed: Mole fraction of 1-heptene = 0
Property: Activity coefficient of 1-heptene (Liquid); method: Chromatography
Temperature, K	Activity coefficient of 1-heptene	uncertainty
303.15	4.29	0.2
313.15	4.23	0.19
323.15	4.13	0.19
333.15	4.13	0.19

System: 1-heptene + 1-octyl-3-methylimidazolium bis[(trifluoromethyl)sulfonyl]imide; phases: Liquid, Gas
Fixed: Mole fraction of 1-heptene = 0
Property: Activity coefficient of 1-heptene (Liquid); method: dilutor
Temperature, K	Activity coefficient of 1-heptene	uncertainty
303.15	4.33	0.22
313.15	4.26	0.21
323.15	4.2	0.21
333.15	4.15	0.21

System: oct-1-ene + 1-octyl-3-methylimidazolium bis[(trifluoromethyl)sulfonyl]imide; phases: Liquid, Gas
Fixed: Mole fraction of oct-1-ene = 0
Property: Activity coefficient of oct-1-ene (Liquid); method: Chromatography
Temperature, K	Activity coefficient of oct-1-ene	uncertainty
303.15	5.57	0.25
313.15	5.48	0.25
323.15	5.32	0.24
333.15	5.28	0.24

System: cyclopentane + 1-octyl-3-methylimidazolium bis[(trifluoromethyl)sulfonyl]imide; phases: Liquid, Gas
Fixed: Mole fraction of cyclopentane = 0
Property: Activity coefficient of cyclopentane (Liquid); method: dilutor
Temperature, K	Activity coefficient of cyclopentane	uncertainty
303.15	2.68	0.13
313.15	2.64	0.13
323.15	2.59	0.13
333.15	2.56	0.13

System: cyclohexane + 1-octyl-3-methylimidazolium bis[(trifluoromethyl)sulfonyl]imide; phases: Liquid, Gas
Fixed: Mole fraction of cyclohexane = 0
Property: Activity coefficient of cyclohexane (Liquid); method: Chromatography
Temperature, K	Activity coefficient of cyclohexane	uncertainty
303.15	3.64	0.17
313.15	3.52	0.16
323.15	3.36	0.15
333.15	3.29	0.15

System: cyclohexane + 1-octyl-3-methylimidazolium bis[(trifluoromethyl)sulfonyl]imide; phases: Liquid, Gas
Fixed: Mole fraction of cyclohexane = 0
Property: Activity coefficient of cyclohexane (Liquid); method: dilutor
Temperature, K	Activity coefficient of cyclohexane	uncertainty
303.15	3.67	0.18
313.15	3.59	0.18
323.15	3.48	0.17
333.15	3.39	0.17

System: cyclohexene + 1-octyl-3-methylimidazolium bis[(trifluoromethyl)sulfonyl]imide; phases: Liquid, Gas
Fixed: Mole fraction of cyclohexene = 0
Property: Activity coefficient of cyclohexene (Liquid); method: Chromatography
Temperature, K	Activity coefficient of cyclohexene	uncertainty
303.15	2.41	0.11
313.15	2.38	0.11
323.15	2.31	0.1
333.15	2.29	0.1

System: cyclohexene + 1-octyl-3-methylimidazolium bis[(trifluoromethyl)sulfonyl]imide; phases: Liquid, Gas
Fixed: Mole fraction of cyclohexene = 0
Property: Activity coefficient of cyclohexene (Liquid); method: dilutor
Temperature, K	Activity coefficient of cyclohexene	uncertainty
303.15	2.44	0.12
313.15	2.38	0.12
323.15	2.33	0.12
333.15	2.28	0.11

System: benzene + 1-octyl-3-methylimidazolium bis[(trifluoromethyl)sulfonyl]imide; phases: Liquid, Gas
Fixed: Mole fraction of benzene = 0
Property: Activity coefficient of benzene (Liquid); method: Chromatography
Temperature, K	Activity coefficient of benzene	uncertainty
303.15	0.63	0.03
313.15	0.65	0.03
323.15	0.65	0.03
333.15	0.66	0.03

System: toluene + 1-octyl-3-methylimidazolium bis[(trifluoromethyl)sulfonyl]imide; phases: Liquid, Gas
Fixed: Mole fraction of toluene = 0
Property: Activity coefficient of toluene (Liquid); method: Chromatography
Temperature, K	Activity coefficient of toluene	uncertainty
303.15	0.82	0.03
313.15	0.83	0.03
323.15	0.85	0.03
333.15	0.85	0.03

System: 1,3-dimethylbenzene + 1-octyl-3-methylimidazolium bis[(trifluoromethyl)sulfonyl]imide; phases: Liquid, Gas
Fixed: Mole fraction of 1,3-dimethylbenzene = 0
Property: Activity coefficient of 1,3-dimethylbenzene (Liquid); method: Chromatography
Temperature, K	Activity coefficient of 1,3-dimethylbenzene	uncertainty
303.15	1.13	0.03
313.15	1.15	0.04
323.15	1.17	0.04
333.15	1.19	0.04

System: 1,2-dimethylbenzene + 1-octyl-3-methylimidazolium bis[(trifluoromethyl)sulfonyl]imide; phases: Liquid, Gas
Fixed: Mole fraction of 1,2-dimethylbenzene = 0
Property: Activity coefficient of 1,2-dimethylbenzene (Liquid); method: Chromatography
Temperature, K	Activity coefficient of 1,2-dimethylbenzene	uncertainty
303.15	0.98	0.03
313.15	1.03	0.03
323.15	1.03	0.03
333.15	1.05	0.03

System: 1,4-dimethylbenzene + 1-octyl-3-methylimidazolium bis[(trifluoromethyl)sulfonyl]imide; phases: Liquid, Gas
Fixed: Mole fraction of 1,4-dimethylbenzene = 0
Property: Activity coefficient of 1,4-dimethylbenzene (Liquid); method: Chromatography
Temperature, K	Activity coefficient of 1,4-dimethylbenzene	uncertainty
303.15	1.11	0.03
313.15	1.13	0.03
323.15	1.16	0.04
333.15	1.16	0.04

System: methanol + 1-octyl-3-methylimidazolium bis[(trifluoromethyl)sulfonyl]imide; phases: Liquid, Gas
Fixed: Mole fraction of methanol = 0
Property: Activity coefficient of methanol (Liquid); method: Chromatography
Temperature, K	Activity coefficient of methanol	uncertainty
303.15	1.23	0.04
313.15	1.14	0.03
323.15	1.03	0.03
333.15	0.96	0.03

System: ethanol + 1-octyl-3-methylimidazolium bis[(trifluoromethyl)sulfonyl]imide; phases: Liquid, Gas
Fixed: Mole fraction of ethanol = 0
Property: Activity coefficient of ethanol (Liquid); method: Chromatography
Temperature, K	Activity coefficient of ethanol	uncertainty
303.15	1.46	0.06
313.15	1.34	0.05
323.15	1.22	0.04
333.15	1.12	0.03

System: propan-1-ol + 1-octyl-3-methylimidazolium bis[(trifluoromethyl)sulfonyl]imide; phases: Liquid, Gas
Fixed: Mole fraction of propan-1-ol = 0
Property: Activity coefficient of propan-1-ol (Liquid); method: Chromatography
Temperature, K	Activity coefficient of propan-1-ol	uncertainty
303.15	1.67	0.07
313.15	1.51	0.06
323.15	1.35	0.05
333.15	1.24	0.04

System: water + 1-octyl-3-methylimidazolium bis[(trifluoromethyl)sulfonyl]imide; phases: Liquid, Gas
Fixed: Mole fraction of water = 0
Property: Activity coefficient of water (Liquid); method: Chromatography
Temperature, K	Activity coefficient of water	uncertainty
303.15	3.89	0.18
313.15	3.52	0.16
323.15	3.03	0.14
333.15	2.58	0.12

System: water + 1-octyl-3-methylimidazolium bis[(trifluoromethyl)sulfonyl]imide; phases: Liquid, Gas
Fixed: Mole fraction of water = 0
Property: Activity coefficient of water (Liquid); method: dilutor
Temperature, K	Activity coefficient of water	uncertainty
303.15	3.76	0.19
313.15	3.51	0.18
323.15	3.29	0.16

System: cyclopentene + 1-octyl-3-methylimidazolium bis[(trifluoromethyl)sulfonyl]imide; phases: Liquid, Gas
Fixed: Mole fraction of cyclopentene = 0
Property: Activity coefficient of cyclopentene (Liquid); method: dilutor
Temperature, K	Activity coefficient of cyclopentene	uncertainty
303.15	1.86	0.09
313.15	1.84	0.09
323.15	1.81	0.09
333.15	1.78	0.09

System: pentane + 1-butyl-1-methylpyrrolidinium bis[(trifluoromethyl)sulfonyl]imide; phases: Liquid, Gas
Fixed: Mole fraction of pentane = 0
Property: Activity coefficient of pentane (Liquid); method: dilutor
Temperature, K	Activity coefficient of pentane	uncertainty
303.15	9.22	0.46
313.15	9.18	0.46
323.15	8.62	0.43
333.15	8.29	0.41

System: hexane + 1-butyl-1-methylpyrrolidinium bis[(trifluoromethyl)sulfonyl]imide; phases: Liquid, Gas
Fixed: Mole fraction of hexane = 0
Property: Activity coefficient of hexane (Liquid); method: dilutor
Temperature, K	Activity coefficient of hexane	uncertainty
303.15	13.8	0.7
313.15	13.3	0.7
323.15	12.1	0.6
333.15	11	0.6

System: heptane + 1-butyl-1-methylpyrrolidinium bis[(trifluoromethyl)sulfonyl]imide; phases: Liquid, Gas
Fixed: Mole fraction of heptane = 0
Property: Activity coefficient of heptane (Liquid); method: dilutor
Temperature, K	Activity coefficient of heptane	uncertainty
303.15	20.7	1
313.15	19.3	1
323.15	18.2	0.9
333.15	17.2	0.9

System: octane + 1-butyl-1-methylpyrrolidinium bis[(trifluoromethyl)sulfonyl]imide; phases: Liquid, Gas
Fixed: Mole fraction of octane = 0
Property: Activity coefficient of octane (Liquid); method: dilutor
Temperature, K	Activity coefficient of octane	uncertainty
303.15	28.3	1.4
313.15	26.5	1.3
323.15	25.2	1.3
333.15	23.7	1.2

System: cyclopentane + 1-butyl-1-methylpyrrolidinium bis[(trifluoromethyl)sulfonyl]imide; phases: Liquid, Gas
Fixed: Mole fraction of cyclopentane = 0
Property: Activity coefficient of cyclopentane (Liquid); method: dilutor
Temperature, K	Activity coefficient of cyclopentane	uncertainty
303.15	6.14	0.31
313.15	5.7	0.29
323.15	5.41	0.27
333.15	5.12	0.26

System: cyclohexane + 1-butyl-1-methylpyrrolidinium bis[(trifluoromethyl)sulfonyl]imide; phases: Liquid, Gas
Fixed: Mole fraction of cyclohexane = 0
Property: Activity coefficient of cyclohexane (Liquid); method: dilutor
Temperature, K	Activity coefficient of cyclohexane	uncertainty
303.15	8.75	0.44
313.15	8.43	0.42
323.15	7.91	0.4
333.15	7.42	0.37

System: benzene + 1-butyl-1-methylpyrrolidinium bis[(trifluoromethyl)sulfonyl]imide; phases: Liquid, Gas
Fixed: Mole fraction of benzene = 0
Property: Activity coefficient of benzene (Liquid); method: dilutor
Temperature, K	Activity coefficient of benzene	uncertainty
303.15	0.84	0.04
313.15	0.86	0.04
323.15	0.88	0.04
333.15	0.89	0.04

System: 1-pentene + 1-butyl-1-methylpyrrolidinium bis[(trifluoromethyl)sulfonyl]imide; phases: Liquid, Gas
Fixed: Mole fraction of 1-pentene = 0
Property: Activity coefficient of 1-pentene (Liquid); method: dilutor
Temperature, K	Activity coefficient of 1-pentene	uncertainty
303.15	4.95	0.25
313.15	4.91	0.25
323.15	4.81	0.24
333.15	4.8	0.24

System: hex-1-ene + 1-butyl-1-methylpyrrolidinium bis[(trifluoromethyl)sulfonyl]imide; phases: Liquid, Gas
Fixed: Mole fraction of hex-1-ene = 0
Property: Activity coefficient of hex-1-ene (Liquid); method: dilutor
Temperature, K	Activity coefficient of hex-1-ene	uncertainty
303.15	7.08	0.35
313.15	6.92	0.35
323.15	6.82	0.34
333.15	6.64	0.33

System: 1-heptene + 1-butyl-1-methylpyrrolidinium bis[(trifluoromethyl)sulfonyl]imide; phases: Liquid, Gas
Fixed: Mole fraction of 1-heptene = 0
Property: Activity coefficient of 1-heptene (Liquid); method: dilutor
Temperature, K	Activity coefficient of 1-heptene	uncertainty
303.15	10.4	0.5
313.15	9.97	0.5
323.15	9.69	0.48
333.15	9.37	0.47

System: oct-1-ene + 1-butyl-1-methylpyrrolidinium bis[(trifluoromethyl)sulfonyl]imide; phases: Liquid, Gas
Fixed: Mole fraction of oct-1-ene = 0
Property: Activity coefficient of oct-1-ene (Liquid); method: dilutor
Temperature, K	Activity coefficient of oct-1-ene	uncertainty
303.15	15	0.8
313.15	13.9	0.7
323.15	13.3	0.7
333.15	13.2	0.7

System: butanone + 1-butyl-1-methylpyrrolidinium bis[(trifluoromethyl)sulfonyl]imide; phases: Liquid, Gas
Fixed: Mole fraction of butanone = 0
Property: Activity coefficient of butanone (Liquid); method: dilutor
Temperature, K	Activity coefficient of butanone	uncertainty
303.15	0.52	0.03
313.15	0.53	0.03
323.15	0.55	0.03
333.15	0.56	0.03

System: pentan-2-one + 1-butyl-1-methylpyrrolidinium bis[(trifluoromethyl)sulfonyl]imide; phases: Liquid, Gas
Fixed: Mole fraction of pentan-2-one = 0
Property: Activity coefficient of pentan-2-one (Liquid); method: dilutor
Temperature, K	Activity coefficient of pentan-2-one	uncertainty
303.15	0.63	0.03
313.15	0.66	0.03
323.15	0.68	0.03
333.15	0.71	0.04

System: ethanol + 1-butyl-1-methylpyrrolidinium bis[(trifluoromethyl)sulfonyl]imide; phases: Liquid, Gas
Fixed: Mole fraction of ethanol = 0
Property: Activity coefficient of ethanol (Liquid); method: dilutor
Temperature, K	Activity coefficient of ethanol	uncertainty
303.15	1.84	0.09
313.15	1.73	0.09
323.15	1.63	0.08
333.15	1.5	0.08

System: propan-2-ol + 1-butyl-1-methylpyrrolidinium bis[(trifluoromethyl)sulfonyl]imide; phases: Liquid, Gas
Fixed: Mole fraction of propan-2-ol = 0
Property: Activity coefficient of propan-2-ol (Liquid); method: dilutor
Temperature, K	Activity coefficient of propan-2-ol	uncertainty
303.15	2.11	0.11
313.15	1.92	0.1
323.15	1.77	0.09
333.15	1.63	0.08

System: 1-ethyl-3-methylimidazolium bis((trifluoromethyl)sulfonyl)imide + 1-butyl-3-methylimidazolium bis(trifluoromethylsulfonyl)imide; phases: Liquid
Fixed: Pressure, kPa = 101
Fixed: Mass fraction of 1-ethyl-3-methylimidazolium bis((trifluoromethyl)sulfonyl)imide = 0.5
Property: Mass density, kg/m3 (Liquid); method: VIBTUB:UFactor:16
Temperature, K	Mass density, kg/m3	uncertainty
293.15	1483	6
298.15	1479	6
303.15	1474	6
308.15	1469	6
313.15	1464	6
318.15	1459	6
323.15	1454	6
328.15	1449	6
333.15	1445	6
338.15	1440	6
343.15	1435	6
348.15	1430	6
353.15	1425	6
358.15	1421	6

System: methanol + 1-ethyl-3-methylimidazolium bis((trifluoromethyl)sulfonyl)imide; phases: Liquid, Gas
Fixed: Temperature, K = 353.1
Property: Vapor or sublimation pressure, kPa (Liquid); method: CCELL:UFactor:8
Mole fraction of methanol	Vapor or sublimation pressure, kPa	uncertainty
0.103	18.61	0.61
0.191	36.05	1.06
0.264	49.98	1.42
0.323	61.46	1.71
0.373	71.29	1.96
0.475	91.55	2.46
0.565	108.35	2.87
0.643	122.64	3.22
0.712	134.62	3.51
0.772	144.45	3.75
0.819	151.87	3.93
0.855	157.34	4.06
0.882	161.45	4.16
0.903	164.53	4.23
0.903	164.52	4.23
0.903	164.52	4.23
1	179.95	4.6

System: ethanol + 1-ethyl-3-methylimidazolium bis((trifluoromethyl)sulfonyl)imide; phases: Liquid, Gas
Fixed: Temperature, K = 353.1
Property: Vapor or sublimation pressure, kPa (Liquid); method: CCELL:UFactor:8
Mole fraction of ethanol	Vapor or sublimation pressure, kPa	uncertainty
0.033	5.3	0.26
0.097	14.54	0.5
0.153	22.72	0.72
0.203	29.72	0.9
0.244	35.42	1.04
0.311	44.41	1.27
0.406	56.24	1.57
0.495	66.3	1.81
0.577	74.83	2.02
0.654	81.84	2.19
0.719	87.19	2.32
0.771	91.03	2.41
0.813	93.88	2.47
0.841	96.53	2.54
0.856	97.43	2.56
0.86	96.88	2.55
0.86	96.87	2.54
0.873	98.5	2.58
0.902	101.07	2.65
0.93	102.78	2.69
0.952	104.19	2.72
0.968	105.28	2.75
0.98	106.14	2.77
0.99	107	2.79
0.997	107.61	2.8
0.998	107.74	2.81
0.999	107.8	2.81
1	107.92	2.81

System: hexane + 1-ethyl-3-methylimidazolium bis((trifluoromethyl)sulfonyl)imide + 1-butyl-3-methylimidazolium bis(trifluoromethylsulfonyl)imide; phases: Liquid, Gas
Fixed: Mass fraction of hexane = 0
Fixed: Solvent: Mole fraction of 1-butyl-3-methylimidazolium bis(trifluoromethylsulfonyl)imide = 0.5
Property: Activity coefficient of hexane (Liquid); method: Chromatography
Temperature, K	Activity coefficient of hexane	uncertainty
303.15	18.8	0.9
313.15	18.3	0.8
323.15	17.1	0.8
333.15	16.7	0.8

System: heptane + 1-ethyl-3-methylimidazolium bis((trifluoromethyl)sulfonyl)imide + 1-butyl-3-methylimidazolium bis(trifluoromethylsulfonyl)imide; phases: Liquid, Gas
Fixed: Mass fraction of heptane = 0
Fixed: Solvent: Mole fraction of 1-butyl-3-methylimidazolium bis(trifluoromethylsulfonyl)imide = 0.5
Property: Activity coefficient of heptane (Liquid); method: Chromatography
Temperature, K	Activity coefficient of heptane	uncertainty
303.15	28.3	1.3
313.15	27.1	1.3
323.15	25.6	1.2
333.15	24.7	1.1

System: octane + 1-ethyl-3-methylimidazolium bis((trifluoromethyl)sulfonyl)imide + 1-butyl-3-methylimidazolium bis(trifluoromethylsulfonyl)imide; phases: Liquid, Gas
Fixed: Mass fraction of octane = 0
Fixed: Solvent: Mole fraction of 1-butyl-3-methylimidazolium bis(trifluoromethylsulfonyl)imide = 0.5
Property: Activity coefficient of octane (Liquid); method: Chromatography
Temperature, K	Activity coefficient of octane	uncertainty
303.15	43	2
313.15	40.3	1.9
323.15	36.2	1.7
333.15	35.5	1.7

System: 1-pentene + 1-ethyl-3-methylimidazolium bis((trifluoromethyl)sulfonyl)imide + 1-butyl-3-methylimidazolium bis(trifluoromethylsulfonyl)imide; phases: Liquid, Gas
Fixed: Mass fraction of 1-pentene = 0
Fixed: Solvent: Mole fraction of 1-butyl-3-methylimidazolium bis(trifluoromethylsulfonyl)imide = 0.5
Property: Activity coefficient of 1-pentene (Liquid); method: Chromatography
Temperature, K	Activity coefficient of 1-pentene	uncertainty
303.15	6.43	0.29
313.15	6.29	0.29
323.15	6.15	0.28
333.15	6.11	0.28

System: butanone + 1-ethyl-3-methylimidazolium bis((trifluoromethyl)sulfonyl)imide + 1-butyl-3-methylimidazolium bis(trifluoromethylsulfonyl)imide; phases: Liquid, Gas
Fixed: Mass fraction of butanone = 0
Fixed: Solvent: Mole fraction of 1-butyl-3-methylimidazolium bis(trifluoromethylsulfonyl)imide = 0.5
Property: Activity coefficient of butanone (Liquid); method: Chromatography
Temperature, K	Activity coefficient of butanone	uncertainty
303.15	0.526	0.032
313.15	0.548	0.032
323.15	0.562	0.032
333.15	0.584	0.031

System: pentan-2-one + 1-ethyl-3-methylimidazolium bis((trifluoromethyl)sulfonyl)imide + 1-butyl-3-methylimidazolium bis(trifluoromethylsulfonyl)imide; phases: Liquid, Gas
Fixed: Mass fraction of pentan-2-one = 0
Fixed: Solvent: Mole fraction of 1-butyl-3-methylimidazolium bis(trifluoromethylsulfonyl)imide = 0.5
Property: Activity coefficient of pentan-2-one (Liquid); method: Chromatography
Temperature, K	Activity coefficient of pentan-2-one	uncertainty
303.15	0.706	0.029
313.15	0.738	0.029
323.15	0.759	0.029
333.15	0.781	0.028

System: water + 1-ethyl-3-methylimidazolium bis((trifluoromethyl)sulfonyl)imide + 1-butyl-3-methylimidazolium bis(trifluoromethylsulfonyl)imide; phases: Liquid, Gas
Fixed: Mass fraction of water = 0
Fixed: Solvent: Mole fraction of 1-butyl-3-methylimidazolium bis(trifluoromethylsulfonyl)imide = 0.5
Property: Activity coefficient of water (Liquid); method: Chromatography
Temperature, K	Activity coefficient of water	uncertainty
303.15	3.25	0.15
313.15	2.98	0.14
323.15	2.77	0.13
333.15	2.59	0.12
