Measured thermophysical data. Vapour pressure measurements on lanthanum polyphosphate and ultraphosphate by the transpiration method
Source: J. Chem. Thermodyn., 2013, 10.1016/j.jct.2013.02.009
Compound 1: lanthanum metaphosphate, LaO9P3, InChI=1S/La.H3O9P3/c;1-10(2)7-11(3,4)9-12(5,6)8-10/h;(H,1,2)(H,3,4)(H,5,6)/q+3;/p-3
Compound 2: tetraphosphorus decaoxide, O10P4, InChI=1S/O10P4/c1-11-5-12(2)8-13(3,6-11)10-14(4,7-11)9-12
Compound 3: lanthanum pentaphosphate, LaO14P5, InChI=1S/La.H3O14P5/c;1-15(2)9-18(7)11-16(3,4)12-19(8,10-15)14-17(5,6)13-18/h;(H,1,2)(H,3,4)(H,5,6)/q+3;/p-3
Compound 4: lanthanum orthophosphate, LaO4P, InChI=1S/La.H3O4P/c;1-5(2,3)4/h;(H3,1,2,3,4)/q+3;/p-3

Reaction: 1 lanthanum orthophosphate + .5 tetraphosphorus decaoxide + -1 lanthanum metaphosphate
Property: Equilibrium constant in terms of partial pressure, kPa^n
0.000163
0.000598
0.000378
0.0014
0.00145
0.00291
0.00407
0.00601
0.00814

Reaction: -1 lanthanum pentaphosphate + .5 tetraphosphorus decaoxide + 1 lanthanum metaphosphate
Property: Equilibrium constant in terms of partial pressure, kPa^n
0.000145
0.000116
0.000102
0.000256
8.72e-05
0.000388
0.000698
0.00093
0.00213
0.00562
0.0062
0.0157
0.0215
