Measured thermophysical data. Interfacial tension between (methane + ethane + propane) gas mixture and water from 283.2 K to 298.2 K under up to 10 MPa
Source: J. Chem. Thermodyn., 2017, 10.1016/j.jct.2017.01.007
Compound 1: water, H2O, InChI=1S/H2O/h1H2

System: water; phases: Liquid, Gas
Property: Surface tension liquid-gas, N/m (Liquid); method: Pendant drop shape
Temperature, K	Surface tension liquid-gas, N/m	uncertainty
283.2	0.0748	0.00226
283.2	0.07483	0.00215
288.2	0.07365	0.00226
288.2	0.07367	0.00213
293.2	0.07307	0.00214
293.2	0.07303	0.00212
298.2	0.07221	0.00218
298.2	0.07213	0.00214
