Measured thermophysical data. Isothermal and isobaric (vapour + liquid) equilibria of (alpha-pinene + n-butanol + n-octane)
Source: J. Chem. Thermodyn., 2005, 10.1016/j.jct.2004.08.012
Compound 1: 2-pinene, C10H16, InChI=1S/C10H16/c1-7-4-5-8-6-9(7)10(8,2)3/h4,8-9H,5-6H2,1-3H3, purity 99.5%
Compound 2: butan-1-ol, C4H10O, InChI=1S/C4H10O/c1-2-3-4-5/h5H,2-4H2,1H3, purity 99.5%
Compound 3: octane, C8H18, InChI=1S/C8H18/c1-3-5-7-8-6-4-2/h3-8H2,1-2H3, purity 99.5%

System: 2-pinene; phases: Liquid, Gas
Property: Normal boiling temperature, K (Liquid); method: EBULLIO:UFactor:4:FP
Normal boiling temperature, K	uncertainty
429.24	0.1

System: 2-pinene; phases: Liquid
Property: Refractive index (Na D-line) (Liquid); method: Standard Abbe refractometry
Temperature, K	Pressure, kPa	Refractive index (Na D-line)	uncertainty
293.15	101.325	1.4657	0.0007

System: 2-pinene; phases: Liquid
Property: Mass density, kg/m3 (Liquid); method: VIBTUB:mpointUFactor:4
Temperature, K	Pressure, kPa	Mass density, kg/m3	uncertainty
293.15	101.325	858.06	0.28

System: butan-1-ol; phases: Liquid, Gas
Property: Normal boiling temperature, K (Liquid); method: EBULLIO:UFactor:4:FP
Normal boiling temperature, K	uncertainty
390.4	0.1

System: butan-1-ol; phases: Liquid
Property: Refractive index (Na D-line) (Liquid); method: Standard Abbe refractometry
Temperature, K	Pressure, kPa	Refractive index (Na D-line)	uncertainty
293.15	101.325	1.3991	0.0007

System: butan-1-ol; phases: Liquid
Property: Mass density, kg/m3 (Liquid); method: VIBTUB:mpoint:UFactor:4
Temperature, K	Pressure, kPa	Mass density, kg/m3	uncertainty
293.15	101.325	809.62	0.28

System: octane; phases: Liquid, Gas
Property: Normal boiling temperature, K (Liquid); method: EBULLIO:UFactor:4:FP
Normal boiling temperature, K	uncertainty
398.79	0.1

System: octane; phases: Liquid
Property: Refractive index (Na D-line) (Liquid); method: Standard Abbe refractometry
Temperature, K	Pressure, kPa	Refractive index (Na D-line)	uncertainty
293.15	101.325	1.3973	0.0007

System: octane; phases: Liquid
Property: Mass density, kg/m3 (Liquid); method: VIBTUB:mpoint:UFactor:4
Temperature, K	Pressure, kPa	Mass density, kg/m3	uncertainty
293.15	101.325	702.44	0.27

System: butan-1-ol + 2-pinene + octane; phases: Liquid, Gas
Fixed: Temperature, K = 353.15
Property: Vapor or sublimation pressure, kPa (Liquid); method: EBULLIO:UFactor:4
Mole fraction of 2-pinene	Mole fraction of butan-1-ol	Vapor or sublimation pressure, kPa	uncertainty
0.0997	0.1987	32.33	0.44
0.0999	0.1012	29.77	0.43
0.0999	0.3001	32.83	0.44
0.1003	0.3999	33.03	0.44
0.1021	0.4985	33.07	0.44
0.1989	0.1988	30.52	0.43
0.1999	0.1024	28.27	0.42
0.1999	0.3988	30.46	0.43
0.2001	0.3002	31.02	0.43
0.2007	0.4999	29.84	0.43
0.2992	0.0997	26.47	0.41
0.2995	0.5002	27.71	0.42
0.3002	0.1998	28.72	0.42
0.3002	0.2994	28.7	0.42
0.3007	0.4	28.61	0.42
0.3982	0.404	26.66	0.41
0.4004	0.2988	27	0.42
0.4007	0.2036	27.21	0.42
0.5016	0.299	25.27	0.41
0.6002	0.2002	23.36	0.4

System: butan-1-ol + 2-pinene + octane; phases: Liquid, Gas
Fixed: Temperature, K = 363.15
Property: Vapor or sublimation pressure, kPa (Liquid); method: EBULLIO:UFactor:4
Mole fraction of 2-pinene	Mole fraction of butan-1-ol	Vapor or sublimation pressure, kPa	uncertainty
0.0997	0.1987	47.21	0.51
0.0999	0.1012	42.62	0.49
0.0999	0.3001	48.13	0.52
0.1003	0.3999	48.21	0.52
0.1021	0.4985	48.44	0.52
0.1989	0.1988	44.25	0.5
0.1999	0.1024	40.59	0.48
0.1999	0.3988	44.95	0.5
0.2001	0.3002	45.33	0.5
0.2007	0.4999	44.41	0.5
0.2992	0.0997	37.75	0.47
0.2995	0.5002	41.12	0.48
0.3002	0.1998	41.65	0.49
0.3002	0.2994	42.63	0.49
0.3007	0.4	42.36	0.49
0.3982	0.404	39.69	0.48
0.4004	0.2988	39.58	0.48
0.4007	0.2036	39.48	0.48
0.5016	0.299	37.34	0.46
0.6002	0.2002	34.59	0.45

System: butan-1-ol + 2-pinene + octane; phases: Liquid, Gas
Fixed: Pressure, kPa = 53.33
Property: Boiling temperature at pressure P, K (Liquid); method: EBULLIO:UFactor:4
Mole fraction of 2-pinene	Mole fraction of butan-1-ol	Boiling temperature at pressure P, K	uncertainty
0.0997	0.1987	367.16	0.19
0.0999	0.1012	370.35	0.19
0.0999	0.3001	366.53	0.19
0.1003	0.3999	366.35	0.19
0.1021	0.4985	366.18	0.19
0.1989	0.1988	369.04	0.19
0.1999	0.1024	371.13	0.19
0.1999	0.3988	368.29	0.19
0.2001	0.3002	368.31	0.19
0.2007	0.4999	368.64	0.19
0.2992	0.0997	373.26	0.19
0.2995	0.5002	370.49	0.19
0.3002	0.1998	370.57	0.19
0.3002	0.2994	369.72	0.19
0.3007	0.4	369.93	0.19
0.3982	0.404	371.57	0.19
0.4004	0.2988	371.8	0.19
0.4007	0.2036	372.23	0.19
0.5016	0.299	373.42	0.19
0.6002	0.2002	375.74	0.19
