Measured thermophysical data. Thermochemical study of two anhydrous polymorphs of caffeine
Source: J. Chem. Thermodyn., 2006, 10.1016/j.jct.2006.04.008
Compound 1: carbon dioxide, CO2, InChI=1S/CO2/c2-1-3
Compound 2: nitrogen, N2, InChI=1S/N2/c1-2
Compound 3: water, H2O, InChI=1S/H2O/h1H2
Compound 4: oxygen, O2, InChI=1S/O2/c1-2
Compound 5: caffeine, C8H10N4O2, InChI=1S/C8H10N4O2/c1-10-4-9-6-5(10)7(13)12(3)8(14)11(6)2/h4H,1-3H3
Compound 6: ethanol, C2H6O, InChI=1S/C2H6O/c1-2-3/h3H,2H2,1H3, purity 98%
Compound 7: trichloromethane, CHCl3, InChI=1S/CHCl3/c2-1(3)4/h1H, purity 98%

System: caffeine; phases: Crystal 1, Liquid, Air at 1 atmosphere
Property: Molar enthalpy of transition or fusion, kJ/mol (Crystal 1); method: DSC
Molar enthalpy of transition or fusion, kJ/mol	uncertainty
21.9	0.7

System: caffeine; phases: Crystal 2, Crystal 1, Air at 1 atmosphere
Property: Molar enthalpy of transition or fusion, kJ/mol (Crystal 2); method: DSC
Molar enthalpy of transition or fusion, kJ/mol	uncertainty
4.02	0.16

System: caffeine; phases: Crystal 2, Crystal 1, Air at 1 atmosphere
Property: Triple point temperature, K (Crystal 2); method: DTA
Triple point temperature, K	uncertainty
428.15	2

System: caffeine; phases: Crystal 1, Liquid, Air at 1 atmosphere
Property: Normal melting temperature, K (Crystal 1); method: DTA
Normal melting temperature, K	uncertainty
509.6	2

System: caffeine + ethanol + trichloromethane; phases: Liquid
Property: Molar enthalpy of solution, kJ/mol (Liquid); method: Calvet calorimetry
Mole fraction of caffeine	Temperature, K	Pressure, kPa	Solvent: Volume fraction of ethanol	Molar enthalpy of solution, kJ/mol	uncertainty
0	298.15	101	0.6	13.93	0.31

System: caffeine + ethanol + trichloromethane; phases: Liquid
Property: Molar enthalpy of solution, kJ/mol (Liquid); method: Calvet calorimetry
Mole fraction of caffeine	Temperature, K	Pressure, kPa	Solvent: Volume fraction of ethanol	Molar enthalpy of solution, kJ/mol	uncertainty
0	298.15	101	0.6	11.89	0.41

Reaction: -1 caffeine + 8 carbon dioxide + 2 nitrogen + 5 water + -9.5 oxygen
Property: Specific internal energy of reaction at constant volume, J/g
-21823.27

Reaction: -1 caffeine + 8 carbon dioxide + 2 nitrogen + 5 water + -9.5 oxygen
Property: Specific internal energy of reaction at constant volume, J/g
-21799.96
