Measured thermophysical data. Desulfurization of fuel-oils with [C2mim][NTf2]: A comparative study
Source: J. Chem. Thermodyn., 2013, 10.1016/j.jct.2012.08.031
Compound 1: thiophene, C4H4S, InChI=1S/C4H4S/c1-2-4-5-3-1/h1-4H, purity 99.5%
Compound 2: hexane, C6H14, InChI=1S/C6H14/c1-3-5-6-4-2/h3-6H2,1-2H3, purity 99%
Compound 3: 1-ethyl-3-methylimidazolium bis((trifluoromethyl)sulfonyl)imide, C8H11F6N3O4S2, InChI=1S/C6H11N2.C2F6NO4S2/c1-3-8-5-4-7(2)6-8;3-1(4,5)14(10,11)9-15(12,13)2(6,7)8/h4-6H,3H2,1-2H3;/q+1;-1
Compound 4: pyridine, C5H5N, InChI=1S/C5H5N/c1-2-4-6-5-3-1/h1-5H, purity 99.5%
Compound 5: toluene, C7H8, InChI=1S/C7H8/c1-7-5-3-2-4-6-7/h2-6H,1H3, purity 99.5%

System: thiophene + hexane + 1-ethyl-3-methylimidazolium bis((trifluoromethyl)sulfonyl)imide; phases: Liquid mixture 1, Liquid mixture 2
Fixed: Pressure, kPa = 101
Fixed: Temperature, K = 298.15
Property: Mole fraction of hexane (Liquid mixture 1); method: Chromatography
Property: Mole fraction of thiophene (Liquid mixture 2); method: Chromatography
Property: Mole fraction of 1-ethyl-3-methylimidazolium bis((trifluoromethyl)sulfonyl)imide (Liquid mixture 2); method: Chromatography
Mole fraction of thiophene	Mole fraction of hexane	uncertainty	Mole fraction of thiophene	uncertainty	Mole fraction of 1-ethyl-3-methylimidazolium bis((trifluoromethyl)sulfonyl)imide	uncertainty
0	1		0		0.961	
0.049	0.951	0.011	0.088	0.014	0.873	
0.113	0.887	0.011	0.192	0.014	0.769	
0.192	0.808	0.011	0.289	0.014	0.673	
0.277	0.723	0.011	0.377	0.014	0.588	
0.405	0.595	0.012	0.464	0.015	0.499	
0.42	0.58	0.012	0.483	0.015	0.48	
0.549	0.451	0.012	0.551	0.015	0.414	
0.644	0.356	0.012	0.601	0.015	0.364	
0.768	0.232	0.011	0.653	0.015	0.318	
0.897	0.103	0.011	0.719	0.016	0.257	
1	0		0.787	0.018	0.213	

System: hexane + pyridine + 1-ethyl-3-methylimidazolium bis((trifluoromethyl)sulfonyl)imide; phases: Liquid mixture 2, Liquid mixture 1
Fixed: Pressure, kPa = 101
Fixed: Temperature, K = 298.15
Property: Mole fraction of pyridine (Liquid mixture 2); method: Chromatography
Property: Mole fraction of hexane (Liquid mixture 1); method: Chromatography
Property: Mole fraction of pyridine (Liquid mixture 1); method: Chromatography
Mole fraction of 1-ethyl-3-methylimidazolium bis((trifluoromethyl)sulfonyl)imide	Mole fraction of pyridine	uncertainty	Mole fraction of hexane	uncertainty	Mole fraction of pyridine	uncertainty
0.961	0		1		0	
0.899	0.062	0.014	0.99	0.01	0.01	
0.771	0.184	0.014	0.966	0.011	0.032	
0.671	0.281	0.014	0.947	0.011	0.053	
0.557	0.383	0.014	0.922	0.011	0.078	
0.458	0.481	0.014	0.891	0.011	0.109	
0.377	0.556	0.014	0.861	0.012	0.138	
0.286	0.638	0.013	0.826	0.011	0.169	
0.205	0.699	0.011	0.747	0.011	0.252	
0.138	0.714	0.01	0.605	0.012	0.395	

System: toluene + thiophene + 1-ethyl-3-methylimidazolium bis((trifluoromethyl)sulfonyl)imide; phases: Liquid mixture 1, Liquid mixture 2
Fixed: Pressure, kPa = 101
Fixed: Temperature, K = 298.15
Property: Mole fraction of toluene (Liquid mixture 1); method: Chromatography
Property: Mole fraction of toluene (Liquid mixture 2); method: Chromatography
Property: Mole fraction of thiophene (Liquid mixture 2); method: Chromatography
Mole fraction of thiophene	Mole fraction of toluene	uncertainty	Mole fraction of toluene	uncertainty	Mole fraction of thiophene	uncertainty
0	1		0.63	0.008	0	
0.077	0.923	0.014	0.583	0.01	0.066	
0.131	0.869	0.014	0.546	0.011	0.113	
0.257	0.743	0.014	0.466	0.011	0.22	
0.346	0.654	0.014	0.404	0.011	0.293	
0.464	0.536	0.015	0.331	0.01	0.387	
0.556	0.444	0.014	0.273	0.011	0.461	
0.654	0.346	0.014	0.211	0.011	0.534	
0.773	0.227	0.014	0.138	0.01	0.621	
0.887	0.113	0.014	0.069	0.01	0.706	
0.941	0.059	0.014	0.036	0.011	0.749	
1	0		0		0.787	

System: hexane + 1-ethyl-3-methylimidazolium bis((trifluoromethyl)sulfonyl)imide; phases: Liquid mixture 2, Liquid mixture 1
Property: Mole fraction of 1-ethyl-3-methylimidazolium bis((trifluoromethyl)sulfonyl)imide (Liquid mixture 2); method: Chromatography
Pressure, kPa	Temperature, K	Mole fraction of 1-ethyl-3-methylimidazolium bis((trifluoromethyl)sulfonyl)imide	uncertainty
101	298.15	0.961	0.01

System: thiophene + 1-ethyl-3-methylimidazolium bis((trifluoromethyl)sulfonyl)imide; phases: Liquid mixture 2, Liquid mixture 1
Property: Mole fraction of thiophene (Liquid mixture 2); method: Chromatography
Pressure, kPa	Temperature, K	Mole fraction of thiophene	uncertainty
101	298.15	0.787	0.01

System: toluene + 1-ethyl-3-methylimidazolium bis((trifluoromethyl)sulfonyl)imide; phases: Liquid mixture 2, Liquid mixture 1
Property: Mole fraction of toluene (Liquid mixture 2); method: Chromatography
Pressure, kPa	Temperature, K	Mole fraction of toluene	uncertainty
101	298.15	0.63	0.008
