Measured thermophysical data. Physicochemical properties of switchable-hydrophilicity solvent systems: N,N-Dimethylcyclohexylamine, water and carbon dioxide
Source: J. Chem. Thermodyn., 2019, 10.1016/j.jct.2019.01.030
Compound 1: N,N-dimethylcyclohexylamine, C8H17N, InChI=1S/C8H17N/c1-9(2)8-6-4-3-5-7-8/h8H,3-7H2,1-2H3, purity 99%
Compound 2: carbon dioxide, CO2, InChI=1S/CO2/c2-1-3, purity 99.9%
Compound 3: water, H2O, InChI=1S/H2O/h1H2

System: N,N-dimethylcyclohexylamine; phases: Liquid
Fixed: Pressure, kPa = 101.325
Property: Mass density, kg/m3 (Liquid); method: Vibrating tube method
Temperature, K	Mass density, kg/m3	uncertainty
283.15	856.4	2.4
288.15	854	2.4
293.15	851.5	2.4
298.15	849.1	2.4
303.15	846.5	2.4
308.15	844	2.4

System: N,N-dimethylcyclohexylamine + carbon dioxide + water; phases: Liquid, Gas
Fixed: Temperature, K = 293.15
Fixed: Pressure, kPa = 101
Property: Mass fraction of carbon dioxide (Liquid); method: NMR
Solvent: Mass fraction of N,N-dimethylcyclohexylamine	Mass fraction of carbon dioxide	uncertainty
0.074	0.024	0.01
0.1258	0.04	0.01
0.1643	0.051	0.01
0.1939	0.06	0.01
0.2173	0.067	0.01
0.2366	0.072	0.01

System: N,N-dimethylcyclohexylamine + carbon dioxide + water; phases: Liquid
Fixed: Pressure, kPa = 101
Property: Mass density, kg/m3 (Liquid); method: Vibrating tube method
Temperature, K	Mass fraction of carbon dioxide	Solvent: Mass fraction of N,N-dimethylcyclohexylamine	Mass density, kg/m3	uncertainty
283.15	0.024	0.074	1020.8	6.4
288.15	0.024	0.074	1018.5	6.4
293.15	0.024	0.074	1016.7	6.4
298.15	0.024	0.074	1015.3	6.4
303.15	0.024	0.074	1013.1	6.4
308.15	0.024	0.074	1010.8	6.4
283.15	0.04	0.1258	1038.4	6.4
288.15	0.04	0.1258	1036.3	6.4
293.15	0.04	0.1258	1033.7	6.4
298.15	0.04	0.1258	1031.9	6.4
303.15	0.04	0.1258	1030.6	6.4
308.15	0.04	0.1258	1028.9	6.4
283.15	0.051	0.1643	1053.5	6.4
288.15	0.051	0.1643	1051	6.4
293.15	0.051	0.1643	1048.9	6.4
298.15	0.051	0.1643	1046.3	6.4
303.15	0.051	0.1643	1044.5	6.4
308.15	0.051	0.1643	1042.6	6.4
283.15	0.06	0.1939	1065.4	6.4
288.15	0.06	0.1939	1063	6.4
293.15	0.06	0.1939	1060.5	6.4
298.15	0.06	0.1939	1058.4	6.4
303.15	0.06	0.1939	1056.4	6.4
308.15	0.06	0.1939	1054.1	6.4
283.15	0.067	0.2173	1075.8	6.4
288.15	0.067	0.2173	1073.5	6.4
293.15	0.067	0.2173	1070.7	6.4
298.15	0.067	0.2173	1068.3	6.4
303.15	0.067	0.2173	1066.2	6.4
308.15	0.067	0.2173	1064	6.4
283.15	0.072	0.2366	1085	6.4
288.15	0.072	0.2366	1082.4	6.4
293.15	0.072	0.2366	1079.7	6.4
298.15	0.072	0.2366	1077.2	6.4
303.15	0.072	0.2366	1074.8	6.4
308.15	0.072	0.2366	1072.4	6.4

System: N,N-dimethylcyclohexylamine + carbon dioxide + water; phases: Liquid
Fixed: Pressure, kPa = 101
Property: Viscosity, Pa*s (Liquid); method: Concentric cylinders viscometry
Temperature, K	Mass fraction of carbon dioxide	Solvent: Mass fraction of N,N-dimethylcyclohexylamine	Viscosity, Pa*s	uncertainty
283.15	0.024	0.074	0.002728	5.6e-05
288.15	0.024	0.074	0.002374	4.9e-05
293.15	0.024	0.074	0.002072	4.3e-05
298.15	0.024	0.074	0.001814	3.8e-05
303.15	0.024	0.074	0.001592	3.3e-05
308.15	0.024	0.074	0.001401	2.9e-05
283.15	0.06	0.1939	0.009265	0.000191
288.15	0.06	0.1939	0.007964	0.000164
293.15	0.06	0.1939	0.006866	0.000141
298.15	0.06	0.1939	0.005938	0.000122
303.15	0.06	0.1939	0.005153	0.000106
308.15	0.06	0.1939	0.004479	9.2e-05
283.15	0.04	0.1258	0.004423	9.1e-05
288.15	0.04	0.1258	0.003831	7.9e-05
293.15	0.04	0.1258	0.003328	6.8e-05
298.15	0.04	0.1258	0.002899	6e-05
303.15	0.04	0.1258	0.002532	5.2e-05
308.15	0.04	0.1258	0.002218	4.6e-05
283.15	0.067	0.2173	0.012371	0.000255
288.15	0.067	0.2173	0.010601	0.000218
293.15	0.067	0.2173	0.009114	0.000187
298.15	0.067	0.2173	0.007859	0.000161
303.15	0.067	0.2173	0.006797	0.000139
308.15	0.067	0.2173	0.005895	0.000121
283.15	0.051	0.1643	0.006606	0.000136
288.15	0.051	0.1643	0.005698	0.000117
293.15	0.051	0.1643	0.004932	0.000101
298.15	0.051	0.1643	0.004277	8.8e-05
303.15	0.051	0.1643	0.003722	7.6e-05
308.15	0.051	0.1643	0.003248	6.7e-05
283.15	0.072	0.2366	0.015881	0.000329
288.15	0.072	0.2366	0.013575	0.00028
293.15	0.072	0.2366	0.011641	0.00024
298.15	0.072	0.2366	0.010014	0.000206
303.15	0.072	0.2366	0.008642	0.000177
308.15	0.072	0.2366	0.007476	0.000153

System: N,N-dimethylcyclohexylamine + carbon dioxide + water; phases: Liquid
Fixed: Pressure, kPa = 101
Property: Refractive index (Na D-line) (Liquid); method: Standard Abbe refractometry
Temperature, K	Mass fraction of carbon dioxide	Solvent: Mass fraction of N,N-dimethylcyclohexylamine	Refractive index (Na D-line)	uncertainty
283.15	0.024	0.074	1.3547	0.0012
288.15	0.024	0.074	1.3527	0.0012
293.15	0.024	0.074	1.3517	0.0012
298.15	0.024	0.074	1.3507	0.0012
303.15	0.024	0.074	1.3502	0.0012
308.15	0.024	0.074	1.3488	0.0012
283.15	0.06	0.1939	1.3937	0.0012
288.15	0.06	0.1939	1.3928	0.0012
293.15	0.06	0.1939	1.3921	0.0012
298.15	0.06	0.1939	1.3905	0.0012
303.15	0.06	0.1939	1.3896	0.0012
308.15	0.06	0.1939	1.3883	0.0012
283.15	0.04	0.1258	1.3695	0.0012
288.15	0.04	0.1258	1.3688	0.0012
293.15	0.04	0.1258	1.3675	0.0012
298.15	0.04	0.1258	1.3663	0.0012
303.15	0.04	0.1258	1.3655	0.0012
308.15	0.04	0.1258	1.3642	0.0012
283.15	0.067	0.2173	1.403	0.0012
288.15	0.067	0.2173	1.4021	0.0012
293.15	0.067	0.2173	1.401	0.0012
298.15	0.067	0.2173	1.4003	0.0012
303.15	0.067	0.2173	1.3988	0.0012
308.15	0.067	0.2173	1.3978	0.0012
283.15	0.051	0.1643	1.3827	0.0012
288.15	0.051	0.1643	1.3819	0.0012
293.15	0.051	0.1643	1.3809	0.0012
298.15	0.051	0.1643	1.3797	0.0012
303.15	0.051	0.1643	1.3785	0.0012
308.15	0.051	0.1643	1.3772	0.0012
283.15	0.072	0.2366	1.4117	0.0012
288.15	0.072	0.2366	1.4107	0.0012
293.15	0.072	0.2366	1.4096	0.0012
298.15	0.072	0.2366	1.4085	0.0012
303.15	0.072	0.2366	1.4073	0.0012
308.15	0.072	0.2366	1.4061	0.0012

System: N,N-dimethylcyclohexylamine + carbon dioxide + water; phases: Liquid
Fixed: Pressure, kPa = 101
Property: Electrical conductivity, S/m (Liquid); method: Direct current cell with electrodes
Temperature, K	Mass fraction of carbon dioxide	Solvent: Mass fraction of N,N-dimethylcyclohexylamine	Electrical conductivity, S/m	uncertainty
283.15	0.024	0.074	2.055	0.031
288.15	0.024	0.074	2.184	0.033
293.15	0.024	0.074	2.311	0.035
298.15	0.024	0.074	2.438	0.037
303.15	0.024	0.074	2.564	0.038
308.15	0.024	0.074	2.689	0.04
283.15	0.06	0.1939	0.701	0.011
288.15	0.06	0.1939	0.83	0.01
293.15	0.06	0.1939	0.958	0.014
298.15	0.06	0.1939	1.085	0.016
303.15	0.06	0.1939	1.21	0.02
308.15	0.06	0.1939	1.335	0.02
283.15	0.04	0.1258	1.419	0.021
288.15	0.04	0.1258	1.547	0.023
293.15	0.04	0.1258	1.675	0.025
298.15	0.04	0.1258	1.802	0.027
303.15	0.04	0.1258	1.928	0.029
308.15	0.04	0.1258	2.052	0.031
283.15	0.067	0.2173	0.465	0.007
288.15	0.067	0.2173	0.594	0.009
293.15	0.067	0.2173	0.721	0.011
298.15	0.067	0.2173	0.848	0.013
303.15	0.067	0.2173	0.974	0.015
308.15	0.067	0.2173	1.099	0.016
283.15	0.051	0.1643	1.006	0.015
288.15	0.051	0.1643	1.135	0.017
293.15	0.051	0.1643	1.263	0.019
298.15	0.051	0.1643	1.39	0.02
303.15	0.051	0.1643	1.516	0.023
308.15	0.051	0.1643	1.64	0.03
283.15	0.072	0.2366	0.267	0.004
288.15	0.072	0.2366	0.396	0.006
293.15	0.072	0.2366	0.524	0.008
298.15	0.072	0.2366	0.651	0.01
303.15	0.072	0.2366	0.777	0.012
308.15	0.072	0.2366	0.901	0.014
