Measured thermophysical data. Thermophysical and excess properties of hydroxamic acids in DMSO
Source: J. Chem. Thermodyn., 2013, 10.1016/j.jct.2012.10.022
Compound 1: N-hydroxy-N-(2-methylphenyl)-2-nitro-benzamide, C14H12N2O4, InChI=1S/C14H12N2O4/c1-10-6-2-4-8-12(10)15(18)14(17)11-7-3-5-9-13(11)16(19)20/h2-9,18H,1H3, purity 98%
Compound 2: N-hydroxy-N-(2-methylphenyl)-4-nitro-benzamide, C14H12N2O4, InChI=1S/C14H12N2O4/c1-10-4-2-3-5-13(10)15(18)14(17)11-6-8-12(9-7-11)16(19)20/h2-9,18H,1H3, purity 98%
Compound 3: dimethyl sulfoxide, C2H6OS, InChI=1S/C2H6OS/c1-4(2)3/h1-2H3, purity 99%

System: N-hydroxy-N-(2-methylphenyl)-2-nitro-benzamide; phases: Liquid
Fixed: Pressure, kPa = 101.325
Property: Mass density, kg/m3 (Liquid); method: Pycnometric method
Temperature, K	Mass density, kg/m3	uncertainty
298.15	1097.7	1.5
303.15	1091.8	1.5
308.15	1086.8	1.4
313.15	1081.8	1.4
318.15	1077.9	1.4

System: N-hydroxy-N-(2-methylphenyl)-2-nitro-benzamide; phases: Liquid
Fixed: Pressure, kPa = 101.325
Property: Refractive index (Na D-line) (Liquid); method: Standard Abbe refractometry
Temperature, K	Refractive index (Na D-line)	uncertainty
298.15	1.4828	0.0005
303.15	1.4815	0.0005
308.15	1.4805	0.0005
313.15	1.4792	0.0005
318.15	1.4768	0.0005

System: N-hydroxy-N-(2-methylphenyl)-4-nitro-benzamide; phases: Liquid
Fixed: Pressure, kPa = 101.325
Property: Mass density, kg/m3 (Liquid); method: Pycnometric method
Temperature, K	Mass density, kg/m3	uncertainty
298.15	1097.9	1.5
303.15	1091.8	1.5
308.15	1086.7	1.4
313.15	1081.8	1.4
318.15	1077.9	1.4

System: N-hydroxy-N-(2-methylphenyl)-4-nitro-benzamide; phases: Liquid
Fixed: Pressure, kPa = 101.325
Property: Refractive index (Na D-line) (Liquid); method: Standard Abbe refractometry
Temperature, K	Refractive index (Na D-line)	uncertainty
298.15	1.4826	0.0005
303.15	1.4807	0.0005
308.15	1.4783	0.0005
313.15	1.4767	0.0005
318.15	1.4756	0.0005

System: dimethyl sulfoxide; phases: Liquid
Fixed: Pressure, kPa = 101.325
Property: Mass density, kg/m3 (Liquid); method: Pycnometric method
Temperature, K	Mass density, kg/m3	uncertainty
298.15	1096.5	1.1
303.15	1090.3	1
308.15	1085.2	1
313.15	1080.2	0.9
318.15	1076.3	0.8

System: dimethyl sulfoxide; phases: Liquid
Fixed: Pressure, kPa = 101.325
Property: Refractive index (Na D-line) (Liquid); method: Standard Abbe refractometry
Temperature, K	Refractive index (Na D-line)	uncertainty
298.15	1.472	0.0004
303.15	1.474	0.0004
308.15	1.473	0.0004
313.15	1.47	0.0004
318.15	1.469	0.0004

System: dimethyl sulfoxide + N-hydroxy-N-(2-methylphenyl)-2-nitro-benzamide; phases: Liquid
Fixed: Pressure, kPa = 101
Property: Mass density, kg/m3 (Liquid); method: Pycnometric method
Temperature, K	Molality, mol/kg of N-hydroxy-N-(2-methylphenyl)-2-nitro-benzamide	Mass density, kg/m3	uncertainty
298.15	0.0184	1098.9	1.1
298.15	0.0368	1101.1	1
298.15	0.0551	1103.2	1
298.15	0.0735	1105.1	1
298.15	0.0919	1107	1
298.15	0.1103	1108.7	1
298.15	0.1287	1110.4	1
298.15	0.1471	1112	1
298.15	0.1654	1113.6	1
298.15	0.1838	1115.1	1
303.15	0.0184	1092.9	1
303.15	0.0368	1095.2	1
303.15	0.0551	1097.4	1
303.15	0.0735	1099.4	1
303.15	0.0919	1101.3	1
303.15	0.1103	1103.1	1
303.15	0.1287	1104.8	1
303.15	0.1471	1106.4	1
303.15	0.1654	1107.9	1
303.15	0.1838	1109.4	1
308.15	0.0184	1087.9	1
308.15	0.0368	1090.3	0.9
308.15	0.0551	1092.5	0.9
308.15	0.0735	1094.6	0.9
308.15	0.0919	1096.6	0.9
308.15	0.1103	1098.4	0.9
308.15	0.1287	1100.1	0.9
308.15	0.1471	1101.7	0.9
308.15	0.1654	1103.2	0.9
308.15	0.1838	1104.7	0.9
313.15	0.0184	1083	0.9
313.15	0.0368	1085.5	0.9
313.15	0.0551	1087.8	0.9
313.15	0.0735	1089.9	0.9
313.15	0.0919	1091.9	0.9
313.15	0.1103	1093.8	0.9
313.15	0.1287	1095.5	0.9
313.15	0.1471	1097.1	0.9
313.15	0.1654	1098.6	0.9
313.15	0.1838	1100.2	0.9
318.15	0.0184	1079.2	0.8
318.15	0.0368	1081.8	0.8
318.15	0.0551	1084.2	0.8
318.15	0.0735	1086.4	0.8
318.15	0.0919	1088.4	0.8
318.15	0.1103	1090.3	0.8
318.15	0.1287	1092.1	0.8
318.15	0.1471	1093.8	0.8
318.15	0.1654	1095.4	0.8
318.15	0.1838	1096.9	0.8

System: dimethyl sulfoxide + N-hydroxy-N-(2-methylphenyl)-2-nitro-benzamide; phases: Liquid
Fixed: Pressure, kPa = 101
Property: Refractive index (Na D-line) (Liquid); method: Standard Abbe refractometry
Temperature, K	Molality, mol/kg of N-hydroxy-N-(2-methylphenyl)-2-nitro-benzamide	Refractive index (Na D-line)	uncertainty
298.15	0.0184	1.4831	0.0004
298.15	0.0368	1.4835	0.0004
298.15	0.0551	1.484	0.0004
298.15	0.0735	1.485	0.0004
298.15	0.0919	1.486	0.0004
298.15	0.1103	1.4861	0.0004
298.15	0.1287	1.4864	0.0004
298.15	0.1471	1.4865	0.0004
298.15	0.1654	1.487	0.0004
298.15	0.1838	1.4875	0.0004
303.15	0.0184	1.482	0.0004
303.15	0.0368	1.4823	0.0004
303.15	0.0551	1.4828	0.0004
303.15	0.0735	1.483	0.0004
303.15	0.0919	1.4835	0.0004
303.15	0.1103	1.4841	0.0004
303.15	0.1287	1.4842	0.0004
303.15	0.1471	1.485	0.0004
303.15	0.1654	1.485	0.0004
303.15	0.1838	1.4857	0.0004
308.15	0.0184	1.48	0.0004
308.15	0.0368	1.481	0.0004
308.15	0.0551	1.4816	0.0004
308.15	0.0735	1.4819	0.0004
308.15	0.0919	1.482	0.0004
308.15	0.1103	1.4824	0.0004
308.15	0.1287	1.4828	0.0004
308.15	0.1471	1.4835	0.0004
308.15	0.1654	1.484	0.0004
308.15	0.1838	1.4845	0.0004
313.15	0.0184	1.477	0.0004
313.15	0.0368	1.478	0.0004
313.15	0.0551	1.4785	0.0004
313.15	0.0735	1.479	0.0004
313.15	0.0919	1.4791	0.0004
313.15	0.1103	1.4795	0.0004
313.15	0.1287	1.48	0.0004
313.15	0.1471	1.4805	0.0004
313.15	0.1654	1.481	0.0004
313.15	0.1838	1.4818	0.0004
318.15	0.0184	1.476	0.0004
318.15	0.0368	1.4763	0.0004
318.15	0.0551	1.4772	0.0004
318.15	0.0735	1.4777	0.0004
318.15	0.0919	1.478	0.0004
318.15	0.1103	1.4785	0.0004
318.15	0.1287	1.479	0.0004
318.15	0.1471	1.4795	0.0004
318.15	0.1654	1.48	0.0004
318.15	0.1838	1.4807	0.0004

System: dimethyl sulfoxide + N-hydroxy-N-(2-methylphenyl)-4-nitro-benzamide; phases: Liquid
Fixed: Pressure, kPa = 101
Property: Mass density, kg/m3 (Liquid); method: Pycnometric method
Temperature, K	Molality, mol/kg of N-hydroxy-N-(2-methylphenyl)-4-nitro-benzamide	Mass density, kg/m3	uncertainty
298.15	0.0184	1098.7	1.1
298.15	0.0368	1100.6	1.1
298.15	0.0551	1102.4	1
298.15	0.0735	1104.1	1
298.15	0.0919	1105.6	1
298.15	0.1103	1107.1	1
298.15	0.1287	1108.4	1
298.15	0.1471	1109.7	1
298.15	0.1654	1110.8	1
298.15	0.1838	1111.9	1
303.15	0.0184	1092.6	1
303.15	0.0368	1094.6	1
303.15	0.0551	1096.5	1
303.15	0.0735	1098.2	1
303.15	0.0919	1099.8	1
303.15	0.1103	1101.3	1
303.15	0.1287	1102.7	1
303.15	0.1471	1104	1
303.15	0.1654	1105.3	1
303.15	0.1838	1106.4	1
308.15	0.0184	1087.6	0.9
308.15	0.0368	1089.7	0.9
308.15	0.0551	1091.7	0.9
308.15	0.0735	1093.5	0.9
308.15	0.0919	1095.2	0.9
308.15	0.1103	1096.8	0.9
308.15	0.1287	1098.2	0.9
308.15	0.1471	1099.6	0.9
308.15	0.1654	1100.9	0.9
308.15	0.1838	1102.1	0.9
313.15	0.0184	1082.7	0.9
313.15	0.0368	1084.9	0.9
313.15	0.0551	1086.9	0.9
313.15	0.0735	1088.8	0.9
313.15	0.0919	1090.6	0.9
313.15	0.1103	1092.2	0.9
313.15	0.1287	1093.7	0.9
313.15	0.1471	1095.1	0.9
313.15	0.1654	1096.5	0.8
313.15	0.1838	1097.7	0.8
318.15	0.0184	1078.9	0.8
318.15	0.0368	1081.2	0.8
318.15	0.0551	1083.3	0.8
318.15	0.0735	1085.3	0.8
318.15	0.0919	1087.2	0.8
318.15	0.1103	1088.9	0.8
318.15	0.1287	1090.5	0.8
318.15	0.1471	1092	0.8
318.15	0.1654	1093.4	0.8
318.15	0.1838	1094.8	0.8

System: dimethyl sulfoxide + N-hydroxy-N-(2-methylphenyl)-4-nitro-benzamide; phases: Liquid
Fixed: Pressure, kPa = 101
Property: Refractive index (Na D-line) (Liquid); method: Standard Abbe refractometry
Temperature, K	Molality, mol/kg of N-hydroxy-N-(2-methylphenyl)-4-nitro-benzamide	Refractive index (Na D-line)	uncertainty
298.15	0.0184	1.482	0.0004
298.15	0.0368	1.483	0.0004
298.15	0.0551	1.4837	0.0004
298.15	0.0735	1.4845	0.0004
298.15	0.0919	1.4849	0.0004
298.15	0.1103	1.485	0.0004
298.15	0.1287	1.4854	0.0004
298.15	0.1471	1.4857	0.0004
298.15	0.1654	1.4857	0.0004
298.15	0.1838	1.486	0.0004
303.15	0.0184	1.4805	0.0004
303.15	0.0368	1.4815	0.0004
303.15	0.0551	1.4818	0.0004
303.15	0.0735	1.482	0.0004
303.15	0.0919	1.4825	0.0004
303.15	0.1103	1.4825	0.0004
303.15	0.1287	1.483	0.0004
303.15	0.1471	1.4836	0.0004
303.15	0.1654	1.4841	0.0004
303.15	0.1838	1.4845	0.0004
308.15	0.0184	1.4789	0.0004
308.15	0.0368	1.479	0.0004
308.15	0.0551	1.4791	0.0004
308.15	0.0735	1.4792	0.0004
308.15	0.0919	1.4795	0.0004
308.15	0.1103	1.4803	0.0004
308.15	0.1287	1.4808	0.0004
308.15	0.1471	1.4813	0.0004
308.15	0.1654	1.4817	0.0004
308.15	0.1838	1.4822	0.0004
313.15	0.0184	1.4759	0.0004
313.15	0.0368	1.4759	0.0004
313.15	0.0551	1.476	0.0004
313.15	0.0735	1.4763	0.0004
313.15	0.0919	1.4765	0.0004
313.15	0.1103	1.4773	0.0004
313.15	0.1287	1.478	0.0004
313.15	0.1471	1.4785	0.0004
313.15	0.1654	1.479	0.0004
313.15	0.1838	1.4795	0.0004
318.15	0.0184	1.476	0.0004
318.15	0.0368	1.4763	0.0004
318.15	0.0551	1.4763	0.0004
318.15	0.0735	1.4766	0.0004
318.15	0.0919	1.4767	0.0004
318.15	0.1103	1.4767	0.0004
318.15	0.1287	1.477	0.0004
318.15	0.1471	1.4775	0.0004
318.15	0.1654	1.4782	0.0004
318.15	0.1838	1.4789	0.0004
