Measured thermophysical data. Energetic vs structural study of two biomass degradation derivatives: 2-Cyclopentenone and 3-methyl-2-cyclopentenone
Source: J. Chem. Thermodyn., 2019, 10.1016/j.jct.2019.01.012
Compound 1: carbon dioxide, CO2, InChI=1S/CO2/c2-1-3
Compound 2: water, H2O, InChI=1S/H2O/h1H2
Compound 3: oxygen, O2, InChI=1S/O2/c1-2
Compound 4: 2-cyclopenten-1-one, C5H6O, InChI=1S/C5H6O/c6-5-3-1-2-4-5/h1,3H,2,4H2
Compound 5: 3-methyl-2-cyclopenten-1-one, C6H8O, InChI=1S/C6H8O/c1-5-2-3-6(7)4-5/h4H,2-3H2,1H3

System: 2-cyclopenten-1-one; phases: Liquid, Gas
Property: Molar enthalpy of vaporization or sublimation, kJ/mol (Liquid); method: Static calorimetry
Temperature, K	Molar enthalpy of vaporization or sublimation, kJ/mol	uncertainty
298.15	52.4	1.5

System: 2-cyclopenten-1-one; phases: Gas, Liquid
Property: Molar enthalpy, kJ/mol (Gas); method: Drop calorimetry
Temperature, K	Molar enthalpy, kJ/mol	uncertainty
334.79	55.8	1.4

System: 3-methyl-2-cyclopenten-1-one; phases: Liquid, Gas
Property: Molar enthalpy of vaporization or sublimation, kJ/mol (Liquid); method: Static calorimetry
Temperature, K	Molar enthalpy of vaporization or sublimation, kJ/mol	uncertainty
298.15	52.4	1.4

System: 3-methyl-2-cyclopenten-1-one; phases: Gas, Liquid
Property: Molar enthalpy, kJ/mol (Gas); method: Drop calorimetry
Temperature, K	Molar enthalpy, kJ/mol	uncertainty
334.76	56.8	1.4

Reaction: -1 2-cyclopenten-1-one + 5 carbon dioxide + 3 water + -6 oxygen
Property: Specific internal energy of reaction at constant volume, J/g
-32546.01

Reaction: -1 3-methyl-2-cyclopenten-1-one + 6 carbon dioxide + 4 water + -7.5 oxygen
Property: Specific internal energy of reaction at constant volume, J/g
-34380.04
