Measured thermophysical data. Thermochemistry of R-SH group in gaseous phase: Experimental and theoretical studies of three sulfur imidazole derivatives
Source: J. Chem. Thermodyn., 2018, 10.1016/j.jct.2018.03.002
Compound 1: sulfuric acid, H2O4S, InChI=1S/H2O4S/c1-5(2,3)4/h(H2,1,2,3,4)
Compound 2: carbon dioxide, CO2, InChI=1S/CO2/c2-1-3
Compound 3: nitrogen, N2, InChI=1S/N2/c1-2
Compound 4: water, H2O, InChI=1S/H2O/h1H2
Compound 5: oxygen, O2, InChI=1S/O2/c1-2
Compound 6: imidazole-2-thiol, 1-methyl-, C4H6N2S, InChI=1S/C4H6N2S/c1-6-3-2-5-4(6)7/h2-3H,1H3,(H,5,7), purity 99%
Compound 7: 5-amino-2-mercaptobenzimidazole, C7H7N3S, InChI=1S/C7H7N3S/c8-4-1-2-5-6(3-4)10-7(11)9-5/h1-3H,8H2,(H2,9,10,11), purity 96%
Compound 8: 1,3-dihydro-5-methoxy-2H-benzimidazole-2-thione, C8H8N2OS, InChI=1S/C8H8N2OS/c1-11-5-2-3-6-7(4-5)10-8(12)9-6/h2-4H,1H3,(H2,9,10,12), purity 98%

System: imidazole-2-thiol, 1-methyl-; phases: Crystal, Liquid, Air at 1 atmosphere
Property: Normal melting temperature, K (Crystal); method: DTA
Normal melting temperature, K	uncertainty
418.6	0.5

System: imidazole-2-thiol, 1-methyl-; phases: Crystal, Liquid, Air at 1 atmosphere
Property: Molar enthalpy of transition or fusion, kJ/mol (Crystal); method: DSC
Molar enthalpy of transition or fusion, kJ/mol	uncertainty
17.8	0.5

System: imidazole-2-thiol, 1-methyl-; phases: Crystal
Property: Molar heat capacity at constant pressure, J/K/mol (Crystal); method: Small sample (50 mg) DSC
Temperature, K	Pressure, kPa	Molar heat capacity at constant pressure, J/K/mol	uncertainty
298.15	101.325	129.8	2

System: imidazole-2-thiol, 1-methyl-; phases: Crystal, Gas
Property: Molar enthalpy of vaporization or sublimation, kJ/mol (Crystal); method: Static calorimetry
Temperature, K	Molar enthalpy of vaporization or sublimation, kJ/mol	uncertainty
298.15	111	2

System: 5-amino-2-mercaptobenzimidazole; phases: Crystal
Property: Molar heat capacity at constant pressure, J/K/mol (Crystal); method: DSC
Temperature, K	Pressure, kPa	Molar heat capacity at constant pressure, J/K/mol	uncertainty
298.15	101.325	172	6.7

System: 5-amino-2-mercaptobenzimidazole; phases: Crystal, Gas
Property: Molar enthalpy of vaporization or sublimation, kJ/mol (Crystal); method: Static calorimetry
Temperature, K	Molar enthalpy of vaporization or sublimation, kJ/mol	uncertainty
298.15	152.5	3.4

System: 1,3-dihydro-5-methoxy-2H-benzimidazole-2-thione; phases: Crystal
Property: Molar heat capacity at constant pressure, J/K/mol (Crystal); method: DSC
Temperature, K	Pressure, kPa	Molar heat capacity at constant pressure, J/K/mol	uncertainty
298.15	101.325	195.4	7.6

System: 1,3-dihydro-5-methoxy-2H-benzimidazole-2-thione; phases: Crystal, Gas
Property: Molar enthalpy of vaporization or sublimation, kJ/mol (Crystal); method: Static calorimetry
Temperature, K	Molar enthalpy of vaporization or sublimation, kJ/mol	uncertainty
298.15	144.6	2.3

Reaction: -1 imidazole-2-thiol, 1-methyl- + 1 sulfuric acid + 4 carbon dioxide + 1 nitrogen + 2 water + -7 oxygen
Property: Specific internal energy of reaction at constant volume, J/g
-26573.1

Reaction: -1 5-amino-2-mercaptobenzimidazole + 1 sulfuric acid + 7 carbon dioxide + 1.5 nitrogen + 2.5 water + -10.25 oxygen
Property: Specific internal energy of reaction at constant volume, J/g
-26478.8

Reaction: 1 sulfuric acid + -1 1,3-dihydro-5-methoxy-2H-benzimidazole-2-thione + 8 carbon dioxide + 1 nitrogen + 3 water + -11 oxygen
Property: Specific internal energy of reaction at constant volume, J/g
-26429.9
