Measured thermophysical data. Enthalpies of combustion and formation of benzenesulfonamide and some of its derivatives
Source: J. Chem. Thermodyn., 2012, 10.1016/j.jct.2011.11.026
Compound 1: sulfuric acid, H2O4S, InChI=1S/H2O4S/c1-5(2,3)4/h(H2,1,2,3,4)
Compound 2: carbon dioxide, CO2, InChI=1S/CO2/c2-1-3
Compound 3: nitrogen, N2, InChI=1S/N2/c1-2
Compound 4: water, H2O, InChI=1S/H2O/h1H2
Compound 5: oxygen, O2, InChI=1S/O2/c1-2
Compound 6: benzenesulfonamide, C6H7NO2S, InChI=1S/C6H7NO2S/c7-10(8,9)6-4-2-1-3-5-6/h1-5H,(H2,7,8,9), purity 99.97%
Compound 7: o-toluenesulfonamide, C7H9NO2S, InChI=1S/C7H9NO2S/c1-6-4-2-3-5-7(6)11(8,9)10/h2-5H,1H3,(H2,8,9,10), purity 99.99%
Compound 8: p-toluenesulfonamide, C7H9NO2S, InChI=1S/C7H9NO2S/c1-6-2-4-7(5-3-6)11(8,9)10/h2-5H,1H3,(H2,8,9,10), purity 99.98%
Compound 9: 2-aminobenzenesulfonamide, C6H8N2O2S, InChI=1S/C6H8N2O2S/c7-5-3-1-2-4-6(5)11(8,9)10/h1-4H,7H2,(H2,8,9,10), purity 99.98%
Compound 10: 4-aminobenzenesulfonamide, C6H8N2O2S, InChI=1S/C6H8N2O2S/c7-5-1-3-6(4-2-5)11(8,9)10/h1-4H,7H2,(H2,8,9,10), purity 99.76%

System: benzenesulfonamide; phases: Crystal, Liquid, Air at 1 atmosphere
Property: Molar enthalpy of transition or fusion, kJ/mol (Crystal); method: DSC
Molar enthalpy of transition or fusion, kJ/mol	uncertainty
23.74	0.55

System: benzenesulfonamide; phases: Crystal, Liquid, Air at 1 atmosphere
Property: Normal melting temperature, K (Crystal); method: DTA
Normal melting temperature, K	uncertainty
425.47	0.39

System: benzenesulfonamide; phases: Crystal
Property: Molar heat capacity at constant pressure, J/K/mol (Crystal); method: Small sample (50 mg) DSC
Temperature, K	Pressure, kPa	Molar heat capacity at constant pressure, J/K/mol	uncertainty
298.15	101.325	172.910452	9.4314792

System: o-toluenesulfonamide; phases: Crystal, Liquid, Air at 1 atmosphere
Property: Molar enthalpy of transition or fusion, kJ/mol (Crystal); method: DSC
Molar enthalpy of transition or fusion, kJ/mol	uncertainty
28.26	0.75

System: o-toluenesulfonamide; phases: Crystal, Liquid, Air at 1 atmosphere
Property: Normal melting temperature, K (Crystal); method: DTA
Normal melting temperature, K	uncertainty
428.62	0.39

System: o-toluenesulfonamide; phases: Crystal
Property: Molar heat capacity at constant pressure, J/K/mol (Crystal); method: Small sample (50 mg) DSC
Temperature, K	Pressure, kPa	Molar heat capacity at constant pressure, J/K/mol	uncertainty
298.15	101.325	193.476227	20.546148

System: p-toluenesulfonamide; phases: Crystal, Liquid, Air at 1 atmosphere
Property: Molar enthalpy of transition or fusion, kJ/mol (Crystal); method: DSC
Molar enthalpy of transition or fusion, kJ/mol	uncertainty
23.93	0.73

System: p-toluenesulfonamide; phases: Crystal, Liquid, Air at 1 atmosphere
Property: Normal melting temperature, K (Crystal); method: DTA
Normal melting temperature, K	uncertainty
410.42	0.39

System: p-toluenesulfonamide; phases: Crystal
Property: Molar heat capacity at constant pressure, J/K/mol (Crystal); method: Small sample (50 mg) DSC
Temperature, K	Pressure, kPa	Molar heat capacity at constant pressure, J/K/mol	uncertainty
298.15	101.325	205.46148	13.6969183463

System: 2-aminobenzenesulfonamide; phases: Crystal, Liquid, Air at 1 atmosphere
Property: Molar enthalpy of transition or fusion, kJ/mol (Crystal); method: DSC
Molar enthalpy of transition or fusion, kJ/mol	uncertainty
23.44	0.54

System: 2-aminobenzenesulfonamide; phases: Crystal, Liquid, Air at 1 atmosphere
Property: Normal melting temperature, K (Crystal); method: DTA
Normal melting temperature, K	uncertainty
426.61	0.39

System: 2-aminobenzenesulfonamide; phases: Crystal
Property: Molar heat capacity at constant pressure, J/K/mol (Crystal); method: Small sample (50 mg) DSC
Temperature, K	Pressure, kPa	Molar heat capacity at constant pressure, J/K/mol	uncertainty
298.15	101.325	173.92806	20.66472

System: 4-aminobenzenesulfonamide; phases: Crystal, Liquid, Air at 1 atmosphere
Property: Molar enthalpy of transition or fusion, kJ/mol (Crystal); method: DSC
Molar enthalpy of transition or fusion, kJ/mol	uncertainty
22.32	0.51

System: 4-aminobenzenesulfonamide; phases: Crystal, Liquid, Air at 1 atmosphere
Property: Normal melting temperature, K (Crystal); method: DTA
Normal melting temperature, K	uncertainty
437.68	0.39

System: 4-aminobenzenesulfonamide; phases: Crystal
Property: Molar heat capacity at constant pressure, J/K/mol (Crystal); method: Small sample (50 mg) DSC
Temperature, K	Pressure, kPa	Molar heat capacity at constant pressure, J/K/mol	uncertainty
298.15	101.325	199.75896	10.2979188

Reaction: -1 2-aminobenzenesulfonamide + 1 sulfuric acid + 6 carbon dioxide + 1 nitrogen + 3 water + -8.5 oxygen
Property: Specific internal energy of reaction at constant volume, J/g
-21751.6

Reaction: -1 4-aminobenzenesulfonamide + 1 sulfuric acid + 6 carbon dioxide + 1 nitrogen + 3 water + -8.5 oxygen
Property: Specific internal energy of reaction at constant volume, J/g
-21634.4

Reaction: -1 benzenesulfonamide + 1 sulfuric acid + 6 carbon dioxide + .5 nitrogen + 2.5 water + -8.25 oxygen
Property: Specific internal energy of reaction at constant volume, J/g
-22974.4

Reaction: -1 o-toluenesulfonamide + 1 sulfuric acid + 7 carbon dioxide + .5 nitrogen + 3.5 water + -9.75 oxygen
Property: Specific internal energy of reaction at constant volume, J/g
-25001.8

Reaction: -1 p-toluenesulfonamide + 1 sulfuric acid + 7 carbon dioxide + .5 nitrogen + 3.5 water + -9.75 oxygen
Property: Specific internal energy of reaction at constant volume, J/g
-26041.9
