Measured thermophysical data. (Liquid + liquid) equilibria of (water + propionic acid + alcohol) ternary systems
Source: J. Chem. Thermodyn., 2006, 10.1016/j.jct.2006.05.001
Compound 1: propanoic acid, C3H6O2, InChI=1S/C3H6O2/c1-2-3(4)5/h2H2,1H3,(H,4,5), purity 99%
Compound 2: octan-1-ol, C8H18O, InChI=1S/C8H18O/c1-2-3-4-5-6-7-8-9/h9H,2-8H2,1H3, purity 99%
Compound 3: nonan-1-ol, C9H20O, InChI=1S/C9H20O/c1-2-3-4-5-6-7-8-9-10/h10H,2-9H2,1H3, purity 98%
Compound 4: decan-1-ol, C10H22O, InChI=1S/C10H22O/c1-2-3-4-5-6-7-8-9-10-11/h11H,2-10H2,1H3, purity 99%
Compound 5: dodecan-1-ol, C12H26O, InChI=1S/C12H26O/c1-2-3-4-5-6-7-8-9-10-11-12-13/h13H,2-12H2,1H3, purity 98%
Compound 6: water, H2O, InChI=1S/H2O/h1H2, purity 99%

System: propanoic acid; phases: Liquid, Gas
Property: Normal boiling temperature, K (Liquid); method: Distillation
Normal boiling temperature, K	uncertainty
414.5	0.5

System: propanoic acid; phases: Liquid
Property: Refractive index (Na D-line) (Liquid); method: Standard Abbe refractometry
Temperature, K	Pressure, kPa	Refractive index (Na D-line)	uncertainty
293.15	101.325	1.3808	0.0008

System: propanoic acid; phases: Liquid
Property: Mass density, kg/m3 (Liquid); method: VIBTUB:UFactor:6
Temperature, K	Pressure, kPa	Mass density, kg/m3	uncertainty
298.15	101.325	988.04	0.53

System: octan-1-ol; phases: Liquid, Gas
Property: Normal boiling temperature, K (Liquid); method: Distillation
Normal boiling temperature, K	uncertainty
468	0.5

System: octan-1-ol; phases: Liquid
Property: Refractive index (Na D-line) (Liquid); method: Standard Abbe refractometry
Temperature, K	Pressure, kPa	Refractive index (Na D-line)	uncertainty
293.15	101.325	1.4292	0.0008

System: octan-1-ol; phases: Liquid
Property: Mass density, kg/m3 (Liquid); method: VIBTUB:UFactor:6
Temperature, K	Pressure, kPa	Mass density, kg/m3	uncertainty
298.15	101.325	826.25	0.95

System: nonan-1-ol; phases: Liquid, Gas
Property: Normal boiling temperature, K (Liquid); method: Distillation
Normal boiling temperature, K	uncertainty
488.4	0.5

System: nonan-1-ol; phases: Liquid
Property: Refractive index (Na D-line) (Liquid); method: Standard Abbe refractometry
Temperature, K	Pressure, kPa	Refractive index (Na D-line)	uncertainty
293.15	101.325	1.4335	0.0008

System: nonan-1-ol; phases: Liquid
Property: Mass density, kg/m3 (Liquid); method: VIBTUB:UFactor:8
Temperature, K	Pressure, kPa	Mass density, kg/m3	uncertainty
293.15	101.325	828.5	1.74

System: decan-1-ol; phases: Liquid, Gas
Property: Normal boiling temperature, K (Liquid); method: Distillation
Normal boiling temperature, K	uncertainty
503.7	0.5

System: decan-1-ol; phases: Liquid
Property: Refractive index (Na D-line) (Liquid); method: Standard Abbe refractometry
Temperature, K	Pressure, kPa	Refractive index (Na D-line)	uncertainty
293.15	101.325	1.4373	0.0008

System: decan-1-ol; phases: Liquid
Property: Mass density, kg/m3 (Liquid); method: VIBTUB:UFactor:6
Temperature, K	Pressure, kPa	Mass density, kg/m3	uncertainty
293.15	101.325	829.5	0.94

System: dodecan-1-ol; phases: Liquid, Gas
Property: Normal boiling temperature, K (Liquid); method: Distillation
Normal boiling temperature, K	uncertainty
532.5	0.5

System: dodecan-1-ol; phases: Liquid
Property: Refractive index (Na D-line) (Liquid); method: Standard Abbe refractometry
Temperature, K	Pressure, kPa	Refractive index (Na D-line)	uncertainty
298.15	101.325	1.3964	0.0008

System: dodecan-1-ol; phases: Liquid
Property: Mass density, kg/m3 (Liquid); method: VIBTUB:UFactor:6
Temperature, K	Pressure, kPa	Mass density, kg/m3	uncertainty
297.15	101.325	830.8	1.48

System: propanoic acid + octan-1-ol + water; phases: Liquid mixture 1, Liquid mixture 2
Fixed: Pressure, kPa = 101
Fixed: Temperature, K = 298.15
Property: Mass fraction of propanoic acid (Liquid mixture 1); method: CHROM:UFactor:4
Mass fraction of water	Mass fraction of propanoic acid	uncertainty
0.0434	0	0.0001
0.0523	0.0519	0.0021
0.0569	0.1155	0.0046
0.0695	0.1715	0.0069
0.0854	0.2351	0.0094
0.1081	0.2997	0.012
0.1563	0.3884	0.0155
0.1717	0.3974	0.0159
0.2321	0.4362	0.0174
0.2824	0.4429	0.0177
0.3447	0.4517	0.0181
0.4271	0.4322	0.0173
0.4522	0.419	0.0168
0.5611	0.3721	0.0149
0.64	0.3222	0.0129
0.7469	0.2475	0.0099
0.8163	0.1817	0.0073
0.8761	0.1219	0.0049
0.9479	0.0505	0.002
0.9985	0	0.0001

System: propanoic acid + octan-1-ol + water; phases: Liquid mixture 1, Liquid mixture 2
Fixed: Temperature, K = 298.15
Fixed: Pressure, kPa = 101.3
Property: Mass fraction of propanoic acid (Liquid mixture 1); method: CHROM:UFactor:4
Property: Mass fraction of water (Liquid mixture 2); method: CHROM:UFactor:4
Property: Mass fraction of propanoic acid (Liquid mixture 2); method: CHROM:UFactor:4
Mass fraction of water	Mass fraction of propanoic acid	uncertainty	Mass fraction of water	uncertainty	Mass fraction of propanoic acid	uncertainty
0.9535	0.0449	0.0018	0.0505	0.002	0.1009	
0.9283	0.07	0.0028	0.0651	0.0026	0.1524	
0.9054	0.0928	0.0037	0.0719	0.0029	0.189	
0.8445	0.1535	0.0061	0.1	0.004	0.2837	
0.7967	0.2001	0.008	0.1369	0.0055	0.3557	
0.7591	0.2354	0.0094	0.1612	0.0064	0.4002	

System: propanoic acid + nonan-1-ol + water; phases: Liquid mixture 1, Liquid mixture 2
Fixed: Pressure, kPa = 101
Fixed: Temperature, K = 298.15
Property: Mass fraction of propanoic acid (Liquid mixture 1); method: CHROM:UFactor:4
Mass fraction of water	Mass fraction of propanoic acid	uncertainty
0.037	0	0.0001
0.0442	0.0481	0.0019
0.0501	0.1128	0.0045
0.0589	0.1674	0.0067
0.0751	0.2345	0.0094
0.0944	0.3017	0.0122
0.1189	0.3544	0.0143
0.1454	0.3895	0.0157
0.2005	0.4388	0.0177
0.2427	0.4577	0.0185
0.3167	0.4538	0.0183
0.3804	0.4422	0.0178
0.5144	0.4039	0.0163
0.5828	0.3743	0.015
0.6711	0.3185	0.0128
0.7556	0.242	0.0097
0.8212	0.1776	0.0071
0.8857	0.1132	0.0045
0.9492	0.0502	0.002
0.9997	0	0.0001

System: propanoic acid + nonan-1-ol + water; phases: Liquid mixture 1, Liquid mixture 2
Fixed: Pressure, kPa = 101.3
Fixed: Temperature, K = 298.15
Property: Mass fraction of propanoic acid (Liquid mixture 1); method: CHROM:UFactor:4
Property: Mass fraction of water (Liquid mixture 2); method: CHROM:UFactor:4
Property: Mass fraction of propanoic acid (Liquid mixture 2); method: CHROM:UFactor:4
Mass fraction of water	Mass fraction of propanoic acid	uncertainty	Mass fraction of water	uncertainty	Mass fraction of propanoic acid	uncertainty
0.9496	0.0498	0.002	0.0481	0.0019	0.0884	
0.9101	0.0891	0.0036	0.0572	0.0023	0.1581	
0.8637	0.1353	0.0054	0.0695	0.0028	0.2352	
0.8193	0.1795	0.0072	0.0993	0.004	0.3088	
0.7651	0.2278	0.0091	0.1221	0.0049	0.3593	
0.7081	0.2822	0.0113	0.1686	0.0067	0.4174	

System: propanoic acid + decan-1-ol + water; phases: Liquid mixture 1, Liquid mixture 2
Fixed: Pressure, kPa = 101
Fixed: Temperature, K = 298.15
Property: Mass fraction of propanoic acid (Liquid mixture 1); method: CHROM:UFactor:4
Mass fraction of water	Mass fraction of propanoic acid	uncertainty
0.0121	0	0.0001
0.0172	0.0529	0.0021
0.0309	0.128	0.0051
0.0469	0.1727	0.0069
0.0693	0.2375	0.0095
0.0884	0.3106	0.0124
0.1346	0.3953	0.0158
0.1792	0.4274	0.0171
0.2253	0.4475	0.0179
0.275	0.4595	0.0184
0.3308	0.4663	0.0187
0.4053	0.4515	0.0181
0.4476	0.442	0.0177
0.5056	0.4171	0.0167
0.6483	0.3356	0.0134
0.7479	0.2501	0.01
0.8149	0.1834	0.0073
0.8781	0.1214	0.0049
0.9439	0.0557	0.0022
0.9999	0	0.0001

System: propanoic acid + decan-1-ol + water; phases: Liquid mixture 1, Liquid mixture 2
Fixed: Pressure, kPa = 101.3
Fixed: Temperature, K = 298.15
Property: Mass fraction of propanoic acid (Liquid mixture 1); method: CHROM:UFactor:4
Property: Mass fraction of water (Liquid mixture 2); method: CHROM:UFactor:4
Property: Mass fraction of propanoic acid (Liquid mixture 2); method: CHROM:UFactor:4
Mass fraction of water	Mass fraction of propanoic acid	uncertainty	Mass fraction of water	uncertainty	Mass fraction of propanoic acid	uncertainty
0.9569	0.0427	0.0017	0.0192	0.0008	0.0717	
0.9105	0.089	0.0036	0.0395	0.0016	0.1417	
0.8589	0.1396	0.0056	0.0561	0.0022	0.2116	
0.8097	0.1886	0.0075	0.0798	0.0032	0.28	
0.7566	0.2415	0.0097	0.1067	0.0043	0.3423	
0.6957	0.2984	0.0119	0.1405	0.0056	0.3964	

System: propanoic acid + dodecan-1-ol + water; phases: Liquid mixture 1, Liquid mixture 2
Fixed: Pressure, kPa = 101
Fixed: Temperature, K = 298.15
Property: Mass fraction of propanoic acid (Liquid mixture 1); method: CHROM:UFactor:4
Mass fraction of water	Mass fraction of propanoic acid	uncertainty
0.0069	0	0.0001
0.023	0.0476	0.0019
0.0327	0.1138	0.0046
0.0461	0.1724	0.0069
0.059	0.2296	0.0092
0.076	0.2996	0.012
0.1269	0.3906	0.0156
0.1393	0.407	0.0163
0.1741	0.4312	0.0172
0.219	0.4655	0.0186
0.2507	0.4966	0.0199
0.3054	0.4958	0.0198
0.3679	0.497	0.0199
0.4642	0.46	0.0184
0.5524	0.4212	0.0168
0.6687	0.329	0.0132
0.7504	0.2478	0.0099
0.822	0.1767	0.0071
0.8797	0.1194	0.0048
0.9456	0.0538	0.0022
0.9997	0	0.0001

System: propanoic acid + dodecan-1-ol + water; phases: Liquid mixture 1, Liquid mixture 2
Fixed: Pressure, kPa = 101.3
Fixed: Temperature, K = 298.15
Property: Mass fraction of propanoic acid (Liquid mixture 1); method: CHROM:UFactor:4
Property: Mass fraction of water (Liquid mixture 2); method: CHROM:UFactor:4
Property: Mass fraction of propanoic acid (Liquid mixture 2); method: CHROM:UFactor:4
Mass fraction of water	Mass fraction of propanoic acid	uncertainty	Mass fraction of water	uncertainty	Mass fraction of propanoic acid	uncertainty
0.9605	0.0386	0.0015	0.0309	0.0012	0.0552	
0.8901	0.1086	0.0043	0.0411	0.0016	0.1437	
0.8614	0.137	0.0055	0.0462	0.0018	0.1731	
0.807	0.1911	0.0076	0.0585	0.0023	0.2276	
0.7482	0.2496	0.01	0.0779	0.0031	0.3019	
0.6687	0.3285	0.0131	0.1081	0.0043	0.3692	
