Measured thermophysical data. Standard enthalpies of formation of Ce-Au congruent compounds (CeAu, CeAu2,  and Ce14Au51)
Source: J. Chem. Thermodyn., 2012, 10.1016/j.jct.2012.02.029
Compound 1: cerium, Ce, InChI=1S/Ce
Compound 2: gold, Au, InChI=1S/Au
Compound 3: cerium auride, AuCe, InChI=1S/Au.Ce, purity 99.6%
Compound 4: cerium diauride, Au2Ce, InChI=1S/2Au.Ce, purity 99.6%
Compound 5: tetradecacerium henpentacontagold, Au51Ce14, purity 99.6%

Reaction: -1 cerium + -1 gold + 1 cerium auride
Property: Molar enthalpy of reaction, kJ/mol
-152.4

Reaction: -1 cerium + -2 gold + 1 cerium diauride
Property: Molar enthalpy of reaction, kJ/mol
-210.9

Reaction: -14 cerium + -51 gold + 1 tetradecacerium henpentacontagold
Property: Molar enthalpy of reaction, kJ/mol
-3458
