Measured thermophysical data. (Liquid + liquid) equilibria of the (water + acetic acid + dibutyl phthalate) system
Source: J. Chem. Thermodyn., 2005, 10.1016/j.jct.2005.03.003
Compound 1: dibutyl phthalate, C16H22O4, InChI=1S/C16H22O4/c1-3-5-11-19-15(17)13-9-7-8-10-14(13)16(18)20-12-6-4-2/h7-10H,3-6,11-12H2,1-2H3, purity 98%
Compound 2: water, H2O, InChI=1S/H2O/h1H2
Compound 3: acetic acid, C2H4O2, InChI=1S/C2H4O2/c1-2(3)4/h1H3,(H,3,4), purity 99%

System: dibutyl phthalate; phases: Liquid, Gas
Property: Normal boiling temperature, K (Liquid); method: Fischer boiling point apparatus
Normal boiling temperature, K	uncertainty
613.2	0.2

System: dibutyl phthalate; phases: Liquid
Property: Refractive index (Na D-line) (Liquid); method: Standard Abbe refractometry
Temperature, K	Pressure, kPa	Refractive index (Na D-line)	uncertainty
298.2	101.325	1.4906	0.0013

System: dibutyl phthalate; phases: Liquid
Property: Mass density, kg/m3 (Liquid); method: Vibrating tube method
Temperature, K	Pressure, kPa	Mass density, kg/m3	uncertainty
298.2	101.325	1050.13	1.35

System: acetic acid; phases: Liquid, Gas
Property: Normal boiling temperature, K (Liquid); method: Fischer boiling point apparatus:FP
Normal boiling temperature, K	uncertainty
391.2	0.2

System: acetic acid; phases: Liquid
Property: Refractive index (Na D-line) (Liquid); method: Standard Abbe refractometry
Temperature, K	Pressure, kPa	Refractive index (Na D-line)	uncertainty
298.2	101.325	1.3715	0.0012

System: acetic acid; phases: Liquid
Property: Mass density, kg/m3 (Liquid); method: VIBTUB:UFactor:4
Temperature, K	Pressure, kPa	Mass density, kg/m3	uncertainty
298.2	101.325	1049.44	3.05

System: acetic acid + dibutyl phthalate + water; phases: Liquid mixture 2, Liquid mixture 1
Fixed: Pressure, kPa = 101.325
Property: Mass fraction of acetic acid (Liquid mixture 2); method: Chromatography
Property: Mass fraction of dibutyl phthalate (Liquid mixture 1); method: Chromatography
Property: Mass fraction of acetic acid (Liquid mixture 1); method: Chromatography
Temperature, K	Mass fraction of dibutyl phthalate	Mass fraction of acetic acid	uncertainty	Mass fraction of dibutyl phthalate	uncertainty	Mass fraction of acetic acid	uncertainty
298.2	0.9672	0.0164	0.0097	0.0016	0.0016	0.1021	
298.2	0.9588	0.0206	0.0096	0.0008	0.0008	0.1775	
298.2	0.9348	0.0326	0.0094	0.0006	0.0006	0.262	
298.2	0.908	0.046	0.0091	0.0013	0.0013	0.3349	
298.2	0.8354	0.0823	0.0085	0.0055	0.0016	0.466	
308.2	0.9784	0.0108	0.0098	0.0002	0.0002	0.1104	
308.2	0.9594	0.0203	0.0096	0.0005	0.0005	0.1875	
308.2	0.9304	0.0348	0.0093	0.001	0.001	0.2655	
308.2	0.8986	0.0507	0.0091	0.0024	0.0016	0.3528	
308.2	0.872	0.064	0.0088	0.0032	0.0016	0.4167	
318.2	0.9784	0.0108	0.0098	0.0001	0.0001	0.088	
318.2	0.9566	0.0217	0.0096	0.0002	0.0002	0.173	
318.2	0.9354	0.0323	0.0094	0.0004	0.0004	0.2438	
318.2	0.9054	0.0473	0.0091	0.0014	0.0014	0.3242	
318.2	0.874	0.063	0.0088	0.0016	0.0016	0.3948	

System: acetic acid + dibutyl phthalate + water; phases: Liquid mixture 1, Liquid mixture 2
Fixed: Pressure, kPa = 101.325
Property: Mass fraction of acetic acid (Liquid mixture 1); method: TITR:UFactor:4
Temperature, K	Mass fraction of water	Mass fraction of acetic acid	uncertainty
298.2	0.0229	0.1494	0.0185
298.2	0.041	0.2435	0.0302
298.2	0.0541	0.2705	0.0335
298.2	0.0793	0.4076	0.0505
298.2	0.111	0.4601	0.057
298.2	0.145	0.5229	0.0591
298.2	0.1805	0.5804	0.0528
298.2	0.2144	0.6335	0.0486
298.2	0.2818	0.6476	0.0475
298.2	0.2868	0.6473	0.0476
298.2	0.3733	0.6039	0.0509
298.2	0.482	0.5096	0.0608
308.2	0.0264	0.1487	0.0184
308.2	0.0407	0.2329	0.0289
308.2	0.0448	0.2434	0.0302
308.2	0.0772	0.3711	0.046
308.2	0.1082	0.461	0.0571
308.2	0.1178	0.4547	0.0564
308.2	0.1488	0.5238	0.059
308.2	0.1823	0.5803	0.0529
308.2	0.2315	0.6256	0.0492
308.2	0.2325	0.6233	0.0494
308.2	0.2834	0.6442	0.0478
308.2	0.3885	0.5898	0.0521
318.2	0.0303	0.1512	0.0187
318.2	0.0466	0.2421	0.03
318.2	0.0687	0.3314	0.0411
318.2	0.0768	0.55	0.15
318.2	0.1003	0.4064	0.0504
318.2	0.1602	0.5153	0.0601
318.2	0.2015	0.589	0.0521
318.2	0.2039	0.4837	0.15
318.2	0.2426	0.6173	0.0498
318.2	0.2429	0.6159	0.05
318.2	0.3095	0.625	0.0492
318.2	0.3105	0.6243	0.0493
