Measured thermophysical data. Isopiestic determination of the osmotic and activity coefficients of the {yMg(NO3)2 + (1- y)MgSO4}(aq) system at T = 298.15 K
Source: J. Chem. Thermodyn., 2017, 10.1016/j.jct.2017.05.006
Compound 1: magnesium nitrate, MgN2O6, InChI=1S/Mg.2NO3/c;2*2-1(3)4/q+2;2*-1, purity 99.99%
Compound 2: magnesium sulfate, MgO4S, InChI=1S/Mg.H2O4S/c;1-5(2,3)4/h;(H2,1,2,3,4)/q+2;/p-2, purity 99.99%
Compound 3: water, H2O, InChI=1S/H2O/h1H2

System: magnesium sulfate + water; phases: Liquid, Gas
Fixed: Temperature, K = 298.15
Property: Osmotic coefficient (Liquid); method: ISOPIE
Molality, mol/kg of magnesium sulfate	Osmotic coefficient	uncertainty
2.3855	0.7456	0.0101
2.2434	0.7136	0.0111
2.1323	0.6921	0.0121
2.0069	0.6646	0.0131
1.8839	0.6414	0.0139
1.803	0.6247	0.0145
1.7421	0.6173	0.0149
1.7001	0.6094	0.0152
1.6432	0.6012	0.0155
1.6071	0.5946	0.0157
1.5846	0.5925	0.0159
1.562	0.5861	0.0161

System: magnesium sulfate + water + magnesium nitrate; phases: Liquid, Gas
Fixed: Temperature, K = 298.15
Property: Osmotic coefficient (Liquid); method: ISOPIE
Molality, mol/kg of magnesium nitrate	Molality, mol/kg of magnesium sulfate	Osmotic coefficient	uncertainty
0.55518	1.6982	0.9889	0.0043
0.52581	1.60837	0.96	0.0045
0.5005	1.53096	0.9279	0.0049
0.48583	1.48607	0.9158	0.0051
0.48388	1.48011	0.9119	0.0054
0.47125	1.44147	0.9005	0.0051
0.46146	1.41152	0.8952	0.0053
0.44208	1.35224	0.8761	0.0057
0.40805	1.24815	0.8428	0.0073
0.36216	1.1078	0.8017	0.0078
0.32467	0.99312	0.7796	0.0086
0.92071	0.93266	1.0817	0.0056
0.86707	0.87832	1.05615	0.00557
0.82139	0.83205	1.0257	0.0058
0.79425	0.80455	1.0163	0.0067
0.79145	0.80172	1.0115	0.0071
0.76889	0.77887	1.0013	0.0042
0.75044	0.76017	0.9986	0.0042
0.71732	0.72663	0.9795	0.0052
0.65689	0.66542	0.9497	0.006
0.57992	0.58744	0.90825	0.00524
0.51835	0.52508	0.8858	0.0056
1.099	0.54691	1.14	0.0071
1.03088	0.51301	1.1175	0.0073
0.97576	0.48558	1.0862	0.0061
0.94298	0.46927	1.0768	0.006
0.93909	0.46733	1.07235	0.00594
0.91053	0.45312	1.0636	0.0056
0.89178	0.44379	1.0571	0.0057
0.85021	0.4231	1.0396	0.0052
0.7767	0.38652	1.0104	0.0061
0.67916	0.33798	0.9756	0.0052
0.6064	0.30177	0.9525	0.0054
1.25726	0.24191	1.17625	0.00861
1.17839	0.22673	1.1539	0.0083
1.11379	0.21431	1.1232	0.0071
1.07655	0.20714	1.1133	0.0075
1.07072	0.20602	1.1101	0.0071
1.03859	0.19984	1.1007	0.0065
1.02042	0.19634	1.0905	0.0064
0.968	0.18625	1.0778	0.006
0.88221	0.16975	1.05	0.0082
0.7719	0.14852	1.0132	0.0059
0.6877	0.13232	0.9914	0.0047
1.395	0	1.1961	0.0091
1.3087	0	1.1723	0.0107
1.2344	0	1.1434	0.008
1.1912	0	1.13525	0.0096
1.187	0	1.1298	0.0131
1.1497	0	1.1218	0.0076
1.1257	0	1.1153	0.0072
1.0672	0	1.103	0.0066
0.9755	0	1.0714	0.009
0.855	0	1.0321	0.0058
0.7578	0	1.0152	0.005
0	2.3855	0.7456	0.0101
0	2.2434	0.7136	0.0111
0	2.1323	0.6921	0.0121
0	2.0069	0.6646	0.0131
0	1.8839	0.6414	0.0139
0	1.803	0.6247	0.0145
0	1.7421	0.6173	0.0149
0	1.7001	0.6094	0.0152
0	1.6432	0.6012	0.0155
0	1.6071	0.5946	0.0157
0	1.5846	0.5925	0.0159
0	1.562	0.5861	0.0161

System: water + magnesium nitrate; phases: Liquid, Gas
Fixed: Temperature, K = 298.15
Property: Osmotic coefficient (Liquid); method: ISOPIE
Molality, mol/kg of magnesium nitrate	Osmotic coefficient	uncertainty
1.395	1.1961	0.0091
1.3087	1.1723	0.0107
1.2344	1.1434	0.008
1.1912	1.13525	0.0096
1.187	1.1298	0.0131
1.1497	1.1218	0.0076
1.1257	1.1153	0.0072
1.0672	1.103	0.0066
0.9755	1.0714	0.009
0.855	1.0321	0.0058
0.7578	1.0152	0.005
