Measured thermophysical data. Densities and viscosities of binary liquid mixtures of N-methylacetamide with some chloroethanes and chloroethenes at T = 308.15 K
Source: J. Chem. Thermodyn., 2007, 10.1016/j.jct.2006.06.009
Compound 1: N-methylacetamide, C3H7NO, InChI=1S/C3H7NO/c1-3(5)4-2/h1-2H3,(H,4,5), purity 99%
Compound 2: 1,2-dichloroethane, C2H4Cl2, InChI=1S/C2H4Cl2/c3-1-2-4/h1-2H2, purity 99%
Compound 3: 1,1,2,2-tetrachloroethane, C2H2Cl4, InChI=1S/C2H2Cl4/c3-1(4)2(5)6/h1-2H, purity 98.5%
Compound 4: 1,1,2-trichloroethane, C2H3Cl3, InChI=1S/C2H3Cl3/c3-1-2(4)5/h2H,1H2, purity 98%
Compound 5: trichloroethene, C2HCl3, InChI=1S/C2HCl3/c3-1-2(4)5/h1H, purity 99%
Compound 6: tetrachloroethene, C2Cl4, InChI=1S/C2Cl4/c3-1(4)2(5)6, purity 99%

System: N-methylacetamide; phases: Liquid
Property: Viscosity, Pa*s (Liquid); method: CAPTUB:UFactor:2
Temperature, K	Pressure, kPa	Viscosity, Pa*s	uncertainty
308.15	101	0.003312	4e-05

System: N-methylacetamide; phases: Liquid
Property: Mass density, kg/m3 (Liquid); method: PYCNOM:UFactor:4
Temperature, K	Pressure, kPa	Mass density, kg/m3	uncertainty
308.15	101	945.9	1.2

System: 1,2-dichloroethane; phases: Liquid
Property: Viscosity, Pa*s (Liquid); method: CAPTUB::UFactor:2
Temperature, K	Pressure, kPa	Viscosity, Pa*s	uncertainty
308.15	101	0.000646	1.3e-05

System: 1,2-dichloroethane; phases: Liquid
Property: Mass density, kg/m3 (Liquid); method: PYCNOM::UFactor:4
Temperature, K	Pressure, kPa	Mass density, kg/m3	uncertainty
308.15	101	1230.8	1.7

System: 1,1,2,2-tetrachloroethane; phases: Liquid
Property: Viscosity, Pa*s (Liquid); method: CAPTUB::UFactor:4
Temperature, K	Pressure, kPa	Viscosity, Pa*s	uncertainty
308.15	101	0.001334	3.3e-05

System: 1,1,2,2-tetrachloroethane; phases: Liquid
Property: Mass density, kg/m3 (Liquid); method: PYCNOM::UFactor:4
Temperature, K	Pressure, kPa	Mass density, kg/m3	uncertainty
308.15	101	1572.4	2.9

System: 1,1,2-trichloroethane; phases: Liquid
Property: Viscosity, Pa*s (Liquid); method: CAPTUB::UFactor:2
Temperature, K	Pressure, kPa	Viscosity, Pa*s	uncertainty
308.15	101	0.000903	1.7e-05

System: 1,1,2-trichloroethane; phases: Liquid
Property: Mass density, kg/m3 (Liquid); method: PYCNOM::UFactor:4
Temperature, K	Pressure, kPa	Mass density, kg/m3	uncertainty
308.15	101	1416.1	3.2

System: trichloroethene; phases: Liquid
Property: Viscosity, Pa*s (Liquid); method: CAPTUB::UFactor:2
Temperature, K	Pressure, kPa	Viscosity, Pa*s	uncertainty
308.15	101	0.00046	1.2e-05

System: trichloroethene; phases: Liquid
Property: Mass density, kg/m3 (Liquid); method: PYCNOM::UFactor:4
Temperature, K	Pressure, kPa	Mass density, kg/m3	uncertainty
308.15	101	1438.5	2

System: tetrachloroethene; phases: Liquid
Property: Viscosity, Pa*s (Liquid); method: CAPTUB::UFactor:2
Temperature, K	Pressure, kPa	Viscosity, Pa*s	uncertainty
308.15	101	0.000723	1.4e-05

System: tetrachloroethene; phases: Liquid
Property: Mass density, kg/m3 (Liquid); method: PYCNOM::UFactor:4
Temperature, K	Pressure, kPa	Mass density, kg/m3	uncertainty
308.15	101	1599.2	2.3

System: N-methylacetamide + 1,2-dichloroethane; phases: Liquid
Fixed: Temperature, K = 308.15
Fixed: Pressure, kPa = 101
Property: Viscosity, Pa*s (Liquid); method: CAPTUB:UFactor:2
Mole fraction of N-methylacetamide	Viscosity, Pa*s	uncertainty
0	0.000646	1.3e-05
0.063	0.000705	1.4e-05
0.134	0.000785	1.4e-05
0.2632	0.001024	1.6e-05
0.3875	0.001342	1.9e-05
0.4442	0.0015	2e-05
0.5064	0.001694	2.2e-05
0.6863	0.002245	2.8e-05
0.807	0.002651	3.3e-05
0.931	0.003083	3.8e-05
1	0.003312	4e-05

System: N-methylacetamide + 1,2-dichloroethane; phases: Liquid
Fixed: Temperature, K = 308.15
Fixed: Pressure, kPa = 101
Property: Mass density, kg/m3 (Liquid); method: PYCNOM:UFactor:4
Mole fraction of N-methylacetamide	Mass density, kg/m3	uncertainty
0	1230.8	1.7
0.063	1213.8	1.6
0.134	1194.7	1.6
0.2632	1159.1	1.5
0.3875	1124.3	1.5
0.4442	1108.2	1.4
0.5064	1090.5	1.4
0.6863	1038.5	1.3
0.807	1003.1	1.3
0.931	966.5	1.2
1	945.9	1.2

System: 1,1,2-trichloroethane + N-methylacetamide; phases: Liquid
Fixed: Temperature, K = 308.15
Fixed: Pressure, kPa = 101
Property: Viscosity, Pa*s (Liquid); method: CAPTUB:UFactor:2
Mole fraction of N-methylacetamide	Viscosity, Pa*s	uncertainty
0	0.000903	1.7e-05
0.0706	0.001003	1.8e-05
0.2356	0.001365	2.2e-05
0.3484	0.001771	2.6e-05
0.452	0.00218	3e-05
0.5461	0.002537	3.4e-05
0.643	0.00288	3.8e-05
0.7345	0.003105	4e-05
0.8235	0.003249	4.1e-05
0.9497	0.003345	4.1e-05
1	0.003312	4e-05

System: 1,1,2-trichloroethane + N-methylacetamide; phases: Liquid
Fixed: Temperature, K = 308.15
Fixed: Pressure, kPa = 101
Property: Mass density, kg/m3 (Liquid); method: PYCNOM:UFactor:4
Mole fraction of N-methylacetamide	Mass density, kg/m3	uncertainty
0	1416.1	3.2
0.0706	1390.4	3
0.2356	1324.2	2.6
0.3484	1276	2.3
0.452	1229.9	2.1
0.5461	1186.3	1.9
0.643	1139.1	1.7
0.7345	1092.7	1.6
0.8235	1045.8	1.4
0.9497	975.3	1.3
1	945.9	1.2

System: N-methylacetamide + 1,1,2,2-tetrachloroethane; phases: Liquid
Fixed: Temperature, K = 308.15
Fixed: Pressure, kPa = 101
Property: Viscosity, Pa*s (Liquid); method: CAPTUB:UFactor:4
Mole fraction of N-methylacetamide	Viscosity, Pa*s	uncertainty
0	0.001334	3.3e-05
0.0621	0.001499	3.7e-05
0.2627	0.002226	5.3e-05
0.3728	0.002726	6.4e-05
0.4796	0.003398	7.8e-05
0.5797	0.003936	9e-05
0.6722	0.004291	9.7e-05
0.7594	0.004404	9.9e-05
0.8413	0.004036	9.1e-05
0.9679	0.003533	8e-05
1	0.003312	7.5e-05

System: N-methylacetamide + 1,1,2,2-tetrachloroethane; phases: Liquid
Fixed: Temperature, K = 308.15
Fixed: Pressure, kPa = 101
Property: Mass density, kg/m3 (Liquid); method: PYCNOM:UFactor:4
Mole fraction of N-methylacetamide	Mass density, kg/m3	uncertainty
0	1572.4	2.9
0.0621	1545.5	2.8
0.2627	1450.5	2.4
0.3728	1393	2.2
0.4796	1331.6	2
0.5797	1268.9	1.9
0.6722	1206.5	1.7
0.7594	1143.7	1.6
0.8413	1080.7	1.5
0.9679	974.8	1.2
1	945.9	1.2

System: trichloroethene + N-methylacetamide; phases: Liquid
Fixed: Temperature, K = 308.15
Fixed: Pressure, kPa = 101
Property: Viscosity, Pa*s (Liquid); method: CAPTUB:UFactor:2
Mole fraction of N-methylacetamide	Viscosity, Pa*s	uncertainty
0	0.00046	1.2e-05
0.0514	0.000564	1.3e-05
0.2353	0.001015	1.6e-05
0.3404	0.001291	1.8e-05
0.4437	0.001578	2.1e-05
0.5419	0.001856	2.4e-05
0.6357	0.00215	2.7e-05
0.7288	0.00245	3e-05
0.8196	0.00274	3.4e-05
0.9692	0.003215	3.9e-05
1	0.003312	4e-05

System: trichloroethene + N-methylacetamide; phases: Liquid
Fixed: Temperature, K = 308.15
Fixed: Pressure, kPa = 101
Property: Mass density, kg/m3 (Liquid); method: PYCNOM:UFactor:4
Mole fraction of N-methylacetamide	Mass density, kg/m3	uncertainty
0	1438.5	2
0.0514	1417.9	2
0.2353	1340.4	1.9
0.3404	1293.3	1.8
0.4437	1244.6	1.7
0.5419	1196.4	1.6
0.6357	1148.5	1.5
0.7288	1099.4	1.4
0.8196	1049.9	1.4
0.9692	964.4	1.2
1	945.9	1.2

System: N-methylacetamide + tetrachloroethene; phases: Liquid
Fixed: Temperature, K = 308.15
Fixed: Pressure, kPa = 101
Property: Viscosity, Pa*s (Liquid); method: CAPTUB:UFactor:2
Mole fraction of N-methylacetamide	Viscosity, Pa*s	uncertainty
0	0.000723	1.4e-05
0.0571	0.000801	1.4e-05
0.2569	0.001541	2.1e-05
0.3691	0.001895	2.4e-05
0.4749	0.002195	2.7e-05
0.5719	0.002411	3e-05
0.6637	0.00261	3.2e-05
0.7039	0.002696	3.3e-05
0.8385	0.002981	3.7e-05
0.9666	0.003245	4e-05
1	0.003312	4e-05

System: N-methylacetamide + tetrachloroethene; phases: Liquid
Fixed: Temperature, K = 308.15
Fixed: Pressure, kPa = 101
Property: Mass density, kg/m3 (Liquid); method: PYCNOM:UFactor:4
Mole fraction of N-methylacetamide	Mass density, kg/m3	uncertainty
0	1599.2	2.3
0.0571	1573.5	2.3
0.2569	1463.9	2.1
0.3691	1396.5	2
0.4749	1330.8	1.8
0.5719	1268.3	1.7
0.6637	1206.2	1.6
0.7039	1178	1.6
0.8385	1078.2	1.4
0.9666	974.6	1.2
1	945.9	1.2
