Measured thermophysical data. Activity coefficients at infinite dilution measurements for organic solutes in the ionic liquid hexyl-3-methyl-imidazolium bis(trifluoromethylsulfonyl)-imide using g.l.c. at T = (298.15, 313.15, and 333.15) K
Source: J. Chem. Thermodyn., 2005, 10.1016/j.jct.2005.03.014
Compound 1: 1-hexyl-3-methylimidazolium bis[(trifluoromethyl)sulfonyl]imide, C12H19F6N3O4S2, InChI=1S/C10H19N2.C2F6NO4S2/c1-3-4-5-6-7-12-9-8-11(2)10-12;3-1(4,5)14(10,11)9-15(12,13)2(6,7)8/h8-10H,3-7H2,1-2H3;/q+1;-1, purity 98%
Compound 2: pentane, C5H12, InChI=1S/C5H12/c1-3-5-4-2/h3-5H2,1-2H3, purity 99%
Compound 3: hexane, C6H14, InChI=1S/C6H14/c1-3-5-6-4-2/h3-6H2,1-2H3, purity 99%
Compound 4: heptane, C7H16, InChI=1S/C7H16/c1-3-5-7-6-4-2/h3-7H2,1-2H3, purity 99%
Compound 5: octane, C8H18, InChI=1S/C8H18/c1-3-5-7-8-6-4-2/h3-8H2,1-2H3, purity 99%
Compound 6: hex-1-ene, C6H12, InChI=1S/C6H12/c1-3-5-6-4-2/h3H,1,4-6H2,2H3, purity 99%
Compound 7: oct-1-ene, C8H16, InChI=1S/C8H16/c1-3-5-7-8-6-4-2/h3H,1,4-8H2,2H3, purity 99%
Compound 8: 1-hexyne, C6H10, InChI=1S/C6H10/c1-3-5-6-4-2/h1H,4-6H2,2H3, purity 99%
Compound 9: 1-heptyne, C7H12, InChI=1S/C7H12/c1-3-5-7-6-4-2/h1H,4-7H2,2H3, purity 99%
Compound 10: 1-octyne, C8H14, InChI=1S/C8H14/c1-3-5-7-8-6-4-2/h1H,4-8H2,2H3, purity 99%
Compound 11: cyclopentane, C5H10, InChI=1S/C5H10/c1-2-4-5-3-1/h1-5H2, purity 99%
Compound 12: cyclohexane, C6H12, InChI=1S/C6H12/c1-2-4-6-5-3-1/h1-6H2, purity 99%
Compound 13: cycloheptane, C7H14, InChI=1S/C7H14/c1-2-4-6-7-5-3-1/h1-7H2, purity 99%
Compound 14: benzene, C6H6, InChI=1S/C6H6/c1-2-4-6-5-3-1/h1-6H, purity 99%
Compound 15: tetrachloromethane, CCl4, InChI=1S/CCl4/c2-1(3,4)5, purity 99%
Compound 16: methanol, CH4O, InChI=1S/CH4O/c1-2/h2H,1H3, purity 99%

System: hexane + 1-hexyl-3-methylimidazolium bis[(trifluoromethyl)sulfonyl]imide; phases: Liquid, Gas
Fixed: Mole fraction of hexane = 0
Property: Activity coefficient of hexane (Liquid); method: CHROM:UFactor:2
Temperature, K	Activity coefficient of hexane	uncertainty
298.15	8.33	0.76
313.15	7.71	0.71
333.15	7.24	0.66

System: heptane + 1-hexyl-3-methylimidazolium bis[(trifluoromethyl)sulfonyl]imide; phases: Liquid, Gas
Fixed: Mole fraction of heptane = 0
Property: Activity coefficient of heptane (Liquid); method: CHROM:UFactor:2
Temperature, K	Activity coefficient of heptane	uncertainty
298.15	10.9	1
313.15	9.97	0.92
333.15	9.22	0.85

System: octane + 1-hexyl-3-methylimidazolium bis[(trifluoromethyl)sulfonyl]imide; phases: Liquid, Gas
Fixed: Mole fraction of octane = 0
Property: Activity coefficient of octane (Liquid); method: CHROM:UFactor:2
Temperature, K	Activity coefficient of octane	uncertainty
298.15	14.9	1.4
313.15	12.8	1.2
333.15	11.9	1.1

System: hex-1-ene + 1-hexyl-3-methylimidazolium bis[(trifluoromethyl)sulfonyl]imide; phases: Liquid, Gas
Fixed: Mole fraction of hex-1-ene = 0
Property: Activity coefficient of hex-1-ene (Liquid); method: CHROM:UFactor:2
Temperature, K	Activity coefficient of hex-1-ene	uncertainty
298.15	4.74	0.43
313.15	4.57	0.42
333.15	4.36	0.4

System: oct-1-ene + 1-hexyl-3-methylimidazolium bis[(trifluoromethyl)sulfonyl]imide; phases: Liquid, Gas
Fixed: Mole fraction of oct-1-ene = 0
Property: Activity coefficient of oct-1-ene (Liquid); method: CHROM:UFactor:2
Temperature, K	Activity coefficient of oct-1-ene	uncertainty
298.15	8.36	0.77
313.15	7.77	0.71
333.15	7.18	0.66

System: 1-hexyne + 1-hexyl-3-methylimidazolium bis[(trifluoromethyl)sulfonyl]imide; phases: Liquid, Gas
Fixed: Mole fraction of 1-hexyne = 0
Property: Activity coefficient of 1-hexyne (Liquid); method: CHROM:UFactor:2
Temperature, K	Activity coefficient of 1-hexyne	uncertainty
298.51	1.88	0.16
313.15	1.88	0.16
333.15	1.9	0.17

System: 1-heptyne + 1-hexyl-3-methylimidazolium bis[(trifluoromethyl)sulfonyl]imide; phases: Liquid, Gas
Fixed: Mole fraction of 1-heptyne = 0
Property: Activity coefficient of 1-heptyne (Liquid); method: CHROM:UFactor:2
Temperature, K	Activity coefficient of 1-heptyne	uncertainty
298.15	2.42	0.22
313.15	2.45	0.22
333.15	2.48	0.23

System: 1-octyne + 1-hexyl-3-methylimidazolium bis[(trifluoromethyl)sulfonyl]imide; phases: Liquid, Gas
Fixed: Mole fraction of 1-octyne = 0
Property: Activity coefficient of 1-octyne (Liquid); method: CHROM:UFactor:2
Temperature, K	Activity coefficient of 1-octyne	uncertainty
298.15	3.24	0.29
313.15	3.21	0.29
333.15	3.18	0.29

System: cyclopentane + 1-hexyl-3-methylimidazolium bis[(trifluoromethyl)sulfonyl]imide; phases: Liquid, Gas
Fixed: Mole fraction of cyclopentane = 0
Property: Activity coefficient of cyclopentane (Liquid); method: CHROM:UFactor:2
Temperature, K	Activity coefficient of cyclopentane	uncertainty
298.15	4.07	0.37
313.15	3.85	0.35
333.15	3.6	0.33

System: cyclohexane + 1-hexyl-3-methylimidazolium bis[(trifluoromethyl)sulfonyl]imide; phases: Liquid, Gas
Fixed: Mole fraction of cyclohexane = 0
Property: Activity coefficient of cyclohexane (Liquid); method: CHROM:UFactor:2
Temperature, K	Activity coefficient of cyclohexane	uncertainty
298.15	5.5	0.5
313.15	5.06	0.46
333.15	4.63	0.42

System: cycloheptane + 1-hexyl-3-methylimidazolium bis[(trifluoromethyl)sulfonyl]imide; phases: Liquid, Gas
Fixed: Mole fraction of cycloheptane = 0
Property: Activity coefficient of cycloheptane (Liquid); method: CHROM:UFactor:2
Temperature, K	Activity coefficient of cycloheptane	uncertainty
298.15	6.82	0.62
313.15	6.21	0.57
333.15	5.64	0.52

System: benzene + 1-hexyl-3-methylimidazolium bis[(trifluoromethyl)sulfonyl]imide; phases: Liquid, Gas
Fixed: Mole fraction of benzene = 0
Property: Activity coefficient of benzene (Liquid); method: CHROM:UFactor:2
Temperature, K	Activity coefficient of benzene	uncertainty
298.15	0.674	0.06
313.15	0.687	0.059
333.15	0.7	0.059

System: tetrachloromethane + 1-hexyl-3-methylimidazolium bis[(trifluoromethyl)sulfonyl]imide; phases: Liquid, Gas
Fixed: Mole fraction of tetrachloromethane = 0
Property: Activity coefficient of tetrachloromethane (Liquid); method: CHROM:UFactor:2
Temperature, K	Activity coefficient of tetrachloromethane	uncertainty
298.15	1.67	0.14
313.15	1.68	0.14
333.15	1.69	0.14

System: methanol + 1-hexyl-3-methylimidazolium bis[(trifluoromethyl)sulfonyl]imide; phases: Liquid, Gas
Fixed: Mole fraction of methanol = 0
Property: Activity coefficient of methanol (Liquid); method: CHROM:UFactor:2
Temperature, K	Activity coefficient of methanol	uncertainty
298.15	1.34	0.09
313.15	1.17	0.07
333.15	1	0.05

System: pentane + 1-hexyl-3-methylimidazolium bis[(trifluoromethyl)sulfonyl]imide; phases: Liquid, Gas
Fixed: Mole fraction of pentane = 0
Property: Activity coefficient of pentane (Liquid); method: CHROM:UFactor:2
Temperature, K	Activity coefficient of pentane	uncertainty
298.15	6.65	0.61
313.15	6.28	0.57
333.15	5.78	0.53
