Measured thermophysical data. Solution behavior of {(formamide/N-methylformamide/ N,N-dimethylformamide) + CsCl + water} ternary systems at multiple temperatures
Source: J. Chem. Thermodyn., 2014, 10.1016/j.jct.2014.05.013
Compound 1: formamide, CH3NO, InChI=1S/CH3NO/c2-1-3/h1H,(H2,2,3), purity 99.5%
Compound 2: N-methylformamide, C2H5NO, InChI=1S/C2H5NO/c1-3-2-4/h2H,1H3,(H,3,4), purity 99.5%
Compound 3: dimethylformamide, C3H7NO, InChI=1S/C3H7NO/c1-4(2)3-5/h3H,1-2H3, purity 99.5%
Compound 4: cesium chloride, ClCs, InChI=1S/ClH.Cs/h1H;/q;+1/p-1, purity 99.5%
Compound 5: water, H2O, InChI=1S/H2O/h1H2

System: formamide; phases: Liquid
Fixed: Pressure, kPa = 100
Property: Mass density, kg/m3 (Liquid); method: Vibrating tube method
Temperature, K	Mass density, kg/m3	uncertainty
288.15	1137.8	1.01
298.15	1129.18	1.01
308.15	1120.75	1.01

System: N-methylformamide; phases: Liquid
Fixed: Pressure, kPa = 100
Property: Mass density, kg/m3 (Liquid); method: Vibrating tube method
Temperature, K	Mass density, kg/m3	uncertainty
288.15	1007.94	1
298.15	999.25	1
308.15	990.63	1

System: dimethylformamide; phases: Liquid
Fixed: Pressure, kPa = 100
Property: Mass density, kg/m3 (Liquid); method: Vibrating tube method
Temperature, K	Mass density, kg/m3	uncertainty
288.15	953.53	1
298.15	943.89	1
308.15	934.39	1

System: water; phases: Liquid
Fixed: Pressure, kPa = 100
Property: Mass density, kg/m3 (Liquid); method: Vibrating tube method
Temperature, K	Mass density, kg/m3	uncertainty
288.15	999	1
298.15	997	1
308.15	994.03	1

System: formamide + cesium chloride + water; phases: Liquid, Crystal
Fixed: Pressure, kPa = 100
Property: Mass fraction of cesium chloride (Liquid); method: Titration method
Temperature, K	Solvent: Mass fraction of formamide	Mass fraction of cesium chloride	uncertainty
288.15	0	0.646	0.0058
288.15	0.1	0.6249	0.0058
288.15	0.2	0.5994	0.0057
288.15	0.3	0.5729	0.0057
288.15	0.4	0.534	0.0057
288.15	0.5	0.5018	0.0057
288.15	0.6	0.4505	0.0057
288.15	0.7	0.41	0.0057
288.15	0.8	0.3497	0.0057
288.15	0.9	0.2945	0.0056
288.15	1	0.2292	0.0056
298.15	0	0.6545	0.0058
298.15	0.1	0.6323	0.0058
298.15	0.2	0.6077	0.0057
298.15	0.3	0.5815	0.0057
298.15	0.4	0.5531	0.0057
298.15	0.5	0.5096	0.0057
298.15	0.6	0.4701	0.0057
298.15	0.7	0.4148	0.0057
298.15	0.8	0.3638	0.0057
298.15	0.9	0.3016	0.0056
298.15	1	0.2331	0.0056
308.15	0	0.6666	0.0058
308.15	0.1	0.6467	0.0058
308.15	0.2	0.6246	0.0058
308.15	0.3	0.6008	0.0057
308.15	0.4	0.5633	0.0057
308.15	0.5	0.5247	0.0057
308.15	0.6	0.4847	0.0057
308.15	0.7	0.4306	0.0057
308.15	0.8	0.374	0.0057
308.15	0.9	0.311	0.0056
308.15	1	0.2412	0.0056

System: formamide + cesium chloride + water; phases: Liquid
Fixed: Pressure, kPa = 100
Property: Refractive index (Na D-line) (Liquid); method: Standard Abbe refractometry
Temperature, K	Solvent: Mass fraction of formamide	Mass fraction of cesium chloride	Refractive index (Na D-line)	uncertainty
288.15	0	0.646	1.41803	0.00032
288.15	0.1	0.6249	1.42129	0.00032
288.15	0.2	0.5994	1.42468	0.00032
288.15	0.3	0.5729	1.42825	0.00032
288.15	0.4	0.534	1.4319	0.00032
288.15	0.5	0.5018	1.43583	0.00032
288.15	0.6	0.4505	1.44017	0.00032
288.15	0.7	0.41	1.44486	0.00032
288.15	0.8	0.3497	1.4502	0.00032
288.15	0.9	0.2945	1.45609	0.00032
288.15	1	0.2292	1.46286	0.00032
298.15	0	0.6545	1.41971	0.00032
298.15	0.1	0.6323	1.42282	0.00032
298.15	0.2	0.6077	1.42592	0.00032
298.15	0.3	0.5815	1.42908	0.00032
298.15	0.4	0.5531	1.43239	0.00032
298.15	0.5	0.5096	1.43601	0.00032
298.15	0.6	0.4701	1.43983	0.00032
298.15	0.7	0.4148	1.44408	0.00032
298.15	0.8	0.3638	1.4489	0.00032
298.15	0.9	0.3016	1.4545	0.00032
298.15	1	0.2331	1.46096	0.00032
308.15	0	0.6666	1.42086	0.00032
308.15	0.1	0.6467	1.42316	0.00032
308.15	0.2	0.6246	1.42634	0.00032
308.15	0.3	0.6008	1.42944	0.00032
308.15	0.4	0.5633	1.43236	0.00032
308.15	0.5	0.5247	1.43527	0.00032
308.15	0.6	0.4847	1.43905	0.00032
308.15	0.7	0.4306	1.44201	0.00032
308.15	0.8	0.374	1.44717	0.00032
308.15	0.9	0.311	1.45231	0.00032
308.15	1	0.2412	1.45811	0.00032

System: formamide + cesium chloride + water; phases: Liquid
Fixed: Pressure, kPa = 100
Property: Mass density, kg/m3 (Liquid); method: Vibrating tube method
Temperature, K	Solvent: Mass fraction of formamide	Mass fraction of cesium chloride	Mass density, kg/m3	uncertainty
288.15	0	0.646	1894.15	1.53
288.15	0.1	0.6249	1856.19	1.51
288.15	0.2	0.5994	1814.48	1.49
288.15	0.3	0.5729	1768.99	1.46
288.15	0.4	0.534	1719.04	1.44
288.15	0.5	0.5018	1664.12	1.41
288.15	0.6	0.4505	1603.89	1.38
288.15	0.7	0.41	1543.48	1.35
288.15	0.8	0.3497	1480.28	1.33
288.15	0.9	0.2945	1419.68	1.3
288.15	1	0.2292	1359.39	1.28
298.15	0	0.6545	1921.87	1.54
298.15	0.1	0.6323	1885.71	1.52
298.15	0.2	0.6077	1842.72	1.5
298.15	0.3	0.5815	1795.16	1.48
298.15	0.4	0.5531	1742.64	1.45
298.15	0.5	0.5096	1683.03	1.42
298.15	0.6	0.4701	1620.82	1.39
298.15	0.7	0.4148	1554.86	1.36
298.15	0.8	0.3638	1487.42	1.33
298.15	0.9	0.3016	1419.82	1.3
298.15	1	0.2331	1354.37	1.27
308.15	0	0.6666	1947.03	1.56
308.15	0.1	0.6467	1903.6	1.53
308.15	0.2	0.6246	1864.7	1.51
308.15	0.3	0.6008	1816.56	1.49
308.15	0.4	0.5633	1762.19	1.46
308.15	0.5	0.5247	1698.04	1.43
308.15	0.6	0.4847	1635.54	1.4
308.15	0.7	0.4306	1558.11	1.36
308.15	0.8	0.374	1493.66	1.33
308.15	0.9	0.311	1421.25	1.3
308.15	1	0.2412	1354.14	1.27

System: formamide + cesium chloride + water; phases: Liquid, Crystal
Fixed: Pressure, kPa = 100
Property: Solid-liquid equilibrium temperature, K (Liquid); method: VISOBS
Solvent: Mass fraction of formamide	Mass fraction of cesium chloride	Solid-liquid equilibrium temperature, K	uncertainty
0.3	0.6223	329.7	0.6
0.3	0.6034	314.5	0.6
0.3	0.5885	302.3	0.6
0.3	0.5771	295.1	0.5
0.3	0.5605	285.2	0.5
0.5	0.5571	332.3	0.6
0.5	0.5391	317	0.6
0.5	0.528	309.2	0.5
0.5	0.5161	302	0.5
0.5	0.5076	295.3	0.5
0.5	0.4982	290.2	0.4
0.7	0.4549	332.7	1
0.7	0.443	315.7	0.8
0.7	0.4352	310	0.5
0.7	0.4217	300.8	0.5
0.7	0.4128	294.5	0.5
0.7	0.4028	287.1	0.6

System: N-methylformamide + cesium chloride + water; phases: Liquid, Crystal
Fixed: Pressure, kPa = 100
Property: Mass fraction of cesium chloride (Liquid); method: Titration method
Temperature, K	Solvent: Mass fraction of N-methylformamide	Mass fraction of cesium chloride	uncertainty
288.15	0	0.646	0.0058
288.15	0.1	0.6107	0.0057
288.15	0.2	0.5586	0.0057
288.15	0.3	0.4951	0.0057
288.15	0.4	0.4347	0.0057
288.15	0.5	0.3509	0.0057
288.15	0.6	0.2773	0.0056
288.15	0.7	0.1972	0.0056
288.15	0.8	0.1397	0.0056
288.15	0.9	0.0961	0.0056
288.15	1	0.0585	0.0056
298.15	0	0.6545	0.0058
298.15	0.1	0.6154	0.0058
298.15	0.2	0.5652	0.0057
298.15	0.3	0.5081	0.0057
298.15	0.4	0.4429	0.0057
298.15	0.5	0.3719	0.0057
298.15	0.6	0.2918	0.0056
298.15	0.7	0.2138	0.0056
298.15	0.8	0.146	0.0056
298.15	0.9	0.097	0.0056
298.15	1	0.0599	0.0056
308.15	0	0.6666	0.0058
308.15	0.1	0.6245	0.0058
308.15	0.2	0.5848	0.0057
308.15	0.3	0.5255	0.0057
308.15	0.4	0.4684	0.0057
308.15	0.5	0.3868	0.0057
308.15	0.6	0.307	0.0056
308.15	0.7	0.224	0.0056
308.15	0.8	0.1537	0.0056
308.15	0.9	0.1005	0.0056
308.15	1	0.062	0.0056

System: N-methylformamide + cesium chloride + water; phases: Liquid
Fixed: Pressure, kPa = 100
Property: Refractive index (Na D-line) (Liquid); method: Standard Abbe refractometry
Temperature, K	Solvent: Mass fraction of N-methylformamide	Mass fraction of cesium chloride	Refractive index (Na D-line)	uncertainty
288.15	0	0.646	1.41803	0.00032
288.15	0.1	0.6107	1.41742	0.00032
288.15	0.2	0.5586	1.41694	0.00032
288.15	0.3	0.4951	1.41674	0.00032
288.15	0.4	0.4347	1.41696	0.00032
288.15	0.5	0.3509	1.41796	0.00032
288.15	0.6	0.2773	1.41955	0.00032
288.15	0.7	0.1972	1.42279	0.00032
288.15	0.8	0.1397	1.42695	0.00032
288.15	0.9	0.0961	1.43201	0.00032
288.15	1	0.0585	1.43767	0.00032
298.15	0	0.6545	1.41971	0.00032
298.15	0.1	0.6154	1.41915	0.00032
298.15	0.2	0.5652	1.41857	0.00032
298.15	0.3	0.5081	1.41808	0.00032
298.15	0.4	0.4429	1.41789	0.00032
298.15	0.5	0.3719	1.4183	0.00032
298.15	0.6	0.2918	1.41942	0.00032
298.15	0.7	0.2138	1.42165	0.00032
298.15	0.8	0.146	1.42503	0.00032
298.15	0.9	0.097	1.42947	0.00032
298.15	1	0.0599	1.43465	0.00032
308.15	0	0.6666	1.42086	0.00032
308.15	0.1	0.6245	1.41991	0.00032
308.15	0.2	0.5848	1.41965	0.00032
308.15	0.3	0.5255	1.41903	0.00032
308.15	0.4	0.4684	1.41863	0.00032
308.15	0.5	0.3868	1.41813	0.00032
308.15	0.6	0.307	1.41825	0.00032
308.15	0.7	0.224	1.41973	0.00032
308.15	0.8	0.1537	1.42271	0.00032
308.15	0.9	0.1005	1.42675	0.00032
308.15	1	0.062	1.43161	0.00032

System: N-methylformamide + cesium chloride + water; phases: Liquid
Fixed: Pressure, kPa = 100
Property: Mass density, kg/m3 (Liquid); method: Vibrating tube method
Temperature, K	Solvent: Mass fraction of N-methylformamide	Mass fraction of cesium chloride	Mass density, kg/m3	uncertainty
288.15	0	0.646	1894.15	1.53
288.15	0.1	0.6107	1801.82	1.48
288.15	0.2	0.5586	1702.05	1.43
288.15	0.3	0.4951	1596.37	1.38
288.15	0.4	0.4347	1486.7	1.33
288.15	0.5	0.3509	1380.84	1.28
288.15	0.6	0.2773	1277.29	1.24
288.15	0.7	0.1972	1197.72	1.21
288.15	0.8	0.1397	1135.26	1.19
288.15	0.9	0.0961	1090.53	1.18
288.15	1	0.0585	1054.35	1.16
298.15	0	0.6545	1921.87	1.54
298.15	0.1	0.6154	1831.73	1.49
298.15	0.2	0.5652	1733.14	1.44
298.15	0.3	0.5081	1626.67	1.39
298.15	0.4	0.4429	1515.32	1.34
298.15	0.5	0.3719	1404.46	1.29
298.15	0.6	0.2918	1298.95	1.25
298.15	0.7	0.2138	1207.8	1.22
298.15	0.8	0.146	1136.77	1.19
298.15	0.9	0.097	1085.41	1.17
298.15	1	0.0599	1046.14	1.16
308.15	0	0.6666	1947.03	1.56
308.15	0.1	0.6245	1857.21	1.51
308.15	0.2	0.5848	1759.13	1.46
308.15	0.3	0.5255	1653.19	1.41
308.15	0.4	0.4684	1540.58	1.35
308.15	0.5	0.3868	1429.46	1.3
308.15	0.6	0.307	1321.1	1.26
308.15	0.7	0.224	1217.12	1.22
308.15	0.8	0.1537	1133.18	1.19
308.15	0.9	0.1005	1079.39	1.17
308.15	1	0.062	1038.58	1.16

System: N-methylformamide + cesium chloride + water; phases: Liquid, Crystal
Fixed: Pressure, kPa = 100
Property: Solid-liquid equilibrium temperature, K (Liquid); method: VISOBS
Solvent: Mass fraction of N-methylformamide	Mass fraction of cesium chloride	Solid-liquid equilibrium temperature, K	uncertainty
0.3	0.5799	333.8	0.6
0.3	0.5585	317.1	0.5
0.3	0.543	308.9	0.4
0.3	0.5263	301.6	0.4
0.3	0.5103	294.3	0.4
0.3	0.4963	287.6	0.4
0.5	0.4471	333.7	0.4
0.5	0.4344	326.5	0.4
0.5	0.4145	316.5	0.4
0.5	0.3956	307.9	0.4
0.5	0.3769	300	0.3
0.5	0.3457	287.4	0.3
0.7	0.2601	333.9	0.7
0.7	0.2476	322.3	0.6
0.7	0.2342	313.5	0.5
0.7	0.2223	305.8	0.5
0.7	0.2114	298.2	0.5
0.7	0.1925	287	0.5

System: dimethylformamide + cesium chloride + water; phases: Liquid, Crystal
Fixed: Pressure, kPa = 100
Property: Mass fraction of cesium chloride (Liquid); method: Titration method
Temperature, K	Solvent: Mass fraction of dimethylformamide	Mass fraction of cesium chloride	uncertainty
288.15	0	0.646	0.0058
288.15	0.1	0.6065	0.0058
288.15	0.2	0.5445	0.0057
288.15	0.3	0.4757	0.0057
288.15	0.4	0.3945	0.0057
288.15	0.5	0.3169	0.0056
288.15	0.6	0.2068	0.0056
288.15	0.7	0.1104	0.0056
288.15	0.8	0.0459	0.0056
288.15	0.9	0.0084	0.0056
288.15	1	0.0005	0.0005
298.15	0	0.6545	0.0058
298.15	0.1	0.623	0.0058
298.15	0.2	0.5623	0.0057
298.15	0.3	0.4995	0.0057
298.15	0.4	0.4216	0.0057
298.15	0.5	0.3267	0.0056
298.15	0.6	0.2242	0.0056
298.15	0.7	0.1201	0.0056
298.15	0.8	0.0506	0.0056
298.15	0.9	0.0109	0.0056
298.15	1	0.0008	0.0008
308.15	0	0.6666	0.0058
308.15	0.1	0.6308	0.0058
308.15	0.2	0.5785	0.0057
308.15	0.3	0.5133	0.0057
308.15	0.4	0.4445	0.0057
308.15	0.5	0.3386	0.0057
308.15	0.6	0.2486	0.0056
308.15	0.7	0.1395	0.0056
308.15	0.8	0.0639	0.0056
308.15	0.9	0.0138	0.0056
308.15	1	0.0016	0.0016

System: dimethylformamide + cesium chloride + water; phases: Liquid
Fixed: Pressure, kPa = 100
Property: Refractive index (Na D-line) (Liquid); method: Standard Abbe refractometry
Temperature, K	Solvent: Mass fraction of dimethylformamide	Mass fraction of cesium chloride	Refractive index (Na D-line)	uncertainty
288.15	0	0.646	1.41803	0.00032
288.15	0.1	0.6065	1.41576	0.00032
288.15	0.2	0.5445	1.41512	0.00032
288.15	0.3	0.4757	1.41487	0.00032
288.15	0.4	0.3945	1.41552	0.00032
288.15	0.5	0.3169	1.41665	0.00032
288.15	0.6	0.2068	1.41893	0.00032
288.15	0.7	0.1104	1.42187	0.00032
288.15	0.8	0.0459	1.42514	0.00032
288.15	0.9	0.0084	1.42926	0.00032
288.15	1	0.0005	1.43298	0.00032
298.15	0	0.6545	1.41971	0.00032
298.15	0.1	0.623	1.418	0.00032
298.15	0.2	0.5623	1.41698	0.00032
298.15	0.3	0.4995	1.41636	0.00032
298.15	0.4	0.4216	1.41626	0.00032
298.15	0.5	0.3267	1.41671	0.00032
298.15	0.6	0.2242	1.41767	0.00032
298.15	0.7	0.1201	1.41948	0.00032
298.15	0.8	0.0506	1.42227	0.00032
298.15	0.9	0.0109	1.42557	0.00032
298.15	1	0.0008	1.4292	0.00032
308.15	0	0.6666	1.42086	0.00032
308.15	0.1	0.6308	1.42027	0.00032
308.15	0.2	0.5785	1.41927	0.00032
308.15	0.3	0.5133	1.41815	0.00032
308.15	0.4	0.4445	1.4175	0.00032
308.15	0.5	0.3386	1.41724	0.00032
308.15	0.6	0.2486	1.41768	0.00032
308.15	0.7	0.1395	1.4187	0.00032
308.15	0.8	0.0639	1.42078	0.00032
308.15	0.9	0.0138	1.42358	0.00032
308.15	1	0.0016	1.42658	0.00032

System: dimethylformamide + cesium chloride + water; phases: Liquid
Fixed: Pressure, kPa = 100
Property: Mass density, kg/m3 (Liquid); method: Vibrating tube method
Temperature, K	Solvent: Mass fraction of dimethylformamide	Mass fraction of cesium chloride	Mass density, kg/m3	uncertainty
288.15	0	0.646	1894.15	1.53
288.15	0.1	0.6065	1773.14	1.46
288.15	0.2	0.5445	1658.39	1.41
288.15	0.3	0.4757	1536.06	1.35
288.15	0.4	0.3945	1412.29	1.3
288.15	0.5	0.3169	1306.97	1.25
288.15	0.6	0.2068	1180.91	1.21
288.15	0.7	0.1104	1083.79	1.17
288.15	0.8	0.0459	1021.62	1.15
288.15	0.9	0.0084	986.12	1.14
288.15	1	0.0005	961.27	1
298.15	0	0.6545	1921.87	1.54
298.15	0.1	0.623	1811.03	1.48
298.15	0.2	0.5623	1693.55	1.43
298.15	0.3	0.4995	1569.82	1.37
298.15	0.4	0.4216	1441.98	1.31
298.15	0.5	0.3267	1313.42	1.26
298.15	0.6	0.2242	1190.19	1.21
298.15	0.7	0.1201	1085.16	1.17
298.15	0.8	0.0506	1011.93	1.15
298.15	0.9	0.0109	969.93	1.14
298.15	1	0.0008	944.51	1.01
308.15	0	0.6666	1947.03	1.56
308.15	0.1	0.6308	1837.86	1.5
308.15	0.2	0.5785	1723.72	1.44
308.15	0.3	0.5133	1598.08	1.38
308.15	0.4	0.4445	1470.93	1.32
308.15	0.5	0.3386	1343.75	1.27
308.15	0.6	0.2486	1205.85	1.22
308.15	0.7	0.1395	1092.64	1.18
308.15	0.8	0.0639	1010.37	1.15
308.15	0.9	0.0138	964.49	1.14
308.15	1	0.0016	937.54	1.01

System: dimethylformamide + cesium chloride + water; phases: Liquid, Crystal
Fixed: Pressure, kPa = 100
Property: Solid-liquid equilibrium temperature, K (Liquid); method: VISOBS
Solvent: Mass fraction of dimethylformamide	Mass fraction of cesium chloride	Solid-liquid equilibrium temperature, K	uncertainty
0.3	0.5768	333.7	0.4
0.3	0.5563	322.5	1
0.3	0.5547	320.4	1
0.3	0.5371	313	0.4
0.3	0.5174	303.8	0.4
0.3	0.4972	295	0.4
0.3	0.4781	287.3	0.3
0.5	0.3942	333.5	0.5
0.5	0.3815	324.6	0.4
0.5	0.3665	317.6	0.3
0.5	0.3483	311.2	0.4
0.5	0.3358	304.5	0.4
0.5	0.321	297.9	0.3
0.5	0.2976	290.2	0.3
0.7	0.1906	333.8	0.6
0.7	0.1816	326.9	0.5
0.7	0.1722	322	0.4
0.7	0.1578	315	0.4
0.7	0.1463	308.4	0.4
0.7	0.1331	301.1	0.4
0.7	0.1196	294.3	0.3
0.7	0.1013	288.7	0.3

System: formamide + water; phases: Liquid
Fixed: Pressure, kPa = 100
Property: Mass density, kg/m3 (Liquid); method: Vibrating tube method
Temperature, K	Mass fraction of formamide	Mass density, kg/m3	uncertainty
288.15	0	999	1
288.15	0.2	1030.04	1
288.15	0.4	1058.41	1
288.15	0.6	1085.67	1
288.15	0.8	1111.83	1.01
288.15	1	1137.8	1.01
298.15	0	997	1
298.15	0.2	1025.59	1
298.15	0.4	1052.51	1
298.15	0.6	1078.6	1
298.15	0.8	1103.81	1.01
298.15	1	1129.18	1.01
308.15	0	994.03	1
308.15	0.2	1020.7	1
308.15	0.4	1046.35	1
308.15	0.6	1071.43	1
308.15	0.8	1095.93	1.01
308.15	1	1120.75	1.01

System: N-methylformamide + water; phases: Liquid
Fixed: Pressure, kPa = 100
Property: Mass density, kg/m3 (Liquid); method: Vibrating tube method
Temperature, K	Mass fraction of N-methylformamide	Mass density, kg/m3	uncertainty
288.15	0	999	1
288.15	0.2	1010.26	1
288.15	0.4	1019.56	1
288.15	0.6	1023.57	1
288.15	0.8	1019.32	1
288.15	1	1007.94	1
298.15	0	997	1
298.15	0.2	1006.21	1
298.15	0.4	1013.7	1
298.15	0.6	1016.29	1
298.15	0.8	1011.11	1
298.15	1	999.25	1
308.15	0	994.03	1
308.15	0.2	1001.56	1
308.15	0.4	1007.51	1
308.15	0.6	1008.9	1
308.15	0.8	1003.04	1
308.15	1	990.63	1

System: dimethylformamide + water; phases: Liquid
Fixed: Pressure, kPa = 100
Property: Mass density, kg/m3 (Liquid); method: Vibrating tube method
Temperature, K	Mass fraction of dimethylformamide	Mass density, kg/m3	uncertainty
288.15	0	999	1
288.15	0.2	1000.62	1
288.15	0.4	1003.56	1
288.15	0.6	1001.34	1
288.15	0.8	986.63	1
288.15	1	953.53	1
298.15	0	997	1
298.15	0.2	996.32	1
298.15	0.4	996.99	1
298.15	0.6	992.97	1
298.15	0.8	977.38	1
298.15	1	943.89	1
308.15	0	994.03	1
308.15	0.2	991.45	1
308.15	0.4	990	1
308.15	0.6	984.33	1
308.15	0.8	968.07	1
308.15	1	934.39	1

System: cesium chloride + water; phases: Liquid, Crystal
Fixed: Pressure, kPa = 100
Property: Mass fraction of cesium chloride (Liquid); method: Titration method
Temperature, K	Mass fraction of cesium chloride	uncertainty
288.15	0.646	0.0058
298.15	0.6545	0.0058
308.15	0.6666	0.0058

System: cesium chloride + water; phases: Liquid
Fixed: Pressure, kPa = 100
Property: Refractive index (Na D-line) (Liquid); method: Standard Abbe refractometry
Temperature, K	Mass fraction of cesium chloride	Refractive index (Na D-line)	uncertainty
288.15	0.646	1.41803	0.00032
298.15	0.6545	1.41971	0.00032
308.15	0.6666	1.42086	0.00032

System: cesium chloride + water; phases: Liquid
Fixed: Pressure, kPa = 100
Property: Mass density, kg/m3 (Liquid); method: Vibrating tube method
Temperature, K	Mass fraction of cesium chloride	Mass density, kg/m3	uncertainty
288.15	0.646	1894.15	1.53
298.15	0.6545	1921.87	1.54
308.15	0.6666	1947.03	1.56

System: formamide + cesium chloride; phases: Liquid, Crystal
Fixed: Pressure, kPa = 100
Property: Mass fraction of cesium chloride (Liquid); method: Titration method
Temperature, K	Mass fraction of cesium chloride	uncertainty
288.15	0.2292	0.0056
298.15	0.2331	0.0056
308.15	0.2412	0.0056

System: formamide + cesium chloride; phases: Liquid
Fixed: Pressure, kPa = 100
Property: Refractive index (Na D-line) (Liquid); method: Standard Abbe refractometry
Temperature, K	Mass fraction of cesium chloride	Refractive index (Na D-line)	uncertainty
288.15	0.2292	1.46286	0.00032
298.15	0.2331	1.46096	0.00032
308.15	0.2412	1.45811	0.00032

System: formamide + cesium chloride; phases: Liquid
Fixed: Pressure, kPa = 100
Property: Mass density, kg/m3 (Liquid); method: Vibrating tube method
Temperature, K	Mass fraction of cesium chloride	Mass density, kg/m3	uncertainty
288.15	0.2292	1359.39	1.28
298.15	0.2331	1354.37	1.27
308.15	0.2412	1354.14	1.27

System: N-methylformamide + cesium chloride; phases: Liquid, Crystal
Fixed: Pressure, kPa = 100
Property: Mass fraction of cesium chloride (Liquid); method: Titration method
Temperature, K	Mass fraction of cesium chloride	uncertainty
288.15	0.0585	0.0056
298.15	0.0599	0.0056
308.15	0.062	0.0056

System: N-methylformamide + cesium chloride; phases: Liquid
Fixed: Pressure, kPa = 100
Property: Refractive index (Na D-line) (Liquid); method: Standard Abbe refractometry
Temperature, K	Mass fraction of cesium chloride	Refractive index (Na D-line)	uncertainty
288.15	0.0585	1.43767	0.00032
298.15	0.0599	1.43465	0.00032
308.15	0.062	1.43161	0.00032

System: N-methylformamide + cesium chloride; phases: Liquid
Fixed: Pressure, kPa = 100
Property: Mass density, kg/m3 (Liquid); method: Vibrating tube method
Temperature, K	Mass fraction of cesium chloride	Mass density, kg/m3	uncertainty
288.15	0.0585	1054.35	1.16
298.15	0.0599	1046.14	1.16
308.15	0.062	1038.58	1.16

System: dimethylformamide + cesium chloride; phases: Liquid, Crystal
Fixed: Pressure, kPa = 100
Property: Mass fraction of cesium chloride (Liquid); method: Titration method
Temperature, K	Mass fraction of cesium chloride	uncertainty
288.15	0.0005	0.0005
298.15	0.0008	0.0008
308.15	0.0016	0.0016

System: dimethylformamide + cesium chloride; phases: Liquid
Fixed: Pressure, kPa = 100
Property: Refractive index (Na D-line) (Liquid); method: Standard Abbe refractometry
Temperature, K	Mass fraction of cesium chloride	Refractive index (Na D-line)	uncertainty
288.15	0.0005	1.43298	0.00032
298.15	0.0008	1.4292	0.00032
308.15	0.0016	1.42658	0.00032

System: dimethylformamide + cesium chloride; phases: Liquid
Fixed: Pressure, kPa = 100
Property: Mass density, kg/m3 (Liquid); method: Vibrating tube method
Temperature, K	Mass fraction of cesium chloride	Mass density, kg/m3	uncertainty
288.15	0.0005	961.27	1
298.15	0.0008	944.51	1.01
308.15	0.0016	937.54	1.01
