Measured thermophysical data. The (p, q, T) properties and apparent molar volumes V/ of (ZnBr2 + C2H5OH)
Source: J. Chem. Thermodyn., 2009, 10.1016/j.jct.2009.05.004
Compound 1: zinc bromide, Br2Zn, InChI=1S/2BrH.Zn/h2*1H;/q;;+2/p-2
Compound 2: ethanol, C2H6O, InChI=1S/C2H6O/c1-2-3/h3H,2H2,1H3, purity 99.8%

System: ethanol + zinc bromide; phases: Liquid
Property: Mass density, kg/m3 (Liquid); method: Vibrating tube method
Molality, mol/kg of zinc bromide	Pressure, kPa	Temperature, K	Mass density, kg/m3	uncertainty
0.05681	1032	373.15	723.97	0.64
0.05681	1235	293.15	800.05	0.63
0.05681	1241	393.15	701.02	0.64
0.05681	1265	313.15	783.06	0.63
0.05681	1324	298.15	795.94	0.63
0.05681	1451	353.15	745.7	0.64
0.05681	1541	333.15	765.27	0.63
0.05681	4952	373.13	729.35	0.64
0.05681	5014	313.14	786.55	0.64
0.05681	5024	293.15	803.22	0.64
0.05681	5036	298.14	799.14	0.64
0.05681	5064	393.16	707.12	0.65
0.05681	5065	353.14	750.01	0.64
0.05681	5145	333.13	769.04	0.64
0.05681	10023	293.14	807.27	0.64
0.05681	10024	313.15	791.06	0.65
0.05681	10024	353.15	755.67	0.65
0.05681	10024	373.16	735.99	0.66
0.05681	10025	298.15	803.29	0.64
0.05681	10025	333.15	773.96	0.65
0.05681	10215	393.15	714.93	0.66
0.05681	15014	333.16	778.76	0.66
0.05681	15021	313.16	795.37	0.66
0.05681	15032	298.16	807.29	0.65
0.05681	15321	393.14	722.2	0.68
0.05681	15412	353.16	761.52	0.67
0.05681	15624	293.15	811.63	0.65
0.05681	15627	373.15	742.91	0.67
0.05681	19921	333.15	783.27	0.67
0.05681	19924	353.15	766.16	0.68
0.05681	19932	393.15	728.38	0.7
0.05681	19956	298.15	811.06	0.66
0.05681	20035	293.16	814.92	0.66
0.05681	20061	373.17	748.07	0.69
0.05681	20065	313.15	799.53	0.67
0.05681	24932	353.17	771.05	0.69
0.05681	24985	373.14	753.48	0.7
0.05681	25045	298.17	814.8	0.67
0.05681	25067	393.16	734.81	0.72
0.05681	25412	293.15	818.77	0.67
0.05681	25451	333.14	788.08	0.69
0.05681	25481	313.17	803.78	0.68
0.05681	29914	298.15	818.2	0.68
0.05681	29921	393.14	740.47	0.74
0.05681	29941	333.15	791.79	0.7
0.05681	29964	313.15	807.13	0.69
0.05681	30014	353.15	775.72	0.71
0.05681	30014	373.15	758.65	0.72
0.05681	30025	293.17	821.93	0.68
0.05681	35015	293.15	825.19	0.69
0.05681	35021	313.13	810.73	0.7
0.05681	35024	298.14	821.61	0.7
0.05681	35068	333.16	795.79	0.71
0.05681	35245	353.13	780.23	0.73
0.05681	35621	393.16	746.57	0.76
0.05681	35841	373.15	764.21	0.74
0.05681	39824	393.15	750.71	0.78
0.05681	39914	313.15	814.03	0.72
0.05681	39921	298.14	824.72	0.71
0.05681	39921	333.17	799.36	0.73
0.05681	39921	373.14	767.81	0.76
0.05681	39952	293.14	828.27	0.7
0.05681	39984	353.15	784.05	0.74
0.16958	1201	298.15	813.7	0.63
0.16958	1215	353.12	762.79	0.63
0.16958	1293	293.16	817.98	0.63
0.16958	1327	333.12	782.58	0.63
0.16958	1456	313.2	801	0.63
0.16958	1612	373.14	742.13	0.63
0.16958	1957	393.16	720.03	0.64
0.16958	4776	333.15	786.15	0.63
0.16958	4839	353.16	767.04	0.64
0.16958	4848	313.2	804.13	0.63
0.16958	4965	373.13	746.64	0.64
0.16958	5006	393.11	724.69	0.64
0.16958	5036	298.14	816.98	0.63
0.16958	5239	293.16	821.27	0.63
0.16958	9721	333.18	791.08	0.64
0.16958	9796	373.15	752.88	0.65
0.16958	9866	353.14	772.71	0.65
0.16958	9897	293.16	825.03	0.64
0.16958	10022	313.17	808.74	0.64
0.16958	10025	298.15	821.11	0.64
0.16958	10167	393.15	732.24	0.66
0.16958	14572	313.13	812.62	0.65
0.16958	14641	373.15	758.82	0.66
0.16958	14684	293.16	828.75	0.64
0.16958	14799	353.17	778.02	0.66
0.16958	14857	393.16	738.74	0.67
0.16958	14944	333.18	796.06	0.65
0.16958	15612	298.16	825.53	0.65
0.16958	19733	373.17	764.71	0.68
0.16958	19908	333.18	800.57	0.66
0.16958	19951	293.16	832.68	0.65
0.16958	19983	353.14	783.31	0.67
0.16958	20014	298.15	828.87	0.65
0.16958	20023	313.11	817.08	0.66
0.16958	20028	393.12	745.51	0.69
0.16958	24739	393.16	751.32	0.7
0.16958	24847	373.13	770.29	0.69
0.16958	24888	353.16	788.05	0.68
0.16958	24905	333.2	804.89	0.67
0.16958	24931	313.13	820.9	0.67
0.16958	24971	293.17	836.26	0.66
0.16958	25416	298.17	832.79	0.66
0.16958	29746	353.17	792.5	0.7
0.16958	29806	333.18	808.92	0.69
0.16958	29863	373.12	775.41	0.71
0.16958	29892	393.14	757.28	0.72
0.16958	29925	313.15	824.61	0.68
0.16958	29986	298.15	835.96	0.67
0.16958	30348	293.16	839.91	0.67
0.16958	34801	373.16	780.13	0.72
0.16958	34818	353.12	796.87	0.71
0.16958	34851	313.15	828.08	0.69
0.16958	34855	393.16	762.63	0.74
0.16958	34946	333.18	812.92	0.7
0.16958	34951	298.16	839.25	0.68
0.16958	35296	293.16	843.12	0.68
0.16958	39669	373.15	784.45	0.74
0.16958	39702	353.17	800.82	0.73
0.16958	39787	333.16	816.47	0.71
0.16958	39907	313.12	831.46	0.7
0.16958	39924	393.15	767.7	0.76
0.16958	39967	293.16	846	0.69
0.16958	39998	298.15	842.43	0.69
0.30426	1045	293.15	838	0.63
0.30426	1228	373.15	761.13	0.63
0.30426	1326	313.15	820.84	0.63
0.30426	1542	298.15	834.12	0.63
0.30426	1574	353.15	782.83	0.63
0.30426	1627	333.15	802.62	0.63
0.30426	1627	393.15	739.2	0.63
0.30426	5024	333.16	806.15	0.63
0.30426	5032	353.14	786.89	0.63
0.30426	5064	293.14	841.35	0.63
0.30426	5102	313.14	824.32	0.63
0.30426	5415	373.16	766.72	0.64
0.30426	5457	298.17	837.46	0.63
0.30426	5624	393.14	745.3	0.64
0.30426	10025	298.15	841.24	0.63
0.30426	10025	373.15	772.61	0.65
0.30426	10025	393.15	751.72	0.65
0.30426	10123	293.15	845.43	0.63
0.30426	10145	353.15	792.67	0.64
0.30426	10245	313.15	828.9	0.64
0.30426	10325	333.16	811.46	0.64
0.30426	15032	313.16	833	0.64
0.30426	15201	293.16	849.37	0.64
0.30426	15428	373.16	779.16	0.66
0.30426	15624	298.16	845.7	0.64
0.30426	15624	353.16	798.54	0.65
0.30426	15924	333.15	816.79	0.65
0.30426	15924	393.16	759.83	0.67
0.30426	19958	393.17	765.06	0.68
0.30426	20014	298.14	849.06	0.65
0.30426	20014	313.15	837.09	0.65
0.30426	20014	333.14	820.51	0.66
0.30426	20124	293.15	853.06	0.65
0.30426	20147	373.15	784.56	0.67
0.30426	20412	353.15	803.4	0.66
0.30426	24945	393.14	771.16	0.69
0.30426	25621	298.15	853.17	0.65
0.30426	25621	333.15	825.37	0.67
0.30426	25624	373.14	790.48	0.68
0.30426	25841	353.14	808.62	0.67
0.30426	25845	293.17	857.16	0.65
0.30426	25921	313.17	841.73	0.66
0.30426	29841	393.15	776.76	0.71
0.30426	29932	298.16	856.21	0.66
0.30426	29941	333.16	828.93	0.67
0.30426	29952	313.16	844.75	0.67
0.30426	29952	353.15	812.36	0.68
0.30426	29954	373.16	794.87	0.7
0.30426	30124	293.14	860.11	0.66
0.30426	34256	333.15	832.31	0.68
0.30426	34524	313.15	848.04	0.67
0.30426	34658	353.16	816.41	0.7
0.30426	34851	373.14	799.55	0.71
0.30426	34854	393.16	782.09	0.72
0.30426	34985	298.15	859.62	0.67
0.30426	35624	293.15	863.74	0.67
0.30426	39625	313.14	851.54	0.68
0.30426	39745	333.16	836.38	0.69
0.30426	39845	373.15	804	0.72
0.30426	39852	353.14	820.61	0.71
0.30426	39854	298.17	862.75	0.68
0.30426	39865	393.15	787.01	0.74
0.30426	39985	293.16	866.49	0.67
0.43835	1025	298.15	853.63	0.62
0.43835	1074	333.17	821.64	0.63
0.43835	1123	293.13	858.07	0.62
0.43835	1190	373.12	780.46	0.63
0.43835	1518	353.19	802.12	0.63
0.43835	1568	393.19	758.24	0.63
0.43835	1622	313.16	840.91	0.62
0.43835	4784	393.17	763.23	0.64
0.43835	4861	353.17	806.08	0.63
0.43835	4920	313.13	843.98	0.63
0.43835	4944	373.15	785.45	0.63
0.43835	5024	298.14	857.08	0.63
0.43835	5128	293.13	861.43	0.63
0.43835	5187	333.14	825.95	0.63
0.43835	9704	293.13	865.15	0.63
0.43835	9743	353.18	811.63	0.64
0.43835	9762	333.12	830.56	0.63
0.43835	9820	393.13	770.68	0.65
0.43835	9861	313.16	848.44	0.63
0.43835	9878	373.12	791.75	0.64
0.43835	10024	298.15	861.25	0.63
0.43835	14513	353.21	816.8	0.65
0.43835	14682	293.14	869.05	0.63
0.43835	14730	333.16	835.35	0.64
0.43835	14903	373.15	797.84	0.65
0.43835	14924	313.16	852.81	0.64
0.43835	14926	393.14	777.8	0.66
0.43835	15106	298.14	865.31	0.64
0.43835	19793	373.17	803.46	0.66
0.43835	19877	293.15	872.96	0.64
0.43835	19882	333.12	840.07	0.65
0.43835	19932	313.15	856.94	0.64
0.43835	19976	353.13	822.41	0.65
0.43835	20014	298.16	869.08	0.64
0.43835	20063	393.12	784.5	0.67
0.43835	24735	313.15	860.72	0.65
0.43835	24736	353.12	827.02	0.66
0.43835	24749	333.13	844.29	0.66
0.43835	24795	373.13	808.88	0.67
0.43835	24809	293.15	876.51	0.64
0.43835	25035	298.14	872.78	0.65
0.43835	25074	393.12	790.6	0.68
0.43835	29724	353.12	831.58	0.67
0.43835	29730	313.14	864.47	0.66
0.43835	29810	333.15	848.46	0.66
0.43835	29867	293.15	880	0.65
0.43835	29956	373.12	814.15	0.68
0.43835	29972	393.14	796.15	0.69
0.43835	30041	298.15	876.29	0.65
0.43835	34690	313.14	868	0.66
0.43835	34775	293.15	883.24	0.65
0.43835	34798	373.15	818.78	0.69
0.43835	34826	353.16	835.96	0.68
0.43835	34920	333.15	852.42	0.67
0.43835	34930	393.12	801.35	0.71
0.43835	35104	298.15	879.69	0.66
0.43835	39385	293.16	886.15	0.66
0.43835	39689	373.15	823.15	0.7
0.43835	39796	353.19	839.94	0.69
0.43835	39824	333.16	855.99	0.68
0.43835	39881	313.15	871.49	0.67
0.43835	39972	393.13	806.21	0.72
0.43835	39985	298.15	882.8	0.66
0.93055	1024	298.15	925.02	0.62
0.93055	1223	293.13	929.75	0.62
0.93055	1306	353.15	871.91	0.62
0.93055	1520	313.19	911.69	0.62
0.93055	1801	393.14	828.39	0.62
0.93055	1840	373.17	851.03	0.62
0.93055	1898	333.12	892.88	0.62
0.93055	4877	293.14	932.86	0.62
0.93055	4885	353.12	876.1	0.62
0.93055	4967	313.18	914.91	0.62
0.93055	5021	298.14	928.53	0.62
0.93055	5098	333.15	896.23	0.62
0.93055	5106	393.12	833.37	0.63
0.93055	5196	373.17	855.41	0.63
0.93055	9870	393.14	840.24	0.63
0.93055	9909	373.17	861.33	0.63
0.93055	9924	293.13	937.03	0.62
0.93055	9947	313.14	919.42	0.62
0.93055	9987	353.16	881.84	0.63
0.93055	10027	333.15	901.19	0.62
0.93055	10032	298.15	932.79	0.62
0.93055	14690	373.15	867.04	0.63
0.93055	14838	393.17	847.01	0.64
0.93055	14840	293.14	940.94	0.62
0.93055	14913	333.16	905.9	0.63
0.93055	14964	353.18	887.17	0.63
0.93055	15002	313.16	923.82	0.62
0.93055	15201	298.16	937	0.62
0.93055	19767	393.14	853.32	0.64
0.93055	19787	333.14	910.38	0.63
0.93055	19809	313.15	927.83	0.63
0.93055	19874	373.14	872.91	0.64
0.93055	19935	353.17	892.23	0.63
0.93055	20004	298.15	940.76	0.62
0.93055	20011	293.14	944.89	0.62
0.93055	24815	393.15	859.38	0.65
0.93055	24834	353.19	896.96	0.64
0.93055	24995	373.15	878.38	0.64
0.93055	25007	293.15	948.56	0.62
0.93055	25032	298.14	944.53	0.62
0.93055	25035	313.15	932.01	0.63
0.93055	25080	333.17	915	0.63
0.93055	29738	353.18	901.43	0.64
0.93055	29790	373.17	883.2	0.65
0.93055	29901	313.15	935.73	0.63
0.93055	29915	293.15	952.01	0.62
0.93055	29989	333.13	919.06	0.63
0.93055	30065	298.15	948.14	0.63
0.93055	30105	393.13	865.29	0.65
0.93055	34814	293.14	955.31	0.63
0.93055	34890	393.16	870.24	0.66
0.93055	34919	353.13	905.88	0.64
0.93055	34942	333.13	922.93	0.63
0.93055	34946	373.16	888.07	0.65
0.93055	34974	313.16	939.43	0.63
0.93055	35024	298.17	951.54	0.63
0.93055	39803	333.17	926.52	0.64
0.93055	39848	373.17	892.38	0.65
0.93055	39878	313.15	942.83	0.63
0.93055	39888	293.14	958.57	0.63
0.93055	39922	393.16	875.04	0.67
0.93055	39985	298.15	954.77	0.63
0.93055	40086	353.12	910.04	0.64
1.49016	1324	298.15	1002.7	0.62
1.49016	1425	313.15	988.5	0.62
1.49016	1523	293.15	1007.63	0.62
1.49016	1687	353.15	948.01	0.62
1.49016	1698	333.15	969.07	0.62
1.49016	1745	373.15	926.45	0.62
1.49016	1921	393.15	903.69	0.62
1.49016	5026	393.15	908.13	0.62
1.49016	5027	313.15	991.85	0.62
1.49016	5032	293.15	1010.62	0.62
1.49016	5032	353.15	951.99	0.62
1.49016	5045	333.15	972.54	0.62
1.49016	5214	298.15	1006.13	0.62
1.49016	5301	373.15	931.02	0.62
1.49016	10024	353.15	957.68	0.62
1.49016	10035	298.15	1010.24	0.62
1.49016	10059	373.15	936.9	0.62
1.49016	10214	293.15	1014.92	0.62
1.49016	10412	393.15	915.55	0.62
1.49016	10624	333.15	978.11	0.62
1.49016	10627	313.15	996.89	0.62
1.49016	15026	393.15	921.63	0.62
1.49016	15214	373.15	942.98	0.62
1.49016	15326	333.15	982.61	0.62
1.49016	15329	313.15	1000.98	0.62
1.49016	15621	298.15	1014.82	0.62
1.49016	15624	293.15	1019.23	0.62
1.49016	15624	353.15	963.72	0.62
1.49016	19954	373.15	948.31	0.62
1.49016	19957	353.15	968.14	0.62
1.49016	19984	333.15	986.89	0.62
1.49016	20035	293.15	1022.63	0.62
1.49016	20035	298.15	1018.3	0.62
1.49016	20215	393.15	928.15	0.62
1.49016	20324	313.15	1005.17	0.62
1.49016	24658	333.15	991.01	0.62
1.49016	25014	293.15	1026.32	0.62
1.49016	25214	353.15	973.21	0.62
1.49016	25487	373.15	954.2	0.62
1.49016	25621	298.15	1022.52	0.62
1.49016	25647	313.15	1009.46	0.62
1.49016	25654	393.15	934.64	0.63
1.49016	29658	353.15	977.25	0.62
1.49016	29875	333.15	995.4	0.62
1.49016	29924	293.15	1029.82	0.62
1.49016	29954	298.15	1025.66	0.62
1.49016	29954	313.15	1012.81	0.62
1.49016	29954	393.15	939.52	0.63
1.49016	29987	373.15	958.73	0.62
1.49016	34624	293.15	1033.04	0.62
1.49016	34625	298.15	1028.92	0.62
1.49016	34627	313.15	1016.31	0.62
1.49016	34965	333.15	999.47	0.62
1.49016	34984	353.15	981.78	0.62
1.49016	35014	393.15	944.97	0.63
1.49016	35026	373.15	963.54	0.62
1.49016	39846	313.15	1020.06	0.62
1.49016	39921	393.15	949.96	0.63
1.49016	39924	298.15	1032.44	0.62
1.49016	39932	293.15	1036.53	0.62
1.49016	39954	373.15	967.95	0.62
1.49016	39957	333.15	1003.26	0.62
1.49016	39958	353.15	985.72	0.62
1.88723	1024	298.15	1055.01	0.62
1.88723	1141	293.14	1060.17	0.62
1.88723	1604	333.16	1020.71	0.62
1.88723	1697	373.12	977.46	0.62
1.88723	1798	393.15	953.48	0.62
1.88723	1850	313.24	1041.15	0.62
1.88723	1878	353.2	999.87	0.61
1.88723	4878	353.2	1003.45	0.62
1.88723	4943	333.12	1024.22	0.62
1.88723	5004	313.19	1044.1	0.62
1.88723	5014	373.12	981.85	0.62
1.88723	5021	298.16	1058.5	0.62
1.88723	5021	393.12	958.47	0.62
1.88723	5033	293.14	1063.5	0.62
1.88723	9847	293.14	1067.49	0.62
1.88723	9897	373.13	988.07	0.62
1.88723	9945	353.14	1009.26	0.62
1.88723	9994	313.15	1048.64	0.62
1.88723	10012	393.18	965.38	0.62
1.88723	10035	298.15	1062.75	0.62
1.88723	10046	333.15	1029.4	0.62
1.88723	14855	293.14	1071.5	0.62
1.88723	14872	353.17	1014.63	0.62
1.88723	14946	373.13	994.16	0.62
1.88723	14975	393.17	972.19	0.62
1.88723	15024	298.14	1066.84	0.62
1.88723	15110	313.17	1053.14	0.62
1.88723	15214	333.15	1034.43	0.62
1.88723	19828	353.19	1019.76	0.62
1.88723	19900	393.13	978.73	0.62
1.88723	19914	293.15	1075.41	0.62
1.88723	19971	333.18	1038.86	0.62
1.88723	20031	298.15	1070.82	0.62
1.88723	20065	373.13	1000	0.61
1.88723	20144	313.17	1057.41	0.62
1.88723	24815	353.2	1024.64	0.62
1.88723	24846	373.14	1005.15	0.62
1.88723	24872	393.15	984.66	0.62
1.88723	25016	313.13	1061.4	0.62
1.88723	25140	298.17	1074.74	0.63
1.88723	25143	333.18	1043.47	0.62
1.88723	25232	293.15	1079.35	0.63
1.88723	29885	393.15	990.35	0.62
1.88723	29922	353.13	1029.35	0.62
1.88723	29926	373.12	1010.28	0.62
1.88723	29927	313.12	1065.27	0.63
1.88723	29942	298.15	1078.29	0.63
1.88723	29995	293.15	1082.75	0.63
1.88723	30014	333.16	1047.6	0.62
1.88723	34738	353.14	1033.52	0.62
1.88723	34776	333.14	1051.46	0.62
1.88723	34785	393.12	995.67	0.62
1.88723	34843	313.12	1069.01	0.63
1.88723	34880	373.16	1014.97	0.62
1.88723	35026	298.16	1081.92	0.64
1.88723	35078	293.15	1086.23	0.64
1.88723	39714	353.16	1037.55	0.62
1.88723	39725	373.17	1019.24	0.62
1.88723	39747	293.16	1089.29	0.64
1.88723	39767	393.12	1000.55	0.61
1.88723	39787	313.11	1072.61	0.63
1.88723	39840	333.12	1055.35	0.63
1.88723	39974	298.15	1085.32	0.64
