Measured thermophysical data. Linear behaviour in isothermal equilibria involving saturated electrolyte solutions: The H2O-Co(NO3)2-Ni(NO3)2 ternary system at low temperature
Source: J. Chem. Thermodyn., 2016, 10.1016/j.jct.2016.06.024
Compound 1: water, H2O, InChI=1S/H2O/h1H2, purity 99.8%
Compound 2: cobalt(II) nitrate, CoN2O6, InChI=1S/Co.2NO3/c;2*2-1(3)4/q+2;2*-1
Compound 3: nickel(II) nitrate, N2NiO6, InChI=1S/2NO3.Ni/c2*2-1(3)4;/q2*-1;+2

System: water + cobalt(II) nitrate + nickel(II) nitrate; phases: Liquid, Crystal
Fixed: Pressure, kPa = 101
Property: Mole fraction of nickel(II) nitrate (Liquid); method: Titration method
Temperature, K	Mole fraction of cobalt(II) nitrate	Mole fraction of nickel(II) nitrate	uncertainty
248.15	0.0479	0	
248.15	0.0447	0.0024	0.0014
248.15	0.0403	0.0074	0.0015
248.15	0.0354	0.0123	0.0015
248.15	0.0302	0.0181	0.0015
248.15	0.0254	0.0231	0.0015
248.15	0.0205	0.0284	0.0016
248.15	0.0165	0.0333	0.0015
248.15	0.0136	0.0361	0.0015
248.15	0.0106	0.0394	0.0015
248.15	0.0059	0.0441	0.0015
248.15	0	0.0502	0.0011
258.15	0.0323	0	
258.15	0.0289	0.0032	0.0015
258.15	0.0248	0.0077	0.0015
258.15	0.0219	0.0109	0.0015
258.15	0.0188	0.0141	0.0016
258.15	0.0161	0.0177	0.0014
258.15	0.0124	0.0202	0.0014
258.15	0.0113	0.0226	0.0016
258.15	0.0084	0.0251	0.0013
258.15	0.0051	0.0278	0.0016
258.15	0	0.0352	0.001

System: water + cobalt(II) nitrate + nickel(II) nitrate; phases: Liquid, Crystal of intercomponent compound 1
Fixed: Mole fraction of nickel(II) nitrate = 0
Fixed: Pressure, kPa = 101
Property: Mole fraction of cobalt(II) nitrate (Liquid); method: Titration method
Temperature, K	Mole fraction of cobalt(II) nitrate	uncertainty
258.15	0.066	0.001
248.15	0.0626	0.001

System: water + cobalt(II) nitrate + nickel(II) nitrate; phases: Liquid, Crystal
Fixed: Pressure, kPa = 101
Property: Mole fraction of cobalt(II) nitrate (Liquid); method: Titration method
Temperature, K	Mole fraction of nickel(II) nitrate	Mole fraction of cobalt(II) nitrate	uncertainty
258.15	0.0139	0.0579	0.0022
258.15	0.0164	0.053	0.0016
258.15	0.023	0.0461	0.0013
258.15	0.0313	0.0408	0.0012
248.15	0.0033	0.0591	0.0015
248.15	0.0097	0.0519	0.0015
248.15	0.0162	0.0454	0.0014
248.15	0.0231	0.0397	0.0014
248.15	0.0293	0.0325	0.0015

System: water + cobalt(II) nitrate + nickel(II) nitrate; phases: Liquid, Crystal of intercomponent compound 2
Property: Mole fraction of nickel(II) nitrate (Liquid); method: inductively coupled plasma optical emission spectroscopy
Temperature, K	Mole fraction of cobalt(II) nitrate	Pressure, kPa	Mole fraction of nickel(II) nitrate	uncertainty
258.15	0	101	0.0662	0.0012

System: water + cobalt(II) nitrate + nickel(II) nitrate; phases: Liquid, Crystal
Fixed: Temperature, K = 258.15
Fixed: Pressure, kPa = 101
Property: Mole fraction of cobalt(II) nitrate (Liquid); method: inductively coupled plasma optical emission spectroscopy
Mole fraction of nickel(II) nitrate	Mole fraction of cobalt(II) nitrate	uncertainty
0.0616	0.0043	0.0019
0.0564	0.0105	0.002
0.0557	0.0126	0.002
0.0469	0.0231	0.0018
0.0352	0.0344	0.0019
0.0339	0.0358	0.0019

System: water + cobalt(II) nitrate + nickel(II) nitrate; phases: Liquid, Crystal
Fixed: Temperature, K = 258.15
Fixed: Pressure, kPa = 101
Property: Mole fraction of cobalt(II) nitrate (Liquid); method: inductively coupled plasma optical emission spectroscopy
Mole fraction of nickel(II) nitrate	Mole fraction of cobalt(II) nitrate	uncertainty
0.0339	0.0358	0.0018
0.0296	0.0395	0.0019
0.023	0.0461	0.002
0.0141	0.055	0.002
0.0067	0.0619	0.0021

System: water + cobalt(II) nitrate + nickel(II) nitrate; phases: Liquid, Crystal of intercomponent compound 3
Property: Mole fraction of nickel(II) nitrate (Liquid); method: Titration method
Temperature, K	Mole fraction of cobalt(II) nitrate	Pressure, kPa	Mole fraction of nickel(II) nitrate	uncertainty
248.15	0	101	0.0558	0.001

System: water + cobalt(II) nitrate + nickel(II) nitrate; phases: Liquid, Crystal
Fixed: Temperature, K = 258.15
Fixed: Pressure, kPa = 101
Property: Mole fraction of cobalt(II) nitrate (Liquid); method: Titration method
Mole fraction of nickel(II) nitrate	Mole fraction of cobalt(II) nitrate	uncertainty
0.0375	0.0341	0.0017
0.0439	0.0269	0.0016
0.0467	0.0233	0.0019
0.0507	0.0169	0.0016
0.0599	0.007	0.0015

System: water + cobalt(II) nitrate + nickel(II) nitrate; phases: Liquid, Crystal
Fixed: Temperature, K = 248.15
Fixed: Pressure, kPa = 101
Property: Mole fraction of cobalt(II) nitrate (Liquid); method: Titration method
Mole fraction of nickel(II) nitrate	Mole fraction of cobalt(II) nitrate	uncertainty
0.0367	0.0264	0.0016
0.0416	0.0207	0.0015
0.0458	0.0171	0.0018
0.0465	0.0123	0.0018
0.0516	0.0063	0.0016

System: water + cobalt(II) nitrate + nickel(II) nitrate; phases: Liquid, Crystal of intercomponent compound 1
Property: Mole fraction of cobalt(II) nitrate (Liquid); method: inductively coupled plasma optical emission spectroscopy
Temperature, K	Mole fraction of nickel(II) nitrate	Pressure, kPa	Mole fraction of cobalt(II) nitrate	uncertainty
258.15	0	101	0.0667	0.0012

System: water + cobalt(II) nitrate; phases: Liquid, Crystal of intercomponent compound 1
Fixed: Pressure, kPa = 101
Property: Mole fraction of cobalt(II) nitrate (Liquid); method: Titration method
Temperature, K	Mole fraction of cobalt(II) nitrate	uncertainty
258.15	0.066	0.001
248.15	0.0626	0.001

System: water + cobalt(II) nitrate; phases: Liquid, Crystal
Fixed: Pressure, kPa = 101
Property: Mole fraction of cobalt(II) nitrate (Liquid); method: Titration method
Temperature, K	Mole fraction of cobalt(II) nitrate	uncertainty
258.15	0.0323	0.0011
248.15	0.0479	0.0011

System: water + cobalt(II) nitrate; phases: Liquid, Crystal of intercomponent compound 1
Property: Mole fraction of cobalt(II) nitrate (Liquid); method: inductively coupled plasma optical emission spectroscopy
Temperature, K	Pressure, kPa	Mole fraction of cobalt(II) nitrate	uncertainty
258.15	101	0.0667	0.0012

System: water + nickel(II) nitrate; phases: Liquid, Crystal
Fixed: Pressure, kPa = 101
Property: Mole fraction of nickel(II) nitrate (Liquid); method: Titration method
Temperature, K	Mole fraction of nickel(II) nitrate	uncertainty
248.15	0.0502	0.0011
258.15	0.0352	0.001

System: water + nickel(II) nitrate; phases: Liquid, Crystal of intercomponent compound 1
Property: Mole fraction of nickel(II) nitrate (Liquid); method: inductively coupled plasma optical emission spectroscopy
Temperature, K	Pressure, kPa	Mole fraction of nickel(II) nitrate	uncertainty
258.15	101	0.0662	0.0012

System: water + nickel(II) nitrate; phases: Liquid, Crystal of intercomponent compound 2
Property: Mole fraction of nickel(II) nitrate (Liquid); method: Titration method
Temperature, K	Pressure, kPa	Mole fraction of nickel(II) nitrate	uncertainty
248.15	101	0.0558	0.001
