Measured thermophysical data. Isobaric vapor-liquid equilibria for extractive distillation of 1-propanol + water mixture using thiocyanate-based ionic liquids
Source: J. Chem. Thermodyn., 2017, 10.1016/j.jct.2017.06.014
Compound 1: propan-1-ol, C3H8O, InChI=1S/C3H8O/c1-2-3-4/h4H,2-3H2,1H3, purity 99.5%
Compound 2: water, H2O, InChI=1S/H2O/h1H2, purity 99.8%
Compound 3: 1-ethyl-3-methylimidazolium thiocyanate, C7H11N3S, InChI=1S/C6H11N2.CHNS/c1-3-8-5-4-7(2)6-8;2-1-3/h4-6H,3H2,1-2H3;3H/q+1;/p-1, purity 98%
Compound 4: 1-butyl-3-methylimidazolium thiocyanate, C9H15N3S, InChI=1S/C8H15N2.CHNS/c1-3-4-5-10-7-6-9(2)8-10;2-1-3/h6-8H,3-5H2,1-2H3;3H/q+1;/p-1, purity 98%

System: propan-1-ol; phases: Liquid, Gas
Property: Vapor or sublimation pressure, kPa (Liquid); method: Ebulliometric method (Recirculating still)
Temperature, K	Vapor or sublimation pressure, kPa	uncertainty
370.35	101.3	1.1143

System: water; phases: Liquid, Gas
Property: Vapor or sublimation pressure, kPa (Liquid); method: Ebulliometric method (Recirculating still)
Temperature, K	Vapor or sublimation pressure, kPa	uncertainty
373.15	101.3	1.1143

System: propan-1-ol + water; phases: Liquid, Gas
Fixed: Pressure, kPa = 101.3
Property: Boiling temperature at pressure P, K (Liquid); method: Ebulliometric method (Recirculating still)
Mole fraction of propan-1-ol	Boiling temperature at pressure P, K	uncertainty
0	373.15	0.22
0.058	362.34	0.22
0.102	361.61	0.22
0.147	361.33	0.22
0.19	361.16	0.22
0.246	361.01	0.22
0.288	360.91	0.22
0.33	360.86	0.22
0.379	360.76	0.22
0.433	360.72	0.22
0.482	360.76	0.22
0.529	360.86	0.22
0.602	361.14	0.22
0.676	361.87	0.22
0.705	362.05	0.22
0.768	362.81	0.22
0.838	364.28	0.22
0.892	365.75	0.22
0.939	367.47	0.22
0.976	369.07	0.22
1	370.35	0.22

System: propan-1-ol + water; phases: Gas, Liquid
Fixed: Pressure, kPa = 101.3
Property: Mole fraction of propan-1-ol (Gas); method: Chromatography
Mole fraction of propan-1-ol	Mole fraction of propan-1-ol	uncertainty
0	0	
0.058	0.368	0.005
0.102	0.389	0.005
0.147	0.396	0.005
0.19	0.402	0.005
0.246	0.406	0.005
0.288	0.411	0.005
0.33	0.416	0.005
0.379	0.423	0.005
0.433	0.434	0.006
0.482	0.449	0.006
0.529	0.464	0.006
0.602	0.492	0.006
0.676	0.53	0.006
0.705	0.552	0.006
0.768	0.593	0.005
0.838	0.677	0.005
0.892	0.755	0.005
0.939	0.848	0.004
0.976	0.935	0.004
1	1	

System: propan-1-ol + 1-ethyl-3-methylimidazolium thiocyanate; phases: Liquid, Gas
Fixed: Pressure, kPa = 101.3
Property: Boiling temperature at pressure P, K (Liquid); method: Ebulliometric method (Recirculating still)
Mole fraction of propan-1-ol	Boiling temperature at pressure P, K	uncertainty
0.566	385.38	0.32
0.587	384.15	0.31
0.589	384.11	0.31
0.606	383.16	0.3
0.637	381.69	0.29
0.652	381.06	0.28
0.671	380.25	0.28
0.687	379.55	0.27
0.723	378.2	0.27
0.736	377.71	0.27
0.758	376.82	0.27
0.781	375.88	0.27
0.793	375.53	0.26
0.818	374.64	0.26
0.843	373.82	0.25
0.869	373.01	0.25
0.894	372.37	0.24
0.92	371.71	0.24
0.945	371.18	0.24
0.967	370.72	0.23
0.988	370.37	0.22
1	370.35	0.22

System: water + 1-ethyl-3-methylimidazolium thiocyanate; phases: Liquid, Gas
Fixed: Pressure, kPa = 101.3
Property: Boiling temperature at pressure P, K (Liquid); method: Ebulliometric method (Recirculating still)
Mole fraction of water	Boiling temperature at pressure P, K	uncertainty
0.524	406.78	0.4
0.545	405.06	0.5
0.58	400.65	0.5
0.621	396.45	0.45
0.642	394.55	0.42
0.67	392.08	0.39
0.694	390.37	0.42
0.716	387.98	0.43
0.734	386.71	0.37
0.749	385.5	0.39
0.784	383.06	0.33
0.813	381.15	0.33
0.842	379.5	0.31
0.869	378.09	0.3
0.892	376.96	0.28
0.918	375.97	0.26
0.942	375.11	0.26
0.965	374.42	0.25
0.987	373.7	0.26
1	373.15	0.22
0.775	383.45	0.36

System: propan-1-ol + 1-butyl-3-methylimidazolium thiocyanate; phases: Liquid, Gas
Fixed: Pressure, kPa = 101.3
Property: Boiling temperature at pressure P, K (Liquid); method: Ebulliometric method (Recirculating still)
Mole fraction of propan-1-ol	Boiling temperature at pressure P, K	uncertainty
0.572	389.22	0.34
0.587	388.27	0.35
0.597	387.52	0.36
0.608	386.76	0.33
0.618	386.23	0.32
0.639	384.95	0.4
0.644	384.54	0.4
0.669	382.98	0.33
0.681	382.25	0.31
0.698	381.4	0.3
0.708	380.86	0.32
0.725	379.87	0.32
0.75	378.41	0.32
0.762	377.79	0.29
0.794	376.35	0.28
0.821	375.15	0.27
0.849	374.1	0.26
0.879	373.04	0.26
0.907	372.15	0.25
0.935	371.44	0.24
0.961	370.86	0.23
0.983	370.45	0.23
1	370.35	0.22

System: water + 1-butyl-3-methylimidazolium thiocyanate; phases: Liquid, Gas
Fixed: Pressure, kPa = 101.3
Property: Boiling temperature at pressure P, K (Liquid); method: Ebulliometric method (Recirculating still)
Mole fraction of water	Boiling temperature at pressure P, K	uncertainty
0.656	392.03	0.22
0.673	390.58	0.22
0.682	389.79	0.22
0.702	388.67	0.22
0.721	386.39	0.22
0.729	385.66	0.22
0.736	384.85	0.22
0.748	384.27	0.22
0.762	382.8	0.22
0.78	382.19	0.22
0.795	380.73	0.22
0.815	379.59	0.22
0.834	378.45	0.22
0.864	377.22	0.22
0.887	376.22	0.22
0.91	375.41	0.22
0.936	374.74	0.22
0.958	374.21	0.22
0.982	373.7	0.22
1	373.15	0.22
0.803	379.82	0.22

System: propan-1-ol + water + 1-ethyl-3-methylimidazolium thiocyanate; phases: Liquid, Gas
Fixed: Pressure, kPa = 101.3
Property: Mole fraction of 1-ethyl-3-methylimidazolium thiocyanate (Liquid); method: Chromatography
Property: Mole fraction of water (Gas); method: Chromatography
Property: Mole fraction of propan-1-ol (Gas); method: Chromatography
Temperature, K	Mole fraction of propan-1-ol	Mole fraction of 1-ethyl-3-methylimidazolium thiocyanate	uncertainty	Mole fraction of water	uncertainty	Mole fraction of propan-1-ol	uncertainty
383.45	0	0.225	0.004	1		0	
376.23	0.063	0.217	0.004	0.694	0.005	0.306	
372.57	0.131	0.219	0.004	0.612	0.005	0.388	
370.7	0.194	0.22	0.004	0.554	0.006	0.446	
369.93	0.262	0.221	0.004	0.503	0.006	0.497	
369.5	0.321	0.22	0.004	0.461	0.006	0.539	
369.54	0.385	0.216	0.004	0.415	0.005	0.585	
369.84	0.449	0.221	0.004	0.371	0.005	0.629	
370.35	0.512	0.215	0.004	0.325	0.005	0.675	
371.05	0.572	0.213	0.004	0.276	0.005	0.724	
371.9	0.63	0.21	0.004	0.218	0.004	0.782	
373.12	0.686	0.209	0.004	0.15	0.004	0.85	
374.74	0.734	0.215	0.004	0.076	0.004	0.924	

System: propan-1-ol + water + 1-butyl-3-methylimidazolium thiocyanate; phases: Liquid, Gas
Fixed: Pressure, kPa = 101.3
Property: Mole fraction of 1-butyl-3-methylimidazolium thiocyanate (Liquid); method: Chromatography
Property: Mole fraction of water (Gas); method: Chromatography
Property: Mole fraction of propan-1-ol (Gas); method: Chromatography
Temperature, K	Mole fraction of propan-1-ol	Mole fraction of 1-butyl-3-methylimidazolium thiocyanate	uncertainty	Mole fraction of water	uncertainty	Mole fraction of propan-1-ol	uncertainty
379.82	0	0.197	0.004	1		0	
373.28	0.083	0.195	0.004	0.738	0.005	0.262	
371.09	0.156	0.199	0.004	0.644	0.005	0.356	
370.01	0.224	0.202	0.004	0.596	0.005	0.404	
369.44	0.298	0.202	0.004	0.542	0.006	0.458	
369.39	0.368	0.205	0.004	0.491	0.006	0.509	
369.71	0.444	0.206	0.004	0.437	0.006	0.563	
370.05	0.508	0.204	0.004	0.388	0.005	0.612	
370.78	0.567	0.205	0.004	0.337	0.005	0.663	
371.75	0.623	0.207	0.004	0.284	0.005	0.716	
372.86	0.677	0.212	0.004	0.218	0.004	0.782	
374.1	0.729	0.215	0.004	0.139	0.004	0.861	
375.36	0.777	0.218	0.004	0.073	0.004	0.927	
