Measured thermophysical data. Thermodynamic determination and assessment of the CsF-ThF4 system
Source: J. Chem. Thermodyn., 2017, 10.1016/j.jct.2017.05.008
Compound 1: cesium fluoride (CsF), CsF, InChI=1S/Cs.FH/h;1H/q+1;/p-1, purity 99.9%
Compound 2: thorium tetraluoride, F4Th, InChI=1S/4FH.Th/h4*1H;/q;;;;+4/p-4, purity 99.9%

System: cesium fluoride (CsF); phases: Crystal, Liquid, Air at 1 atmosphere
Property: Normal melting temperature, K (Crystal); method: DTA
Normal melting temperature, K	uncertainty
972	20

System: cesium fluoride (CsF); phases: Crystal, Gas
Property: Vapor or sublimation pressure, kPa (Crystal); method: Calculated from knudsen effusion weight loss
Temperature, K	Vapor or sublimation pressure, kPa	uncertainty
909.0576	0.0013	0.0014
909.0576	0.00132	0.00143
909.1588	0.00269	0.00291
909.4625	0.00297	0.00321
909.3613	0.00301	0.00325
909.5637	0.00304	0.00329
909.6143	0.00307	0.00332
909.7156	0.00309	0.00334
909.8674	0.0031	0.00335
910.0193	0.00312	0.00337
910.1205	0.00313	0.00338
910.2724	0.00313	0.00338
910.323	0.00315	0.0034
910.4749	0.00315	0.0034
910.5255	0.00317	0.00343
910.8798	0.00318	0.00344
910.9304	0.00319	0.00345
910.981	0.00319	0.00345
911.2847	0.00319	0.00345
911.5885	0.00322	0.00348
911.6897	0.00324	0.0035
911.9934	0.00327	0.00353
911.9934	0.0033	0.00357
912.1959	0.00333	0.0036
912.6008	0.00336	0.00363
912.6008	0.0034	0.00367
913.107	0.00344	0.00372
913.1576	0.0035	0.00378
913.4107	0.00352	0.0038
913.3095	0.00354	0.00383
913.7144	0.00356	0.00385
913.6132	0.00359	0.00388
913.6132	0.00361	0.0039
913.7819	0.00362	0.00391
913.8663	0.00363	0.00392
913.9169	0.00368	0.00398
914.0181	0.0037	0.004
914.1194	0.00373	0.00403
914.2206	0.00374	0.00404
914.2712	0.00377	0.00407
914.4231	0.00377	0.00407
914.3218	0.00378	0.00409
914.3218	0.00378	0.00409
914.2712	0.00378	0.00409
914.5243	0.00383	0.00414
914.6761	0.00385	0.00416
914.6255	0.00385	0.00416
914.4737	0.00385	0.00416
914.5243	0.00387	0.00418
914.4737	0.00385	0.00416
914.5749	0.00386	0.00417
914.7268	0.0039	0.00422
914.7268	0.00393	0.00425
915.0305	0.00395	0.00427
914.963	0.00397	0.00429
915.1823	0.004	0.00432
915.3342	0.00403	0.00436
915.3342	0.00408	0.00441
915.7391	0.00414	0.00448
915.9416	0.00418	0.00452
916.0935	0.00423	0.00457
916.1441	0.00427	0.00462
916.549	0.00436	0.00471
916.8527	0.00443	0.00479
917.1564	0.0045	0.00486
917.5108	0.00456	0.00493
917.6626	0.00461	0.00498
917.7638	0.00468	0.00506
918.135	0.00475	0.00514
918.27	0.0048	0.00519
918.4725	0.00485	0.00524
918.675	0.00491	0.00531
918.81	0.00497	0.00537
918.8774	0.00502	0.00543
919.2824	0.00507	0.00548
919.2824	0.00511	0.00553
919.6873	0.00517	0.00559
919.7886	0.00521	0.00563
919.8898	0.00524	0.00567
919.8392	2.15e-07	2.32e-07
920.0923	1.51e-08	1.8e-08
920.1429	2.4e-07	2.59e-07
920.2947	5.37e-07	5.79e-07
920.4972	1.15e-06	1.24e-06
920.4972	1.61e-06	1.74e-06
920.5985	2.16e-06	2.33e-06
920.5985	2.86e-06	3.08e-06
920.5985	3.76e-06	4.05e-06
920.9022	5.31e-06	5.72e-06
920.9528	7.64e-06	8.23e-06
921.0034	1.06e-05	1.14e-05
921.054	1.4e-05	1.51e-05
921.2059	1.62e-05	1.75e-05
921.3071	1.87e-05	2.02e-05
921.2059	2.09e-05	2.25e-05
921.2565	2.34e-05	2.52e-05
921.4083	2.54e-05	2.74e-05
921.5602	2.71e-05	2.92e-05
921.6108	2.88e-05	3.1e-05
921.5096	3.01e-05	3.24e-05
921.6108	3.32e-05	3.58e-05
921.8133	3.67e-05	3.95e-05
921.8133	4.84e-05	5.22e-05
921.7121	6.86e-05	7.39e-05
921.8133	9.56e-05	0.000103
921.847	0.000132	0.000142
922.0158	0.000178	0.000192
922.117	0.00025	0.000269
922.1676	0.000334	0.00036
922.1676	0.000432	0.000466
922.117	0.000572	0.000616
922.3195	0.00074	0.000797
922.3195	0.000889	0.000958
922.3532	0.00103	0.00111
922.5219	0.00115	0.00124
922.4207	0.00124	0.00134
922.6232	0.00129	0.00139
922.6232	0.00131	0.00141
922.6907	0.00131	0.00141
922.8256	0.0013	0.0014
922.8256	0.00129	0.00139
923.1294	0.00129	0.00139
923.1631	0.0013	0.0014
923.0956	0.00132	0.00143
923.1294	0.00136	0.00147
923.2306	0.00141	0.00152
923.3318	0.00146	0.00158
923.4331	0.00154	0.00166
923.4331	0.00162	0.00175
923.5343	0.0017	0.00184
923.838	0.00177	0.00191
923.6355	0.00184	0.00199
923.7368	0.00196	0.00212
923.8043	0.00203	0.00219
923.8886	0.0021	0.00227
924.0405	0.00218	0.00235
923.9899	0.00226	0.00244
924.0742	0.00233	0.00252
924.1417	0.00238	0.00257
924.243	0.00244	0.00264
924.4454	0.00248	0.00268
924.2936	0.00254	0.00274
924.496	0.00258	0.00279
924.4454	0.00264	0.00285
924.5973	0.00267	0.00288
924.5467	0.00271	0.00293
924.5467	0.00275	0.00297
924.6985	0.00278	0.003
924.7491	0.00282	0.00305
924.8504	0.00285	0.00308
924.901	0.00289	0.00312
924.9516	0.00293	0.00317
924.9516	0.006	0.00649
925.1541	0.00675	0.0073
925.0528	0.00682	0.00738
925.3565	0.00686	0.00742
925.3059	0.00691	0.00747
925.7615	0.00695	0.00752
925.8627	0.00699	0.00756
926.3183	0.00704	0.00762
926.622	0.00711	0.00769
927.0269	0.00715	0.00773
927.3813	0.00722	0.00781
928.0899	0.00727	0.00786
928.6973	0.00736	0.00796
929.1529	0.00746	0.00807
929.7097	0.00756	0.00818
930.5196	0.00766	0.00829
930.8233	0.00779	0.00843
931.5319	0.00791	0.00856
932.2406	0.00807	0.00873
933.1011	0.00822	0.00889
933.8604	0.00839	0.00908
934.7209	0.0086	0.00931
935.5814	0.00879	0.00951
936.3913	0.00901	0.00975
937.3024	0.00924	0.01
937.9098	0.0095	0.01028
938.6185	0.00976	0.01056
939.9852	0.0101	0.0109
940.8963	0.0104	0.0113
941.9593	0.0107	0.0116
942.7691	0.011	0.0119
943.8827	0.0114	0.0123
944.9963	0.0118	0.0128
946.0087	0.0122	0.0132
947.426	0.0126	0.0136
948.2359	0.0131	0.0142
949.2482	0.0136	0.0147
950.7162	0.0142	0.0154
952.2178	0.0148	0.016
953.2471	0.0154	0.0167
954.5125	0.016	0.0173
955.778	0.0167	0.0181
957.1447	0.0174	0.0188
958.3595	0.0182	0.0197
959.878	0.019	0.0206
961.1435	0.0199	0.0216
962.5608	0.0209	0.0226
964.1299	0.0218	0.0236
965.446	0.0229	0.0248
966.9139	0.024	0.026
968.4831	0.0252	0.0273
969.7992	0.0263	0.0285
971.3177	0.0276	0.0299

System: cesium fluoride (CsF); phases: Liquid, Gas
Property: Vapor or sublimation pressure, kPa (Liquid); method: Calculated from knudsen effusion weight loss
Temperature, K	Vapor or sublimation pressure, kPa	uncertainty
972.7856	0.0289	0.0313
974.3548	0.0304	0.033
976.177	0.0319	0.0346
977.6449	0.0335	0.0363
979.3153	0.0351	0.0381
980.5808	0.0369	0.04
982.2512	0.0386	0.0419
983.7697	0.0404	0.0438
985.3895	0.0423	0.0459
987.0093	0.0445	0.0483
988.8315	0.0467	0.0507
990.2488	0.0489	0.0531
991.7674	0.0512	0.0556
993.3871	0.0535	0.0581
994.9057	0.0562	0.061
996.7279	0.0585	0.0635
997.9934	0.0612	0.0664
999.9675	0.064	0.0695
1001.233	0.0668	0.0725
1003.106	0.0694	0.0753
1005.181	0.0722	0.0784
1007.105	0.076	0.0825
1007.763	0.0763	0.0828
1008.471	0.0767	0.0833
1009.028	0.077	0.0836
1009.889	0.0776	0.0843
1010.749	0.0785	0.0852
1011.863	0.0802	0.0871
1013.331	0.082	0.089
1014.95	0.0843	0.0915
1016.975	0.0869	0.0944
1018.561	0.0895	0.0972
1020.417	0.0925	0.1005
1022.037	0.0954	0.1036
1023.91	0.0986	0.1071
1025.732	0.102	0.111
1027.099	0.105	0.114
1029.022	0.108	0.117
1030.794	0.111	0.121
1032.312	0.114	0.124
1034.084	0.117	0.127
1035.603	0.12	0.13
1039.5	0.123	0.134
1041.272	0.126	0.137
1042.79	0.129	0.14
1044.309	0.132	0.143
1046.131	0.135	0.147
1047.751	0.138	0.15
1049.472	0.142	0.154

System: thorium tetraluoride; phases: Crystal, Liquid, Air at 1 atmosphere
Property: Normal melting temperature, K (Crystal); method: DTA
Normal melting temperature, K	uncertainty
1382.9	20

System: thorium tetraluoride; phases: Crystal, Gas
Property: Vapor or sublimation pressure, kPa (Crystal); method: Calculated from knudsen effusion weight loss
Temperature, K	Vapor or sublimation pressure, kPa	uncertainty
1051.732	9.27e-06	9.99e-06
1055.343	1.01e-05	1.09e-05
1058.886	1.27e-05	1.37e-05
1061.721	1.48e-05	1.59e-05
1065.214	1.74e-05	1.88e-05
1069.212	2.05e-05	2.21e-05
1072.958	2.38e-05	2.56e-05
1076.805	2.91e-05	3.14e-05
1079.876	3.3e-05	3.56e-05
1087.435	4.07e-05	4.39e-05
1091.889	4.61e-05	4.97e-05
1095.837	5.58e-05	6.01e-05
1098.875	6.25e-05	6.74e-05
1103.43	7.48e-05	8.06e-05
1107.378	8.46e-05	9.12e-05
1110.719	9.94e-05	0.0001071
1114.262	0.000114	0.000123
1117.806	0.00013	0.00014
1121.4169	0.000145	0.000156
1124.335	0.000162	0.000175
1127.676	0.000186	0.0002
1130.899	0.00021	0.000226
1136.028	0.000234	0.000252
1139.369	0.000262	0.000282
1141.95	0.000289	0.000311
1144.836	0.000327	0.000352
1148.683	0.000357	0.000385
1151.518	0.0004	0.000431
1154.555	0.000435	0.000469
1157.592	0.000485	0.000523
1160.427	0.00053	0.000571
1163.16	0.000586	0.000631
1166.754	0.000642	0.000692
1169.639	0.000715	0.00077
1172.98	0.000784	0.000845
1177.333	0.000857	0.000924
1180.674	0.000952	0.001026
1183.711	0.00104	0.00112
1186.394	0.00113	0.00122
1189.279	0.00125	0.00135
1192.518	0.00135	0.00146
1195.404	0.00147	0.00159
1198.188	0.00162	0.00175
1201.63	0.00176	0.0019
1204.667	0.00191	0.00206
1207.147	0.00208	0.00225
1209.728	0.00224	0.00242
1212.968	0.00243	0.00263
1215.55	0.00262	0.00283
1217.625	0.00279	0.00301
1220.662	0.003	0.00324
1223.395	0.00323	0.00349
1225.926	0.00347	0.00375
1227.647	0.00372	0.00402
1230.144	0.004	0.00432
1232.709	0.00429	0.00464
1235.544	0.0046	0.00497
1238.277	0.00491	0.00531
1241.314	0.00525	0.00568
1243.946	0.00572	0.00619
1247.388	0.00627	0.00678
1251.134	0.00679	0.00734
1253.665	0.00734	0.00794
1256.196	0.00783	0.00847
1259.486	0.0084	0.00909
1262.574	0.009	0.00974
1265.51	0.00964	0.01043
1268.344	0.0103	0.0111
1271.077	0.0111	0.012
1273.406	0.0118	0.0128
1275.633	0.0125	0.0135
1277.354	0.0131	0.0142
1278.822	0.0136	0.0147
1279.784	0.0139	0.0151
1280.897	0.0143	0.0155
1281.809	0.0145	0.0157
1282.467	0.0147	0.0159
1282.973	0.015	0.0162
1283.276	0.0151	0.0164
1283.732	0.0153	0.0166
1283.934	0.0154	0.0167
1283.378	0.0153	0.0166
1282.821	0.0151	0.0164
1282.011	0.0149	0.0161
1281.707	0.0146	0.0158
1281.505	0.0145	0.0157
1281.1	0.0144	0.0156
1281.15	0.0144	0.0156
1281.1	0.0144	0.0156
1281.505	0.0144	0.0156
1281.353	0.0145	0.0157
1281.201	0.0144	0.0156
1281.201	0.0144	0.0156
1281.15	0.0144	0.0156
1281.049	0.0143	0.0155
1280.999	0.0143	0.0155
1281.252	0.0143	0.0155
1281.049	0.0143	0.0155
1281.1	0.0143	0.0155
1281.201	0.0143	0.0155
1283.934	0.0154	0.0167
1286.465	0.0168	0.0182
1289.401	0.0181	0.0196
1290.11	0.0192	0.0208
1291.628	0.0199	0.0216
1292.54	0.0204	0.0221
1292.944	0.0207	0.0224
1293.349	0.0209	0.0226
1297.028	0.0219	0.0237
1301.803	0.0235	0.0255
1307.016	0.0257	0.0279
1312.382	0.0286	0.031
1317.342	0.032	0.0347
1321.83	0.0358	0.0388
1326.2	0.04	0.0434
1330.503	0.0444	0.0482
1334.907	0.0491	0.0533
1338.804	0.0536	0.0582
1342.044	0.0586	0.0636
1345.688	0.0631	0.0685
1348.321	0.0675	0.0733
1350.801	0.0716	0.0777
1353.079	0.0757	0.0822
1355.407	0.0795	0.0863
1357.736	0.083	0.0901
1359.457	0.0867	0.0942
1361.178	0.09	0.0977
1362.696	0.0931	0.1011
1364.012	0.0962	0.1045
1365.936	0.0992	0.1078
1369.833	0.104	0.113
1373.731	0.111	0.121
1377.173	0.119	0.129
1380.868	0.127	0.138

System: thorium tetraluoride; phases: Crystal, Gas
Property: Vapor or sublimation pressure, kPa (Crystal); method: Calculated from knudsen effusion weight loss
Temperature, K	Vapor or sublimation pressure, kPa	uncertainty
1051.733	3.92e-05	4.22e-05
1055.344	4.27e-05	4.6e-05
1058.887	5.37e-05	5.79e-05
1061.721	6.27e-05	6.76e-05
1065.214	7.33e-05	7.9e-05
1069.213	8.65e-05	9.32e-05
1072.959	0.0001	0.000108
1076.806	0.000123	0.000133
1079.876	0.000139	0.00015
1087.435	0.000172	0.000185
1091.89	0.000195	0.00021
1095.838	0.000236	0.000254
1098.875	0.000264	0.000284
1103.431	0.000316	0.000341
1107.379	0.000358	0.000386
1110.72	0.00042	0.000453
1114.263	0.00048	0.000517
1117.806	0.000549	0.000592
1121.417	0.000615	0.000663
1124.336	0.000686	0.000739
1127.677	0.000787	0.000848
1130.899	0.000885	0.000954
1136.029	0.000987	0.001064
1139.369	0.00111	0.0012
1141.951	0.00122	0.00132
1144.836	0.00138	0.00149
1148.683	0.00151	0.00163
1151.518	0.00169	0.00183
1154.555	0.00184	0.00199
1157.592	0.00205	0.00221
1160.427	0.00224	0.00242
1163.16	0.00247	0.00267
1166.754	0.00271	0.00293
1169.639	0.00302	0.00326
1172.98	0.00331	0.00358
1177.333	0.00362	0.00391
1180.674	0.00402	0.00435
1183.711	0.00439	0.00475
1186.394	0.00479	0.00518
1189.279	0.00526	0.00569
1192.518	0.0057	0.00616
1195.404	0.00622	0.00673
1198.188	0.00684	0.0074
1201.63	0.00743	0.00804
1204.667	0.00806	0.00872
1207.147	0.00877	0.00949
1209.728	0.00946	0.01024
1212.968	0.0102	0.011
1215.55	0.0111	0.012
1217.625	0.0118	0.0128
1220.662	0.0127	0.0137
1223.395	0.0136	0.0147
1225.926	0.0147	0.0159
1227.647	0.0157	0.017
1230.144	0.0169	0.0183
1232.709	0.0181	0.0196
1235.544	0.0194	0.021
1238.277	0.0208	0.0225
1241.314	0.0222	0.0241
1243.946	0.0242	0.0262
1247.388	0.0265	0.0287
1251.134	0.0287	0.0311
1253.665	0.031	0.0336
1256.196	0.0331	0.0359
1259.486	0.0355	0.0385
1262.574	0.038	0.0412
1265.51	0.0407	0.0441
1268.344	0.0436	0.0473
1271.077	0.0468	0.0508
1273.406	0.0498	0.054
1275.633	0.0529	0.0574
1277.354	0.0553	0.06
1278.822	0.0573	0.0622
1279.784	0.0589	0.0639
1280.897	0.0603	0.0654
1281.809	0.0613	0.0665
1282.467	0.0621	0.0674
1282.973	0.0633	0.0687
1283.276	0.0639	0.0694
1283.732	0.0648	0.0703
1283.934	0.0649	0.0704
1283.378	0.0646	0.0701
1282.821	0.0638	0.0692
1282.011	0.0628	0.0682
1281.707	0.0617	0.067
1281.505	0.0612	0.0664
1281.1	0.0609	0.0661
1281.15	0.0608	0.066
1281.1	0.061	0.0662
1281.505	0.0609	0.0661
1281.353	0.0612	0.0664
1281.201	0.061	0.0662
1281.201	0.0608	0.066
1281.15	0.0607	0.0659
1281.049	0.0606	0.0658
1280.999	0.0603	0.0654
1281.252	0.0604	0.0656
1281.049	0.0604	0.0656
1281.1	0.0603	0.0654
1281.201	0.0606	0.0658
1283.934	0.065	0.0706
1286.465	0.0709	0.077
1289.401	0.0763	0.0828
1290.11	0.0811	0.0881
1291.628	0.0843	0.0915
1292.54	0.0863	0.0937
1292.944	0.0874	0.0949
1293.349	0.0885	0.0961
1297.028	0.0926	0.1006
1301.803	0.0991	0.1076
1307.016	0.109	0.118
1312.382	0.121	0.131
1317.342	0.135	0.147
1321.83	0.151	0.164
1326.2	0.169	0.184
1330.503	0.188	0.204
1334.907	0.207	0.225
1338.804	0.227	0.247
1342.044	0.248	0.27
1345.688	0.267	0.291
1348.321	0.285	0.31
1350.801	0.302	0.329
1353.079	0.32	0.348
1355.407	0.336	0.366
1357.736	0.351	0.382
1359.457	0.366	0.399
1361.178	0.38	0.414
1362.696	0.394	0.429
1364.012	0.406	0.442
1365.936	0.419	0.456
1369.833	0.44	0.479
1373.731	0.469	0.511
1377.173	0.501	0.546
1380.868	0.538	0.586

System: thorium tetraluoride; phases: Liquid, Gas
Property: Vapor or sublimation pressure, kPa (Liquid); method: Calculated from knudsen effusion weight loss
Temperature, K	Vapor or sublimation pressure, kPa	uncertainty
1384.361	0.136	0.148
1387.954	0.145	0.158
1391.143	0.154	0.167
1394.282	0.163	0.177
1397.116	0.169	0.184
1399.445	0.171	0.186
1399.141	0.174	0.189
1401.368	0.181	0.197
1403.19	0.192	0.209
1405.671	0.198	0.215
1407.442	0.204	0.222
1409.518	0.209	0.227
1411.137	0.213	0.232
1412.909	0.217	0.236
1414.073	0.221	0.24
1415.845	0.225	0.245
1417.212	0.228	0.248
1418.376	0.23	0.25
1419.996	0.233	0.254
1421.413	0.236	0.257
1423.033	0.238	0.259
1424.45	0.241	0.262
1425.766	0.244	0.266
1426.677	0.247	0.269
1427.639	0.249	0.271
1428.904	0.253	0.275
1429.613	0.257	0.28
1430.727	0.261	0.284
1431.334	0.264	0.287
1432.043	0.268	0.292
1433.409	0.272	0.296
1433.966	0.276	0.3
1435.029	0.28	0.305
1435.687	0.284	0.309
1436.801	0.289	0.315
1437.712	0.293	0.319
1438.522	0.298	0.324
1439.18	0.302	0.329
1440.04	0.306	0.333
1441.255	0.311	0.339
1441.964	0.316	0.344
1442.673	0.321	0.349
1443.584	0.325	0.354
1444.545	0.33	0.359
1445.102	0.334	0.364
1445.912	0.338	0.368
1446.621	0.343	0.373
1447.431	0.347	0.378
1448.139	0.352	0.383
1449.05	0.356	0.388
1449.557	0.36	0.392
1450.164	0.364	0.396
1450.873	0.368	0.401
1451.379	0.371	0.404

System: thorium tetraluoride; phases: Liquid, Gas
Property: Vapor or sublimation pressure, kPa (Liquid); method: Calculated from knudsen effusion weight loss
Temperature, K	Vapor or sublimation pressure, kPa	uncertainty
1384.361	0.576	0.628
1387.954	0.614	0.669
1391.143	0.652	0.711
1394.282	0.689	0.751
1397.116	0.713	0.778
1399.445	0.721	0.786
1399.141	0.734	0.801
1401.368	0.764	0.833
1403.19	0.809	0.883
1405.671	0.838	0.914
1407.442	0.861	0.939
1409.518	0.883	0.963
1411.137	0.9	0.982
1412.909	0.918	1.002
1414.073	0.934	1.019
1415.845	0.949	1.036
1417.212	0.962	1.05
1418.376	0.972	1.061
1419.996	0.984	1.074
1421.413	0.996	1.087
1423.033	1.01	1.102
1424.45	1.02	1.113
1425.766	1.03	1.124
1426.677	1.04	1.135
1427.639	1.05	1.146
1428.904	1.07	1.168
1429.613	1.08	1.179
1430.727	1.1	1.201
1431.334	1.12	1.223
1432.043	1.13	1.234
1433.409	1.15	1.256
1433.966	1.17	1.277
1435.029	1.18	1.288
1435.687	1.2	1.31
1436.801	1.22	1.332
1437.712	1.24	1.354
1438.522	1.26	1.376
1439.18	1.28	1.398
1440.04	1.29	1.409
1441.255	1.32	1.442
1441.964	1.34	1.464
1442.673	1.36	1.485
1443.584	1.37	1.496
1444.545	1.39	1.518
1445.102	1.41	1.54
1445.912	1.43	1.562
1446.621	1.45	1.584
1447.431	1.47	1.606
1448.139	1.49	1.628
1449.05	1.5	1.639
1449.557	1.52	1.661
1450.164	1.54	1.683
1450.873	1.55	1.693
1451.379	1.57	1.715

System: cesium fluoride (CsF) + thorium tetraluoride; phases: Liquid, Crystal of unknown type
Fixed: Pressure, kPa = 100
Property: Solid-liquid equilibrium temperature, K (Liquid); method: DTA
Mole fraction of thorium tetraluoride	Solid-liquid equilibrium temperature, K	uncertainty
0	972	20
0.0995	916.9	20.1
0.252	1254.1	20.1
0.33	1156.8	20.2
0.399	1057.2	20.1
0.4508	1077.6	20.1
0.5	1132.9	20.1
0.5333	1158.8	20
0.563	1160.6	20.1
0.665	1251.1	20.1
0.7466	1299.8	20
0.7955	1324.6	20
0.8622	1329.1	20
0.9458	1359.9	20
1	1382.9	20
