Measured thermophysical data. Combined experimental and computational study on the energetics of 1,2-benzisothiazol-3(2H)-one and 1,4-benzothiazin-3(2H, 4H)-one
Source: J. Chem. Thermodyn., 2011, 10.1016/j.jct.2010.11.006
Compound 1: water, H2O, InChI=1S/H2O/h1H2
Compound 2: 1,2-benzisothiazol-3(2H)-one, C7H5NOS, InChI=1S/C7H5NOS/c9-7-5-3-1-2-4-6(5)10-8-7/h1-4H,(H,8,9), purity 99.2%
Compound 3: 2H-1,4-benzothiazin-3(4H)-one, C8H7NOS, InChI=1S/C8H7NOS/c10-8-5-11-7-4-2-1-3-6(7)9-8/h1-4H,5H2,(H,9,10), purity 99.9%
Compound 4: sulfuric acid, H2O4S, InChI=1S/H2O4S/c1-5(2,3)4/h(H2,1,2,3,4)
Compound 5: oxygen, O2, InChI=1S/O2/c1-2
Compound 6: nitrogen, N2, InChI=1S/N2/c1-2
Compound 7: carbon dioxide, CO2, InChI=1S/CO2/c2-1-3

System: 1,2-benzisothiazol-3(2H)-one; phases: Crystal, Liquid, Air at 1 atmosphere
Property: Molar enthalpy of transition or fusion, kJ/mol (Crystal); method: DSC
Molar enthalpy of transition or fusion, kJ/mol	uncertainty
20.87	0.49

System: 1,2-benzisothiazol-3(2H)-one; phases: Crystal, Liquid, Air at 1 atmosphere
Property: Normal melting temperature, K (Crystal); method: DTA
Normal melting temperature, K	uncertainty
428.79	0.39

System: 1,2-benzisothiazol-3(2H)-one; phases: Crystal, Gas
Property: Molar enthalpy of transition or fusion, kJ/mol (Crystal); method: Calver Calorimeter- drop method
Temperature, K	Molar enthalpy of transition or fusion, kJ/mol	uncertainty
298.15	112.4	5

System: 1,2-benzisothiazol-3(2H)-one; phases: Gas
Property: Molar enthalpy, kJ/mol (Gas); method: Calver Calorimeter- drop method
Temperature, K	Pressure, kPa	Molar enthalpy, kJ/mol	uncertainty
440	100	134.8	5

System: 2H-1,4-benzothiazin-3(4H)-one; phases: Crystal, Liquid, Air at 1 atmosphere
Property: Molar enthalpy of transition or fusion, kJ/mol (Crystal); method: DSC
Molar enthalpy of transition or fusion, kJ/mol	uncertainty
25.29	0.6

System: 2H-1,4-benzothiazin-3(4H)-one; phases: Crystal, Liquid, Air at 1 atmosphere
Property: Normal melting temperature, K (Crystal); method: DTA
Normal melting temperature, K	uncertainty
451.39	0.39

System: 2H-1,4-benzothiazin-3(4H)-one; phases: Crystal, Gas
Property: Molar enthalpy of transition or fusion, kJ/mol (Crystal); method: Calver Calorimeter- drop method
Temperature, K	Molar enthalpy of transition or fusion, kJ/mol	uncertainty
298.15	117.9	7.6

System: 2H-1,4-benzothiazin-3(4H)-one; phases: Gas
Property: Molar enthalpy, kJ/mol (Gas); method: Calver Calorimeter- drop method
Temperature, K	Pressure, kPa	Molar enthalpy, kJ/mol	uncertainty
440	100	143.7	7.6

Reaction: -1 2H-1,4-benzothiazin-3(4H)-one + 1 sulfuric acid + 8 carbon dioxide + .5 nitrogen + 2.5 water + -10.75 oxygen
Property: Specific internal energy of reaction at constant volume, J/g
-27825.8

Reaction: -1 1,2-benzisothiazol-3(2H)-one + 1 sulfuric acid + 7 carbon dioxide + .5 nitrogen + 1.5 water + -9.25 oxygen
Property: Specific internal energy of reaction at constant volume, J/g
-26245.4
