Measured thermophysical data. Vapor pressures and sublimation enthalpies of novel bicyclic heterocycle derivatives
Source: J. Chem. Thermodyn., 2014, 10.1016/j.jct.2013.09.042
Compound 1: N-(m-tolyl)-3-thia-1-azabicyclo[3.3.1]nonan-2-imine, C14H18N2S, InChI=1S/C14H18N2S/c1-11-4-2-6-13(8-11)15-14-16-7-3-5-12(9-16)10-17-14/h2,4,6,8,12H,3,5,7,9-10H2,1H3
Compound 2: N-(4-ethylphenyl)-3-thia-1-azabicyclo[3.3.1]nonan-2-imine, C15H20N2S, InChI=1S/C15H20N2S/c1-2-12-5-7-14(8-6-12)16-15-17-9-3-4-13(10-17)11-18-15/h5-8,13H,2-4,9-11H2,1H3
Compound 3: N-(4-chlorophenyl)-3-thia-1-azabicyclo[3.3.1]nonan-2-imine, C13H15ClN2S, InChI=1S/C13H15ClN2S/c14-11-3-5-12(6-4-11)15-13-16-7-1-2-10(8-16)9-17-13/h3-6,10H,1-2,7-9H2
Compound 4: N-(3,4-dichlorophenyl)-3-thia-1-azabicyclo[3.3.1]nonan-2-imine, C13H14Cl2N2S, InChI=1S/C13H14Cl2N2S/c14-11-4-3-10(6-12(11)15)16-13-17-5-1-2-9(7-17)8-18-13/h3-4,6,9H,1-2,5,7-8H2
Compound 5: N-(3-chloro-4-methylphenyl)-3-thia-1-azabicyclo[3.3.1]nonan-2-imine, C14H17ClN2S, InChI=1S/C14H17ClN2S/c1-10-4-5-12(7-13(10)15)16-14-17-6-2-3-11(8-17)9-18-14/h4-5,7,11H,2-3,6,8-9H2,1H3

System: N-(m-tolyl)-3-thia-1-azabicyclo[3.3.1]nonan-2-imine; phases: Crystal, Liquid, Air at 1 atmosphere
Property: Normal melting temperature, K (Crystal); method: DTA
Normal melting temperature, K	uncertainty
398.5	0.5

System: N-(m-tolyl)-3-thia-1-azabicyclo[3.3.1]nonan-2-imine; phases: Crystal, Liquid, Air at 1 atmosphere
Property: Molar enthalpy of transition or fusion, kJ/mol (Crystal); method: DSC
Molar enthalpy of transition or fusion, kJ/mol	uncertainty
26.5	1.1

System: N-(m-tolyl)-3-thia-1-azabicyclo[3.3.1]nonan-2-imine; phases: Crystal, Gas
Property: Vapor or sublimation pressure, kPa (Crystal); method: Transpiration method
Temperature, K	Vapor or sublimation pressure, kPa	uncertainty
353.15	5.65e-05	6e-06
355.15	7.21e-05	7.7e-06
357.15	9.52e-05	1.01e-05
359.15	0.0001112	1.18e-05
361.15	0.0001522	1.62e-05
362.15	0.0001678	1.78e-05
364.15	0.0002107	2.24e-05
366.15	0.0002637	2.8e-05
368.15	0.0003248	3.45e-05
370.15	0.0004227	4.49e-05
372.15	0.0005258	5.58e-05
374.15	0.0006715	7.13e-05
376.15	0.0008044	8.54e-05

System: N-(4-ethylphenyl)-3-thia-1-azabicyclo[3.3.1]nonan-2-imine; phases: Crystal, Liquid, Air at 1 atmosphere
Property: Normal melting temperature, K (Crystal); method: DTA
Normal melting temperature, K	uncertainty
394.6	0.5

System: N-(4-ethylphenyl)-3-thia-1-azabicyclo[3.3.1]nonan-2-imine; phases: Crystal, Liquid, Air at 1 atmosphere
Property: Molar enthalpy of transition or fusion, kJ/mol (Crystal); method: DSC
Molar enthalpy of transition or fusion, kJ/mol	uncertainty
16.4	1.1

System: N-(4-ethylphenyl)-3-thia-1-azabicyclo[3.3.1]nonan-2-imine; phases: Crystal, Gas
Property: Vapor or sublimation pressure, kPa (Crystal); method: Transpiration method
Temperature, K	Vapor or sublimation pressure, kPa	uncertainty
359.15	1.09e-05	1.2e-06
362.15	1.35e-05	1.5e-06
364.15	1.75e-05	1.9e-06
366.15	1.98e-05	2.1e-06
368.15	2.54e-05	2.7e-06
371.15	2.86e-05	3.1e-06
376.15	3.03e-05	1.52e-05
374.15	3.88e-05	4.1e-06
377.15	5.41e-05	5.8e-06
380.15	6.76e-05	7.2e-06
381.15	7.59e-05	8.1e-06
382.15	8.41e-05	9e-06
384.15	8.43e-05	9e-06
386.15	0.0001059	1.13e-05
389.15	0.0001278	1.36e-05

System: N-(4-chlorophenyl)-3-thia-1-azabicyclo[3.3.1]nonan-2-imine; phases: Crystal, Liquid, Air at 1 atmosphere
Property: Normal melting temperature, K (Crystal); method: DTA
Normal melting temperature, K	uncertainty
411.8	0.5

System: N-(4-chlorophenyl)-3-thia-1-azabicyclo[3.3.1]nonan-2-imine; phases: Crystal, Liquid, Air at 1 atmosphere
Property: Molar enthalpy of transition or fusion, kJ/mol (Crystal); method: DSC
Molar enthalpy of transition or fusion, kJ/mol	uncertainty
11.8	1

System: N-(4-chlorophenyl)-3-thia-1-azabicyclo[3.3.1]nonan-2-imine; phases: Crystal, Gas
Property: Vapor or sublimation pressure, kPa (Crystal); method: Transpiration method
Temperature, K	Vapor or sublimation pressure, kPa	uncertainty
368.15	6.26e-05	6.7e-06
369.15	7.04e-05	7.5e-06
371.15	8.91e-05	9.5e-06
373.15	0.0001094	1.16e-05
374.15	0.0001327	1.41e-05
375.15	0.000149	1.58e-05
376.15	0.0001659	1.76e-05
378.15	0.0002065	2.19e-05
380.15	0.0002459	2.61e-05
382.15	0.0003128	3.32e-05
384.15	0.0003887	4.13e-05
386.15	0.0004737	5.03e-05
388.15	0.0005748	6.1e-05
390.15	0.0007333	7.79e-05
391.15	0.0008441	8.96e-05

System: N-(3,4-dichlorophenyl)-3-thia-1-azabicyclo[3.3.1]nonan-2-imine; phases: Crystal, Liquid, Air at 1 atmosphere
Property: Normal melting temperature, K (Crystal); method: DTA
Normal melting temperature, K	uncertainty
370.9	0.5

System: N-(3,4-dichlorophenyl)-3-thia-1-azabicyclo[3.3.1]nonan-2-imine; phases: Crystal, Liquid, Air at 1 atmosphere
Property: Molar enthalpy of transition or fusion, kJ/mol (Crystal); method: DSC
Molar enthalpy of transition or fusion, kJ/mol	uncertainty
23.5	1.1

System: N-(3,4-dichlorophenyl)-3-thia-1-azabicyclo[3.3.1]nonan-2-imine; phases: Crystal, Gas
Property: Vapor or sublimation pressure, kPa (Crystal); method: Transpiration method
Temperature, K	Vapor or sublimation pressure, kPa	uncertainty
352.15	1.15e-05	1.2e-06
353.15	1.25e-05	1.4e-06
354.15	1.59e-05	1.7e-06
355.15	1.82e-05	2e-06
356.15	2.26e-05	2.4e-06
357.15	2.27e-05	2.4e-06
358.15	2.56e-05	2.7e-06
359.15	2.58e-05	2.8e-06
360.15	2.91e-05	3.1e-06
361.15	3.49e-05	3.7e-06
362.15	4e-05	4.3e-06
363.15	4.4e-05	4.7e-06

System: N-(3-chloro-4-methylphenyl)-3-thia-1-azabicyclo[3.3.1]nonan-2-imine; phases: Crystal, Liquid, Air at 1 atmosphere
Property: Normal melting temperature, K (Crystal); method: DTA
Normal melting temperature, K	uncertainty
406.6	0.5

System: N-(3-chloro-4-methylphenyl)-3-thia-1-azabicyclo[3.3.1]nonan-2-imine; phases: Crystal, Liquid, Air at 1 atmosphere
Property: Molar enthalpy of transition or fusion, kJ/mol (Crystal); method: DSC
Molar enthalpy of transition or fusion, kJ/mol	uncertainty
22.7	1.1

System: N-(3-chloro-4-methylphenyl)-3-thia-1-azabicyclo[3.3.1]nonan-2-imine; phases: Crystal, Gas
Property: Vapor or sublimation pressure, kPa (Crystal); method: Transpiration method
Temperature, K	Vapor or sublimation pressure, kPa	uncertainty
376.15	3.1e-05	3.3e-06
377.15	3.39e-05	3.6e-06
378.15	3.79e-05	4e-06
379.15	4.05e-05	4.3e-06
381.15	5.21e-05	5.6e-06
382.15	5.74e-05	6.1e-06
383.15	6.78e-05	7.2e-06
384.15	7.6e-05	8.1e-06
386.15	9.31e-05	9.9e-06
388.15	0.0001239	1.32e-05
390.15	0.0001553	1.65e-05
392.15	0.0002006	2.13e-05
394.15	0.0002521	2.68e-05
396.15	0.0003109	3.3e-05
