Measured thermophysical data. Structural studies of cyclic ureas: 2. Enthalpy of formation of parabanic acid
Source: J. Chem. Thermodyn., 2008, 10.1016/j.jct.2008.05.006
Compound 1: carbon dioxide, CO2, InChI=1S/CO2/c2-1-3
Compound 2: nitrogen, N2, InChI=1S/N2/c1-2
Compound 3: water, H2O, InChI=1S/H2O/h1H2
Compound 4: oxygen, O2, InChI=1S/O2/c1-2
Compound 5: parabanic acid, C3H2N2O3, InChI=1S/C3H2N2O3/c6-1-2(7)5-3(8)4-1/h(H2,4,5,6,7,8), purity 99%

System: parabanic acid; phases: Crystal 3, Crystal 2, Air at 1 atmosphere
Property: Molar enthalpy of transition or fusion, kJ/mol (Crystal 3); method: DSC
Molar enthalpy of transition or fusion, kJ/mol	uncertainty
2.1	0.8

System: parabanic acid; phases: Crystal 3, Crystal 2, Air at 1 atmosphere
Property: Triple point temperature, K (Crystal 3); method: DTA
Triple point temperature, K	uncertainty
392.3	3.2

System: parabanic acid; phases: Crystal 2, Crystal 1, Air at 1 atmosphere
Property: Triple point temperature, K (Crystal 2); method: DTA
Triple point temperature, K	uncertainty
509.8	3

System: parabanic acid; phases: Crystal 1, Liquid, Air at 1 atmosphere
Property: Triple point temperature, K (Crystal 1); method: DTA
Triple point temperature, K	uncertainty
520	3

System: parabanic acid; phases: Crystal 3
Fixed: Pressure, kPa = 101.325
Property: Molar heat capacity at constant pressure, J/K/mol (Crystal 3); method: Small sample (50 mg) DSC
Temperature, K	Molar heat capacity at constant pressure, J/K/mol	uncertainty
263.15	153.78	6.52
265.15	154.68	6.56
270.15	157.16	6.67
273.15	158.53	6.73
275.15	159.48	6.77
280.15	161.53	6.85
285.15	163.59	6.94
290.15	165.7	7.03
295.15	167.6	7.11
300.15	169.81	7.2
305.15	172.08	7.3
310.15	174.5	7.4
315.15	177.24	7.52
320.15	179.33	7.61
325.15	180.62	7.66
330.15	182.52	7.74
335.15	184.84	7.84
340.15	187.21	7.94
345.15	189.26	8.03
350.15	191.69	8.13
355.15	193.8	8.22
360.15	196.01	8.32
365.15	197.59	8.38
370.15	200.07	8.49
375.15	201.42	8.55
380.15	203.59	8.64

System: parabanic acid; phases: Crystal 2
Fixed: Pressure, kPa = 101.325
Property: Molar heat capacity at constant pressure, J/K/mol (Crystal 2); method: Small sample (50 mg) DSC
Temperature, K	Molar heat capacity at constant pressure, J/K/mol	uncertainty
400.15	211.5	8.97
405.15	213.6	9.06
410.15	215.93	9.16
415.15	216.68	9.19
420.15	218.83	9.28
425.15	220.28	9.35
430.15	222.89	9.46
435.15	225.62	9.57
440.15	227.43	9.65
445.15	229.93	9.76
450.15	232.06	9.85
455.15	234.43	9.95
460.15	236.96	10.05
465.15	239.26	10.15
470.15	241.31	10.24
473.15	243.13	10.32

System: parabanic acid; phases: Crystal 3, Gas
Property: Vapor or sublimation pressure, kPa (Crystal 3); method: Calculated from knudsen effusion weight loss
Temperature, K	Vapor or sublimation pressure, kPa	uncertainty
381.17	0.0001133	2.04e-05
381.17	0.0001078	2.04e-05
383.17	0.0001373	2.06e-05
383.17	0.0001334	2.06e-05
385.18	0.0001672	2.09e-05
385.18	0.0001691	2.09e-05
385.18	0.000159	2.08e-05
387.17	0.000195	2.12e-05
387.17	0.0001972	2.12e-05
387.17	0.0002012	2.12e-05
387.17	0.0001876	2.11e-05
389.17	0.0002355	2.17e-05
389.17	0.0002336	2.16e-05
389.17	0.0002271	2.16e-05
391.18	0.000285	2.24e-05
391.18	0.000287	2.24e-05

System: parabanic acid; phases: Crystal 2, Gas
Property: Vapor or sublimation pressure, kPa (Crystal 2); method: Calculated from knudsen effusion weight loss
Temperature, K	Vapor or sublimation pressure, kPa	uncertainty
393.18	0.0003353	2.33e-05
393.18	0.0003334	2.32e-05
395.17	0.0004133	2.48e-05
395.17	0.0004042	2.46e-05
397.16	0.0004877	2.67e-05
397.18	0.000484	2.7e-05
399.17	0.0005715	2.85e-05
401.18	0.0006635	3.09e-05
403.17	0.0008169	3.52e-05
405.2	0.0009581	3.94e-05
405.2	0.0009469	3.9e-05
406.17	0.0010468	8.19e-05
406.17	0.0010389	8.12e-05

Reaction: -1 parabanic acid + 3 carbon dioxide + 1 nitrogen + 1 water + -2 oxygen
Property: Specific internal energy of reaction at constant volume, J/g
-7725.3
