Measured thermophysical data. Experiment and correlation of the equilibrium interfacial tension for paraffin + CO2 modified with ethanol
Source: J. Chem. Thermodyn., 2018, 10.1016/j.jct.2017.08.031
Compound 1: nonane, C9H20, InChI=1S/C9H20/c1-3-5-7-9-8-6-4-2/h3-9H2,1-2H3, purity 99%
Compound 2: undecane, C11H24, InChI=1S/C11H24/c1-3-5-7-9-11-10-8-6-4-2/h3-11H2,1-2H3, purity 99%
Compound 3: tridecane, C13H28, InChI=1S/C13H28/c1-3-5-7-9-11-13-12-10-8-6-4-2/h3-13H2,1-2H3, purity 98.5%
Compound 4: pentadecane, C15H32, InChI=1S/C15H32/c1-3-5-7-9-11-13-15-14-12-10-8-6-4-2/h3-15H2,1-2H3, purity 99%
Compound 5: heptadecane, C17H36, InChI=1S/C17H36/c1-3-5-7-9-11-13-15-17-16-14-12-10-8-6-4-2/h3-17H2,1-2H3, purity 99%
Compound 6: ethanol, C2H6O, InChI=1S/C2H6O/c1-2-3/h3H,2H2,1H3, purity 99.8%
Compound 7: carbon dioxide, CO2, InChI=1S/CO2/c2-1-3, purity 99.9%

System: heptadecane + carbon dioxide + ethanol; phases: Liquid, Gas
Property: Surface tension liquid-gas, N/m (Liquid); method: Pendant drop shape
Temperature, K	Pressure, kPa	Mole fraction of ethanol	Surface tension liquid-gas, N/m	uncertainty
333.15	6000	0.0199	0.01087	0.00023
333.15	7030	0.02	0.009	0.0002
333.15	7890	0.0203	0.00753	0.00018
333.15	9000	0.0201	0.00551	0.00014
333.15	10000	0.0201	0.00406	0.00012
333.15	10030	0.041	0.00284	0.0001
353.15	8740	0.0194	0.00835	0.00019
353.15	9490	0.0201	0.00743	0.00017
353.15	10260	0.0207	0.00639	0.00016
353.15	11880	0.0203	0.00474	0.00013
353.15	12610	0.0198	0.00402	0.00012
353.15	10000	0.0405	0.00593	0.00015
353.15	11050	0.04	0.00477	0.00013
353.15	12000	0.041	0.00364	0.00011
353.15	12000	0.0614	0.00303	0.00011
373.15	9260	0.0225	0.00903	0.0002
373.15	9460	0.0201	0.00869	0.0002
373.15	10490	0.0205	0.00756	0.00018
373.15	10920	0.0195	0.00725	0.00017
373.15	11460	0.0212	0.00681	0.00016
373.15	12820	0.0193	0.0054	0.00014
373.15	13620	0.0206	0.00485	0.00013
373.15	14600	0.0201	0.00399	0.00012
373.15	10150	0.0396	0.00759	0.00018
373.15	11180	0.0411	0.00651	0.00016
373.15	12600	0.0403	0.00514	0.00014
373.15	12970	0.0407	0.00475	0.00013
373.15	13910	0.0411	0.00395	0.00012
373.15	10060	0.0604	0.00695	0.00017
373.15	11060	0.0605	0.00584	0.00015
373.15	11930	0.0616	0.00499	0.00013
373.15	13020	0.0612	0.00422	0.00012
373.15	14030	0.0608	0.00333	0.00011
373.15	9990	0.082	0.00577	0.00015
373.15	10980	0.0822	0.0048	0.00013
373.15	12060	0.0817	0.00406	0.00012
373.15	13090	0.0819	0.00331	0.00011
373.15	13900	0.0835	0.00263	0.0001

System: pentadecane + carbon dioxide + ethanol; phases: Liquid, Gas
Property: Surface tension liquid-gas, N/m (Liquid); method: Pendant drop shape
Temperature, K	Pressure, kPa	Mole fraction of ethanol	Surface tension liquid-gas, N/m	uncertainty
333.15	5960	0.0202	0.01054	0.00023
333.15	7000	0.0202	0.00845	0.00019
333.15	8020	0.02	0.00658	0.00016
333.15	8960	0.0203	0.0049	0.00013
333.15	10060	0.0201	0.00316	0.00011
333.15	9930	0.0412	0.00249	0.0001
353.15	7200	0.0226	0.00983	0.00021
353.15	7930	0.0203	0.00877	0.0002
353.15	8830	0.021	0.00766	0.00018
353.15	10280	0.0207	0.00583	0.00015
353.15	10960	0.0201	0.00491	0.00013
353.15	11980	0.0202	0.00387	0.00012
353.15	10000	0.0406	0.00506	0.00014
353.15	11020	0.0404	0.00401	0.00012
353.15	11890	0.0409	0.00322	0.00011
353.15	12000	0.0613	0.00237	0.0001
373.15	7430	0.0245	0.0102	0.00022
373.15	8470	0.0213	0.00902	0.0002
373.15	9580	0.0218	0.00791	0.00018
373.15	10410	0.0205	0.00706	0.00017
373.15	11500	0.0211	0.0059	0.00015
373.15	12390	0.0205	0.00499	0.00013
373.15	13510	0.0201	0.00401	0.00012
373.15	9000	0.0406	0.00785	0.00018
373.15	10060	0.04	0.00675	0.00016
373.15	11200	0.0411	0.00556	0.00014
373.15	12460	0.0411	0.0044	0.00013
373.15	13770	0.0409	0.00332	0.00011
373.15	10040	0.0606	0.00602	0.00015
373.15	11060	0.0606	0.00513	0.00014
373.15	12000	0.0613	0.00419	0.00012
373.15	12990	0.0614	0.00332	0.00011
373.15	14030	0.0608	0.00252	0.0001
373.15	8990	0.0814	0.00656	0.00016
373.15	9970	0.082	0.00563	0.00014
373.15	10970	0.0822	0.00468	0.00013
373.15	11800	0.0827	0.00383	0.00012
373.15	13000	0.0826	0.0028	0.0001
373.15	13970	0.0833	0.0019	9e-05

System: tridecane + carbon dioxide + ethanol; phases: Liquid, Gas
Property: Surface tension liquid-gas, N/m (Liquid); method: Pendant drop shape
Temperature, K	Pressure, kPa	Mole fraction of ethanol	Surface tension liquid-gas, N/m	uncertainty
333.15	6020	0.0202	0.00971	0.00021
333.15	7080	0.02	0.00797	0.00018
333.15	8030	0.0201	0.00582	0.00015
333.15	8970	0.0202	0.00415	0.00012
333.15	10000	0.0202	0.0023	0.0001
333.15	9930	0.0412	0.0017	9e-05
353.15	7630	0.0211	0.00845	0.00019
353.15	8760	0.0214	0.0069	0.00017
353.15	10170	0.0209	0.00494	0.00013
353.15	11090	0.02	0.00377	0.00012
353.15	11860	0.0204	0.00289	0.0001
353.15	10050	0.0402	0.0043	0.00012
353.15	10990	0.0406	0.00335	0.00011
353.15	11900	0.0408	0.00216	9e-05
373.15	7950	0.0225	0.00877	0.0002
373.15	9420	0.0224	0.00703	0.00017
373.15	11320	0.0214	0.00502	0.00014
373.15	12520	0.0204	0.00375	0.00012
373.15	13640	0.0206	0.00295	0.0001
373.15	9100	0.0401	0.00672	0.00016
373.15	10100	0.0405	0.00573	0.00015
373.15	11260	0.0408	0.00451	0.00013
373.15	12460	0.0412	0.00347	0.00011
373.15	13770	0.0409	0.00226	0.0001
373.15	9000	0.061	0.0063	0.00016
373.15	10000	0.061	0.00517	0.00014
373.15	11060	0.0608	0.0043	0.00012
373.15	11990	0.0615	0.00325	0.00011
373.15	12980	0.0616	0.00239	0.0001
373.15	9960	0.0823	0.00459	0.00013
373.15	11040	0.0817	0.00369	0.00011
373.15	12040	0.0821	0.00253	0.0001

System: undecane + carbon dioxide + ethanol; phases: Liquid, Gas
Property: Surface tension liquid-gas, N/m (Liquid); method: Pendant drop shape
Temperature, K	Pressure, kPa	Mole fraction of ethanol	Surface tension liquid-gas, N/m	uncertainty
333.15	5060	0.0201	0.01095	0.00023
333.15	6130	0.0196	0.00852	0.00019
333.15	7090	0.0199	0.00645	0.00016
333.15	7990	0.0202	0.00486	0.00013
333.15	9030	0.0199	0.00299	0.0001
353.15	6610	0.0203	0.00858	0.00019
353.15	7310	0.0223	0.00762	0.00018
353.15	8010	0.0202	0.00671	0.00016
353.15	8800	0.0212	0.0057	0.00015
353.15	9570	0.0201	0.00452	0.00013
353.15	10340	0.0204	0.00354	0.00011
353.15	10030	0.0404	0.00323	0.00011
373.15	7570	0.024	0.00775	0.00018
373.15	8420	0.0216	0.00686	0.00016
373.15	9560	0.022	0.00563	0.00014
373.15	10540	0.0206	0.00455	0.00013
373.15	11580	0.0208	0.00358	0.00011
373.15	7950	0.0407	0.00704	0.00017
373.15	9090	0.0398	0.00565	0.00014
373.15	10010	0.0404	0.00462	0.00013
373.15	11200	0.0411	0.0034	0.00011
373.15	8090	0.0599	0.0063	0.00016
373.15	9120	0.0601	0.00511	0.00014
373.15	9930	0.0615	0.00425	0.00012
373.15	10930	0.0615	0.00324	0.00011
373.15	10020	0.0817	0.00383	0.00012
373.15	10990	0.0821	0.00293	0.0001

System: nonane + carbon dioxide + ethanol; phases: Liquid, Gas
Property: Surface tension liquid-gas, N/m (Liquid); method: Pendant drop shape
Temperature, K	Pressure, kPa	Mole fraction of ethanol	Surface tension liquid-gas, N/m	uncertainty
333.15	6040	0.0201	0.00724	0.00017
333.15	7010	0.0202	0.00539	0.00014
333.15	7970	0.0201	0.00356	0.00011
353.15	7450	0.0217	0.00594	0.00015
353.15	8790	0.0211	0.00412	0.00012
353.15	9520	0.0201	0.00312	0.00011
373.15	7550	0.0241	0.00628	0.00016
373.15	8540	0.0202	0.00513	0.00014
373.15	9520	0.0219	0.00409	0.00012
373.15	10500	0.0206	0.00307	0.00011
373.15	7500	0.0607	0.00559	0.00014
373.15	8470	0.0609	0.0044	0.00013
373.15	9520	0.0609	0.00318	0.00011
373.15	10610	0.0603	0.00237	0.0001
