Measured thermophysical data. Volumetric and compressibility properties of liquid water as a solute in glycolic, propylene carbonate, and tetramethylurea solutions at T = 298.15 K
Source: J. Chem. Thermodyn., 2008, 10.1016/j.jct.2007.05.010
Compound 1: 1,2-ethanediol, C2H6O2, InChI=1S/C2H6O2/c3-1-2-4/h3-4H,1-2H2, purity 99%
Compound 2: 1,2-propanediol, C3H8O2, InChI=1S/C3H8O2/c1-3(5)2-4/h3-5H,2H2,1H3, purity 99.5%
Compound 3: 4-methyl-1,3-dioxolan-2-one, C4H6O3, InChI=1S/C4H6O3/c1-3-2-6-4(5)7-3/h3H,2H2,1H3, purity 99%
Compound 4: tetramethylurea, C5H12N2O, InChI=1S/C5H12N2O/c1-6(2)5(8)7(3)4/h1-4H3, purity 99%
Compound 5: water, H2O, InChI=1S/H2O/h1H2

System: 1,2-ethanediol; phases: Liquid
Property: Speed of sound, m/s (Liquid); method: Sing-around technique in a fixed-path interferometer
Pressure, kPa	Temperature, K	Speed of sound, m/s	uncertainty
101	298.15	1656.1	1.7

System: 1,2-ethanediol; phases: Liquid
Property: Mass density, kg/m3 (Liquid); method: VIBTUB:UFactor:6
Temperature, K	Pressure, kPa	Mass density, kg/m3	uncertainty
298.15	101	1109.41	0.69

System: 1,2-propanediol; phases: Liquid
Property: Speed of sound, m/s (Liquid); method: Sing-around technique in a fixed-path interferometer
Pressure, kPa	Temperature, K	Speed of sound, m/s	uncertainty
101	298.15	1510.6	1.4

System: 1,2-propanediol; phases: Liquid
Property: Mass density, kg/m3 (Liquid); method: VIBTUB::UFactor:4
Temperature, K	Pressure, kPa	Mass density, kg/m3	uncertainty
298.15	101	1032.87	0.23

System: 4-methyl-1,3-dioxolan-2-one; phases: Liquid
Property: Speed of sound, m/s (Liquid); method: Sing-around technique in a fixed-path interferometer
Pressure, kPa	Temperature, K	Speed of sound, m/s	uncertainty
101	298.15	1443.4	1.6

System: 4-methyl-1,3-dioxolan-2-one; phases: Liquid
Property: Mass density, kg/m3 (Liquid); method: VIBTUB::UFactor:6
Temperature, K	Pressure, kPa	Mass density, kg/m3	uncertainty
298.15	101	1198.64	0.94

System: tetramethylurea; phases: Liquid
Property: Speed of sound, m/s (Liquid); method: Sing-around technique in a fixed-path interferometer
Pressure, kPa	Temperature, K	Speed of sound, m/s	uncertainty
101	298.15	1397.6	1.6

System: tetramethylurea; phases: Liquid
Property: Mass density, kg/m3 (Liquid); method: VIBTUB::UFactor:6
Temperature, K	Pressure, kPa	Mass density, kg/m3	uncertainty
298.15	101	963.01	0.46

System: 1,2-ethanediol + water; phases: Liquid
Fixed: Pressure, kPa = 101
Fixed: Temperature, K = 298.15
Property: Speed of sound, m/s (Liquid); method: Sing-around technique in a fixed-path interferometer
Molality, mol/kg of water	Speed of sound, m/s	uncertainty
0	1656.1	1.7
0.1028	1656.9	1.7
0.2175	1657.7	1.7
0.31551	1658.6	1.7
0.37585	1658.7	1.7
0.7031	1660.5	1.7
0.80802	1661.4	1.7
0.9282	1661.8	1.7
1.03496	1662.3	1.7
1.13154	1662.7	1.7

System: 1,2-ethanediol + water; phases: Liquid
Fixed: Temperature, K = 298.15
Fixed: Pressure, kPa = 101
Property: Mass density, kg/m3 (Liquid); method: VIBTUB:UFactor:6
Molality, mol/kg of water	Mass density, kg/m3	uncertainty
0	1109.41	0.69
0.1028	1109.35	0.69
0.2175	1109.25	0.69
0.31551	1109.22	0.69
0.37585	1109.06	0.69
0.7031	1108.82	0.68
0.80802	1108.62	0.68
0.9282	1108.2	0.68
1.03496	1108.14	0.68
1.13154	1108.1	0.68

System: 1,2-propanediol + water; phases: Liquid
Fixed: Pressure, kPa = 101
Fixed: Temperature, K = 298.15
Property: Speed of sound, m/s (Liquid); method: Sing-around technique in a fixed-path interferometer
Molality, mol/kg of water	Speed of sound, m/s	uncertainty
0	1510.6	1.4
0.2187	1512.9	1.4
0.55915	1516.4	1.4
0.6141	1516.5	1.4
0.73407	1517.5	1.4
0.84214	1519.4	1.4
0.92152	1519.9	1.4
1.0234	1521.5	1.4

System: 1,2-propanediol + water; phases: Liquid
Fixed: Temperature, K = 298.15
Fixed: Pressure, kPa = 101
Property: Mass density, kg/m3 (Liquid); method: VIBTUB:UFactor:4
Molality, mol/kg of water	Mass density, kg/m3	uncertainty
0	1032.87	0.23
0.2187	1033.12	0.23
0.55915	1033.53	0.24
0.6141	1033.58	0.24
0.73407	1033.67	0.24
0.84214	1033.73	0.24
0.92152	1033.86	0.24
1.0234	1033.94	0.24

System: 4-methyl-1,3-dioxolan-2-one + water; phases: Liquid
Fixed: Pressure, kPa = 101
Fixed: Temperature, K = 298.15
Property: Speed of sound, m/s (Liquid); method: Sing-around technique in a fixed-path interferometer
Molality, mol/kg of water	Speed of sound, m/s	uncertainty
0	1443.4	1.6
0.25382	1444.9	1.6
0.2969	1445.2	1.6
0.34376	1445.4	1.6
0.38948	1445.6	1.6
0.48787	1446	1.6
0.5765	1446.6	1.6
0.67428	1447.2	1.6
0.7678	1447.6	1.6

System: 4-methyl-1,3-dioxolan-2-one + water; phases: Liquid
Fixed: Temperature, K = 298.15
Fixed: Pressure, kPa = 101
Property: Mass density, kg/m3 (Liquid); method: VIBTUB:UFactor:6
Molality, mol/kg of water	Mass density, kg/m3	uncertainty
0	1198.64	0.94
0.25382	1197.46	0.93
0.2969	1197.24	0.93
0.34376	1196.97	0.93
0.38948	1196.74	0.93
0.48787	1196.22	0.93
0.5765	1195.77	0.93
0.67428	1195.27	0.93
0.7678	1194.8	0.92

System: tetramethylurea + water; phases: Liquid
Fixed: Pressure, kPa = 101
Fixed: Temperature, K = 298.15
Property: Speed of sound, m/s (Liquid); method: Sing-around technique in a fixed-path interferometer
Molality, mol/kg of water	Speed of sound, m/s	uncertainty
0	1397.6	1.6
0.16653	1401.1	1.6
0.37937	1406.5	1.6
0.45846	1408.5	1.6
0.53314	1410.4	1.6
0.6227	1412.6	1.6
0.69627	1414.5	1.6
0.80125	1417.2	1.6
0.88392	1419.3	1.6

System: tetramethylurea + water; phases: Liquid
Fixed: Temperature, K = 298.15
Fixed: Pressure, kPa = 101
Property: Mass density, kg/m3 (Liquid); method: VIBTUB:UFactor:6
Molality, mol/kg of water	Mass density, kg/m3	uncertainty
0	963.01	0.46
0.16653	963.76	0.46
0.37937	964.71	0.45
0.45846	965.06	0.45
0.53314	965.39	0.45
0.6227	965.79	0.45
0.69627	966.12	0.45
0.80125	966.58	0.45
0.88392	966.95	0.45
