Measured thermophysical data. Compressibility studies of aqueous and CCl4 solutions of 18-crown-6 at T = 298.15 K
Source: J. Chem. Thermodyn., 2006, 10.1016/j.jct.2005.04.005
Compound 1: 1,4,7,10,13,16-hexaoxacyclooctadecane, C12H24O6, InChI=1S/C12H24O6/c1-2-14-5-6-16-9-10-18-12-11-17-8-7-15-4-3-13-1/h1-12H2, purity 99%
Compound 2: water, H2O, InChI=1S/H2O/h1H2
Compound 3: tetrachloromethane, CCl4, InChI=1S/CCl4/c2-1(3,4)5

System: tetrachloromethane; phases: Liquid
Property: Speed of sound, m/s (Liquid); method: FPINT:UFactor:2
Pressure, kPa	Temperature, K	Speed of sound, m/s	uncertainty
101	298.15	921.5	1.7

System: tetrachloromethane; phases: Liquid
Property: Mass density, kg/m3 (Liquid); method: VIBTUB:UFactor:6
Temperature, K	Pressure, kPa	Mass density, kg/m3	uncertainty
298.15	101	1584.347	2.172

System: water + 1,4,7,10,13,16-hexaoxacyclooctadecane; phases: Liquid
Fixed: Pressure, kPa = 101
Fixed: Temperature, K = 298.15
Property: Speed of sound, m/s (Liquid); method: FPINT:UFactor:2
Molality, mol/kg of 1,4,7,10,13,16-hexaoxacyclooctadecane	Speed of sound, m/s	uncertainty
0	1497.2	2.2
0.0958	1512.5	2.2
0.1953	1527.2	2.2
0.4197	1557.3	2.3
0.5091	1568.3	2.3
0.6046	1579.6	2.3
0.7192	1592.7	2.3
0.8244	1604.2	2.3
0.9881	1621.4	2.3
1.1303	1635.5	2.3
1.2963	1651.2	2.3
1.4839	1667.6	2.4
1.6435	1680.3	2.4
2.1889	1714.6	2.4
2.8027	1742.3	2.4

System: water + 1,4,7,10,13,16-hexaoxacyclooctadecane; phases: Liquid
Fixed: Pressure, kPa = 101
Property: Mass density, kg/m3 (Liquid); method: VIBTUB:UFactor:8
Molality, mol/kg of 1,4,7,10,13,16-hexaoxacyclooctadecane	Temperature, K	Mass density, kg/m3	uncertainty
0	293.15	998.206	0.603
0	295.15	997.773	0.603
0	297.15	997.299	0.604
0	298.15	997.047	0.605
0	299.15	996.786	0.605
0	301.15	996.236	0.606
0	303.15	995.65	0.607
0	308.15	994.035	0.61
0	313.15	992.219	0.614
0.0001	298.15	997.047	0.605
0.09578	293.15	1002.262	0.605
0.09578	295.15	1001.8	0.604
0.09578	297.15	1001.29	0.603
0.09578	298.15	1000.981	0.602
0.09578	299.15	1000.711	0.601
0.09578	301.15	1000.116	0.6
0.09578	303.15	999.519	0.6
0.09578	308.15	997.836	0.603
0.09578	313.15	995.959	0.607
0.0958	298.15	1000.981	0.602
0.19526	293.15	1006.344	0.616
0.19526	295.15	1005.851	0.615
0.19526	297.15	1005.303	0.613
0.19526	298.15	1004.945	0.612
0.19526	299.15	1004.663	0.611
0.19526	301.15	1004.023	0.61
0.19526	303.15	1003.402	0.608
0.19526	308.15	1001.647	0.604
0.19526	313.15	999.701	0.6
0.1953	298.15	1004.945	0.612
0.41969	293.15	1015.078	0.64
0.41969	295.15	1014.512	0.638
0.41969	297.15	1013.883	0.637
0.41969	298.15	1013.44	0.635
0.41969	299.15	1013.125	0.635
0.41969	301.15	1012.392	0.632
0.41969	303.15	1011.69	0.631
0.41969	308.15	1009.763	0.625
0.41969	313.15	1007.654	0.62
0.4197	298.15	1013.44	0.635
0.5091	293.15	1018.382	0.649
0.5091	295.15	1017.786	0.648
0.5091	297.15	1017.124	0.646
0.5091	298.15	1016.658	0.644
0.5091	299.15	1016.327	0.643
0.5091	301.15	1015.559	0.641
0.5091	303.15	1014.82	0.639
0.5091	308.15	1012.823	0.634
0.5091	313.15	1010.648	0.628
0.5091	298.15	1016.658	0.644
0.60459	293.15	1021.803	0.659
0.60459	295.15	1021.174	0.657
0.60459	297.15	1020.48	0.655
0.60459	298.15	1019.992	0.654
0.60459	299.15	1019.644	0.653
0.60459	301.15	1018.841	0.65
0.60459	303.15	1018.062	0.648
0.60459	308.15	1015.99	0.642
0.60459	313.15	1013.744	0.636
0.6046	298.15	1019.992	0.654
0.7192	298.15	1023.859	0.665
0.71921	293.15	1025.769	0.671
0.71921	295.15	1025.1	0.669
0.71921	297.15	1024.367	0.666
0.71921	298.15	1023.859	0.665
0.71921	299.15	1023.49	0.664
0.71921	301.15	1022.646	0.661
0.71921	303.15	1021.819	0.659
0.71921	308.15	1019.658	0.653
0.71921	313.15	1017.328	0.646
0.82435	293.15	1029.275	0.681
0.82435	295.15	1028.568	0.679
0.82435	297.15	1027.801	0.677
0.82435	298.15	1027.28	0.675
0.82435	299.15	1026.89	0.674
0.82435	301.15	1026.011	0.671
0.82435	303.15	1025.143	0.669
0.82435	308.15	1022.899	0.662
0.82435	313.15	1020.494	0.655
0.8244	298.15	1027.28	0.675
0.9881	298.15	1032.373	0.69
0.98814	293.15	1034.495	0.697
0.98814	295.15	1033.729	0.694
0.98814	297.15	1032.911	0.692
0.98814	298.15	1032.373	0.69
0.98814	299.15	1031.954	0.689
0.98814	301.15	1031.022	0.686
0.98814	303.15	1030.095	0.683
0.98814	308.15	1027.726	0.676
0.98814	313.15	1025.208	0.669
1.13029	293.15	1038.795	0.71
1.13029	295.15	1037.978	0.707
1.13029	297.15	1037.118	0.705
1.13029	298.15	1036.57	0.703
1.13029	299.15	1036.126	0.702
1.13029	301.15	1035.151	0.699
1.13029	303.15	1034.18	0.696
1.13029	308.15	1031.705	0.688
1.13029	313.15	1029.094	0.68
1.1303	298.15	1036.57	0.703
1.2963	298.15	1041.22	0.717
1.29631	293.15	1043.561	0.724
1.29631	295.15	1042.683	0.722
1.29631	297.15	1041.777	0.719
1.29631	298.15	1041.22	0.717
1.29631	299.15	1040.749	0.716
1.29631	301.15	1039.725	0.713
1.29631	303.15	1038.712	0.71
1.29631	308.15	1036.116	0.702
1.29631	313.15	1033.401	0.693
1.4839	298.15	1046.161	0.733
1.48391	293.15	1048.629	0.74
1.48391	295.15	1047.684	0.738
1.48391	297.15	1046.729	0.735
1.48391	298.15	1046.161	0.733
1.48391	299.15	1045.664	0.731
1.48391	301.15	1044.588	0.728
1.48391	303.15	1043.535	0.724
1.48391	308.15	1040.808	0.716
1.48391	313.15	1037.98	0.707
1.6435	293.15	1052.689	0.753
1.6435	295.15	1051.69	0.75
1.6435	297.15	1050.694	0.747
1.6435	298.15	1050.117	0.745
1.6435	299.15	1049.6	0.744
1.6435	301.15	1048.481	0.74
1.6435	303.15	1047.399	0.737
1.6435	308.15	1044.564	0.728
1.6435	313.15	1041.644	0.719
1.6435	298.15	1050.117	0.745
2.18889	293.15	1064.987	0.793
2.18889	295.15	1063.833	0.79
2.18889	297.15	1062.7	0.786
2.18889	298.15	1062.064	0.784
2.18889	299.15	1061.5	0.782
2.18889	301.15	1060.244	0.778
2.18889	303.15	1059.054	0.774
2.18889	308.15	1055.877	0.764
2.18889	313.15	1052.647	0.754
2.1889	298.15	1062.064	0.784
2.8027	298.15	1073.023	0.82
2.80273	293.15	1076.319	0.831
2.80273	295.15	1075.106	0.827
2.80273	297.15	1073.772	0.823
2.80273	298.15	1073.023	0.82
2.80273	299.15	1072.412	0.818
2.80273	301.15	1071.014	0.814
2.80273	303.15	1069.621	0.809
2.80273	308.15	1066.095	0.797
2.80273	313.15	1062.502	0.786

System: tetrachloromethane + 1,4,7,10,13,16-hexaoxacyclooctadecane; phases: Liquid
Fixed: Pressure, kPa = 101
Fixed: Temperature, K = 298.15
Property: Speed of sound, m/s (Liquid); method: FPINT:UFactor:2
Molality, mol/kg of 1,4,7,10,13,16-hexaoxacyclooctadecane	Speed of sound, m/s	uncertainty
0	921.5	1.7
0.0896	932.5	1.7
0.1666	941.9	1.7
0.3643	965.4	1.8
0.5719	989.2	1.8
0.8185	1015.6	1.8
1.0129	1034.2	1.8

System: tetrachloromethane + 1,4,7,10,13,16-hexaoxacyclooctadecane; phases: Liquid
Fixed: Temperature, K = 298.15
Fixed: Pressure, kPa = 101
Property: Mass density, kg/m3 (Liquid); method: VIBTUB:UFactor:6
Molality, mol/kg of 1,4,7,10,13,16-hexaoxacyclooctadecane	Mass density, kg/m3	uncertainty
0	1584.347	2.172
0.0896	1569.553	2.127
0.1666	1557.544	2.09
0.3643	1529.409	2.006
0.5719	1503.475	1.927
0.8185	1476.368	1.846
1.0129	1457.017	1.788
