Measured thermophysical data. Excess molar enthalpies for [emim][BF4] + pyrrolidin-2-one or 1-methyl pyrrolidin-2-one + pyridine or water mixtures
Source: J. Chem. Thermodyn., 2014, 10.1016/j.jct.2013.09.015
Compound 1: 1-ethyl-3-methylimidazolium tetrafluoroborate, C6H11BF4N2, InChI=1S/C6H11N2.BF4/c1-3-8-5-4-7(2)6-8;2-1(3,4)5/h4-6H,3H2,1-2H3;/q+1;-1, purity 98%
Compound 2: 2-pyrrolidinone, C4H7NO, InChI=1S/C4H7NO/c6-4-2-1-3-5-4/h1-3H2,(H,5,6), purity 99%
Compound 3: N-methylpyrrolidone, C5H9NO, InChI=1S/C5H9NO/c1-6-4-2-3-5(6)7/h2-4H2,1H3, purity 99%
Compound 4: pyridine, C5H5N, InChI=1S/C5H5N/c1-2-4-6-5-3-1/h1-5H, purity 99%
Compound 5: water, H2O, InChI=1S/H2O/h1H2

System: 1-ethyl-3-methylimidazolium tetrafluoroborate; phases: Liquid
Property: Mass density, kg/m3 (Liquid); method: Vibrating tube method
Temperature, K	Pressure, kPa	Mass density, kg/m3	uncertainty
298.15	101.325	1279.91	1.46

System: 1-ethyl-3-methylimidazolium tetrafluoroborate; phases: Liquid
Property: Speed of sound, m/s (Liquid); method: Sing-around technique in a fixed-path interferometer
Temperature, K	Pressure, kPa	Speed of sound, m/s	uncertainty
298.15	101.325	1619.4	2.4

System: 2-pyrrolidinone; phases: Liquid
Property: Mass density, kg/m3 (Liquid); method: Vibrating tube method
Temperature, K	Pressure, kPa	Mass density, kg/m3	uncertainty
298.15	101.325	1107.15	0.23

System: 2-pyrrolidinone; phases: Liquid
Property: Speed of sound, m/s (Liquid); method: Sing-around technique in a fixed-path interferometer
Temperature, K	Pressure, kPa	Speed of sound, m/s	uncertainty
298.15	101.325	1633.92	1.47

System: N-methylpyrrolidone; phases: Liquid
Property: Mass density, kg/m3 (Liquid); method: Vibrating tube method
Temperature, K	Pressure, kPa	Mass density, kg/m3	uncertainty
298.15	101.325	1028.23	0.25

System: N-methylpyrrolidone; phases: Liquid
Property: Speed of sound, m/s (Liquid); method: Sing-around technique in a fixed-path interferometer
Temperature, K	Pressure, kPa	Speed of sound, m/s	uncertainty
298.15	101.325	1546.02	1.58

System: pyridine; phases: Liquid
Property: Mass density, kg/m3 (Liquid); method: Vibrating tube method
Temperature, K	Pressure, kPa	Mass density, kg/m3	uncertainty
298.15	101.325	978.252	0.204

System: pyridine; phases: Liquid
Property: Speed of sound, m/s (Liquid); method: Sing-around technique in a fixed-path interferometer
Temperature, K	Pressure, kPa	Speed of sound, m/s	uncertainty
298.15	101.325	1417.81	1.49

System: water; phases: Liquid
Property: Mass density, kg/m3 (Liquid); method: Vibrating tube method
Temperature, K	Pressure, kPa	Mass density, kg/m3	uncertainty
298.15	101.325	997.04	0.11

System: water; phases: Liquid
Property: Speed of sound, m/s (Liquid); method: Sing-around technique in a fixed-path interferometer
Temperature, K	Pressure, kPa	Speed of sound, m/s	uncertainty
298.15	101.325	1496.83	1.22

System: pyridine + 2-pyrrolidinone; phases: Liquid
Fixed: Pressure, kPa = 101
Fixed: Temperature, K = 298.15
Property: Excess molar enthalpy (molar enthalpy of mixing), kJ/mol (Liquid); method: Calvet calorimetry
Mole fraction of 2-pyrrolidinone	Excess molar enthalpy (molar enthalpy of mixing), kJ/mol	uncertainty
0.1213	0.0907	0.0454
0.1715	0.1213	0.0607
0.2336	0.153	0.0765
0.2615	0.165	0.0825
0.3255	0.1867	0.0934
0.3701	0.1971	0.0986
0.4291	0.2048	0.1024
0.4711	0.2062	0.1031
0.5256	0.2031	0.1016
0.5713	0.1963	0.0982
0.6364	0.1804	0.0902
0.6716	0.169	0.0845
0.7315	0.1456	0.0728
0.7619	0.1319	0.066
0.8311	0.0972	0.0486
0.8751	0.073	0.0365
0.9204	0.047	0.0235
0.9344	0.0388	0.0194

System: pyridine + N-methylpyrrolidone; phases: Liquid
Fixed: Pressure, kPa = 101
Fixed: Temperature, K = 298.15
Property: Excess molar enthalpy (molar enthalpy of mixing), kJ/mol (Liquid); method: Calvet calorimetry
Mole fraction of N-methylpyrrolidone	Excess molar enthalpy (molar enthalpy of mixing), kJ/mol	uncertainty
0.0911	-0.1518	0.0759
0.1426	-0.2175	0.1088
0.1985	-0.2799	0.14
0.2312	-0.3157	0.1579
0.2854	-0.36	0.18
0.312	-0.3777	0.1889
0.3789	-0.406	0.203
0.443	-0.4303	0.2152
0.4995	-0.4356	0.2178
0.5478	-0.427	0.2135
0.5851	-0.4197	0.2099
0.6359	-0.4013	0.2007
0.6982	-0.3745	0.1873
0.725	-0.3563	0.1782
0.7732	-0.3106	0.1553
0.8489	-0.2308	0.1154
0.8923	-0.1785	0.0893
0.9156	-0.1445	0.0723

System: water + 1-ethyl-3-methylimidazolium tetrafluoroborate; phases: Liquid
Fixed: Pressure, kPa = 101
Fixed: Temperature, K = 298.15
Property: Excess molar enthalpy (molar enthalpy of mixing), kJ/mol (Liquid); method: Calvet calorimetry
Mole fraction of 1-ethyl-3-methylimidazolium tetrafluoroborate	Excess molar enthalpy (molar enthalpy of mixing), kJ/mol	uncertainty
0.1136	0.1564	0.0782
0.1678	0.2245	0.1123
0.2249	0.29	0.145
0.2734	0.3397	0.1699
0.331	0.3906	0.1953
0.3615	0.4136	0.2068
0.4325	0.4553	0.2277
0.4709	0.4706	0.2353
0.5314	0.4831	0.2416
0.5722	0.4831	0.2416
0.6291	0.4712	0.2356
0.6685	0.4544	0.2272
0.7311	0.4125	0.2063
0.771	0.3757	0.1879
0.8324	0.303	0.1515
0.8694	0.2495	0.1248
0.9103	0.1817	0.0909
0.9311	0.1436	0.0718

System: 2-pyrrolidinone + water; phases: Liquid
Fixed: Pressure, kPa = 101
Fixed: Temperature, K = 298.15
Property: Excess molar enthalpy (molar enthalpy of mixing), kJ/mol (Liquid); method: Calvet calorimetry
Mole fraction of 2-pyrrolidinone	Excess molar enthalpy (molar enthalpy of mixing), kJ/mol	uncertainty
0.1013	-0.2465	0.1233
0.136	-0.3246	0.1623
0.1745	-0.409	0.2045
0.2319	-0.5238	0.2619
0.2775	-0.6056	0.3028
0.3351	-0.6951	0.3476
0.3813	-0.7545	0.3773
0.4343	-0.8076	0.4039
0.4783	-0.8384	0.4193
0.5401	-0.8597	0.4299
0.5713	-0.86	0.4301
0.6264	-0.8422	0.4212
0.6771	-0.8042	0.4022
0.7314	-0.7392	0.3696
0.7693	-0.678	0.339
0.8326	-0.5457	0.2729
0.8951	-0.3763	0.1882
0.9204	-0.2963	0.1482

System: pyridine + 2-pyrrolidinone + 1-ethyl-3-methylimidazolium tetrafluoroborate; phases: Liquid
Fixed: Pressure, kPa = 101
Fixed: Temperature, K = 298.15
Property: Excess molar enthalpy (molar enthalpy of mixing), kJ/mol (Liquid); method: Calvet calorimetry
Mole fraction of 1-ethyl-3-methylimidazolium tetrafluoroborate	Mole fraction of 2-pyrrolidinone	Excess molar enthalpy (molar enthalpy of mixing), kJ/mol	uncertainty
0.1811	0.7347	0.1757	2
0.1922	0.7097	0.2323	2
0.2019	0.6891	0.2753	2
0.2205	0.6508	0.3388	2
0.2401	0.6144	0.3786	2
0.2596	0.5812	0.3928	2
0.2831	0.5449	0.3829	2
0.3002	0.5221	0.3699	2
0.3251	0.4905	0.3309	2
0.3491	0.4622	0.2793	2
0.3638	0.4469	0.2523	2
0.3867	0.4232	0.1979	2
0.4032	0.4071	0.1586	2
0.4133	0.3978	0.1367	2
0.4339	0.3788	0.0863	2
0.4468	0.3675	0.0572	2
0.4574	0.3584	0.0338	2
0.4714	0.3465	0.0024	2
0.4858	0.3345	-0.0288	2
0.5039	0.3194	-0.0689	2
0.5291	0.2992	-0.1176	2
0.5463	0.2855	-0.1489	2
0.5585	0.2761	-0.1678	2
0.5776	0.2618	-0.1977	2
0.5833	0.2562	-0.2074	2
0.5978	0.2444	-0.228	2
0.6193	0.2264	-0.2546	2
0.6363	0.2098	-0.2745	2
0.6486	0.1941	-0.2849	2
0.6529	0.1886	-0.2844	2
0.6602	0.1815	-0.2807	2
0.6761	0.1711	-0.2735	2

System: 2-pyrrolidinone + water + 1-ethyl-3-methylimidazolium tetrafluoroborate; phases: Liquid
Fixed: Pressure, kPa = 101
Fixed: Temperature, K = 298.15
Property: Excess molar enthalpy (molar enthalpy of mixing), kJ/mol (Liquid); method: Calvet calorimetry
Mole fraction of 1-ethyl-3-methylimidazolium tetrafluoroborate	Mole fraction of 2-pyrrolidinone	Excess molar enthalpy (molar enthalpy of mixing), kJ/mol	uncertainty
0.1811	0.7348	0.0831	2
0.1963	0.7081	0.1576	2
0.2075	0.6871	0.2176	2
0.2267	0.6532	0.3175	2
0.2475	0.6164	0.4193	2
0.2661	0.5853	0.4973	2
0.2893	0.5485	0.574	2
0.3053	0.5248	0.6133	2
0.3293	0.4919	0.6536	2
0.3489	0.4666	0.6709	2
0.3652	0.4475	0.6787	2
0.3889	0.4214	0.6788	2
0.4031	0.4069	0.6747	2
0.4323	0.3783	0.6549	2
0.4542	0.3581	0.633	2
0.4681	0.3458	0.6168	2
0.4825	0.3338	0.6001	2
0.5011	0.3185	0.5754	2
0.5271	0.2981	0.5388	2
0.5451	0.2849	0.5139	2
0.5579	0.2754	0.4945	2
0.5785	0.2604	0.4624	2
0.5984	0.2448	0.4262	2
0.6272	0.2263	0.386	2
0.6367	0.2094	0.3419	2
0.6484	0.1946	0.3085	2
0.6529	0.1882	0.295	2
0.6657	0.1802	0.2818	2
0.6892	0.1705	0.2683	2
0.7184	0.1607	0.2452	2
0.7365	0.1494	0.2236	2
0.7655	0.1374	0.1921	2

System: pyridine + N-methylpyrrolidone + 1-ethyl-3-methylimidazolium tetrafluoroborate; phases: Liquid
Fixed: Pressure, kPa = 101
Fixed: Temperature, K = 298.15
Property: Excess molar enthalpy (molar enthalpy of mixing), kJ/mol (Liquid); method: Calvet calorimetry
Mole fraction of 1-ethyl-3-methylimidazolium tetrafluoroborate	Mole fraction of N-methylpyrrolidone	Excess molar enthalpy (molar enthalpy of mixing), kJ/mol	uncertainty
0.1761	0.7366	0.0029	2
0.1943	0.7091	0.0393	2
0.2075	0.6891	0.0681	2
0.2294	0.6553	0.1206	2
0.2564	0.6156	0.1822	2
0.2752	0.5883	0.2242	2
0.3014	0.5485	0.2863	2
0.3186	0.5264	0.3125	2
0.3355	0.5024	0.343	2
0.3456	0.4876	0.3612	2
0.3625	0.4676	0.3758	2
0.3891	0.4218	0.4288	2
0.3947	0.4159	0.4294	2
0.4002	0.4078	0.4348	2
0.4144	0.3988	0.4212	2
0.4372	0.3761	0.4142	2
0.4522	0.3662	0.3968	2
0.4779	0.3488	0.3646	2
0.4988	0.3334	0.3387	2
0.5234	0.3063	0.3236	2
0.5492	0.2816	0.296	2
0.5641	0.2672	0.2786	2
0.5765	0.2569	0.261	2
0.5868	0.2483	0.2461	2
0.5994	0.2383	0.2269	2
0.6284	0.2155	0.1817	2
0.6465	0.2022	0.1526	2
0.6663	0.1883	0.1206	2
0.6805	0.1781	0.0983	2
0.6958	0.1679	0.0745	2
0.7181	0.1533	0.0411	2
0.7321	0.1445	0.0213	2

System: N-methylpyrrolidone + water + 1-ethyl-3-methylimidazolium tetrafluoroborate; phases: Liquid
Fixed: Pressure, kPa = 101
Fixed: Temperature, K = 298.15
Property: Excess molar enthalpy (molar enthalpy of mixing), kJ/mol (Liquid); method: Calvet calorimetry
Mole fraction of 1-ethyl-3-methylimidazolium tetrafluoroborate	Mole fraction of N-methylpyrrolidone	Excess molar enthalpy (molar enthalpy of mixing), kJ/mol	uncertainty
0.1962	0.7025	0.0041	2
0.2051	0.6881	0.0264	2
0.2207	0.6631	0.0675	2
0.2411	0.6318	0.1228	2
0.2585	0.6048	0.1716	2
0.2691	0.5866	0.2033	2
0.2825	0.5681	0.238	2
0.2992	0.5435	0.2818	2
0.3205	0.5111	0.3357	2
0.3403	0.4862	0.377	2
0.3653	0.4532	0.4247	2
0.3891	0.4216	0.4634	2
0.4033	0.4065	0.4805	2
0.4108	0.3981	0.4889	2
0.4282	0.3783	0.5062	2
0.4404	0.3664	0.5148	2
0.4572	0.3453	0.5274	2
0.4661	0.3361	0.5315	2
0.4811	0.3214	0.5362	2
0.5059	0.3112	0.5264	2
0.5294	0.2986	0.5112	2
0.5469	0.2847	0.5023	2
0.5581	0.2748	0.4969	2
0.5774	0.2611	0.4806	2
0.5829	0.2557	0.478	2
0.5972	0.2469	0.4616	2
0.6182	0.2214	0.4555	2
0.6346	0.2084	0.4221	2
0.6492	0.1951	0.4306	2
0.6531	0.1895	0.4308	2
0.6722	0.1801	0.4011	2
0.7004	0.1587	0.3693	2
