Measured thermophysical data. Thermochemical and structural studies of gallic and ellagic acids
Source: J. Chem. Thermodyn., 2019, 10.1016/j.jct.2018.09.027
Compound 1: carbon dioxide, CO2, InChI=1S/CO2/c2-1-3
Compound 2: water, H2O, InChI=1S/H2O/h1H2
Compound 3: oxygen, O2, InChI=1S/O2/c1-2
Compound 4: 3,4,5-trihydroxybenzoic acid, C7H6O5, InChI=1S/C7H6O5/c8-4-1-3(7(11)12)2-5(9)6(4)10/h1-2,8-10H,(H,11,12), purity 98.5%
Compound 5: 2,3,7,8-tetrahydroxychromeno[5,4,3-cde]chromene-5,10-dione, C14H6O8, InChI=1S/C14H6O8/c15-5-1-3-7-8-4(14(20)22-11(7)9(5)17)2-6(16)10(18)12(8)21-13(3)19/h1-2,15-18H, purity 95%

System: 3,4,5-trihydroxybenzoic acid; phases: Crystal, Liquid, Air at 1 atmosphere
Property: Normal melting temperature, K (Crystal); method: DTA
Normal melting temperature, K	uncertainty
536.6	0.7

System: 3,4,5-trihydroxybenzoic acid; phases: Crystal
Fixed: Pressure, kPa = 100
Property: Molar heat capacity at constant pressure, J/K/mol (Crystal); method: DSC
Temperature, K	Molar heat capacity at constant pressure, J/K/mol	uncertainty
263.15	178.8	8.29
264.15	179.31	8.31
265.15	179.82	8.34
266.15	180.5	8.37
267.15	181.18	8.4
268.15	181.86	8.43
269.15	182.54	8.46
270.15	183.05	8.49
271.15	183.73	8.52
272.15	184.41	8.55
273.15	184.92	8.58
274.15	185.77	8.61
275.15	185.6	8.61
276.15	186.96	8.67
277.15	187.3	8.69
278.15	188.15	8.72
279.15	188.49	8.74
280.15	189	8.76
281.15	189.34	8.78
282.15	189.85	8.8
283.15	190.36	8.83
284.15	191.21	8.87
285.15	191.55	8.88
286.15	192.24	8.92
287.15	193.09	8.95
288.15	193.6	8.98
289.15	194.28	9.01
290.15	194.79	9.03
291.15	195.64	9.07
292.15	196.32	9.1
293.15	197	9.14
294.15	197.51	9.16
295.15	198.19	9.19
296.15	198.7	9.21
297.15	199.38	9.25
298.15	199.55	9.25
299.15	200.06	9.28
300.15	200.57	9.3
301.15	201.25	9.33
302.15	201.76	9.36
303.15	202.44	9.39
304.15	203.12	9.42
305.15	203.8	9.45
306.15	204.31	9.47
307.15	204.65	9.49
308.15	205.33	9.52
309.15	206.18	9.56
310.15	206.7	9.58
311.15	207.04	9.6
312.15	207.38	9.62
313.15	208.23	9.66
314.15	208.91	9.69
315.15	209.08	9.7
316.15	209.76	9.73
317.15	210.61	9.77
318.15	211.12	9.79
319.15	211.46	9.81
320.15	211.8	9.82
321.15	212.14	9.84
322.15	212.99	9.88
323.15	211.97	9.83
324.15	212.22	9.84
325.15	212.9	9.87
326.15	213.59	9.9
327.15	214.27	9.94
328.15	214.61	9.95
329.15	215.09	9.97
330.15	215.6	10
331.15	216.11	10.02
332.15	216.39	10.03
333.15	216.9	10.06
334.15	217.47	10.08
335.15	217.92	10.1
336.15	217.16	10.07
337.15	217.71	10.1
338.15	218.35	10.13
339.15	218.99	10.15
340.15	219.58	10.18
341.15	220.09	10.21
342.15	220.69	10.23
343.15	221.58	10.27
344.15	220.47	10.22
345.15	220.64	10.23
346.15	221.55	10.27
347.15	222.29	10.31
348.15	222.74	10.33
349.15	223.31	10.35
350.15	223.76	10.38
351.15	224.44	10.41
352.15	225.58	10.46
353.15	224.69	10.42
354.15	225.11	10.44
355.15	225.75	10.47
356.15	226.47	10.5
357.15	226.9	10.52
358.15	227.28	10.54
359.15	227.92	10.57
360.15	228.68	10.6
361.15	229.15	10.63
362.15	229.7	10.65
363.15	229.83	10.66
364.15	230.21	10.67
365.15	230.81	10.7
366.15	231.19	10.72
367.15	233.29	10.82
368.15	233.91	10.85
369.15	234.54	10.88
370.15	234.94	10.89
371.15	235.6	10.93
372.15	236.24	10.95
373.15	236.91	10.99
374.15	237.55	11.02
375.15	238.16	11.04
376.15	238.86	11.08
377.15	239.45	11.1
378.15	240.16	11.14
379.15	240.81	11.17
380.15	241.44	11.2
381.15	242.11	11.23
382.15	242.78	11.26
383.15	243.42	11.29
384.15	244.06	11.32
385.15	244.7	11.35
386.15	245.37	11.38
387.15	246.02	11.41
388.15	246.65	11.44
389.15	247.32	11.47
390.15	248.01	11.5
391.15	248.58	11.53
392.15	249.14	11.55
393.15	249.71	11.58
394.15	250.27	11.61
395.15	250.84	11.63
396.15	251.4	11.66
397.15	251.97	11.68
398.15	252.44	11.71
399.15	253.11	11.74
400.15	253.68	11.76
401.15	254.24	11.79
402.15	254.81	11.82
403.15	255.1	11.83
404.15	255.93	11.87
405.15	256.5	11.89
406.15	257.08	11.92
407.15	257.65	11.95
408.15	258.22	11.97
409.15	258.78	12
410.15	259.34	12.03
411.15	259.92	12.05
412.15	260.74	12.09
413.15	261.25	12.11
414.15	261.59	12.13
415.15	261.81	12.14
416.15	262.27	12.16
417.15	262.78	12.19
418.15	263.53	12.22
419.15	264.31	12.26
420.15	265.03	12.29
421.15	266.54	12.36
422.15	266.57	12.36
423.15	267.3	12.4
424.15	268.08	12.43
425.15	268.84	12.47
426.15	269.59	12.5
427.15	270.33	12.54
428.15	271.11	12.57
429.15	271.85	12.61
430.15	272.62	12.64
431.15	273.38	12.68
432.15	274.32	12.72
433.15	274.91	12.75
434.15	275.59	12.78
435.15	275.85	12.79
436.15	276.19	12.81
437.15	276.7	12.83
438.15	277.38	12.86
439.15	277.72	12.88
440.15	278.23	12.9
441.15	278.83	12.93
442.15	279.51	12.96
443.15	280.61	13.01
444.15	280.87	13.02
445.15	281.12	13.04
446.15	281.63	13.06
447.15	282.23	13.09
448.15	283.16	13.13
449.15	283.84	13.16
450.15	284.18	13.18
451.15	285.04	13.22
452.15	286.14	13.27
453.15	286.82	13.3
454.15	287.67	13.34
455.15	288.44	13.38
456.15	289.03	13.4
457.15	289.8	13.44
458.15	290.56	13.47
459.15	291.24	13.51
460.15	292.18	13.55
461.15	292.86	13.58
462.15	293.2	13.6
463.15	293.8	13.62
464.15	294.99	13.68
465.15	295.67	13.71
466.15	296.35	13.74
467.15	297.03	13.77
468.15	297.96	13.82
469.15	298.9	13.86
470.15	300.18	13.92
471.15	301.03	13.96

System: 3,4,5-trihydroxybenzoic acid; phases: Crystal, Gas
Property: Vapor or sublimation pressure, kPa (Crystal); method: Calculated from knudsen effusion weight loss
Temperature, K	Vapor or sublimation pressure, kPa	uncertainty
432.88	9.61e-05	2.03e-05
434.44	0.0001197	2.04e-05
436.46	0.0001349	2.06e-05
438.62	0.0001688	2.09e-05
440.5	0.0001779	2.1e-05
442.58	0.0002341	2.17e-05
444.57	0.000257	2.2e-05
446.54	0.000313	2.29e-05
448.7	0.0003927	2.44e-05
450.78	0.0004674	2.6e-05
452.6	0.0005635	2.83e-05
454.63	0.0006284	2.99e-05
456.47	0.0008057	3.49e-05
458.78	0.0009376	3.87e-05

System: 2,3,7,8-tetrahydroxychromeno[5,4,3-cde]chromene-5,10-dione; phases: Crystal
Fixed: Pressure, kPa = 100
Property: Molar heat capacity at constant pressure, J/K/mol (Crystal); method: DSC
Temperature, K	Molar heat capacity at constant pressure, J/K/mol	uncertainty
260.15	292.07	13.54
261.15	292.68	13.57
262.15	293.58	13.61
263.15	294.64	13.66
264.15	295.85	13.72
265.15	297.06	13.78
266.15	297.97	13.82
267.15	298.87	13.86
268.15	299.93	13.91
269.15	301.59	13.99
270.15	303.41	14.07
271.15	303.41	14.07
272.15	304.01	14.1
273.15	305.37	14.16
274.15	307.49	14.26
275.15	308.39	14.3
276.15	308.09	14.29
277.15	308.54	14.31
278.15	310.36	14.39
279.15	311.57	14.45
280.15	311.26	14.43
281.15	312.62	14.5
282.15	314.29	14.58
283.15	315.19	14.62
284.15	315.95	14.65
285.15	316.25	14.66
286.15	317.16	14.71
287.15	318.97	14.79
288.15	320.33	14.85
289.15	319.72	14.82
290.15	320.48	14.86
291.15	321.84	14.93
292.15	323.35	14.99
293.15	323.05	14.98
294.15	324.26	15.04
295.15	325.47	15.09
296.15	326.4	15.14
297.15	327.73	15.2
298.15	328.85	15.25
299.15	329.64	15.29
300.15	330.7	15.34
301.15	331.91	15.39
302.15	332.12	15.4
303.15	333.63	15.47
304.15	334.99	15.53
305.15	335.69	15.57
306.15	336.45	15.6
307.15	337.53	15.65
308.15	338.02	15.67
309.15	339.27	15.73
310.15	339.49	15.74
311.15	340.77	15.8
312.15	341.16	15.82
313.15	342.26	15.87
314.15	343.3	15.92
315.15	343.78	15.94
316.15	345.03	16
317.15	346.85	16.08
318.15	347.5	16.11
319.15	348.3	16.15
320.15	349.21	16.19
321.15	350.81	16.27
322.15	351.92	16.32
323.15	352.53	16.35
324.15	353.13	16.38
325.15	354.43	16.44
326.15	355.55	16.49
327.15	356.86	16.55
328.15	357.07	16.56
329.15	358.38	16.62
330.15	359.69	16.68
331.15	361.39	16.76
332.15	362.3	16.8
333.15	363.1	16.84
334.15	364.21	16.89
335.15	365.02	16.93
336.15	366.23	16.98
337.15	367.13	17.02
338.15	368.24	17.08
339.15	369.55	17.14
340.15	370.36	17.17
341.15	370.96	17.2
342.15	371.07	17.21
343.15	372.48	17.27
344.15	373.08	17.3
345.15	373.69	17.33
346.15	374.1	17.35
347.15	375.31	17.4
348.15	376.31	17.45
349.15	377.02	17.48
350.15	378.82	17.57
351.15	379.03	17.58
352.15	379.54	17.6
353.15	381.35	17.69
354.15	383.99	17.81
355.15	385.91	17.89
356.15	385.3	17.87
357.15	386.51	17.92
358.15	387.62	17.97
359.15	388.02	17.99
360.15	390.04	18.09
361.15	391.3	18.15
362.15	392.55	18.2
363.15	393.1	18.23
364.15	393.5	18.25
365.15	394.2	18.28
366.15	395.1	18.32
367.15	396	18.36
368.15	396.5	18.39
369.15	397.3	18.42
370.15	397.8	18.45
371.15	398	18.46
372.15	399.5	18.53
373.15	400.1	18.55
374.15	401.2	18.6
375.15	402.5	18.66
376.15	403.1	18.69
377.15	403.8	18.72
378.15	404.5	18.76
379.15	405.3	18.79
380.15	406.12	18.83
381.15	407.6	18.9
382.15	408.2	18.93
383.15	409.5	18.99
384.15	410.1	19.02
385.15	411.31	19.07
386.15	412.22	19.12
387.15	413.52	19.18
388.15	414.82	19.24
389.15	415.43	19.26
390.15	416.64	19.32
391.15	417.54	19.36
392.15	418.85	19.42
393.15	419.15	19.44
394.15	420.36	19.49
395.15	421.26	19.53
396.15	421.57	19.55
397.15	422.17	19.58
398.15	423.08	19.62
399.15	423.98	19.66
400.15	424.59	19.69
401.15	424.59	19.69
402.15	425.19	19.72
403.15	426.4	19.77
404.15	427.31	19.81
405.15	427	19.8
406.15	427.31	19.81
407.15	427.91	19.84
408.15	429.42	19.91
409.15	430.03	19.94
410.15	430.78	19.97
411.15	431.39	20
412.15	432.44	20.05
413.15	432.9	20.07
414.15	433.5	20.1
415.15	434.56	20.15
416.15	435.77	20.21
417.15	436.2	20.23
418.15	437	20.26
419.15	438.2	20.32
420.15	439.1	20.36
421.15	440.5	20.43
422.15	441.2	20.46
423.15	442.3	20.51
424.15	443.93	20.59
425.15	444.5	20.61
426.15	444.8	20.62
427.15	445.1	20.64
428.15	445.9	20.68
429.15	446.2	20.69
430.15	446.8	20.72
431.15	447.3	20.74
432.15	448.2	20.78
433.15	448.6	20.8
434.15	449.4	20.84
435.15	450.58	20.89
436.15	451.79	20.95
437.15	452.39	20.98
438.15	452.69	20.99
439.15	452.99	21
440.15	453.9	21.05
441.15	454.71	21.08
442.15	455.32	21.11
443.15	455.41	21.12
444.15	455.71	21.13
445.15	456.02	21.15
446.15	457.53	21.22
447.15	457.83	21.23
448.15	458.43	21.26
449.15	459.04	21.29
450.15	459.64	21.31
451.15	459.94	21.33
452.15	460.2	21.34
453.15	460.85	21.37
454.15	461.14	21.38
455.15	460.85	21.37
456.15	461.3	21.39
457.15	461.76	21.41
458.15	462.11	21.43
459.15	462.61	21.45
460.15	463.82	21.51
461.15	464.57	21.54
462.15	465.08	21.57
463.15	466.38	21.63
464.15	467.05	21.66
465.15	468.71	21.73
466.15	468.5	21.72
467.15	469	21.75
468.15	469.5	21.77
469.15	470.1	21.8
470.15	470.8	21.83
471.15	471.2	21.85
472.15	471.5	21.86
473.15	472.94	21.93
474.15	473.85	21.97
475.15	474.15	21.99
476.15	474.75	22.01
477.15	475.05	22.03
478.15	476.26	22.08
479.15	477.17	22.13
480.15	477.47	22.14
481.15	478.38	22.18
482.15	479.59	22.24
483.15	480.19	22.27
484.15	480.39	22.27
485.15	481.19	22.31
486.15	482	22.35
487.15	482.31	22.36
488.15	482.61	22.38
489.15	483.31	22.41
490.15	484.21	22.45
491.15	485.63	22.52
492.15	486.93	22.58
493.15	487.54	22.61
494.15	488.84	22.67
495.15	489.26	22.69
496.15	489.26	22.69
497.15	489.56	22.7
498.15	489.26	22.69
499.15	490.77	22.76
500.15	491.28	22.78
501.15	492.18	22.82
502.15	493.28	22.87
503.15	494.19	22.92
504.15	495	22.95
505.15	495.3	22.97
506.15	495	22.95
507.15	494.7	22.94
508.15	495	22.95
509.15	495	22.95
510.15	495.3	22.97
511.15	496	23
512.15	497.72	23.08
513.15	497.82	23.08
514.15	498.32	23.11
515.15	499.23	23.15
516.15	499.5	23.16
517.15	500.1	23.19
518.15	501.3	23.24
519.15	501.8	23.27
520.15	502.5	23.3
521.15	503.1	23.33
522.15	503.6	23.35

Reaction: -1 3,4,5-trihydroxybenzoic acid + 7 carbon dioxide + 3 water + -6 oxygen
Property: Specific internal energy of reaction at constant volume, J/g
-15456.8

Reaction: -1 2,3,7,8-tetrahydroxychromeno[5,4,3-cde]chromene-5,10-dione + 14 carbon dioxide + 3 water + -11.5 oxygen
Property: Specific internal energy of reaction at constant volume, J/g
-16528.6
