Measured thermophysical data. Apparent molar volumes and apparent molar heat capacities of aqueous adonitol, dulcitol, glycerol, meso-erythritol, myo-inositol, D-sorbitol, and xylitol at temperatures from (278.15 to 368.15) K and at the pressure 0.35 MPa
Source: J. Chem. Thermodyn., 2007, 10.1016/j.jct.2006.08.009
Compound 1: SRS-1,2,3,4,5-pentanepentol, C5H12O5, InChI=1S/C5H12O5/c6-1-3(8)5(10)4(9)2-7/h3-10H,1-2H2/t3-,4+,5-
Compound 2: dulcitol, C6H14O6, InChI=1S/C6H14O6/c7-1-3(9)5(11)6(12)4(10)2-8/h3-12H,1-2H2/t3-,4+,5+,6-
Compound 3: glycerol, C3H8O3, InChI=1S/C3H8O3/c4-1-3(6)2-5/h3-6H,1-2H2
Compound 4: meso-1,2,3,4-butanetetrol, C4H10O4, InChI=1S/C4H10O4/c5-1-3(7)4(8)2-6/h3-8H,1-2H2/t3-,4+
Compound 5: cis-1,2,3,5-trans-4,6-cyclohexanehexol, C6H12O6, InChI=1S/C6H12O6/c7-1-2(8)4(10)6(12)5(11)3(1)9/h1-12H/t1-,2-,3-,4+,5-,6-
Compound 6: D-sorbitol, C6H14O6, InChI=1S/C6H14O6/c7-1-3(9)5(11)6(12)4(10)2-8/h3-12H,1-2H2/t3-,4+,5-,6-/m1/s1
Compound 7: xylitol, C5H12O5, InChI=1S/C5H12O5/c6-1-3(8)5(10)4(9)2-7/h3-10H,1-2H2/t3-,4+,5+
Compound 8: water, H2O, InChI=1S/H2O/h1H2

System: SRS-1,2,3,4,5-pentanepentol + water; phases: Liquid
Fixed: Pressure, kPa = 350
Property: Apparent molar heat capacity, J/K/mol (Liquid); method: Extra sensitive DSC
Temperature, K	Molality, mol/kg of SRS-1,2,3,4,5-pentanepentol	Apparent molar heat capacity, J/K/mol	uncertainty
278.15	0.0196	335	49
278.15	0.0506	329.5	19.7
278.15	0.1042	335.2	10.4
278.15	0.2591	334.4	5.6
278.15	0.5092	334.9	4.3
278.15	0.9969	336.5	3.9
278.15	1.9981	336.2	3.8
278.15	3.1769	339.7	3.7
283.15	0.0196	354	50
283.15	0.0506	343	19.9
283.15	0.1042	350.4	10.4
283.15	0.2591	349.6	5.5
283.15	0.5092	349.7	4.2
283.15	0.9969	350.6	3.7
283.15	1.9981	349.4	3.6
283.15	3.1769	351.5	3.5
288.15	0.0196	368	49
288.15	0.0506	354.3	19.5
288.15	0.1042	362	10.4
288.15	0.2591	361.4	5.3
288.15	0.5092	361.4	4
288.15	0.9969	361.7	3.5
288.15	1.9981	359.9	3.4
288.15	3.1769	361.1	3.2
293.15	0.0196	377	46
293.15	0.0506	365.3	18.8
293.15	0.1042	371.7	10.1
293.15	0.2591	371.2	5.2
293.15	0.5092	371	3.9
293.15	0.9969	371	3.4
293.15	1.9981	368.5	3.2
293.15	3.1769	369.4	3
298.15	0.0196	385	45
298.15	0.0506	375.1	18.2
298.15	0.1042	380.2	9.7
298.15	0.2591	379.6	4.9
298.15	0.5092	379.3	3.7
298.15	0.9969	379	3.2
298.15	1.9981	376.1	3
298.15	3.1769	376.6	3
303.15	0.0196	392	44
303.15	0.0506	383.2	17.9
303.15	0.1042	387.5	9.5
303.15	0.2591	386.8	4.8
303.15	0.5092	386.4	3.6
303.15	0.9969	385.9	3
303.15	1.9981	382.8	2.9
303.15	3.1769	383	2.8
308.15	0.0196	397	44
308.15	0.0506	389.5	17.5
308.15	0.1042	393.6	9.2
308.15	0.2591	393	4.8
308.15	0.5092	392.6	3.4
308.15	0.9969	392	3
308.15	1.9981	388.8	2.9
308.15	3.1769	388.8	2.8
313.15	0.0196	403	43
313.15	0.0506	395.7	17.2
313.15	0.1042	399.2	9.1
313.15	0.2591	398.6	4.7
313.15	0.5092	398.2	3.4
313.15	0.9969	397.4	2.9
313.15	1.9981	394.1	2.7
313.15	3.1769	393.9	2.6
318.15	0.0196	408	42
318.15	0.0506	401.1	17
318.15	0.1042	404.3	8.9
318.15	0.2591	403.7	4.6
318.15	0.5092	403.2	3.3
318.15	0.9969	402.3	2.9
318.15	1.9981	398.9	2.7
318.15	3.1769	398.6	2.6
323.15	0.0196	412.3	41.8
323.15	0.0506	405.8	16.9
323.15	0.1042	408.7	8.8
323.15	0.2591	408.1	4.6
323.15	0.5092	407.6	3.3
323.15	0.9969	406.7	2.9
323.15	1.9981	403.3	2.7
323.15	3.1769	402.8	2.6
328.15	0.0196	415.7	41.2
328.15	0.0506	409.7	16.6
328.15	0.1042	412.7	8.7
328.15	0.2591	412.2	4.4
328.15	0.5092	411.6	3.3
328.15	0.9969	410.7	2.7
328.15	1.9981	407.3	2.5
328.15	3.1769	406.7	2.5
333.15	0.0196	419.1	40.7
333.15	0.0506	413.4	16.4
333.15	0.1042	416.3	8.7
333.15	0.2591	415.8	4.5
333.15	0.5092	415.3	3.3
333.15	0.9969	414.3	2.7
333.15	1.9981	410.9	2.5
333.15	3.1769	410.3	2.5
338.15	0.0196	422.2	40.5
338.15	0.0506	416.9	16.3
338.15	0.1042	419.6	8.6
338.15	0.2591	419.2	4.5
338.15	0.5092	418.6	3.2
338.15	0.9969	417.6	2.7
338.15	1.9981	414.3	2.5
338.15	3.1769	413.6	2.5
343.15	0.0196	424.8	40.5
343.15	0.0506	420	16.3
343.15	0.1042	422.7	8.5
343.15	0.2591	422.2	4.4
343.15	0.5092	421.6	3.2
343.15	0.9969	420.6	2.7
343.15	1.9981	417.3	2.5
343.15	3.1769	416.5	2.5
348.15	0.0196	427.6	40.5
348.15	0.0506	422.8	16.3
348.15	0.1042	425.4	8.5
348.15	0.2591	424.9	4.4
348.15	0.5092	424.3	3.2
348.15	0.9969	423.3	2.7
348.15	1.9981	420.1	2.5
348.15	3.1769	419.3	2.5
353.15	0.0196	429.6	40.5
353.15	0.0506	424.8	16.3
353.15	0.1042	427.8	8.4
353.15	0.2591	427.3	4.4
353.15	0.5092	426.7	3.2
353.15	0.9969	425.7	2.7
353.15	1.9981	422.6	2.5
353.15	3.1769	421.8	2.5
358.15	0.0196	431.8	40.5
358.15	0.0506	426.7	16.3
358.15	0.1042	430.1	8.4
358.15	0.2591	429.5	4.4
358.15	0.5092	428.9	3.2
358.15	0.9969	427.9	2.6
358.15	1.9981	424.9	2.5
358.15	3.1769	424	2.3
363.15	0.0196	433.8	40.5
363.15	0.0506	427.7	16.3
363.15	0.1042	431.7	8.5
363.15	0.2591	431.2	4.4
363.15	0.5092	430.7	3.2
363.15	0.9969	429.8	2.6
363.15	1.9981	426.9	2.5
363.15	3.1769	425.9	2.3

System: SRS-1,2,3,4,5-pentanepentol + water; phases: Liquid
Fixed: Pressure, kPa = 350
Property: Mass density, kg/m3 (Liquid); method: VIBTUB:UFactor:4
Temperature, K	Molality, mol/kg of SRS-1,2,3,4,5-pentanepentol	Mass density, kg/m3	uncertainty
278.15	0.0196	1001.15	0.17
278.15	0.0506	1002.66	0.18
278.15	0.1042	1005.31	0.18
278.15	0.2591	1012.83	0.2
278.15	0.5092	1024.77	0.22
278.15	0.9969	1046.03	0.26
278.15	1.9981	1084.53	0.34
278.15	3.1769	1119.46	0.42
283.15	0.0196	1000.8	0.17
283.15	0.0506	1002.31	0.17
283.15	0.1042	1004.94	0.18
283.15	0.2591	1012.39	0.19
283.15	0.5092	1024.17	0.22
283.15	0.9969	1045.12	0.26
283.15	1.9981	1083.19	0.34
283.15	3.1769	1117.64	0.41
288.15	0.0196	1000.18	0.17
288.15	0.0506	1001.7	0.17
288.15	0.1042	1004.3	0.18
288.15	0.2591	1011.68	0.19
288.15	0.5092	1023.3	0.22
288.15	0.9969	1044.05	0.26
288.15	1.9981	1081.81	0.34
288.15	3.1769	1115.96	0.41
298.15	0.0196	998.09	0.18
298.15	0.0506	999.6	0.17
298.15	0.1042	1002.18	0.17
298.15	0.2591	1009.48	0.19
298.15	0.5092	1020.79	0.21
298.15	0.9969	1041.23	0.25
298.15	1.9981	1078.43	0.33
298.15	3.1769	1112.13	0.4
308.15	0.0196	995.08	0.18
308.15	0.0506	996.56	0.18
308.15	0.1042	999.1	0.17
308.15	0.2591	1006.35	0.18
308.15	0.5092	1017.44	0.2
308.15	0.9969	1037.61	0.25
308.15	1.9981	1074.35	0.32
308.15	3.1769	1107.66	0.39
318.15	0.0196	991.29	0.19
318.15	0.0506	992.73	0.19
318.15	0.1042	995.28	0.18
318.15	0.2591	1002.45	0.18
318.15	0.5092	1013.36	0.2
318.15	0.9969	1033.3	0.24
318.15	1.9981	1069.71	0.31
318.15	3.1769	1102.66	0.38
328.15	0.0196	986.75	0.2
328.15	0.0506	988.19	0.19
328.15	0.1042	990.72	0.19
328.15	0.2591	997.84	0.17
328.15	0.5092	1008.63	0.19
328.15	0.9969	1028.38	0.23
328.15	1.9981	1064.46	0.3
328.15	3.1769	1097.15	0.37
338.15	0.0196	981.58	0.21
338.15	0.0506	983.05	0.21
338.15	0.1042	985.54	0.2
338.15	0.2591	992.64	0.19
338.15	0.5092	1003.33	0.18
338.15	0.9969	1022.96	0.22
338.15	1.9981	1058.79	0.29
338.15	3.1769	1091.26	0.36
348.15	0.0196	975.89	0.22
348.15	0.0506	977.36	0.22
348.15	0.1042	979.79	0.21
348.15	0.2591	986.84	0.2
348.15	0.5092	997.49	0.18
348.15	0.9969	1017.01	0.21
348.15	1.9981	1052.65	0.28
348.15	3.1769	1084.97	0.35
358.15	0.0196	969.65	0.24
358.15	0.0506	971.12	0.23
358.15	0.1042	973.52	0.23
358.15	0.2591	980.54	0.21
358.15	0.5092	991.18	0.19
358.15	0.9969	1010.61	0.19
358.15	1.9981	1046.1	0.27
358.15	3.1769	1078.29	0.33
368.15	0.0196	962.93	0.25
368.15	0.0506	964.44	0.25
368.15	0.1042	966.8	0.24
368.15	0.2591	973.76	0.23
368.15	0.5092	984.4	0.21
368.15	0.9969	1003.76	0.18
368.15	1.9981	1039.13	0.26
368.15	3.1769	1071.22	0.32

System: dulcitol + water; phases: Liquid
Fixed: Pressure, kPa = 350
Property: Apparent molar heat capacity, J/K/mol (Liquid); method: Extra sensitive DSC
Temperature, K	Molality, mol/kg of dulcitol	Apparent molar heat capacity, J/K/mol	uncertainty
278.15	0.0188	374	60
278.15	0.0418	369	30
278.15	0.0698	379.2	17.6
278.15	0.0986	380.1	19
278.15	0.119	370.3	16.1
278.15	0.1492	379.2	13.4
283.15	0.0188	394	58
283.15	0.0418	389	30
283.15	0.0698	397.8	17.2
283.15	0.0986	398.6	18.4
283.15	0.119	388.5	15.7
283.15	0.1492	397.5	13.1
288.15	0.0188	409	57
288.15	0.0418	405	28
288.15	0.0698	412.3	16.9
288.15	0.0986	413.3	18.1
288.15	0.119	402.7	15.4
288.15	0.1492	412	12.7
293.15	0.0188	423	57
293.15	0.0418	418	28
293.15	0.0698	425.3	16.6
293.15	0.0986	426.5	17.9
293.15	0.119	416.6	15.2
293.15	0.1492	425	12.5
298.15	0.0188	434	56
298.15	0.0418	430	28
298.15	0.0698	436.4	16.3
298.15	0.0986	437.6	17.8
298.15	0.119	428.5	15.1
298.15	0.1492	436.1	12.4
303.15	0.0188	444	54
303.15	0.0418	439	27
303.15	0.0698	446	16
303.15	0.0986	447.4	17.6
303.15	0.119	438.9	14.9
303.15	0.1492	445.8	12.4
308.15	0.0188	453	54
308.15	0.0418	448	27
308.15	0.0698	454.4	15.8
308.15	0.0986	456	17.4
308.15	0.119	447.9	14.7
308.15	0.1492	454.3	12.2
313.15	0.0188	461	53
313.15	0.0418	455.7	26.7
313.15	0.0698	462.1	15.6
313.15	0.0986	463.5	17.3
313.15	0.119	456	14.5
313.15	0.1492	461.9	12
318.15	0.0188	468	53
318.15	0.0418	462.7	26.4
318.15	0.0698	468.8	15.4
318.15	0.0986	470.3	17.3
318.15	0.119	463.3	14.6
318.15	0.1492	468.7	12.1
323.15	0.0188	475	51
323.15	0.0418	469	26.1
323.15	0.0698	474.9	15.1
323.15	0.0986	476.5	17.1
323.15	0.119	469.8	14.4
323.15	0.1492	474.8	11.9
328.15	0.0188	481	50
328.15	0.0418	474.7	25.8
328.15	0.0698	480.5	15
328.15	0.0986	482.1	16.9
328.15	0.119	475.7	14.4
328.15	0.1492	480.4	11.9
333.15	0.0188	486	50
333.15	0.0418	479.8	25.6
333.15	0.0698	485.6	14.7
333.15	0.0986	487.2	16.9
333.15	0.119	481	14.2
333.15	0.1492	485.5	11.7
338.15	0.0188	491	49
338.15	0.0418	484.5	25.4
338.15	0.0698	490.1	14.6
338.15	0.0986	491.8	16.8
338.15	0.119	486	14.2
338.15	0.1492	490.1	11.7
343.15	0.0188	495	49
343.15	0.0418	488.6	25.1
343.15	0.0698	494.2	14.4
343.15	0.0986	495.9	16.8
343.15	0.119	490.4	14.1
343.15	0.1492	494.3	11.7
348.15	0.0188	499	48
348.15	0.0418	492.2	25
348.15	0.0698	497.9	14.1
348.15	0.0986	499.6	16.6
348.15	0.119	494.4	14.1
348.15	0.1492	497.9	11.6
353.15	0.0188	502	47
353.15	0.0418	495.4	24.7
353.15	0.0698	501.2	14
353.15	0.0986	502.9	16.6
353.15	0.119	498.1	13.9
353.15	0.1492	501.2	11.6
358.15	0.0188	504	47
358.15	0.0418	498.1	24.5
358.15	0.0698	503.5	13.8
358.15	0.0986	505.2	16.3
358.15	0.119	501.3	13.7
358.15	0.1492	503.6	11.4
363.15	0.0188	506	46
363.15	0.0418	499.6	24.1
363.15	0.0698	504.4	13.7
363.15	0.0986	505.7	15.7
363.15	0.119	504.1	13.4
363.15	0.1492	504.3	11.1

System: dulcitol + water; phases: Liquid
Fixed: Pressure, kPa = 350
Property: Mass density, kg/m3 (Liquid); method: VIBTUB:UFactor:4
Temperature, K	Molality, mol/kg of dulcitol	Mass density, kg/m3	uncertainty
278.15	0.0188	1001.19	0.18
278.15	0.0418	1002.77	0.18
278.15	0.0698	1004.44	0.18
278.15	0.0986	1006.47	0.19
278.15	0.119	1007.99	0.19
278.15	0.1492	1009.86	0.19
283.15	0.0188	1000.99	0.18
283.15	0.0418	1002.48	0.18
283.15	0.0698	1004.2	0.18
283.15	0.0986	1006.13	0.19
283.15	0.119	1007.58	0.19
283.15	0.1492	1009.47	0.19
288.15	0.0188	1000.42	0.18
288.15	0.0418	1001.85	0.18
288.15	0.0698	1003.61	0.18
288.15	0.0986	1005.5	0.19
288.15	0.119	1006.94	0.19
288.15	0.1492	1008.75	0.19
298.15	0.0188	998.35	0.18
298.15	0.0418	999.74	0.18
298.15	0.0698	1001.5	0.18
298.15	0.0986	1003.47	0.18
298.15	0.119	1004.74	0.18
298.15	0.1492	1006.52	0.18
308.15	0.0188	995.36	0.19
308.15	0.0418	996.65	0.18
308.15	0.0698	998.44	0.18
308.15	0.0986	1000.21	0.18
308.15	0.119	1001.54	0.18
308.15	0.1492	1003.38	0.18
318.15	0.0188	991.52	0.19
318.15	0.0418	992.87	0.19
318.15	0.0698	994.59	0.19
318.15	0.0986	996.35	0.18
318.15	0.119	997.6	0.18
318.15	0.1492	999.44	0.17
328.15	0.0188	986.98	0.2
328.15	0.0418	988.34	0.2
328.15	0.0698	990.01	0.19
328.15	0.0986	991.76	0.19
328.15	0.119	993.01	0.19
328.15	0.1492	994.81	0.18
338.15	0.0188	981.81	0.21
338.15	0.0418	983.19	0.21
338.15	0.0698	984.85	0.2
338.15	0.0986	986.55	0.2
338.15	0.119	987.85	0.2
338.15	0.1492	989.64	0.19
348.15	0.0188	976.1	0.22
348.15	0.0418	977.46	0.22
348.15	0.0698	979.12	0.22
348.15	0.0986	980.85	0.21
348.15	0.119	982.09	0.21
348.15	0.1492	983.86	0.21
358.15	0.0188	969.86	0.24
358.15	0.0418	971.46	0.23
358.15	0.0698	972.88	0.23
358.15	0.0986	974.54	0.23
358.15	0.119	975.86	0.23
358.15	0.1492	977.9	0.22
368.15	0.0188	963.12	0.25
368.15	0.0418	964.48	0.25
368.15	0.0698	966.14	0.25
368.15	0.0986	967.86	0.24
368.15	0.119	969.19	0.24
368.15	0.1492	970.84	0.24

System: glycerol + water; phases: Liquid
Fixed: Pressure, kPa = 350
Property: Apparent molar heat capacity, J/K/mol (Liquid); method: Extra sensitive DSC
Temperature, K	Molality, mol/kg of glycerol	Apparent molar heat capacity, J/K/mol	uncertainty
278.15	0.02	210	86
278.15	0.05	208	35
278.15	0.1	208.3	17.7
278.15	0.2501	206.7	7.7
278.15	0.5002	206	4.8
278.15	1.0008	203.2	3.6
278.15	2	200	3.1
278.15	3.0035	192.1	3.1
278.15	4.9993	196.4	2.9
283.15	0.02	220	80
283.15	0.05	219	33
283.15	0.1	219.7	16.6
283.15	0.2501	218.3	7.2
283.15	0.5002	217.4	4.2
283.15	1.0008	215.1	3
283.15	2	212.1	2.5
283.15	3.0035	206.8	2.3
283.15	4.9993	207.4	2.1
288.15	0.02	229	77
288.15	0.05	227	32
288.15	0.1	227.7	15.7
288.15	0.2501	226.4	6.9
288.15	0.5002	225.6	4.1
288.15	1.0008	223.5	2.9
288.15	2	220.6	2.4
288.15	3.0035	215.7	2.1
288.15	4.9993	215.28	1.9
293.15	0.02	235	72
293.15	0.05	233	30
293.15	0.1	234	14.9
293.15	0.2501	233	6.5
293.15	0.5002	232.3	3.9
293.15	1.0008	230.4	2.7
293.15	2	227.5	2.2
293.15	3.0035	222.75	2.03
293.15	4.9993	221.83	1.79
298.15	0.02	240	68
298.15	0.05	239	26
298.15	0.1	239.7	14
298.15	0.2501	238.6	6.2
298.15	0.5002	238	3.7
298.15	1.0008	236.1	2.7
298.15	2	233.27	2.14
298.15	3.0035	228.47	1.96
298.15	4.9993	227.35	1.72
303.15	0.02	245	63
303.15	0.05	244	25
303.15	0.1	244.7	13.2
303.15	0.2501	243.6	5.9
303.15	0.5002	243	3.6
303.15	1.0008	241.1	2.5
303.15	2	238.33	2.07
303.15	3.0035	233.46	1.89
303.15	4.9993	232.27	1.67
308.15	0.02	249	60
308.15	0.05	248.4	24
308.15	0.1	249	12.4
308.15	0.2501	247.9	5.5
308.15	0.5002	247.4	3.4
308.15	1.0008	245.5	2.5
308.15	2	242.76	2.02
308.15	3.0035	237.83	1.84
308.15	4.9993	236.6	1.63
313.15	0.02	253	55
313.15	0.05	252.1	22.5
313.15	0.1	252.9	11.6
313.15	0.2501	251.9	5.2
313.15	0.5002	251.3	3.3
313.15	1.0008	249.4	2.4
313.15	2	246.75	1.97
313.15	3.0035	241.83	1.79
313.15	4.9993	240.56	1.6
318.15	0.02	257	52
318.15	0.05	255.7	21
318.15	0.1	256.3	10.9
318.15	0.2501	255.4	4.9
318.15	0.5002	254.8	3.1
318.15	1.0008	252.98	2.29
318.15	2	250.33	1.92
318.15	3.0035	245.4	1.75
318.15	4.9993	244.12	1.57
323.15	0.02	260	48
323.15	0.05	258.8	19.6
323.15	0.1	259.4	10.2
323.15	0.2501	258.6	4.7
323.15	0.5002	258	3
323.15	1.0008	256.23	2.23
323.15	2	253.61	1.87
323.15	3.0035	248.72	1.72
323.15	4.9993	247.42	1.54
328.15	0.02	263	46
328.15	0.05	261.7	18.5
328.15	0.1	262.3	9.6
328.15	0.2501	261.5	4.4
328.15	0.5002	261	2.8
328.15	1.0008	259.22	2.17
328.15	2	256.62	1.84
328.15	3.0035	251.8	1.69
328.15	4.9993	250.48	1.5
333.15	0.02	266	42
333.15	0.05	264.5	17.4
333.15	0.1	265	9
333.15	0.2501	264.3	4.3
333.15	0.5002	263.72	2.77
333.15	1.0008	262	2.12
333.15	2	259.44	1.81
333.15	3.0035	254.69	1.66
333.15	4.9993	253.36	1.49
338.15	0.02	268.5	40.2
338.15	0.05	267	16.5
338.15	0.1	267.6	8.6
338.15	0.2501	266.8	4.1
338.15	0.5002	266.28	2.68
338.15	1.0008	264.6	2.08
338.15	2	262.07	1.77
338.15	3.0035	257.43	1.62
338.15	4.9993	256.04	1.45
343.15	0.02	270.6	39.4
343.15	0.05	269.2	16.1
343.15	0.1	269.8	8.4
343.15	0.2501	269.15	3.93
343.15	0.5002	268.63	2.62
343.15	1.0008	266.97	2.05
343.15	2	264.48	1.74
343.15	3.0035	259.94	1.61
343.15	4.9993	258.51	1.44
348.15	0.02	272.9	39.4
348.15	0.05	271.3	16.1
348.15	0.1	271.9	8.4
348.15	0.2501	271.31	3.85
348.15	0.5002	270.82	2.57
348.15	1.0008	269.16	2.01
348.15	2	266.71	1.73
348.15	3.0035	262.29	1.59
348.15	4.9993	260.82	1.42
353.15	0.02	274.8	39.4
353.15	0.05	273.1	16.1
353.15	0.1	273.9	8.4
353.15	0.2501	273.26	3.8
353.15	0.5002	272.82	2.55
353.15	1.0008	271.17	1.99
353.15	2	268.75	1.71
353.15	3.0035	264.53	1.58
353.15	4.9993	262.96	1.41
358.15	0.02	276.3	39.4
358.15	0.05	274.7	16.1
358.15	0.1	275.6	8.4
358.15	0.2501	274.92	3.81
358.15	0.5002	274.47	2.55
358.15	1.0008	272.82	2
358.15	2	270.44	1.7
358.15	3.0035	266.6	1.58
358.15	4.9993	264.75	1.43
363.15	0.02	277.1	39.4
363.15	0.05	275.5	16.1
363.15	0.1	276.5	8.4
363.15	0.2501	275.65	3.89
363.15	0.5002	275.17	2.59
363.15	1.0008	273.45	2.04
363.15	2	271.04	1.77
363.15	3.0035	268.61	1.65
363.15	4.9993	265.49	1.53

System: glycerol + water; phases: Liquid
Fixed: Pressure, kPa = 350
Property: Mass density, kg/m3 (Liquid); method: VIBTUB:UFactor:4
Temperature, K	Molality, mol/kg of glycerol	Mass density, kg/m3	uncertainty
278.15	0.02	1000.56	0.17
278.15	0.05	1001.19	0.17
278.15	0.1	1002.32	0.17
278.15	0.2501	1005.96	0.18
278.15	0.5002	1011.28	0.19
278.15	1.0008	1021.37	0.21
278.15	2	1040.06	0.25
278.15	3.0035	1056.11	0.28
278.15	4.9993	1082.51	0.33
283.15	0.02	1000.32	0.17
283.15	0.05	1000.93	0.17
283.15	0.1	1002.05	0.17
283.15	0.2501	1005.34	0.18
283.15	0.5002	1010.56	0.19
283.15	1.0008	1020.54	0.21
283.15	2	1038.67	0.24
283.15	3.0035	1054.65	0.28
283.15	4.9993	1080.68	0.33
288.15	0.02	999.7	0.17
288.15	0.05	1000.3	0.16
288.15	0.1	1001.41	0.17
288.15	0.2501	1004.63	0.17
288.15	0.5002	1009.79	0.18
288.15	1.0008	1019.64	0.2
288.15	2	1037.48	0.24
288.15	3.0035	1053.13	0.27
288.15	4.9993	1078.92	0.33
298.15	0.02	997.59	0.17
298.15	0.05	998.2	0.17
298.15	0.1	999.29	0.17
298.15	0.2501	1002.43	0.17
298.15	0.5002	1007.48	0.18
298.15	1.0008	1017.07	0.2
298.15	2	1034.46	0.24
298.15	3.0035	1049.73	0.27
298.15	4.9993	1074.96	0.32
308.15	0.02	994.55	0.18
308.15	0.05	995.16	0.17
308.15	0.1	996.23	0.17
308.15	0.2501	999.33	0.17
308.15	0.5002	1004.29	0.17
308.15	1.0008	1013.67	0.19
308.15	2	1030.71	0.23
308.15	3.0035	1045.67	0.26
308.15	4.9993	1070.41	0.31
318.15	0.02	990.73	0.18
318.15	0.05	991.32	0.18
318.15	0.1	992.37	0.18
318.15	0.2501	995.42	0.17
318.15	0.5002	1000.34	0.17
318.15	1.0008	1009.55	0.18
318.15	2	1026.3	0.22
318.15	3.0035	1041.09	0.25
318.15	4.9993	1065.4	0.3
328.15	0.02	986.19	0.19
328.15	0.05	986.78	0.19
328.15	0.1	987.77	0.19
328.15	0.2501	990.83	0.18
328.15	0.5002	995.67	0.17
328.15	1.0008	1004.79	0.18
328.15	2	1021.31	0.21
328.15	3.0035	1035.9	0.24
328.15	4.9993	1059.9	0.29
338.15	0.02	981.05	0.21
338.15	0.05	981.63	0.2
338.15	0.1	982.65	0.2
338.15	0.2501	985.63	0.2
338.15	0.5002	990.4	0.19
338.15	1.0008	999.46	0.17
338.15	2	1015.84	0.2
338.15	3.0035	1030.29	0.23
338.15	4.9993	1054	0.28
348.15	0.02	975.36	0.22
348.15	0.05	975.93	0.22
348.15	0.1	976.93	0.21
348.15	0.2501	979.9	0.21
348.15	0.5002	984.63	0.2
348.15	1.0008	993.59	0.18
348.15	2	1009.84	0.19
348.15	3.0035	1024.18	0.22
348.15	4.9993	1047.69	0.26
358.15	0.02	969.12	0.23
358.15	0.05	969.7	0.23
358.15	0.1	970.69	0.23
358.15	0.2501	973.64	0.22
358.15	0.5002	978.33	0.21
358.15	1.0008	987.24	0.19
358.15	2	1003.38	0.18
358.15	3.0035	1017.63	0.2
358.15	4.9993	1041.02	0.25
368.15	0.02	962.42	0.25
368.15	0.05	963	0.24
368.15	0.1	963.94	0.24
368.15	0.2501	966.88	0.24
368.15	0.5002	971.55	0.23
368.15	1.0008	980.42	0.21
368.15	2	996.47	0.18
368.15	3.0035	1010.68	0.19
368.15	4.9993	1033.93	0.24

System: meso-1,2,3,4-butanetetrol + water; phases: Liquid
Fixed: Pressure, kPa = 350
Property: Apparent molar heat capacity, J/K/mol (Liquid); method: Extra sensitive DSC
Temperature, K	Molality, mol/kg of meso-1,2,3,4-butanetetrol	Apparent molar heat capacity, J/K/mol	uncertainty
278.15	0.0201	261	88
278.15	0.05	279	35
278.15	0.0999	275.3	18.3
278.15	0.2501	273	8.1
278.15	0.4998	272.1	5.4
278.15	1	270.3	4.2
278.15	2.0016	264	3.7
278.15	3.0028	267.2	3.5
283.15	0.0201	273	86
283.15	0.05	290	35
283.15	0.0999	287.2	17.8
283.15	0.2501	285.1	7.8
283.15	0.4998	284.1	4.8
283.15	1	282.7	3.6
283.15	2.0016	277.2	3
283.15	3.0028	279.1	2.7
288.15	0.0201	282	84
288.15	0.05	300	33
288.15	0.0999	296.3	17.6
288.15	0.2501	294.4	7.6
288.15	0.4998	293.4	4.7
288.15	1	291.9	3.5
288.15	2.0016	286.3	2.8
288.15	3.0028	288	2.5
293.15	0.0201	290	82
293.15	0.05	307	33
293.15	0.0999	303.8	17.2
293.15	0.2501	302.3	7.5
293.15	0.4998	301.3	4.5
293.15	1	299.9	3.3
293.15	2.0016	294.2	2.8
293.15	3.0028	295.7	2.6
298.15	0.0201	296	82
298.15	0.05	314	33
298.15	0.0999	310.6	17.1
298.15	0.2501	309	7.5
298.15	0.4998	308.1	4.5
298.15	1	306.6	3.3
298.15	2.0016	300.7	2.6
298.15	3.0028	302.1	2.4
303.15	0.0201	301	80
303.15	0.05	320	33
303.15	0.0999	316.6	16.9
303.15	0.2501	315	7.3
303.15	0.4998	314	4.3
303.15	1	312.5	3.1
303.15	2.0016	306.6	2.6
303.15	3.0028	307.8	2.4
308.15	0.0201	307	80
308.15	0.05	325	32
308.15	0.0999	321.8	16.5
308.15	0.2501	320.2	7.1
308.15	0.4998	319.2	4.3
308.15	1	317.6	3.1
308.15	2.0016	311.8	2.6
308.15	3.0028	312.9	2.4
313.15	0.0201	311	79
313.15	0.05	330	32
313.15	0.0999	326.5	16.4
313.15	0.2501	324.8	7.1
313.15	0.4998	323.8	4.3
313.15	1	322.3	3.1
313.15	2.0016	316.4	2.4
313.15	3.0028	317.4	2.2
318.15	0.0201	315	77
318.15	0.05	334	32
318.15	0.0999	330.6	16.2
318.15	0.2501	328.9	7
318.15	0.4998	327.9	4.2
318.15	1	326.4	3
318.15	2.0016	320.6	2.4
318.15	3.0028	321.5	2.2
323.15	0.0201	318	77
323.15	0.05	338	32
323.15	0.0999	334.4	15.8
323.15	0.2501	332.7	7
323.15	0.4998	331.6	4.2
323.15	1	330.1	3
323.15	2.0016	324.5	2.4
323.15	3.0028	325.24	2.19
328.15	0.0201	322	75
328.15	0.05	341	30
328.15	0.0999	337.8	15.7
328.15	0.2501	336	6.8
328.15	0.4998	335	4.2
328.15	1	333.5	3
328.15	2.0016	328	2.4
328.15	3.0028	328.66	2.16
333.15	0.0201	325	75
333.15	0.05	344	30
333.15	0.0999	341	15.5
333.15	0.2501	339.2	6.8
333.15	0.4998	338.1	4
333.15	1	336.7	3
333.15	2.0016	331.2	2.4
333.15	3.0028	331.8	2.12
338.15	0.0201	328	73
338.15	0.05	347	30
338.15	0.0999	343.9	15.3
338.15	0.2501	342	6.6
338.15	0.4998	340.9	4
338.15	1	339.5	2.8
338.15	2.0016	334.2	2.3
338.15	3.0028	334.7	2.11
343.15	0.0201	330	72
343.15	0.05	350	30
343.15	0.0999	346.4	15.2
343.15	0.2501	344.5	6.6
343.15	0.4998	343.5	4
343.15	1	342.1	2.8
343.15	2.0016	336.9	2.3
343.15	3.0028	337.33	2.09
348.15	0.0201	332	72
348.15	0.05	352	28
348.15	0.0999	348.7	15
348.15	0.2501	346.8	6.5
348.15	0.4998	345.8	4
348.15	1	344.4	2.8
348.15	2.0016	339.4	2.3
348.15	3.0028	339.73	2.08
353.15	0.0201	334	70
353.15	0.05	354	28
353.15	0.0999	350.7	14.8
353.15	0.2501	348.9	6.5
353.15	0.4998	347.8	3.9
353.15	1	346.5	2.8
353.15	2.0016	341.77	2.28
353.15	3.0028	341.88	2.06
358.15	0.0201	336	70
358.15	0.05	356	28
358.15	0.0999	352.4	14.7
358.15	0.2501	350.5	6.3
358.15	0.4998	349.5	3.9
358.15	1	348.2	2.8
358.15	2.0016	343.88	2.26
358.15	3.0028	343.6	2.05
363.15	0.0201	337	68
363.15	0.05	357	28
363.15	0.0999	353	14.3
363.15	0.2501	351.1	6.3
363.15	0.4998	350	3.9
363.15	1	348.7	2.8
363.15	2.0016	345.8	2.3
363.15	3.0028	344.06	2.08

System: meso-1,2,3,4-butanetetrol + water; phases: Liquid
Fixed: Pressure, kPa = 350
Property: Mass density, kg/m3 (Liquid); method: VIBTUB:UFactor:4
Temperature, K	Molality, mol/kg of meso-1,2,3,4-butanetetrol	Mass density, kg/m3	uncertainty
278.15	0.0201	1000.64	0.17
278.15	0.05	1001.78	0.17
278.15	0.0999	1003.47	0.17
278.15	0.2501	1009.14	0.19
278.15	0.4998	1017.67	0.2
278.15	1	1034.19	0.24
278.15	2.0016	1062.98	0.3
278.15	3.0028	1087.04	0.35
283.15	0.0201	1000.38	0.17
283.15	0.05	1001.54	0.17
283.15	0.0999	1003.19	0.17
283.15	0.2501	1008.79	0.18
283.15	0.4998	1017.48	0.2
283.15	1	1033.48	0.24
283.15	2.0016	1061.96	0.3
283.15	3.0028	1085.8	0.35
288.15	0.0201	999.84	0.17
288.15	0.05	1000.96	0.17
288.15	0.0999	1002.66	0.17
288.15	0.2501	1008.13	0.18
288.15	0.4998	1016.68	0.2
288.15	1	1032.49	0.23
288.15	2.0016	1060.61	0.29
288.15	3.0028	1084.24	0.34
298.15	0.0201	997.79	0.17
298.15	0.05	998.88	0.17
298.15	0.0999	1000.55	0.17
298.15	0.2501	1005.86	0.18
298.15	0.4998	1014.19	0.2
298.15	1	1029.78	0.23
298.15	2.0016	1057.38	0.29
298.15	3.0028	1080.61	0.34
308.15	0.0201	994.74	0.18
308.15	0.05	995.77	0.18
308.15	0.0999	997.29	0.17
308.15	0.2501	1002.7	0.17
308.15	0.4998	1010.88	0.19
308.15	1	1026.18	0.22
308.15	2.0016	1053.42	0.28
308.15	3.0028	1076.46	0.33
318.15	0.0201	990.96	0.19
318.15	0.05	991.95	0.18
318.15	0.0999	993.44	0.18
318.15	0.2501	998.78	0.17
318.15	0.4998	1006.84	0.18
318.15	1	1021.96	0.21
318.15	2.0016	1048.89	0.27
318.15	3.0028	1071.67	0.32
328.15	0.0201	986.49	0.2
328.15	0.05	987.47	0.19
328.15	0.0999	988.94	0.19
328.15	0.2501	994.21	0.18
328.15	0.4998	1002.15	0.17
328.15	1	1017.15	0.2
328.15	2.0016	1043.78	0.26
328.15	3.0028	1066.4	0.31
338.15	0.0201	981.39	0.21
338.15	0.05	982.33	0.2
338.15	0.0999	983.83	0.2
338.15	0.2501	988.99	0.19
338.15	0.4998	996.87	0.17
338.15	1	1011.73	0.19
338.15	2.0016	1038.15	0.25
338.15	3.0028	1060.56	0.29
348.15	0.0201	975.69	0.22
348.15	0.05	976.65	0.22
348.15	0.0999	978.12	0.21
348.15	0.2501	983.23	0.2
348.15	0.4998	991.14	0.19
348.15	1	1005.88	0.18
348.15	2.0016	1032.07	0.24
348.15	3.0028	1054.35	0.28
358.15	0.0201	969.51	0.23
358.15	0.05	970.13	0.23
358.15	0.0999	971.92	0.23
358.15	0.2501	976.99	0.22
358.15	0.4998	984.82	0.2
358.15	1	999.52	0.17
358.15	2.0016	1025.52	0.22
358.15	3.0028	1047.59	0.27
368.15	0.0201	962.63	0.25
368.15	0.05	963.59	0.24
368.15	0.0999	965.08	0.24
368.15	0.2501	970.07	0.23
368.15	0.4998	978.02	0.22
368.15	1	992.7	0.19
368.15	2.0016	1018.73	0.21
368.15	3.0028	1041.19	0.26

System: cis-1,2,3,5-trans-4,6-cyclohexanehexol + water; phases: Liquid
Fixed: Pressure, kPa = 350
Property: Apparent molar heat capacity, J/K/mol (Liquid); method: Extra sensitive DSC
Temperature, K	Molality, mol/kg of cis-1,2,3,5-trans-4,6-cyclohexanehexol	Apparent molar heat capacity, J/K/mol	uncertainty
278.15	0.02	255	75
278.15	0.05	253	30
278.15	0.0814	256.7	19.2
278.15	0.1	267.7	16
278.15	0.1028	257.3	15.7
278.15	0.248	263.1	8.5
278.15	0.3973	262.1	7.2
278.15	0.4994	269.8	6.9
283.15	0.02	287	72
283.15	0.05	285	28
283.15	0.0814	292.1	18.7
283.15	0.1	295.6	15.5
283.15	0.1028	284.4	15.2
283.15	0.248	290.5	8.2
283.15	0.3973	289	6.8
283.15	0.4994	295.3	6.5
288.15	0.02	312	67
288.15	0.05	312	27
288.15	0.0814	323	18.5
288.15	0.1	319.7	15
288.15	0.1028	306	14.7
288.15	0.248	312.7	7.8
288.15	0.3973	311.2	6.5
288.15	0.4994	316.4	6.2
293.15	0.02	332	65
293.15	0.05	332	27
293.15	0.0814	342.6	17.5
293.15	0.1	339	14.3
293.15	0.1028	326	14
293.15	0.248	331.5	7.5
293.15	0.3973	329.9	6.3
293.15	0.4994	334.1	6
298.15	0.02	347	62
298.15	0.05	348	25
298.15	0.0814	358.6	16.6
298.15	0.1	354.4	13.7
298.15	0.1028	343.7	13.4
298.15	0.248	347.5	7.2
298.15	0.3973	345.6	6
298.15	0.4994	349.1	5.8
303.15	0.02	362	58
303.15	0.05	362.7	23.8
303.15	0.0814	371.2	15.8
303.15	0.1	367.4	13
303.15	0.1028	358.9	12.7
303.15	0.248	361.3	7
303.15	0.3973	359	5.8
303.15	0.4994	361.9	5.6
308.15	0.02	374	57
308.15	0.05	374.4	22.9
308.15	0.0814	381.2	15
308.15	0.1	378.5	12.4
308.15	0.1028	371.6	12.1
308.15	0.248	373.2	6.7
308.15	0.3973	370.4	5.6
308.15	0.4994	373	5.5
313.15	0.02	386	54
313.15	0.05	385.5	21.9
313.15	0.0814	390.4	14.4
313.15	0.1	388.5	12
313.15	0.1028	382.8	11.7
313.15	0.248	383.6	6.5
313.15	0.3973	380.5	5.6
313.15	0.4994	382.7	5.3
318.15	0.02	395	51
318.15	0.05	394.7	21.1
318.15	0.0814	398.6	14
318.15	0.1	397.3	11.5
318.15	0.1028	392.5	11.3
318.15	0.248	392.7	6.4
318.15	0.3973	389.4	5.5
318.15	0.4994	391.3	5.3
323.15	0.02	403	50
323.15	0.05	402.6	20.2
323.15	0.0814	405.9	13.4
323.15	0.1	405	11.1
323.15	0.1028	401	11
323.15	0.248	400.7	6.2
323.15	0.3973	397.3	5.3
323.15	0.4994	398.9	5.1
328.15	0.02	410	47
328.15	0.05	409.6	19.5
328.15	0.0814	412.6	13
328.15	0.1	411.7	10.9
328.15	0.1028	408.3	10.6
328.15	0.248	407.8	6.1
328.15	0.3973	404.3	5.3
328.15	0.4994	405.6	5.1
333.15	0.02	416	46
333.15	0.05	415.7	18.7
333.15	0.0814	418.7	12.6
333.15	0.1	417.8	10.5
333.15	0.1028	414.9	10.3
333.15	0.248	414.1	6.1
333.15	0.3973	410.5	5.1
333.15	0.4994	411.6	5
338.15	0.02	421	43
338.15	0.05	421.5	18.1
338.15	0.0814	424.1	12.2
338.15	0.1	423.2	10.2
338.15	0.1028	420.6	10.1
338.15	0.248	419.6	5.9
338.15	0.3973	416.1	5.1
338.15	0.4994	416.9	5
343.15	0.02	427	42
343.15	0.05	426.7	17.4
343.15	0.0814	429	11.8
343.15	0.1	427.9	10
343.15	0.1028	425.9	9.7
343.15	0.248	424.6	5.8
343.15	0.3973	421	5.2
343.15	0.4994	421.6	5
348.15	0.02	430.7	40.6
348.15	0.05	431.2	17
348.15	0.0814	433.3	11.5
348.15	0.1	431.9	9.8
348.15	0.1028	430.3	9.5
348.15	0.248	428.9	5.8
348.15	0.3973	425.2	5
348.15	0.4994	425.8	4.8
353.15	0.02	435.4	39.7
353.15	0.05	435.4	16.5
353.15	0.0814	437.2	11.2
353.15	0.1	435.3	9.5
353.15	0.1028	434.1	9.4
353.15	0.248	432.5	5.8
353.15	0.3973	428.9	5
353.15	0.4994	429.3	4.8
358.15	0.02	439.4	39.8
358.15	0.05	439	16.5
358.15	0.0814	440.6	10.9
358.15	0.1	438.3	9.3
358.15	0.1028	437.2	9.2
358.15	0.248	435.7	5.7
358.15	0.3973	432	5
358.15	0.4994	432.4	4.8
363.15	0.02	442.2	39.8
363.15	0.05	441.7	16.5
363.15	0.0814	443.4	10.9
363.15	0.1	440.5	9.2
363.15	0.1028	439.4	9.1
363.15	0.248	438.2	5.7
363.15	0.3973	434.6	5
363.15	0.4994	434.8	4.8

System: cis-1,2,3,5-trans-4,6-cyclohexanehexol + water; phases: Liquid
Fixed: Pressure, kPa = 350
Property: Mass density, kg/m3 (Liquid); method: VIBTUB:UFactor:4
Temperature, K	Molality, mol/kg of cis-1,2,3,5-trans-4,6-cyclohexanehexol	Mass density, kg/m3	uncertainty
278.15	0.02	1001.54	0.19
278.15	0.05	1004.04	0.19
278.15	0.0814	1006.68	0.19
278.15	0.1	1007.83	0.27
278.15	0.1028	1008.39	0.27
278.15	0.248	1020.11	0.22
278.15	0.3973	1031.74	0.24
278.15	0.4994	1039.85	0.26
283.15	0.02	1001.49	0.19
283.15	0.05	1003.92	0.19
283.15	0.0814	1006.57	0.19
283.15	0.1	1007.67	0.29
283.15	0.1028	1008.13	0.21
283.15	0.248	1019.58	0.22
283.15	0.3973	1030.95	0.24
283.15	0.4994	1038.94	0.26
288.15	0.02	1000.86	0.19
288.15	0.05	1003.27	0.19
288.15	0.0814	1005.89	0.19
288.15	0.1	1006.92	0.3
288.15	0.1028	1007.43	0.21
288.15	0.248	1018.73	0.22
288.15	0.3973	1029.97	0.24
288.15	0.4994	1037.9	0.25
298.15	0.02	998.75	0.19
298.15	0.05	1001.13	0.18
298.15	0.0814	1003.66	0.18
298.15	0.1	1004.63	0.34
298.15	0.1028	1005.15	0.19
298.15	0.248	1016.29	0.21
298.15	0.3973	1027.32	0.23
298.15	0.4994	1035.14	0.25
308.15	0.02	995.69	0.19
308.15	0.05	998.05	0.18
308.15	0.0814	1000.51	0.18
308.15	0.1	1001.45	0.33
308.15	0.1028	1001.99	0.2
308.15	0.248	1012.97	0.2
308.15	0.3973	1023.83	0.23
308.15	0.4994	1031.55	0.24
318.15	0.02	991.86	0.2
318.15	0.05	994.19	0.19
318.15	0.0814	996.61	0.18
318.15	0.1	997.52	0.32
318.15	0.1028	998.07	0.2
318.15	0.248	1008.92	0.2
318.15	0.3973	1019.64	0.22
318.15	0.4994	1027.27	0.23
328.15	0.02	987.32	0.21
328.15	0.05	989.63	0.2
328.15	0.0814	992.01	0.19
328.15	0.1	992.93	0.32
328.15	0.1028	993.47	0.22
328.15	0.248	1004.2	0.19
328.15	0.3973	1014.83	0.21
328.15	0.4994	1022.36	0.22
338.15	0.02	982.18	0.22
338.15	0.05	984.47	0.21
338.15	0.0814	986.82	0.2
338.15	0.1	987.73	0.32
338.15	0.1028	988.27	0.23
338.15	0.248	998.91	0.18
338.15	0.3973	1009.45	0.2
338.15	0.4994	1016.94	0.21
348.15	0.02	976.46	0.23
348.15	0.05	978.72	0.22
348.15	0.0814	981.07	0.22
348.15	0.1	981.98	0.32
348.15	0.1028	982.51	0.24
348.15	0.248	993.1	0.19
348.15	0.3973	1003.55	0.19
348.15	0.4994	1010.99	0.2
358.15	0.02	970.24	0.24
358.15	0.05	972.5	0.24
358.15	0.0814	974.84	0.23
358.15	0.1	975.72	0.32
358.15	0.1028	976.24	0.25
358.15	0.248	986.78	0.21
358.15	0.3973	997.2	0.19
358.15	0.4994	1004.59	0.19
368.15	0.02	963.51	0.25
368.15	0.05	965.76	0.25
368.15	0.0814	968.11	0.24
368.15	0.1	969.08	0.27
368.15	0.1028	969.48	0.27
368.15	0.248	980	0.22
368.15	0.3973	990.36	0.2
368.15	0.4994	997.73	0.19

System: D-sorbitol + water; phases: Liquid
Fixed: Pressure, kPa = 350
Property: Apparent molar heat capacity, J/K/mol (Liquid); method: Extra sensitive DSC
Temperature, K	Molality, mol/kg of D-sorbitol	Apparent molar heat capacity, J/K/mol	uncertainty
278.15	0.02	373	52
278.15	0.04	346.7	26.2
278.15	0.069	355.4	16.4
278.15	0.1997	360.1	8.7
278.15	0.4003	363.3	6.9
278.15	0.6991	367.7	6.1
278.15	0.9784	372.3	5.8
278.15	1.501	372.1	5.2
278.15	2.0042	383.7	4.9
283.15	0.02	391	51
283.15	0.04	366.7	25.8
283.15	0.069	374.6	16
283.15	0.1997	378.8	8.1
283.15	0.4003	381.8	6.3
283.15	0.6991	385.6	5.5
283.15	0.9784	389.4	5
283.15	1.501	389.4	4.6
283.15	2.0042	399.4	4.4
288.15	0.02	406	51
288.15	0.04	382.5	25.7
288.15	0.069	389.8	15.9
288.15	0.1997	393.7	7.9
288.15	0.4003	396.3	6.2
288.15	0.6991	399.5	5.3
288.15	0.9784	402.8	4.9
288.15	1.501	402	4.4
288.15	2.0042	411.5	4.2
293.15	0.02	418	51
293.15	0.04	395.4	25.8
293.15	0.069	402.5	15.9
293.15	0.1997	406.4	7.8
293.15	0.4003	408.9	6
293.15	0.6991	411.6	5.2
293.15	0.9784	414.4	4.7
293.15	1.501	413.2	4.2
293.15	2.0042	422	4
298.15	0.02	429	51
298.15	0.04	406.9	25.8
298.15	0.069	413.8	15.9
298.15	0.1997	417.4	7.8
298.15	0.4003	419.5	5.8
298.15	0.6991	421.9	5
298.15	0.9784	424.4	4.7
298.15	1.501	422.7	4.2
298.15	2.0042	430.9	3.8
303.15	0.02	439	51
303.15	0.04	417.1	26
303.15	0.069	423.6	15.9
303.15	0.1997	426.9	7.6
303.15	0.4003	428.9	5.7
303.15	0.6991	430.9	5
303.15	0.9784	433.1	4.5
303.15	1.501	431.1	4
303.15	2.0042	438.8	3.8
308.15	0.02	447	51
308.15	0.04	425.7	26
308.15	0.069	432	16
308.15	0.1997	435.3	7.6
308.15	0.4003	437	5.7
308.15	0.6991	438.8	4.8
308.15	0.9784	440.7	4.5
308.15	1.501	438.4	4.1
308.15	2.0042	445.8	3.8
313.15	0.02	455	51
313.15	0.04	432.5	26.2
313.15	0.069	439.5	16.1
313.15	0.1997	442.6	7.7
313.15	0.4003	444.2	5.7
313.15	0.6991	445.8	4.8
313.15	0.9784	447.5	4.3
313.15	1.501	445.1	4.1
313.15	2.0042	452.2	3.6
318.15	0.02	462	51
318.15	0.04	439.7	26.2
318.15	0.069	446.1	16.1
318.15	0.1997	449.1	7.5
318.15	0.4003	450.6	5.5
318.15	0.6991	452	4.8
318.15	0.9784	453.6	4.3
318.15	1.501	451	3.9
318.15	2.0042	457.8	3.7
323.15	0.02	468	51
323.15	0.04	446	26.3
323.15	0.069	451.9	16.1
323.15	0.1997	455	7.5
323.15	0.4003	456.3	5.5
323.15	0.6991	457.6	4.6
323.15	0.9784	459	4.3
323.15	1.501	456.5	3.9
323.15	2.0042	463	3.7
328.15	0.02	473	51
328.15	0.04	450.8	26.5
328.15	0.069	457.2	16.3
328.15	0.1997	460.2	7.5
328.15	0.4003	461.5	5.5
328.15	0.6991	462.7	4.7
328.15	0.9784	464	4.4
328.15	1.501	461.4	3.9
328.15	2.0042	467.6	3.7
333.15	0.02	478	53
333.15	0.04	456.4	26.6
333.15	0.069	462	16.3
333.15	0.1997	464.9	7.5
333.15	0.4003	466.2	5.5
333.15	0.6991	467.3	4.7
333.15	0.9784	468.5	4.2
333.15	1.501	465.9	3.9
333.15	2.0042	471.9	3.5
338.15	0.02	482	53
338.15	0.04	460.5	26.8
338.15	0.069	466.2	16.3
338.15	0.1997	469.2	7.5
338.15	0.4003	470.5	5.4
338.15	0.6991	471.5	4.7
338.15	0.9784	472.6	4.2
338.15	1.501	470.1	3.9
338.15	2.0042	475.8	3.5
343.15	0.02	486	53
343.15	0.04	464	26.9
343.15	0.069	470	16.5
343.15	0.1997	473	7.5
343.15	0.4003	474.3	5.4
343.15	0.6991	475.3	4.7
343.15	0.9784	476.3	4.2
343.15	1.501	473.9	3.7
343.15	2.0042	479.3	3.5
348.15	0.02	489	53
348.15	0.04	467.7	26.9
348.15	0.069	473.3	16.5
348.15	0.1997	476.4	7.5
348.15	0.4003	477.7	5.4
348.15	0.6991	478.6	4.5
348.15	0.9784	479.7	4.2
348.15	1.501	477.3	3.7
348.15	2.0042	482.4	3.5
353.15	0.02	492	53
353.15	0.04	472.1	27.1
353.15	0.069	476.2	16.6
353.15	0.1997	479.4	7.5
353.15	0.4003	480.6	5.4
353.15	0.6991	481.6	4.5
353.15	0.9784	482.6	4.2
353.15	1.501	480.4	3.7
353.15	2.0042	485.2	3.5
358.15	0.02	494	53
358.15	0.04	480.2	27.2
358.15	0.069	478.7	16.6
358.15	0.1997	481.7	7.5
358.15	0.4003	483	5.4
358.15	0.6991	483.9	4.5
358.15	0.9784	484.8	4.2
358.15	1.501	483.2	3.7
358.15	2.0042	487.4	3.5
363.15	0.02	495	54
363.15	0.04	508	27
363.15	0.069	479.6	16.8
363.15	0.1997	482.5	7.5
363.15	0.4003	483.7	5.4
363.15	0.6991	484.6	4.5
363.15	0.9784	485.5	4.2
363.15	1.501	485.7	3.7
363.15	2.0042	487.9	3.5

System: D-sorbitol + water; phases: Liquid
Fixed: Pressure, kPa = 350
Property: Mass density, kg/m3 (Liquid); method: VIBTUB:UFactor:4
Temperature, K	Molality, mol/kg of D-sorbitol	Mass density, kg/m3	uncertainty
278.15	0.02	1001.46	0.18
278.15	0.04	1002.79	0.18
278.15	0.069	1005.09	0.19
278.15	0.1997	1013.23	0.2
278.15	0.4003	1025.52	0.22
278.15	0.6991	1042.94	0.26
278.15	0.9784	1057.65	0.29
278.15	1.501	1082.71	0.34
278.15	2.0042	1104.6	0.38
283.15	0.02	1001.14	0.18
283.15	0.04	1002.47	0.18
283.15	0.069	1004.71	0.19
283.15	0.1997	1012.74	0.2
283.15	0.4003	1024.88	0.22
283.15	0.6991	1042.11	0.26
283.15	0.9784	1056.73	0.28
283.15	1.501	1081.57	0.34
283.15	2.0042	1103.19	0.38
288.15	0.02	1000.48	0.18
288.15	0.04	1001.81	0.18
288.15	0.069	1003.99	0.18
288.15	0.1997	1011.95	0.2
288.15	0.4003	1023.96	0.22
288.15	0.6991	1041	0.25
288.15	0.9784	1055.55	0.28
288.15	1.501	1080.23	0.33
288.15	2.0042	1101.6	0.38
298.15	0.02	998.4	0.18
298.15	0.04	999.67	0.18
298.15	0.069	1001.72	0.18
298.15	0.1997	1009.58	0.19
298.15	0.4003	1021.39	0.22
298.15	0.6991	1038.13	0.25
298.15	0.9784	1052.5	0.28
298.15	1.501	1076.86	0.33
298.15	2.0042	1097.81	0.37
308.15	0.02	995.35	0.19
308.15	0.04	996.6	0.18
308.15	0.069	998.45	0.18
308.15	0.1997	1006.4	0.19
308.15	0.4003	1018.06	0.21
308.15	0.6991	1034.6	0.24
308.15	0.9784	1048.63	0.27
308.15	1.501	1072.81	0.32
308.15	2.0042	1093.63	0.36
318.15	0.02	991.53	0.2
318.15	0.04	992.78	0.19
318.15	0.069	994.56	0.18
318.15	0.1997	1002.41	0.18
318.15	0.4003	1013.97	0.2
318.15	0.6991	1030.3	0.23
318.15	0.9784	1044.19	0.26
318.15	1.501	1068.13	0.31
318.15	2.0042	1088.73	0.35
328.15	0.02	987.02	0.2
328.15	0.04	988.24	0.2
328.15	0.069	989.98	0.19
328.15	0.1997	997.75	0.18
328.15	0.4003	1009.18	0.19
328.15	0.6991	1025.35	0.22
328.15	0.9784	1039.16	0.25
328.15	1.501	1062.99	0.3
328.15	2.0042	1083.37	0.34
338.15	0.02	981.86	0.21
338.15	0.04	983.14	0.21
338.15	0.069	984.86	0.2
338.15	0.1997	992.6	0.19
338.15	0.4003	1003.94	0.18
338.15	0.6991	1020.02	0.21
338.15	0.9784	1033.71	0.24
338.15	1.501	1057.29	0.29
338.15	2.0042	1077.49	0.33
348.15	0.02	976.44	0.23
348.15	0.04	977.62	0.22
348.15	0.069	979.35	0.21
348.15	0.1997	987.03	0.2
348.15	0.4003	998.25	0.18
348.15	0.6991	1014.26	0.2
348.15	0.9784	1027.75	0.23
348.15	1.501	1051.07	0.27
348.15	2.0042	1071.23	0.32
358.15	0.02	969.9	0.24
358.15	0.04	971.49	0.23
358.15	0.069	972.88	0.23
358.15	0.1997	980.97	0.21
358.15	0.4003	991.75	0.19
358.15	0.6991	1007.73	0.19
358.15	0.9784	1021.37	0.22
358.15	1.501	1044.38	0.26
358.15	2.0042	1064.53	0.3
368.15	0.02	963.45	0.25
368.15	0.04	964.68	0.25
368.15	0.069	966.4	0.24
368.15	0.1997	974.03	0.23
368.15	0.4003	985.25	0.21
368.15	0.6991	1001.2	0.18
368.15	0.9784	1014.47	0.2
368.15	1.501	1037.56	0.25
368.15	2.0042	1057.91	0.29

System: xylitol + water; phases: Liquid
Fixed: Pressure, kPa = 350
Property: Apparent molar heat capacity, J/K/mol (Liquid); method: Extra sensitive DSC
Temperature, K	Molality, mol/kg of xylitol	Apparent molar heat capacity, J/K/mol	uncertainty
278.15	0.0499	278.9	21.3
278.15	0.1	288.4	11.8
278.15	0.4001	293.3	6.1
278.15	0.7496	297.2	5.2
278.15	1.0011	299.5	5
278.15	1.4975	303.4	4.5
278.15	1.997	301.8	4.3
278.15	2.7006	311.1	4.1
283.15	0.0499	296.8	21.1
283.15	0.1	306.1	11.6
283.15	0.4001	310.2	5.6
283.15	0.7496	313.4	4.7
283.15	1.0011	315.6	4.4
283.15	1.4975	318.5	4
283.15	1.997	317.4	3.7
283.15	2.7006	325	3.5
288.15	0.0499	310.8	21.1
288.15	0.1	319.8	11.6
288.15	0.4001	323.4	5.4
288.15	0.7496	326.2	4.5
288.15	1.0011	328.1	4.2
288.15	1.4975	330.3	3.8
288.15	1.997	328.7	3.6
288.15	2.7006	335.7	3.3
293.15	0.0499	322.5	21.4
293.15	0.1	331.4	11.6
293.15	0.4001	334.8	5.2
293.15	0.7496	337.1	4.3
293.15	1.0011	338.8	4.1
293.15	1.4975	340.5	3.8
293.15	1.997	338.3	3.6
293.15	2.7006	344.9	3.2
298.15	0.0499	332.9	21.6
298.15	0.1	341.6	11.6
298.15	0.4001	344.5	5.1
298.15	0.7496	346.5	4.3
298.15	1.0011	347.8	4.1
298.15	1.4975	349.2	3.6
298.15	1.997	346.7	3.4
298.15	2.7006	352.9	3.2
303.15	0.0499	342	21.9
303.15	0.1	350.4	11.8
303.15	0.4001	352.9	5.1
303.15	0.7496	354.6	4.2
303.15	1.0011	355.8	3.9
303.15	1.4975	356.9	3.6
303.15	1.997	354	3.4
303.15	2.7006	359.9	3
308.15	0.0499	349.7	22.3
308.15	0.1	358.1	11.9
308.15	0.4001	360.4	5.1
308.15	0.7496	361.7	4.2
308.15	1.0011	362.8	3.9
308.15	1.4975	363.6	3.4
308.15	1.997	360.6	3.2
308.15	2.7006	366.2	3
313.15	0.0499	356.5	22.6
313.15	0.1	365	12.1
313.15	0.4001	367	5.1
313.15	0.7496	368.1	4.2
313.15	1.0011	369.1	3.7
313.15	1.4975	369.7	3.4
313.15	1.997	366.6	3.2
313.15	2.7006	371.9	3
318.15	0.0499	362.5	23.1
318.15	0.1	370.9	12.3
318.15	0.4001	372.9	4.9
318.15	0.7496	373.8	4
318.15	1.0011	374.7	3.7
318.15	1.4975	375.2	3.4
318.15	1.997	372	3.2
318.15	2.7006	377.1	3
323.15	0.0499	368.1	23.6
323.15	0.1	376.3	12.6
323.15	0.4001	378.3	4.9
323.15	0.7496	379.1	4
323.15	1.0011	379.8	3.7
323.15	1.4975	380.2	3.4
323.15	1.997	377	3.2
323.15	2.7006	381.9	2.8
328.15	0.0499	372.9	24
328.15	0.1	381.3	12.7
328.15	0.4001	383.2	4.9
328.15	0.7496	383.8	4
328.15	1.0011	384.5	3.7
328.15	1.4975	384.7	3.3
328.15	1.997	381.6	3
328.15	2.7006	386.3	2.8
333.15	0.0499	377.6	24.5
333.15	0.1	385.7	13.1
333.15	0.4001	387.6	4.9
333.15	0.7496	388.2	4
333.15	1.0011	388.8	3.7
333.15	1.4975	389	3.3
333.15	1.997	385.9	3
333.15	2.7006	390.4	2.8
338.15	0.0499	382	25
338.15	0.1	389.8	13.2
338.15	0.4001	391.8	5.1
338.15	0.7496	392.3	4
338.15	1.0011	392.9	3.6
338.15	1.4975	392.9	3.3
338.15	1.997	389.9	3
338.15	2.7006	394.2	2.8
343.15	0.0499	385	25
343.15	0.1	393.6	13.6
343.15	0.4001	395.5	5.1
343.15	0.7496	395.9	4
343.15	1.0011	396.5	3.6
343.15	1.4975	396.5	3.3
343.15	1.997	393.5	3
343.15	2.7006	397.7	2.8
348.15	0.0499	389	27
348.15	0.1	396.9	13.7
348.15	0.4001	398.9	5.1
348.15	0.7496	399.3	4
348.15	1.0011	399.9	3.6
348.15	1.4975	399.9	3.3
348.15	1.997	397	3
348.15	2.7006	400.9	2.8
353.15	0.0499	392	27
353.15	0.1	400	14
353.15	0.4001	401.9	5.1
353.15	0.7496	402.3	4
353.15	1.0011	402.9	3.6
353.15	1.4975	402.9	3.3
353.15	1.997	400.2	3.1
353.15	2.7006	403.9	2.8
358.15	0.0499	394	27
358.15	0.1	402.5	14.4
358.15	0.4001	404.6	5.1
358.15	0.7496	404.9	4
358.15	1.0011	405.5	3.6
358.15	1.4975	405.5	3.3
358.15	1.997	403.2	3.1
358.15	2.7006	406.4	2.8
363.15	0.0499	396	28
363.15	0.1	404	14.6
363.15	0.4001	405.9	5.3
363.15	0.7496	406.2	4
363.15	1.0011	406.8	3.6
363.15	1.4975	406.7	3.3
363.15	1.997	405.9	3.1
363.15	2.7006	407.6	2.8

System: xylitol + water; phases: Liquid
Fixed: Pressure, kPa = 350
Property: Mass density, kg/m3 (Liquid); method: VIBTUB:UFactor:4
Temperature, K	Molality, mol/kg of xylitol	Mass density, kg/m3	uncertainty
278.15	0.0499	1002.96	0.18
278.15	0.1	1005.41	0.18
278.15	0.4001	1020.49	0.21
278.15	0.7496	1036.91	0.24
278.15	1.0011	1047.83	0.27
278.15	1.4975	1067.95	0.31
278.15	1.997	1086.45	0.35
278.15	2.7006	1109.42	0.4
283.15	0.0499	1002.63	0.18
283.15	0.1	1005.03	0.18
283.15	0.4001	1019.9	0.21
283.15	0.7496	1036.06	0.24
283.15	1.0011	1046.82	0.26
283.15	1.4975	1066.63	0.31
283.15	1.997	1084.9	0.34
283.15	2.7006	1107.65	0.39
288.15	0.0499	1001.96	0.17
288.15	0.1	1004.34	0.18
288.15	0.4001	1019.04	0.21
288.15	0.7496	1035	0.24
288.15	1.0011	1045.65	0.26
288.15	1.4975	1065.25	0.3
288.15	1.997	1083.35	0.34
288.15	2.7006	1105.88	0.39
298.15	0.0499	999.86	0.17
298.15	0.1	1002.2	0.17
298.15	0.4001	1016.61	0.2
298.15	0.7496	1032.27	0.24
298.15	1.0011	1042.69	0.26
298.15	1.4975	1061.92	0.3
298.15	1.997	1079.8	0.33
298.15	2.7006	1101.9	0.38
308.15	0.0499	996.7	0.2
308.15	0.1	999	0.2
308.15	0.4001	1013.2	0.2
308.15	0.7496	1028.7	0.2
308.15	1.0011	1038.8	0.3
308.15	1.4975	1057.9	0.3
308.15	1.997	1075.2	0.3
308.15	2.7006	1097.2	0.4
318.15	0.0499	992.82	0.19
318.15	0.1	995.17	0.18
318.15	0.4001	1009.11	0.19
318.15	0.7496	1024.37	0.22
318.15	1.0011	1034.54	0.24
318.15	1.4975	1053.25	0.28
318.15	1.997	1070.4	0.31
318.15	2.7006	1092.04	0.36
328.15	0.0499	988.29	0.19
328.15	0.1	990.59	0.19
328.15	0.4001	1004.39	0.18
328.15	0.7496	1019.46	0.21
328.15	1.0011	1029.53	0.23
328.15	1.4975	1048.03	0.27
328.15	1.997	1064.94	0.3
328.15	2.7006	1086.4	0.35
338.15	0.0499	983.12	0.21
338.15	0.1	985.45	0.2
338.15	0.4001	999.12	0.17
338.15	0.7496	1014.03	0.2
338.15	1.0011	1023.97	0.22
338.15	1.4975	1042.32	0.26
338.15	1.997	1059.03	0.29
338.15	2.7006	1080.39	0.34
348.15	0.0499	977.37	0.22
348.15	0.1	979.76	0.21
348.15	0.4001	993.29	0.19
348.15	0.7496	1008.12	0.19
348.15	1.0011	1017.97	0.21
348.15	1.4975	1036.22	0.25
348.15	1.997	1052.82	0.28
348.15	2.7006	1074.02	0.32
358.15	0.0499	971.43	0.23
358.15	0.1	973.65	0.22
358.15	0.4001	986.64	0.2
358.15	0.7496	1001.31	0.18
358.15	1.0011	1011.25	0.2
358.15	1.4975	1029.33	0.23
358.15	1.997	1045.42	0.27
358.15	2.7006	1066.46	0.31
368.15	0.0499	964.45	0.25
368.15	0.1	966.77	0.24
368.15	0.4001	980.22	0.21
368.15	0.7496	994.89	0.18
368.15	1.0011	1004.67	0.18
368.15	1.4975	1022.74	0.22
368.15	1.997	1039.27	0.25
368.15	2.7006	1060.25	0.3
