Measured thermophysical data. Low temperature heat capacity and thermodynamic functions of anion bearing sodalites Na8Al6Si6O24X2 (X = SO4, ReO4, Cl, I)
Source: J. Chem. Thermodyn., 2017, 10.1016/j.jct.2017.05.035
Compound 1: sodium perrhenate, NaO4Re, InChI=1S/Na.4O.Re/q+1;;;;-1;

System: sodium perrhenate; phases: Crystal
Fixed: Pressure, kPa = 101.325
Property: Molar heat capacity at constant pressure, J/K/mol (Crystal); method: RELAXCAL
Temperature, K	Molar heat capacity at constant pressure, J/K/mol	uncertainty
1.8976	0.0060155	0.000393
2.0362	0.007494	0.0004605
2.1753	0.0091921	0.0005357
2.3135	0.011087	0.00059
2.4535	0.013214	0.00067
2.5908	0.015502	0.000757
2.7292	0.018138	0.00086
2.8673	0.020937	0.00097
3.0081	0.024284	0.001114
3.1454	0.027823	0.001265
3.283	0.031729	0.001429
3.4214	0.035889	0.001598
3.5586	0.040407	0.001791
3.6968	0.04553	0.002008
3.8362	0.05125	0.002245
3.9755	0.05777	0.002515
4.1151	0.064337	0.002786
4.2545	0.07091	0.003063
4.3939	0.076809	0.003314
4.5346	0.085085	0.003659
4.6665	0.094005	0.004034
4.8083	0.10238	0.00437
4.9449	0.11182	0.00477
5.082	0.12132	0.00516
5.2238	0.13294	0.00564
5.3615	0.14441	0.00612
5.5011	0.15727	0.00665
5.6387	0.17173	0.00726
5.7842	0.18301	0.00772
5.9171	0.19827	0.00835
6.0628	0.21384	0.009
6.2166	0.23112	0.0097
6.3544	0.24871	0.01043
6.4953	0.26762	0.01121
6.6345	0.29106	0.01216
6.7584	0.30692	0.01282
6.8994	0.32771	0.01367
7.047	0.35242	0.01469
7.1773	0.37176	0.0155
7.3191	0.39928	0.01662
7.4627	0.42689	0.01774
7.6023	0.45243	0.01879
7.739	0.47684	0.01979
7.8786	0.5037	0.02089
8.0204	0.53582	0.02221
8.1613	0.5695	0.02358
8.3004	0.60161	0.02489
8.4406	0.63273	0.02616
8.5791	0.67219	0.02775
8.7163	0.70604	0.02914
8.8567	0.74057	0.03054
8.9947	0.78186	0.0322
9.1344	0.82073	0.03389
9.274	0.86202	0.03555
9.412	0.90107	0.03713
9.6461	0.97164	0.03998
10.732	1.3455	0.0527
11.931	1.8469	0.0721
13.274	2.4912	0.0971
14.755	3.3283	0.1294
16.413	4.322	0.1679
18.25	5.5343	0.2148
20.333	7.0282	0.2726
22.588	8.7166	0.3379
25.112	10.708	0.415
27.923	12.998	0.504
31.05	15.684	0.608
34.52	18.762	0.727
38.384	22.186	0.859
42.688	26.03	1.008
47.468	30.062	1.164
52.789	34.408	1.333
58.703	38.96	1.509
65.28	43.818	1.697
72.604	48.836	1.891
80.754	54.364	2.106
89.822	60.216	2.332
99.899	65.545	2.539
111.12	70.986	2.749
121.23	75.267	2.915
131.3	79.272	3.07
141.35	82.968	3.213
151.48	86.411	3.347
161.57	89.288	3.458
171.61	92.035	3.565
181.71	94.833	3.673
191.85	97.265	3.767
201.95	99.992	3.873
212.05	102.06	3.95
222.15	104.42	4.04
232.23	106.27	4.12
242.31	107.96	4.18
252.37	109.91	4.26
262.46	111.12	4.3
272.61	112.56	4.36
282.7	114.37	4.43
292.71	115.66	4.48
302.9	117.08	4.53

System: sodium perrhenate; phases: Crystal
Fixed: Pressure, kPa = 101.325
Property: Molar heat capacity at constant pressure, J/K/mol (Crystal); method: RELAXCAL
Temperature, K	Molar heat capacity at constant pressure, J/K/mol	uncertainty
1	0.0008849	0.0001295
2	0.007103	0.000371
3	0.02416	0.00111
4	0.05809	0.00253
5	0.11616	0.00495
6	0.20746	0.00873
7	0.34292	0.01431
8	0.53327	0.0221
9	0.78079	0.0322
10	1.088	0.0446
15	3.4534	0.1342
20	6.7879	0.2633
25	10.611	0.411
30	14.759	0.572
35	19.199	0.744
40	23.684	0.917
45	27.969	1.083
50	32.085	1.243
55	36.063	1.397
60	39.917	1.546
65	43.645	1.69
70	47.239	1.83
75	50.687	1.963
80	53.978	2.091
85	57.109	2.212
90	60.077	2.327
95	62.887	2.436
100	65.544	2.539
110	70.436	2.728
120	74.833	2.898
130	78.813	3.052
140	82.447	3.193
150	85.792	3.323
160	88.892	3.443
170	91.78	3.555
180	94.48	3.659
190	97.011	3.757
200	99.388	3.849
210	101.62	3.94
220	103.72	4.02
230	105.7	4.09
240	107.56	4.17
250	109.31	4.23
260	110.95	4.3
270	112.5	4.36
273.15	112.96	4.37
280	113.95	4.41
290	115.32	4.47
298.15	116.38	4.51
300	116.61	4.52
305	117.22	4.54

System: sodium perrhenate; phases: Crystal
Fixed: Pressure, kPa = 101.325
Property: Molar entropy, J/K/mol (Crystal); method: RELAXCAL
Temperature, K	Molar entropy, J/K/mol	uncertainty
1	0.0002949	4.51e-05
2	0.002363	0.000163
3	0.008008	0.000516
4	0.01912	0.0012
5	0.0378	0.00235
6	0.06646	0.00411
7	0.10798	0.00665
8	0.16553	0.01017
9	0.24207	0.01485
10	0.3397	0.02079
15	1.1852	0.069
20	2.6192	0.1523
25	4.5379	0.2638
30	6.8343	0.3972
35	9.4392	0.5485
40	12.298	0.715
45	15.337	0.891
50	18.498	1.075
55	21.744	1.263
60	25.048	1.455
65	28.391	1.649
70	31.758	1.845
75	35.135	2.041
80	38.512	2.237
85	41.879	2.433
90	45.228	2.628
95	48.553	2.821
100	51.847	3.012
110	58.327	3.389
120	64.648	3.756
130	70.797	4.113
140	76.773	4.46
150	82.577	4.797
160	88.214	5.125
170	93.691	5.443
180	99.014	5.752
190	104.19	6.05
200	109.23	6.35
210	114.13	6.63
220	118.91	6.91
230	123.56	7.18
240	128.1	7.44
250	132.53	7.7
260	136.85	7.95
270	141.06	8.19
273.15	142.37	8.27
280	145.18	8.43
290	149.2	8.67
298.15	152.41	8.85
300	153.14	8.9
305	155.07	9.01

System: sodium perrhenate; phases: Crystal
Fixed: Pressure, kPa = 101.325
Property: Molar enthalpy, kJ/mol (Crystal); method: RELAXCAL
Temperature, K	Molar enthalpy, kJ/mol	uncertainty
1	2.212e-07	6.71e-08
2	3.546e-06	2.29e-07
3	1.803e-05	9.1e-07
4	5.747e-05	2.64e-06
5	0.0001422	6.3e-06
6	0.0003008	1.3e-05
7	0.0005719	2.43e-05
8	0.001005	4.2e-05
9	0.001657	6.9e-05
10	0.002587	0.000107
15	0.01341	0.00052
20	0.03873	0.00151
25	0.08208	0.00319
30	0.14537	0.00564
35	0.23015	0.00892
40	0.33744	0.01308
45	0.46665	0.01808
50	0.61685	0.0239
55	0.78727	0.0305
60	0.97727	0.03786
65	1.1862	0.0459
70	1.4135	0.0548
75	1.6584	0.0642
80	1.9201	0.0744
85	2.1979	0.0851
90	2.4909	0.0965
95	2.7984	0.1084
100	3.1195	0.1208
110	3.7999	0.1472
120	4.5266	0.1753
130	5.2952	0.2051
140	6.1017	0.2363
150	6.9431	0.2689
160	7.8168	0.3027
170	8.7203	0.3377
180	9.6517	0.3738
190	10.609	0.411
200	11.591	0.449
210	12.597	0.488
220	13.623	0.528
230	14.671	0.568
240	15.737	0.609
250	16.821	0.651
260	17.923	0.694
270	19.04	0.737
273.15	19.395	0.751
280	20.172	0.781
290	21.319	0.826
298.15	22.263	0.862
300	22.479	0.871
305	23.063	0.893
