Measured thermophysical data. Pressure dependence of the solubility of light fullerenes in n-nonane
Source: J. Chem. Thermodyn., 2017, 10.1016/j.jct.2017.05.017
Compound 1: buckminsterfullerene, C60, InChI=1S/C60/c1-2-5-6-3(1)8-12-10-4(1)9-11-7(2)17-21-13(5)23-24-14(6)22-18(8)28-20(12)30-26-16(10)15(9)25-29-19(11)27(17)37-41-31(21)33(23)43-44-34(24)32(22)42-38(28)48-40(30)46-36(26)35(25)45-39(29)47(37)55-49(41)51(43)57-52(44)50(42)56(48)59-54(46)53(45)58(55)60(57)59, purity 99.9%
Compound 2: fullerene carbon 70, C70, InChI=1S/C70/c1-2-22-5-6-24-13-14-26-11-9-23-4-3(21(1)51-52(22)54(24)55(26)53(23)51)33-31(1)61-35-7-8-27-15-16-29-19-20-30-18-17-28-12-10(25(7)56-57(27)59(29)60(30)58(28)56)37(35)63(33)65-36(4)40(9)67(44(17)42(12)65)69-46(11)47(14)70(50(20)49(18)69)68-43(13)39(6)66(45(16)48(19)68)64-34(5)32(2)62(61)38(8)41(15)64, purity 99.5%
Compound 3: nonane, C9H20, InChI=1S/C9H20/c1-3-5-7-9-8-6-4-2/h3-9H2,1-2H3, purity 99%

System: nonane + buckminsterfullerene; phases: Liquid, Crystal of intercomponent compound 1
Fixed: Pressure, kPa = 100
Property: Mass fraction of buckminsterfullerene (Liquid); method: Double-beam spectrophotometry
Temperature, K	Mass fraction of buckminsterfullerene	uncertainty
298.3	4.4e-05	4e-06
298.3	4.3e-05	4e-06
298.3	4.4e-05	4e-06
303.3	4.5e-05	5e-06
303.3	4.6e-05	5e-06
303.3	4.4e-05	4e-06
308.3	4.5e-05	5e-06
308.3	4.3e-05	4e-06
308.3	4.5e-05	5e-06
313.3	4.6e-05	5e-06
313.3	4.6e-05	5e-06
313.3	4.3e-05	4e-06
318.3	4.7e-05	5e-06
318.3	4.6e-05	5e-06
318.3	4.8e-05	5e-06
322.3	8.2e-05	8e-06
322.3	8.1e-05	8e-06
322.3	8e-05	8e-06
323.3	0.000139	1.5e-05
323.3	0.00014	1.5e-05
323.3	0.000142	1.5e-05

System: nonane + buckminsterfullerene; phases: Liquid, Crystal
Fixed: Pressure, kPa = 100
Property: Mass fraction of buckminsterfullerene (Liquid); method: Double-beam spectrophotometry
Temperature, K	Mass fraction of buckminsterfullerene	uncertainty
323.3	0.000139	1.4e-05
323.3	0.00014	1.4e-05
323.3	0.000142	1.4e-05
328.3	0.000149	1.5e-05
328.3	0.000146	1.5e-05
328.3	0.000145	1.5e-05
333.3	0.000155	1.6e-05
333.3	0.000151	1.5e-05
333.3	0.000152	1.5e-05
338.3	0.000158	1.6e-05
338.3	0.000161	1.6e-05
338.3	0.000162	1.6e-05
343.3	0.000165	1.7e-05
343.3	0.000174	1.7e-05
343.3	0.000176	1.8e-05
348.3	0.000207	2.1e-05
348.3	0.000198	2e-05
348.3	0.000196	2e-05
353.3	0.000225	2.3e-05
353.3	0.000222	2.2e-05
353.3	0.000223	2.2e-05

System: nonane + buckminsterfullerene; phases: Liquid, Crystal of intercomponent compound 1
Property: Vapor or sublimation pressure, kPa (Liquid); method: Closed cell (Static) method
Temperature, K	Mass fraction of buckminsterfullerene	Vapor or sublimation pressure, kPa	uncertainty
298.3	5.2e-05	29600	13500
298.3	6.2e-05	55500	16300
298.3	6.5e-05	64000	17100
298.3	7.6e-05	92500	19700
303.3	5.2e-05	20100	10200
303.3	6.2e-05	40100	15500
303.3	6.5e-05	54000	19500
303.3	7.6e-05	84300	21500
308.3	5.2e-05	12000	12000
308.3	6.2e-05	35010	13760
308.3	6.5e-05	42800	20800
308.3	7.6e-05	78600	23400
313.3	6.2e-05	21300	16700
313.3	6.5e-05	29400	21400
313.3	7.6e-05	66900	25900

System: nonane + buckminsterfullerene; phases: Liquid, Crystal
Property: Vapor or sublimation pressure, kPa (Liquid); method: Closed cell (Static) method
Temperature, K	Mass fraction of buckminsterfullerene	Vapor or sublimation pressure, kPa	uncertainty
328.3	0.000161	15800	22400
328.3	0.00017	28300	25000
328.3	0.000182	46600	35500
328.3	0.000195	76900	45500
333.3	0.00017	18000	16700
333.3	0.000182	29800	22400
333.3	0.000195	48700	28000
333.3	0.000225	93000	33200
338.3	0.000182	17500	18200
338.3	0.000195	31600	19300
338.3	0.000225	60600	25800
338.3	0.000252	97200	34200
343.3	0.000182	8500	10100
343.3	0.000195	15700	12500
343.3	0.000225	35900	27200
343.3	0.000252	85500	35300
348.3	0.000225	15600	18900
348.3	0.000252	38300	29900
348.3	0.000284	85600	42000
353.3	0.000252	16800	20800
353.3	0.000284	43200	42300
353.3	0.000301	94600	91000

System: nonane + buckminsterfullerene; phases: Liquid, Crystal of unknown type
Property: Vapor or sublimation pressure, kPa (Liquid); method: Closed cell (Static) method
Temperature, K	Mass fraction of buckminsterfullerene	Vapor or sublimation pressure, kPa	uncertainty
318.3	6.2e-05	16600	9900
318.3	6.5e-05	21400	6800
318.3	7.6e-05	31800	9600
318.3	0.0001	64900	14300
318.3	0.000115	92900	16200
323.3	0.000161	27900	22000
323.3	0.00017	40200	33900
323.3	0.000182	69300	40400
323.3	0.000195	95800	39800

System: nonane + fullerene carbon 70; phases: Liquid, Crystal
Fixed: Pressure, kPa = 100
Property: Mass fraction of fullerene carbon 70 (Liquid); method: UV Spectrophotometry
Temperature, K	Mass fraction of fullerene carbon 70	uncertainty
298.3	3e-05	3e-06
298.3	2.8e-05	3e-06
298.3	2.9e-05	3e-06
303.3	3.2e-05	3e-06
303.3	2.7e-05	3e-06
303.3	3.3e-05	3e-06
308.3	3.6e-05	4e-06
308.3	3.4e-05	3e-06
308.3	3.7e-05	4e-06
313.3	4.9e-05	5e-06
313.3	5.2e-05	5e-06
313.3	4.9e-05	5e-06
318.3	7.1e-05	7e-06
318.3	7e-05	7e-06
318.3	6.8e-05	7e-06
323.3	9e-05	9e-06
323.3	8.9e-05	9e-06
323.3	9.1e-05	9e-06
328.3	0.000105	1.1e-05
328.3	0.000108	1.1e-05
328.3	0.000104	1e-05
333.3	0.000108	1.1e-05
333.3	0.00011	1.1e-05
333.3	0.000108	1.1e-05
338.3	0.00012	1.2e-05
338.3	0.000121	1.2e-05
338.3	0.000119	1.2e-05
343.3	0.000137	1.4e-05
343.3	0.000136	1.4e-05
343.3	0.000138	1.4e-05
348.3	0.000151	1.5e-05
348.3	0.000151	1.5e-05
348.3	0.000149	1.5e-05
353.3	0.000162	1.6e-05
353.3	0.00016	1.6e-05
353.3	0.000158	1.6e-05

System: nonane + fullerene carbon 70; phases: Liquid, Crystal
Property: Vapor or sublimation pressure, kPa (Liquid); method: Closed cell (Static) method
Temperature, K	Mass fraction of fullerene carbon 70	Vapor or sublimation pressure, kPa	uncertainty
298.3	4.2e-05	94200	7800
303.3	4.2e-05	61400	14400
308.3	4.2e-05	23300	14600
308.3	6.4e-05	99700	22200
313.3	6.4e-05	33500	16200
313.3	7.5e-05	61300	14500
313.3	9.6e-05	96400	16100
318.3	7.5e-05	11000	14400
318.3	9.6e-05	51400	20500
318.3	0.000114	94600	27400
323.3	9.6e-05	15800	18700
323.3	0.000114	50900	21800
323.3	0.00013	80500	19800
323.3	0.000145	98000	16900
328.3	0.000114	22200	23500
328.3	0.00013	55200	21800
328.3	0.000145	73900	19000
328.3	0.000164	99600	22200
333.3	0.00013	29300	15500
333.3	0.000145	49500	18300
333.3	0.000164	72500	21700
333.3	0.000182	98400	26200
338.3	0.00013	10300	17200
338.3	0.000145	30100	18700
338.3	0.000164	54300	23900
338.3	0.000182	84000	26700
338.3	0.000195	99800	23700
343.3	0.000145	11200	20700
343.3	0.000164	38300	21500
343.3	0.000182	59600	25000
343.3	0.000201	89100	31200
348.3	0.000164	23900	24100
348.3	0.000182	48200	27100
348.3	0.000201	78800	29900
348.3	0.000215	98000	29500
353.3	0.000164	3000	21700
353.3	0.000182	26800	24100
353.3	0.000201	51900	29100
353.3	0.000215	74900	31200
353.3	0.000233	98500	30600
