Measured thermophysical data. Isobaric molar heat capacities of the mixture (p-cymene + ethanol) at several temperatures and atmospheric pressure
Source: J. Chem. Thermodyn., 2017, 10.1016/j.jct.2017.03.027
Compound 1: 1-(1-methylethyl)-4-methylbenzene, C10H14, InChI=1S/C10H14/c1-8(2)10-6-4-9(3)5-7-10/h4-8H,1-3H3, purity 99.5%
Compound 2: ethanol, C2H6O, InChI=1S/C2H6O/c1-2-3/h3H,2H2,1H3

System: 1-(1-methylethyl)-4-methylbenzene; phases: Liquid
Fixed: Pressure, kPa = 100
Property: Mass density, kg/m3 (Liquid); method: Vibrating tube method
Temperature, K	Mass density, kg/m3	uncertainty
298.15	852.93	0.71
308.15	844.89	0.71
318.15	836.81	0.71
328.15	828.69	0.71

System: 1-(1-methylethyl)-4-methylbenzene; phases: Liquid
Fixed: Pressure, kPa = 100
Property: Molar heat capacity at constant pressure, J/K/mol (Liquid); method: Large sample (1 g) DSC
Temperature, K	Molar heat capacity at constant pressure, J/K/mol	uncertainty
298.6	240.3	3.9
308.5	244.7	4
318.5	249.4	4.1
328.4	254.4	4.1

System: ethanol; phases: Liquid
Fixed: Pressure, kPa = 100
Property: Mass density, kg/m3 (Liquid); method: Vibrating tube method
Temperature, K	Mass density, kg/m3	uncertainty
298.15	785.11	0.71
308.15	776.44	0.71
318.15	767.62	0.71
328.15	758.6	0.71

System: ethanol; phases: Liquid
Fixed: Pressure, kPa = 100
Property: Molar heat capacity at constant pressure, J/K/mol (Liquid); method: Large sample (1 g) DSC
Temperature, K	Molar heat capacity at constant pressure, J/K/mol	uncertainty
298.6	112	1.8
308.5	116.4	1.9
318.5	121	2
328.4	125.6	2

System: ethanol + 1-(1-methylethyl)-4-methylbenzene; phases: Liquid
Fixed: Pressure, kPa = 100
Property: Mass density, kg/m3 (Liquid); method: Vibrating tube method
Temperature, K	Mole fraction of 1-(1-methylethyl)-4-methylbenzene	Mass density, kg/m3	uncertainty
298.15	0	785.11	0.71
298.15	0.0494	793.49	0.71
298.15	0.0995	800.72	0.71
298.15	0.2	812.35	0.71
298.15	0.3009	821.26	0.71
298.15	0.4037	828.42	0.71
298.15	0.5034	834.18	0.71
298.15	0.6023	838.73	0.71
298.15	0.7017	842.86	0.71
298.15	0.802	846.53	0.71
298.15	0.897	849.61	0.71
298.15	0.9509	851.34	0.71
298.15	1	852.93	0.71
308.15	0	776.44	0.71
308.15	0.0494	784.81	0.71
308.15	0.0995	792.02	0.71
308.15	0.2	803.65	0.71
308.15	0.3009	812.6	0.71
308.15	0.4037	819.8	0.71
308.15	0.5034	825.62	0.71
308.15	0.6023	830.22	0.71
308.15	0.7017	834.43	0.71
308.15	0.802	838.18	0.71
308.15	0.897	841.37	0.71
308.15	0.9509	843.19	0.71
308.15	1	844.89	0.71
318.15	0	767.62	0.71
318.15	0.0494	775.96	0.71
318.15	0.0995	783.15	0.71
318.15	0.2	794.79	0.71
318.15	0.3009	803.77	0.71
318.15	0.4037	811.02	0.71
318.15	0.5034	816.91	0.71
318.15	0.6023	821.58	0.71
318.15	0.7017	825.88	0.71
318.15	0.802	829.75	0.71
318.15	0.897	833.06	0.71
318.15	0.9509	834.99	0.71
318.15	1	836.81	0.71
328.15	0	758.6	0.71
328.15	0.0494	766.9	0.71
328.15	0.0995	774.08	0.71
328.15	0.2	785.71	0.71
328.15	0.3009	794.75	0.71
328.15	0.4037	802.06	0.71
328.15	0.5034	808.04	0.71
328.15	0.6023	812.79	0.71
328.15	0.7017	817.21	0.71
328.15	0.802	821.21	0.71
328.15	0.897	824.68	0.71
328.15	0.9509	826.74	0.71
328.15	1	828.69	0.71

System: ethanol + 1-(1-methylethyl)-4-methylbenzene; phases: Liquid
Fixed: Pressure, kPa = 100
Property: Molar heat capacity at constant pressure, J/K/mol (Liquid); method: Large sample (1 g) DSC
Temperature, K	Mole fraction of 1-(1-methylethyl)-4-methylbenzene	Molar heat capacity at constant pressure, J/K/mol	uncertainty
298.6	0	112	1.8
298.6	0.0494	121.2	2
298.6	0.0995	130	2.1
298.6	0.2	146.5	2.4
298.6	0.3009	162.2	2.6
298.6	0.4037	177.7	2.9
298.6	0.5034	192.6	3.1
298.6	0.6023	205.5	3.3
298.6	0.7017	217.6	3.5
298.6	0.802	229.2	3.7
298.6	0.897	238.6	3.9
298.6	0.9509	240.2	3.9
298.6	1	240.3	3.9
308.5	0	116.4	1.9
308.5	0.0494	126.1	2.1
308.5	0.0995	134.7	2.2
308.5	0.2	152.2	2.5
308.5	0.3009	168.5	2.7
308.5	0.4037	183.8	3
308.5	0.5034	199	3.2
308.5	0.6023	211.8	3.4
308.5	0.7017	224.3	3.6
308.5	0.802	235.3	3.8
308.5	0.897	243.1	4
308.5	0.9509	243.9	4
308.5	1	244.7	4
318.5	0	121	2
318.5	0.0494	130.8	2.1
318.5	0.0995	140.1	2.3
318.5	0.2	157.8	2.6
318.5	0.3009	174.7	2.8
318.5	0.4037	190.2	3.1
318.5	0.5034	205.4	3.3
318.5	0.6023	219.4	3.6
318.5	0.7017	230.7	3.8
318.5	0.802	240.9	3.9
318.5	0.897	248.4	4
318.5	0.9509	248.9	4
318.5	1	249.4	4.1
328.4	0	125.6	2
328.4	0.0494	135.6	2.2
328.4	0.0995	145.9	2.4
328.4	0.2	163.8	2.7
328.4	0.3009	181	2.9
328.4	0.4037	197	3.2
328.4	0.5034	211.9	3.4
328.4	0.6023	225.1	3.7
328.4	0.7017	236.9	3.9
328.4	0.802	247	4
328.4	0.897	253.8	4.1
328.4	0.9509	254.1	4.1
328.4	1	254.4	4.1
