Measured thermophysical data. Standard molar enthalpies of formation of 2-, 3- and 4-cyanobenzoic acids
Source: J. Chem. Thermodyn., 2008, 10.1016/j.jct.2008.04.004
Compound 1: carbon dioxide, CO2, InChI=1S/CO2/c2-1-3
Compound 2: nitrogen, N2, InChI=1S/N2/c1-2
Compound 3: water, H2O, InChI=1S/H2O/h1H2
Compound 4: oxygen, O2, InChI=1S/O2/c1-2
Compound 5: 2-cyanobenzoic acid, C8H5NO2, InChI=1S/C8H5NO2/c9-5-6-3-1-2-4-7(6)8(10)11/h1-4H,(H,10,11), purity 99%
Compound 6: 3-cyanobenzoic acid, C8H5NO2, InChI=1S/C8H5NO2/c9-5-6-2-1-3-7(4-6)8(10)11/h1-4H,(H,10,11), purity 98%
Compound 7: 4-cyanobenzoic acid, C8H5NO2, InChI=1S/C8H5NO2/c9-5-6-1-3-7(4-2-6)8(10)11/h1-4H,(H,10,11), purity 99%

System: 2-cyanobenzoic acid; phases: Crystal, Liquid, Air at 1 atmosphere
Property: Normal melting temperature, K (Crystal); method: DTA
Normal melting temperature, K	uncertainty
505.7	0.5

System: 2-cyanobenzoic acid; phases: Crystal, Gas
Property: Molar enthalpy of vaporization or sublimation, kJ/mol (Crystal); method: Vacuum drop calorimetry
Temperature, K	Molar enthalpy of vaporization or sublimation, kJ/mol	uncertainty
298.15	114.6	3

System: 2-cyanobenzoic acid; phases: Gas
Property: Molar enthalpy, kJ/mol (Gas); method: vacuum sublimation
Temperature, K	Pressure, kPa	Molar enthalpy, kJ/mol	uncertainty
429	100	135.1	2.6

System: 3-cyanobenzoic acid; phases: Crystal, Liquid, Air at 1 atmosphere
Property: Normal melting temperature, K (Crystal); method: stuart scientific smp2 calibrated apparatus
Normal melting temperature, K	uncertainty
496	1

System: 3-cyanobenzoic acid; phases: Crystal, Gas
Property: Molar enthalpy of vaporization or sublimation, kJ/mol (Crystal); method: Vacuum drop calorimetry
Temperature, K	Molar enthalpy of vaporization or sublimation, kJ/mol	uncertainty
298.15	116.6	3

System: 4-cyanobenzoic acid; phases: Crystal, Liquid, Air at 1 atmosphere
Property: Normal melting temperature, K (Crystal); method: stuart scientific smp2 calibrated apparatus
Normal melting temperature, K	uncertainty
493	1

System: 4-cyanobenzoic acid; phases: Crystal, Gas
Property: Molar enthalpy of vaporization or sublimation, kJ/mol (Crystal); method: Unpublished results by the authors
Temperature, K	Molar enthalpy of vaporization or sublimation, kJ/mol	uncertainty
298.15	112.8	2

System: 4-cyanobenzoic acid; phases: Gas
Property: Molar enthalpy, kJ/mol (Gas); method: vacuum sublimation
Temperature, K	Pressure, kPa	Molar enthalpy, kJ/mol	uncertainty
452	100	141.5	1.8

Reaction: -1 3-cyanobenzoic acid + 8 carbon dioxide + .5 nitrogen + 2.5 water + -8.25 oxygen
Property: Specific internal energy of reaction at constant volume, J/g
-24421.4

Reaction: -1 4-cyanobenzoic acid + 8 carbon dioxide + .5 nitrogen + 2.5 water + -8.25 oxygen
Property: Specific internal energy of reaction at constant volume, J/g
-24423.2

Reaction: -1 2-cyanobenzoic acid + 8 carbon dioxide + .5 nitrogen + 2.5 water + -8.25 oxygen
Property: Specific internal energy of reaction at constant volume, J/g
-24454.5
