Measured thermophysical data. Thermochemical study of the isomeric compounds: 3-acetylbenzonitrile and benzoylacetonitrile
Source: J. Chem. Thermodyn., 2015, 10.1016/j.jct.2015.08.008
Compound 1: carbon dioxide, CO2, InChI=1S/CO2/c2-1-3
Compound 2: nitrogen, N2, InChI=1S/N2/c1-2
Compound 3: water, H2O, InChI=1S/H2O/h1H2
Compound 4: oxygen, O2, InChI=1S/O2/c1-2
Compound 5: 3-acetylbenzonitrile, C9H7NO, InChI=1S/C9H7NO/c1-7(11)9-4-2-3-8(5-9)6-10/h2-5H,1H3, purity 97%
Compound 6: 3-oxo-3-phenylpropanenitrile, C9H7NO, InChI=1S/C9H7NO/c10-7-6-9(11)8-4-2-1-3-5-8/h1-5H,6H2, purity 99%

System: 3-acetylbenzonitrile; phases: Crystal, Gas
Property: Molar enthalpy of vaporization or sublimation, kJ/mol (Crystal); method: Static calorimetry
Temperature, K	Molar enthalpy of vaporization or sublimation, kJ/mol	uncertainty
298.15	94.7	1.5

System: 3-oxo-3-phenylpropanenitrile; phases: Crystal, Gas
Property: Molar enthalpy of vaporization or sublimation, kJ/mol (Crystal); method: Static calorimetry
Temperature, K	Molar enthalpy of vaporization or sublimation, kJ/mol	uncertainty
298.15	98.5	2.1

Reaction: -1 3-acetylbenzonitrile + 9 carbon dioxide + .5 nitrogen + 3.5 water + -10.25 oxygen
Property: Specific internal energy of reaction at constant volume, J/g
-30985.4

Reaction: -1 3-oxo-3-phenylpropanenitrile + 9 carbon dioxide + .5 nitrogen + 3.5 water + -10.25 oxygen
Property: Specific internal energy of reaction at constant volume, J/g
-31113.33
