Measured thermophysical data. Thermodynamic study of phase transitions of imidazoles and 1-methylimidazoles
Source: J. Chem. Thermodyn., 2012, 10.1016/j.jct.2011.08.017
Compound 1: 1H-imidazole, C3H4N2, InChI=1S/C3H4N2/c1-2-5-3-4-1/h1-3H,(H,4,5), purity 99.96%
Compound 2: 1-methylimidazole, C4H6N2, InChI=1S/C4H6N2/c1-6-3-2-5-4-6/h2-4H,1H3, purity 99.7%
Compound 3: 4,5-dichloro-1-methyl-1H-imidazole, C4H4Cl2N2, InChI=1S/C4H4Cl2N2/c1-8-2-7-3(5)4(8)6/h2H,1H3, purity 97%
Compound 4: 1-methyl-1H-imidazole-4,5-dicarbonitrile, C6H4N4, InChI=1S/C6H4N4/c1-10-4-9-5(2-7)6(10)3-8/h4H,1H3, purity 98%
Compound 5: 4,5-dichloroimidazole, C3H2Cl2N2, InChI=1S/C3H2Cl2N2/c4-2-3(5)7-1-6-2/h1H,(H,6,7), purity 99%
Compound 6: 4,5-dicyanoimidazole, C5H2N4, InChI=1S/C5H2N4/c6-1-4-5(2-7)9-3-8-4/h3H,(H,8,9), purity 99.8%

System: 1H-imidazole; phases: Crystal, Liquid, Air at 1 atmosphere
Property: Molar enthalpy of transition or fusion, kJ/mol (Crystal); method: DSC
Molar enthalpy of transition or fusion, kJ/mol	uncertainty
13.1	0.4

System: 1H-imidazole; phases: Crystal, Liquid, Air at 1 atmosphere
Property: Normal melting temperature, K (Crystal); method: DTA
Normal melting temperature, K	uncertainty
359.3	0.4

System: 1H-imidazole; phases: Crystal, Gas
Property: Vapor or sublimation pressure, kPa (Crystal); method: Closed cell (Static) method
Temperature, K	Vapor or sublimation pressure, kPa	uncertainty
303.99	0.00058	0.0001
306.97	0.00079	0.00011
309.99	0.00108	0.00011
312.98	0.00145	0.00012
315.94	0.00195	0.00013
318.92	0.00263	0.00015
321.97	0.0035	0.00018
324.96	0.00469	0.00022
327.95	0.00621	0.00027
330.92	0.00819	0.00034
333.9	0.01063	0.00043
336.88	0.01377	0.00053
339.86	0.01782	0.00059
342.84	0.02289	0.00067
345.83	0.02923	0.00077
348.8	0.03701	0.00089
351.77	0.04693	0.00104
354.75	0.0592	0.00123
357.72	0.07394	0.00146

System: 1H-imidazole; phases: Metastable liquid, Gas
Property: Vapor or sublimation pressure, kPa (Metastable liquid); method: Closed cell (Static) method
Temperature, K	Vapor or sublimation pressure, kPa	uncertainty
333.9	0.01485	0.00054
336.89	0.01859	0.0006
339.86	0.02311	0.00067
342.84	0.02848	0.00075
345.81	0.03509	0.00085
348.8	0.04297	0.00098
351.75	0.05222	0.00112
354.76	0.06354	0.00129
357.72	0.07682	0.0015
360.69	0.09288	0.00175
363.67	0.1112	0.002
366.66	0.1336	0.0021
369.63	0.1596	0.0023
372.6	0.1912	0.0025
375.56	0.2249	0.0028
378.51	0.2655	0.0031
381.51	0.3134	0.0035
384.48	0.3688	0.004

System: 1-methylimidazole; phases: Crystal, Liquid, Air at 1 atmosphere
Property: Molar enthalpy of transition or fusion, kJ/mol (Crystal); method: DSC
Molar enthalpy of transition or fusion, kJ/mol	uncertainty
12.3	1.4

System: 1-methylimidazole; phases: Crystal, Liquid, Air at 1 atmosphere
Property: Normal melting temperature, K (Crystal); method: DTA
Normal melting temperature, K	uncertainty
268.6	1.2

System: 1-methylimidazole; phases: Crystal, Gas
Property: Vapor or sublimation pressure, kPa (Crystal); method: Closed cell (Static) method
Temperature, K	Vapor or sublimation pressure, kPa	uncertainty
255.52	0.00122	0.0001
256.5	0.00139	0.0001
257.48	0.00157	0.00011
258.57	0.00177	0.00011
259.53	0.00201	0.00012
260.48	0.00225	0.00013
261.45	0.00255	0.00013
262.41	0.00277	0.00014
263.37	0.00317	0.00015
264.36	0.00356	0.00017
265.35	0.004	0.00018

System: 1-methylimidazole; phases: Metastable liquid, Gas
Property: Vapor or sublimation pressure, kPa (Metastable liquid); method: Closed cell (Static) method
Temperature, K	Vapor or sublimation pressure, kPa	uncertainty
256.47	0.00184	0.00011
257.48	0.00204	0.00012
258.55	0.00226	0.00013
259.5	0.00249	0.00013
260.46	0.00273	0.00014
261.42	0.00301	0.00015
262.38	0.0033	0.00016
263.36	0.00362	0.00017
265.16	0.00425	0.00019
267.28	0.00515	0.00022
269.27	0.00618	0.00026
271.23	0.00739	0.0003
273.22	0.00866	0.00035
275.16	0.01042	0.00042
277.18	0.01215	0.00048
281.14	0.01675	0.00057
285.09	0.02306	0.00067
287.07	0.02725	0.00073
289.06	0.03146	0.0008
291.04	0.03655	0.00088
293.04	0.04224	0.00096
295.03	0.049	0.00107
297.03	0.05608	0.00118
298.98	0.06498	0.00132
300.98	0.07451	0.00146
302.96	0.0852	0.00163
304.98	0.09635	0.0018

System: 4,5-dichloro-1-methyl-1H-imidazole; phases: Crystal, Liquid, Air at 1 atmosphere
Property: Molar enthalpy of transition or fusion, kJ/mol (Crystal); method: DSC
Molar enthalpy of transition or fusion, kJ/mol	uncertainty
17	0.4

System: 4,5-dichloro-1-methyl-1H-imidazole; phases: Crystal, Liquid, Air at 1 atmosphere
Property: Normal melting temperature, K (Crystal); method: DTA
Normal melting temperature, K	uncertainty
330.1	0.3

System: 4,5-dichloro-1-methyl-1H-imidazole; phases: Crystal, Gas
Property: Vapor or sublimation pressure, kPa (Crystal); method: Closed cell (Static) method
Temperature, K	Vapor or sublimation pressure, kPa	uncertainty
288.03	0.00048	0.0001
290.06	0.0006	0.0001
292.08	0.00076	0.0001
294.06	0.00096	0.00011
296.06	0.0012	0.00011
298.04	0.00149	0.00012
300.05	0.00185	0.00013
302.01	0.00231	0.00014
303.99	0.00286	0.00015
306.02	0.00352	0.00017
307.96	0.0043	0.0002
309.97	0.00527	0.00023
311.98	0.00646	0.00027
313.95	0.00782	0.00032
315.93	0.00957	0.00039
317.91	0.01164	0.00047
319.99	0.01413	0.00053
322	0.01693	0.00058
323.97	0.02049	0.00063
325.97	0.02463	0.00069

System: 4,5-dichloro-1-methyl-1H-imidazole; phases: Metastable liquid, Gas
Property: Vapor or sublimation pressure, kPa (Metastable liquid); method: Closed cell (Static) method
Temperature, K	Vapor or sublimation pressure, kPa	uncertainty
329.93	0.03434	0.00084
331.93	0.03936	0.00092
333.9	0.04506	0.00101
335.89	0.05151	0.00111
337.88	0.05882	0.00122
339.87	0.06701	0.00135
341.86	0.07636	0.00149
343.84	0.08631	0.00165
345.82	0.09809	0.00183
347.8	0.1106	0.002
349.78	0.1248	0.0022

System: 1-methyl-1H-imidazole-4,5-dicarbonitrile; phases: Crystal, Liquid, Air at 1 atmosphere
Property: Molar enthalpy of transition or fusion, kJ/mol (Crystal); method: DSC
Molar enthalpy of transition or fusion, kJ/mol	uncertainty
14.8	0.7

System: 1-methyl-1H-imidazole-4,5-dicarbonitrile; phases: Crystal, Liquid, Air at 1 atmosphere
Property: Normal melting temperature, K (Crystal); method: DTA
Normal melting temperature, K	uncertainty
360.2	0.3

System: 1-methyl-1H-imidazole-4,5-dicarbonitrile; phases: Crystal, Gas
Property: Vapor or sublimation pressure, kPa (Crystal); method: Closed cell (Static) method
Temperature, K	Vapor or sublimation pressure, kPa	uncertainty
337.86	0.00034	0.00011
339.38	0.00039	0.00011
340.86	0.00046	0.00012
342.35	0.00053	0.00012
343.84	0.00061	0.00012
345.33	0.0007	0.00012
346.81	0.00082	0.00012
348.31	0.00094	0.00012
349.78	0.00107	0.00013
351.29	0.00124	0.00013
352.76	0.00142	0.00013
354.26	0.00163	0.00014
355.73	0.00186	0.00014
357.23	0.00212	0.00015
358.72	0.00242	0.00015

System: 1-methyl-1H-imidazole-4,5-dicarbonitrile; phases: Metastable liquid, Gas
Property: Vapor or sublimation pressure, kPa (Metastable liquid); method: Closed cell (Static) method
Temperature, K	Vapor or sublimation pressure, kPa	uncertainty
355.76	0.00198	0.00014
357.23	0.00221	0.00015
358.77	0.00249	0.00016
360.71	0.00284	0.00017
362.59	0.0033	0.00018
364.68	0.00381	0.00019
366.64	0.0044	0.00021
368.64	0.00506	0.00023
370.6	0.00584	0.00026
372.61	0.0067	0.00029
374.56	0.00765	0.00033
376.58	0.00875	0.00037
378.53	0.01	0.00041
380.52	0.01138	0.00046
382.49	0.01298	0.00052
384.5	0.01474	0.00055
386.44	0.01668	0.00058
388.45	0.01889	0.00061
390.43	0.02143	0.00065
392.4	0.0241	0.00069
394.36	0.02715	0.00074
396.35	0.0304	0.00079
398.31	0.03419	0.00084
400.31	0.03815	0.0009
402.27	0.04273	0.00097
404.27	0.04766	0.00105
406.23	0.05325	0.00114

System: 4,5-dichloroimidazole; phases: Crystal, Liquid, Air at 1 atmosphere
Property: Molar enthalpy of transition or fusion, kJ/mol (Crystal); method: DSC
Molar enthalpy of transition or fusion, kJ/mol	uncertainty
17.6	0.6

System: 4,5-dichloroimidazole; phases: Crystal, Liquid, Air at 1 atmosphere
Property: Normal melting temperature, K (Crystal); method: DTA
Normal melting temperature, K	uncertainty
456.7	0.6

System: 4,5-dichloroimidazole; phases: Crystal, Gas
Property: Vapor or sublimation pressure, kPa (Crystal); method: Closed cell (Static) method
Temperature, K	Vapor or sublimation pressure, kPa	uncertainty
337.91	0.00048	0.00011
339.87	0.00059	0.00012
341.87	0.00072	0.00012
341.88	0.00071	0.00012
343.83	0.00086	0.00012
345.84	0.00104	0.00012
345.85	0.00104	0.00012
347.81	0.00125	0.00013
349.81	0.00148	0.00013
349.81	0.00151	0.00013
351.78	0.0018	0.00014
355.75	0.00258	0.00016
357.73	0.00306	0.00017
359.72	0.00366	0.00019
361.71	0.00434	0.00021
363.69	0.00513	0.00024
365.67	0.00607	0.00027
367.66	0.00722	0.00031
369.64	0.00841	0.00035
371.62	0.00998	0.00041
373.6	0.01172	0.00047
375.6	0.01368	0.00053
377.56	0.01597	0.00056
379.54	0.0184	0.0006
381.52	0.02175	0.00065
383.45	0.02487	0.0007
385.49	0.02923	0.00077
387.38	0.03334	0.00083
389.45	0.03896	0.00092
391.33	0.04433	0.001
393.4	0.05168	0.00111
395.37	0.0589	0.00122

System: 4,5-dicyanoimidazole; phases: Crystal, Liquid, Air at 1 atmosphere
Property: Molar enthalpy of transition or fusion, kJ/mol (Crystal); method: DSC
Molar enthalpy of transition or fusion, kJ/mol	uncertainty
22.6	0.9

System: 4,5-dicyanoimidazole; phases: Crystal, Liquid, Air at 1 atmosphere
Property: Normal melting temperature, K (Crystal); method: DTA
Normal melting temperature, K	uncertainty
449	0.5

System: 4,5-dicyanoimidazole; phases: Crystal, Gas
Property: Vapor or sublimation pressure, kPa (Crystal); method: Calculated from knudsen effusion weight loss
Temperature, K	Vapor or sublimation pressure, kPa	uncertainty
383.16	0.000153	2.1e-05
385.16	0.000184	2.1e-05
387.12	0.000223	2.2e-05
389.16	0.000267	2.2e-05
391.16	0.000325	2.3e-05
393.12	0.000389	2.4e-05
395.16	0.000464	2.6e-05
397.16	0.000556	2.8e-05
399.14	0.000666	3.1e-05
401.16	0.000796	3.5e-05
403.15	0.000954	3.9e-05
383.16	0.000153	2.1e-05
385.16	0.000182	2.1e-05
387.12	0.000223	2.2e-05
389.16	0.000267	2.2e-05
393.12	0.000386	2.4e-05
395.16	0.000462	2.6e-05
399.14	0.000668	3.1e-05
401.16	0.000791	3.4e-05
403.15	0.000931	3.9e-05
383.16	0.00015	2.1e-05
385.16	0.000183	2.1e-05
387.12	0.000222	2.1e-05
389.16	0.000264	2.2e-05
393.12	0.000383	2.4e-05
399.14	0.000664	3.1e-05
401.16	0.000782	3.4e-05
403.15	0.000932	3.9e-05
