Measured thermophysical data. Solid liquid equilibria measurements for binary systems comprising (butyric  acid + propionic or pentanoic acid) and (heptanoic acid + propionic or butyric  or pentanoic or hexanoic acid)
Source: J. Chem. Thermodyn., 2013, 10.1016/j.jct.2012.09.019
Compound 1: propanoic acid, C3H6O2, InChI=1S/C3H6O2/c1-2-3(4)5/h2H2,1H3,(H,4,5), purity 99%
Compound 2: butanoic acid, C4H8O2, InChI=1S/C4H8O2/c1-2-3-4(5)6/h2-3H2,1H3,(H,5,6), purity 99.5%
Compound 3: pentanoic acid, C5H10O2, InChI=1S/C5H10O2/c1-2-3-4-5(6)7/h2-4H2,1H3,(H,6,7), purity 98%
Compound 4: hexanoic acid, C6H12O2, InChI=1S/C6H12O2/c1-2-3-4-5-6(7)8/h2-5H2,1H3,(H,7,8), purity 98%
Compound 5: heptanoic acid, C7H14O2, InChI=1S/C7H14O2/c1-2-3-4-5-6-7(8)9/h2-6H2,1H3,(H,8,9), purity 99%
Compound 6: cyclohexane, C6H12, InChI=1S/C6H12/c1-2-4-6-5-3-1/h1-6H2, purity 99.5%
Compound 7: hexadecane, C16H34, InChI=1S/C16H34/c1-3-5-7-9-11-13-15-16-14-12-10-8-6-4-2/h3-16H2,1-2H3, purity 99%

System: propanoic acid; phases: Liquid
Property: Refractive index (Na D-line) (Liquid); method: digital refractometer
Temperature, K	Pressure, kPa	Refractive index (Na D-line)	uncertainty
293.15	101.325	1.38682	0.00142

System: propanoic acid; phases: Crystal, Liquid, Air at 1 atmosphere
Property: Normal melting temperature, K (Crystal); method: Heating/Cooling curves
Normal melting temperature, K	uncertainty
252.3	2

System: butanoic acid; phases: Liquid
Property: Refractive index (Na D-line) (Liquid); method: digital refractometer
Temperature, K	Pressure, kPa	Refractive index (Na D-line)	uncertainty
293.15	101.325	1.39808	0.0014

System: butanoic acid; phases: Crystal, Liquid, Air at 1 atmosphere
Property: Normal melting temperature, K (Crystal); method: Heating/Cooling curves
Normal melting temperature, K	uncertainty
267.9	2

System: pentanoic acid; phases: Liquid
Property: Refractive index (Na D-line) (Liquid); method: digital refractometer
Temperature, K	Pressure, kPa	Refractive index (Na D-line)	uncertainty
293.15	101.325	1.40857	0.00146

System: pentanoic acid; phases: Crystal, Liquid, Air at 1 atmosphere
Property: Normal melting temperature, K (Crystal); method: Heating/Cooling curves
Normal melting temperature, K	uncertainty
238.7	2

System: hexanoic acid; phases: Liquid
Property: Refractive index (Na D-line) (Liquid); method: digital refractometer
Temperature, K	Pressure, kPa	Refractive index (Na D-line)	uncertainty
293.15	101.325	1.41692	0.00146

System: hexanoic acid; phases: Crystal, Liquid, Air at 1 atmosphere
Property: Normal melting temperature, K (Crystal); method: Heating/Cooling curves
Normal melting temperature, K	uncertainty
270.7	2

System: heptanoic acid; phases: Liquid
Property: Refractive index (Na D-line) (Liquid); method: digital refractometer
Temperature, K	Pressure, kPa	Refractive index (Na D-line)	uncertainty
293.15	101.325	1.4229	0.00142

System: heptanoic acid; phases: Crystal, Liquid, Air at 1 atmosphere
Property: Normal melting temperature, K (Crystal); method: Heating/Cooling curves
Normal melting temperature, K	uncertainty
265.6	2

System: cyclohexane; phases: Liquid
Property: Refractive index (Na D-line) (Liquid); method: digital refractometer
Temperature, K	Pressure, kPa	Refractive index (Na D-line)	uncertainty
293.15	101.325	1.42631	0.0014

System: cyclohexane; phases: Crystal, Liquid, Air at 1 atmosphere
Property: Normal melting temperature, K (Crystal); method: Heating/Cooling curves
Normal melting temperature, K	uncertainty
279.8	2

System: hexadecane; phases: Liquid
Property: Refractive index (Na D-line) (Liquid); method: digital refractometer
Temperature, K	Pressure, kPa	Refractive index (Na D-line)	uncertainty
293.15	101.325	1.43461	0.00142

System: hexadecane; phases: Crystal, Liquid, Air at 1 atmosphere
Property: Normal melting temperature, K (Crystal); method: Heating/Cooling curves
Normal melting temperature, K	uncertainty
291.2	2

System: hexadecane; phases: Crystal, Liquid, Air at 1 atmosphere
Property: Normal melting temperature, K (Crystal); method: OTHER::sMethod:heating/cooling curves
Normal melting temperature, K	uncertainty
291.1	2

System: cyclohexane + hexadecane; phases: Liquid, Crystal
Fixed: Pressure, kPa = 101
Property: Solid-liquid equilibrium temperature, K (Liquid); method: heating/cooling curves
Mole fraction of cyclohexane	Solid-liquid equilibrium temperature, K	uncertainty
0.92	259.9	2
0.94	264.8	2
0.96	269.9	2
1	279.8	2

System: cyclohexane + hexadecane; phases: Liquid, Crystal
Fixed: Pressure, kPa = 101
Property: Solid-liquid equilibrium temperature, K (Liquid); method: heating/cooling curves
Mole fraction of cyclohexane	Solid-liquid equilibrium temperature, K	uncertainty
0	291.1	2
0.2	288.1	2
0.4	284.7	2
0.6	278.9	2
0.8	269.2	2
0.85	265.8	2
0.9	261.6	2
0.92	260.3	2

System: propanoic acid + butanoic acid; phases: Crystal, Crystal, Liquid, Air at 1 atmosphere
Property: Eutectic composition: mole fraction of butanoic acid (Crystal); method: Derived from phase diagram analysis
Eutectic composition: mole fraction of butanoic acid	uncertainty
0.3797	0.0029

System: propanoic acid + butanoic acid; phases: Crystal, Crystal, Liquid, Air at 1 atmosphere
Property: Eutectic temperature, K (Crystal); method: Derived from phase diagram analysis
Eutectic temperature, K	uncertainty
226	2

System: propanoic acid + butanoic acid; phases: Liquid, Crystal
Fixed: Pressure, kPa = 101
Property: Solid-liquid equilibrium temperature, K (Liquid); method: heating/cooling curves
Mole fraction of butanoic acid	Solid-liquid equilibrium temperature, K	uncertainty
0.0637	247	2
0.1197	243.2	2
0.1585	240.9	2
0.2461	235.8	2
0.3226	229.6	2
0.3797	226	2

System: propanoic acid + butanoic acid; phases: Liquid, Crystal
Fixed: Pressure, kPa = 101
Property: Solid-liquid equilibrium temperature, K (Liquid); method: heating/cooling curves
Mole fraction of butanoic acid	Solid-liquid equilibrium temperature, K	uncertainty
0.8021	255.7	2
0.8537	258.7	2
0.905	261.7	2
0.9532	264.9	2
0.4494	232.1	2
0.4878	234.9	2
0.5619	237.9	2
0.6201	242.8	2
0.6999	248.9	2
0.762	251.9	2

System: butanoic acid + pentanoic acid; phases: Crystal, Crystal, Liquid, Air at 1 atmosphere
Property: Eutectic composition: mole fraction of butanoic acid (Crystal); method: Derived from phase diagram analysis
Eutectic composition: mole fraction of butanoic acid	uncertainty
0.3733	0.0029

System: butanoic acid + pentanoic acid; phases: Crystal, Crystal, Liquid, Air at 1 atmosphere
Property: Eutectic temperature, K (Crystal); method: Derived from phase diagram analysis
Eutectic temperature, K	uncertainty
225.6	2

System: butanoic acid + pentanoic acid; phases: Liquid, Crystal
Fixed: Pressure, kPa = 101
Property: Solid-liquid equilibrium temperature, K (Liquid); method: heating/cooling curves
Mole fraction of butanoic acid	Solid-liquid equilibrium temperature, K	uncertainty
0.0693	236.8	2
0.1657	232.6	2
0.2633	229.8	2
0.3277	226.4	2
0.3733	225.6	2

System: butanoic acid + pentanoic acid; phases: Liquid, Crystal
Fixed: Pressure, kPa = 101
Property: Solid-liquid equilibrium temperature, K (Liquid); method: heating/cooling curves
Mole fraction of butanoic acid	Solid-liquid equilibrium temperature, K	uncertainty
0.7681	253.7	2
0.8226	256.4	2
0.8861	259.7	2
0.9426	263.8	2
0.3733	225.6	2
0.4482	230.3	2
0.5436	238	2
0.605	242.8	2
0.6618	245.8	2
0.7044	250.6	2

System: propanoic acid + heptanoic acid; phases: Crystal, Crystal, Liquid, Air at 1 atmosphere
Property: Eutectic composition: mole fraction of heptanoic acid (Crystal); method: Derived from phase diagram analysis
Eutectic composition: mole fraction of heptanoic acid	uncertainty
0.3159	0.0025

System: propanoic acid + heptanoic acid; phases: Crystal, Crystal, Liquid, Air at 1 atmosphere
Property: Eutectic temperature, K (Crystal); method: Derived from phase diagram analysis
Eutectic temperature, K	uncertainty
231.5	2

System: propanoic acid + heptanoic acid; phases: Liquid, Crystal
Fixed: Pressure, kPa = 101
Property: Solid-liquid equilibrium temperature, K (Liquid); method: heating/cooling curves
Mole fraction of heptanoic acid	Solid-liquid equilibrium temperature, K	uncertainty
0.0501	249.6	2
0.1165	245.7	2
0.1844	241	2
0.2281	237.1	2
0.3159	231.5	2

System: propanoic acid + heptanoic acid; phases: Liquid, Crystal
Fixed: Pressure, kPa = 101
Property: Solid-liquid equilibrium temperature, K (Liquid); method: heating/cooling curves
Mole fraction of heptanoic acid	Solid-liquid equilibrium temperature, K	uncertainty
0.7328	253.7	2
0.7994	257.6	2
0.8654	259.8	2
0.9322	262.7	2
0.3159	231.5	2
0.4018	235.4	2
0.4801	241	2
0.5518	244.9	2
0.6487	248.7	2

System: butanoic acid + heptanoic acid; phases: Crystal, Crystal, Liquid, Air at 1 atmosphere
Property: Eutectic composition: mole fraction of heptanoic acid (Crystal); method: Derived from phase diagram analysis
Eutectic composition: mole fraction of heptanoic acid	uncertainty
0.4604	0.0036

System: butanoic acid + heptanoic acid; phases: Crystal, Crystal, Liquid, Air at 1 atmosphere
Property: Eutectic temperature, K (Crystal); method: Derived from phase diagram analysis
Eutectic temperature, K	uncertainty
241.3	2

System: butanoic acid + heptanoic acid; phases: Liquid, Crystal
Fixed: Pressure, kPa = 101
Property: Solid-liquid equilibrium temperature, K (Liquid); method: heating/cooling curves
Mole fraction of heptanoic acid	Solid-liquid equilibrium temperature, K	uncertainty
0.0374	266.7	2
0.0764	263.7	2
0.1163	262.4	2
0.1587	258.5	2
0.1971	257.3	2
0.2401	255.5	2
0.2858	252.5	2
0.3282	250.1	2
0.3748	247.2	2
0.4225	243.5	2
0.4604	241.3	2

System: butanoic acid + heptanoic acid; phases: Liquid, Crystal
Fixed: Pressure, kPa = 101
Property: Solid-liquid equilibrium temperature, K (Liquid); method: heating/cooling curves
Mole fraction of heptanoic acid	Solid-liquid equilibrium temperature, K	uncertainty
0.4604	241.3	2
0.4743	242.3	2
0.5258	245	2
0.5777	248.3	2
0.6321	250.3	2
0.6882	254.2	2
0.7454	256.6	2
0.827	259.5	2
0.8657	261.6	2
0.9271	264	2

System: pentanoic acid + heptanoic acid; phases: Crystal, Crystal, Liquid, Air at 1 atmosphere
Property: Eutectic composition: mole fraction of heptanoic acid (Crystal); method: Derived from phase diagram analysis
Eutectic composition: mole fraction of heptanoic acid	uncertainty
0.3154	0.0025

System: pentanoic acid + heptanoic acid; phases: Crystal, Crystal, Liquid, Air at 1 atmosphere
Property: Eutectic temperature, K (Crystal); method: Derived from phase diagram analysis
Eutectic temperature, K	uncertainty
227.8	2

System: pentanoic acid + heptanoic acid; phases: Liquid, Crystal
Fixed: Pressure, kPa = 101
Property: Solid-liquid equilibrium temperature, K (Liquid); method: heating/cooling curves
Mole fraction of heptanoic acid	Solid-liquid equilibrium temperature, K	uncertainty
0.0822	236	2
0.161	233.1	2
0.2544	228.5	2

System: pentanoic acid + heptanoic acid; phases: Liquid, Crystal
Fixed: Pressure, kPa = 101
Property: Solid-liquid equilibrium temperature, K (Liquid); method: heating/cooling curves
Mole fraction of heptanoic acid	Solid-liquid equilibrium temperature, K	uncertainty
0.7661	255	2
0.8249	257.8	2
0.8874	260.1	2
0.9495	263.3	2
0.3154	227.8	2
0.3739	232.7	2
0.4725	239.8	2
0.5231	242.8	2
0.6056	247.1	2
0.6482	250	2
0.719	252.9	2

System: heptanoic acid + hexanoic acid; phases: Crystal, Crystal, Liquid, Air at 1 atmosphere
Property: Eutectic composition: mole fraction of heptanoic acid (Crystal); method: Derived from phase diagram analysis
Eutectic composition: mole fraction of heptanoic acid	uncertainty
0.5005	0.0039

System: heptanoic acid + hexanoic acid; phases: Crystal, Crystal, Liquid, Air at 1 atmosphere
Property: Eutectic temperature, K (Crystal); method: Derived from phase diagram analysis
Eutectic temperature, K	uncertainty
254.5	2

System: heptanoic acid + hexanoic acid; phases: Liquid, Crystal
Fixed: Pressure, kPa = 101
Property: Solid-liquid equilibrium temperature, K (Liquid); method: heating/cooling curves
Mole fraction of heptanoic acid	Solid-liquid equilibrium temperature, K	uncertainty
0.0501	267.6	2
0.1003	265.8	2
0.1502	263.9	2
0.2	262.6	2
0.25	259.3	2
0.3023	258.6	2
0.3569	256.3	2
0.4071	255.5	2
0.4497	255.1	2
0.5005	254.5	2

System: heptanoic acid + hexanoic acid; phases: Liquid, Crystal
Fixed: Pressure, kPa = 101
Property: Solid-liquid equilibrium temperature, K (Liquid); method: heating/cooling curves
Mole fraction of heptanoic acid	Solid-liquid equilibrium temperature, K	uncertainty
0.5005	254.5	2
0.5505	254.9	2
0.5999	256.1	2
0.6506	257.9	2
0.6998	259.2	2
0.7509	259.8	2
0.8019	261	2
0.8521	262.8	2
0.899	263.7	2
0.9464	264.6	2
