Measured thermophysical data. Clarification of the volumetric properties of the (tetrahydrofuran + water) systems  [J. Chem. Thermodyn. 41 (2009) 1382 1386]: Author s statement
Source: J. Chem. Thermodyn., 2013, 10.1016/j.jct.2012.08.033
Compound 1: tetrahydrofuran, C4H8O, InChI=1S/C4H8O/c1-2-4-5-3-1/h1-4H2, purity 99.99%
Compound 2: water, H2O, InChI=1S/H2O/h1H2

System: water; phases: Liquid
Property: Mass density, kg/m3 (Liquid); method: VIBTUB::mpoint
Temperature, K	Pressure, kPa	Mass density, kg/m3	uncertainty
293.28	78.5	998.25	2
298.24	78.5	997.01	2
303.11	78.5	995.68	2
308.24	78.5	993.99	2
313.3	78.5	992.09	2
293.28	100.7	998.33	2
298.24	100.7	997.02	2
303.11	100.7	995.66	2
308.24	100.7	994	2
313.3	100.7	992.16	2

System: tetrahydrofuran + water; phases: Liquid
Property: Mass density, kg/m3 (Liquid); method: VIBTUB:mpoint
Temperature, K	Pressure, kPa	Mole fraction of water	Mass density, kg/m3	uncertainty
293.28	78.5	1	998.25	2
293.25	78.5	0.9921	996.53	2
293.24	78.5	0.988	995.8	2
293.25	78.5	0.9826	994.97	2
293.26	78.5	0.9723	993.83	2
293.26	78.5	0.9709	993.71	2
293.26	78.5	0.9573	992.11	2
293.26	78.5	0.9519	991.46	2
293.26	78.5	0.9418	990.31	2
293.28	78.5	0.8857	981.21	2
293.27	78.5	0.6092	934.46	2
293.24	78.5	0.3407	907.81	2
293.26	78.5	0.0872	892.05	2
293.27	78.5	0.0593	890.14	2
293.27	78.5	0.0429	889.18	2
293.26	78.5	0.0404	889.02	2
293.27	78.5	0.0269	888.46	2
293.26	78.5	0.0208	888.12	2
298.24	78.5	1	997.01	2
298.22	78.5	0.9921	995.23	2
298.22	78.5	0.988	994.42	2
298.23	78.5	0.9826	993.47	2
298.23	78.5	0.9723	992.08	2
298.24	78.5	0.9709	991.93	2
298.24	78.5	0.9573	989.99	2
298.25	78.5	0.9519	989.15	2
298.23	78.5	0.9418	987.77	2
298.26	78.5	0.8857	977.6	2
298.25	78.5	0.6092	929.43	2
298.21	78.5	0.3407	902.44	2
298.22	78.5	0.0872	886.71	2
298.24	78.5	0.0593	884.65	2
298.25	78.5	0.0429	883.9	2
298.29	78.5	0.0404	883.74	2
298.23	78.5	0.0269	883.01	2
298.24	78.5	0.0208	882.73	2
303.11	78.5	1	995.68	2
303.1	78.5	0.9921	993.8	2
303.1	78.5	0.988	993	2
303.11	78.5	0.9826	991.87	2
303.11	78.5	0.9723	990.22	2
303.12	78.5	0.9709	990.08	2
303.11	78.5	0.9573	987.79	2
303.1	78.5	0.9519	986.82	2
303.09	78.5	0.9418	985.17	2
303.13	78.5	0.8857	974.05	2
303.12	78.5	0.6092	924.49	2
303.07	78.5	0.3407	897.21	2
303.1	78.5	0.0872	881.49	2
303.11	78.5	0.0593	879.35	2
303.13	78.5	0.0429	878.4	2
303.11	78.5	0.0404	878.23	2
303.1	78.5	0.0269	877.63	2
303.12	78.5	0.0208	877.38	2
308.24	78.5	1	993.99	2
308.22	78.5	0.9921	991.99	2
308.23	78.5	0.988	991.08	2
308.24	78.5	0.9826	989.93	2
308.24	78.5	0.9723	988.08	2
308.25	78.5	0.9709	987.99	2
308.25	78.5	0.9573	985.24	2
308.22	78.5	0.9519	984.2	2
308.22	78.5	0.9418	982.23	2
308.25	78.5	0.8857	970.11	2
308.25	78.5	0.6092	919.21	2
308.19	78.5	0.3407	891.62	2
308.22	78.5	0.0872	875.87	2
308.23	78.5	0.0593	873.61	2
308.26	78.5	0.0429	872.71	2
308.23	78.5	0.0404	872.54	2
308.23	78.5	0.0269	871.92	2
308.24	78.5	0.0208	871.65	2
313.3	78.5	1	992.09	2
313.29	78.5	0.9921	990.02	2
313.3	78.5	0.988	989.08	2
313.31	78.5	0.9826	987.78	2
313.32	78.5	0.9723	985.71	2
313.33	78.5	0.9709	985.46	2
313.34	78.5	0.9573	982.55	2
313.29	78.5	0.9519	981.33	2
313.28	78.5	0.9418	979.18	2
313.34	78.5	0.8857	966.2	2
313.32	78.5	0.6092	913.96	2
313.26	78.5	0.3407	886.03	2
313.28	78.5	0.0872	869.29	2
313.29	78.5	0.0593	867.9	2
313.35	78.5	0.0429	867.1	2
313.3	78.5	0.0404	866.86	2
313.28	78.5	0.0269	866.21	2
313.34	78.5	0.0208	866.07	2
293.28	100.7	1	998.33	2
293.25	100.7	0.9921	996.6	2
293.24	100.7	0.988	995.84	2
293.25	100.7	0.9826	994.99	2
293.26	100.7	0.9723	993.77	2
293.26	100.7	0.9709	993.65	2
293.26	100.7	0.9573	992.05	2
293.26	100.7	0.9519	991.41	2
293.26	100.7	0.9418	990.26	2
293.28	100.7	0.8857	981.18	2
293.27	100.7	0.6092	934.53	2
293.24	100.7	0.3407	907.93	2
293.26	100.7	0.0872	892.21	2
293.27	100.7	0.0593	890.31	2
293.27	100.7	0.0429	889.35	2
293.26	100.7	0.0404	889.18	2
293.27	100.7	0.0269	888.63	2
293.26	100.7	0.0208	888.29	2
298.24	100.7	1	997.02	2
298.22	100.7	0.9921	995.24	2
298.22	100.7	0.988	994.44	2
298.23	100.7	0.9826	993.49	2
298.23	100.7	0.9723	992.11	2
298.24	100.7	0.9709	991.95	2
298.24	100.7	0.9573	990.02	2
298.25	100.7	0.9519	989.18	2
298.23	100.7	0.9418	987.8	2
298.26	100.7	0.8857	977.65	2
298.25	100.7	0.6092	929.58	2
298.21	100.7	0.3407	902.65	2
298.22	100.7	0.0872	886.95	2
298.24	100.7	0.0593	884.9	2
298.25	100.7	0.0429	883.99	2
298.29	100.7	0.0404	883.83	2
298.23	100.7	0.0269	883.22	2
298.24	100.7	0.0208	882.93	2
303.11	100.7	1	995.66	2
303.1	100.7	0.9921	993.78	2
303.1	100.7	0.988	992.98	2
303.11	100.7	0.9826	991.85	2
303.11	100.7	0.9723	990.21	2
303.12	100.7	0.9709	990.06	2
303.11	100.7	0.9573	987.78	2
303.1	100.7	0.9519	986.81	2
303.09	100.7	0.9418	985.19	2
303.13	100.7	0.8857	974.07	2
303.12	100.7	0.6092	924.62	2
303.07	100.7	0.3407	897.4	2
303.1	100.7	0.0872	881.71	2
303.11	100.7	0.0593	879.58	2
303.13	100.7	0.0429	878.63	2
303.11	100.7	0.0404	878.45	2
303.1	100.7	0.0269	877.86	2
303.12	100.7	0.0208	877.61	2
308.24	100.7	1	994	2
308.22	100.7	0.9921	992.01	2
308.23	100.7	0.988	991.1	2
308.24	100.7	0.9826	989.95	2
308.24	100.7	0.9723	988.11	2
308.25	100.7	0.9709	987.82	2
308.25	100.7	0.9573	985.28	2
308.22	100.7	0.9519	984.24	2
308.22	100.7	0.9418	982.27	2
308.25	100.7	0.8857	970.18	2
308.25	100.7	0.6092	919.38	2
308.19	100.7	0.3407	891.86	2
308.22	100.7	0.0872	876.14	2
308.23	100.7	0.0593	873.88	2
308.26	100.7	0.0429	872.89	2
308.23	100.7	0.0404	872.75	2
308.23	100.7	0.0269	872.19	2
308.24	100.7	0.0208	871.93	2
313.3	100.7	1	992.16	2
313.29	100.7	0.9921	990.1	2
313.3	100.7	0.988	989.16	2
313.31	100.7	0.9826	987.87	2
313.32	100.7	0.9723	985.8	2
313.33	100.7	0.9709	985.55	2
313.34	100.7	0.9573	982.65	2
313.29	100.7	0.9519	981.43	2
313.28	100.7	0.9418	979.28	2
313.34	100.7	0.8857	966.33	2
313.32	100.7	0.6092	914.2	2
313.26	100.7	0.3407	886.33	2
313.28	100.7	0.0872	869.63	2
313.29	100.7	0.0593	868.25	2
313.35	100.7	0.0429	867.44	2
313.3	100.7	0.0404	867.21	2
313.28	100.7	0.0269	866.56	2
313.34	100.7	0.0208	866.42	2
