Measured thermophysical data. Determination of density, viscosity and vapor pressures of mixtures of dimethyl sulfoxide + 1-allyl-3-methylimidazolium chloride at atmospheric pressure
Source: J. Chem. Thermodyn., 2018, 10.1016/j.jct.2018.04.014
Compound 1: dimethyl sulfoxide, C2H6OS, InChI=1S/C2H6OS/c1-4(2)3/h1-2H3, purity 98%
Compound 2: 1-allyl-3-methylimidazolium chloride, C7H11ClN2, InChI=1S/C7H11N2.ClH/c1-3-4-9-6-5-8(2)7-9;/h3,5-7H,1,4H2,2H3;1H/q+1;/p-1, purity 98%
Compound 3: water, H2O, InChI=1S/H2O/h1H2, purity 99.8%

System: dimethyl sulfoxide; phases: Liquid, Gas
Property: Vapor or sublimation pressure, kPa (Liquid); method: Closed cell (Static) method
Temperature, K	Vapor or sublimation pressure, kPa	uncertainty
353.1	2	0.2
363.1	3.2	0.3
373.1	5	0.5
383.1	7.6	0.7
393.1	11.2	1
403.1	16	1.4
413.1	22.7	2
423.1	31.6	2.8
433.1	43.2	4.5

System: dimethyl sulfoxide; phases: Liquid
Fixed: Pressure, kPa = 93.4
Property: Mass density, kg/m3 (Liquid); method: Vibrating tube method
Temperature, K	Mass density, kg/m3	uncertainty
293.15	1101.2	1.1
303.15	1091.2	1.1
313.15	1081.1	1.1
323.15	1071.1	1
333.15	1061.2	1
343.15	1051.3	1
353.15	1041.1	1
363.15	1031.3	1
373.15	1021.4	1

System: dimethyl sulfoxide; phases: Liquid
Fixed: Pressure, kPa = 93.4
Property: Viscosity, Pa*s (Liquid); method: Concentric cylinders viscometry
Temperature, K	Viscosity, Pa*s	uncertainty
293.15	0.00226	5e-05
303.15	0.00185	4e-05
313.15	0.00156	4e-05
323.15	0.00133	3e-05
333.15	0.00116	3e-05
343.15	0.00102	2e-05
353.15	0.000905	2.1e-05
363.15	0.000815	1.9e-05
373.15	0.000741	1.8e-05

System: dimethyl sulfoxide + 1-allyl-3-methylimidazolium chloride + water; phases: Liquid
Property: Mass density, kg/m3 (Liquid); method: Vibrating tube method
Pressure, kPa	Temperature, K	Mole fraction of water	Mole fraction of dimethyl sulfoxide	Mass density, kg/m3	uncertainty
93.4	323.15	0.059	0	1132.7	1.1
93.4	333.15	0.059	0	1127.1	1.1
93.4	343.15	0.059	0	1121.5	1
93.4	353.15	0.059	0	1116	1
93.4	363.15	0.059	0	1110.5	1
93.4	373.15	0.059	0	1105.2	1
93.1	313.15	0.042	0.048	1138.2	1.1
93.1	323.15	0.042	0.048	1132.4	1.1
93.1	333.15	0.042	0.048	1126.7	1.1
93.1	343.15	0.042	0.048	1121	1.1
93.1	353.15	0.042	0.048	1115.4	1.1
93.1	363.15	0.042	0.048	1109.9	1.1
93.1	373.15	0.042	0.048	1104.5	1.1
92.8	293.15	0.047	0.091	1150	1.1
92.8	303.15	0.047	0.091	1143.9	1.1
92.8	313.15	0.047	0.091	1137.8	1.1
92.8	323.15	0.047	0.091	1131.9	1.1
92.8	333.15	0.047	0.091	1126.1	1.1
92.8	343.15	0.047	0.091	1120.3	1.1
92.8	353.15	0.047	0.091	1114.6	1.1
92.8	363.15	0.047	0.091	1108.9	1.1
92.8	373.15	0.047	0.091	1103.4	1
92.8	293.15	0.048	0.14	1149.6	1.1
92.8	303.15	0.048	0.14	1143.4	1.1
92.8	313.15	0.048	0.14	1137.3	1.1
92.8	323.15	0.048	0.14	1131.3	1.1
92.8	333.15	0.048	0.14	1125.4	1.1
92.8	343.15	0.048	0.14	1119.5	1.1
92.8	353.15	0.048	0.14	1113.6	1.1
92.8	363.15	0.048	0.14	1107.9	1
92.8	373.15	0.048	0.14	1102.4	1
92.9	293.15	0.049	0.241	1148.2	1.1
92.9	303.15	0.049	0.241	1142	1.1
92.9	313.15	0.049	0.241	1135.7	1.1
92.9	323.15	0.049	0.241	1129.2	1.1
92.9	333.15	0.049	0.241	1123.1	1.1
92.9	343.15	0.049	0.241	1117.2	1.1
92.9	353.15	0.049	0.241	1111.2	1.1
92.9	363.15	0.049	0.241	1105.2	1
92.9	373.15	0.049	0.241	1099.3	1
93.1	293.15	0.031	0.482	1143.6	1.1
93.1	303.15	0.031	0.482	1136.7	1.1
93.1	313.15	0.031	0.482	1129.7	1.1
93.1	323.15	0.031	0.482	1122.9	1.1
93.1	333.15	0.031	0.482	1116.1	1.1
93.1	343.15	0.031	0.482	1109.3	1.1
93.1	353.15	0.031	0.482	1102.6	1.1
93.1	363.15	0.031	0.482	1096	1.1
93.1	373.15	0.031	0.482	1089.4	1
93	293.15	0.023	0.728	1130.2	1.1
93	303.15	0.023	0.728	1122.3	1.1
93	313.15	0.023	0.728	1114.3	1.1
93	323.15	0.023	0.728	1106.2	1.1
93	333.15	0.023	0.728	1098.1	1.1
93	343.15	0.023	0.728	1090.1	1.1
93	353.15	0.023	0.728	1082.4	1
93	363.15	0.023	0.728	1074.5	1
93	373.15	0.023	0.728	1066.8	1
93.5	293.15	0.008	0.893	1116.9	1.1
93.5	303.15	0.008	0.893	1108	1.1
93.5	313.15	0.008	0.893	1099	1.1
93.5	323.15	0.008	0.893	1090	1.1
93.5	333.15	0.008	0.893	1081	1.1
93.5	343.15	0.008	0.893	1072	1
93.5	353.15	0.008	0.893	1063.1	1
93.5	363.15	0.008	0.893	1054.3	1
93.5	373.15	0.008	0.893	1045.5	1
93.4	293.15	0.001	0.999	1101.2	1.1
93.4	303.15	0.001	0.999	1091.2	1.1
93.4	313.15	0.001	0.999	1081.1	1.1
93.4	323.15	0.001	0.999	1071.1	1.1
93.4	333.15	0.001	0.999	1061.2	1
93.4	343.15	0.001	0.999	1051.3	1
93.4	353.15	0.001	0.999	1041.1	1
93.4	363.15	0.001	0.999	1031.3	1
93.4	373.15	0.001	0.999	1021.4	1

System: dimethyl sulfoxide + 1-allyl-3-methylimidazolium chloride + water; phases: Liquid
Property: Viscosity, Pa*s (Liquid); method: Concentric cylinders viscometry
Pressure, kPa	Temperature, K	Mole fraction of water	Mole fraction of dimethyl sulfoxide	Viscosity, Pa*s	uncertainty
93.4	323.15	0.059	0	0.212	0.006
93.4	333.15	0.059	0	0.115	0.003
93.4	343.15	0.059	0	0.0687	0.0016
93.4	353.15	0.059	0	0.044	0.001
93.4	363.15	0.059	0	0.03	0.0007
93.4	373.15	0.059	0	0.0214	0.0005
93.1	313.15	0.042	0.048	0.388	0.014
93.1	323.15	0.042	0.048	0.195	0.006
93.1	333.15	0.042	0.048	0.107	0.003
93.1	343.15	0.042	0.048	0.064	0.0015
93.1	353.15	0.042	0.048	0.0413	0.0009
93.1	363.15	0.042	0.048	0.0282	0.0006
93.1	373.15	0.042	0.048	0.0203	0.0005
92.8	293.15	0.047	0.091	1.33	0.068
92.8	303.15	0.047	0.091	0.529	0.021
92.8	313.15	0.047	0.091	0.247	0.008
92.8	323.15	0.047	0.091	0.13	0.003
92.8	333.15	0.047	0.091	0.0755	0.0017
92.8	343.15	0.047	0.091	0.0474	0.0011
92.8	353.15	0.047	0.091	0.0316	0.0007
92.8	363.15	0.047	0.091	0.0223	0.0005
92.8	373.15	0.047	0.091	0.0162	0.0004
92.8	293.15	0.048	0.14	1.07	0.051
92.8	303.15	0.048	0.14	0.439	0.016
92.8	313.15	0.048	0.14	0.209	0.006
92.8	323.15	0.048	0.14	0.112	0.003
92.8	333.15	0.048	0.14	0.0661	0.0015
92.8	343.15	0.048	0.14	0.0421	0.001
92.8	353.15	0.048	0.14	0.0284	0.0006
92.8	363.15	0.048	0.14	0.0202	0.0005
92.8	373.15	0.048	0.14	0.015	0.0003
92.9	293.15	0.049	0.241	0.557	0.022
92.9	303.15	0.049	0.241	0.25	0.008
92.9	313.15	0.049	0.241	0.128	0.003
92.9	323.15	0.049	0.241	0.0757	0.0018
92.9	333.15	0.049	0.241	0.0461	0.001
92.9	343.15	0.049	0.241	0.0303	0.0007
92.9	353.15	0.049	0.241	0.021	0.0005
92.9	363.15	0.049	0.241	0.0153	0.0003
92.9	373.15	0.049	0.241	0.0116	0.0003
93.1	293.15	0.031	0.482	0.133	0.004
93.1	303.15	0.031	0.482	0.0704	0.0016
93.1	313.15	0.031	0.482	0.0417	0.0009
93.1	323.15	0.031	0.482	0.0267	0.0006
93.1	333.15	0.031	0.482	0.0183	0.0004
93.1	343.15	0.031	0.482	0.0131	0.0003
93.1	353.15	0.031	0.482	0.00985	0.00022
93.1	363.15	0.031	0.482	0.00764	0.00017
93.1	373.15	0.031	0.482	0.0061	0.00014
93	293.15	0.021	0.729	0.0163	0.0004
93	303.15	0.021	0.729	0.0111	0.0003
93	313.15	0.021	0.729	0.00804	0.00018
93	323.15	0.021	0.729	0.00608	0.00014
93	333.15	0.021	0.729	0.00476	0.00011
93	343.15	0.021	0.729	0.00383	9e-05
93	353.15	0.021	0.729	0.00316	7e-05
93	363.15	0.021	0.729	0.00266	6e-05
93	373.15	0.021	0.729	0.00228	5e-05
93.5	293.15	0.008	0.893	0.00533	0.00012
93.5	303.15	0.008	0.893	0.00406	9e-05
93.5	313.15	0.008	0.893	0.00321	7e-05
93.5	323.15	0.008	0.893	0.0026	6e-05
93.5	333.15	0.008	0.893	0.00216	5e-05
93.5	343.15	0.008	0.893	0.00183	4e-05
93.5	353.15	0.008	0.893	0.00157	4e-05
93.5	363.15	0.008	0.893	0.00136	3e-05
93.5	373.15	0.008	0.893	0.0012	3e-05
93.4	293.15	0.001	0.999	0.00226	5e-05
93.4	303.15	0.001	0.999	0.00185	4e-05
93.4	313.15	0.001	0.999	0.00156	4e-05
93.4	323.15	0.001	0.999	0.00133	3e-05
93.4	333.15	0.001	0.999	0.00116	3e-05
93.4	343.15	0.001	0.999	0.00102	2e-05
93.4	353.15	0.001	0.999	0.000905	2.1e-05
93.4	363.15	0.001	0.999	0.000815	1.9e-05
93.4	373.15	0.001	0.999	0.000741	1.8e-05

System: dimethyl sulfoxide + 1-allyl-3-methylimidazolium chloride + water; phases: Liquid, Gas
Fixed: Mole fraction of dimethyl sulfoxide = 0.088
Fixed: Mole fraction of water = 0.011
Property: Vapor or sublimation pressure, kPa (Liquid); method: Closed cell (Static) method
Temperature, K	Vapor or sublimation pressure, kPa	uncertainty
353.1	0.5	0.1
363.1	0.8	0.1
373.1	1.3	0.2
383.1	2	0.3
393.1	3.3	0.4
403.1	5.1	0.7
413.1	7.6	1
423.1	11.3	1.5
433.1	16.4	2.7

System: dimethyl sulfoxide + 1-allyl-3-methylimidazolium chloride; phases: Liquid, Gas
Property: Vapor or sublimation pressure, kPa (Liquid); method: Closed cell (Static) method
Temperature, K	Mole fraction of dimethyl sulfoxide	Vapor or sublimation pressure, kPa	uncertainty
353.1	1	2	0.2
353.1	0.973	1.8	0.2
353.1	0.947	1.7	0.2
353.1	0.896	1.5	0.1
353.1	0.822	1.3	0.1
353.1	0.753	1.2	0.1
353.1	0.664	1.1	0.1
353.1	0.58	1.1	0.1
353.1	0.452	1	0.1
353.1	0.357	0.8	0.1
353.1	0.344	0.8	0.1
353.1	0.194	0.7	0.1
353.1	0.167	0.6	0.1
353.1	0.15	0.5	0.1
363.1	1	3.2	0.3
363.1	0.973	2.8	0.3
363.1	0.947	2.6	0.2
363.1	0.896	2.4	0.2
363.1	0.822	2.1	0.2
363.1	0.753	1.9	0.2
363.1	0.664	1.8	0.2
363.1	0.58	1.7	0.2
363.1	0.452	1.5	0.1
363.1	0.357	1.3	0.1
363.1	0.344	1.3	0.1
363.1	0.194	1.2	0.1
363.1	0.167	1	0.1
363.1	0.15	0.9	0.1
373.1	1	5	0.5
373.1	0.973	4.5	0.4
373.1	0.947	4.1	0.4
373.1	0.896	3.9	0.4
373.1	0.822	3.5	0.3
373.1	0.753	3.2	0.3
373.1	0.664	2.9	0.3
373.1	0.58	2.7	0.3
373.1	0.452	2.6	0.2
373.1	0.357	2.2	0.2
373.1	0.344	2.1	0.2
373.1	0.194	1.9	0.2
373.1	0.167	1.6	0.2
373.1	0.15	1.5	0.1
383.1	1	7.6	0.7
383.1	0.973	6.8	0.6
383.1	0.947	6.5	0.6
383.1	0.896	6.3	0.6
383.1	0.822	5.1	0.5
383.1	0.753	5.1	0.5
383.1	0.664	4.7	0.4
383.1	0.58	4.5	0.4
383.1	0.452	4.1	0.4
383.1	0.357	3.5	0.3
383.1	0.344	3.5	0.3
383.1	0.194	3	0.3
383.1	0.167	2.6	0.2
383.1	0.15	2.4	0.2
393.1	1	11.2	1
393.1	0.973	10	0.9
393.1	0.947	9.6	0.9
393.1	0.896	9.2	0.8
393.1	0.822	8.5	0.8
393.1	0.753	8	0.7
393.1	0.664	7.4	0.7
393.1	0.58	7.2	0.7
393.1	0.452	6.6	0.6
393.1	0.357	5.5	0.5
393.1	0.344	5.4	0.5
393.1	0.194	4.6	0.4
393.1	0.167	4.2	0.4
393.1	0.15	3.8	0.3
403.1	1	16	1.4
403.1	0.973	14.7	1.3
403.1	0.947	14.2	1.3
403.1	0.896	13.8	1.2
403.1	0.822	12.8	1.2
403.1	0.753	12.2	1.1
403.1	0.664	11.3	1
403.1	0.58	11	1
403.1	0.452	10	0.9
403.1	0.357	8.4	0.8
403.1	0.344	8.2	0.7
403.1	0.194	6.9	0.6
403.1	0.167	6.5	0.6
403.1	0.15	5.9	0.5
413.1	1	22.7	2
413.1	0.973	21	1.9
413.1	0.947	20.5	1.9
413.1	0.896	20.1	1.8
413.1	0.822	19	1.7
413.1	0.753	18.2	1.6
413.1	0.664	16.9	1.5
413.1	0.58	16.4	1.5
413.1	0.452	15.1	1.4
413.1	0.357	12.6	1.1
413.1	0.344	12.2	1.1
413.1	0.194	10.2	0.9
413.1	0.167	9.8	0.9
413.1	0.15	9	0.8
423.1	1	31.6	2.9
423.1	0.973	29.6	2.7
423.1	0.947	29.2	2.6
423.1	0.896	28.8	2.6
423.1	0.822	27.6	2.5
423.1	0.753	26.6	2.4
423.1	0.664	24.8	2.2
423.1	0.58	24.2	2.2
423.1	0.452	22.2	2
423.1	0.357	18.5	1.7
423.1	0.344	18	1.6
423.1	0.194	14.7	1.3
423.1	0.167	14.5	1.3
423.1	0.15	13.3	1.2
433.1	1	43.2	4.5
433.1	0.973	41.1	4.4
433.1	0.947	40.8	4.4
433.1	0.896	40.5	4.3
433.1	0.822	39.4	4.3
433.1	0.753	38.3	4.1
433.1	0.664	35.8	4
433.1	0.58	35	3.8
433.1	0.452	32.2	3.4
433.1	0.357	26.8	2.9
433.1	0.344	25.9	2.8
433.1	0.194	21	2.3
433.1	0.167	21.1	2.2
433.1	0.15	19.5	2.2

System: 1-allyl-3-methylimidazolium chloride + water; phases: Liquid
Fixed: Mole fraction of water = 0.059
Fixed: Pressure, kPa = 93.4
Property: Mass density, kg/m3 (Liquid); method: Vibrating tube method
Temperature, K	Mass density, kg/m3	uncertainty
323.15	1132.7	1.1
333.15	1127.1	1.1
343.15	1121.5	1
353.15	1116	1
363.15	1110.5	1
373.15	1105.2	1

System: 1-allyl-3-methylimidazolium chloride + water; phases: Liquid
Fixed: Mole fraction of water = 0.059
Fixed: Pressure, kPa = 93.4
Property: Viscosity, Pa*s (Liquid); method: Concentric cylinders viscometry
Temperature, K	Viscosity, Pa*s	uncertainty
323.15	0.212	0.006
333.15	0.115	0.003
343.15	0.0687	0.0016
353.15	0.044	0.001
363.15	0.03	0.0007
373.15	0.0214	0.0005
