Measured thermophysical data. Activity coefficients at infinite dilution for organic solutes and water in 1-ethyl-1-methylpyrrolidinium lactate
Source: J. Chem. Thermodyn., 2015, 10.1016/j.jct.2015.05.014
Compound 1: 1-ethyl-1-methylpyrrolidinium lactate, C10H21NO3, InChI=1S/C7H16N.C3H6O3/c1-3-8(2)6-4-5-7-8;1-2(4)3(5)6/h3-7H2,1-2H3;2,4H,1H3,(H,5,6)/q+1;/p-1, purity 93.8%
Compound 2: hexane, C6H14, InChI=1S/C6H14/c1-3-5-6-4-2/h3-6H2,1-2H3, purity 99%
Compound 3: 3-methylpentane, C6H14, InChI=1S/C6H14/c1-4-6(3)5-2/h6H,4-5H2,1-3H3, purity 99%
Compound 4: heptane, C7H16, InChI=1S/C7H16/c1-3-5-7-6-4-2/h3-7H2,1-2H3, purity 99.5%
Compound 5: octane, C8H18, InChI=1S/C8H18/c1-3-5-7-8-6-4-2/h3-8H2,1-2H3, purity 99%
Compound 6: 2,2,4-trimethylpentane, C8H18, InChI=1S/C8H18/c1-7(2)6-8(3,4)5/h7H,6H2,1-5H3, purity 99%
Compound 7: nonane, C9H20, InChI=1S/C9H20/c1-3-5-7-9-8-6-4-2/h3-9H2,1-2H3, purity 99%
Compound 8: decane, C10H22, InChI=1S/C10H22/c1-3-5-7-9-10-8-6-4-2/h3-10H2,1-2H3, purity 99%
Compound 9: cyclopentane, C5H10, InChI=1S/C5H10/c1-2-4-5-3-1/h1-5H2, purity 99%
Compound 10: cyclohexane, C6H12, InChI=1S/C6H12/c1-2-4-6-5-3-1/h1-6H2, purity 99%
Compound 11: methylcyclohexane, C7H14, InChI=1S/C7H14/c1-7-5-3-2-4-6-7/h7H,2-6H2,1H3, purity 99%
Compound 12: cycloheptane, C7H14, InChI=1S/C7H14/c1-2-4-6-7-5-3-1/h1-7H2, purity 98%
Compound 13: cyclooctane, C8H16, InChI=1S/C8H16/c1-2-4-6-8-7-5-3-1/h1-8H2, purity 99%
Compound 14: hex-1-ene, C6H12, InChI=1S/C6H12/c1-3-5-6-4-2/h3H,1,4-6H2,2H3, purity 99%
Compound 15: cyclohexene, C6H10, InChI=1S/C6H10/c1-2-4-6-5-3-1/h1-2H,3-6H2, purity 99%
Compound 16: 1-heptene, C7H14, InChI=1S/C7H14/c1-3-5-7-6-4-2/h3H,1,4-7H2,2H3, purity 99%
Compound 17: oct-1-ene, C8H16, InChI=1S/C8H16/c1-3-5-7-8-6-4-2/h3H,1,4-8H2,2H3, purity 98%
Compound 18: 1-decene, C10H20, InChI=1S/C10H20/c1-3-5-7-9-10-8-6-4-2/h3H,1,4-10H2,2H3, purity 97%
Compound 19: 1-pentyne, C5H8, InChI=1S/C5H8/c1-3-5-4-2/h1H,4-5H2,2H3, purity 99%
Compound 20: 1-hexyne, C6H10, InChI=1S/C6H10/c1-3-5-6-4-2/h1H,4-6H2,2H3, purity 97%
Compound 21: 1-heptyne, C7H12, InChI=1S/C7H12/c1-3-5-7-6-4-2/h1H,4-7H2,2H3, purity 98%
Compound 22: 1-octyne, C8H14, InChI=1S/C8H14/c1-3-5-7-8-6-4-2/h1H,4-8H2,2H3, purity 97%
Compound 23: benzene, C6H6, InChI=1S/C6H6/c1-2-4-6-5-3-1/h1-6H, purity 99.8%
Compound 24: toluene, C7H8, InChI=1S/C7H8/c1-7-5-3-2-4-6-7/h2-6H,1H3, purity 99.8%
Compound 25: ethylbenzene, C8H10, InChI=1S/C8H10/c1-2-8-6-4-3-5-7-8/h3-7H,2H2,1H3, purity 99.8%
Compound 26: 1,2-dimethylbenzene, C8H10, InChI=1S/C8H10/c1-7-5-3-4-6-8(7)2/h3-6H,1-2H3, purity 99%
Compound 27: 1,3-dimethylbenzene, C8H10, InChI=1S/C8H10/c1-7-4-3-5-8(2)6-7/h3-6H,1-2H3, purity 99%
Compound 28: 1,4-dimethylbenzene, C8H10, InChI=1S/C8H10/c1-7-3-5-8(2)6-4-7/h3-6H,1-2H3, purity 99%
Compound 29: acetone, C3H6O, InChI=1S/C3H6O/c1-3(2)4/h1-2H3, purity 99.9%
Compound 30: pentan-2-one, C5H10O, InChI=1S/C5H10O/c1-3-4-5(2)6/h3-4H2,1-2H3, purity 99%
Compound 31: pentan-3-one, C5H10O, InChI=1S/C5H10O/c1-3-5(6)4-2/h3-4H2,1-2H3, purity 99%
Compound 32: 2-hexanone, C6H12O, InChI=1S/C6H12O/c1-3-4-5-6(2)7/h3-5H2,1-2H3, purity 98%
Compound 33: 3-hexanone, C6H12O, InChI=1S/C6H12O/c1-3-5-6(7)4-2/h3-5H2,1-2H3, purity 98%
Compound 34: acetonitrile, C2H3N, InChI=1S/C2H3N/c1-2-3/h1H3, purity 99.9%
Compound 35: pyridine, C5H5N, InChI=1S/C5H5N/c1-2-4-6-5-3-1/h1-5H, purity 99.8%
Compound 36: 1-nitropropane, C3H7NO2, InChI=1S/C3H7NO2/c1-2-3-4(5)6/h2-3H2,1H3, purity 98.5%
Compound 37: thiophene, C4H4S, InChI=1S/C4H4S/c1-2-4-5-3-1/h1-4H, purity 99%
Compound 38: tetrahydrofuran, C4H8O, InChI=1S/C4H8O/c1-2-4-5-3-1/h1-4H2, purity 99.9%
Compound 39: 1,4-dioxane, C4H8O2, InChI=1S/C4H8O2/c1-2-6-4-3-5-1/h1-4H2, purity 99.8%
Compound 40: 2-methoxy-2-methylpropane, C5H12O, InChI=1S/C5H12O/c1-5(2,3)6-4/h1-4H3, purity 99.8%
Compound 41: 2-ethoxy-2-methylpropane, C6H14O, InChI=1S/C6H14O/c1-5-7-6(2,3)4/h5H2,1-4H3, purity 99%
Compound 42: 2-methoxy-2-methylbutane, C6H14O, InChI=1S/C6H14O/c1-5-6(2,3)7-4/h5H2,1-4H3, purity 97%
Compound 43: diethyl ether, C4H10O, InChI=1S/C4H10O/c1-3-5-4-2/h3-4H2,1-2H3, purity 99.9%
Compound 44: dipropyl ether, C6H14O, InChI=1S/C6H14O/c1-3-5-7-6-4-2/h3-6H2,1-2H3, purity 99%
Compound 45: diisopropyl ether, C6H14O, InChI=1S/C6H14O/c1-5(2)7-6(3)4/h5-6H,1-4H3, purity 99%
Compound 46: dibutyl ether, C8H18O, InChI=1S/C8H18O/c1-3-5-7-9-8-6-4-2/h3-8H2,1-2H3, purity 99.3%
Compound 47: methyl ethanoate, C3H6O2, InChI=1S/C3H6O2/c1-3(4)5-2/h1-2H3, purity 99.8%
Compound 48: methyl propanoate, C4H8O2, InChI=1S/C4H8O2/c1-3-4(5)6-2/h3H2,1-2H3, purity 99%
Compound 49: methyl butanoate, C5H10O2, InChI=1S/C5H10O2/c1-3-4-5(6)7-2/h3-4H2,1-2H3, purity 99%
Compound 50: ethyl acetate, C4H8O2, InChI=1S/C4H8O2/c1-3-6-4(2)5/h3H2,1-2H3, purity 99.8%
Compound 51: methanol, CH4O, InChI=1S/CH4O/c1-2/h2H,1H3, purity 99.9%
Compound 52: ethanol, C2H6O, InChI=1S/C2H6O/c1-2-3/h3H,2H2,1H3, purity 99.8%
Compound 53: propan-1-ol, C3H8O, InChI=1S/C3H8O/c1-2-3-4/h4H,2-3H2,1H3, purity 99.9%
Compound 54: butan-1-ol, C4H10O, InChI=1S/C4H10O/c1-2-3-4-5/h5H,2-4H2,1H3, purity 99.8%
Compound 55: water, H2O, InChI=1S/H2O/h1H2

System: 1-ethyl-1-methylpyrrolidinium lactate + hexane; phases: Liquid
Fixed: Pressure, kPa = 100
Fixed: Mole fraction of hexane = 0
Property: Activity coefficient of hexane (Liquid); method: Chromatography
Temperature, K	Activity coefficient of hexane	uncertainty
308.15	135	12
318.15	125	11
328.15	114	10
338.15	107	9
348.15	99.9	8.7
358.15	94.6	8.2
368.15	88.7	7.7

System: 1-ethyl-1-methylpyrrolidinium lactate + 3-methylpentane; phases: Liquid
Fixed: Pressure, kPa = 100
Fixed: Mole fraction of 3-methylpentane = 0
Property: Activity coefficient of 3-methylpentane (Liquid); method: Chromatography
Temperature, K	Activity coefficient of 3-methylpentane	uncertainty
308.15	122	11
318.15	111	10
328.15	102	9
338.15	94.5	8.2
348.15	88.7	7.7
358.15	83.5	7.2
368.15	78.4	6.8

System: 1-ethyl-1-methylpyrrolidinium lactate + heptane; phases: Liquid
Fixed: Pressure, kPa = 100
Fixed: Mole fraction of heptane = 0
Property: Activity coefficient of heptane (Liquid); method: Chromatography
Temperature, K	Activity coefficient of heptane	uncertainty
308.15	213	18
318.15	196	17
328.15	180	16
338.15	167	14
348.15	154	13
358.15	144	12
368.15	133	12

System: 1-ethyl-1-methylpyrrolidinium lactate + octane; phases: Liquid
Fixed: Pressure, kPa = 100
Fixed: Mole fraction of octane = 0
Property: Activity coefficient of octane (Liquid); method: Chromatography
Temperature, K	Activity coefficient of octane	uncertainty
308.15	334	29
318.15	307	27
328.15	275	24
338.15	254	22
348.15	236	20
358.15	217	19
368.15	200	17

System: 1-ethyl-1-methylpyrrolidinium lactate + 2,2,4-trimethylpentane; phases: Liquid
Fixed: Pressure, kPa = 100
Fixed: Mole fraction of 2,2,4-trimethylpentane = 0
Property: Activity coefficient of 2,2,4-trimethylpentane (Liquid); method: Chromatography
Temperature, K	Activity coefficient of 2,2,4-trimethylpentane	uncertainty
308.15	270	23
318.15	242	21
328.15	220	19
338.15	201	17
348.15	187	16
358.15	173	15
368.15	161	14

System: 1-ethyl-1-methylpyrrolidinium lactate + nonane; phases: Liquid
Fixed: Pressure, kPa = 100
Fixed: Mole fraction of nonane = 0
Property: Activity coefficient of nonane (Liquid); method: Chromatography
Temperature, K	Activity coefficient of nonane	uncertainty
308.15	518	45
318.15	474	41
328.15	423	37
338.15	389	34
348.15	358	31
358.15	326	28
368.15	297	26

System: 1-ethyl-1-methylpyrrolidinium lactate + decane; phases: Liquid
Fixed: Pressure, kPa = 100
Fixed: Mole fraction of decane = 0
Property: Activity coefficient of decane (Liquid); method: Chromatography
Temperature, K	Activity coefficient of decane	uncertainty
308.15	787	68
318.15	725	63
328.15	651	57
338.15	597	52
348.15	542	47
358.15	496	43
368.15	456	40

System: 1-ethyl-1-methylpyrrolidinium lactate + cyclopentane; phases: Liquid
Fixed: Pressure, kPa = 100
Fixed: Mole fraction of cyclopentane = 0
Property: Activity coefficient of cyclopentane (Liquid); method: Chromatography
Temperature, K	Activity coefficient of cyclopentane	uncertainty
308.15	31.7	2.7
318.15	29.7	2.6
328.15	28.2	2.4
338.15	26.9	2.3
348.15	25.7	2.2
358.15	24.7	2.1
368.15	23.5	2

System: 1-ethyl-1-methylpyrrolidinium lactate + cyclohexane; phases: Liquid
Fixed: Pressure, kPa = 100
Fixed: Mole fraction of cyclohexane = 0
Property: Activity coefficient of cyclohexane (Liquid); method: Chromatography
Temperature, K	Activity coefficient of cyclohexane	uncertainty
308.15	52.7	4.6
318.15	48.6	4.2
328.15	45	3.9
338.15	42.6	3.7
348.15	40.6	3.5
358.15	38.4	3.3
368.15	36.3	3.1

System: 1-ethyl-1-methylpyrrolidinium lactate + methylcyclohexane; phases: Liquid
Fixed: Pressure, kPa = 100
Fixed: Mole fraction of methylcyclohexane = 0
Property: Activity coefficient of methylcyclohexane (Liquid); method: Chromatography
Temperature, K	Activity coefficient of methylcyclohexane	uncertainty
308.15	87.4	7.6
318.15	80.7	7
328.15	75	6.5
338.15	69.7	6
348.15	65.7	5.7
358.15	61.8	5.3
368.15	57.8	5

System: 1-ethyl-1-methylpyrrolidinium lactate + cycloheptane; phases: Liquid
Fixed: Pressure, kPa = 100
Fixed: Mole fraction of cycloheptane = 0
Property: Activity coefficient of cycloheptane (Liquid); method: Chromatography
Temperature, K	Activity coefficient of cycloheptane	uncertainty
308.15	69.7	6
318.15	64.6	5.6
328.15	60.3	5.2
338.15	57	4.9
348.15	53.8	4.7
358.15	51	4.4
368.15	47.8	4.1

System: 1-ethyl-1-methylpyrrolidinium lactate + cyclooctane; phases: Liquid
Fixed: Pressure, kPa = 100
Fixed: Mole fraction of cyclooctane = 0
Property: Activity coefficient of cyclooctane (Liquid); method: Chromatography
Temperature, K	Activity coefficient of cyclooctane	uncertainty
308.15	95.8	8.3
318.15	88.7	7.7
328.15	82.1	7.1
338.15	77.2	6.7
348.15	72.6	6.3
358.15	68	5.9
368.15	63.9	5.5

System: 1-ethyl-1-methylpyrrolidinium lactate + hex-1-ene; phases: Liquid
Fixed: Pressure, kPa = 100
Fixed: Mole fraction of hex-1-ene = 0
Property: Activity coefficient of hex-1-ene (Liquid); method: Chromatography
Temperature, K	Activity coefficient of hex-1-ene	uncertainty
308.15	56	4.8
318.15	53.3	4.6
328.15	50.9	4.4
338.15	48.7	4.2
348.15	46.6	4
358.15	44.7	3.9
368.15	42.9	3.7

System: 1-ethyl-1-methylpyrrolidinium lactate + cyclohexene; phases: Liquid
Fixed: Pressure, kPa = 100
Fixed: Mole fraction of cyclohexene = 0
Property: Activity coefficient of cyclohexene (Liquid); method: Chromatography
Temperature, K	Activity coefficient of cyclohexene	uncertainty
308.15	22.4	1.9
318.15	21.7	1.9
328.15	20.7	1.8
338.15	20.2	1.7
348.15	19.7	1.7
358.15	19.5	1.7
368.15	18.9	1.6

System: 1-ethyl-1-methylpyrrolidinium lactate + 1-heptene; phases: Liquid
Fixed: Pressure, kPa = 100
Fixed: Mole fraction of 1-heptene = 0
Property: Activity coefficient of 1-heptene (Liquid); method: Chromatography
Temperature, K	Activity coefficient of 1-heptene	uncertainty
308.15	88.8	7.7
318.15	83.8	7.3
328.15	78.7	6.8
338.15	75.2	6.5
348.15	71.9	6.2
358.15	68.8	6
368.15	66.4	5.7

System: 1-ethyl-1-methylpyrrolidinium lactate + oct-1-ene; phases: Liquid
Fixed: Pressure, kPa = 100
Fixed: Mole fraction of oct-1-ene = 0
Property: Activity coefficient of oct-1-ene (Liquid); method: Chromatography
Temperature, K	Activity coefficient of oct-1-ene	uncertainty
308.15	145	13
318.15	136	12
328.15	127	11
338.15	120	10
348.15	114	10
358.15	108	9
368.15	103	9

System: 1-ethyl-1-methylpyrrolidinium lactate + 1-decene; phases: Liquid
Fixed: Pressure, kPa = 100
Fixed: Mole fraction of 1-decene = 0
Property: Activity coefficient of 1-decene (Liquid); method: Chromatography
Temperature, K	Activity coefficient of 1-decene	uncertainty
308.15	349	30
318.15	326	28
328.15	302	26
338.15	284	25
348.15	268	23
358.15	252	22
368.15	238	21

System: 1-ethyl-1-methylpyrrolidinium lactate + 1-pentyne; phases: Liquid
Fixed: Pressure, kPa = 100
Fixed: Mole fraction of 1-pentyne = 0
Property: Activity coefficient of 1-pentyne (Liquid); method: Chromatography
Temperature, K	Activity coefficient of 1-pentyne	uncertainty
308.15	3.18	0.27
318.15	3.43	0.3
328.15	3.66	0.32
338.15	3.95	0.34
348.15	4.2	0.4
358.15	4.46	0.38
368.15	4.69	0.4

System: 1-ethyl-1-methylpyrrolidinium lactate + 1-hexyne; phases: Liquid
Fixed: Pressure, kPa = 100
Fixed: Mole fraction of 1-hexyne = 0
Property: Activity coefficient of 1-hexyne (Liquid); method: Chromatography
Temperature, K	Activity coefficient of 1-hexyne	uncertainty
308.15	5.14	0.44
318.15	5.48	0.47
328.15	5.79	0.5
338.15	6.21	0.54
348.15	6.54	0.56
358.15	6.92	0.6
368.15	7.24	0.62

System: 1-ethyl-1-methylpyrrolidinium lactate + 1-heptyne; phases: Liquid
Fixed: Pressure, kPa = 100
Fixed: Mole fraction of 1-heptyne = 0
Property: Activity coefficient of 1-heptyne (Liquid); method: Chromatography
Temperature, K	Activity coefficient of 1-heptyne	uncertainty
308.15	8.33	0.72
318.15	8.83	0.76
328.15	9.25	0.8
338.15	9.82	0.85
348.15	10.3	0.9
358.15	10.7	0.9
368.15	11.2	1

System: 1-ethyl-1-methylpyrrolidinium lactate + 1-octyne; phases: Liquid
Fixed: Pressure, kPa = 100
Fixed: Mole fraction of 1-octyne = 0
Property: Activity coefficient of 1-octyne (Liquid); method: Chromatography
Temperature, K	Activity coefficient of 1-octyne	uncertainty
308.15	13.6	1.2
318.15	14.2	1.2
328.15	14.7	1.3
338.15	15.5	1.3
348.15	16	1.4
358.15	16.6	1.4
368.15	17.1	1.5

System: 1-ethyl-1-methylpyrrolidinium lactate + benzene; phases: Liquid
Fixed: Pressure, kPa = 100
Fixed: Mole fraction of benzene = 0
Property: Activity coefficient of benzene (Liquid); method: Chromatography
Temperature, K	Activity coefficient of benzene	uncertainty
318.15	2.85	0.25
328.15	2.94	0.25
338.15	3.04	0.26
348.15	3.14	0.27
358.15	3.24	0.28
368.15	3.36	0.29

System: 1-ethyl-1-methylpyrrolidinium lactate + toluene; phases: Liquid
Fixed: Pressure, kPa = 100
Fixed: Mole fraction of toluene = 0
Property: Activity coefficient of toluene (Liquid); method: Chromatography
Temperature, K	Activity coefficient of toluene	uncertainty
318.15	5.36	0.46
328.15	5.5	0.47
338.15	5.62	0.48
348.15	5.76	0.5
358.15	5.89	0.51
368.15	6.06	0.52

System: 1-ethyl-1-methylpyrrolidinium lactate + ethylbenzene; phases: Liquid
Fixed: Pressure, kPa = 100
Fixed: Mole fraction of ethylbenzene = 0
Property: Activity coefficient of ethylbenzene (Liquid); method: Chromatography
Temperature, K	Activity coefficient of ethylbenzene	uncertainty
318.15	9.27	0.8
328.15	9.36	0.81
338.15	9.45	0.82
348.15	9.58	0.83
358.15	9.68	0.84
368.15	9.86	0.85

System: 1-ethyl-1-methylpyrrolidinium lactate + 1,2-dimethylbenzene; phases: Liquid
Fixed: Pressure, kPa = 100
Fixed: Mole fraction of 1,2-dimethylbenzene = 0
Property: Activity coefficient of 1,2-dimethylbenzene (Liquid); method: Chromatography
Temperature, K	Activity coefficient of 1,2-dimethylbenzene	uncertainty
318.15	8.23	0.71
328.15	8.33	0.72
338.15	8.46	0.73
348.15	8.57	0.74
358.15	8.69	0.75
368.15	8.9	0.8

System: 1-ethyl-1-methylpyrrolidinium lactate + 1,3-dimethylbenzene; phases: Liquid
Fixed: Pressure, kPa = 100
Fixed: Mole fraction of 1,3-dimethylbenzene = 0
Property: Activity coefficient of 1,3-dimethylbenzene (Liquid); method: Chromatography
Temperature, K	Activity coefficient of 1,3-dimethylbenzene	uncertainty
318.15	10.1	0.9
328.15	10.2	0.9
338.15	10.4	0.9
348.15	10.4	0.9
358.15	10.5	0.9
368.15	10.7	0.9

System: 1-ethyl-1-methylpyrrolidinium lactate + 1,4-dimethylbenzene; phases: Liquid
Fixed: Pressure, kPa = 100
Fixed: Mole fraction of 1,4-dimethylbenzene = 0
Property: Activity coefficient of 1,4-dimethylbenzene (Liquid); method: Chromatography
Temperature, K	Activity coefficient of 1,4-dimethylbenzene	uncertainty
318.15	10	0.9
328.15	10.1	0.9
338.15	10.3	0.9
348.15	10.4	0.9
358.15	10.5	0.9
368.15	10.7	0.9

System: 1-ethyl-1-methylpyrrolidinium lactate + acetone; phases: Liquid
Fixed: Pressure, kPa = 100
Fixed: Mole fraction of acetone = 0
Property: Activity coefficient of acetone (Liquid); method: Chromatography
Temperature, K	Activity coefficient of acetone	uncertainty
318.15	1.93	0.17
328.15	1.97	0.17
338.15	2.03	0.18
348.15	2.08	0.18
358.15	2.14	0.18
368.15	2.21	0.19

System: 1-ethyl-1-methylpyrrolidinium lactate + pentan-2-one; phases: Liquid
Fixed: Pressure, kPa = 100
Fixed: Mole fraction of pentan-2-one = 0
Property: Activity coefficient of pentan-2-one (Liquid); method: Chromatography
Temperature, K	Activity coefficient of pentan-2-one	uncertainty
318.15	4.7	0.41
328.15	4.78	0.41
338.15	4.85	0.42
348.15	4.93	0.43
358.15	5.01	0.43
368.15	5.14	0.44

System: 1-ethyl-1-methylpyrrolidinium lactate + pentan-3-one; phases: Liquid
Fixed: Pressure, kPa = 100
Fixed: Mole fraction of pentan-3-one = 0
Property: Activity coefficient of pentan-3-one (Liquid); method: Chromatography
Temperature, K	Activity coefficient of pentan-3-one	uncertainty
318.15	4.84	0.42
328.15	4.93	0.43
338.15	5.05	0.44
348.15	5.14	0.44
358.15	5.22	0.45
368.15	5.35	0.46

System: 1-ethyl-1-methylpyrrolidinium lactate + 2-hexanone; phases: Liquid
Fixed: Pressure, kPa = 100
Fixed: Mole fraction of 2-hexanone = 0
Property: Activity coefficient of 2-hexanone (Liquid); method: Chromatography
Temperature, K	Activity coefficient of 2-hexanone	uncertainty
318.15	7.09	0.61
328.15	7.16	0.62
338.15	7.22	0.62
348.15	7.31	0.63
358.15	7.39	0.64
368.15	7.54	0.65

System: 1-ethyl-1-methylpyrrolidinium lactate + 3-hexanone; phases: Liquid
Fixed: Pressure, kPa = 100
Fixed: Mole fraction of 3-hexanone = 0
Property: Activity coefficient of 3-hexanone (Liquid); method: Chromatography
Temperature, K	Activity coefficient of 3-hexanone	uncertainty
318.15	8.06	0.7
328.15	8.06	0.7
338.15	8.12	0.7
348.15	8.19	0.71
358.15	8.25	0.71
368.15	8.4	0.73

System: 1-ethyl-1-methylpyrrolidinium lactate + acetonitrile; phases: Liquid
Fixed: Pressure, kPa = 100
Fixed: Mole fraction of acetonitrile = 0
Property: Activity coefficient of acetonitrile (Liquid); method: Chromatography
Temperature, K	Activity coefficient of acetonitrile	uncertainty
318.15	0.773	0.065
328.15	0.808	0.068
338.15	0.844	0.07
348.15	0.88	0.07
358.15	0.915	0.076
368.15	0.962	0.079

System: 1-ethyl-1-methylpyrrolidinium lactate + pyridine; phases: Liquid
Fixed: Pressure, kPa = 100
Fixed: Mole fraction of pyridine = 0
Property: Activity coefficient of pyridine (Liquid); method: Chromatography
Temperature, K	Activity coefficient of pyridine	uncertainty
318.15	1.26	0.11
328.15	1.3	0.11
338.15	1.36	0.11
348.15	1.41	0.12
358.15	1.46	0.12
368.15	1.53	0.13

System: 1-ethyl-1-methylpyrrolidinium lactate + 1-nitropropane; phases: Liquid
Fixed: Pressure, kPa = 100
Fixed: Mole fraction of 1-nitropropane = 0
Property: Activity coefficient of 1-nitropropane (Liquid); method: Chromatography
Temperature, K	Activity coefficient of 1-nitropropane	uncertainty
318.15	1.75	0.15
328.15	1.8	0.15
338.15	1.86	0.16
348.15	1.92	0.16
358.15	1.98	0.17
368.15	2.06	0.18

System: 1-ethyl-1-methylpyrrolidinium lactate + thiophene; phases: Liquid
Fixed: Pressure, kPa = 100
Fixed: Mole fraction of thiophene = 0
Property: Activity coefficient of thiophene (Liquid); method: Chromatography
Temperature, K	Activity coefficient of thiophene	uncertainty
318.15	1.29	0.11
328.15	1.38	0.12
338.15	1.47	0.12
348.15	1.56	0.13
358.15	1.64	0.14
368.15	1.75	0.15

System: 1-ethyl-1-methylpyrrolidinium lactate + tetrahydrofuran; phases: Liquid
Fixed: Pressure, kPa = 100
Fixed: Mole fraction of tetrahydrofuran = 0
Property: Activity coefficient of tetrahydrofuran (Liquid); method: Chromatography
Temperature, K	Activity coefficient of tetrahydrofuran	uncertainty
318.15	3.54	0.31
328.15	3.59	0.31
338.15	3.62	0.31
348.15	3.68	0.32
358.15	3.74	0.32
368.15	3.82	0.33
308.15	3.51	0.3

System: 1-ethyl-1-methylpyrrolidinium lactate + 1,4-dioxane; phases: Liquid
Fixed: Pressure, kPa = 100
Fixed: Mole fraction of 1,4-dioxane = 0
Property: Activity coefficient of 1,4-dioxane (Liquid); method: Chromatography
Temperature, K	Activity coefficient of 1,4-dioxane	uncertainty
318.15	2.25	0.19
328.15	2.33	0.2
338.15	2.4	0.21
348.15	2.48	0.21
358.15	2.55	0.22
368.15	2.65	0.23

System: 1-ethyl-1-methylpyrrolidinium lactate + 2-methoxy-2-methylpropane; phases: Liquid
Fixed: Pressure, kPa = 100
Fixed: Mole fraction of 2-methoxy-2-methylpropane = 0
Property: Activity coefficient of 2-methoxy-2-methylpropane (Liquid); method: Chromatography
Temperature, K	Activity coefficient of 2-methoxy-2-methylpropane	uncertainty
318.15	18	1.6
328.15	17.9	1.5
338.15	17.9	1.5
348.15	17.8	1.5
358.15	17.7	1.5
368.15	17.7	1.5
308.15	18.1	1.6

System: 1-ethyl-1-methylpyrrolidinium lactate + 2-ethoxy-2-methylpropane; phases: Liquid
Fixed: Pressure, kPa = 100
Fixed: Mole fraction of 2-ethoxy-2-methylpropane = 0
Property: Activity coefficient of 2-ethoxy-2-methylpropane (Liquid); method: Chromatography
Temperature, K	Activity coefficient of 2-ethoxy-2-methylpropane	uncertainty
318.15	45.2	3.9
328.15	43.9	3.8
338.15	42.5	3.7
348.15	41.6	3.6
358.15	40.7	3.5
368.15	39.7	3.4
308.15	46.2	4

System: 1-ethyl-1-methylpyrrolidinium lactate + 2-methoxy-2-methylbutane; phases: Liquid
Fixed: Pressure, kPa = 100
Fixed: Mole fraction of 2-methoxy-2-methylbutane = 0
Property: Activity coefficient of 2-methoxy-2-methylbutane (Liquid); method: Chromatography
Temperature, K	Activity coefficient of 2-methoxy-2-methylbutane	uncertainty
318.15	27.8	2.4
328.15	27.3	2.4
338.15	26.8	2.3
348.15	26.3	2.3
358.15	26.1	2.3
368.15	25.8	2.2
308.15	27.9	2.4

System: 1-ethyl-1-methylpyrrolidinium lactate + diethyl ether; phases: Liquid
Fixed: Pressure, kPa = 100
Fixed: Mole fraction of diethyl ether = 0
Property: Activity coefficient of diethyl ether (Liquid); method: Chromatography
Temperature, K	Activity coefficient of diethyl ether	uncertainty
318.15	15.6	1.3
328.15	15.5	1.3
338.15	15.1	1.3
348.15	15	1.3
358.15	15.1	1.3
368.15	14.9	1.3
308.15	15.8	1.4

System: 1-ethyl-1-methylpyrrolidinium lactate + dipropyl ether; phases: Liquid
Fixed: Pressure, kPa = 100
Fixed: Mole fraction of dipropyl ether = 0
Property: Activity coefficient of dipropyl ether (Liquid); method: Chromatography
Temperature, K	Activity coefficient of dipropyl ether	uncertainty
318.15	50.3	4.4
328.15	48.2	4.2
338.15	46.2	4
348.15	44.8	3.9
358.15	43.2	3.7
368.15	41.9	3.6
308.15	52.1	4.5

System: 1-ethyl-1-methylpyrrolidinium lactate + diisopropyl ether; phases: Liquid
Fixed: Pressure, kPa = 100
Fixed: Mole fraction of diisopropyl ether = 0
Property: Activity coefficient of diisopropyl ether (Liquid); method: Chromatography
Temperature, K	Activity coefficient of diisopropyl ether	uncertainty
318.15	53.6	4.6
328.15	52	4.5
338.15	50.1	4.3
348.15	48.6	4.2
358.15	47.2	4.1
368.15	45.9	4
308.15	55.3	4.8

System: 1-ethyl-1-methylpyrrolidinium lactate + dibutyl ether; phases: Liquid
Fixed: Pressure, kPa = 100
Fixed: Mole fraction of dibutyl ether = 0
Property: Activity coefficient of dibutyl ether (Liquid); method: Chromatography
Temperature, K	Activity coefficient of dibutyl ether	uncertainty
318.15	133	12
328.15	125	11
338.15	118	10
348.15	110	10
358.15	105	9
368.15	98.8	8.6
308.15	142	12

System: 1-ethyl-1-methylpyrrolidinium lactate + methyl ethanoate; phases: Liquid
Fixed: Pressure, kPa = 100
Fixed: Mole fraction of methyl ethanoate = 0
Property: Activity coefficient of methyl ethanoate (Liquid); method: Chromatography
Temperature, K	Activity coefficient of methyl ethanoate	uncertainty
318.15	2.95	0.25
328.15	3.03	0.26
338.15	3.1	0.27
348.15	3.18	0.27
358.15	3.25	0.28
368.15	3.37	0.29
378.15	3.45	0.3

System: 1-ethyl-1-methylpyrrolidinium lactate + methyl propanoate; phases: Liquid
Fixed: Pressure, kPa = 100
Fixed: Mole fraction of methyl propanoate = 0
Property: Activity coefficient of methyl propanoate (Liquid); method: Chromatography
Temperature, K	Activity coefficient of methyl propanoate	uncertainty
318.15	4.71	0.41
328.15	4.79	0.41
338.15	4.88	0.42
348.15	4.97	0.43
358.15	5.06	0.44
368.15	5.22	0.45
378.15	5.32	0.46

System: 1-ethyl-1-methylpyrrolidinium lactate + methyl butanoate; phases: Liquid
Fixed: Pressure, kPa = 100
Fixed: Mole fraction of methyl butanoate = 0
Property: Activity coefficient of methyl butanoate (Liquid); method: Chromatography
Temperature, K	Activity coefficient of methyl butanoate	uncertainty
318.15	7.46	0.64
328.15	7.56	0.65
338.15	7.6	0.66
348.15	7.74	0.67
358.15	7.84	0.68
368.15	8.01	0.69
378.15	8.08	0.7

System: 1-ethyl-1-methylpyrrolidinium lactate + ethyl acetate; phases: Liquid
Fixed: Pressure, kPa = 100
Fixed: Mole fraction of ethyl acetate = 0
Property: Activity coefficient of ethyl acetate (Liquid); method: Chromatography
Temperature, K	Activity coefficient of ethyl acetate	uncertainty
318.15	5.04	0.43
328.15	5.14	0.44
338.15	5.23	0.45
348.15	5.32	0.46
358.15	5.43	0.47
368.15	5.56	0.48
378.15	5.66	0.49

System: 1-ethyl-1-methylpyrrolidinium lactate + methanol; phases: Liquid
Fixed: Pressure, kPa = 100
Fixed: Mole fraction of methanol = 0
Property: Activity coefficient of methanol (Liquid); method: Chromatography
Temperature, K	Activity coefficient of methanol	uncertainty
358.15	0.086	0.03
368.15	0.095	0.03
378.15	0.105	0.03
388.15	0.116	0.03
398.15	0.125	0.03
408.15	0.137	0.029

System: 1-ethyl-1-methylpyrrolidinium lactate + ethanol; phases: Liquid
Fixed: Pressure, kPa = 100
Fixed: Mole fraction of ethanol = 0
Property: Activity coefficient of ethanol (Liquid); method: Chromatography
Temperature, K	Activity coefficient of ethanol	uncertainty
358.15	0.174	0.03
368.15	0.187	0.03
378.15	0.201	0.031
388.15	0.219	0.031
398.15	0.234	0.032
408.15	0.255	0.033

System: 1-ethyl-1-methylpyrrolidinium lactate + propan-1-ol; phases: Liquid
Fixed: Pressure, kPa = 100
Fixed: Mole fraction of propan-1-ol = 0
Property: Activity coefficient of propan-1-ol (Liquid); method: Chromatography
Temperature, K	Activity coefficient of propan-1-ol	uncertainty
358.15	0.236	0.032
368.15	0.256	0.033
378.15	0.277	0.034
388.15	0.302	0.035
398.15	0.327	0.036
408.15	0.349	0.037

System: 1-ethyl-1-methylpyrrolidinium lactate + butan-1-ol; phases: Liquid
Fixed: Pressure, kPa = 100
Fixed: Mole fraction of butan-1-ol = 0
Property: Activity coefficient of butan-1-ol (Liquid); method: Chromatography
Temperature, K	Activity coefficient of butan-1-ol	uncertainty
358.15	0.335	0.036
368.15	0.361	0.038
378.15	0.388	0.039
388.15	0.421	0.041
398.15	0.453	0.043
408.15	0.486	0.045

System: 1-ethyl-1-methylpyrrolidinium lactate + water; phases: Liquid
Fixed: Pressure, kPa = 100
Fixed: Mole fraction of water = 0
Property: Activity coefficient of water (Liquid); method: Chromatography
Temperature, K	Activity coefficient of water	uncertainty
368.15	0.046	0.03
378.15	0.052	0.03
388.15	0.059	0.03
398.15	0.066	0.03
408.15	0.072	0.03
